/media/chris/experiments/cd1a-new-docking/inputs/ligands/7ryn_ligand.pdb
 OpenBabel07032312553D

153153  0  0  1  0  0  0  0  0999 V2000
  -33.0340   65.1330   62.2120 N   0  0  0  0  0  0  0  0  0  0  0  0
  -32.0220   67.3480   62.3220 C   0  0  0  0  0  0  0  0  0  0  0  0
  -31.4051   67.0024   63.5673 O   0  0  0  0  0  0  0  0  0  0  0  0
  -32.1830   66.0840   61.5030 C   0  0  1  0  0  0  0  0  0  0  0  0
  -30.2154   65.0225   62.4176 O   0  0  0  0  0  0  0  0  0  0  0  0
  -30.8310   65.4230   61.1900 C   0  0  2  0  0  0  0  0  0  0  0  0
  -34.2576   66.6787   63.2990 O   0  0  0  0  0  0  0  0  0  0  0  0
  -29.9369   66.3439   60.4177 C   0  0  0  0  0  0  0  0  0  0  0  0
  -29.0472   68.5087   63.4560 O   0  0  0  0  0  0  0  0  0  0  0  0
  -30.3493   67.2791   59.5850 C   0  0  0  0  0  0  0  0  0  0  0  0
  -29.4663   71.3004   63.7442 O   0  0  0  0  0  0  0  0  0  0  0  0
  -29.4320   68.1925   58.8402 C   0  0  0  0  0  0  0  0  0  0  0  0
  -32.1950   71.4092   63.9043 O   0  0  0  0  0  0  0  0  0  0  0  0
  -28.0884   67.5157   58.5614 C   0  0  0  0  0  0  0  0  0  0  0  0
  -32.4523   68.6756   64.7639 O   0  0  0  0  0  0  0  0  0  0  0  0
  -27.0919   68.3911   57.8191 C   0  0  0  0  0  0  0  0  0  0  0  0
  -34.4615   70.6093   64.8705 O   0  0  0  0  0  0  0  0  0  0  0  0
  -27.5737   68.8730   56.4613 C   0  0  0  0  0  0  0  0  0  0  0  0
  -28.4817   73.4554   63.3041 O   0  0  0  0  0  0  0  0  0  0  0  0
  -26.5645   69.7348   55.7167 C   0  0  0  0  0  0  0  0  0  0  0  0
  -28.5846   72.5516   65.6468 O   0  5  0  0  0  0  0  0  0  0  0  0
  -27.0606   70.2272   54.3659 C   0  0  0  0  0  0  0  0  0  0  0  0
  -30.5292   73.2918   64.5035 O   0  0  0  0  0  0  0  0  0  0  0  0
  -26.0485   71.0734   53.6137 C   0  0  0  0  0  0  0  0  0  0  0  0
  -24.7543   70.3494   53.2927 C   0  0  0  0  0  0  0  0  0  0  0  0
  -24.9365   69.1231   52.4148 C   0  0  0  0  0  0  0  0  0  0  0  0
  -25.5417   69.4468   51.0614 C   0  0  0  0  0  0  0  0  0  0  0  0
  -24.7142   70.3961   50.2162 C   0  0  0  0  0  0  0  0  0  0  0  0
  -25.3637   70.7048   48.8816 C   0  0  0  0  0  0  0  0  0  0  0  0
  -24.5279   71.6395   48.0317 C   0  0  0  0  0  0  0  0  0  0  0  0
  -34.0033   65.5031   63.0532 C   0  0  0  0  0  0  0  0  0  0  0  0
  -34.7826   64.3775   63.6864 C   0  0  0  0  0  0  0  0  0  0  0  0
  -35.8794   64.8771   64.6180 C   0  0  0  0  0  0  0  0  0  0  0  0
  -36.6555   63.7445   65.2709 C   0  0  0  0  0  0  0  0  0  0  0  0
  -37.3399   62.8162   64.2815 C   0  0  0  0  0  0  0  0  0  0  0  0
  -38.1300   61.6933   64.9367 C   0  0  0  0  0  0  0  0  0  0  0  0
  -38.8037   60.7505   63.9477 C   0  0  0  0  0  0  0  0  0  0  0  0
  -37.8318   60.0300   63.0222 C   0  0  0  0  0  0  0  0  0  0  0  0
  -38.4929   59.0940   62.0136 C   0  0  0  0  0  0  0  0  0  0  0  0
  -37.5069   58.3645   61.1027 C   0  0  0  0  0  0  0  0  0  0  0  0
  -38.1551   57.4362   60.0757 C   0  0  0  0  0  0  0  0  0  0  0  0
  -37.1442   56.7074   59.1902 C   0  0  0  0  0  0  0  0  0  0  0  0
  -37.7546   55.7815   58.1382 C   0  0  0  0  0  0  0  0  0  0  0  0
  -36.7392   55.0402   57.2643 C   0  0  0  0  0  0  0  0  0  0  0  0
  -35.8402   55.9683   56.4997 C   0  0  0  0  0  0  0  0  0  0  0  0
  -36.2258   56.8821   55.6268 C   0  0  0  0  0  0  0  0  0  0  0  0
  -37.6394   57.1780   55.2263 C   0  0  0  0  0  0  0  0  0  0  0  0
  -38.3105   58.2503   56.0874 C   0  0  0  0  0  0  0  0  0  0  0  0
  -39.7517   58.5317   55.6837 C   0  0  0  0  0  0  0  0  0  0  0  0
  -39.8945   59.0050   54.2415 C   0  0  0  0  0  0  0  0  0  0  0  0
  -39.1316   60.2847   53.9187 C   0  0  0  0  0  0  0  0  0  0  0  0
  -37.6271   60.1685   54.1193 C   0  0  0  0  0  0  0  0  0  0  0  0
  -36.8585   61.4449   53.8161 C   0  0  0  0  0  0  0  0  0  0  0  0
  -35.3633   61.2922   54.0086 C   0  0  0  0  0  0  0  0  0  0  0  0
  -31.2104   68.0828   64.4327 C   0  0  2  0  0  0  0  0  0  0  0  0
  -30.3138   69.0941   63.7304 C   0  0  1  0  0  0  0  0  0  0  0  0
  -30.1449   70.3308   64.6038 C   0  0  2  0  0  0  0  0  0  0  0  0
  -31.4954   70.8877   65.0296 C   0  0  2  0  0  0  0  0  0  0  0  0
  -32.3266   69.7807   65.6732 C   0  0  1  0  0  0  0  0  0  0  0  0
  -33.7288   70.2187   66.0260 C   0  0  0  0  0  0  0  0  0  0  0  0
  -29.1081   72.7269   64.3444 S   0  0  0  0  0  0  0  0  0  0  0  0
  -32.8861   64.1712   62.0627 H   0  0  0  0  0  0  0  0  0  0  0  0
  -31.4053   68.0450   61.7940 H   0  0  0  0  0  0  0  0  0  0  0  0
  -32.9770   67.7979   62.4965 H   0  0  0  0  0  0  0  0  0  0  0  0
  -32.6374   66.3625   60.5752 H   0  0  0  0  0  0  0  0  0  0  0  0
  -30.8116   64.4280   62.8994 H   0  0  0  0  0  0  0  0  0  0  0  0
  -30.9971   64.5628   60.5757 H   0  0  0  0  0  0  0  0  0  0  0  0
  -28.9186   66.2380   60.5475 H   0  0  0  0  0  0  0  0  0  0  0  0
  -29.1677   67.7231   62.8999 H   0  0  0  0  0  0  0  0  0  0  0  0
  -31.3654   67.3862   59.4394 H   0  0  0  0  0  0  0  0  0  0  0  0
  -29.2652   69.0732   59.4246 H   0  0  0  0  0  0  0  0  0  0  0  0
  -29.8872   68.4430   57.9048 H   0  0  0  0  0  0  0  0  0  0  0  0
  -31.6684   72.1129   63.4939 H   0  0  0  0  0  0  0  0  0  0  0  0
  -28.2693   66.6403   57.9733 H   0  0  0  0  0  0  0  0  0  0  0  0
  -27.6530   67.2931   59.5131 H   0  0  0  0  0  0  0  0  0  0  0  0
  -26.1932   67.8284   57.6755 H   0  0  0  0  0  0  0  0  0  0  0  0
  -26.9440   69.2643   58.4195 H   0  0  0  0  0  0  0  0  0  0  0  0
  -35.3545   70.8838   65.1313 H   0  0  0  0  0  0  0  0  0  0  0  0
  -28.4653   69.4470   56.6049 H   0  0  0  0  0  0  0  0  0  0  0  0
  -27.7372   68.0008   55.8633 H   0  0  0  0  0  0  0  0  0  0  0  0
  -27.5791   73.1242   63.1756 H   0  0  0  0  0  0  0  0  0  0  0  0
  -25.6771   69.1575   55.5608 H   0  0  0  0  0  0  0  0  0  0  0  0
  -26.3872   70.6007   56.3196 H   0  0  0  0  0  0  0  0  0  0  0  0
  -27.9411   70.8145   54.5233 H   0  0  0  0  0  0  0  0  0  0  0  0
  -27.2488   69.3603   53.7676 H   0  0  0  0  0  0  0  0  0  0  0  0
  -30.9236   73.4264   63.6276 H   0  0  0  0  0  0  0  0  0  0  0  0
  -25.8155   71.9296   54.2116 H   0  0  0  0  0  0  0  0  0  0  0  0
  -26.4976   71.3335   52.6780 H   0  0  0  0  0  0  0  0  0  0  0  0
  -24.3035   70.0410   54.2128 H   0  0  0  0  0  0  0  0  0  0  0  0
  -24.1422   71.0353   52.7451 H   0  0  0  0  0  0  0  0  0  0  0  0
  -25.5808   68.4346   52.9204 H   0  0  0  0  0  0  0  0  0  0  0  0
  -23.9660   68.7078   52.2400 H   0  0  0  0  0  0  0  0  0  0  0  0
  -26.5016   69.8915   51.2218 H   0  0  0  0  0  0  0  0  0  0  0  0
  -25.5944   68.5243   50.5219 H   0  0  0  0  0  0  0  0  0  0  0  0
  -23.7579   69.9508   50.0372 H   0  0  0  0  0  0  0  0  0  0  0  0
  -24.6260   71.3166   50.7546 H   0  0  0  0  0  0  0  0  0  0  0  0
  -26.3147   71.1616   49.0603 H   0  0  0  0  0  0  0  0  0  0  0  0
  -25.4641   69.7827   48.3480 H   0  0  0  0  0  0  0  0  0  0  0  0
  -24.4093   72.5735   48.5400 H   0  0  0  0  0  0  0  0  0  0  0  0
  -25.0176   71.8031   47.0945 H   0  0  0  0  0  0  0  0  0  0  0  0
  -23.5666   71.2020   47.8603 H   0  0  0  0  0  0  0  0  0  0  0  0
  -34.1073   63.7667   64.2484 H   0  0  0  0  0  0  0  0  0  0  0  0
  -35.2520   63.8250   62.8995 H   0  0  0  0  0  0  0  0  0  0  0  0
  -36.5611   65.4780   64.0530 H   0  0  0  0  0  0  0  0  0  0  0  0
  -35.4098   65.4390   65.3982 H   0  0  0  0  0  0  0  0  0  0  0  0
  -37.4038   64.1711   65.9057 H   0  0  0  0  0  0  0  0  0  0  0  0
  -35.9461   63.1534   65.8115 H   0  0  0  0  0  0  0  0  0  0  0  0
  -36.5905   62.3799   63.6546 H   0  0  0  0  0  0  0  0  0  0  0  0
  -38.0402   63.4095   63.7315 H   0  0  0  0  0  0  0  0  0  0  0  0
  -38.8869   62.1302   65.5540 H   0  0  0  0  0  0  0  0  0  0  0  0
  -37.4302   61.1074   65.4952 H   0  0  0  0  0  0  0  0  0  0  0  0
  -39.4813   61.3205   63.3470 H   0  0  0  0  0  0  0  0  0  0  0  0
  -39.2996   59.9979   64.5244 H   0  0  0  0  0  0  0  0  0  0  0  0
  -37.1624   59.4525   63.6250 H   0  0  0  0  0  0  0  0  0  0  0  0
  -37.3350   60.7879   62.4534 H   0  0  0  0  0  0  0  0  0  0  0  0
  -39.1527   59.6719   61.4007 H   0  0  0  0  0  0  0  0  0  0  0  0
  -39.0059   58.3436   62.5781 H   0  0  0  0  0  0  0  0  0  0  0  0
  -36.8554   57.7790   61.7172 H   0  0  0  0  0  0  0  0  0  0  0  0
  -36.9928   59.1201   60.5460 H   0  0  0  0  0  0  0  0  0  0  0  0
  -38.7962   58.0198   59.4486 H   0  0  0  0  0  0  0  0  0  0  0  0
  -38.6924   56.6890   60.6214 H   0  0  0  0  0  0  0  0  0  0  0  0
  -36.5122   56.1197   59.8227 H   0  0  0  0  0  0  0  0  0  0  0  0
  -36.6181   57.4668   58.6504 H   0  0  0  0  0  0  0  0  0  0  0  0
  -38.3767   56.3709   57.4975 H   0  0  0  0  0  0  0  0  0  0  0  0
  -38.2926   55.0294   58.6764 H   0  0  0  0  0  0  0  0  0  0  0  0
  -37.2716   54.4284   56.5663 H   0  0  0  0  0  0  0  0  0  0  0  0
  -36.1211   54.4567   57.9141 H   0  0  0  0  0  0  0  0  0  0  0  0
  -34.8261   55.8847   56.6722 H   0  0  0  0  0  0  0  0  0  0  0  0
  -35.4850   57.4442   55.1793 H   0  0  0  0  0  0  0  0  0  0  0  0
  -38.2089   56.2757   55.3055 H   0  0  0  0  0  0  0  0  0  0  0  0
  -37.6087   57.5545   54.2252 H   0  0  0  0  0  0  0  0  0  0  0  0
  -37.7496   59.1572   55.9987 H   0  0  0  0  0  0  0  0  0  0  0  0
  -38.3285   57.8841   57.0926 H   0  0  0  0  0  0  0  0  0  0  0  0
  -40.1432   59.2894   56.3298 H   0  0  0  0  0  0  0  0  0  0  0  0
  -40.2894   57.6106   55.7688 H   0  0  0  0  0  0  0  0  0  0  0  0
  -40.9326   59.1766   54.0472 H   0  0  0  0  0  0  0  0  0  0  0  0
  -39.4754   58.2369   53.6258 H   0  0  0  0  0  0  0  0  0  0  0  0
  -39.4975   61.0650   54.5528 H   0  0  0  0  0  0  0  0  0  0  0  0
  -39.2933   60.4914   52.8813 H   0  0  0  0  0  0  0  0  0  0  0  0
  -37.2614   59.3956   53.4761 H   0  0  0  0  0  0  0  0  0  0  0  0
  -37.4704   59.9536   55.1556 H   0  0  0  0  0  0  0  0  0  0  0  0
  -37.2095   62.2178   54.4675 H   0  0  0  0  0  0  0  0  0  0  0  0
  -37.0270   61.6846   52.7870 H   0  0  0  0  0  0  0  0  0  0  0  0
  -35.1581   61.0514   55.0308 H   0  0  0  0  0  0  0  0  0  0  0  0
  -34.8754   62.2097   53.7535 H   0  0  0  0  0  0  0  0  0  0  0  0
  -35.0007   60.5079   53.3776 H   0  0  0  0  0  0  0  0  0  0  0  0
  -30.7515   67.7503   65.3403 H   0  0  0  0  0  0  0  0  0  0  0  0
  -30.7674   69.3839   62.8057 H   0  0  0  0  0  0  0  0  0  0  0  0
  -29.6019   70.1103   65.4990 H   0  0  0  0  0  0  0  0  0  0  0  0
  -31.3342   71.6761   65.7349 H   0  0  0  0  0  0  0  0  0  0  0  0
  -31.8112   69.5117   66.5715 H   0  0  0  0  0  0  0  0  0  0  0  0
  -34.2372   69.4060   66.5014 H   0  0  0  0  0  0  0  0  0  0  0  0
  -33.6613   71.0623   66.6807 H   0  0  0  0  0  0  0  0  0  0  0  0
  1  4  1  0  0  0  0
  1 31  1  0  0  0  0
  1 62  1  0  0  0  0
  2  3  1  0  0  0  0
  2  4  1  0  0  0  0
  2 63  1  0  0  0  0
  2 64  1  0  0  0  0
  3 55  1  0  0  0  0
  4  6  1  0  0  0  0
  4 65  1  6  0  0  0
  5  6  1  0  0  0  0
  5 66  1  0  0  0  0
  6  8  1  0  0  0  0
  6 67  1  6  0  0  0
  7 31  2  0  0  0  0
  8 10  2  0  0  0  0
  8 68  1  0  0  0  0
  9 56  1  0  0  0  0
  9 69  1  0  0  0  0
 10 12  1  0  0  0  0
 10 70  1  0  0  0  0
 11 57  1  0  0  0  0
 11 61  1  0  0  0  0
 12 14  1  0  0  0  0
 12 71  1  0  0  0  0
 12 72  1  0  0  0  0
 13 58  1  0  0  0  0
 13 73  1  0  0  0  0
 14 16  1  0  0  0  0
 14 74  1  0  0  0  0
 14 75  1  0  0  0  0
 15 55  1  0  0  0  0
 15 59  1  0  0  0  0
 16 18  1  0  0  0  0
 16 76  1  0  0  0  0
 16 77  1  0  0  0  0
 17 60  1  0  0  0  0
 17 78  1  0  0  0  0
 18 20  1  0  0  0  0
 18 79  1  0  0  0  0
 18 80  1  0  0  0  0
 19 61  1  0  0  0  0
 19 81  1  0  0  0  0
 20 22  1  0  0  0  0
 20 82  1  0  0  0  0
 20 83  1  0  0  0  0
 21 61  1  0  0  0  0
 22 24  1  0  0  0  0
 22 84  1  0  0  0  0
 22 85  1  0  0  0  0
 23 61  1  0  0  0  0
 23 86  1  0  0  0  0
 24 25  1  0  0  0  0
 24 87  1  0  0  0  0
 24 88  1  0  0  0  0
 25 26  1  0  0  0  0
 25 89  1  0  0  0  0
 25 90  1  0  0  0  0
 26 27  1  0  0  0  0
 26 91  1  0  0  0  0
 26 92  1  0  0  0  0
 27 28  1  0  0  0  0
 27 93  1  0  0  0  0
 27 94  1  0  0  0  0
 28 29  1  0  0  0  0
 28 95  1  0  0  0  0
 28 96  1  0  0  0  0
 29 30  1  0  0  0  0
 29 97  1  0  0  0  0
 29 98  1  0  0  0  0
 30 99  1  0  0  0  0
 30100  1  0  0  0  0
 30101  1  0  0  0  0
 31 32  1  0  0  0  0
 32 33  1  0  0  0  0
 32102  1  0  0  0  0
 32103  1  0  0  0  0
 33 34  1  0  0  0  0
 33104  1  0  0  0  0
 33105  1  0  0  0  0
 34 35  1  0  0  0  0
 34106  1  0  0  0  0
 34107  1  0  0  0  0
 35 36  1  0  0  0  0
 35108  1  0  0  0  0
 35109  1  0  0  0  0
 36 37  1  0  0  0  0
 36110  1  0  0  0  0
 36111  1  0  0  0  0
 37 38  1  0  0  0  0
 37112  1  0  0  0  0
 37113  1  0  0  0  0
 38 39  1  0  0  0  0
 38114  1  0  0  0  0
 38115  1  0  0  0  0
 39 40  1  0  0  0  0
 39116  1  0  0  0  0
 39117  1  0  0  0  0
 40 41  1  0  0  0  0
 40118  1  0  0  0  0
 40119  1  0  0  0  0
 41 42  1  0  0  0  0
 41120  1  0  0  0  0
 41121  1  0  0  0  0
 42 43  1  0  0  0  0
 42122  1  0  0  0  0
 42123  1  0  0  0  0
 43 44  1  0  0  0  0
 43124  1  0  0  0  0
 43125  1  0  0  0  0
 44 45  1  0  0  0  0
 44126  1  0  0  0  0
 44127  1  0  0  0  0
 45 46  2  0  0  0  0
 45128  1  0  0  0  0
 46 47  1  0  0  0  0
 46129  1  0  0  0  0
 47 48  1  0  0  0  0
 47130  1  0  0  0  0
 47131  1  0  0  0  0
 48 49  1  0  0  0  0
 48132  1  0  0  0  0
 48133  1  0  0  0  0
 49 50  1  0  0  0  0
 49134  1  0  0  0  0
 49135  1  0  0  0  0
 50 51  1  0  0  0  0
 50136  1  0  0  0  0
 50137  1  0  0  0  0
 51 52  1  0  0  0  0
 51138  1  0  0  0  0
 51139  1  0  0  0  0
 52 53  1  0  0  0  0
 52140  1  0  0  0  0
 52141  1  0  0  0  0
 53 54  1  0  0  0  0
 53142  1  0  0  0  0
 53143  1  0  0  0  0
 54144  1  0  0  0  0
 54145  1  0  0  0  0
 54146  1  0  0  0  0
 55 56  1  0  0  0  0
 55147  1  1  0  0  0
 56 57  1  0  0  0  0
 56148  1  6  0  0  0
 57 58  1  0  0  0  0
 57149  1  1  0  0  0
 58 59  1  0  0  0  0
 58150  1  1  0  0  0
 59 60  1  0  0  0  0
 59151  1  1  0  0  0
 60152  1  0  0  0  0
 60153  1  0  0  0  0
M  CHG  1  21  -1
M  END
$$$$