/media/chris/experiments/cd1a-new-docking/inputs/ligands/7ryn_ligand.pdb
 OpenBabel07032312553D

153153  0  0  1  0  0  0  0  0999 V2000
  -33.0340   65.1330   62.2120 N   0  0  0  0  0  0  0  0  0  0  0  0
  -32.0220   67.3480   62.3220 C   0  0  0  0  0  0  0  0  0  0  0  0
  -33.3204   67.9104   62.5424 O   0  0  0  0  0  0  0  0  0  0  0  0
  -32.1830   66.0840   61.5030 C   0  0  1  0  0  0  0  0  0  0  0  0
  -29.9992   66.3678   60.5104 O   0  0  0  0  0  0  0  0  0  0  0  0
  -30.8310   65.4230   61.1900 C   0  0  2  0  0  0  0  0  0  0  0  0
  -31.3638   64.0971   63.3098 O   0  0  0  0  0  0  0  0  0  0  0  0
  -31.0055   64.1786   60.3744 C   0  0  0  0  0  0  0  0  0  0  0  0
  -36.1193   67.8488   62.4832 O   0  0  0  0  0  0  0  0  0  0  0  0
  -30.6246   62.9714   60.7426 C   0  0  0  0  0  0  0  0  0  0  0  0
  -37.2741   70.0030   61.0417 O   0  0  0  0  0  0  0  0  0  0  0  0
  -30.8265   61.7465   59.9122 C   0  0  0  0  0  0  0  0  0  0  0  0
  -35.0443   71.4283   60.3491 O   0  0  0  0  0  0  0  0  0  0  0  0
  -29.4892   61.0836   59.5755 C   0  0  0  0  0  0  0  0  0  0  0  0
  -33.2780   69.1723   60.6099 O   0  0  0  0  0  0  0  0  0  0  0  0
  -29.6114   59.8360   58.7157 C   0  0  0  0  0  0  0  0  0  0  0  0
  -31.7443   69.7638   58.3378 O   0  0  0  0  0  0  0  0  0  0  0  0
  -30.2499   60.0732   57.3578 C   0  0  0  0  0  0  0  0  0  0  0  0
  -38.8374   69.5190   59.2728 O   0  0  0  0  0  0  0  0  0  0  0  0
  -29.4857   61.0510   56.4770 C   0  0  0  0  0  0  0  0  0  0  0  0
  -37.7499   71.7788   59.4344 O   0  5  0  0  0  0  0  0  0  0  0  0
  -30.1401   61.2962   55.1261 C   0  0  0  0  0  0  0  0  0  0  0  0
  -39.4024   71.0704   60.9849 O   0  0  0  0  0  0  0  0  0  0  0  0
  -31.5363   61.8858   55.2207 C   0  0  0  0  0  0  0  0  0  0  0  0
  -31.5918   63.2360   55.9110 C   0  0  0  0  0  0  0  0  0  0  0  0
  -32.9921   63.8149   56.0188 C   0  0  0  0  0  0  0  0  0  0  0  0
  -33.6572   64.0148   54.6697 C   0  0  0  0  0  0  0  0  0  0  0  0
  -32.9072   64.9425   53.7331 C   0  0  0  0  0  0  0  0  0  0  0  0
  -33.6153   65.1266   52.4052 C   0  0  0  0  0  0  0  0  0  0  0  0
  -32.8565   66.0398   51.4646 C   0  0  0  0  0  0  0  0  0  0  0  0
  -32.5596   64.2152   63.0586 C   0  0  0  0  0  0  0  0  0  0  0  0
  -33.5934   63.3253   63.7025 C   0  0  0  0  0  0  0  0  0  0  0  0
  -34.8154   63.1137   62.8180 C   0  0  0  0  0  0  0  0  0  0  0  0
  -34.4732   62.4502   61.4937 C   0  0  0  0  0  0  0  0  0  0  0  0
  -33.8532   61.0703   61.6379 C   0  0  0  0  0  0  0  0  0  0  0  0
  -33.4957   60.4148   60.3125 C   0  0  0  0  0  0  0  0  0  0  0  0
  -32.8896   59.0242   60.4523 C   0  0  0  0  0  0  0  0  0  0  0  0
  -31.6066   58.9901   61.2728 C   0  0  0  0  0  0  0  0  0  0  0  0
  -30.9775   57.6057   61.4080 C   0  0  0  0  0  0  0  0  0  0  0  0
  -29.7009   57.5818   62.2471 C   0  0  0  0  0  0  0  0  0  0  0  0
  -28.5748   58.4706   61.7194 C   0  0  0  0  0  0  0  0  0  0  0  0
  -27.3051   58.4134   62.5689 C   0  0  0  0  0  0  0  0  0  0  0  0
  -26.6590   57.0322   62.6751 C   0  0  0  0  0  0  0  0  0  0  0  0
  -26.2072   56.4273   61.3431 C   0  0  0  0  0  0  0  0  0  0  0  0
  -25.5953   55.0652   61.4988 C   0  0  0  0  0  0  0  0  0  0  0  0
  -25.1077   54.3150   60.5264 C   0  0  0  0  0  0  0  0  0  0  0  0
  -25.0650   54.6747   59.0722 C   0  0  0  0  0  0  0  0  0  0  0  0
  -25.8341   53.7020   58.1757 C   0  0  0  0  0  0  0  0  0  0  0  0
  -25.3218   52.2704   58.2616 C   0  0  0  0  0  0  0  0  0  0  0  0
  -25.4239   51.6744   59.6611 C   0  0  0  0  0  0  0  0  0  0  0  0
  -26.8432   51.5961   60.2119 C   0  0  0  0  0  0  0  0  0  0  0  0
  -26.9244   51.0144   61.6162 C   0  0  0  0  0  0  0  0  0  0  0  0
  -28.3377   50.9162   62.1683 C   0  0  0  0  0  0  0  0  0  0  0  0
  -29.0368   52.2586   62.2404 C   0  0  0  0  0  0  0  0  0  0  0  0
  -34.0138   68.2339   61.3725 C   0  0  2  0  0  0  0  0  0  0  0  0
  -35.3627   68.8190   61.7702 C   0  0  1  0  0  0  0  0  0  0  0  0
  -36.1194   69.2678   60.5264 C   0  0  2  0  0  0  0  0  0  0  0  0
  -35.2668   70.1951   59.6728 C   0  0  2  0  0  0  0  0  0  0  0  0
  -33.9243   69.5307   59.3780 C   0  0  1  0  0  0  0  0  0  0  0  0
  -32.9686   70.4285   58.6276 C   0  0  0  0  0  0  0  0  0  0  0  0
  -38.3112   70.6118   60.0036 S   0  0  0  0  0  0  0  0  0  0  0  0
  -34.0058   65.1700   62.0585 H   0  0  0  0  0  0  0  0  0  0  0  0
  -31.5648   67.1148   63.2609 H   0  0  0  0  0  0  0  0  0  0  0  0
  -31.4012   68.0473   61.8019 H   0  0  0  0  0  0  0  0  0  0  0  0
  -32.6374   66.3625   60.5752 H   0  0  0  0  0  0  0  0  0  0  0  0
  -29.9008   67.1635   61.0564 H   0  0  0  0  0  0  0  0  0  0  0  0
  -30.3647   65.1308   62.1077 H   0  0  0  0  0  0  0  0  0  0  0  0
  -31.4592   64.2738   59.4524 H   0  0  0  0  0  0  0  0  0  0  0  0
  -35.6277   67.5712   63.2720 H   0  0  0  0  0  0  0  0  0  0  0  0
  -30.1599   62.8667   61.6581 H   0  0  0  0  0  0  0  0  0  0  0  0
  -31.3208   62.0182   59.0030 H   0  0  0  0  0  0  0  0  0  0  0  0
  -31.4197   61.0519   60.4694 H   0  0  0  0  0  0  0  0  0  0  0  0
  -35.8963   71.8521   60.5374 H   0  0  0  0  0  0  0  0  0  0  0  0
  -29.0083   60.8134   60.4924 H   0  0  0  0  0  0  0  0  0  0  0  0
  -28.9278   61.7951   59.0069 H   0  0  0  0  0  0  0  0  0  0  0  0
  -30.2056   59.1208   59.2451 H   0  0  0  0  0  0  0  0  0  0  0  0
  -28.6150   59.4927   58.5302 H   0  0  0  0  0  0  0  0  0  0  0  0
  -31.1553   70.3661   57.8571 H   0  0  0  0  0  0  0  0  0  0  0  0
  -31.2358   60.4593   57.5124 H   0  0  0  0  0  0  0  0  0  0  0  0
  -30.2511   59.1327   56.8476 H   0  0  0  0  0  0  0  0  0  0  0  0
  -38.1728   69.2025   58.6411 H   0  0  0  0  0  0  0  0  0  0  0  0
  -28.5038   60.6597   56.3108 H   0  0  0  0  0  0  0  0  0  0  0  0
  -29.4693   61.9889   56.9917 H   0  0  0  0  0  0  0  0  0  0  0  0
  -30.2023   60.3628   54.6068 H   0  0  0  0  0  0  0  0  0  0  0  0
  -29.5335   62.0114   54.6108 H   0  0  0  0  0  0  0  0  0  0  0  0
  -39.8129   70.2945   61.3977 H   0  0  0  0  0  0  0  0  0  0  0  0
  -32.1533   61.2033   55.7670 H   0  0  0  0  0  0  0  0  0  0  0  0
  -31.8765   62.0373   54.2176 H   0  0  0  0  0  0  0  0  0  0  0  0
  -30.9851   63.9223   55.3579 H   0  0  0  0  0  0  0  0  0  0  0  0
  -31.2387   63.0887   56.9102 H   0  0  0  0  0  0  0  0  0  0  0  0
  -32.9322   64.7621   56.5130 H   0  0  0  0  0  0  0  0  0  0  0  0
  -33.5863   63.1145   56.5677 H   0  0  0  0  0  0  0  0  0  0  0  0
  -34.6326   64.4226   54.8346 H   0  0  0  0  0  0  0  0  0  0  0  0
  -33.6808   63.0559   54.1956 H   0  0  0  0  0  0  0  0  0  0  0  0
  -31.9360   64.5327   53.5498 H   0  0  0  0  0  0  0  0  0  0  0  0
  -32.8482   65.9011   54.2048 H   0  0  0  0  0  0  0  0  0  0  0  0
  -34.5817   65.5481   52.5873 H   0  0  0  0  0  0  0  0  0  0  0  0
  -33.6863   64.1662   51.9388 H   0  0  0  0  0  0  0  0  0  0  0  0
  -32.7686   67.0113   51.9043 H   0  0  0  0  0  0  0  0  0  0  0  0
  -33.3844   66.1146   50.5369 H   0  0  0  0  0  0  0  0  0  0  0  0
  -31.8803   65.6386   51.2882 H   0  0  0  0  0  0  0  0  0  0  0  0
  -33.9085   63.7748   64.6209 H   0  0  0  0  0  0  0  0  0  0  0  0
  -33.1418   62.3692   63.8662 H   0  0  0  0  0  0  0  0  0  0  0  0
  -35.2627   64.0651   62.6188 H   0  0  0  0  0  0  0  0  0  0  0  0
  -35.4849   62.4637   63.3417 H   0  0  0  0  0  0  0  0  0  0  0  0
  -33.7811   63.0775   60.9716 H   0  0  0  0  0  0  0  0  0  0  0  0
  -35.3936   62.3231   60.9631 H   0  0  0  0  0  0  0  0  0  0  0  0
  -34.5502   60.4394   62.1489 H   0  0  0  0  0  0  0  0  0  0  0  0
  -32.9391   61.1950   62.1799 H   0  0  0  0  0  0  0  0  0  0  0  0
  -32.7896   61.0403   59.8074 H   0  0  0  0  0  0  0  0  0  0  0  0
  -34.4093   60.3008   59.7672 H   0  0  0  0  0  0  0  0  0  0  0  0
  -32.6733   58.6508   59.4731 H   0  0  0  0  0  0  0  0  0  0  0  0
  -33.6067   58.4235   60.9717 H   0  0  0  0  0  0  0  0  0  0  0  0
  -31.8281   59.3537   62.2544 H   0  0  0  0  0  0  0  0  0  0  0  0
  -30.8962   59.5973   60.7517 H   0  0  0  0  0  0  0  0  0  0  0  0
  -30.7427   57.2459   60.4281 H   0  0  0  0  0  0  0  0  0  0  0  0
  -31.6915   56.9896   61.9134 H   0  0  0  0  0  0  0  0  0  0  0  0
  -29.3427   56.5742   62.2808 H   0  0  0  0  0  0  0  0  0  0  0  0
  -29.9643   57.9665   63.2102 H   0  0  0  0  0  0  0  0  0  0  0  0
  -28.9231   59.4821   61.6982 H   0  0  0  0  0  0  0  0  0  0  0  0
  -28.3187   58.1096   60.7452 H   0  0  0  0  0  0  0  0  0  0  0  0
  -27.5522   58.7408   63.5572 H   0  0  0  0  0  0  0  0  0  0  0  0
  -26.5898   59.0407   62.0793 H   0  0  0  0  0  0  0  0  0  0  0  0
  -27.3694   56.3662   63.1185 H   0  0  0  0  0  0  0  0  0  0  0  0
  -25.7736   57.1596   63.2622 H   0  0  0  0  0  0  0  0  0  0  0  0
  -25.4829   57.0786   60.9004 H   0  0  0  0  0  0  0  0  0  0  0  0
  -27.0757   56.3211   60.7272 H   0  0  0  0  0  0  0  0  0  0  0  0
  -25.5513   54.6786   62.4546 H   0  0  0  0  0  0  0  0  0  0  0  0
  -24.7205   53.3964   60.7931 H   0  0  0  0  0  0  0  0  0  0  0  0
  -24.0424   54.6879   58.7573 H   0  0  0  0  0  0  0  0  0  0  0  0
  -25.5350   55.6307   58.9723 H   0  0  0  0  0  0  0  0  0  0  0  0
  -25.7475   54.0335   57.1620 H   0  0  0  0  0  0  0  0  0  0  0  0
  -26.8497   53.6960   58.5124 H   0  0  0  0  0  0  0  0  0  0  0  0
  -24.2946   52.2591   57.9621 H   0  0  0  0  0  0  0  0  0  0  0  0
  -25.9367   51.6755   57.6190 H   0  0  0  0  0  0  0  0  0  0  0  0
  -24.8405   52.2777   60.3248 H   0  0  0  0  0  0  0  0  0  0  0  0
  -25.0686   50.6676   59.5902 H   0  0  0  0  0  0  0  0  0  0  0  0
  -27.4257   50.9816   59.5577 H   0  0  0  0  0  0  0  0  0  0  0  0
  -27.2124   52.5988   60.2674 H   0  0  0  0  0  0  0  0  0  0  0  0
  -26.3506   51.6364   62.2710 H   0  0  0  0  0  0  0  0  0  0  0  0
  -26.5465   50.0150   61.5579 H   0  0  0  0  0  0  0  0  0  0  0  0
  -28.2913   50.5020   63.1538 H   0  0  0  0  0  0  0  0  0  0  0  0
  -28.9005   50.2962   61.5021 H   0  0  0  0  0  0  0  0  0  0  0  0
  -28.4986   52.9060   62.9007 H   0  0  0  0  0  0  0  0  0  0  0  0
  -30.0327   52.1228   62.6072 H   0  0  0  0  0  0  0  0  0  0  0  0
  -29.0728   52.6948   61.2640 H   0  0  0  0  0  0  0  0  0  0  0  0
  -34.1535   67.3589   60.7727 H   0  0  0  0  0  0  0  0  0  0  0  0
  -35.2053   69.6672   62.4032 H   0  0  0  0  0  0  0  0  0  0  0  0
  -36.3912   68.4373   59.9090 H   0  0  0  0  0  0  0  0  0  0  0  0
  -35.7838   70.3893   58.7563 H   0  0  0  0  0  0  0  0  0  0  0  0
  -34.1465   68.6773   58.7719 H   0  0  0  0  0  0  0  0  0  0  0  0
  -33.4255   70.7312   57.7086 H   0  0  0  0  0  0  0  0  0  0  0  0
  -32.7518   71.2760   59.2436 H   0  0  0  0  0  0  0  0  0  0  0  0
  1  4  1  0  0  0  0
  1 31  1  0  0  0  0
  1 62  1  0  0  0  0
  2  3  1  0  0  0  0
  2  4  1  0  0  0  0
  2 63  1  0  0  0  0
  2 64  1  0  0  0  0
  3 55  1  0  0  0  0
  4  6  1  0  0  0  0
  4 65  1  6  0  0  0
  5  6  1  0  0  0  0
  5 66  1  0  0  0  0
  6  8  1  0  0  0  0
  6 67  1  1  0  0  0
  7 31  2  0  0  0  0
  8 10  2  0  0  0  0
  8 68  1  0  0  0  0
  9 56  1  0  0  0  0
  9 69  1  0  0  0  0
 10 12  1  0  0  0  0
 10 70  1  0  0  0  0
 11 57  1  0  0  0  0
 11 61  1  0  0  0  0
 12 14  1  0  0  0  0
 12 71  1  0  0  0  0
 12 72  1  0  0  0  0
 13 58  1  0  0  0  0
 13 73  1  0  0  0  0
 14 16  1  0  0  0  0
 14 74  1  0  0  0  0
 14 75  1  0  0  0  0
 15 55  1  0  0  0  0
 15 59  1  0  0  0  0
 16 18  1  0  0  0  0
 16 76  1  0  0  0  0
 16 77  1  0  0  0  0
 17 60  1  0  0  0  0
 17 78  1  0  0  0  0
 18 20  1  0  0  0  0
 18 79  1  0  0  0  0
 18 80  1  0  0  0  0
 19 61  1  0  0  0  0
 19 81  1  0  0  0  0
 20 22  1  0  0  0  0
 20 82  1  0  0  0  0
 20 83  1  0  0  0  0
 21 61  1  0  0  0  0
 22 24  1  0  0  0  0
 22 84  1  0  0  0  0
 22 85  1  0  0  0  0
 23 61  1  0  0  0  0
 23 86  1  0  0  0  0
 24 25  1  0  0  0  0
 24 87  1  0  0  0  0
 24 88  1  0  0  0  0
 25 26  1  0  0  0  0
 25 89  1  0  0  0  0
 25 90  1  0  0  0  0
 26 27  1  0  0  0  0
 26 91  1  0  0  0  0
 26 92  1  0  0  0  0
 27 28  1  0  0  0  0
 27 93  1  0  0  0  0
 27 94  1  0  0  0  0
 28 29  1  0  0  0  0
 28 95  1  0  0  0  0
 28 96  1  0  0  0  0
 29 30  1  0  0  0  0
 29 97  1  0  0  0  0
 29 98  1  0  0  0  0
 30 99  1  0  0  0  0
 30100  1  0  0  0  0
 30101  1  0  0  0  0
 31 32  1  0  0  0  0
 32 33  1  0  0  0  0
 32102  1  0  0  0  0
 32103  1  0  0  0  0
 33 34  1  0  0  0  0
 33104  1  0  0  0  0
 33105  1  0  0  0  0
 34 35  1  0  0  0  0
 34106  1  0  0  0  0
 34107  1  0  0  0  0
 35 36  1  0  0  0  0
 35108  1  0  0  0  0
 35109  1  0  0  0  0
 36 37  1  0  0  0  0
 36110  1  0  0  0  0
 36111  1  0  0  0  0
 37 38  1  0  0  0  0
 37112  1  0  0  0  0
 37113  1  0  0  0  0
 38 39  1  0  0  0  0
 38114  1  0  0  0  0
 38115  1  0  0  0  0
 39 40  1  0  0  0  0
 39116  1  0  0  0  0
 39117  1  0  0  0  0
 40 41  1  0  0  0  0
 40118  1  0  0  0  0
 40119  1  0  0  0  0
 41 42  1  0  0  0  0
 41120  1  0  0  0  0
 41121  1  0  0  0  0
 42 43  1  0  0  0  0
 42122  1  0  0  0  0
 42123  1  0  0  0  0
 43 44  1  0  0  0  0
 43124  1  0  0  0  0
 43125  1  0  0  0  0
 44 45  1  0  0  0  0
 44126  1  0  0  0  0
 44127  1  0  0  0  0
 45 46  2  0  0  0  0
 45128  1  0  0  0  0
 46 47  1  0  0  0  0
 46129  1  0  0  0  0
 47 48  1  0  0  0  0
 47130  1  0  0  0  0
 47131  1  0  0  0  0
 48 49  1  0  0  0  0
 48132  1  0  0  0  0
 48133  1  0  0  0  0
 49 50  1  0  0  0  0
 49134  1  0  0  0  0
 49135  1  0  0  0  0
 50 51  1  0  0  0  0
 50136  1  0  0  0  0
 50137  1  0  0  0  0
 51 52  1  0  0  0  0
 51138  1  0  0  0  0
 51139  1  0  0  0  0
 52 53  1  0  0  0  0
 52140  1  0  0  0  0
 52141  1  0  0  0  0
 53 54  1  0  0  0  0
 53142  1  0  0  0  0
 53143  1  0  0  0  0
 54144  1  0  0  0  0
 54145  1  0  0  0  0
 54146  1  0  0  0  0
 55 56  1  0  0  0  0
 55147  1  6  0  0  0
 56 57  1  0  0  0  0
 56148  1  1  0  0  0
 57 58  1  0  0  0  0
 57149  1  6  0  0  0
 58 59  1  0  0  0  0
 58150  1  6  0  0  0
 59 60  1  0  0  0  0
 59151  1  6  0  0  0
 60152  1  0  0  0  0
 60153  1  0  0  0  0
M  CHG  1  21  -1
M  END
$$$$