/media/chris/experiments/cd1a-new-docking/inputs/ligands/7ryn_ligand.pdb
 OpenBabel07032312553D

153153  0  0  1  0  0  0  0  0999 V2000
  -33.0340   65.1330   62.2120 N   0  0  0  0  0  0  0  0  0  0  0  0
  -32.0220   67.3480   62.3220 C   0  0  0  0  0  0  0  0  0  0  0  0
  -31.4051   67.0024   63.5673 O   0  0  0  0  0  0  0  0  0  0  0  0
  -32.1830   66.0840   61.5030 C   0  0  1  0  0  0  0  0  0  0  0  0
  -30.2154   65.0225   62.4176 O   0  0  0  0  0  0  0  0  0  0  0  0
  -30.8310   65.4230   61.1900 C   0  0  2  0  0  0  0  0  0  0  0  0
  -34.2576   66.6787   63.2990 O   0  0  0  0  0  0  0  0  0  0  0  0
  -29.9369   66.3439   60.4177 C   0  0  0  0  0  0  0  0  0  0  0  0
  -29.0472   68.5087   63.4560 O   0  0  0  0  0  0  0  0  0  0  0  0
  -30.3493   67.2791   59.5850 C   0  0  0  0  0  0  0  0  0  0  0  0
  -29.4663   71.3004   63.7442 O   0  0  0  0  0  0  0  0  0  0  0  0
  -29.4320   68.1925   58.8402 C   0  0  0  0  0  0  0  0  0  0  0  0
  -32.1950   71.4092   63.9043 O   0  0  0  0  0  0  0  0  0  0  0  0
  -29.1569   69.4678   59.6396 C   0  0  0  0  0  0  0  0  0  0  0  0
  -32.4523   68.6756   64.7639 O   0  0  0  0  0  0  0  0  0  0  0  0
  -28.2419   70.4580   58.9376 C   0  0  0  0  0  0  0  0  0  0  0  0
  -34.4615   70.6093   64.8705 O   0  0  0  0  0  0  0  0  0  0  0  0
  -27.9539   71.7175   59.7369 C   0  0  0  0  0  0  0  0  0  0  0  0
  -27.6225   72.0302   62.3750 O   0  0  0  0  0  0  0  0  0  0  0  0
  -27.0511   72.7116   59.0211 C   0  0  0  0  0  0  0  0  0  0  0  0
  -28.0944   69.5812   62.6834 O   0  5  0  0  0  0  0  0  0  0  0  0
  -26.7537   73.9620   59.8343 C   0  0  0  0  0  0  0  0  0  0  0  0
  -27.2205   70.9190   64.4392 O   0  0  0  0  0  0  0  0  0  0  0  0
  -26.0422   73.6835   61.1467 C   0  0  0  0  0  0  0  0  0  0  0  0
  -24.6899   73.0140   60.9868 C   0  0  0  0  0  0  0  0  0  0  0  0
  -23.6886   73.8321   60.1895 C   0  0  0  0  0  0  0  0  0  0  0  0
  -23.3798   75.1751   60.8247 C   0  0  0  0  0  0  0  0  0  0  0  0
  -22.7748   75.0870   62.2128 C   0  0  0  0  0  0  0  0  0  0  0  0
  -22.4986   76.4505   62.8154 C   0  0  0  0  0  0  0  0  0  0  0  0
  -23.7551   77.2826   62.9688 C   0  0  0  0  0  0  0  0  0  0  0  0
  -34.0033   65.5031   63.0532 C   0  0  0  0  0  0  0  0  0  0  0  0
  -34.7826   64.3775   63.6864 C   0  0  0  0  0  0  0  0  0  0  0  0
  -36.2686   64.4370   63.3565 C   0  0  0  0  0  0  0  0  0  0  0  0
  -36.9201   65.7312   63.8165 C   0  0  0  0  0  0  0  0  0  0  0  0
  -36.8153   65.9760   65.3127 C   0  0  0  0  0  0  0  0  0  0  0  0
  -37.4825   67.2631   65.7738 C   0  0  0  0  0  0  0  0  0  0  0  0
  -37.3647   67.5205   67.2707 C   0  0  0  0  0  0  0  0  0  0  0  0
  -35.9291   67.6489   67.7635 C   0  0  0  0  0  0  0  0  0  0  0  0
  -35.0590   66.4211   67.5074 C   0  0  0  0  0  0  0  0  0  0  0  0
  -33.6264   66.5557   68.0213 C   0  0  0  0  0  0  0  0  0  0  0  0
  -32.7379   65.3404   67.7571 C   0  0  0  0  0  0  0  0  0  0  0  0
  -31.3161   65.4967   68.2970 C   0  0  0  0  0  0  0  0  0  0  0  0
  -30.3909   64.3079   68.0374 C   0  0  0  0  0  0  0  0  0  0  0  0
  -30.8668   62.9787   68.6298 C   0  0  0  0  0  0  0  0  0  0  0  0
  -31.0335   63.0312   70.1210 C   0  0  0  0  0  0  0  0  0  0  0  0
  -30.8749   62.0212   70.9580 C   0  0  0  0  0  0  0  0  0  0  0  0
  -30.4935   60.6201   70.5872 C   0  0  0  0  0  0  0  0  0  0  0  0
  -28.9832   60.3742   70.5860 C   0  0  0  0  0  0  0  0  0  0  0  0
  -28.6049   58.9528   70.1914 C   0  0  0  0  0  0  0  0  0  0  0  0
  -29.1997   57.8914   71.1101 C   0  0  0  0  0  0  0  0  0  0  0  0
  -30.7234   57.8739   71.1509 C   0  0  0  0  0  0  0  0  0  0  0  0
  -31.3695   57.5945   69.8012 C   0  0  0  0  0  0  0  0  0  0  0  0
  -30.9992   56.2476   69.2009 C   0  0  0  0  0  0  0  0  0  0  0  0
  -31.6441   56.0067   67.8511 C   0  0  0  0  0  0  0  0  0  0  0  0
  -31.2104   68.0828   64.4327 C   0  0  2  0  0  0  0  0  0  0  0  0
  -30.3138   69.0941   63.7304 C   0  0  1  0  0  0  0  0  0  0  0  0
  -30.1449   70.3308   64.6038 C   0  0  2  0  0  0  0  0  0  0  0  0
  -31.4954   70.8877   65.0296 C   0  0  2  0  0  0  0  0  0  0  0  0
  -32.3266   69.7807   65.6732 C   0  0  1  0  0  0  0  0  0  0  0  0
  -33.7288   70.2187   66.0260 C   0  0  0  0  0  0  0  0  0  0  0  0
  -28.0466   70.9183   63.1425 S   0  0  0  0  0  0  0  0  0  0  0  0
  -32.8861   64.1712   62.0627 H   0  0  0  0  0  0  0  0  0  0  0  0
  -31.4053   68.0450   61.7940 H   0  0  0  0  0  0  0  0  0  0  0  0
  -32.9770   67.7979   62.4965 H   0  0  0  0  0  0  0  0  0  0  0  0
  -32.6374   66.3625   60.5752 H   0  0  0  0  0  0  0  0  0  0  0  0
  -30.8116   64.4280   62.8994 H   0  0  0  0  0  0  0  0  0  0  0  0
  -30.9971   64.5628   60.5757 H   0  0  0  0  0  0  0  0  0  0  0  0
  -28.9186   66.2380   60.5475 H   0  0  0  0  0  0  0  0  0  0  0  0
  -29.1677   67.7231   62.8999 H   0  0  0  0  0  0  0  0  0  0  0  0
  -31.3654   67.3862   59.4394 H   0  0  0  0  0  0  0  0  0  0  0  0
  -29.8833   68.4558   57.9064 H   0  0  0  0  0  0  0  0  0  0  0  0
  -28.5038   67.6852   58.6791 H   0  0  0  0  0  0  0  0  0  0  0  0
  -31.6684   72.1129   63.4939 H   0  0  0  0  0  0  0  0  0  0  0  0
  -28.7023   69.1906   60.5677 H   0  0  0  0  0  0  0  0  0  0  0  0
  -30.0989   69.9584   59.7696 H   0  0  0  0  0  0  0  0  0  0  0  0
  -28.7025   70.7444   58.0153 H   0  0  0  0  0  0  0  0  0  0  0  0
  -27.3039   69.9626   58.7975 H   0  0  0  0  0  0  0  0  0  0  0  0
  -35.3545   70.8838   65.1313 H   0  0  0  0  0  0  0  0  0  0  0  0
  -27.4813   71.4334   60.6538 H   0  0  0  0  0  0  0  0  0  0  0  0
  -28.8925   72.2073   59.8917 H   0  0  0  0  0  0  0  0  0  0  0  0
  -28.1249   72.0612   61.5458 H   0  0  0  0  0  0  0  0  0  0  0  0
  -27.5286   73.0066   58.1101 H   0  0  0  0  0  0  0  0  0  0  0  0
  -26.1164   72.2193   58.8509 H   0  0  0  0  0  0  0  0  0  0  0  0
  -27.6798   74.4526   60.0499 H   0  0  0  0  0  0  0  0  0  0  0  0
  -26.0971   74.5682   59.2458 H   0  0  0  0  0  0  0  0  0  0  0  0
  -27.1647   71.8230   64.7865 H   0  0  0  0  0  0  0  0  0  0  0  0
  -26.6653   73.0458   61.7383 H   0  0  0  0  0  0  0  0  0  0  0  0
  -25.8648   74.6318   61.6095 H   0  0  0  0  0  0  0  0  0  0  0  0
  -24.8341   72.0785   60.4878 H   0  0  0  0  0  0  0  0  0  0  0  0
  -24.2831   72.8969   61.9695 H   0  0  0  0  0  0  0  0  0  0  0  0
  -24.0885   74.0014   59.2116 H   0  0  0  0  0  0  0  0  0  0  0  0
  -22.7750   73.2760   60.1570 H   0  0  0  0  0  0  0  0  0  0  0  0
  -24.2914   75.7312   60.8916 H   0  0  0  0  0  0  0  0  0  0  0  0
  -22.6484   75.6466   60.2021 H   0  0  0  0  0  0  0  0  0  0  0  0
  -21.8535   74.5463   62.1515 H   0  0  0  0  0  0  0  0  0  0  0  0
  -23.4822   74.5908   62.8439 H   0  0  0  0  0  0  0  0  0  0  0  0
  -21.8156   76.9745   62.1799 H   0  0  0  0  0  0  0  0  0  0  0  0
  -22.0890   76.2973   63.7919 H   0  0  0  0  0  0  0  0  0  0  0  0
  -24.1894   77.4534   62.0059 H   0  0  0  0  0  0  0  0  0  0  0  0
  -23.5086   78.2207   63.4204 H   0  0  0  0  0  0  0  0  0  0  0  0
  -24.4546   76.7613   63.5882 H   0  0  0  0  0  0  0  0  0  0  0  0
  -34.6646   64.4337   64.7484 H   0  0  0  0  0  0  0  0  0  0  0  0
  -34.4000   63.4579   63.2955 H   0  0  0  0  0  0  0  0  0  0  0  0
  -36.7592   63.6168   63.8378 H   0  0  0  0  0  0  0  0  0  0  0  0
  -36.3657   64.3867   62.2921 H   0  0  0  0  0  0  0  0  0  0  0  0
  -37.9565   65.6991   63.5523 H   0  0  0  0  0  0  0  0  0  0  0  0
  -36.3976   66.5305   63.3338 H   0  0  0  0  0  0  0  0  0  0  0  0
  -35.7789   66.0207   65.5751 H   0  0  0  0  0  0  0  0  0  0  0  0
  -37.3265   65.1700   65.7963 H   0  0  0  0  0  0  0  0  0  0  0  0
  -38.5212   67.2126   65.5218 H   0  0  0  0  0  0  0  0  0  0  0  0
  -36.9774   68.0674   65.2808 H   0  0  0  0  0  0  0  0  0  0  0  0
  -37.8277   66.7074   67.7898 H   0  0  0  0  0  0  0  0  0  0  0  0
  -37.8445   68.4572   67.4636 H   0  0  0  0  0  0  0  0  0  0  0  0
  -35.9527   67.8276   68.8182 H   0  0  0  0  0  0  0  0  0  0  0  0
  -35.4893   68.4536   67.2122 H   0  0  0  0  0  0  0  0  0  0  0  0
  -35.0229   66.2486   66.4520 H   0  0  0  0  0  0  0  0  0  0  0  0
  -35.5046   65.6090   68.0429 H   0  0  0  0  0  0  0  0  0  0  0  0
  -33.6650   66.7172   69.0784 H   0  0  0  0  0  0  0  0  0  0  0  0
  -33.1886   67.3729   67.4871 H   0  0  0  0  0  0  0  0  0  0  0  0
  -32.6836   65.1837   66.7000 H   0  0  0  0  0  0  0  0  0  0  0  0
  -33.1794   64.5102   68.2677 H   0  0  0  0  0  0  0  0  0  0  0  0
  -31.3775   65.6444   69.3550 H   0  0  0  0  0  0  0  0  0  0  0  0
  -30.8884   66.3273   67.7755 H   0  0  0  0  0  0  0  0  0  0  0  0
  -29.4330   64.5346   68.4568 H   0  0  0  0  0  0  0  0  0  0  0  0
  -30.3676   64.1721   66.9763 H   0  0  0  0  0  0  0  0  0  0  0  0
  -30.1481   62.2223   68.3928 H   0  0  0  0  0  0  0  0  0  0  0  0
  -31.8255   62.7630   68.2065 H   0  0  0  0  0  0  0  0  0  0  0  0
  -31.2967   63.9412   70.5305 H   0  0  0  0  0  0  0  0  0  0  0  0
  -31.0278   62.2152   71.9600 H   0  0  0  0  0  0  0  0  0  0  0  0
  -30.8699   60.4158   69.6066 H   0  0  0  0  0  0  0  0  0  0  0  0
  -30.9151   59.9743   71.3288 H   0  0  0  0  0  0  0  0  0  0  0  0
  -28.6072   60.5652   71.5693 H   0  0  0  0  0  0  0  0  0  0  0  0
  -28.5558   61.0301   69.8565 H   0  0  0  0  0  0  0  0  0  0  0  0
  -27.5388   58.8656   70.2180 H   0  0  0  0  0  0  0  0  0  0  0  0
  -29.0002   58.7807   69.2121 H   0  0  0  0  0  0  0  0  0  0  0  0
  -28.8406   58.0688   72.1024 H   0  0  0  0  0  0  0  0  0  0  0  0
  -28.8944   56.9436   70.7184 H   0  0  0  0  0  0  0  0  0  0  0  0
  -31.0629   58.8279   71.4967 H   0  0  0  0  0  0  0  0  0  0  0  0
  -31.0092   57.0766   71.8049 H   0  0  0  0  0  0  0  0  0  0  0  0
  -31.0665   58.3610   69.1189 H   0  0  0  0  0  0  0  0  0  0  0  0
  -32.4271   57.5790   69.9634 H   0  0  0  0  0  0  0  0  0  0  0  0
  -31.3141   55.4763   69.8723 H   0  0  0  0  0  0  0  0  0  0  0  0
  -29.9391   56.2409   69.0562 H   0  0  0  0  0  0  0  0  0  0  0  0
  -32.7086   56.0070   67.9592 H   0  0  0  0  0  0  0  0  0  0  0  0
  -31.3249   55.0603   67.4671 H   0  0  0  0  0  0  0  0  0  0  0  0
  -31.3541   56.7826   67.1737 H   0  0  0  0  0  0  0  0  0  0  0  0
  -30.7515   67.7503   65.3403 H   0  0  0  0  0  0  0  0  0  0  0  0
  -30.7674   69.3839   62.8057 H   0  0  0  0  0  0  0  0  0  0  0  0
  -29.6019   70.1103   65.4990 H   0  0  0  0  0  0  0  0  0  0  0  0
  -31.3342   71.6761   65.7349 H   0  0  0  0  0  0  0  0  0  0  0  0
  -31.8112   69.5117   66.5715 H   0  0  0  0  0  0  0  0  0  0  0  0
  -34.2372   69.4060   66.5014 H   0  0  0  0  0  0  0  0  0  0  0  0
  -33.6613   71.0623   66.6807 H   0  0  0  0  0  0  0  0  0  0  0  0
  1  4  1  0  0  0  0
  1 31  1  0  0  0  0
  1 62  1  0  0  0  0
  2  3  1  0  0  0  0
  2  4  1  0  0  0  0
  2 63  1  0  0  0  0
  2 64  1  0  0  0  0
  3 55  1  0  0  0  0
  4  6  1  0  0  0  0
  4 65  1  6  0  0  0
  5  6  1  0  0  0  0
  5 66  1  0  0  0  0
  6  8  1  0  0  0  0
  6 67  1  6  0  0  0
  7 31  2  0  0  0  0
  8 10  2  0  0  0  0
  8 68  1  0  0  0  0
  9 56  1  0  0  0  0
  9 69  1  0  0  0  0
 10 12  1  0  0  0  0
 10 70  1  0  0  0  0
 11 57  1  0  0  0  0
 11 61  1  0  0  0  0
 12 14  1  0  0  0  0
 12 71  1  0  0  0  0
 12 72  1  0  0  0  0
 13 58  1  0  0  0  0
 13 73  1  0  0  0  0
 14 16  1  0  0  0  0
 14 74  1  0  0  0  0
 14 75  1  0  0  0  0
 15 55  1  0  0  0  0
 15 59  1  0  0  0  0
 16 18  1  0  0  0  0
 16 76  1  0  0  0  0
 16 77  1  0  0  0  0
 17 60  1  0  0  0  0
 17 78  1  0  0  0  0
 18 20  1  0  0  0  0
 18 79  1  0  0  0  0
 18 80  1  0  0  0  0
 19 61  1  0  0  0  0
 19 81  1  0  0  0  0
 20 22  1  0  0  0  0
 20 82  1  0  0  0  0
 20 83  1  0  0  0  0
 21 61  1  0  0  0  0
 22 24  1  0  0  0  0
 22 84  1  0  0  0  0
 22 85  1  0  0  0  0
 23 61  1  0  0  0  0
 23 86  1  0  0  0  0
 24 25  1  0  0  0  0
 24 87  1  0  0  0  0
 24 88  1  0  0  0  0
 25 26  1  0  0  0  0
 25 89  1  0  0  0  0
 25 90  1  0  0  0  0
 26 27  1  0  0  0  0
 26 91  1  0  0  0  0
 26 92  1  0  0  0  0
 27 28  1  0  0  0  0
 27 93  1  0  0  0  0
 27 94  1  0  0  0  0
 28 29  1  0  0  0  0
 28 95  1  0  0  0  0
 28 96  1  0  0  0  0
 29 30  1  0  0  0  0
 29 97  1  0  0  0  0
 29 98  1  0  0  0  0
 30 99  1  0  0  0  0
 30100  1  0  0  0  0
 30101  1  0  0  0  0
 31 32  1  0  0  0  0
 32 33  1  0  0  0  0
 32102  1  0  0  0  0
 32103  1  0  0  0  0
 33 34  1  0  0  0  0
 33104  1  0  0  0  0
 33105  1  0  0  0  0
 34 35  1  0  0  0  0
 34106  1  0  0  0  0
 34107  1  0  0  0  0
 35 36  1  0  0  0  0
 35108  1  0  0  0  0
 35109  1  0  0  0  0
 36 37  1  0  0  0  0
 36110  1  0  0  0  0
 36111  1  0  0  0  0
 37 38  1  0  0  0  0
 37112  1  0  0  0  0
 37113  1  0  0  0  0
 38 39  1  0  0  0  0
 38114  1  0  0  0  0
 38115  1  0  0  0  0
 39 40  1  0  0  0  0
 39116  1  0  0  0  0
 39117  1  0  0  0  0
 40 41  1  0  0  0  0
 40118  1  0  0  0  0
 40119  1  0  0  0  0
 41 42  1  0  0  0  0
 41120  1  0  0  0  0
 41121  1  0  0  0  0
 42 43  1  0  0  0  0
 42122  1  0  0  0  0
 42123  1  0  0  0  0
 43 44  1  0  0  0  0
 43124  1  0  0  0  0
 43125  1  0  0  0  0
 44 45  1  0  0  0  0
 44126  1  0  0  0  0
 44127  1  0  0  0  0
 45 46  2  0  0  0  0
 45128  1  0  0  0  0
 46 47  1  0  0  0  0
 46129  1  0  0  0  0
 47 48  1  0  0  0  0
 47130  1  0  0  0  0
 47131  1  0  0  0  0
 48 49  1  0  0  0  0
 48132  1  0  0  0  0
 48133  1  0  0  0  0
 49 50  1  0  0  0  0
 49134  1  0  0  0  0
 49135  1  0  0  0  0
 50 51  1  0  0  0  0
 50136  1  0  0  0  0
 50137  1  0  0  0  0
 51 52  1  0  0  0  0
 51138  1  0  0  0  0
 51139  1  0  0  0  0
 52 53  1  0  0  0  0
 52140  1  0  0  0  0
 52141  1  0  0  0  0
 53 54  1  0  0  0  0
 53142  1  0  0  0  0
 53143  1  0  0  0  0
 54144  1  0  0  0  0
 54145  1  0  0  0  0
 54146  1  0  0  0  0
 55 56  1  0  0  0  0
 55147  1  1  0  0  0
 56 57  1  0  0  0  0
 56148  1  6  0  0  0
 57 58  1  0  0  0  0
 57149  1  1  0  0  0
 58 59  1  0  0  0  0
 58150  1  1  0  0  0
 59 60  1  0  0  0  0
 59151  1  1  0  0  0
 60152  1  0  0  0  0
 60153  1  0  0  0  0
M  CHG  1  21  -1
M  END
$$$$