/media/chris/experiments/cd1a-new-docking/inputs/ligands/7ryn_ligand.pdb
 OpenBabel07032312553D

153153  0  0  1  0  0  0  0  0999 V2000
  -33.0340   65.1330   62.2120 N   0  0  0  0  0  0  0  0  0  0  0  0
  -32.0220   67.3480   62.3220 C   0  0  0  0  0  0  0  0  0  0  0  0
  -31.1969   68.2589   61.5870 O   0  0  0  0  0  0  0  0  0  0  0  0
  -32.1830   66.0840   61.5030 C   0  0  1  0  0  0  0  0  0  0  0  0
  -31.0548   64.2805   60.3587 O   0  0  0  0  0  0  0  0  0  0  0  0
  -30.8310   65.4230   61.1900 C   0  0  2  0  0  0  0  0  0  0  0  0
  -34.5420   63.4616   62.1958 O   0  0  0  0  0  0  0  0  0  0  0  0
  -30.1054   65.0399   62.4433 C   0  0  0  0  0  0  0  0  0  0  0  0
  -28.8256   69.6743   61.1237 O   0  0  0  0  0  0  0  0  0  0  0  0
  -29.2560   65.8107   63.0932 C   0  0  0  0  0  0  0  0  0  0  0  0
  -29.1955   72.4811   60.9310 O   0  0  0  0  0  0  0  0  0  0  0  0
  -28.5590   65.4049   64.3502 C   0  0  0  0  0  0  0  0  0  0  0  0
  -31.9137   72.6716   61.1716 O   0  0  0  0  0  0  0  0  0  0  0  0
  -29.4088   64.4215   65.1577 C   0  0  0  0  0  0  0  0  0  0  0  0
  -32.1725   70.1372   62.5085 O   0  0  0  0  0  0  0  0  0  0  0  0
  -30.7684   64.9638   65.5679 C   0  0  0  0  0  0  0  0  0  0  0  0
  -33.3185   73.1515   64.2067 O   0  0  0  0  0  0  0  0  0  0  0  0
  -30.7086   66.2187   66.4220 C   0  0  0  0  0  0  0  0  0  0  0  0
  -28.2009   74.5050   60.0814 O   0  0  0  0  0  0  0  0  0  0  0  0
  -32.0725   66.7462   66.8430 C   0  0  0  0  0  0  0  0  0  0  0  0
  -28.2208   74.0289   62.5489 O   0  5  0  0  0  0  0  0  0  0  0  0
  -32.9784   67.0993   65.6734 C   0  0  0  0  0  0  0  0  0  0  0  0
  -30.2001   74.5960   61.3668 O   0  0  0  0  0  0  0  0  0  0  0  0
  -33.2927   65.9230   64.7660 C   0  0  0  0  0  0  0  0  0  0  0  0
  -34.0110   64.7811   65.4606 C   0  0  0  0  0  0  0  0  0  0  0  0
  -35.3585   65.1670   66.0459 C   0  0  0  0  0  0  0  0  0  0  0  0
  -36.3411   65.6592   64.9996 C   0  0  0  0  0  0  0  0  0  0  0  0
  -37.6923   66.0692   65.5532 C   0  0  0  0  0  0  0  0  0  0  0  0
  -37.5925   67.2068   66.5504 C   0  0  0  0  0  0  0  0  0  0  0  0
  -38.9409   67.6035   67.1150 C   0  0  0  0  0  0  0  0  0  0  0  0
  -33.8200   64.2493   61.5913 C   0  0  0  0  0  0  0  0  0  0  0  0
  -33.7740   64.2810   60.0839 C   0  0  0  0  0  0  0  0  0  0  0  0
  -33.3190   62.9564   59.4847 C   0  0  0  0  0  0  0  0  0  0  0  0
  -33.2552   62.9908   57.9661 C   0  0  0  0  0  0  0  0  0  0  0  0
  -32.8203   61.6773   57.3378 C   0  0  0  0  0  0  0  0  0  0  0  0
  -31.4445   61.2069   57.7854 C   0  0  0  0  0  0  0  0  0  0  0  0
  -31.3319   60.9578   59.2841 C   0  0  0  0  0  0  0  0  0  0  0  0
  -29.9486   60.5033   59.7317 C   0  0  0  0  0  0  0  0  0  0  0  0
  -29.4659   59.2089   59.0820 C   0  0  0  0  0  0  0  0  0  0  0  0
  -30.3736   58.0073   59.3397 C   0  0  0  0  0  0  0  0  0  0  0  0
  -29.8943   56.6999   58.7095 C   0  0  0  0  0  0  0  0  0  0  0  0
  -30.8305   55.5195   58.9695 C   0  0  0  0  0  0  0  0  0  0  0  0
  -30.3766   54.1890   58.3691 C   0  0  0  0  0  0  0  0  0  0  0  0
  -30.2021   54.1938   56.8481 C   0  0  0  0  0  0  0  0  0  0  0  0
  -31.4652   54.5465   56.1172 C   0  0  0  0  0  0  0  0  0  0  0  0
  -32.6119   53.8935   56.1847 C   0  0  0  0  0  0  0  0  0  0  0  0
  -32.8831   52.6706   57.0074 C   0  0  0  0  0  0  0  0  0  0  0  0
  -33.9320   51.7389   56.3964 C   0  0  0  0  0  0  0  0  0  0  0  0
  -35.2852   52.4072   56.1926 C   0  0  0  0  0  0  0  0  0  0  0  0
  -35.2325   53.6054   55.2514 C   0  0  0  0  0  0  0  0  0  0  0  0
  -36.5715   54.3037   55.0430 C   0  0  0  0  0  0  0  0  0  0  0  0
  -37.1741   54.8680   56.3218 C   0  0  0  0  0  0  0  0  0  0  0  0
  -38.5181   55.5519   56.1275 C   0  0  0  0  0  0  0  0  0  0  0  0
  -39.5809   54.6188   55.5837 C   0  0  0  0  0  0  0  0  0  0  0  0
  -30.9530   69.4703   62.2406 C   0  0  2  0  0  0  0  0  0  0  0  0
  -30.0721   70.3242   61.3379 C   0  0  1  0  0  0  0  0  0  0  0  0
  -29.8516   71.6915   61.9728 C   0  0  2  0  0  0  0  0  0  0  0  0
  -31.1762   72.3417   62.3441 C   0  0  2  0  0  0  0  0  0  0  0  0
  -31.9954   71.3819   63.2035 C   0  0  1  0  0  0  0  0  0  0  0  0
  -33.3762   71.9033   63.5259 C   0  0  0  0  0  0  0  0  0  0  0  0
  -28.7943   73.9833   61.2565 S   0  0  0  0  0  0  0  0  0  0  0  0
  -33.0282   65.1436   63.1964 H   0  0  0  0  0  0  0  0  0  0  0  0
  -32.9806   67.7896   62.4978 H   0  0  0  0  0  0  0  0  0  0  0  0
  -31.5704   67.1208   63.2650 H   0  0  0  0  0  0  0  0  0  0  0  0
  -32.6374   66.3625   60.5752 H   0  0  0  0  0  0  0  0  0  0  0  0
  -31.5249   64.5525   59.5551 H   0  0  0  0  0  0  0  0  0  0  0  0
  -30.2105   66.1253   60.6735 H   0  0  0  0  0  0  0  0  0  0  0  0
  -30.2845   64.0992   62.8281 H   0  0  0  0  0  0  0  0  0  0  0  0
  -28.9790   68.8059   60.7197 H   0  0  0  0  0  0  0  0  0  0  0  0
  -29.0613   66.7494   62.7110 H   0  0  0  0  0  0  0  0  0  0  0  0
  -28.3733   66.2756   64.9437 H   0  0  0  0  0  0  0  0  0  0  0  0
  -27.6391   64.9247   64.0892 H   0  0  0  0  0  0  0  0  0  0  0  0
  -31.3948   73.2814   60.6241 H   0  0  0  0  0  0  0  0  0  0  0  0
  -28.8696   64.1618   66.0447 H   0  0  0  0  0  0  0  0  0  0  0  0
  -29.5922   63.5801   64.5227 H   0  0  0  0  0  0  0  0  0  0  0  0
  -31.2785   64.2045   66.1230 H   0  0  0  0  0  0  0  0  0  0  0  0
  -31.2769   65.2312   64.6652 H   0  0  0  0  0  0  0  0  0  0  0  0
  -34.2189   73.4572   64.3982 H   0  0  0  0  0  0  0  0  0  0  0  0
  -30.2102   66.9828   65.8629 H   0  0  0  0  0  0  0  0  0  0  0  0
  -30.1870   65.9581   67.3192 H   0  0  0  0  0  0  0  0  0  0  0  0
  -27.3087   74.1382   59.9795 H   0  0  0  0  0  0  0  0  0  0  0  0
  -31.9267   67.6254   67.4350 H   0  0  0  0  0  0  0  0  0  0  0  0
  -32.5563   65.9628   67.3881 H   0  0  0  0  0  0  0  0  0  0  0  0
  -32.4970   67.8564   65.0902 H   0  0  0  0  0  0  0  0  0  0  0  0
  -33.9076   67.4311   66.0875 H   0  0  0  0  0  0  0  0  0  0  0  0
  -30.6278   74.5827   60.4963 H   0  0  0  0  0  0  0  0  0  0  0  0
  -32.3721   65.5492   64.3689 H   0  0  0  0  0  0  0  0  0  0  0  0
  -33.9524   66.2864   64.0060 H   0  0  0  0  0  0  0  0  0  0  0  0
  -33.3884   64.4247   66.2544 H   0  0  0  0  0  0  0  0  0  0  0  0
  -34.1975   64.0338   64.7178 H   0  0  0  0  0  0  0  0  0  0  0  0
  -35.2077   65.9452   66.7647 H   0  0  0  0  0  0  0  0  0  0  0  0
  -35.7777   64.2884   66.4901 H   0  0  0  0  0  0  0  0  0  0  0  0
  -36.4947   64.8740   64.2891 H   0  0  0  0  0  0  0  0  0  0  0  0
  -35.9102   66.5367   64.5647 H   0  0  0  0  0  0  0  0  0  0  0  0
  -38.1340   65.2247   66.0396 H   0  0  0  0  0  0  0  0  0  0  0  0
  -38.2895   66.4086   64.7327 H   0  0  0  0  0  0  0  0  0  0  0  0
  -37.1624   68.0554   66.0608 H   0  0  0  0  0  0  0  0  0  0  0  0
  -36.9847   66.8725   67.3650 H   0  0  0  0  0  0  0  0  0  0  0  0
  -39.5736   67.9435   66.3219 H   0  0  0  0  0  0  0  0  0  0  0  0
  -38.8112   68.3893   67.8295 H   0  0  0  0  0  0  0  0  0  0  0  0
  -39.3905   66.7580   67.5924 H   0  0  0  0  0  0  0  0  0  0  0  0
  -33.0933   65.0477   59.7778 H   0  0  0  0  0  0  0  0  0  0  0  0
  -34.7666   64.4720   59.7329 H   0  0  0  0  0  0  0  0  0  0  0  0
  -34.0068   62.1923   59.7812 H   0  0  0  0  0  0  0  0  0  0  0  0
  -32.3308   62.7609   59.8454 H   0  0  0  0  0  0  0  0  0  0  0  0
  -32.5594   63.7499   57.6753 H   0  0  0  0  0  0  0  0  0  0  0  0
  -34.2477   63.1878   57.6181 H   0  0  0  0  0  0  0  0  0  0  0  0
  -32.8051   61.8006   56.2751 H   0  0  0  0  0  0  0  0  0  0  0  0
  -33.5215   60.9337   57.6545 H   0  0  0  0  0  0  0  0  0  0  0  0
  -30.7286   61.9543   57.5139 H   0  0  0  0  0  0  0  0  0  0  0  0
  -31.2653   60.2695   57.3016 H   0  0  0  0  0  0  0  0  0  0  0  0
  -32.0388   60.2013   59.5540 H   0  0  0  0  0  0  0  0  0  0  0  0
  -31.5243   61.8917   59.7696 H   0  0  0  0  0  0  0  0  0  0  0  0
  -29.9717   60.3568   60.7914 H   0  0  0  0  0  0  0  0  0  0  0  0
  -29.2646   61.2686   59.4296 H   0  0  0  0  0  0  0  0  0  0  0  0
  -28.4924   58.9832   59.4646 H   0  0  0  0  0  0  0  0  0  0  0  0
  -29.4652   59.3749   58.0250 H   0  0  0  0  0  0  0  0  0  0  0  0
  -31.3433   58.2313   58.9466 H   0  0  0  0  0  0  0  0  0  0  0  0
  -30.3754   57.8506   60.3982 H   0  0  0  0  0  0  0  0  0  0  0  0
  -28.9312   56.4633   59.1111 H   0  0  0  0  0  0  0  0  0  0  0  0
  -29.8658   56.8522   57.6508 H   0  0  0  0  0  0  0  0  0  0  0  0
  -31.7887   55.7593   58.5582 H   0  0  0  0  0  0  0  0  0  0  0  0
  -30.8458   55.3786   60.0300 H   0  0  0  0  0  0  0  0  0  0  0  0
  -31.1057   53.4464   58.6176 H   0  0  0  0  0  0  0  0  0  0  0  0
  -29.4098   53.9883   58.7813 H   0  0  0  0  0  0  0  0  0  0  0  0
  -29.8882   53.2193   56.5372 H   0  0  0  0  0  0  0  0  0  0  0  0
  -29.4738   54.9408   56.6104 H   0  0  0  0  0  0  0  0  0  0  0  0
  -31.4350   55.3765   55.5047 H   0  0  0  0  0  0  0  0  0  0  0  0
  -33.3932   54.2596   55.6185 H   0  0  0  0  0  0  0  0  0  0  0  0
  -33.2279   52.9814   57.9715 H   0  0  0  0  0  0  0  0  0  0  0  0
  -31.9675   52.1193   57.0599 H   0  0  0  0  0  0  0  0  0  0  0  0
  -34.0620   50.9001   57.0478 H   0  0  0  0  0  0  0  0  0  0  0  0
  -33.5736   51.4479   55.4311 H   0  0  0  0  0  0  0  0  0  0  0  0
  -35.6467   52.7384   57.1436 H   0  0  0  0  0  0  0  0  0  0  0  0
  -35.9318   51.6817   55.7448 H   0  0  0  0  0  0  0  0  0  0  0  0
  -34.8798   53.2675   54.2994 H   0  0  0  0  0  0  0  0  0  0  0  0
  -34.5825   54.3227   55.7074 H   0  0  0  0  0  0  0  0  0  0  0  0
  -37.2599   53.5971   54.6286 H   0  0  0  0  0  0  0  0  0  0  0  0
  -36.3932   55.1321   54.3897 H   0  0  0  0  0  0  0  0  0  0  0  0
  -36.4895   55.5826   56.7287 H   0  0  0  0  0  0  0  0  0  0  0  0
  -37.3428   54.0376   56.9752 H   0  0  0  0  0  0  0  0  0  0  0  0
  -38.3923   56.3631   55.4412 H   0  0  0  0  0  0  0  0  0  0  0  0
  -38.8482   55.8901   57.0874 H   0  0  0  0  0  0  0  0  0  0  0  0
  -39.2821   54.2603   54.6209 H   0  0  0  0  0  0  0  0  0  0  0  0
  -40.5077   55.1464   55.4961 H   0  0  0  0  0  0  0  0  0  0  0  0
  -39.7035   53.7908   56.2503 H   0  0  0  0  0  0  0  0  0  0  0  0
  -30.4622   69.2932   63.1747 H   0  0  0  0  0  0  0  0  0  0  0  0
  -30.5589   70.4564   60.3943 H   0  0  0  0  0  0  0  0  0  0  0  0
  -29.2758   71.6206   62.8719 H   0  0  0  0  0  0  0  0  0  0  0  0
  -30.9761   73.2382   62.8929 H   0  0  0  0  0  0  0  0  0  0  0  0
  -31.4476   71.2644   64.1151 H   0  0  0  0  0  0  0  0  0  0  0  0
  -33.9213   72.0300   62.6139 H   0  0  0  0  0  0  0  0  0  0  0  0
  -33.8606   71.1952   64.1653 H   0  0  0  0  0  0  0  0  0  0  0  0
  1  4  1  0  0  0  0
  1 31  1  0  0  0  0
  1 62  1  0  0  0  0
  2  3  1  0  0  0  0
  2  4  1  0  0  0  0
  2 63  1  0  0  0  0
  2 64  1  0  0  0  0
  3 55  1  0  0  0  0
  4  6  1  0  0  0  0
  4 65  1  6  0  0  0
  5  6  1  0  0  0  0
  5 66  1  0  0  0  0
  6  8  1  0  0  0  0
  6 67  1  6  0  0  0
  7 31  2  0  0  0  0
  8 10  2  0  0  0  0
  8 68  1  0  0  0  0
  9 56  1  0  0  0  0
  9 69  1  0  0  0  0
 10 12  1  0  0  0  0
 10 70  1  0  0  0  0
 11 57  1  0  0  0  0
 11 61  1  0  0  0  0
 12 14  1  0  0  0  0
 12 71  1  0  0  0  0
 12 72  1  0  0  0  0
 13 58  1  0  0  0  0
 13 73  1  0  0  0  0
 14 16  1  0  0  0  0
 14 74  1  0  0  0  0
 14 75  1  0  0  0  0
 15 55  1  0  0  0  0
 15 59  1  0  0  0  0
 16 18  1  0  0  0  0
 16 76  1  0  0  0  0
 16 77  1  0  0  0  0
 17 60  1  0  0  0  0
 17 78  1  0  0  0  0
 18 20  1  0  0  0  0
 18 79  1  0  0  0  0
 18 80  1  0  0  0  0
 19 61  1  0  0  0  0
 19 81  1  0  0  0  0
 20 22  1  0  0  0  0
 20 82  1  0  0  0  0
 20 83  1  0  0  0  0
 21 61  1  0  0  0  0
 22 24  1  0  0  0  0
 22 84  1  0  0  0  0
 22 85  1  0  0  0  0
 23 61  1  0  0  0  0
 23 86  1  0  0  0  0
 24 25  1  0  0  0  0
 24 87  1  0  0  0  0
 24 88  1  0  0  0  0
 25 26  1  0  0  0  0
 25 89  1  0  0  0  0
 25 90  1  0  0  0  0
 26 27  1  0  0  0  0
 26 91  1  0  0  0  0
 26 92  1  0  0  0  0
 27 28  1  0  0  0  0
 27 93  1  0  0  0  0
 27 94  1  0  0  0  0
 28 29  1  0  0  0  0
 28 95  1  0  0  0  0
 28 96  1  0  0  0  0
 29 30  1  0  0  0  0
 29 97  1  0  0  0  0
 29 98  1  0  0  0  0
 30 99  1  0  0  0  0
 30100  1  0  0  0  0
 30101  1  0  0  0  0
 31 32  1  0  0  0  0
 32 33  1  0  0  0  0
 32102  1  0  0  0  0
 32103  1  0  0  0  0
 33 34  1  0  0  0  0
 33104  1  0  0  0  0
 33105  1  0  0  0  0
 34 35  1  0  0  0  0
 34106  1  0  0  0  0
 34107  1  0  0  0  0
 35 36  1  0  0  0  0
 35108  1  0  0  0  0
 35109  1  0  0  0  0
 36 37  1  0  0  0  0
 36110  1  0  0  0  0
 36111  1  0  0  0  0
 37 38  1  0  0  0  0
 37112  1  0  0  0  0
 37113  1  0  0  0  0
 38 39  1  0  0  0  0
 38114  1  0  0  0  0
 38115  1  0  0  0  0
 39 40  1  0  0  0  0
 39116  1  0  0  0  0
 39117  1  0  0  0  0
 40 41  1  0  0  0  0
 40118  1  0  0  0  0
 40119  1  0  0  0  0
 41 42  1  0  0  0  0
 41120  1  0  0  0  0
 41121  1  0  0  0  0
 42 43  1  0  0  0  0
 42122  1  0  0  0  0
 42123  1  0  0  0  0
 43 44  1  0  0  0  0
 43124  1  0  0  0  0
 43125  1  0  0  0  0
 44 45  1  0  0  0  0
 44126  1  0  0  0  0
 44127  1  0  0  0  0
 45 46  2  0  0  0  0
 45128  1  0  0  0  0
 46 47  1  0  0  0  0
 46129  1  0  0  0  0
 47 48  1  0  0  0  0
 47130  1  0  0  0  0
 47131  1  0  0  0  0
 48 49  1  0  0  0  0
 48132  1  0  0  0  0
 48133  1  0  0  0  0
 49 50  1  0  0  0  0
 49134  1  0  0  0  0
 49135  1  0  0  0  0
 50 51  1  0  0  0  0
 50136  1  0  0  0  0
 50137  1  0  0  0  0
 51 52  1  0  0  0  0
 51138  1  0  0  0  0
 51139  1  0  0  0  0
 52 53  1  0  0  0  0
 52140  1  0  0  0  0
 52141  1  0  0  0  0
 53 54  1  0  0  0  0
 53142  1  0  0  0  0
 53143  1  0  0  0  0
 54144  1  0  0  0  0
 54145  1  0  0  0  0
 54146  1  0  0  0  0
 55 56  1  0  0  0  0
 55147  1  1  0  0  0
 56 57  1  0  0  0  0
 56148  1  6  0  0  0
 57 58  1  0  0  0  0
 57149  1  1  0  0  0
 58 59  1  0  0  0  0
 58150  1  1  0  0  0
 59 60  1  0  0  0  0
 59151  1  1  0  0  0
 60152  1  0  0  0  0
 60153  1  0  0  0  0
M  CHG  1  21  -1
M  END
$$$$