/media/chris/experiments/cd1a-new-docking/inputs/ligands/7ryn_ligand.pdb
 OpenBabel07032312553D

153153  0  0  1  0  0  0  0  0999 V2000
  -33.0340   65.1330   62.2120 N   0  0  0  0  0  0  0  0  0  0  0  0
  -32.0220   67.3480   62.3220 C   0  0  0  0  0  0  0  0  0  0  0  0
  -31.4051   67.0024   63.5673 O   0  0  0  0  0  0  0  0  0  0  0  0
  -32.1830   66.0840   61.5030 C   0  0  1  0  0  0  0  0  0  0  0  0
  -29.9992   66.3678   60.5104 O   0  0  0  0  0  0  0  0  0  0  0  0
  -30.8310   65.4230   61.1900 C   0  0  2  0  0  0  0  0  0  0  0  0
  -34.9746   65.8457   61.3210 O   0  0  0  0  0  0  0  0  0  0  0  0
  -31.0055   64.1786   60.3744 C   0  0  0  0  0  0  0  0  0  0  0  0
  -29.0472   68.5087   63.4560 O   0  0  0  0  0  0  0  0  0  0  0  0
  -30.0261   63.3955   59.9676 C   0  0  0  0  0  0  0  0  0  0  0  0
  -29.4663   71.3004   63.7442 O   0  0  0  0  0  0  0  0  0  0  0  0
  -30.2340   62.1517   59.1673 C   0  0  0  0  0  0  0  0  0  0  0  0
  -32.1950   71.4092   63.9043 O   0  0  0  0  0  0  0  0  0  0  0  0
  -29.6970   60.9249   59.9074 C   0  0  0  0  0  0  0  0  0  0  0  0
  -32.4523   68.6756   64.7639 O   0  0  0  0  0  0  0  0  0  0  0  0
  -30.3641   60.6647   61.2482 C   0  0  0  0  0  0  0  0  0  0  0  0
  -33.7220   71.3280   66.9172 O   0  0  0  0  0  0  0  0  0  0  0  0
  -31.8594   60.4103   61.1630 C   0  0  0  0  0  0  0  0  0  0  0  0
  -28.4817   73.4554   63.3041 O   0  0  0  0  0  0  0  0  0  0  0  0
  -32.5235   60.1673   62.5105 C   0  0  0  0  0  0  0  0  0  0  0  0
  -28.5846   72.5516   65.6468 O   0  5  0  0  0  0  0  0  0  0  0  0
  -32.3972   61.3378   63.4735 C   0  0  0  0  0  0  0  0  0  0  0  0
  -30.5292   73.2918   64.5035 O   0  0  0  0  0  0  0  0  0  0  0  0
  -30.9614   61.7154   63.7927 C   0  0  0  0  0  0  0  0  0  0  0  0
  -30.8281   62.8717   64.7661 C   0  0  0  0  0  0  0  0  0  0  0  0
  -31.4796   64.1577   64.2872 C   0  0  0  0  0  0  0  0  0  0  0  0
  -31.3198   65.3048   65.2675 C   0  0  0  0  0  0  0  0  0  0  0  0
  -31.9069   65.0413   66.6409 C   0  0  0  0  0  0  0  0  0  0  0  0
  -31.7400   66.2186   67.5815 C   0  0  0  0  0  0  0  0  0  0  0  0
  -30.2872   66.5918   67.7920 C   0  0  0  0  0  0  0  0  0  0  0  0
  -34.3610   65.0876   62.0665 C   0  0  0  0  0  0  0  0  0  0  0  0
  -35.0703   64.0312   62.8766 C   0  0  0  0  0  0  0  0  0  0  0  0
  -35.8339   63.0413   62.0062 C   0  0  0  0  0  0  0  0  0  0  0  0
  -36.8908   63.7122   61.1437 C   0  0  0  0  0  0  0  0  0  0  0  0
  -37.6814   62.7473   60.2759 C   0  0  0  0  0  0  0  0  0  0  0  0
  -38.7271   63.4220   59.4008 C   0  0  0  0  0  0  0  0  0  0  0  0
  -39.5334   62.4562   58.5420 C   0  0  0  0  0  0  0  0  0  0  0  0
  -38.6866   61.6277   57.5844 C   0  0  0  0  0  0  0  0  0  0  0  0
  -37.8692   62.4480   56.5896 C   0  0  0  0  0  0  0  0  0  0  0  0
  -37.0375   61.6055   55.6237 C   0  0  0  0  0  0  0  0  0  0  0  0
  -36.2003   62.4133   54.6322 C   0  0  0  0  0  0  0  0  0  0  0  0
  -37.0333   63.3338   53.7401 C   0  0  0  0  0  0  0  0  0  0  0  0
  -37.8427   64.3965   54.4831 C   0  0  0  0  0  0  0  0  0  0  0  0
  -37.0102   65.3813   55.3085 C   0  0  0  0  0  0  0  0  0  0  0  0
  -36.1836   64.7049   56.3637 C   0  0  0  0  0  0  0  0  0  0  0  0
  -35.3827   65.3033   57.2276 C   0  0  0  0  0  0  0  0  0  0  0  0
  -35.1406   66.7788   57.3297 C   0  0  0  0  0  0  0  0  0  0  0  0
  -33.6787   67.1778   57.1176 C   0  0  0  0  0  0  0  0  0  0  0  0
  -33.4398   68.6769   57.2402 C   0  0  0  0  0  0  0  0  0  0  0  0
  -33.8018   69.2370   58.6111 C   0  0  0  0  0  0  0  0  0  0  0  0
  -33.5881   70.7395   58.7557 C   0  0  0  0  0  0  0  0  0  0  0  0
  -33.9384   71.2784   60.1355 C   0  0  0  0  0  0  0  0  0  0  0  0
  -35.3822   71.0404   60.5485 C   0  0  0  0  0  0  0  0  0  0  0  0
  -36.3789   71.6715   59.5976 C   0  0  0  0  0  0  0  0  0  0  0  0
  -31.2104   68.0828   64.4327 C   0  0  2  0  0  0  0  0  0  0  0  0
  -30.3138   69.0941   63.7304 C   0  0  1  0  0  0  0  0  0  0  0  0
  -30.1449   70.3308   64.6038 C   0  0  2  0  0  0  0  0  0  0  0  0
  -31.4954   70.8877   65.0296 C   0  0  2  0  0  0  0  0  0  0  0  0
  -32.3266   69.7807   65.6732 C   0  0  1  0  0  0  0  0  0  0  0  0
  -33.7288   70.2187   66.0260 C   0  0  0  0  0  0  0  0  0  0  0  0
  -29.1081   72.7269   64.3444 S   0  0  0  0  0  0  0  0  0  0  0  0
  -32.6087   64.4935   62.8279 H   0  0  0  0  0  0  0  0  0  0  0  0
  -31.4053   68.0450   61.7940 H   0  0  0  0  0  0  0  0  0  0  0  0
  -32.9770   67.7979   62.4965 H   0  0  0  0  0  0  0  0  0  0  0  0
  -32.6374   66.3625   60.5752 H   0  0  0  0  0  0  0  0  0  0  0  0
  -29.9008   67.1635   61.0564 H   0  0  0  0  0  0  0  0  0  0  0  0
  -30.3647   65.1308   62.1077 H   0  0  0  0  0  0  0  0  0  0  0  0
  -31.9673   63.9138   60.1104 H   0  0  0  0  0  0  0  0  0  0  0  0
  -29.1677   67.7231   62.8999 H   0  0  0  0  0  0  0  0  0  0  0  0
  -29.0594   63.6571   60.2167 H   0  0  0  0  0  0  0  0  0  0  0  0
  -29.7221   62.2479   58.2326 H   0  0  0  0  0  0  0  0  0  0  0  0
  -31.2841   62.0207   59.0089 H   0  0  0  0  0  0  0  0  0  0  0  0
  -31.6684   72.1129   63.4939 H   0  0  0  0  0  0  0  0  0  0  0  0
  -28.6497   61.0662   60.0754 H   0  0  0  0  0  0  0  0  0  0  0  0
  -29.9070   60.0769   59.2897 H   0  0  0  0  0  0  0  0  0  0  0  0
  -30.2045   61.5183   61.8733 H   0  0  0  0  0  0  0  0  0  0  0  0
  -29.9233   59.7729   61.6421 H   0  0  0  0  0  0  0  0  0  0  0  0
  -34.6350   71.5832   67.1228 H   0  0  0  0  0  0  0  0  0  0  0  0
  -32.0197   59.5489   60.5487 H   0  0  0  0  0  0  0  0  0  0  0  0
  -32.3014   61.2952   60.7550 H   0  0  0  0  0  0  0  0  0  0  0  0
  -27.5791   73.1242   63.1756 H   0  0  0  0  0  0  0  0  0  0  0  0
  -32.0703   59.3090   62.9607 H   0  0  0  0  0  0  0  0  0  0  0  0
  -33.5676   60.0268   62.3240 H   0  0  0  0  0  0  0  0  0  0  0  0
  -32.8889   61.0775   64.3875 H   0  0  0  0  0  0  0  0  0  0  0  0
  -32.8438   62.1846   62.9957 H   0  0  0  0  0  0  0  0  0  0  0  0
  -30.9236   73.4264   63.6276 H   0  0  0  0  0  0  0  0  0  0  0  0
  -30.4741   61.9868   62.8795 H   0  0  0  0  0  0  0  0  0  0  0  0
  -30.5146   60.8636   64.2614 H   0  0  0  0  0  0  0  0  0  0  0  0
  -29.7868   63.0603   64.9246 H   0  0  0  0  0  0  0  0  0  0  0  0
  -31.3343   62.5824   65.6633 H   0  0  0  0  0  0  0  0  0  0  0  0
  -32.5241   63.9768   64.1415 H   0  0  0  0  0  0  0  0  0  0  0  0
  -30.9928   64.4436   63.3783 H   0  0  0  0  0  0  0  0  0  0  0  0
  -31.8034   66.1662   64.8565 H   0  0  0  0  0  0  0  0  0  0  0  0
  -30.2680   65.4436   65.4065 H   0  0  0  0  0  0  0  0  0  0  0  0
  -31.4163   64.1907   67.0660 H   0  0  0  0  0  0  0  0  0  0  0  0
  -32.9560   64.8707   66.5178 H   0  0  0  0  0  0  0  0  0  0  0  0
  -32.1698   65.9651   68.5280 H   0  0  0  0  0  0  0  0  0  0  0  0
  -32.2309   67.0601   67.1391 H   0  0  0  0  0  0  0  0  0  0  0  0
  -29.7677   65.7677   68.2346 H   0  0  0  0  0  0  0  0  0  0  0  0
  -30.2273   67.4408   68.4404 H   0  0  0  0  0  0  0  0  0  0  0  0
  -29.8401   66.8305   66.8496 H   0  0  0  0  0  0  0  0  0  0  0  0
  -35.7619   64.5121   63.5364 H   0  0  0  0  0  0  0  0  0  0  0  0
  -34.3269   63.4826   63.4163 H   0  0  0  0  0  0  0  0  0  0  0  0
  -36.3137   62.3262   62.6413 H   0  0  0  0  0  0  0  0  0  0  0  0
  -35.1281   62.5766   61.3498 H   0  0  0  0  0  0  0  0  0  0  0  0
  -36.4047   64.4193   60.5044 H   0  0  0  0  0  0  0  0  0  0  0  0
  -37.5889   64.1733   61.8106 H   0  0  0  0  0  0  0  0  0  0  0  0
  -38.1777   62.0478   60.9156 H   0  0  0  0  0  0  0  0  0  0  0  0
  -36.9818   62.2762   59.6175 H   0  0  0  0  0  0  0  0  0  0  0  0
  -38.2288   64.1127   58.7530 H   0  0  0  0  0  0  0  0  0  0  0  0
  -39.4197   63.9019   60.0604 H   0  0  0  0  0  0  0  0  0  0  0  0
  -40.2358   63.0225   57.9669 H   0  0  0  0  0  0  0  0  0  0  0  0
  -40.0090   61.7690   59.2102 H   0  0  0  0  0  0  0  0  0  0  0  0
  -39.3395   60.9855   57.0311 H   0  0  0  0  0  0  0  0  0  0  0  0
  -37.9832   61.0915   58.1866 H   0  0  0  0  0  0  0  0  0  0  0  0
  -37.2058   63.0812   57.1407 H   0  0  0  0  0  0  0  0  0  0  0  0
  -38.5678   62.9997   55.9959 H   0  0  0  0  0  0  0  0  0  0  0  0
  -37.7042   60.9812   55.0664 H   0  0  0  0  0  0  0  0  0  0  0  0
  -36.3458   61.0516   56.2235 H   0  0  0  0  0  0  0  0  0  0  0  0
  -35.6633   61.7307   54.0072 H   0  0  0  0  0  0  0  0  0  0  0  0
  -35.5472   63.0371   55.2061 H   0  0  0  0  0  0  0  0  0  0  0  0
  -37.7157   62.7268   53.1826 H   0  0  0  0  0  0  0  0  0  0  0  0
  -36.3365   63.8647   53.1257 H   0  0  0  0  0  0  0  0  0  0  0  0
  -38.5188   63.8968   55.1449 H   0  0  0  0  0  0  0  0  0  0  0  0
  -38.3363   64.9771   53.7320 H   0  0  0  0  0  0  0  0  0  0  0  0
  -37.6728   66.0732   55.7850 H   0  0  0  0  0  0  0  0  0  0  0  0
  -36.3363   65.8731   54.6384 H   0  0  0  0  0  0  0  0  0  0  0  0
  -36.2469   63.6763   56.4195 H   0  0  0  0  0  0  0  0  0  0  0  0
  -34.8771   64.6987   57.8938 H   0  0  0  0  0  0  0  0  0  0  0  0
  -35.4418   67.1040   58.3036 H   0  0  0  0  0  0  0  0  0  0  0  0
  -35.7081   67.2437   56.5507 H   0  0  0  0  0  0  0  0  0  0  0  0
  -33.3798   66.8651   56.1390 H   0  0  0  0  0  0  0  0  0  0  0  0
  -33.1055   66.7017   57.8855 H   0  0  0  0  0  0  0  0  0  0  0  0
  -34.0324   69.1763   56.5024 H   0  0  0  0  0  0  0  0  0  0  0  0
  -32.3925   68.8428   57.0974 H   0  0  0  0  0  0  0  0  0  0  0  0
  -33.2000   68.7417   59.3442 H   0  0  0  0  0  0  0  0  0  0  0  0
  -34.8493   69.0641   58.7441 H   0  0  0  0  0  0  0  0  0  0  0  0
  -34.1995   71.2385   58.0331 H   0  0  0  0  0  0  0  0  0  0  0  0
  -32.5448   70.9224   58.6046 H   0  0  0  0  0  0  0  0  0  0  0  0
  -33.7575   72.3330   60.1399 H   0  0  0  0  0  0  0  0  0  0  0  0
  -33.3265   70.7504   60.8367 H   0  0  0  0  0  0  0  0  0  0  0  0
  -35.5311   71.4547   61.5237 H   0  0  0  0  0  0  0  0  0  0  0  0
  -35.5501   69.9837   60.5350 H   0  0  0  0  0  0  0  0  0  0  0  0
  -36.2387   72.7322   59.5863 H   0  0  0  0  0  0  0  0  0  0  0  0
  -37.3733   71.4466   59.9223 H   0  0  0  0  0  0  0  0  0  0  0  0
  -36.2284   71.2814   58.6126 H   0  0  0  0  0  0  0  0  0  0  0  0
  -30.7515   67.7503   65.3403 H   0  0  0  0  0  0  0  0  0  0  0  0
  -30.7674   69.3839   62.8057 H   0  0  0  0  0  0  0  0  0  0  0  0
  -29.6019   70.1103   65.4990 H   0  0  0  0  0  0  0  0  0  0  0  0
  -31.3342   71.6761   65.7349 H   0  0  0  0  0  0  0  0  0  0  0  0
  -31.8112   69.5117   66.5715 H   0  0  0  0  0  0  0  0  0  0  0  0
  -34.2418   70.4968   65.1292 H   0  0  0  0  0  0  0  0  0  0  0  0
  -34.2225   69.4026   66.5110 H   0  0  0  0  0  0  0  0  0  0  0  0
  1  4  1  0  0  0  0
  1 31  1  0  0  0  0
  1 62  1  0  0  0  0
  2  3  1  0  0  0  0
  2  4  1  0  0  0  0
  2 63  1  0  0  0  0
  2 64  1  0  0  0  0
  3 55  1  0  0  0  0
  4  6  1  0  0  0  0
  4 65  1  6  0  0  0
  5  6  1  0  0  0  0
  5 66  1  0  0  0  0
  6  8  1  0  0  0  0
  6 67  1  1  0  0  0
  7 31  2  0  0  0  0
  8 10  2  0  0  0  0
  8 68  1  0  0  0  0
  9 56  1  0  0  0  0
  9 69  1  0  0  0  0
 10 12  1  0  0  0  0
 10 70  1  0  0  0  0
 11 57  1  0  0  0  0
 11 61  1  0  0  0  0
 12 14  1  0  0  0  0
 12 71  1  0  0  0  0
 12 72  1  0  0  0  0
 13 58  1  0  0  0  0
 13 73  1  0  0  0  0
 14 16  1  0  0  0  0
 14 74  1  0  0  0  0
 14 75  1  0  0  0  0
 15 55  1  0  0  0  0
 15 59  1  0  0  0  0
 16 18  1  0  0  0  0
 16 76  1  0  0  0  0
 16 77  1  0  0  0  0
 17 60  1  0  0  0  0
 17 78  1  0  0  0  0
 18 20  1  0  0  0  0
 18 79  1  0  0  0  0
 18 80  1  0  0  0  0
 19 61  1  0  0  0  0
 19 81  1  0  0  0  0
 20 22  1  0  0  0  0
 20 82  1  0  0  0  0
 20 83  1  0  0  0  0
 21 61  1  0  0  0  0
 22 24  1  0  0  0  0
 22 84  1  0  0  0  0
 22 85  1  0  0  0  0
 23 61  1  0  0  0  0
 23 86  1  0  0  0  0
 24 25  1  0  0  0  0
 24 87  1  0  0  0  0
 24 88  1  0  0  0  0
 25 26  1  0  0  0  0
 25 89  1  0  0  0  0
 25 90  1  0  0  0  0
 26 27  1  0  0  0  0
 26 91  1  0  0  0  0
 26 92  1  0  0  0  0
 27 28  1  0  0  0  0
 27 93  1  0  0  0  0
 27 94  1  0  0  0  0
 28 29  1  0  0  0  0
 28 95  1  0  0  0  0
 28 96  1  0  0  0  0
 29 30  1  0  0  0  0
 29 97  1  0  0  0  0
 29 98  1  0  0  0  0
 30 99  1  0  0  0  0
 30100  1  0  0  0  0
 30101  1  0  0  0  0
 31 32  1  0  0  0  0
 32 33  1  0  0  0  0
 32102  1  0  0  0  0
 32103  1  0  0  0  0
 33 34  1  0  0  0  0
 33104  1  0  0  0  0
 33105  1  0  0  0  0
 34 35  1  0  0  0  0
 34106  1  0  0  0  0
 34107  1  0  0  0  0
 35 36  1  0  0  0  0
 35108  1  0  0  0  0
 35109  1  0  0  0  0
 36 37  1  0  0  0  0
 36110  1  0  0  0  0
 36111  1  0  0  0  0
 37 38  1  0  0  0  0
 37112  1  0  0  0  0
 37113  1  0  0  0  0
 38 39  1  0  0  0  0
 38114  1  0  0  0  0
 38115  1  0  0  0  0
 39 40  1  0  0  0  0
 39116  1  0  0  0  0
 39117  1  0  0  0  0
 40 41  1  0  0  0  0
 40118  1  0  0  0  0
 40119  1  0  0  0  0
 41 42  1  0  0  0  0
 41120  1  0  0  0  0
 41121  1  0  0  0  0
 42 43  1  0  0  0  0
 42122  1  0  0  0  0
 42123  1  0  0  0  0
 43 44  1  0  0  0  0
 43124  1  0  0  0  0
 43125  1  0  0  0  0
 44 45  1  0  0  0  0
 44126  1  0  0  0  0
 44127  1  0  0  0  0
 45 46  2  0  0  0  0
 45128  1  0  0  0  0
 46 47  1  0  0  0  0
 46129  1  0  0  0  0
 47 48  1  0  0  0  0
 47130  1  0  0  0  0
 47131  1  0  0  0  0
 48 49  1  0  0  0  0
 48132  1  0  0  0  0
 48133  1  0  0  0  0
 49 50  1  0  0  0  0
 49134  1  0  0  0  0
 49135  1  0  0  0  0
 50 51  1  0  0  0  0
 50136  1  0  0  0  0
 50137  1  0  0  0  0
 51 52  1  0  0  0  0
 51138  1  0  0  0  0
 51139  1  0  0  0  0
 52 53  1  0  0  0  0
 52140  1  0  0  0  0
 52141  1  0  0  0  0
 53 54  1  0  0  0  0
 53142  1  0  0  0  0
 53143  1  0  0  0  0
 54144  1  0  0  0  0
 54145  1  0  0  0  0
 54146  1  0  0  0  0
 55 56  1  0  0  0  0
 55147  1  1  0  0  0
 56 57  1  0  0  0  0
 56148  1  6  0  0  0
 57 58  1  0  0  0  0
 57149  1  1  0  0  0
 58 59  1  0  0  0  0
 58150  1  1  0  0  0
 59 60  1  0  0  0  0
 59151  1  1  0  0  0
 60152  1  0  0  0  0
 60153  1  0  0  0  0
M  CHG  1  21  -1
M  END
$$$$