/media/chris/experiments/cd1a-new-docking/inputs/ligands/7ryn_ligand.pdb
 OpenBabel07032312553D

153153  0  0  1  0  0  0  0  0999 V2000
  -33.0340   65.1330   62.2120 N   0  0  0  0  0  0  0  0  0  0  0  0
  -32.0220   67.3480   62.3220 C   0  0  0  0  0  0  0  0  0  0  0  0
  -31.1969   68.2589   61.5870 O   0  0  0  0  0  0  0  0  0  0  0  0
  -32.1830   66.0840   61.5030 C   0  0  1  0  0  0  0  0  0  0  0  0
  -30.2154   65.0225   62.4176 O   0  0  0  0  0  0  0  0  0  0  0  0
  -30.8310   65.4230   61.1900 C   0  0  2  0  0  0  0  0  0  0  0  0
  -32.9252   63.5132   60.6524 O   0  0  0  0  0  0  0  0  0  0  0  0
  -29.9369   66.3439   60.4177 C   0  0  0  0  0  0  0  0  0  0  0  0
  -28.8256   69.6743   61.1237 O   0  0  0  0  0  0  0  0  0  0  0  0
  -29.0262   65.9607   59.5448 C   0  0  0  0  0  0  0  0  0  0  0  0
  -29.1955   72.4811   60.9310 O   0  0  0  0  0  0  0  0  0  0  0  0
  -28.1594   66.9053   58.7787 C   0  0  0  0  0  0  0  0  0  0  0  0
  -31.9137   72.6716   61.1716 O   0  0  0  0  0  0  0  0  0  0  0  0
  -26.8602   67.1950   59.5332 C   0  0  0  0  0  0  0  0  0  0  0  0
  -32.1725   70.1372   62.5085 O   0  0  0  0  0  0  0  0  0  0  0  0
  -26.0011   65.9673   59.7888 C   0  0  0  0  0  0  0  0  0  0  0  0
  -34.0953   71.0007   64.3582 O   0  0  0  0  0  0  0  0  0  0  0  0
  -26.6881   64.8820   60.5998 C   0  0  0  0  0  0  0  0  0  0  0  0
  -27.3990   72.9217   59.3864 O   0  0  0  0  0  0  0  0  0  0  0  0
  -25.8165   63.6633   60.8663 C   0  0  0  0  0  0  0  0  0  0  0  0
  -27.8907   70.5749   60.1391 O   0  5  0  0  0  0  0  0  0  0  0  0
  -26.5168   62.5742   61.6641 C   0  0  0  0  0  0  0  0  0  0  0  0
  -26.9287   72.1823   61.5976 O   0  0  0  0  0  0  0  0  0  0  0  0
  -27.0012   63.0309   63.0290 C   0  0  0  0  0  0  0  0  0  0  0  0
  -27.6859   61.9447   63.8373 C   0  0  0  0  0  0  0  0  0  0  0  0
  -28.9096   61.3522   63.1598 C   0  0  0  0  0  0  0  0  0  0  0  0
  -29.5884   60.2804   63.9923 C   0  0  0  0  0  0  0  0  0  0  0  0
  -30.0979   60.7614   65.3374 C   0  0  0  0  0  0  0  0  0  0  0  0
  -31.1343   61.8604   65.2087 C   0  0  0  0  0  0  0  0  0  0  0  0
  -31.6296   62.3515   66.5533 C   0  0  0  0  0  0  0  0  0  0  0  0
  -33.3385   63.9239   61.7329 C   0  0  0  0  0  0  0  0  0  0  0  0
  -34.2258   63.0783   62.6121 C   0  0  0  0  0  0  0  0  0  0  0  0
  -33.6134   62.8171   63.9823 C   0  0  0  0  0  0  0  0  0  0  0  0
  -34.4978   61.9507   64.8645 C   0  0  0  0  0  0  0  0  0  0  0  0
  -34.7754   60.5705   64.2926 C   0  0  0  0  0  0  0  0  0  0  0  0
  -33.5252   59.7304   64.0784 C   0  0  0  0  0  0  0  0  0  0  0  0
  -32.7386   59.4536   65.3533 C   0  0  0  0  0  0  0  0  0  0  0  0
  -33.5248   58.6872   66.4091 C   0  0  0  0  0  0  0  0  0  0  0  0
  -32.7557   58.4166   67.6997 C   0  0  0  0  0  0  0  0  0  0  0  0
  -33.5489   57.6326   68.7440 C   0  0  0  0  0  0  0  0  0  0  0  0
  -34.8443   58.3056   69.1974 C   0  0  0  0  0  0  0  0  0  0  0  0
  -35.6077   57.5072   70.2542 C   0  0  0  0  0  0  0  0  0  0  0  0
  -36.0271   56.1012   69.8253 C   0  0  0  0  0  0  0  0  0  0  0  0
  -34.8710   55.1667   69.4592 C   0  0  0  0  0  0  0  0  0  0  0  0
  -35.3352   53.8052   69.0292 C   0  0  0  0  0  0  0  0  0  0  0  0
  -34.6762   52.6713   69.1898 C   0  0  0  0  0  0  0  0  0  0  0  0
  -33.3333   52.5159   69.8366 C   0  0  0  0  0  0  0  0  0  0  0  0
  -33.1384   51.1669   70.5320 C   0  0  0  0  0  0  0  0  0  0  0  0
  -34.1586   50.9035   71.6317 C   0  0  0  0  0  0  0  0  0  0  0  0
  -35.5975   50.8784   71.1285 C   0  0  0  0  0  0  0  0  0  0  0  0
  -35.8839   49.8012   70.0885 C   0  0  0  0  0  0  0  0  0  0  0  0
  -35.6467   48.3845   70.5922 C   0  0  0  0  0  0  0  0  0  0  0  0
  -35.9133   47.3032   69.5571 C   0  0  0  0  0  0  0  0  0  0  0  0
  -35.0275   47.4270   68.3340 C   0  0  0  0  0  0  0  0  0  0  0  0
  -30.9530   69.4703   62.2406 C   0  0  2  0  0  0  0  0  0  0  0  0
  -30.0721   70.3242   61.3379 C   0  0  1  0  0  0  0  0  0  0  0  0
  -29.8516   71.6915   61.9728 C   0  0  2  0  0  0  0  0  0  0  0  0
  -31.1762   72.3417   62.3441 C   0  0  2  0  0  0  0  0  0  0  0  0
  -31.9954   71.3819   63.2035 C   0  0  1  0  0  0  0  0  0  0  0  0
  -33.3762   71.9033   63.5259 C   0  0  0  0  0  0  0  0  0  0  0  0
  -27.8065   71.9707   60.3532 S   0  0  0  0  0  0  0  0  0  0  0  0
  -33.4017   65.3959   63.0866 H   0  0  0  0  0  0  0  0  0  0  0  0
  -32.9806   67.7896   62.4978 H   0  0  0  0  0  0  0  0  0  0  0  0
  -31.5704   67.1208   63.2650 H   0  0  0  0  0  0  0  0  0  0  0  0
  -32.6374   66.3625   60.5752 H   0  0  0  0  0  0  0  0  0  0  0  0
  -30.8116   64.4280   62.8994 H   0  0  0  0  0  0  0  0  0  0  0  0
  -30.9971   64.5628   60.5757 H   0  0  0  0  0  0  0  0  0  0  0  0
  -30.0419   67.3574   60.5817 H   0  0  0  0  0  0  0  0  0  0  0  0
  -28.9790   68.8059   60.7197 H   0  0  0  0  0  0  0  0  0  0  0  0
  -28.9053   64.9489   59.3813 H   0  0  0  0  0  0  0  0  0  0  0  0
  -28.6890   67.8230   58.6294 H   0  0  0  0  0  0  0  0  0  0  0  0
  -27.9141   66.4559   57.8391 H   0  0  0  0  0  0  0  0  0  0  0  0
  -31.3948   73.2814   60.6241 H   0  0  0  0  0  0  0  0  0  0  0  0
  -27.1107   67.6318   60.4773 H   0  0  0  0  0  0  0  0  0  0  0  0
  -26.2841   67.8498   58.9133 H   0  0  0  0  0  0  0  0  0  0  0  0
  -25.1238   66.2764   60.3177 H   0  0  0  0  0  0  0  0  0  0  0  0
  -25.7813   65.5423   58.8318 H   0  0  0  0  0  0  0  0  0  0  0  0
  -34.9748   71.3645   64.5457 H   0  0  0  0  0  0  0  0  0  0  0  0
  -27.5586   64.5628   60.0657 H   0  0  0  0  0  0  0  0  0  0  0  0
  -26.9229   65.3090   61.5524 H   0  0  0  0  0  0  0  0  0  0  0  0
  -27.9341   72.8168   58.5842 H   0  0  0  0  0  0  0  0  0  0  0  0
  -24.9520   63.9790   61.4120 H   0  0  0  0  0  0  0  0  0  0  0  0
  -25.5671   63.2428   59.9145 H   0  0  0  0  0  0  0  0  0  0  0  0
  -25.8318   61.7639   61.8028 H   0  0  0  0  0  0  0  0  0  0  0  0
  -27.3830   62.2863   61.1058 H   0  0  0  0  0  0  0  0  0  0  0  0
  -26.8467   73.1319   61.7778 H   0  0  0  0  0  0  0  0  0  0  0  0
  -27.6949   63.8333   62.8884 H   0  0  0  0  0  0  0  0  0  0  0  0
  -26.1341   63.3273   63.5814 H   0  0  0  0  0  0  0  0  0  0  0  0
  -27.9890   62.3625   64.7746 H   0  0  0  0  0  0  0  0  0  0  0  0
  -26.9787   61.1499   63.9514 H   0  0  0  0  0  0  0  0  0  0  0  0
  -28.6079   60.9202   62.2285 H   0  0  0  0  0  0  0  0  0  0  0  0
  -29.6147   62.1452   63.0228 H   0  0  0  0  0  0  0  0  0  0  0  0
  -28.8841   59.4932   64.1632 H   0  0  0  0  0  0  0  0  0  0  0  0
  -30.4455   59.9600   63.4378 H   0  0  0  0  0  0  0  0  0  0  0  0
  -29.2705   61.1352   65.9037 H   0  0  0  0  0  0  0  0  0  0  0  0
  -30.5651   59.9304   65.8233 H   0  0  0  0  0  0  0  0  0  0  0  0
  -31.9673   61.4831   64.6531 H   0  0  0  0  0  0  0  0  0  0  0  0
  -30.6715   62.6870   64.7112 H   0  0  0  0  0  0  0  0  0  0  0  0
  -32.0991   61.5449   67.0767 H   0  0  0  0  0  0  0  0  0  0  0  0
  -32.3368   63.1409   66.4063 H   0  0  0  0  0  0  0  0  0  0  0  0
  -30.8028   62.7155   67.1267 H   0  0  0  0  0  0  0  0  0  0  0  0
  -34.3943   62.1394   62.1273 H   0  0  0  0  0  0  0  0  0  0  0  0
  -35.1397   63.6142   62.7620 H   0  0  0  0  0  0  0  0  0  0  0  0
  -33.4562   63.7556   64.4715 H   0  0  0  0  0  0  0  0  0  0  0  0
  -32.6940   62.2912   63.8305 H   0  0  0  0  0  0  0  0  0  0  0  0
  -35.4327   62.4530   65.0010 H   0  0  0  0  0  0  0  0  0  0  0  0
  -33.9712   61.8053   65.7846 H   0  0  0  0  0  0  0  0  0  0  0  0
  -35.2675   60.6889   63.3499 H   0  0  0  0  0  0  0  0  0  0  0  0
  -35.3792   60.0528   65.0083 H   0  0  0  0  0  0  0  0  0  0  0  0
  -32.8856   60.2475   63.3940 H   0  0  0  0  0  0  0  0  0  0  0  0
  -33.8499   58.7825   63.7030 H   0  0  0  0  0  0  0  0  0  0  0  0
  -32.4359   60.3903   65.7725 H   0  0  0  0  0  0  0  0  0  0  0  0
  -31.9071   58.8390   65.0781 H   0  0  0  0  0  0  0  0  0  0  0  0
  -33.8169   57.7466   65.9909 H   0  0  0  0  0  0  0  0  0  0  0  0
  -34.3578   59.3039   66.6752 H   0  0  0  0  0  0  0  0  0  0  0  0
  -32.4743   59.3564   68.1269 H   0  0  0  0  0  0  0  0  0  0  0  0
  -31.9115   57.8142   67.4362 H   0  0  0  0  0  0  0  0  0  0  0  0
  -32.9256   57.4959   69.6029 H   0  0  0  0  0  0  0  0  0  0  0  0
  -33.8327   56.7113   68.2798 H   0  0  0  0  0  0  0  0  0  0  0  0
  -35.4777   58.4308   68.3442 H   0  0  0  0  0  0  0  0  0  0  0  0
  -34.5745   59.2404   69.6427 H   0  0  0  0  0  0  0  0  0  0  0  0
  -36.4916   58.0539   70.5086 H   0  0  0  0  0  0  0  0  0  0  0  0
  -34.9346   57.3801   71.0763 H   0  0  0  0  0  0  0  0  0  0  0  0
  -36.6652   56.1909   68.9711 H   0  0  0  0  0  0  0  0  0  0  0  0
  -36.5116   55.6614   70.6719 H   0  0  0  0  0  0  0  0  0  0  0  0
  -34.2365   55.0571   70.3138 H   0  0  0  0  0  0  0  0  0  0  0  0
  -34.3523   55.6055   68.6325 H   0  0  0  0  0  0  0  0  0  0  0  0
  -36.2551   53.7498   68.5647 H   0  0  0  0  0  0  0  0  0  0  0  0
  -35.1282   51.8131   68.8372 H   0  0  0  0  0  0  0  0  0  0  0  0
  -33.2171   53.2914   70.5647 H   0  0  0  0  0  0  0  0  0  0  0  0
  -32.6021   52.5749   69.0576 H   0  0  0  0  0  0  0  0  0  0  0  0
  -32.1599   51.1458   70.9644 H   0  0  0  0  0  0  0  0  0  0  0  0
  -33.2680   50.4064   69.7906 H   0  0  0  0  0  0  0  0  0  0  0  0
  -34.0702   51.6745   72.3683 H   0  0  0  0  0  0  0  0  0  0  0  0
  -33.9473   49.9346   72.0334 H   0  0  0  0  0  0  0  0  0  0  0  0
  -35.8159   51.8307   70.6923 H   0  0  0  0  0  0  0  0  0  0  0  0
  -36.2126   50.6556   71.9752 H   0  0  0  0  0  0  0  0  0  0  0  0
  -35.2489   49.9700   69.2440 H   0  0  0  0  0  0  0  0  0  0  0  0
  -36.9221   49.8747   69.8405 H   0  0  0  0  0  0  0  0  0  0  0  0
  -36.2906   48.2137   71.4296 H   0  0  0  0  0  0  0  0  0  0  0  0
  -34.6096   48.3178   70.8470 H   0  0  0  0  0  0  0  0  0  0  0  0
  -36.9351   47.3717   69.2471 H   0  0  0  0  0  0  0  0  0  0  0  0
  -35.6987   46.3602   70.0150 H   0  0  0  0  0  0  0  0  0  0  0  0
  -35.2167   48.3623   67.8498 H   0  0  0  0  0  0  0  0  0  0  0  0
  -35.2396   46.6257   67.6574 H   0  0  0  0  0  0  0  0  0  0  0  0
  -34.0006   47.3805   68.6311 H   0  0  0  0  0  0  0  0  0  0  0  0
  -30.4622   69.2932   63.1747 H   0  0  0  0  0  0  0  0  0  0  0  0
  -30.5589   70.4564   60.3943 H   0  0  0  0  0  0  0  0  0  0  0  0
  -29.2758   71.6206   62.8719 H   0  0  0  0  0  0  0  0  0  0  0  0
  -30.9761   73.2382   62.8929 H   0  0  0  0  0  0  0  0  0  0  0  0
  -31.4476   71.2644   64.1151 H   0  0  0  0  0  0  0  0  0  0  0  0
  -33.2837   72.8424   64.0303 H   0  0  0  0  0  0  0  0  0  0  0  0
  -33.9150   72.0142   62.6081 H   0  0  0  0  0  0  0  0  0  0  0  0
  1  4  1  0  0  0  0
  1 31  1  0  0  0  0
  1 62  1  0  0  0  0
  2  3  1  0  0  0  0
  2  4  1  0  0  0  0
  2 63  1  0  0  0  0
  2 64  1  0  0  0  0
  3 55  1  0  0  0  0
  4  6  1  0  0  0  0
  4 65  1  6  0  0  0
  5  6  1  0  0  0  0
  5 66  1  0  0  0  0
  6  8  1  0  0  0  0
  6 67  1  6  0  0  0
  7 31  2  0  0  0  0
  8 10  2  0  0  0  0
  8 68  1  0  0  0  0
  9 56  1  0  0  0  0
  9 69  1  0  0  0  0
 10 12  1  0  0  0  0
 10 70  1  0  0  0  0
 11 57  1  0  0  0  0
 11 61  1  0  0  0  0
 12 14  1  0  0  0  0
 12 71  1  0  0  0  0
 12 72  1  0  0  0  0
 13 58  1  0  0  0  0
 13 73  1  0  0  0  0
 14 16  1  0  0  0  0
 14 74  1  0  0  0  0
 14 75  1  0  0  0  0
 15 55  1  0  0  0  0
 15 59  1  0  0  0  0
 16 18  1  0  0  0  0
 16 76  1  0  0  0  0
 16 77  1  0  0  0  0
 17 60  1  0  0  0  0
 17 78  1  0  0  0  0
 18 20  1  0  0  0  0
 18 79  1  0  0  0  0
 18 80  1  0  0  0  0
 19 61  1  0  0  0  0
 19 81  1  0  0  0  0
 20 22  1  0  0  0  0
 20 82  1  0  0  0  0
 20 83  1  0  0  0  0
 21 61  1  0  0  0  0
 22 24  1  0  0  0  0
 22 84  1  0  0  0  0
 22 85  1  0  0  0  0
 23 61  1  0  0  0  0
 23 86  1  0  0  0  0
 24 25  1  0  0  0  0
 24 87  1  0  0  0  0
 24 88  1  0  0  0  0
 25 26  1  0  0  0  0
 25 89  1  0  0  0  0
 25 90  1  0  0  0  0
 26 27  1  0  0  0  0
 26 91  1  0  0  0  0
 26 92  1  0  0  0  0
 27 28  1  0  0  0  0
 27 93  1  0  0  0  0
 27 94  1  0  0  0  0
 28 29  1  0  0  0  0
 28 95  1  0  0  0  0
 28 96  1  0  0  0  0
 29 30  1  0  0  0  0
 29 97  1  0  0  0  0
 29 98  1  0  0  0  0
 30 99  1  0  0  0  0
 30100  1  0  0  0  0
 30101  1  0  0  0  0
 31 32  1  0  0  0  0
 32 33  1  0  0  0  0
 32102  1  0  0  0  0
 32103  1  0  0  0  0
 33 34  1  0  0  0  0
 33104  1  0  0  0  0
 33105  1  0  0  0  0
 34 35  1  0  0  0  0
 34106  1  0  0  0  0
 34107  1  0  0  0  0
 35 36  1  0  0  0  0
 35108  1  0  0  0  0
 35109  1  0  0  0  0
 36 37  1  0  0  0  0
 36110  1  0  0  0  0
 36111  1  0  0  0  0
 37 38  1  0  0  0  0
 37112  1  0  0  0  0
 37113  1  0  0  0  0
 38 39  1  0  0  0  0
 38114  1  0  0  0  0
 38115  1  0  0  0  0
 39 40  1  0  0  0  0
 39116  1  0  0  0  0
 39117  1  0  0  0  0
 40 41  1  0  0  0  0
 40118  1  0  0  0  0
 40119  1  0  0  0  0
 41 42  1  0  0  0  0
 41120  1  0  0  0  0
 41121  1  0  0  0  0
 42 43  1  0  0  0  0
 42122  1  0  0  0  0
 42123  1  0  0  0  0
 43 44  1  0  0  0  0
 43124  1  0  0  0  0
 43125  1  0  0  0  0
 44 45  1  0  0  0  0
 44126  1  0  0  0  0
 44127  1  0  0  0  0
 45 46  2  0  0  0  0
 45128  1  0  0  0  0
 46 47  1  0  0  0  0
 46129  1  0  0  0  0
 47 48  1  0  0  0  0
 47130  1  0  0  0  0
 47131  1  0  0  0  0
 48 49  1  0  0  0  0
 48132  1  0  0  0  0
 48133  1  0  0  0  0
 49 50  1  0  0  0  0
 49134  1  0  0  0  0
 49135  1  0  0  0  0
 50 51  1  0  0  0  0
 50136  1  0  0  0  0
 50137  1  0  0  0  0
 51 52  1  0  0  0  0
 51138  1  0  0  0  0
 51139  1  0  0  0  0
 52 53  1  0  0  0  0
 52140  1  0  0  0  0
 52141  1  0  0  0  0
 53 54  1  0  0  0  0
 53142  1  0  0  0  0
 53143  1  0  0  0  0
 54144  1  0  0  0  0
 54145  1  0  0  0  0
 54146  1  0  0  0  0
 55 56  1  0  0  0  0
 55147  1  1  0  0  0
 56 57  1  0  0  0  0
 56148  1  6  0  0  0
 57 58  1  0  0  0  0
 57149  1  1  0  0  0
 58 59  1  0  0  0  0
 58150  1  1  0  0  0
 59 60  1  0  0  0  0
 59151  1  1  0  0  0
 60152  1  0  0  0  0
 60153  1  0  0  0  0
M  CHG  1  21  -1
M  END
$$$$