/media/chris/experiments/cd1a-new-docking/inputs/ligands/7ryn_ligand.pdb
 OpenBabel07032312553D

153153  0  0  1  0  0  0  0  0999 V2000
  -33.0340   65.1330   62.2120 N   0  0  0  0  0  0  0  0  0  0  0  0
  -32.0220   67.3480   62.3220 C   0  0  0  0  0  0  0  0  0  0  0  0
  -33.3204   67.9104   62.5424 O   0  0  0  0  0  0  0  0  0  0  0  0
  -32.1830   66.0840   61.5030 C   0  0  1  0  0  0  0  0  0  0  0  0
  -29.9992   66.3678   60.5104 O   0  0  0  0  0  0  0  0  0  0  0  0
  -30.8310   65.4230   61.1900 C   0  0  2  0  0  0  0  0  0  0  0  0
  -34.2576   66.6787   63.2990 O   0  0  0  0  0  0  0  0  0  0  0  0
  -31.0055   64.1786   60.3744 C   0  0  0  0  0  0  0  0  0  0  0  0
  -35.3151   69.8361   62.1498 O   0  0  0  0  0  0  0  0  0  0  0  0
  -30.2096   63.1284   60.4144 C   0  0  0  0  0  0  0  0  0  0  0  0
  -36.2332   71.0293   64.5551 O   0  0  0  0  0  0  0  0  0  0  0  0
  -30.4192   61.8950   59.5986 C   0  0  0  0  0  0  0  0  0  0  0  0
  -34.7894   69.6393   66.4168 O   0  0  0  0  0  0  0  0  0  0  0  0
  -31.6680   62.0196   58.7235 C   0  0  0  0  0  0  0  0  0  0  0  0
  -32.7334   68.8853   64.5507 O   0  0  0  0  0  0  0  0  0  0  0  0
  -31.9583   60.7931   57.8737 C   0  0  0  0  0  0  0  0  0  0  0  0
  -31.8166   70.8306   67.4934 O   0  0  0  0  0  0  0  0  0  0  0  0
  -33.1884   60.9213   56.9915 C   0  0  0  0  0  0  0  0  0  0  0  0
  -38.0793   72.2327   65.5303 O   0  0  0  0  0  0  0  0  0  0  0  0
  -34.4763   61.1808   57.7594 C   0  0  0  0  0  0  0  0  0  0  0  0
  -35.9141   73.4042   65.0253 O   0  5  0  0  0  0  0  0  0  0  0  0
  -34.8164   60.0934   58.7669 C   0  0  0  0  0  0  0  0  0  0  0  0
  -36.1043   71.8317   66.7937 O   0  0  0  0  0  0  0  0  0  0  0  0
  -34.9852   58.7170   58.1479 C   0  0  0  0  0  0  0  0  0  0  0  0
  -35.3413   57.6302   59.1451 C   0  0  0  0  0  0  0  0  0  0  0  0
  -34.3132   57.4460   60.2481 C   0  0  0  0  0  0  0  0  0  0  0  0
  -34.1178   58.6923   61.0913 C   0  0  0  0  0  0  0  0  0  0  0  0
  -35.3660   59.1616   61.8139 C   0  0  0  0  0  0  0  0  0  0  0  0
  -35.9038   58.1250   62.7808 C   0  0  0  0  0  0  0  0  0  0  0  0
  -34.9092   57.7744   63.8681 C   0  0  0  0  0  0  0  0  0  0  0  0
  -34.0033   65.5031   63.0532 C   0  0  0  0  0  0  0  0  0  0  0  0
  -34.7826   64.3775   63.6864 C   0  0  0  0  0  0  0  0  0  0  0  0
  -36.2686   64.4370   63.3565 C   0  0  0  0  0  0  0  0  0  0  0  0
  -36.5428   64.3350   61.8647 C   0  0  0  0  0  0  0  0  0  0  0  0
  -36.0559   63.0401   61.2359 C   0  0  0  0  0  0  0  0  0  0  0  0
  -36.7008   61.7920   61.8197 C   0  0  0  0  0  0  0  0  0  0  0  0
  -38.2142   61.7406   61.6529 C   0  0  0  0  0  0  0  0  0  0  0  0
  -38.9463   62.9083   62.3016 C   0  0  0  0  0  0  0  0  0  0  0  0
  -40.4654   62.8623   62.1578 C   0  0  0  0  0  0  0  0  0  0  0  0
  -40.9532   62.8519   60.7099 C   0  0  0  0  0  0  0  0  0  0  0  0
  -42.4730   62.8231   60.5498 C   0  0  0  0  0  0  0  0  0  0  0  0
  -42.9313   62.7959   59.0915 C   0  0  0  0  0  0  0  0  0  0  0  0
  -42.4577   61.5857   58.2867 C   0  0  0  0  0  0  0  0  0  0  0  0
  -42.9317   60.2310   58.8198 C   0  0  0  0  0  0  0  0  0  0  0  0
  -44.4274   60.1010   58.8346 C   0  0  0  0  0  0  0  0  0  0  0  0
  -45.1380   59.3838   59.6870 C   0  0  0  0  0  0  0  0  0  0  0  0
  -44.5936   58.5578   60.8128 C   0  0  0  0  0  0  0  0  0  0  0  0
  -43.2832   59.0955   61.3917 C   0  0  0  0  0  0  0  0  0  0  0  0
  -42.7292   58.2403   62.5235 C   0  0  0  0  0  0  0  0  0  0  0  0
  -41.4325   58.7835   63.1132 C   0  0  0  0  0  0  0  0  0  0  0  0
  -40.8468   57.9368   64.2374 C   0  0  0  0  0  0  0  0  0  0  0  0
  -40.4916   56.5182   63.8150 C   0  0  0  0  0  0  0  0  0  0  0  0
  -39.9223   55.6599   64.9335 C   0  0  0  0  0  0  0  0  0  0  0  0
  -40.8853   55.4843   66.0901 C   0  0  0  0  0  0  0  0  0  0  0  0
  -33.3156   69.0988   63.2783 C   0  0  2  0  0  0  0  0  0  0  0  0
  -34.7576   69.5657   63.4297 C   0  0  1  0  0  0  0  0  0  0  0  0
  -34.8089   70.8140   64.3015 C   0  0  2  0  0  0  0  0  0  0  0  0
  -34.0866   70.5888   65.6217 C   0  0  2  0  0  0  0  0  0  0  0  0
  -32.6741   70.0760   65.3523 C   0  0  1  0  0  0  0  0  0  0  0  0
  -31.9211   69.7182   66.6122 C   0  0  0  0  0  0  0  0  0  0  0  0
  -36.6672   72.2789   65.4347 S   0  0  0  0  0  0  0  0  0  0  0  0
  -32.8861   64.1712   62.0627 H   0  0  0  0  0  0  0  0  0  0  0  0
  -31.5648   67.1148   63.2609 H   0  0  0  0  0  0  0  0  0  0  0  0
  -31.4012   68.0473   61.8019 H   0  0  0  0  0  0  0  0  0  0  0  0
  -32.6374   66.3625   60.5752 H   0  0  0  0  0  0  0  0  0  0  0  0
  -29.9008   67.1635   61.0564 H   0  0  0  0  0  0  0  0  0  0  0  0
  -30.3647   65.1308   62.1077 H   0  0  0  0  0  0  0  0  0  0  0  0
  -31.8115   64.1406   59.7311 H   0  0  0  0  0  0  0  0  0  0  0  0
  -35.2768   69.0347   61.6046 H   0  0  0  0  0  0  0  0  0  0  0  0
  -29.3943   63.1604   61.0462 H   0  0  0  0  0  0  0  0  0  0  0  0
  -30.5341   61.0574   60.2545 H   0  0  0  0  0  0  0  0  0  0  0  0
  -29.5698   61.7599   58.9620 H   0  0  0  0  0  0  0  0  0  0  0  0
  -35.6873   69.9632   66.5891 H   0  0  0  0  0  0  0  0  0  0  0  0
  -31.5379   62.8571   58.0704 H   0  0  0  0  0  0  0  0  0  0  0  0
  -32.4986   62.1370   59.3878 H   0  0  0  0  0  0  0  0  0  0  0  0
  -32.1004   59.9582   58.5277 H   0  0  0  0  0  0  0  0  0  0  0  0
  -31.1220   60.6696   57.2178 H   0  0  0  0  0  0  0  0  0  0  0  0
  -31.3292   70.5677   68.2897 H   0  0  0  0  0  0  0  0  0  0  0  0
  -33.3030   60.0117   56.4398 H   0  0  0  0  0  0  0  0  0  0  0  0
  -33.0287   61.7694   56.3589 H   0  0  0  0  0  0  0  0  0  0  0  0
  -38.4697   72.5099   64.6867 H   0  0  0  0  0  0  0  0  0  0  0  0
  -35.2799   61.2537   57.0566 H   0  0  0  0  0  0  0  0  0  0  0  0
  -34.3342   62.0860   58.3119 H   0  0  0  0  0  0  0  0  0  0  0  0
  -35.7313   60.3589   59.2541 H   0  0  0  0  0  0  0  0  0  0  0  0
  -33.9936   60.0305   59.4480 H   0  0  0  0  0  0  0  0  0  0  0  0
  -36.5974   71.0582   67.1092 H   0  0  0  0  0  0  0  0  0  0  0  0
  -34.0660   58.4477   57.6711 H   0  0  0  0  0  0  0  0  0  0  0  0
  -35.8021   58.7853   57.4603 H   0  0  0  0  0  0  0  0  0  0  0  0
  -35.4368   56.7053   58.6157 H   0  0  0  0  0  0  0  0  0  0  0  0
  -36.2536   57.9290   59.6176 H   0  0  0  0  0  0  0  0  0  0  0  0
  -33.3763   57.1867   59.8009 H   0  0  0  0  0  0  0  0  0  0  0  0
  -34.6739   56.6748   60.8960 H   0  0  0  0  0  0  0  0  0  0  0  0
  -33.7856   59.4817   60.4500 H   0  0  0  0  0  0  0  0  0  0  0  0
  -33.4035   58.4408   61.8473 H   0  0  0  0  0  0  0  0  0  0  0  0
  -36.1216   59.3777   61.0877 H   0  0  0  0  0  0  0  0  0  0  0  0
  -35.1048   60.0301   62.3817 H   0  0  0  0  0  0  0  0  0  0  0  0
  -36.1418   57.2366   62.2340 H   0  0  0  0  0  0  0  0  0  0  0  0
  -36.7694   58.5399   63.2536 H   0  0  0  0  0  0  0  0  0  0  0  0
  -34.0296   57.3558   63.4254 H   0  0  0  0  0  0  0  0  0  0  0  0
  -35.3467   57.0613   64.5352 H   0  0  0  0  0  0  0  0  0  0  0  0
  -34.6487   58.6584   64.4118 H   0  0  0  0  0  0  0  0  0  0  0  0
  -34.6646   64.4337   64.7484 H   0  0  0  0  0  0  0  0  0  0  0  0
  -34.4000   63.4579   63.2955 H   0  0  0  0  0  0  0  0  0  0  0  0
  -36.6617   65.3656   63.7142 H   0  0  0  0  0  0  0  0  0  0  0  0
  -36.7385   63.6001   63.8295 H   0  0  0  0  0  0  0  0  0  0  0  0
  -36.0538   65.1516   61.3758 H   0  0  0  0  0  0  0  0  0  0  0  0
  -37.6054   64.3593   61.7420 H   0  0  0  0  0  0  0  0  0  0  0  0
  -34.9979   62.9720   61.3806 H   0  0  0  0  0  0  0  0  0  0  0  0
  -36.3269   63.0754   60.2014 H   0  0  0  0  0  0  0  0  0  0  0  0
  -36.4761   61.7548   62.8651 H   0  0  0  0  0  0  0  0  0  0  0  0
  -36.3017   60.9572   61.2824 H   0  0  0  0  0  0  0  0  0  0  0  0
  -38.5710   60.8329   62.0930 H   0  0  0  0  0  0  0  0  0  0  0  0
  -38.4131   61.7938   60.6029 H   0  0  0  0  0  0  0  0  0  0  0  0
  -38.5955   63.8137   61.8521 H   0  0  0  0  0  0  0  0  0  0  0  0
  -38.7383   62.8531   63.3497 H   0  0  0  0  0  0  0  0  0  0  0  0
  -40.8755   63.7224   62.6447 H   0  0  0  0  0  0  0  0  0  0  0  0
  -40.7903   61.9439   62.6002 H   0  0  0  0  0  0  0  0  0  0  0  0
  -40.5506   61.9853   60.2285 H   0  0  0  0  0  0  0  0  0  0  0  0
  -40.6198   63.7692   60.2714 H   0  0  0  0  0  0  0  0  0  0  0  0
  -42.8796   63.6959   61.0165 H   0  0  0  0  0  0  0  0  0  0  0  0
  -42.8209   61.9200   61.0063 H   0  0  0  0  0  0  0  0  0  0  0  0
  -42.5627   63.6783   58.6115 H   0  0  0  0  0  0  0  0  0  0  0  0
  -43.9995   62.7391   59.1153 H   0  0  0  0  0  0  0  0  0  0  0  0
  -41.3877   61.5861   58.2846 H   0  0  0  0  0  0  0  0  0  0  0  0
  -42.8835   61.6895   57.3106 H   0  0  0  0  0  0  0  0  0  0  0  0
  -42.5685   60.1111   59.8191 H   0  0  0  0  0  0  0  0  0  0  0  0
  -42.5498   59.4762   58.1646 H   0  0  0  0  0  0  0  0  0  0  0  0
  -44.9492   60.6203   58.1114 H   0  0  0  0  0  0  0  0  0  0  0  0
  -46.1629   59.3933   59.5663 H   0  0  0  0  0  0  0  0  0  0  0  0
  -44.4214   57.5656   60.4514 H   0  0  0  0  0  0  0  0  0  0  0  0
  -45.3180   58.5854   61.5999 H   0  0  0  0  0  0  0  0  0  0  0  0
  -43.4569   60.0828   61.7657 H   0  0  0  0  0  0  0  0  0  0  0  0
  -42.5602   59.0847   60.6030 H   0  0  0  0  0  0  0  0  0  0  0  0
  -42.5442   57.2564   62.1460 H   0  0  0  0  0  0  0  0  0  0  0  0
  -43.4579   58.2422   63.3070 H   0  0  0  0  0  0  0  0  0  0  0  0
  -41.6247   59.7633   63.4979 H   0  0  0  0  0  0  0  0  0  0  0  0
  -40.7125   58.7792   62.3217 H   0  0  0  0  0  0  0  0  0  0  0  0
  -41.5646   57.8836   65.0291 H   0  0  0  0  0  0  0  0  0  0  0  0
  -39.9363   58.4091   64.5422 H   0  0  0  0  0  0  0  0  0  0  0  0
  -39.7653   56.5732   63.0311 H   0  0  0  0  0  0  0  0  0  0  0  0
  -41.4030   56.0525   63.5031 H   0  0  0  0  0  0  0  0  0  0  0  0
  -39.0301   56.1237   65.2994 H   0  0  0  0  0  0  0  0  0  0  0  0
  -39.7283   54.6895   64.5268 H   0  0  0  0  0  0  0  0  0  0  0  0
  -41.1019   56.4390   66.5219 H   0  0  0  0  0  0  0  0  0  0  0  0
  -40.4427   54.8504   66.8297 H   0  0  0  0  0  0  0  0  0  0  0  0
  -41.7915   55.0395   65.7352 H   0  0  0  0  0  0  0  0  0  0  0  0
  -32.7377   69.8438   62.7723 H   0  0  0  0  0  0  0  0  0  0  0  0
  -35.3300   68.7932   63.8992 H   0  0  0  0  0  0  0  0  0  0  0  0
  -34.3360   71.6474   63.8253 H   0  0  0  0  0  0  0  0  0  0  0  0
  -34.0399   71.5181   66.1499 H   0  0  0  0  0  0  0  0  0  0  0  0
  -32.1619   70.8745   64.8573 H   0  0  0  0  0  0  0  0  0  0  0  0
  -32.4378   68.9261   67.1126 H   0  0  0  0  0  0  0  0  0  0  0  0
  -30.9325   69.4152   66.3368 H   0  0  0  0  0  0  0  0  0  0  0  0
  1  4  1  0  0  0  0
  1 31  1  0  0  0  0
  1 62  1  0  0  0  0
  2  3  1  0  0  0  0
  2  4  1  0  0  0  0
  2 63  1  0  0  0  0
  2 64  1  0  0  0  0
  3 55  1  0  0  0  0
  4  6  1  0  0  0  0
  4 65  1  6  0  0  0
  5  6  1  0  0  0  0
  5 66  1  0  0  0  0
  6  8  1  0  0  0  0
  6 67  1  1  0  0  0
  7 31  2  0  0  0  0
  8 10  2  0  0  0  0
  8 68  1  0  0  0  0
  9 56  1  0  0  0  0
  9 69  1  0  0  0  0
 10 12  1  0  0  0  0
 10 70  1  0  0  0  0
 11 57  1  0  0  0  0
 11 61  1  0  0  0  0
 12 14  1  0  0  0  0
 12 71  1  0  0  0  0
 12 72  1  0  0  0  0
 13 58  1  0  0  0  0
 13 73  1  0  0  0  0
 14 16  1  0  0  0  0
 14 74  1  0  0  0  0
 14 75  1  0  0  0  0
 15 55  1  0  0  0  0
 15 59  1  0  0  0  0
 16 18  1  0  0  0  0
 16 76  1  0  0  0  0
 16 77  1  0  0  0  0
 17 60  1  0  0  0  0
 17 78  1  0  0  0  0
 18 20  1  0  0  0  0
 18 79  1  0  0  0  0
 18 80  1  0  0  0  0
 19 61  1  0  0  0  0
 19 81  1  0  0  0  0
 20 22  1  0  0  0  0
 20 82  1  0  0  0  0
 20 83  1  0  0  0  0
 21 61  1  0  0  0  0
 22 24  1  0  0  0  0
 22 84  1  0  0  0  0
 22 85  1  0  0  0  0
 23 61  1  0  0  0  0
 23 86  1  0  0  0  0
 24 25  1  0  0  0  0
 24 87  1  0  0  0  0
 24 88  1  0  0  0  0
 25 26  1  0  0  0  0
 25 89  1  0  0  0  0
 25 90  1  0  0  0  0
 26 27  1  0  0  0  0
 26 91  1  0  0  0  0
 26 92  1  0  0  0  0
 27 28  1  0  0  0  0
 27 93  1  0  0  0  0
 27 94  1  0  0  0  0
 28 29  1  0  0  0  0
 28 95  1  0  0  0  0
 28 96  1  0  0  0  0
 29 30  1  0  0  0  0
 29 97  1  0  0  0  0
 29 98  1  0  0  0  0
 30 99  1  0  0  0  0
 30100  1  0  0  0  0
 30101  1  0  0  0  0
 31 32  1  0  0  0  0
 32 33  1  0  0  0  0
 32102  1  0  0  0  0
 32103  1  0  0  0  0
 33 34  1  0  0  0  0
 33104  1  0  0  0  0
 33105  1  0  0  0  0
 34 35  1  0  0  0  0
 34106  1  0  0  0  0
 34107  1  0  0  0  0
 35 36  1  0  0  0  0
 35108  1  0  0  0  0
 35109  1  0  0  0  0
 36 37  1  0  0  0  0
 36110  1  0  0  0  0
 36111  1  0  0  0  0
 37 38  1  0  0  0  0
 37112  1  0  0  0  0
 37113  1  0  0  0  0
 38 39  1  0  0  0  0
 38114  1  0  0  0  0
 38115  1  0  0  0  0
 39 40  1  0  0  0  0
 39116  1  0  0  0  0
 39117  1  0  0  0  0
 40 41  1  0  0  0  0
 40118  1  0  0  0  0
 40119  1  0  0  0  0
 41 42  1  0  0  0  0
 41120  1  0  0  0  0
 41121  1  0  0  0  0
 42 43  1  0  0  0  0
 42122  1  0  0  0  0
 42123  1  0  0  0  0
 43 44  1  0  0  0  0
 43124  1  0  0  0  0
 43125  1  0  0  0  0
 44 45  1  0  0  0  0
 44126  1  0  0  0  0
 44127  1  0  0  0  0
 45 46  2  0  0  0  0
 45128  1  0  0  0  0
 46 47  1  0  0  0  0
 46129  1  0  0  0  0
 47 48  1  0  0  0  0
 47130  1  0  0  0  0
 47131  1  0  0  0  0
 48 49  1  0  0  0  0
 48132  1  0  0  0  0
 48133  1  0  0  0  0
 49 50  1  0  0  0  0
 49134  1  0  0  0  0
 49135  1  0  0  0  0
 50 51  1  0  0  0  0
 50136  1  0  0  0  0
 50137  1  0  0  0  0
 51 52  1  0  0  0  0
 51138  1  0  0  0  0
 51139  1  0  0  0  0
 52 53  1  0  0  0  0
 52140  1  0  0  0  0
 52141  1  0  0  0  0
 53 54  1  0  0  0  0
 53142  1  0  0  0  0
 53143  1  0  0  0  0
 54144  1  0  0  0  0
 54145  1  0  0  0  0
 54146  1  0  0  0  0
 55 56  1  0  0  0  0
 55147  1  6  0  0  0
 56 57  1  0  0  0  0
 56148  1  1  0  0  0
 57 58  1  0  0  0  0
 57149  1  6  0  0  0
 58 59  1  0  0  0  0
 58150  1  1  0  0  0
 59 60  1  0  0  0  0
 59151  1  6  0  0  0
 60152  1  0  0  0  0
 60153  1  0  0  0  0
M  CHG  1  21  -1
M  END
$$$$