/media/chris/experiments/cd1a-new-docking/inputs/ligands/7ryn_ligand.pdb
 OpenBabel07032312553D

153153  0  0  1  0  0  0  0  0999 V2000
  -33.0340   65.1330   62.2120 N   0  0  0  0  0  0  0  0  0  0  0  0
  -32.0220   67.3480   62.3220 C   0  0  0  0  0  0  0  0  0  0  0  0
  -31.4051   67.0024   63.5673 O   0  0  0  0  0  0  0  0  0  0  0  0
  -32.1830   66.0840   61.5030 C   0  0  1  0  0  0  0  0  0  0  0  0
  -31.0548   64.2805   60.3587 O   0  0  0  0  0  0  0  0  0  0  0  0
  -30.8310   65.4230   61.1900 C   0  0  2  0  0  0  0  0  0  0  0  0
  -34.5420   63.4616   62.1958 O   0  0  0  0  0  0  0  0  0  0  0  0
  -30.1054   65.0399   62.4433 C   0  0  0  0  0  0  0  0  0  0  0  0
  -31.4046   66.6220   66.3415 O   0  0  0  0  0  0  0  0  0  0  0  0
  -29.2770   64.0208   62.5582 C   0  0  0  0  0  0  0  0  0  0  0  0
  -29.4155   68.1261   67.6954 O   0  0  0  0  0  0  0  0  0  0  0  0
  -28.5564   63.6732   63.8194 C   0  0  0  0  0  0  0  0  0  0  0  0
  -28.1411   69.3260   65.5933 O   0  0  0  0  0  0  0  0  0  0  0  0
  -29.3740   62.6987   64.6696 C   0  0  0  0  0  0  0  0  0  0  0  0
  -30.3909   69.0606   63.8198 O   0  0  0  0  0  0  0  0  0  0  0  0
  -28.7120   62.3095   65.9814 C   0  0  0  0  0  0  0  0  0  0  0  0
  -29.1056   72.3918   64.5510 O   0  0  0  0  0  0  0  0  0  0  0  0
  -27.3555   61.6442   65.8234 C   0  0  0  0  0  0  0  0  0  0  0  0
  -29.0352   66.5764   69.5011 O   0  0  0  0  0  0  0  0  0  0  0  0
  -26.7064   61.2421   67.1397 C   0  0  0  0  0  0  0  0  0  0  0  0
  -30.6879   66.0419   67.6849 O   0  5  0  0  0  0  0  0  0  0  0  0
  -26.4733   62.4087   68.0873 C   0  0  0  0  0  0  0  0  0  0  0  0
  -31.1144   67.7162   69.3133 O   0  0  0  0  0  0  0  0  0  0  0  0
  -25.8102   62.0120   69.3946 C   0  0  0  0  0  0  0  0  0  0  0  0
  -24.4366   61.3894   69.2270 C   0  0  0  0  0  0  0  0  0  0  0  0
  -24.4318   60.1279   68.3807 C   0  0  0  0  0  0  0  0  0  0  0  0
  -25.3148   59.0309   68.9458 C   0  0  0  0  0  0  0  0  0  0  0  0
  -25.3198   57.7502   68.1333 C   0  0  0  0  0  0  0  0  0  0  0  0
  -26.2271   56.6890   68.7242 C   0  0  0  0  0  0  0  0  0  0  0  0
  -25.8324   56.3087   70.1363 C   0  0  0  0  0  0  0  0  0  0  0  0
  -33.8200   64.2493   61.5913 C   0  0  0  0  0  0  0  0  0  0  0  0
  -33.7740   64.2810   60.0839 C   0  0  0  0  0  0  0  0  0  0  0  0
  -34.7076   63.2586   59.4486 C   0  0  0  0  0  0  0  0  0  0  0  0
  -36.1648   63.4860   59.8177 C   0  0  0  0  0  0  0  0  0  0  0  0
  -36.7083   64.8354   59.3783 C   0  0  0  0  0  0  0  0  0  0  0  0
  -38.1616   65.0683   59.7633 C   0  0  0  0  0  0  0  0  0  0  0  0
  -38.4181   65.0347   61.2645 C   0  0  0  0  0  0  0  0  0  0  0  0
  -39.8768   65.2513   61.6461 C   0  0  0  0  0  0  0  0  0  0  0  0
  -40.8397   64.2063   61.0881 C   0  0  0  0  0  0  0  0  0  0  0  0
  -40.5499   62.7809   61.5557 C   0  0  0  0  0  0  0  0  0  0  0  0
  -40.6326   62.5774   63.0684 C   0  0  0  0  0  0  0  0  0  0  0  0
  -40.3214   61.1467   63.5082 C   0  0  0  0  0  0  0  0  0  0  0  0
  -41.2380   60.0746   62.9190 C   0  0  0  0  0  0  0  0  0  0  0  0
  -42.7240   60.2462   63.2451 C   0  0  0  0  0  0  0  0  0  0  0  0
  -43.0023   60.2364   64.7204 C   0  0  0  0  0  0  0  0  0  0  0  0
  -43.0239   61.2915   65.5155 C   0  0  0  0  0  0  0  0  0  0  0  0
  -42.7775   62.7112   65.1036 C   0  0  0  0  0  0  0  0  0  0  0  0
  -41.3094   63.1323   65.1971 C   0  0  0  0  0  0  0  0  0  0  0  0
  -40.7347   63.0049   66.6016 C   0  0  0  0  0  0  0  0  0  0  0  0
  -39.2769   63.4401   66.7005 C   0  0  0  0  0  0  0  0  0  0  0  0
  -38.3225   62.6580   65.8054 C   0  0  0  0  0  0  0  0  0  0  0  0
  -36.8695   63.0943   65.9296 C   0  0  0  0  0  0  0  0  0  0  0  0
  -35.9115   62.3317   65.0283 C   0  0  0  0  0  0  0  0  0  0  0  0
  -34.4720   62.7770   65.1873 C   0  0  0  0  0  0  0  0  0  0  0  0
  -31.2104   68.0828   64.4327 C   0  0  2  0  0  0  0  0  0  0  0  0
  -30.5480   67.5584   65.7001 C   0  0  1  0  0  0  0  0  0  0  0  0
  -30.2364   68.7171   66.6389 C   0  0  2  0  0  0  0  0  0  0  0  0
  -29.4420   69.8007   65.9249 C   0  0  2  0  0  0  0  0  0  0  0  0
  -30.1703   70.2134   64.6482 C   0  0  1  0  0  0  0  0  0  0  0  0
  -29.3950   71.2080   63.8163 C   0  0  0  0  0  0  0  0  0  0  0  0
  -30.0256   66.9384   68.5560 S   0  0  0  0  0  0  0  0  0  0  0  0
  -33.0282   65.1436   63.1964 H   0  0  0  0  0  0  0  0  0  0  0  0
  -31.4053   68.0450   61.7940 H   0  0  0  0  0  0  0  0  0  0  0  0
  -32.9770   67.7979   62.4965 H   0  0  0  0  0  0  0  0  0  0  0  0
  -32.6374   66.3625   60.5752 H   0  0  0  0  0  0  0  0  0  0  0  0
  -31.5249   64.5525   59.5551 H   0  0  0  0  0  0  0  0  0  0  0  0
  -30.2105   66.1253   60.6735 H   0  0  0  0  0  0  0  0  0  0  0  0
  -30.2667   65.6189   63.2823 H   0  0  0  0  0  0  0  0  0  0  0  0
  -31.5955   65.8899   65.7345 H   0  0  0  0  0  0  0  0  0  0  0  0
  -29.1171   63.4287   61.7282 H   0  0  0  0  0  0  0  0  0  0  0  0
  -28.3838   64.5674   64.3812 H   0  0  0  0  0  0  0  0  0  0  0  0
  -27.6288   63.2054   63.5632 H   0  0  0  0  0  0  0  0  0  0  0  0
  -27.6765   69.0633   66.4032 H   0  0  0  0  0  0  0  0  0  0  0  0
  -29.5353   61.8086   64.0981 H   0  0  0  0  0  0  0  0  0  0  0  0
  -30.2850   63.2002   64.9218 H   0  0  0  0  0  0  0  0  0  0  0  0
  -29.3602   61.6311   66.4957 H   0  0  0  0  0  0  0  0  0  0  0  0
  -28.5469   63.2176   66.5228 H   0  0  0  0  0  0  0  0  0  0  0  0
  -28.6087   73.0074   63.9896 H   0  0  0  0  0  0  0  0  0  0  0  0
  -26.7024   62.3267   65.3208 H   0  0  0  0  0  0  0  0  0  0  0  0
  -27.5153   60.7431   65.2689 H   0  0  0  0  0  0  0  0  0  0  0  0
  -28.3292   66.0818   69.0563 H   0  0  0  0  0  0  0  0  0  0  0  0
  -25.7621   60.7868   66.9256 H   0  0  0  0  0  0  0  0  0  0  0  0
  -27.3811   60.5712   67.6293 H   0  0  0  0  0  0  0  0  0  0  0  0
  -27.4192   62.8562   68.3107 H   0  0  0  0  0  0  0  0  0  0  0  0
  -25.8078   63.0847   67.5922 H   0  0  0  0  0  0  0  0  0  0  0  0
  -30.6977   68.3443   69.9238 H   0  0  0  0  0  0  0  0  0  0  0  0
  -26.4416   61.3051   69.8910 H   0  0  0  0  0  0  0  0  0  0  0  0
  -25.6752   62.9116   69.9581 H   0  0  0  0  0  0  0  0  0  0  0  0
  -24.0565   61.1458   70.1971 H   0  0  0  0  0  0  0  0  0  0  0  0
  -23.8300   62.1081   68.7167 H   0  0  0  0  0  0  0  0  0  0  0  0
  -23.4284   59.7612   68.3213 H   0  0  0  0  0  0  0  0  0  0  0  0
  -24.8204   60.3871   67.4181 H   0  0  0  0  0  0  0  0  0  0  0  0
  -26.3178   59.4003   68.9945 H   0  0  0  0  0  0  0  0  0  0  0  0
  -24.9152   58.7816   69.9066 H   0  0  0  0  0  0  0  0  0  0  0  0
  -24.3222   57.3652   68.0942 H   0  0  0  0  0  0  0  0  0  0  0  0
  -25.6898   57.9866   67.1576 H   0  0  0  0  0  0  0  0  0  0  0  0
  -26.1802   55.8156   68.1079 H   0  0  0  0  0  0  0  0  0  0  0  0
  -27.2176   57.0920   68.7610 H   0  0  0  0  0  0  0  0  0  0  0  0
  -24.8431   55.9010   70.1326 H   0  0  0  0  0  0  0  0  0  0  0  0
  -26.5176   55.5786   70.5138 H   0  0  0  0  0  0  0  0  0  0  0  0
  -25.8578   57.1777   70.7600 H   0  0  0  0  0  0  0  0  0  0  0  0
  -32.7730   64.0747   59.7671 H   0  0  0  0  0  0  0  0  0  0  0  0
  -34.0946   65.2523   59.7699 H   0  0  0  0  0  0  0  0  0  0  0  0
  -34.4198   62.2817   59.7768 H   0  0  0  0  0  0  0  0  0  0  0  0
  -34.6235   63.3599   58.3867 H   0  0  0  0  0  0  0  0  0  0  0  0
  -36.2578   63.4155   60.8813 H   0  0  0  0  0  0  0  0  0  0  0  0
  -36.7350   62.7398   59.3048 H   0  0  0  0  0  0  0  0  0  0  0  0
  -36.6269   64.9011   58.3135 H   0  0  0  0  0  0  0  0  0  0  0  0
  -36.1298   65.5823   59.8808 H   0  0  0  0  0  0  0  0  0  0  0  0
  -38.7575   64.3081   59.3030 H   0  0  0  0  0  0  0  0  0  0  0  0
  -38.4169   66.0517   59.4276 H   0  0  0  0  0  0  0  0  0  0  0  0
  -37.8320   65.8031   61.7238 H   0  0  0  0  0  0  0  0  0  0  0  0
  -38.1503   64.0559   61.6037 H   0  0  0  0  0  0  0  0  0  0  0  0
  -40.1783   66.2113   61.2823 H   0  0  0  0  0  0  0  0  0  0  0  0
  -39.9272   65.1727   62.7120 H   0  0  0  0  0  0  0  0  0  0  0  0
  -40.7785   64.2289   60.0201 H   0  0  0  0  0  0  0  0  0  0  0  0
  -41.8142   64.4587   61.4507 H   0  0  0  0  0  0  0  0  0  0  0  0
  -39.5623   62.5197   61.2374 H   0  0  0  0  0  0  0  0  0  0  0  0
  -41.3080   62.1608   61.1248 H   0  0  0  0  0  0  0  0  0  0  0  0
  -41.6232   62.8228   63.3897 H   0  0  0  0  0  0  0  0  0  0  0  0
  -39.8937   63.2113   63.5124 H   0  0  0  0  0  0  0  0  0  0  0  0
  -40.4018   61.1025   64.5743 H   0  0  0  0  0  0  0  0  0  0  0  0
  -39.3379   60.9304   63.1463 H   0  0  0  0  0  0  0  0  0  0  0  0
  -40.9226   59.1241   63.2959 H   0  0  0  0  0  0  0  0  0  0  0  0
  -41.1526   60.1584   61.8557 H   0  0  0  0  0  0  0  0  0  0  0  0
  -43.2683   59.4455   62.7894 H   0  0  0  0  0  0  0  0  0  0  0  0
  -43.0282   61.1997   62.8668 H   0  0  0  0  0  0  0  0  0  0  0  0
  -43.1948   59.3199   65.1540 H   0  0  0  0  0  0  0  0  0  0  0  0
  -43.2294   61.1222   66.5126 H   0  0  0  0  0  0  0  0  0  0  0  0
  -43.3539   63.3519   65.7378 H   0  0  0  0  0  0  0  0  0  0  0  0
  -43.0615   62.7925   64.0752 H   0  0  0  0  0  0  0  0  0  0  0  0
  -41.2287   64.1537   64.8885 H   0  0  0  0  0  0  0  0  0  0  0  0
  -40.7501   62.4748   64.5648 H   0  0  0  0  0  0  0  0  0  0  0  0
  -40.8045   61.9812   66.9052 H   0  0  0  0  0  0  0  0  0  0  0  0
  -41.3020   63.6540   67.2355 H   0  0  0  0  0  0  0  0  0  0  0  0
  -38.9596   63.3179   67.7151 H   0  0  0  0  0  0  0  0  0  0  0  0
  -39.2395   64.4573   66.3705 H   0  0  0  0  0  0  0  0  0  0  0  0
  -38.6289   62.7897   64.7887 H   0  0  0  0  0  0  0  0  0  0  0  0
  -38.3693   61.6355   66.1172 H   0  0  0  0  0  0  0  0  0  0  0  0
  -36.5615   62.9512   66.9443 H   0  0  0  0  0  0  0  0  0  0  0  0
  -36.8287   64.1192   65.6251 H   0  0  0  0  0  0  0  0  0  0  0  0
  -36.2056   62.4840   64.0108 H   0  0  0  0  0  0  0  0  0  0  0  0
  -35.9612   61.2997   65.3067 H   0  0  0  0  0  0  0  0  0  0  0  0
  -34.3857   63.8085   64.9162 H   0  0  0  0  0  0  0  0  0  0  0  0
  -33.8440   62.1876   64.5524 H   0  0  0  0  0  0  0  0  0  0  0  0
  -34.1696   62.6495   66.2058 H   0  0  0  0  0  0  0  0  0  0  0  0
  -32.1486   68.5400   64.6687 H   0  0  0  0  0  0  0  0  0  0  0  0
  -29.6327   67.0681   65.4416 H   0  0  0  0  0  0  0  0  0  0  0  0
  -31.1294   69.1768   67.0080 H   0  0  0  0  0  0  0  0  0  0  0  0
  -29.3488   70.6437   66.5772 H   0  0  0  0  0  0  0  0  0  0  0  0
  -31.0858   70.6667   64.9665 H   0  0  0  0  0  0  0  0  0  0  0  0
  -28.4751   70.7586   63.5055 H   0  0  0  0  0  0  0  0  0  0  0  0
  -29.9937   71.4764   62.9711 H   0  0  0  0  0  0  0  0  0  0  0  0
  1  4  1  0  0  0  0
  1 31  1  0  0  0  0
  1 62  1  0  0  0  0
  2  3  1  0  0  0  0
  2  4  1  0  0  0  0
  2 63  1  0  0  0  0
  2 64  1  0  0  0  0
  3 55  1  0  0  0  0
  4  6  1  0  0  0  0
  4 65  1  6  0  0  0
  5  6  1  0  0  0  0
  5 66  1  0  0  0  0
  6  8  1  0  0  0  0
  6 67  1  6  0  0  0
  7 31  2  0  0  0  0
  8 10  2  0  0  0  0
  8 68  1  0  0  0  0
  9 56  1  0  0  0  0
  9 69  1  0  0  0  0
 10 12  1  0  0  0  0
 10 70  1  0  0  0  0
 11 57  1  0  0  0  0
 11 61  1  0  0  0  0
 12 14  1  0  0  0  0
 12 71  1  0  0  0  0
 12 72  1  0  0  0  0
 13 58  1  0  0  0  0
 13 73  1  0  0  0  0
 14 16  1  0  0  0  0
 14 74  1  0  0  0  0
 14 75  1  0  0  0  0
 15 55  1  0  0  0  0
 15 59  1  0  0  0  0
 16 18  1  0  0  0  0
 16 76  1  0  0  0  0
 16 77  1  0  0  0  0
 17 60  1  0  0  0  0
 17 78  1  0  0  0  0
 18 20  1  0  0  0  0
 18 79  1  0  0  0  0
 18 80  1  0  0  0  0
 19 61  1  0  0  0  0
 19 81  1  0  0  0  0
 20 22  1  0  0  0  0
 20 82  1  0  0  0  0
 20 83  1  0  0  0  0
 21 61  1  0  0  0  0
 22 24  1  0  0  0  0
 22 84  1  0  0  0  0
 22 85  1  0  0  0  0
 23 61  1  0  0  0  0
 23 86  1  0  0  0  0
 24 25  1  0  0  0  0
 24 87  1  0  0  0  0
 24 88  1  0  0  0  0
 25 26  1  0  0  0  0
 25 89  1  0  0  0  0
 25 90  1  0  0  0  0
 26 27  1  0  0  0  0
 26 91  1  0  0  0  0
 26 92  1  0  0  0  0
 27 28  1  0  0  0  0
 27 93  1  0  0  0  0
 27 94  1  0  0  0  0
 28 29  1  0  0  0  0
 28 95  1  0  0  0  0
 28 96  1  0  0  0  0
 29 30  1  0  0  0  0
 29 97  1  0  0  0  0
 29 98  1  0  0  0  0
 30 99  1  0  0  0  0
 30100  1  0  0  0  0
 30101  1  0  0  0  0
 31 32  1  0  0  0  0
 32 33  1  0  0  0  0
 32102  1  0  0  0  0
 32103  1  0  0  0  0
 33 34  1  0  0  0  0
 33104  1  0  0  0  0
 33105  1  0  0  0  0
 34 35  1  0  0  0  0
 34106  1  0  0  0  0
 34107  1  0  0  0  0
 35 36  1  0  0  0  0
 35108  1  0  0  0  0
 35109  1  0  0  0  0
 36 37  1  0  0  0  0
 36110  1  0  0  0  0
 36111  1  0  0  0  0
 37 38  1  0  0  0  0
 37112  1  0  0  0  0
 37113  1  0  0  0  0
 38 39  1  0  0  0  0
 38114  1  0  0  0  0
 38115  1  0  0  0  0
 39 40  1  0  0  0  0
 39116  1  0  0  0  0
 39117  1  0  0  0  0
 40 41  1  0  0  0  0
 40118  1  0  0  0  0
 40119  1  0  0  0  0
 41 42  1  0  0  0  0
 41120  1  0  0  0  0
 41121  1  0  0  0  0
 42 43  1  0  0  0  0
 42122  1  0  0  0  0
 42123  1  0  0  0  0
 43 44  1  0  0  0  0
 43124  1  0  0  0  0
 43125  1  0  0  0  0
 44 45  1  0  0  0  0
 44126  1  0  0  0  0
 44127  1  0  0  0  0
 45 46  2  0  0  0  0
 45128  1  0  0  0  0
 46 47  1  0  0  0  0
 46129  1  0  0  0  0
 47 48  1  0  0  0  0
 47130  1  0  0  0  0
 47131  1  0  0  0  0
 48 49  1  0  0  0  0
 48132  1  0  0  0  0
 48133  1  0  0  0  0
 49 50  1  0  0  0  0
 49134  1  0  0  0  0
 49135  1  0  0  0  0
 50 51  1  0  0  0  0
 50136  1  0  0  0  0
 50137  1  0  0  0  0
 51 52  1  0  0  0  0
 51138  1  0  0  0  0
 51139  1  0  0  0  0
 52 53  1  0  0  0  0
 52140  1  0  0  0  0
 52141  1  0  0  0  0
 53 54  1  0  0  0  0
 53142  1  0  0  0  0
 53143  1  0  0  0  0
 54144  1  0  0  0  0
 54145  1  0  0  0  0
 54146  1  0  0  0  0
 55 56  1  0  0  0  0
 55147  1  1  0  0  0
 56 57  1  0  0  0  0
 56148  1  6  0  0  0
 57 58  1  0  0  0  0
 57149  1  1  0  0  0
 58 59  1  0  0  0  0
 58150  1  1  0  0  0
 59 60  1  0  0  0  0
 59151  1  1  0  0  0
 60152  1  0  0  0  0
 60153  1  0  0  0  0
M  CHG  1  21  -1
M  END
$$$$