/media/chris/experiments/cd1a-new-docking/inputs/ligands/7ryn_ligand.pdb
 OpenBabel07032312553D

153153  0  0  1  0  0  0  0  0999 V2000
  -33.0340   65.1330   62.2120 N   0  0  0  0  0  0  0  0  0  0  0  0
  -32.0220   67.3480   62.3220 C   0  0  0  0  0  0  0  0  0  0  0  0
  -33.3204   67.9104   62.5424 O   0  0  0  0  0  0  0  0  0  0  0  0
  -32.1830   66.0840   61.5030 C   0  0  1  0  0  0  0  0  0  0  0  0
  -29.9992   66.3678   60.5104 O   0  0  0  0  0  0  0  0  0  0  0  0
  -30.8310   65.4230   61.1900 C   0  0  2  0  0  0  0  0  0  0  0  0
  -32.4714   65.8137   64.2827 O   0  0  0  0  0  0  0  0  0  0  0  0
  -31.0055   64.1786   60.3744 C   0  0  0  0  0  0  0  0  0  0  0  0
  -33.4828   67.8547   65.3373 O   0  0  0  0  0  0  0  0  0  0  0  0
  -31.1625   62.9657   60.8665 C   0  0  0  0  0  0  0  0  0  0  0  0
  -31.7851   69.7369   66.6130 O   0  0  0  0  0  0  0  0  0  0  0  0
  -31.3493   61.7453   60.0260 C   0  0  0  0  0  0  0  0  0  0  0  0
  -30.5036   70.8340   64.4596 O   0  0  0  0  0  0  0  0  0  0  0  0
  -32.0437   62.0872   58.7061 C   0  0  0  0  0  0  0  0  0  0  0  0
  -32.5700   70.0926   62.6001 O   0  0  0  0  0  0  0  0  0  0  0  0
  -32.2850   60.8902   57.8007 C   0  0  0  0  0  0  0  0  0  0  0  0
  -31.7323   73.6181   62.9917 O   0  0  0  0  0  0  0  0  0  0  0  0
  -33.1710   59.8160   58.4082 C   0  0  0  0  0  0  0  0  0  0  0  0
  -30.6849   70.2420   68.6965 O   0  0  0  0  0  0  0  0  0  0  0  0
  -33.3944   58.6133   57.5031 C   0  0  0  0  0  0  0  0  0  0  0  0
  -32.6697   71.5855   67.9409 O   0  5  0  0  0  0  0  0  0  0  0  0
  -34.0422   58.9626   56.1720 C   0  0  0  0  0  0  0  0  0  0  0  0
  -30.5576   71.7614   66.8710 O   0  0  0  0  0  0  0  0  0  0  0  0
  -35.4023   59.6241   56.3084 C   0  0  0  0  0  0  0  0  0  0  0  0
  -36.0619   59.9600   54.9838 C   0  0  0  0  0  0  0  0  0  0  0  0
  -37.4146   60.6369   55.1241 C   0  0  0  0  0  0  0  0  0  0  0  0
  -38.0637   60.9484   53.7884 C   0  0  0  0  0  0  0  0  0  0  0  0
  -38.3388   59.7309   52.9268 C   0  0  0  0  0  0  0  0  0  0  0  0
  -38.9712   60.0896   51.5964 C   0  0  0  0  0  0  0  0  0  0  0  0
  -38.0890   60.9924   50.7591 C   0  0  0  0  0  0  0  0  0  0  0  0
  -33.1122   65.0716   63.5440 C   0  0  0  0  0  0  0  0  0  0  0  0
  -34.0520   64.0283   64.0950 C   0  0  0  0  0  0  0  0  0  0  0  0
  -33.3426   63.0107   64.9792 C   0  0  0  0  0  0  0  0  0  0  0  0
  -32.2419   62.2620   64.2451 C   0  0  0  0  0  0  0  0  0  0  0  0
  -31.5265   61.2269   65.0973 C   0  0  0  0  0  0  0  0  0  0  0  0
  -32.4373   60.1282   65.6244 C   0  0  0  0  0  0  0  0  0  0  0  0
  -33.1147   59.3083   64.5337 C   0  0  0  0  0  0  0  0  0  0  0  0
  -33.9861   60.1319   63.5942 C   0  0  0  0  0  0  0  0  0  0  0  0
  -34.6856   59.3219   62.5056 C   0  0  0  0  0  0  0  0  0  0  0  0
  -35.5428   60.1612   61.5595 C   0  0  0  0  0  0  0  0  0  0  0  0
  -36.2633   59.3618   60.4741 C   0  0  0  0  0  0  0  0  0  0  0  0
  -35.3161   58.5802   59.5636 C   0  0  0  0  0  0  0  0  0  0  0  0
  -34.4525   57.5362   60.2714 C   0  0  0  0  0  0  0  0  0  0  0  0
  -35.2334   56.4290   60.9842 C   0  0  0  0  0  0  0  0  0  0  0  0
  -34.3417   55.4396   61.6771 C   0  0  0  0  0  0  0  0  0  0  0  0
  -33.0210   55.4679   61.7046 C   0  0  0  0  0  0  0  0  0  0  0  0
  -32.1472   56.4957   61.0517 C   0  0  0  0  0  0  0  0  0  0  0  0
  -30.6507   56.2455   61.2499 C   0  0  0  0  0  0  0  0  0  0  0  0
  -30.2332   56.2197   62.7142 C   0  0  0  0  0  0  0  0  0  0  0  0
  -28.7397   55.9875   62.9134 C   0  0  0  0  0  0  0  0  0  0  0  0
  -28.2972   55.9402   64.3714 C   0  0  0  0  0  0  0  0  0  0  0  0
  -26.8010   55.7247   64.5512 C   0  0  0  0  0  0  0  0  0  0  0  0
  -25.9371   56.8145   63.9367 C   0  0  0  0  0  0  0  0  0  0  0  0
  -26.1523   56.9659   62.4444 C   0  0  0  0  0  0  0  0  0  0  0  0
  -33.3156   69.0988   63.2783 C   0  0  2  0  0  0  0  0  0  0  0  0
  -32.6936   68.8090   64.6382 C   0  0  1  0  0  0  0  0  0  0  0  0
  -32.5875   70.0974   65.4443 C   0  0  2  0  0  0  0  0  0  0  0  0
  -31.8713   71.1807   64.6514 C   0  0  2  0  0  0  0  0  0  0  0  0
  -32.5450   71.3514   63.2921 C   0  0  1  0  0  0  0  0  0  0  0  0
  -31.8289   72.3311   62.3923 C   0  0  0  0  0  0  0  0  0  0  0  0
  -31.4824   70.8551   67.7000 S   0  0  0  0  0  0  0  0  0  0  0  0
  -33.5772   64.5058   61.6821 H   0  0  0  0  0  0  0  0  0  0  0  0
  -31.5648   67.1148   63.2609 H   0  0  0  0  0  0  0  0  0  0  0  0
  -31.4012   68.0473   61.8019 H   0  0  0  0  0  0  0  0  0  0  0  0
  -32.6374   66.3625   60.5752 H   0  0  0  0  0  0  0  0  0  0  0  0
  -29.9008   67.1635   61.0564 H   0  0  0  0  0  0  0  0  0  0  0  0
  -30.3647   65.1308   62.1077 H   0  0  0  0  0  0  0  0  0  0  0  0
  -31.0026   64.2787   59.3473 H   0  0  0  0  0  0  0  0  0  0  0  0
  -33.5430   67.0398   64.8146 H   0  0  0  0  0  0  0  0  0  0  0  0
  -31.1559   62.8529   61.8922 H   0  0  0  0  0  0  0  0  0  0  0  0
  -31.9475   61.0392   60.5631 H   0  0  0  0  0  0  0  0  0  0  0  0
  -30.3867   61.3326   59.8069 H   0  0  0  0  0  0  0  0  0  0  0  0
  -30.0736   70.7251   65.3222 H   0  0  0  0  0  0  0  0  0  0  0  0
  -31.4334   62.7897   58.1780 H   0  0  0  0  0  0  0  0  0  0  0  0
  -33.0061   62.4812   58.9580 H   0  0  0  0  0  0  0  0  0  0  0  0
  -31.3380   60.4507   57.5666 H   0  0  0  0  0  0  0  0  0  0  0  0
  -32.7977   61.2579   56.9365 H   0  0  0  0  0  0  0  0  0  0  0  0
  -31.2687   74.2211   62.3898 H   0  0  0  0  0  0  0  0  0  0  0  0
  -34.1229   60.2511   58.6308 H   0  0  0  0  0  0  0  0  0  0  0  0
  -32.6678   59.4570   59.2816 H   0  0  0  0  0  0  0  0  0  0  0  0
  -31.2382   69.6603   69.2409 H   0  0  0  0  0  0  0  0  0  0  0  0
  -34.0270   57.9183   58.0146 H   0  0  0  0  0  0  0  0  0  0  0  0
  -32.4307   58.2032   57.2840 H   0  0  0  0  0  0  0  0  0  0  0  0
  -34.1602   58.0614   55.6073 H   0  0  0  0  0  0  0  0  0  0  0  0
  -33.3994   59.6676   55.6876 H   0  0  0  0  0  0  0  0  0  0  0  0
  -29.7286   71.2935   66.6845 H   0  0  0  0  0  0  0  0  0  0  0  0
  -35.2811   60.5310   56.8632 H   0  0  0  0  0  0  0  0  0  0  0  0
  -36.0401   58.9208   56.8018 H   0  0  0  0  0  0  0  0  0  0  0  0
  -36.1951   59.0519   54.4339 H   0  0  0  0  0  0  0  0  0  0  0  0
  -35.4183   60.6528   54.4832 H   0  0  0  0  0  0  0  0  0  0  0  0
  -37.2833   61.5530   55.6611 H   0  0  0  0  0  0  0  0  0  0  0  0
  -38.0595   59.9585   55.6427 H   0  0  0  0  0  0  0  0  0  0  0  0
  -37.4146   61.6030   53.2453 H   0  0  0  0  0  0  0  0  0  0  0  0
  -39.0139   61.3896   54.0060 H   0  0  0  0  0  0  0  0  0  0  0  0
  -39.0014   59.0787   53.4565 H   0  0  0  0  0  0  0  0  0  0  0  0
  -37.4004   59.2591   52.7230 H   0  0  0  0  0  0  0  0  0  0  0  0
  -39.8981   60.5912   51.7813 H   0  0  0  0  0  0  0  0  0  0  0  0
  -39.1175   59.1810   51.0506 H   0  0  0  0  0  0  0  0  0  0  0  0
  -37.9239   61.9124   51.2799 H   0  0  0  0  0  0  0  0  0  0  0  0
  -38.5692   61.1930   49.8242 H   0  0  0  0  0  0  0  0  0  0  0  0
  -37.1508   60.5095   50.5818 H   0  0  0  0  0  0  0  0  0  0  0  0
  -34.5088   63.5120   63.2767 H   0  0  0  0  0  0  0  0  0  0  0  0
  -34.7782   64.5319   64.6981 H   0  0  0  0  0  0  0  0  0  0  0  0
  -34.0628   62.3019   65.3311 H   0  0  0  0  0  0  0  0  0  0  0  0
  -32.8870   63.5456   65.7862 H   0  0  0  0  0  0  0  0  0  0  0  0
  -31.5200   62.9742   63.9036 H   0  0  0  0  0  0  0  0  0  0  0  0
  -32.7093   61.7328   63.4411 H   0  0  0  0  0  0  0  0  0  0  0  0
  -31.0827   61.7267   65.9328 H   0  0  0  0  0  0  0  0  0  0  0  0
  -30.8006   60.7546   64.4689 H   0  0  0  0  0  0  0  0  0  0  0  0
  -33.1974   60.5811   66.2260 H   0  0  0  0  0  0  0  0  0  0  0  0
  -31.8193   59.4539   66.1798 H   0  0  0  0  0  0  0  0  0  0  0  0
  -33.7296   58.5681   65.0015 H   0  0  0  0  0  0  0  0  0  0  0  0
  -32.3359   58.8789   63.9388 H   0  0  0  0  0  0  0  0  0  0  0  0
  -33.3666   60.8641   63.1198 H   0  0  0  0  0  0  0  0  0  0  0  0
  -34.7586   60.5633   64.1959 H   0  0  0  0  0  0  0  0  0  0  0  0
  -35.3162   58.5979   62.9778 H   0  0  0  0  0  0  0  0  0  0  0  0
  -33.9169   58.8740   61.9111 H   0  0  0  0  0  0  0  0  0  0  0  0
  -34.9079   60.8771   61.0806 H   0  0  0  0  0  0  0  0  0  0  0  0
  -36.3051   60.6114   62.1605 H   0  0  0  0  0  0  0  0  0  0  0  0
  -36.8286   60.0416   59.8714 H   0  0  0  0  0  0  0  0  0  0  0  0
  -36.8854   58.6464   60.9702 H   0  0  0  0  0  0  0  0  0  0  0  0
  -34.6641   59.2801   59.0840 H   0  0  0  0  0  0  0  0  0  0  0  0
  -35.9372   58.0399   58.8800 H   0  0  0  0  0  0  0  0  0  0  0  0
  -33.8514   58.0403   60.9991 H   0  0  0  0  0  0  0  0  0  0  0  0
  -33.8783   57.0544   59.5078 H   0  0  0  0  0  0  0  0  0  0  0  0
  -35.8246   55.9077   60.2606 H   0  0  0  0  0  0  0  0  0  0  0  0
  -35.8401   56.8943   61.7328 H   0  0  0  0  0  0  0  0  0  0  0  0
  -34.8035   54.6650   62.1788 H   0  0  0  0  0  0  0  0  0  0  0  0
  -32.5472   54.7123   62.2238 H   0  0  0  0  0  0  0  0  0  0  0  0
  -32.3871   57.4538   61.4633 H   0  0  0  0  0  0  0  0  0  0  0  0
  -32.3365   56.4446   59.9998 H   0  0  0  0  0  0  0  0  0  0  0  0
  -30.1078   57.0239   60.7556 H   0  0  0  0  0  0  0  0  0  0  0  0
  -30.4338   55.2806   60.8413 H   0  0  0  0  0  0  0  0  0  0  0  0
  -30.7673   55.4333   63.2054 H   0  0  0  0  0  0  0  0  0  0  0  0
  -30.4613   57.1810   63.1249 H   0  0  0  0  0  0  0  0  0  0  0  0
  -28.2104   56.7812   62.4289 H   0  0  0  0  0  0  0  0  0  0  0  0
  -28.5227   55.0257   62.4978 H   0  0  0  0  0  0  0  0  0  0  0  0
  -28.8143   55.1382   64.8554 H   0  0  0  0  0  0  0  0  0  0  0  0
  -28.5290   56.8932   64.7992 H   0  0  0  0  0  0  0  0  0  0  0  0
  -26.5391   54.7922   64.0964 H   0  0  0  0  0  0  0  0  0  0  0  0
  -26.6122   55.7393   65.6043 H   0  0  0  0  0  0  0  0  0  0  0  0
  -24.9091   56.5741   64.1107 H   0  0  0  0  0  0  0  0  0  0  0  0
  -26.2127   57.7405   64.3965 H   0  0  0  0  0  0  0  0  0  0  0  0
  -25.8854   56.0546   61.9513 H   0  0  0  0  0  0  0  0  0  0  0  0
  -25.5418   57.7633   62.0751 H   0  0  0  0  0  0  0  0  0  0  0  0
  -27.1816   57.1868   62.2531 H   0  0  0  0  0  0  0  0  0  0  0  0
  -34.3149   69.4618   63.3994 H   0  0  0  0  0  0  0  0  0  0  0  0
  -31.7117   68.4079   64.4976 H   0  0  0  0  0  0  0  0  0  0  0  0
  -33.5521   70.4836   65.6995 H   0  0  0  0  0  0  0  0  0  0  0  0
  -31.9240   72.0982   65.1994 H   0  0  0  0  0  0  0  0  0  0  0  0
  -33.5275   71.7227   63.4965 H   0  0  0  0  0  0  0  0  0  0  0  0
  -30.8430   71.9650   62.1951 H   0  0  0  0  0  0  0  0  0  0  0  0
  -32.3898   72.4251   61.4860 H   0  0  0  0  0  0  0  0  0  0  0  0
  1  4  1  0  0  0  0
  1 31  1  0  0  0  0
  1 62  1  0  0  0  0
  2  3  1  0  0  0  0
  2  4  1  0  0  0  0
  2 63  1  0  0  0  0
  2 64  1  0  0  0  0
  3 55  1  0  0  0  0
  4  6  1  0  0  0  0
  4 65  1  6  0  0  0
  5  6  1  0  0  0  0
  5 66  1  0  0  0  0
  6  8  1  0  0  0  0
  6 67  1  1  0  0  0
  7 31  2  0  0  0  0
  8 10  2  0  0  0  0
  8 68  1  0  0  0  0
  9 56  1  0  0  0  0
  9 69  1  0  0  0  0
 10 12  1  0  0  0  0
 10 70  1  0  0  0  0
 11 57  1  0  0  0  0
 11 61  1  0  0  0  0
 12 14  1  0  0  0  0
 12 71  1  0  0  0  0
 12 72  1  0  0  0  0
 13 58  1  0  0  0  0
 13 73  1  0  0  0  0
 14 16  1  0  0  0  0
 14 74  1  0  0  0  0
 14 75  1  0  0  0  0
 15 55  1  0  0  0  0
 15 59  1  0  0  0  0
 16 18  1  0  0  0  0
 16 76  1  0  0  0  0
 16 77  1  0  0  0  0
 17 60  1  0  0  0  0
 17 78  1  0  0  0  0
 18 20  1  0  0  0  0
 18 79  1  0  0  0  0
 18 80  1  0  0  0  0
 19 61  1  0  0  0  0
 19 81  1  0  0  0  0
 20 22  1  0  0  0  0
 20 82  1  0  0  0  0
 20 83  1  0  0  0  0
 21 61  1  0  0  0  0
 22 24  1  0  0  0  0
 22 84  1  0  0  0  0
 22 85  1  0  0  0  0
 23 61  1  0  0  0  0
 23 86  1  0  0  0  0
 24 25  1  0  0  0  0
 24 87  1  0  0  0  0
 24 88  1  0  0  0  0
 25 26  1  0  0  0  0
 25 89  1  0  0  0  0
 25 90  1  0  0  0  0
 26 27  1  0  0  0  0
 26 91  1  0  0  0  0
 26 92  1  0  0  0  0
 27 28  1  0  0  0  0
 27 93  1  0  0  0  0
 27 94  1  0  0  0  0
 28 29  1  0  0  0  0
 28 95  1  0  0  0  0
 28 96  1  0  0  0  0
 29 30  1  0  0  0  0
 29 97  1  0  0  0  0
 29 98  1  0  0  0  0
 30 99  1  0  0  0  0
 30100  1  0  0  0  0
 30101  1  0  0  0  0
 31 32  1  0  0  0  0
 32 33  1  0  0  0  0
 32102  1  0  0  0  0
 32103  1  0  0  0  0
 33 34  1  0  0  0  0
 33104  1  0  0  0  0
 33105  1  0  0  0  0
 34 35  1  0  0  0  0
 34106  1  0  0  0  0
 34107  1  0  0  0  0
 35 36  1  0  0  0  0
 35108  1  0  0  0  0
 35109  1  0  0  0  0
 36 37  1  0  0  0  0
 36110  1  0  0  0  0
 36111  1  0  0  0  0
 37 38  1  0  0  0  0
 37112  1  0  0  0  0
 37113  1  0  0  0  0
 38 39  1  0  0  0  0
 38114  1  0  0  0  0
 38115  1  0  0  0  0
 39 40  1  0  0  0  0
 39116  1  0  0  0  0
 39117  1  0  0  0  0
 40 41  1  0  0  0  0
 40118  1  0  0  0  0
 40119  1  0  0  0  0
 41 42  1  0  0  0  0
 41120  1  0  0  0  0
 41121  1  0  0  0  0
 42 43  1  0  0  0  0
 42122  1  0  0  0  0
 42123  1  0  0  0  0
 43 44  1  0  0  0  0
 43124  1  0  0  0  0
 43125  1  0  0  0  0
 44 45  1  0  0  0  0
 44126  1  0  0  0  0
 44127  1  0  0  0  0
 45 46  2  0  0  0  0
 45128  1  0  0  0  0
 46 47  1  0  0  0  0
 46129  1  0  0  0  0
 47 48  1  0  0  0  0
 47130  1  0  0  0  0
 47131  1  0  0  0  0
 48 49  1  0  0  0  0
 48132  1  0  0  0  0
 48133  1  0  0  0  0
 49 50  1  0  0  0  0
 49134  1  0  0  0  0
 49135  1  0  0  0  0
 50 51  1  0  0  0  0
 50136  1  0  0  0  0
 50137  1  0  0  0  0
 51 52  1  0  0  0  0
 51138  1  0  0  0  0
 51139  1  0  0  0  0
 52 53  1  0  0  0  0
 52140  1  0  0  0  0
 52141  1  0  0  0  0
 53 54  1  0  0  0  0
 53142  1  0  0  0  0
 53143  1  0  0  0  0
 54144  1  0  0  0  0
 54145  1  0  0  0  0
 54146  1  0  0  0  0
 55 56  1  0  0  0  0
 55147  1  1  0  0  0
 56 57  1  0  0  0  0
 56148  1  6  0  0  0
 57 58  1  0  0  0  0
 57149  1  1  0  0  0
 58 59  1  0  0  0  0
 58150  1  1  0  0  0
 59 60  1  0  0  0  0
 59151  1  1  0  0  0
 60152  1  0  0  0  0
 60153  1  0  0  0  0
M  CHG  1  21  -1
M  END
$$$$