/media/chris/experiments/cd1a-new-docking/inputs/ligands/7ryn_ligand.pdb
 OpenBabel07032312553D

153153  0  0  1  0  0  0  0  0999 V2000
  -33.0340   65.1330   62.2120 N   0  0  0  0  0  0  0  0  0  0  0  0
  -32.0220   67.3480   62.3220 C   0  0  0  0  0  0  0  0  0  0  0  0
  -33.3204   67.9104   62.5424 O   0  0  0  0  0  0  0  0  0  0  0  0
  -32.1830   66.0840   61.5030 C   0  0  1  0  0  0  0  0  0  0  0  0
  -29.9992   66.3678   60.5104 O   0  0  0  0  0  0  0  0  0  0  0  0
  -30.8310   65.4230   61.1900 C   0  0  2  0  0  0  0  0  0  0  0  0
  -32.4714   65.8137   64.2827 O   0  0  0  0  0  0  0  0  0  0  0  0
  -31.0055   64.1786   60.3744 C   0  0  0  0  0  0  0  0  0  0  0  0
  -33.4828   67.8547   65.3373 O   0  0  0  0  0  0  0  0  0  0  0  0
  -30.6246   62.9714   60.7426 C   0  0  0  0  0  0  0  0  0  0  0  0
  -31.7851   69.7369   66.6130 O   0  0  0  0  0  0  0  0  0  0  0  0
  -30.8265   61.7465   59.9122 C   0  0  0  0  0  0  0  0  0  0  0  0
  -30.5036   70.8340   64.4596 O   0  0  0  0  0  0  0  0  0  0  0  0
  -30.2908   60.5036   60.6258 C   0  0  0  0  0  0  0  0  0  0  0  0
  -32.5700   70.0926   62.6001 O   0  0  0  0  0  0  0  0  0  0  0  0
  -30.4452   59.2153   59.8338 C   0  0  0  0  0  0  0  0  0  0  0  0
  -31.7323   73.6181   62.9917 O   0  0  0  0  0  0  0  0  0  0  0  0
  -29.7160   59.2101   58.5011 C   0  0  0  0  0  0  0  0  0  0  0  0
  -30.6849   70.2420   68.6965 O   0  0  0  0  0  0  0  0  0  0  0  0
  -29.8889   57.9240   57.7062 C   0  0  0  0  0  0  0  0  0  0  0  0
  -32.6697   71.5855   67.9409 O   0  5  0  0  0  0  0  0  0  0  0  0
  -29.1422   57.9199   56.3812 C   0  0  0  0  0  0  0  0  0  0  0  0
  -30.5576   71.7614   66.8710 O   0  0  0  0  0  0  0  0  0  0  0  0
  -27.6385   58.0745   56.5258 C   0  0  0  0  0  0  0  0  0  0  0  0
  -26.9777   56.9690   57.3281 C   0  0  0  0  0  0  0  0  0  0  0  0
  -25.4760   57.1359   57.4851 C   0  0  0  0  0  0  0  0  0  0  0  0
  -24.7414   57.1767   56.1580 C   0  0  0  0  0  0  0  0  0  0  0  0
  -23.2370   57.3257   56.2792 C   0  0  0  0  0  0  0  0  0  0  0  0
  -22.8340   58.5912   57.0105 C   0  0  0  0  0  0  0  0  0  0  0  0
  -21.3309   58.7470   57.1157 C   0  0  0  0  0  0  0  0  0  0  0  0
  -33.1122   65.0716   63.5440 C   0  0  0  0  0  0  0  0  0  0  0  0
  -34.0520   64.0283   64.0950 C   0  0  0  0  0  0  0  0  0  0  0  0
  -35.4642   64.5621   64.2982 C   0  0  0  0  0  0  0  0  0  0  0  0
  -36.4095   63.5175   64.8695 C   0  0  0  0  0  0  0  0  0  0  0  0
  -37.8313   64.0159   65.0677 C   0  0  0  0  0  0  0  0  0  0  0  0
  -38.7720   62.9747   65.6553 C   0  0  0  0  0  0  0  0  0  0  0  0
  -38.9052   61.7133   64.8116 C   0  0  0  0  0  0  0  0  0  0  0  0
  -39.4216   61.9663   63.4010 C   0  0  0  0  0  0  0  0  0  0  0  0
  -40.7966   62.6264   63.3385 C   0  0  0  0  0  0  0  0  0  0  0  0
  -41.3108   62.8593   61.9187 C   0  0  0  0  0  0  0  0  0  0  0  0
  -41.4816   61.5887   61.0865 C   0  0  0  0  0  0  0  0  0  0  0  0
  -40.1865   60.7947   60.9144 C   0  0  0  0  0  0  0  0  0  0  0  0
  -39.0463   61.5551   60.2373 C   0  0  0  0  0  0  0  0  0  0  0  0
  -37.7563   60.7517   60.0513 C   0  0  0  0  0  0  0  0  0  0  0  0
  -37.9463   59.5335   59.1946 C   0  0  0  0  0  0  0  0  0  0  0  0
  -37.0356   58.9829   58.4115 C   0  0  0  0  0  0  0  0  0  0  0  0
  -35.6283   59.4624   58.2230 C   0  0  0  0  0  0  0  0  0  0  0  0
  -35.0587   59.1659   56.8341 C   0  0  0  0  0  0  0  0  0  0  0  0
  -35.8440   59.8250   55.7080 C   0  0  0  0  0  0  0  0  0  0  0  0
  -35.8730   61.3464   55.8006 C   0  0  0  0  0  0  0  0  0  0  0  0
  -34.5017   62.0090   55.7362 C   0  0  0  0  0  0  0  0  0  0  0  0
  -34.5483   63.5265   55.8472 C   0  0  0  0  0  0  0  0  0  0  0  0
  -33.1868   64.1985   55.7670 C   0  0  0  0  0  0  0  0  0  0  0  0
  -32.2373   63.7377   56.8542 C   0  0  0  0  0  0  0  0  0  0  0  0
  -33.3156   69.0988   63.2783 C   0  0  2  0  0  0  0  0  0  0  0  0
  -32.6936   68.8090   64.6382 C   0  0  1  0  0  0  0  0  0  0  0  0
  -32.5875   70.0974   65.4443 C   0  0  2  0  0  0  0  0  0  0  0  0
  -31.8713   71.1807   64.6514 C   0  0  2  0  0  0  0  0  0  0  0  0
  -32.5450   71.3514   63.2921 C   0  0  1  0  0  0  0  0  0  0  0  0
  -31.8289   72.3311   62.3923 C   0  0  0  0  0  0  0  0  0  0  0  0
  -31.4824   70.8551   67.7000 S   0  0  0  0  0  0  0  0  0  0  0  0
  -33.5772   64.5058   61.6821 H   0  0  0  0  0  0  0  0  0  0  0  0
  -31.5648   67.1148   63.2609 H   0  0  0  0  0  0  0  0  0  0  0  0
  -31.4012   68.0473   61.8019 H   0  0  0  0  0  0  0  0  0  0  0  0
  -32.6374   66.3625   60.5752 H   0  0  0  0  0  0  0  0  0  0  0  0
  -29.9008   67.1635   61.0564 H   0  0  0  0  0  0  0  0  0  0  0  0
  -30.3647   65.1308   62.1077 H   0  0  0  0  0  0  0  0  0  0  0  0
  -31.4592   64.2738   59.4524 H   0  0  0  0  0  0  0  0  0  0  0  0
  -33.5430   67.0398   64.8146 H   0  0  0  0  0  0  0  0  0  0  0  0
  -30.1599   62.8667   61.6581 H   0  0  0  0  0  0  0  0  0  0  0  0
  -30.3104   61.8655   58.9825 H   0  0  0  0  0  0  0  0  0  0  0  0
  -31.8756   61.6175   59.7458 H   0  0  0  0  0  0  0  0  0  0  0  0
  -30.0736   70.7251   65.3222 H   0  0  0  0  0  0  0  0  0  0  0  0
  -30.8178   60.3942   61.5506 H   0  0  0  0  0  0  0  0  0  0  0  0
  -29.2406   60.6563   60.7628 H   0  0  0  0  0  0  0  0  0  0  0  0
  -31.4871   59.0600   59.6464 H   0  0  0  0  0  0  0  0  0  0  0  0
  -30.0088   58.4377   60.4252 H   0  0  0  0  0  0  0  0  0  0  0  0
  -31.2687   74.2211   62.3898 H   0  0  0  0  0  0  0  0  0  0  0  0
  -28.6721   59.3523   58.6882 H   0  0  0  0  0  0  0  0  0  0  0  0
  -30.1401   59.9970   57.9131 H   0  0  0  0  0  0  0  0  0  0  0  0
  -31.2382   69.6603   69.2409 H   0  0  0  0  0  0  0  0  0  0  0  0
  -30.9313   57.7874   57.5071 H   0  0  0  0  0  0  0  0  0  0  0  0
  -29.4796   57.1326   58.2986 H   0  0  0  0  0  0  0  0  0  0  0  0
  -29.5089   58.7289   55.7846 H   0  0  0  0  0  0  0  0  0  0  0  0
  -29.3158   56.9662   55.9282 H   0  0  0  0  0  0  0  0  0  0  0  0
  -29.7286   71.2935   66.6845 H   0  0  0  0  0  0  0  0  0  0  0  0
  -27.4416   59.0069   57.0124 H   0  0  0  0  0  0  0  0  0  0  0  0
  -27.2267   58.0290   55.5393 H   0  0  0  0  0  0  0  0  0  0  0  0
  -27.1635   56.0377   56.8351 H   0  0  0  0  0  0  0  0  0  0  0  0
  -27.3986   57.0045   58.3112 H   0  0  0  0  0  0  0  0  0  0  0  0
  -25.0997   56.3141   58.0578 H   0  0  0  0  0  0  0  0  0  0  0  0
  -25.3076   58.0733   57.9728 H   0  0  0  0  0  0  0  0  0  0  0  0
  -25.1154   58.0054   55.5937 H   0  0  0  0  0  0  0  0  0  0  0  0
  -24.9178   56.2347   55.6821 H   0  0  0  0  0  0  0  0  0  0  0  0
  -22.8144   57.3484   55.2964 H   0  0  0  0  0  0  0  0  0  0  0  0
  -22.8733   56.4940   56.8458 H   0  0  0  0  0  0  0  0  0  0  0  0
  -23.2459   58.5630   57.9976 H   0  0  0  0  0  0  0  0  0  0  0  0
  -23.2086   59.4230   56.4513 H   0  0  0  0  0  0  0  0  0  0  0  0
  -20.9255   57.9275   57.6715 H   0  0  0  0  0  0  0  0  0  0  0  0
  -21.1016   59.6650   57.6153 H   0  0  0  0  0  0  0  0  0  0  0  0
  -20.9040   58.7585   56.1346 H   0  0  0  0  0  0  0  0  0  0  0  0
  -33.6744   63.6901   65.0373 H   0  0  0  0  0  0  0  0  0  0  0  0
  -34.1056   63.2315   63.3829 H   0  0  0  0  0  0  0  0  0  0  0  0
  -35.8458   64.8891   63.3535 H   0  0  0  0  0  0  0  0  0  0  0  0
  -35.4077   65.3663   65.0018 H   0  0  0  0  0  0  0  0  0  0  0  0
  -36.0283   63.2009   65.8178 H   0  0  0  0  0  0  0  0  0  0  0  0
  -36.4567   62.7194   64.1583 H   0  0  0  0  0  0  0  0  0  0  0  0
  -38.2172   64.3209   64.1175 H   0  0  0  0  0  0  0  0  0  0  0  0
  -37.7832   64.8227   65.7690 H   0  0  0  0  0  0  0  0  0  0  0  0
  -39.7416   63.4159   65.7561 H   0  0  0  0  0  0  0  0  0  0  0  0
  -38.3555   62.6762   66.5946 H   0  0  0  0  0  0  0  0  0  0  0  0
  -39.5832   61.0483   65.3044 H   0  0  0  0  0  0  0  0  0  0  0  0
  -37.9231   61.3000   64.7135 H   0  0  0  0  0  0  0  0  0  0  0  0
  -39.4787   61.0265   62.8926 H   0  0  0  0  0  0  0  0  0  0  0  0
  -38.7357   62.6486   62.9440 H   0  0  0  0  0  0  0  0  0  0  0  0
  -40.7383   63.5727   63.8345 H   0  0  0  0  0  0  0  0  0  0  0  0
  -41.4836   61.9552   63.8101 H   0  0  0  0  0  0  0  0  0  0  0  0
  -40.6172   63.4983   61.4134 H   0  0  0  0  0  0  0  0  0  0  0  0
  -42.2851   63.2906   62.0165 H   0  0  0  0  0  0  0  0  0  0  0  0
  -41.8414   61.8643   60.1172 H   0  0  0  0  0  0  0  0  0  0  0  0
  -42.1700   60.9590   61.6104 H   0  0  0  0  0  0  0  0  0  0  0  0
  -40.4041   59.9289   60.3246 H   0  0  0  0  0  0  0  0  0  0  0  0
  -39.8455   60.5623   61.9017 H   0  0  0  0  0  0  0  0  0  0  0  0
  -38.8198   62.4142   60.8335 H   0  0  0  0  0  0  0  0  0  0  0  0
  -39.3913   61.8002   59.2546 H   0  0  0  0  0  0  0  0  0  0  0  0
  -37.4054   60.4415   61.0134 H   0  0  0  0  0  0  0  0  0  0  0  0
  -37.0511   61.3861   59.5563 H   0  0  0  0  0  0  0  0  0  0  0  0
  -38.8749   59.0841   59.2199 H   0  0  0  0  0  0  0  0  0  0  0  0
  -37.3198   58.1449   57.8803 H   0  0  0  0  0  0  0  0  0  0  0  0
  -35.0079   58.9841   58.9519 H   0  0  0  0  0  0  0  0  0  0  0  0
  -35.6427   60.5265   58.3347 H   0  0  0  0  0  0  0  0  0  0  0  0
  -35.0699   58.1069   56.6814 H   0  0  0  0  0  0  0  0  0  0  0  0
  -34.0671   59.5668   56.8059 H   0  0  0  0  0  0  0  0  0  0  0  0
  -36.8508   59.4639   55.7399 H   0  0  0  0  0  0  0  0  0  0  0  0
  -35.3533   59.5734   54.7910 H   0  0  0  0  0  0  0  0  0  0  0  0
  -36.3314   61.6162   56.7291 H   0  0  0  0  0  0  0  0  0  0  0  0
  -36.4194   61.6932   54.9485 H   0  0  0  0  0  0  0  0  0  0  0  0
  -34.0464   61.7527   54.8024 H   0  0  0  0  0  0  0  0  0  0  0  0
  -33.9424   61.6516   56.5755 H   0  0  0  0  0  0  0  0  0  0  0  0
  -34.9935   63.7809   56.7863 H   0  0  0  0  0  0  0  0  0  0  0  0
  -35.1154   63.8791   55.0111 H   0  0  0  0  0  0  0  0  0  0  0  0
  -33.3221   65.2560   55.8575 H   0  0  0  0  0  0  0  0  0  0  0  0
  -32.7519   63.9318   54.8264 H   0  0  0  0  0  0  0  0  0  0  0  0
  -32.6426   63.9893   57.8119 H   0  0  0  0  0  0  0  0  0  0  0  0
  -31.2907   64.2208   56.7294 H   0  0  0  0  0  0  0  0  0  0  0  0
  -32.1079   62.6775   56.7890 H   0  0  0  0  0  0  0  0  0  0  0  0
  -34.3149   69.4618   63.3994 H   0  0  0  0  0  0  0  0  0  0  0  0
  -31.7117   68.4079   64.4976 H   0  0  0  0  0  0  0  0  0  0  0  0
  -33.5521   70.4836   65.6995 H   0  0  0  0  0  0  0  0  0  0  0  0
  -31.9240   72.0982   65.1994 H   0  0  0  0  0  0  0  0  0  0  0  0
  -33.5275   71.7227   63.4965 H   0  0  0  0  0  0  0  0  0  0  0  0
  -30.8430   71.9650   62.1951 H   0  0  0  0  0  0  0  0  0  0  0  0
  -32.3898   72.4251   61.4860 H   0  0  0  0  0  0  0  0  0  0  0  0
  1  4  1  0  0  0  0
  1 31  1  0  0  0  0
  1 62  1  0  0  0  0
  2  3  1  0  0  0  0
  2  4  1  0  0  0  0
  2 63  1  0  0  0  0
  2 64  1  0  0  0  0
  3 55  1  0  0  0  0
  4  6  1  0  0  0  0
  4 65  1  6  0  0  0
  5  6  1  0  0  0  0
  5 66  1  0  0  0  0
  6  8  1  0  0  0  0
  6 67  1  1  0  0  0
  7 31  2  0  0  0  0
  8 10  2  0  0  0  0
  8 68  1  0  0  0  0
  9 56  1  0  0  0  0
  9 69  1  0  0  0  0
 10 12  1  0  0  0  0
 10 70  1  0  0  0  0
 11 57  1  0  0  0  0
 11 61  1  0  0  0  0
 12 14  1  0  0  0  0
 12 71  1  0  0  0  0
 12 72  1  0  0  0  0
 13 58  1  0  0  0  0
 13 73  1  0  0  0  0
 14 16  1  0  0  0  0
 14 74  1  0  0  0  0
 14 75  1  0  0  0  0
 15 55  1  0  0  0  0
 15 59  1  0  0  0  0
 16 18  1  0  0  0  0
 16 76  1  0  0  0  0
 16 77  1  0  0  0  0
 17 60  1  0  0  0  0
 17 78  1  0  0  0  0
 18 20  1  0  0  0  0
 18 79  1  0  0  0  0
 18 80  1  0  0  0  0
 19 61  1  0  0  0  0
 19 81  1  0  0  0  0
 20 22  1  0  0  0  0
 20 82  1  0  0  0  0
 20 83  1  0  0  0  0
 21 61  1  0  0  0  0
 22 24  1  0  0  0  0
 22 84  1  0  0  0  0
 22 85  1  0  0  0  0
 23 61  1  0  0  0  0
 23 86  1  0  0  0  0
 24 25  1  0  0  0  0
 24 87  1  0  0  0  0
 24 88  1  0  0  0  0
 25 26  1  0  0  0  0
 25 89  1  0  0  0  0
 25 90  1  0  0  0  0
 26 27  1  0  0  0  0
 26 91  1  0  0  0  0
 26 92  1  0  0  0  0
 27 28  1  0  0  0  0
 27 93  1  0  0  0  0
 27 94  1  0  0  0  0
 28 29  1  0  0  0  0
 28 95  1  0  0  0  0
 28 96  1  0  0  0  0
 29 30  1  0  0  0  0
 29 97  1  0  0  0  0
 29 98  1  0  0  0  0
 30 99  1  0  0  0  0
 30100  1  0  0  0  0
 30101  1  0  0  0  0
 31 32  1  0  0  0  0
 32 33  1  0  0  0  0
 32102  1  0  0  0  0
 32103  1  0  0  0  0
 33 34  1  0  0  0  0
 33104  1  0  0  0  0
 33105  1  0  0  0  0
 34 35  1  0  0  0  0
 34106  1  0  0  0  0
 34107  1  0  0  0  0
 35 36  1  0  0  0  0
 35108  1  0  0  0  0
 35109  1  0  0  0  0
 36 37  1  0  0  0  0
 36110  1  0  0  0  0
 36111  1  0  0  0  0
 37 38  1  0  0  0  0
 37112  1  0  0  0  0
 37113  1  0  0  0  0
 38 39  1  0  0  0  0
 38114  1  0  0  0  0
 38115  1  0  0  0  0
 39 40  1  0  0  0  0
 39116  1  0  0  0  0
 39117  1  0  0  0  0
 40 41  1  0  0  0  0
 40118  1  0  0  0  0
 40119  1  0  0  0  0
 41 42  1  0  0  0  0
 41120  1  0  0  0  0
 41121  1  0  0  0  0
 42 43  1  0  0  0  0
 42122  1  0  0  0  0
 42123  1  0  0  0  0
 43 44  1  0  0  0  0
 43124  1  0  0  0  0
 43125  1  0  0  0  0
 44 45  1  0  0  0  0
 44126  1  0  0  0  0
 44127  1  0  0  0  0
 45 46  2  0  0  0  0
 45128  1  0  0  0  0
 46 47  1  0  0  0  0
 46129  1  0  0  0  0
 47 48  1  0  0  0  0
 47130  1  0  0  0  0
 47131  1  0  0  0  0
 48 49  1  0  0  0  0
 48132  1  0  0  0  0
 48133  1  0  0  0  0
 49 50  1  0  0  0  0
 49134  1  0  0  0  0
 49135  1  0  0  0  0
 50 51  1  0  0  0  0
 50136  1  0  0  0  0
 50137  1  0  0  0  0
 51 52  1  0  0  0  0
 51138  1  0  0  0  0
 51139  1  0  0  0  0
 52 53  1  0  0  0  0
 52140  1  0  0  0  0
 52141  1  0  0  0  0
 53 54  1  0  0  0  0
 53142  1  0  0  0  0
 53143  1  0  0  0  0
 54144  1  0  0  0  0
 54145  1  0  0  0  0
 54146  1  0  0  0  0
 55 56  1  0  0  0  0
 55147  1  1  0  0  0
 56 57  1  0  0  0  0
 56148  1  6  0  0  0
 57 58  1  0  0  0  0
 57149  1  1  0  0  0
 58 59  1  0  0  0  0
 58150  1  1  0  0  0
 59 60  1  0  0  0  0
 59151  1  1  0  0  0
 60152  1  0  0  0  0
 60153  1  0  0  0  0
M  CHG  1  21  -1
M  END
$$$$