/media/chris/experiments/cd1a-new-docking/inputs/ligands/7ryn_ligand.pdb
 OpenBabel07032312553D

153153  0  0  1  0  0  0  0  0999 V2000
  -33.0340   65.1330   62.2120 N   0  0  0  0  0  0  0  0  0  0  0  0
  -32.0220   67.3480   62.3220 C   0  0  0  0  0  0  0  0  0  0  0  0
  -33.3204   67.9104   62.5424 O   0  0  0  0  0  0  0  0  0  0  0  0
  -32.1830   66.0840   61.5030 C   0  0  1  0  0  0  0  0  0  0  0  0
  -29.9992   66.3678   60.5104 O   0  0  0  0  0  0  0  0  0  0  0  0
  -30.8310   65.4230   61.1900 C   0  0  2  0  0  0  0  0  0  0  0  0
  -31.3638   64.0971   63.3098 O   0  0  0  0  0  0  0  0  0  0  0  0
  -31.0055   64.1786   60.3744 C   0  0  0  0  0  0  0  0  0  0  0  0
  -36.1193   67.8488   62.4832 O   0  0  0  0  0  0  0  0  0  0  0  0
  -32.0597   63.3881   60.4139 C   0  0  0  0  0  0  0  0  0  0  0  0
  -37.2741   70.0030   61.0417 O   0  0  0  0  0  0  0  0  0  0  0  0
  -32.2106   62.1609   59.5761 C   0  0  0  0  0  0  0  0  0  0  0  0
  -35.0443   71.4283   60.3491 O   0  0  0  0  0  0  0  0  0  0  0  0
  -33.4423   62.2587   58.6736 C   0  0  0  0  0  0  0  0  0  0  0  0
  -33.2780   69.1723   60.6099 O   0  0  0  0  0  0  0  0  0  0  0  0
  -33.4063   63.4206   57.6942 C   0  0  0  0  0  0  0  0  0  0  0  0
  -31.7443   69.7638   58.3378 O   0  0  0  0  0  0  0  0  0  0  0  0
  -32.2440   63.3782   56.7170 C   0  0  0  0  0  0  0  0  0  0  0  0
  -39.3030   71.2740   60.7671 O   0  0  0  0  0  0  0  0  0  0  0  0
  -32.2314   62.1463   55.8236 C   0  0  0  0  0  0  0  0  0  0  0  0
  -38.5637   69.6490   58.9984 O   0  5  0  0  0  0  0  0  0  0  0  0
  -31.0556   62.1027   54.8598 C   0  0  0  0  0  0  0  0  0  0  0  0
  -37.4222   71.6966   59.3737 O   0  0  0  0  0  0  0  0  0  0  0  0
  -31.0505   60.8826   53.9557 C   0  0  0  0  0  0  0  0  0  0  0  0
  -32.2698   60.7723   53.0593 C   0  0  0  0  0  0  0  0  0  0  0  0
  -33.5852   60.7003   53.8157 C   0  0  0  0  0  0  0  0  0  0  0  0
  -34.7894   60.5734   52.9012 C   0  0  0  0  0  0  0  0  0  0  0  0
  -34.9513   61.7156   51.9166 C   0  0  0  0  0  0  0  0  0  0  0  0
  -36.1749   61.5564   51.0358 C   0  0  0  0  0  0  0  0  0  0  0  0
  -36.3257   62.6892   50.0415 C   0  0  0  0  0  0  0  0  0  0  0  0
  -32.5596   64.2152   63.0586 C   0  0  0  0  0  0  0  0  0  0  0  0
  -33.5934   63.3253   63.7025 C   0  0  0  0  0  0  0  0  0  0  0  0
  -34.8154   63.1137   62.8180 C   0  0  0  0  0  0  0  0  0  0  0  0
  -34.4732   62.4502   61.4937 C   0  0  0  0  0  0  0  0  0  0  0  0
  -33.8532   61.0703   61.6379 C   0  0  0  0  0  0  0  0  0  0  0  0
  -34.7518   60.0623   62.3387 C   0  0  0  0  0  0  0  0  0  0  0  0
  -34.1271   58.6823   62.5003 C   0  0  0  0  0  0  0  0  0  0  0  0
  -33.7392   58.0226   61.1833 C   0  0  0  0  0  0  0  0  0  0  0  0
  -33.1272   56.6316   61.3274 C   0  0  0  0  0  0  0  0  0  0  0  0
  -31.8539   56.5966   62.1710 C   0  0  0  0  0  0  0  0  0  0  0  0
  -31.2197   55.2128   62.3104 C   0  0  0  0  0  0  0  0  0  0  0  0
  -30.7959   54.5999   60.9755 C   0  0  0  0  0  0  0  0  0  0  0  0
  -29.7525   55.4014   60.1975 C   0  0  0  0  0  0  0  0  0  0  0  0
  -28.4185   55.5987   60.9225 C   0  0  0  0  0  0  0  0  0  0  0  0
  -27.4349   56.4053   60.1250 C   0  0  0  0  0  0  0  0  0  0  0  0
  -26.2057   56.7199   60.4938 C   0  0  0  0  0  0  0  0  0  0  0  0
  -25.5449   56.3321   61.7818 C   0  0  0  0  0  0  0  0  0  0  0  0
  -25.1082   57.5267   62.6325 C   0  0  0  0  0  0  0  0  0  0  0  0
  -24.1207   58.4429   61.9221 C   0  0  0  0  0  0  0  0  0  0  0  0
  -24.6785   59.0581   60.6435 C   0  0  0  0  0  0  0  0  0  0  0  0
  -25.9134   59.9281   60.8481 C   0  0  0  0  0  0  0  0  0  0  0  0
  -26.4664   60.5201   59.5594 C   0  0  0  0  0  0  0  0  0  0  0  0
  -25.4812   61.3988   58.8052 C   0  0  0  0  0  0  0  0  0  0  0  0
  -24.9981   62.5791   59.6233 C   0  0  0  0  0  0  0  0  0  0  0  0
  -34.0138   68.2339   61.3725 C   0  0  2  0  0  0  0  0  0  0  0  0
  -35.3627   68.8190   61.7702 C   0  0  1  0  0  0  0  0  0  0  0  0
  -36.1194   69.2678   60.5264 C   0  0  2  0  0  0  0  0  0  0  0  0
  -35.2668   70.1951   59.6728 C   0  0  2  0  0  0  0  0  0  0  0  0
  -33.9243   69.5307   59.3780 C   0  0  1  0  0  0  0  0  0  0  0  0
  -32.9686   70.4285   58.6276 C   0  0  0  0  0  0  0  0  0  0  0  0
  -38.3112   70.6118   60.0036 S   0  0  0  0  0  0  0  0  0  0  0  0
  -34.0058   65.1700   62.0585 H   0  0  0  0  0  0  0  0  0  0  0  0
  -31.5648   67.1148   63.2609 H   0  0  0  0  0  0  0  0  0  0  0  0
  -31.4012   68.0473   61.8019 H   0  0  0  0  0  0  0  0  0  0  0  0
  -32.6374   66.3625   60.5752 H   0  0  0  0  0  0  0  0  0  0  0  0
  -29.9008   67.1635   61.0564 H   0  0  0  0  0  0  0  0  0  0  0  0
  -30.3647   65.1308   62.1077 H   0  0  0  0  0  0  0  0  0  0  0  0
  -30.2407   63.9200   59.7315 H   0  0  0  0  0  0  0  0  0  0  0  0
  -35.6277   67.5712   63.2720 H   0  0  0  0  0  0  0  0  0  0  0  0
  -32.8255   63.6315   61.0615 H   0  0  0  0  0  0  0  0  0  0  0  0
  -32.3136   61.3105   60.2172 H   0  0  0  0  0  0  0  0  0  0  0  0
  -31.3429   62.0624   58.9578 H   0  0  0  0  0  0  0  0  0  0  0  0
  -35.8963   71.8521   60.5374 H   0  0  0  0  0  0  0  0  0  0  0  0
  -34.3058   62.3705   59.2954 H   0  0  0  0  0  0  0  0  0  0  0  0
  -33.4662   61.3635   58.0880 H   0  0  0  0  0  0  0  0  0  0  0  0
  -33.3399   64.3296   58.2548 H   0  0  0  0  0  0  0  0  0  0  0  0
  -34.3005   63.3570   57.1100 H   0  0  0  0  0  0  0  0  0  0  0  0
  -31.1553   70.3661   57.8571 H   0  0  0  0  0  0  0  0  0  0  0  0
  -31.3326   63.3969   57.2771 H   0  0  0  0  0  0  0  0  0  0  0  0
  -32.3494   64.2264   56.0733 H   0  0  0  0  0  0  0  0  0  0  0  0
  -39.8846   70.6172   61.1810 H   0  0  0  0  0  0  0  0  0  0  0  0
  -33.1366   62.1334   55.2531 H   0  0  0  0  0  0  0  0  0  0  0  0
  -32.1416   61.2950   56.4655 H   0  0  0  0  0  0  0  0  0  0  0  0
  -30.1508   62.1034   55.4310 H   0  0  0  0  0  0  0  0  0  0  0  0
  -31.1397   62.9606   54.2259 H   0  0  0  0  0  0  0  0  0  0  0  0
  -37.2263   72.3784   60.0353 H   0  0  0  0  0  0  0  0  0  0  0  0
  -31.0053   60.0084   54.5709 H   0  0  0  0  0  0  0  0  0  0  0  0
  -30.2012   60.9785   53.3119 H   0  0  0  0  0  0  0  0  0  0  0  0
  -32.1732   59.8868   52.4665 H   0  0  0  0  0  0  0  0  0  0  0  0
  -32.3008   61.6624   52.4662 H   0  0  0  0  0  0  0  0  0  0  0  0
  -33.6924   61.5911   54.3987 H   0  0  0  0  0  0  0  0  0  0  0  0
  -33.5546   59.8233   54.4278 H   0  0  0  0  0  0  0  0  0  0  0  0
  -35.6685   60.5289   53.5097 H   0  0  0  0  0  0  0  0  0  0  0  0
  -34.6395   59.6878   52.3198 H   0  0  0  0  0  0  0  0  0  0  0  0
  -34.0828   61.7561   51.2929 H   0  0  0  0  0  0  0  0  0  0  0  0
  -35.0734   62.6160   52.4817 H   0  0  0  0  0  0  0  0  0  0  0  0
  -37.0446   61.5284   51.6585 H   0  0  0  0  0  0  0  0  0  0  0  0
  -36.0595   60.6494   50.4800 H   0  0  0  0  0  0  0  0  0  0  0  0
  -36.4434   63.6129   50.5685 H   0  0  0  0  0  0  0  0  0  0  0  0
  -37.1864   62.5151   49.4303 H   0  0  0  0  0  0  0  0  0  0  0  0
  -35.4536   62.7397   49.4235 H   0  0  0  0  0  0  0  0  0  0  0  0
  -33.9085   63.7748   64.6209 H   0  0  0  0  0  0  0  0  0  0  0  0
  -33.1418   62.3692   63.8662 H   0  0  0  0  0  0  0  0  0  0  0  0
  -35.2627   64.0651   62.6188 H   0  0  0  0  0  0  0  0  0  0  0  0
  -35.4849   62.4637   63.3417 H   0  0  0  0  0  0  0  0  0  0  0  0
  -33.7811   63.0775   60.9716 H   0  0  0  0  0  0  0  0  0  0  0  0
  -35.3936   62.3231   60.9631 H   0  0  0  0  0  0  0  0  0  0  0  0
  -32.9485   61.1644   62.2015 H   0  0  0  0  0  0  0  0  0  0  0  0
  -33.6835   60.7005   60.6483 H   0  0  0  0  0  0  0  0  0  0  0  0
  -35.6512   59.9597   61.7683 H   0  0  0  0  0  0  0  0  0  0  0  0
  -34.9296   60.4389   63.3244 H   0  0  0  0  0  0  0  0  0  0  0  0
  -34.8314   58.0500   62.9994 H   0  0  0  0  0  0  0  0  0  0  0  0
  -33.2245   58.8135   63.0598 H   0  0  0  0  0  0  0  0  0  0  0  0
  -33.0270   58.6517   60.6915 H   0  0  0  0  0  0  0  0  0  0  0  0
  -34.6446   57.9002   60.6263 H   0  0  0  0  0  0  0  0  0  0  0  0
  -32.8934   56.2641   60.3500 H   0  0  0  0  0  0  0  0  0  0  0  0
  -33.8502   56.0265   61.8334 H   0  0  0  0  0  0  0  0  0  0  0  0
  -32.0929   56.9542   63.1507 H   0  0  0  0  0  0  0  0  0  0  0  0
  -31.1375   57.2083   61.6636 H   0  0  0  0  0  0  0  0  0  0  0  0
  -31.9300   54.5596   62.7729 H   0  0  0  0  0  0  0  0  0  0  0  0
  -30.3337   55.3300   62.8988 H   0  0  0  0  0  0  0  0  0  0  0  0
  -31.6675   54.5064   60.3619 H   0  0  0  0  0  0  0  0  0  0  0  0
  -30.3379   53.6617   61.2098 H   0  0  0  0  0  0  0  0  0  0  0  0
  -30.1632   56.3672   59.9887 H   0  0  0  0  0  0  0  0  0  0  0  0
  -29.5342   54.8344   59.3168 H   0  0  0  0  0  0  0  0  0  0  0  0
  -27.9917   54.6376   61.1200 H   0  0  0  0  0  0  0  0  0  0  0  0
  -28.6196   56.1375   61.8248 H   0  0  0  0  0  0  0  0  0  0  0  0
  -27.7481   56.7458   59.2026 H   0  0  0  0  0  0  0  0  0  0  0  0
  -25.6491   57.2851   59.8336 H   0  0  0  0  0  0  0  0  0  0  0  0
  -24.6798   55.7449   61.5544 H   0  0  0  0  0  0  0  0  0  0  0  0
  -26.2681   55.7887   62.3533 H   0  0  0  0  0  0  0  0  0  0  0  0
  -24.6476   57.1577   63.5251 H   0  0  0  0  0  0  0  0  0  0  0  0
  -25.9841   58.1050   62.8404 H   0  0  0  0  0  0  0  0  0  0  0  0
  -23.2492   57.8743   61.6729 H   0  0  0  0  0  0  0  0  0  0  0  0
  -23.9000   59.2487   62.5905 H   0  0  0  0  0  0  0  0  0  0  0  0
  -24.9363   58.2634   59.9750 H   0  0  0  0  0  0  0  0  0  0  0  0
  -23.9148   59.6993   60.2556 H   0  0  0  0  0  0  0  0  0  0  0  0
  -25.6548   60.7320   61.5052 H   0  0  0  0  0  0  0  0  0  0  0  0
  -26.6760   59.2971   61.2545 H   0  0  0  0  0  0  0  0  0  0  0  0
  -27.3250   61.1105   59.8025 H   0  0  0  0  0  0  0  0  0  0  0  0
  -26.6987   59.6964   58.9171 H   0  0  0  0  0  0  0  0  0  0  0  0
  -25.9596   61.7682   57.9223 H   0  0  0  0  0  0  0  0  0  0  0  0
  -24.6270   60.7977   58.5731 H   0  0  0  0  0  0  0  0  0  0  0  0
  -25.8300   63.2038   59.8738 H   0  0  0  0  0  0  0  0  0  0  0  0
  -24.2885   63.1417   59.0533 H   0  0  0  0  0  0  0  0  0  0  0  0
  -24.5348   62.2254   60.5206 H   0  0  0  0  0  0  0  0  0  0  0  0
  -34.1535   67.3589   60.7727 H   0  0  0  0  0  0  0  0  0  0  0  0
  -35.2053   69.6672   62.4032 H   0  0  0  0  0  0  0  0  0  0  0  0
  -36.3912   68.4373   59.9090 H   0  0  0  0  0  0  0  0  0  0  0  0
  -35.7838   70.3893   58.7563 H   0  0  0  0  0  0  0  0  0  0  0  0
  -34.1465   68.6773   58.7719 H   0  0  0  0  0  0  0  0  0  0  0  0
  -33.4255   70.7312   57.7086 H   0  0  0  0  0  0  0  0  0  0  0  0
  -32.7518   71.2760   59.2436 H   0  0  0  0  0  0  0  0  0  0  0  0
  1  4  1  0  0  0  0
  1 31  1  0  0  0  0
  1 62  1  0  0  0  0
  2  3  1  0  0  0  0
  2  4  1  0  0  0  0
  2 63  1  0  0  0  0
  2 64  1  0  0  0  0
  3 55  1  0  0  0  0
  4  6  1  0  0  0  0
  4 65  1  6  0  0  0
  5  6  1  0  0  0  0
  5 66  1  0  0  0  0
  6  8  1  0  0  0  0
  6 67  1  1  0  0  0
  7 31  2  0  0  0  0
  8 10  2  0  0  0  0
  8 68  1  0  0  0  0
  9 56  1  0  0  0  0
  9 69  1  0  0  0  0
 10 12  1  0  0  0  0
 10 70  1  0  0  0  0
 11 57  1  0  0  0  0
 11 61  1  0  0  0  0
 12 14  1  0  0  0  0
 12 71  1  0  0  0  0
 12 72  1  0  0  0  0
 13 58  1  0  0  0  0
 13 73  1  0  0  0  0
 14 16  1  0  0  0  0
 14 74  1  0  0  0  0
 14 75  1  0  0  0  0
 15 55  1  0  0  0  0
 15 59  1  0  0  0  0
 16 18  1  0  0  0  0
 16 76  1  0  0  0  0
 16 77  1  0  0  0  0
 17 60  1  0  0  0  0
 17 78  1  0  0  0  0
 18 20  1  0  0  0  0
 18 79  1  0  0  0  0
 18 80  1  0  0  0  0
 19 61  1  0  0  0  0
 19 81  1  0  0  0  0
 20 22  1  0  0  0  0
 20 82  1  0  0  0  0
 20 83  1  0  0  0  0
 21 61  1  0  0  0  0
 22 24  1  0  0  0  0
 22 84  1  0  0  0  0
 22 85  1  0  0  0  0
 23 61  1  0  0  0  0
 23 86  1  0  0  0  0
 24 25  1  0  0  0  0
 24 87  1  0  0  0  0
 24 88  1  0  0  0  0
 25 26  1  0  0  0  0
 25 89  1  0  0  0  0
 25 90  1  0  0  0  0
 26 27  1  0  0  0  0
 26 91  1  0  0  0  0
 26 92  1  0  0  0  0
 27 28  1  0  0  0  0
 27 93  1  0  0  0  0
 27 94  1  0  0  0  0
 28 29  1  0  0  0  0
 28 95  1  0  0  0  0
 28 96  1  0  0  0  0
 29 30  1  0  0  0  0
 29 97  1  0  0  0  0
 29 98  1  0  0  0  0
 30 99  1  0  0  0  0
 30100  1  0  0  0  0
 30101  1  0  0  0  0
 31 32  1  0  0  0  0
 32 33  1  0  0  0  0
 32102  1  0  0  0  0
 32103  1  0  0  0  0
 33 34  1  0  0  0  0
 33104  1  0  0  0  0
 33105  1  0  0  0  0
 34 35  1  0  0  0  0
 34106  1  0  0  0  0
 34107  1  0  0  0  0
 35 36  1  0  0  0  0
 35108  1  0  0  0  0
 35109  1  0  0  0  0
 36 37  1  0  0  0  0
 36110  1  0  0  0  0
 36111  1  0  0  0  0
 37 38  1  0  0  0  0
 37112  1  0  0  0  0
 37113  1  0  0  0  0
 38 39  1  0  0  0  0
 38114  1  0  0  0  0
 38115  1  0  0  0  0
 39 40  1  0  0  0  0
 39116  1  0  0  0  0
 39117  1  0  0  0  0
 40 41  1  0  0  0  0
 40118  1  0  0  0  0
 40119  1  0  0  0  0
 41 42  1  0  0  0  0
 41120  1  0  0  0  0
 41121  1  0  0  0  0
 42 43  1  0  0  0  0
 42122  1  0  0  0  0
 42123  1  0  0  0  0
 43 44  1  0  0  0  0
 43124  1  0  0  0  0
 43125  1  0  0  0  0
 44 45  1  0  0  0  0
 44126  1  0  0  0  0
 44127  1  0  0  0  0
 45 46  2  0  0  0  0
 45128  1  0  0  0  0
 46 47  1  0  0  0  0
 46129  1  0  0  0  0
 47 48  1  0  0  0  0
 47130  1  0  0  0  0
 47131  1  0  0  0  0
 48 49  1  0  0  0  0
 48132  1  0  0  0  0
 48133  1  0  0  0  0
 49 50  1  0  0  0  0
 49134  1  0  0  0  0
 49135  1  0  0  0  0
 50 51  1  0  0  0  0
 50136  1  0  0  0  0
 50137  1  0  0  0  0
 51 52  1  0  0  0  0
 51138  1  0  0  0  0
 51139  1  0  0  0  0
 52 53  1  0  0  0  0
 52140  1  0  0  0  0
 52141  1  0  0  0  0
 53 54  1  0  0  0  0
 53142  1  0  0  0  0
 53143  1  0  0  0  0
 54144  1  0  0  0  0
 54145  1  0  0  0  0
 54146  1  0  0  0  0
 55 56  1  0  0  0  0
 55147  1  6  0  0  0
 56 57  1  0  0  0  0
 56148  1  1  0  0  0
 57 58  1  0  0  0  0
 57149  1  6  0  0  0
 58 59  1  0  0  0  0
 58150  1  6  0  0  0
 59 60  1  0  0  0  0
 59151  1  6  0  0  0
 60152  1  0  0  0  0
 60153  1  0  0  0  0
M  CHG  1  21  -1
M  END
$$$$