/media/chris/experiments/cd1a-new-docking/inputs/ligands/7ryn_ligand.pdb
 OpenBabel07032312553D

153153  0  0  1  0  0  0  0  0999 V2000
  -33.0340   65.1330   62.2120 N   0  0  0  0  0  0  0  0  0  0  0  0
  -32.0220   67.3480   62.3220 C   0  0  0  0  0  0  0  0  0  0  0  0
  -33.3204   67.9104   62.5424 O   0  0  0  0  0  0  0  0  0  0  0  0
  -32.1830   66.0840   61.5030 C   0  0  1  0  0  0  0  0  0  0  0  0
  -31.0548   64.2805   60.3587 O   0  0  0  0  0  0  0  0  0  0  0  0
  -30.8310   65.4230   61.1900 C   0  0  2  0  0  0  0  0  0  0  0  0
  -34.9746   65.8457   61.3210 O   0  0  0  0  0  0  0  0  0  0  0  0
  -30.1054   65.0399   62.4433 C   0  0  0  0  0  0  0  0  0  0  0  0
  -35.3151   69.8361   62.1498 O   0  0  0  0  0  0  0  0  0  0  0  0
  -28.9184   64.4680   62.4873 C   0  0  0  0  0  0  0  0  0  0  0  0
  -36.2332   71.0293   64.5551 O   0  0  0  0  0  0  0  0  0  0  0  0
  -28.2138   64.1114   63.7550 C   0  0  0  0  0  0  0  0  0  0  0  0
  -34.7894   69.6393   66.4168 O   0  0  0  0  0  0  0  0  0  0  0  0
  -27.9816   65.3501   64.6226 C   0  0  0  0  0  0  0  0  0  0  0  0
  -32.7334   68.8853   64.5507 O   0  0  0  0  0  0  0  0  0  0  0  0
  -27.1527   66.4338   63.9524 C   0  0  0  0  0  0  0  0  0  0  0  0
  -32.5661   68.6711   67.3280 O   0  0  0  0  0  0  0  0  0  0  0  0
  -26.9068   67.6575   64.8184 C   0  0  0  0  0  0  0  0  0  0  0  0
  -38.4981   71.4463   63.8454 O   0  0  0  0  0  0  0  0  0  0  0  0
  -28.1781   68.3598   65.2725 C   0  0  0  0  0  0  0  0  0  0  0  0
  -36.8651   70.3129   62.3077 O   0  5  0  0  0  0  0  0  0  0  0  0
  -29.0491   68.8484   64.1253 C   0  0  0  0  0  0  0  0  0  0  0  0
  -36.6888   72.6195   62.8416 O   0  0  0  0  0  0  0  0  0  0  0  0
  -28.3509   69.8324   63.2031 C   0  0  0  0  0  0  0  0  0  0  0  0
  -29.2196   70.3369   62.0659 C   0  0  0  0  0  0  0  0  0  0  0  0
  -30.4638   71.0783   62.5240 C   0  0  0  0  0  0  0  0  0  0  0  0
  -31.3262   71.5590   61.3718 C   0  0  0  0  0  0  0  0  0  0  0  0
  -30.6232   72.5022   60.4145 C   0  0  0  0  0  0  0  0  0  0  0  0
  -31.5259   72.9702   59.2898 C   0  0  0  0  0  0  0  0  0  0  0  0
  -32.7369   73.7272   59.7945 C   0  0  0  0  0  0  0  0  0  0  0  0
  -34.3610   65.0876   62.0665 C   0  0  0  0  0  0  0  0  0  0  0  0
  -35.0703   64.0312   62.8766 C   0  0  0  0  0  0  0  0  0  0  0  0
  -34.1128   63.2023   63.7231 C   0  0  0  0  0  0  0  0  0  0  0  0
  -33.0657   62.4820   62.8888 C   0  0  0  0  0  0  0  0  0  0  0  0
  -32.1055   61.6325   63.7046 C   0  0  0  0  0  0  0  0  0  0  0  0
  -32.7837   60.5214   64.4920 C   0  0  0  0  0  0  0  0  0  0  0  0
  -33.5283   59.5135   63.6258 C   0  0  0  0  0  0  0  0  0  0  0  0
  -32.6382   58.7759   62.6339 C   0  0  0  0  0  0  0  0  0  0  0  0
  -33.3727   57.7741   61.7465 C   0  0  0  0  0  0  0  0  0  0  0  0
  -32.4666   57.0286   60.7679 C   0  0  0  0  0  0  0  0  0  0  0  0
  -33.1904   56.0340   59.8607 C   0  0  0  0  0  0  0  0  0  0  0  0
  -32.2570   55.2911   58.9046 C   0  0  0  0  0  0  0  0  0  0  0  0
  -31.1764   54.4472   59.5804 C   0  0  0  0  0  0  0  0  0  0  0  0
  -30.2329   53.7180   58.6201 C   0  0  0  0  0  0  0  0  0  0  0  0
  -29.2016   52.8908   59.3316 C   0  0  0  0  0  0  0  0  0  0  0  0
  -29.3263   51.6224   59.6803 C   0  0  0  0  0  0  0  0  0  0  0  0
  -30.5220   50.7533   59.4329 C   0  0  0  0  0  0  0  0  0  0  0  0
  -30.4684   49.9985   58.1029 C   0  0  0  0  0  0  0  0  0  0  0  0
  -31.6952   49.1315   57.8528 C   0  0  0  0  0  0  0  0  0  0  0  0
  -32.9958   49.9251   57.7984 C   0  0  0  0  0  0  0  0  0  0  0  0
  -33.3113   50.7077   59.0679 C   0  0  0  0  0  0  0  0  0  0  0  0
  -34.6213   51.4802   59.0021 C   0  0  0  0  0  0  0  0  0  0  0  0
  -34.6852   52.5024   57.8784 C   0  0  0  0  0  0  0  0  0  0  0  0
  -35.9937   53.2659   57.8500 C   0  0  0  0  0  0  0  0  0  0  0  0
  -33.3156   69.0988   63.2783 C   0  0  2  0  0  0  0  0  0  0  0  0
  -34.7576   69.5657   63.4297 C   0  0  1  0  0  0  0  0  0  0  0  0
  -34.8089   70.8140   64.3015 C   0  0  2  0  0  0  0  0  0  0  0  0
  -34.0866   70.5888   65.6217 C   0  0  2  0  0  0  0  0  0  0  0  0
  -32.6741   70.0760   65.3523 C   0  0  1  0  0  0  0  0  0  0  0  0
  -31.9211   69.7182   66.6122 C   0  0  0  0  0  0  0  0  0  0  0  0
  -37.2005   71.2487   63.3141 S   0  0  0  0  0  0  0  0  0  0  0  0
  -32.6087   64.4935   62.8279 H   0  0  0  0  0  0  0  0  0  0  0  0
  -31.5648   67.1148   63.2609 H   0  0  0  0  0  0  0  0  0  0  0  0
  -31.4012   68.0473   61.8019 H   0  0  0  0  0  0  0  0  0  0  0  0
  -32.6374   66.3625   60.5752 H   0  0  0  0  0  0  0  0  0  0  0  0
  -31.5249   64.5525   59.5551 H   0  0  0  0  0  0  0  0  0  0  0  0
  -30.2105   66.1253   60.6735 H   0  0  0  0  0  0  0  0  0  0  0  0
  -30.5711   65.2392   63.3425 H   0  0  0  0  0  0  0  0  0  0  0  0
  -35.2768   69.0347   61.6046 H   0  0  0  0  0  0  0  0  0  0  0  0
  -28.4487   64.2543   61.5936 H   0  0  0  0  0  0  0  0  0  0  0  0
  -27.2690   63.6690   63.5172 H   0  0  0  0  0  0  0  0  0  0  0  0
  -28.8242   63.4230   64.3013 H   0  0  0  0  0  0  0  0  0  0  0  0
  -35.6873   69.9632   66.5891 H   0  0  0  0  0  0  0  0  0  0  0  0
  -27.4762   65.0448   65.5150 H   0  0  0  0  0  0  0  0  0  0  0  0
  -28.9444   65.7749   64.8161 H   0  0  0  0  0  0  0  0  0  0  0  0
  -27.6644   66.7475   63.0666 H   0  0  0  0  0  0  0  0  0  0  0  0
  -26.1940   66.0046   63.7487 H   0  0  0  0  0  0  0  0  0  0  0  0
  -32.0585   68.4665   68.1288 H   0  0  0  0  0  0  0  0  0  0  0  0
  -26.3195   68.3541   64.2575 H   0  0  0  0  0  0  0  0  0  0  0  0
  -26.4089   67.3165   65.7020 H   0  0  0  0  0  0  0  0  0  0  0  0
  -38.8534   70.5983   64.1546 H   0  0  0  0  0  0  0  0  0  0  0  0
  -27.9030   69.2032   65.8707 H   0  0  0  0  0  0  0  0  0  0  0  0
  -28.7539   67.6424   65.8190 H   0  0  0  0  0  0  0  0  0  0  0  0
  -29.9130   69.3266   64.5373 H   0  0  0  0  0  0  0  0  0  0  0  0
  -29.2983   67.9910   63.5356 H   0  0  0  0  0  0  0  0  0  0  0  0
  -36.9009   73.2912   63.5085 H   0  0  0  0  0  0  0  0  0  0  0  0
  -27.4938   69.3492   62.7827 H   0  0  0  0  0  0  0  0  0  0  0  0
  -28.0942   70.6843   63.7975 H   0  0  0  0  0  0  0  0  0  0  0  0
  -29.5252   69.4973   61.4773 H   0  0  0  0  0  0  0  0  0  0  0  0
  -28.6290   71.0350   61.5101 H   0  0  0  0  0  0  0  0  0  0  0  0
  -30.1617   71.9272   63.1010 H   0  0  0  0  0  0  0  0  0  0  0  0
  -31.0510   70.3929   63.0988 H   0  0  0  0  0  0  0  0  0  0  0  0
  -32.1756   72.0668   61.7787 H   0  0  0  0  0  0  0  0  0  0  0  0
  -31.5913   70.6906   60.8056 H   0  0  0  0  0  0  0  0  0  0  0  0
  -29.7816   71.9955   59.9903 H   0  0  0  0  0  0  0  0  0  0  0  0
  -30.3243   73.3658   60.9710 H   0  0  0  0  0  0  0  0  0  0  0  0
  -31.8603   72.1153   58.7400 H   0  0  0  0  0  0  0  0  0  0  0  0
  -30.9590   73.6370   58.6742 H   0  0  0  0  0  0  0  0  0  0  0  0
  -33.3258   73.0849   60.4154 H   0  0  0  0  0  0  0  0  0  0  0  0
  -33.3242   74.0559   58.9627 H   0  0  0  0  0  0  0  0  0  0  0  0
  -32.4161   74.5757   60.3620 H   0  0  0  0  0  0  0  0  0  0  0  0
  -35.5902   63.3777   62.2076 H   0  0  0  0  0  0  0  0  0  0  0  0
  -35.7431   64.5303   63.5424 H   0  0  0  0  0  0  0  0  0  0  0  0
  -34.6784   62.4739   64.2657 H   0  0  0  0  0  0  0  0  0  0  0  0
  -33.5982   63.8727   64.3793 H   0  0  0  0  0  0  0  0  0  0  0  0
  -32.4972   63.2151   62.3556 H   0  0  0  0  0  0  0  0  0  0  0  0
  -33.5921   61.8164   62.2370 H   0  0  0  0  0  0  0  0  0  0  0  0
  -31.5936   62.2705   64.3944 H   0  0  0  0  0  0  0  0  0  0  0  0
  -31.4408   61.1612   63.0110 H   0  0  0  0  0  0  0  0  0  0  0  0
  -33.4840   60.9668   65.1673 H   0  0  0  0  0  0  0  0  0  0  0  0
  -32.0093   59.9829   64.9972 H   0  0  0  0  0  0  0  0  0  0  0  0
  -34.2847   60.0346   63.0769 H   0  0  0  0  0  0  0  0  0  0  0  0
  -33.9347   58.7764   64.2864 H   0  0  0  0  0  0  0  0  0  0  0  0
  -31.8895   58.2470   63.1860 H   0  0  0  0  0  0  0  0  0  0  0  0
  -32.2302   59.5187   61.9807 H   0  0  0  0  0  0  0  0  0  0  0  0
  -34.1128   58.3031   61.1834 H   0  0  0  0  0  0  0  0  0  0  0  0
  -33.7974   57.0381   62.3968 H   0  0  0  0  0  0  0  0  0  0  0  0
  -31.7343   56.4919   61.3341 H   0  0  0  0  0  0  0  0  0  0  0  0
  -32.0401   57.7701   60.1251 H   0  0  0  0  0  0  0  0  0  0  0  0
  -33.9138   56.5685   59.2810 H   0  0  0  0  0  0  0  0  0  0  0  0
  -33.6416   55.2996   60.4948 H   0  0  0  0  0  0  0  0  0  0  0  0
  -31.7724   56.0158   58.2842 H   0  0  0  0  0  0  0  0  0  0  0  0
  -32.8722   54.6068   58.3585 H   0  0  0  0  0  0  0  0  0  0  0  0
  -31.6607   53.7141   60.1910 H   0  0  0  0  0  0  0  0  0  0  0  0
  -30.5687   55.1288   60.1381 H   0  0  0  0  0  0  0  0  0  0  0  0
  -29.7307   54.4452   58.0168 H   0  0  0  0  0  0  0  0  0  0  0  0
  -30.8269   53.0527   58.0290 H   0  0  0  0  0  0  0  0  0  0  0  0
  -28.3122   53.3563   59.5706 H   0  0  0  0  0  0  0  0  0  0  0  0
  -28.5263   51.1902   60.1682 H   0  0  0  0  0  0  0  0  0  0  0  0
  -31.3954   51.3714   59.4356 H   0  0  0  0  0  0  0  0  0  0  0  0
  -30.5403   50.0177   60.2097 H   0  0  0  0  0  0  0  0  0  0  0  0
  -29.6026   49.3697   58.1039 H   0  0  0  0  0  0  0  0  0  0  0  0
  -30.4337   50.7310   57.3238 H   0  0  0  0  0  0  0  0  0  0  0  0
  -31.7692   48.4126   58.6418 H   0  0  0  0  0  0  0  0  0  0  0  0
  -31.5663   48.6699   56.8961 H   0  0  0  0  0  0  0  0  0  0  0  0
  -33.7982   49.2401   57.6197 H   0  0  0  0  0  0  0  0  0  0  0  0
  -32.8802   50.6464   57.0166 H   0  0  0  0  0  0  0  0  0  0  0  0
  -32.5173   51.4037   59.2416 H   0  0  0  0  0  0  0  0  0  0  0  0
  -33.4093   49.9936   59.8587 H   0  0  0  0  0  0  0  0  0  0  0  0
  -34.7552   51.9938   59.9312 H   0  0  0  0  0  0  0  0  0  0  0  0
  -35.3922   50.7633   58.8105 H   0  0  0  0  0  0  0  0  0  0  0  0
  -34.5674   51.9920   56.9454 H   0  0  0  0  0  0  0  0  0  0  0  0
  -33.9025   53.2125   58.0452 H   0  0  0  0  0  0  0  0  0  0  0  0
  -36.8012   52.5837   57.6844 H   0  0  0  0  0  0  0  0  0  0  0  0
  -35.9686   53.9874   57.0602 H   0  0  0  0  0  0  0  0  0  0  0  0
  -36.1353   53.7659   58.7854 H   0  0  0  0  0  0  0  0  0  0  0  0
  -32.7377   69.8438   62.7723 H   0  0  0  0  0  0  0  0  0  0  0  0
  -35.3300   68.7932   63.8992 H   0  0  0  0  0  0  0  0  0  0  0  0
  -34.3360   71.6474   63.8253 H   0  0  0  0  0  0  0  0  0  0  0  0
  -34.0399   71.5181   66.1499 H   0  0  0  0  0  0  0  0  0  0  0  0
  -32.1619   70.8745   64.8573 H   0  0  0  0  0  0  0  0  0  0  0  0
  -30.9335   69.4016   66.3486 H   0  0  0  0  0  0  0  0  0  0  0  0
  -31.8897   70.5836   67.2407 H   0  0  0  0  0  0  0  0  0  0  0  0
  1  4  1  0  0  0  0
  1 31  1  0  0  0  0
  1 62  1  0  0  0  0
  2  3  1  0  0  0  0
  2  4  1  0  0  0  0
  2 63  1  0  0  0  0
  2 64  1  0  0  0  0
  3 55  1  0  0  0  0
  4  6  1  0  0  0  0
  4 65  1  6  0  0  0
  5  6  1  0  0  0  0
  5 66  1  0  0  0  0
  6  8  1  0  0  0  0
  6 67  1  6  0  0  0
  7 31  2  0  0  0  0
  8 10  2  0  0  0  0
  8 68  1  0  0  0  0
  9 56  1  0  0  0  0
  9 69  1  0  0  0  0
 10 12  1  0  0  0  0
 10 70  1  0  0  0  0
 11 57  1  0  0  0  0
 11 61  1  0  0  0  0
 12 14  1  0  0  0  0
 12 71  1  0  0  0  0
 12 72  1  0  0  0  0
 13 58  1  0  0  0  0
 13 73  1  0  0  0  0
 14 16  1  0  0  0  0
 14 74  1  0  0  0  0
 14 75  1  0  0  0  0
 15 55  1  0  0  0  0
 15 59  1  0  0  0  0
 16 18  1  0  0  0  0
 16 76  1  0  0  0  0
 16 77  1  0  0  0  0
 17 60  1  0  0  0  0
 17 78  1  0  0  0  0
 18 20  1  0  0  0  0
 18 79  1  0  0  0  0
 18 80  1  0  0  0  0
 19 61  1  0  0  0  0
 19 81  1  0  0  0  0
 20 22  1  0  0  0  0
 20 82  1  0  0  0  0
 20 83  1  0  0  0  0
 21 61  1  0  0  0  0
 22 24  1  0  0  0  0
 22 84  1  0  0  0  0
 22 85  1  0  0  0  0
 23 61  1  0  0  0  0
 23 86  1  0  0  0  0
 24 25  1  0  0  0  0
 24 87  1  0  0  0  0
 24 88  1  0  0  0  0
 25 26  1  0  0  0  0
 25 89  1  0  0  0  0
 25 90  1  0  0  0  0
 26 27  1  0  0  0  0
 26 91  1  0  0  0  0
 26 92  1  0  0  0  0
 27 28  1  0  0  0  0
 27 93  1  0  0  0  0
 27 94  1  0  0  0  0
 28 29  1  0  0  0  0
 28 95  1  0  0  0  0
 28 96  1  0  0  0  0
 29 30  1  0  0  0  0
 29 97  1  0  0  0  0
 29 98  1  0  0  0  0
 30 99  1  0  0  0  0
 30100  1  0  0  0  0
 30101  1  0  0  0  0
 31 32  1  0  0  0  0
 32 33  1  0  0  0  0
 32102  1  0  0  0  0
 32103  1  0  0  0  0
 33 34  1  0  0  0  0
 33104  1  0  0  0  0
 33105  1  0  0  0  0
 34 35  1  0  0  0  0
 34106  1  0  0  0  0
 34107  1  0  0  0  0
 35 36  1  0  0  0  0
 35108  1  0  0  0  0
 35109  1  0  0  0  0
 36 37  1  0  0  0  0
 36110  1  0  0  0  0
 36111  1  0  0  0  0
 37 38  1  0  0  0  0
 37112  1  0  0  0  0
 37113  1  0  0  0  0
 38 39  1  0  0  0  0
 38114  1  0  0  0  0
 38115  1  0  0  0  0
 39 40  1  0  0  0  0
 39116  1  0  0  0  0
 39117  1  0  0  0  0
 40 41  1  0  0  0  0
 40118  1  0  0  0  0
 40119  1  0  0  0  0
 41 42  1  0  0  0  0
 41120  1  0  0  0  0
 41121  1  0  0  0  0
 42 43  1  0  0  0  0
 42122  1  0  0  0  0
 42123  1  0  0  0  0
 43 44  1  0  0  0  0
 43124  1  0  0  0  0
 43125  1  0  0  0  0
 44 45  1  0  0  0  0
 44126  1  0  0  0  0
 44127  1  0  0  0  0
 45 46  2  0  0  0  0
 45128  1  0  0  0  0
 46 47  1  0  0  0  0
 46129  1  0  0  0  0
 47 48  1  0  0  0  0
 47130  1  0  0  0  0
 47131  1  0  0  0  0
 48 49  1  0  0  0  0
 48132  1  0  0  0  0
 48133  1  0  0  0  0
 49 50  1  0  0  0  0
 49134  1  0  0  0  0
 49135  1  0  0  0  0
 50 51  1  0  0  0  0
 50136  1  0  0  0  0
 50137  1  0  0  0  0
 51 52  1  0  0  0  0
 51138  1  0  0  0  0
 51139  1  0  0  0  0
 52 53  1  0  0  0  0
 52140  1  0  0  0  0
 52141  1  0  0  0  0
 53 54  1  0  0  0  0
 53142  1  0  0  0  0
 53143  1  0  0  0  0
 54144  1  0  0  0  0
 54145  1  0  0  0  0
 54146  1  0  0  0  0
 55 56  1  0  0  0  0
 55147  1  6  0  0  0
 56 57  1  0  0  0  0
 56148  1  1  0  0  0
 57 58  1  0  0  0  0
 57149  1  6  0  0  0
 58 59  1  0  0  0  0
 58150  1  1  0  0  0
 59 60  1  0  0  0  0
 59151  1  6  0  0  0
 60152  1  0  0  0  0
 60153  1  0  0  0  0
M  CHG  1  21  -1
M  END
$$$$