/media/chris/experiments/cd1a-new-docking/inputs/ligands/7ryn_ligand.pdb
 OpenBabel07032312553D

153153  0  0  1  0  0  0  0  0999 V2000
  -33.0340   65.1330   62.2120 N   0  0  0  0  0  0  0  0  0  0  0  0
  -32.0220   67.3480   62.3220 C   0  0  0  0  0  0  0  0  0  0  0  0
  -31.1969   68.2589   61.5870 O   0  0  0  0  0  0  0  0  0  0  0  0
  -32.1830   66.0840   61.5030 C   0  0  1  0  0  0  0  0  0  0  0  0
  -29.9992   66.3678   60.5104 O   0  0  0  0  0  0  0  0  0  0  0  0
  -30.8310   65.4230   61.1900 C   0  0  2  0  0  0  0  0  0  0  0  0
  -35.0054   64.5907   63.1540 O   0  0  0  0  0  0  0  0  0  0  0  0
  -31.0055   64.1786   60.3744 C   0  0  0  0  0  0  0  0  0  0  0  0
  -32.9308   70.4319   61.2513 O   0  0  0  0  0  0  0  0  0  0  0  0
  -32.0597   63.3881   60.4139 C   0  0  0  0  0  0  0  0  0  0  0  0
  -33.4310   71.8685   63.6467 O   0  0  0  0  0  0  0  0  0  0  0  0
  -32.2106   62.1609   59.5761 C   0  0  0  0  0  0  0  0  0  0  0  0
  -32.0199   70.3807   65.4572 O   0  0  0  0  0  0  0  0  0  0  0  0
  -32.3678   60.9144   60.4494 C   0  0  0  0  0  0  0  0  0  0  0  0
  -30.2839   69.2401   63.4665 O   0  0  0  0  0  0  0  0  0  0  0  0
  -31.2002   60.6607   61.3891 C   0  0  0  0  0  0  0  0  0  0  0  0
  -29.8754   69.1472   66.2254 O   0  0  0  0  0  0  0  0  0  0  0  0
  -30.9509   61.7753   62.3908 C   0  0  0  0  0  0  0  0  0  0  0  0
  -34.9849   73.3767   64.7040 O   0  0  0  0  0  0  0  0  0  0  0  0
  -29.7703   61.5223   63.3170 C   0  0  0  0  0  0  0  0  0  0  0  0
  -32.7374   74.1926   63.9306 O   0  5  0  0  0  0  0  0  0  0  0  0
  -29.9077   60.2572   64.1501 C   0  0  0  0  0  0  0  0  0  0  0  0
  -32.9709   72.7578   65.8076 O   0  0  0  0  0  0  0  0  0  0  0  0
  -31.1341   60.2446   65.0456 C   0  0  0  0  0  0  0  0  0  0  0  0
  -31.1824   61.3863   66.0438 C   0  0  0  0  0  0  0  0  0  0  0  0
  -29.9975   61.4239   66.9937 C   0  0  0  0  0  0  0  0  0  0  0  0
  -29.8600   60.1594   67.8212 C   0  0  0  0  0  0  0  0  0  0  0  0
  -29.6503   58.8975   67.0063 C   0  0  0  0  0  0  0  0  0  0  0  0
  -29.5352   57.6578   67.8715 C   0  0  0  0  0  0  0  0  0  0  0  0
  -30.7802   57.4091   68.6976 C   0  0  0  0  0  0  0  0  0  0  0  0
  -34.3010   65.3918   62.5466 C   0  0  0  0  0  0  0  0  0  0  0  0
  -34.8204   66.7470   62.1356 C   0  0  0  0  0  0  0  0  0  0  0  0
  -36.2638   66.9752   62.5659 C   0  0  0  0  0  0  0  0  0  0  0  0
  -36.7956   68.3337   62.1381 C   0  0  0  0  0  0  0  0  0  0  0  0
  -36.7993   68.5479   60.6336 C   0  0  0  0  0  0  0  0  0  0  0  0
  -37.3158   69.9141   60.2080 C   0  0  0  0  0  0  0  0  0  0  0  0
  -36.4993   71.0813   60.7481 C   0  0  0  0  0  0  0  0  0  0  0  0
  -35.0443   71.0772   60.2972 C   0  0  0  0  0  0  0  0  0  0  0  0
  -34.2082   72.2316   60.8439 C   0  0  0  0  0  0  0  0  0  0  0  0
  -34.7315   73.6148   60.4604 C   0  0  0  0  0  0  0  0  0  0  0  0
  -34.8112   73.8713   58.9557 C   0  0  0  0  0  0  0  0  0  0  0  0
  -35.3217   75.2684   58.6024 C   0  0  0  0  0  0  0  0  0  0  0  0
  -36.7175   75.6001   59.1298 C   0  0  0  0  0  0  0  0  0  0  0  0
  -36.8575   75.5597   60.6539 C   0  0  0  0  0  0  0  0  0  0  0  0
  -35.9586   76.5415   61.3484 C   0  0  0  0  0  0  0  0  0  0  0  0
  -36.2048   77.1439   62.4983 C   0  0  0  0  0  0  0  0  0  0  0  0
  -37.4303   76.9659   63.3424 C   0  0  0  0  0  0  0  0  0  0  0  0
  -38.6856   76.6211   62.5383 C   0  0  0  0  0  0  0  0  0  0  0  0
  -39.9289   76.4590   63.4028 C   0  0  0  0  0  0  0  0  0  0  0  0
  -41.1773   76.0987   62.6054 C   0  0  0  0  0  0  0  0  0  0  0  0
  -42.4406   75.9470   63.4450 C   0  0  0  0  0  0  0  0  0  0  0  0
  -43.6733   75.5706   62.6351 C   0  0  0  0  0  0  0  0  0  0  0  0
  -44.9425   75.4334   63.4610 C   0  0  0  0  0  0  0  0  0  0  0  0
  -46.1472   75.0417   62.6296 C   0  0  0  0  0  0  0  0  0  0  0  0
  -30.9530   69.4703   62.2406 C   0  0  2  0  0  0  0  0  0  0  0  0
  -32.2933   70.1495   62.4906 C   0  0  1  0  0  0  0  0  0  0  0  0
  -32.0829   71.4352   63.2803 C   0  0  2  0  0  0  0  0  0  0  0  0
  -31.2728   71.1754   64.5419 C   0  0  2  0  0  0  0  0  0  0  0  0
  -29.9796   70.4491   64.1802 C   0  0  1  0  0  0  0  0  0  0  0  0
  -29.1637   70.0508   65.3877 C   0  0  0  0  0  0  0  0  0  0  0  0
  -33.5968   73.2117   64.4786 S   0  0  0  0  0  0  0  0  0  0  0  0
  -32.6553   64.2575   62.4556 H   0  0  0  0  0  0  0  0  0  0  0  0
  -32.9806   67.7896   62.4978 H   0  0  0  0  0  0  0  0  0  0  0  0
  -31.5704   67.1208   63.2650 H   0  0  0  0  0  0  0  0  0  0  0  0
  -32.6374   66.3625   60.5752 H   0  0  0  0  0  0  0  0  0  0  0  0
  -29.9008   67.1635   61.0564 H   0  0  0  0  0  0  0  0  0  0  0  0
  -30.3647   65.1308   62.1077 H   0  0  0  0  0  0  0  0  0  0  0  0
  -30.2407   63.9200   59.7315 H   0  0  0  0  0  0  0  0  0  0  0  0
  -33.0591   69.6065   60.7582 H   0  0  0  0  0  0  0  0  0  0  0  0
  -32.8255   63.6315   61.0615 H   0  0  0  0  0  0  0  0  0  0  0  0
  -31.3426   62.0491   58.9604 H   0  0  0  0  0  0  0  0  0  0  0  0
  -33.0881   62.2665   58.9730 H   0  0  0  0  0  0  0  0  0  0  0  0
  -32.8421   70.8405   65.6883 H   0  0  0  0  0  0  0  0  0  0  0  0
  -32.4718   60.0653   59.8067 H   0  0  0  0  0  0  0  0  0  0  0  0
  -33.2281   61.0765   61.0646 H   0  0  0  0  0  0  0  0  0  0  0  0
  -30.3162   60.5361   60.7993 H   0  0  0  0  0  0  0  0  0  0  0  0
  -31.4475   59.7880   61.9568 H   0  0  0  0  0  0  0  0  0  0  0  0
  -29.3250   68.9123   66.9889 H   0  0  0  0  0  0  0  0  0  0  0  0
  -31.8297   61.8920   62.9900 H   0  0  0  0  0  0  0  0  0  0  0  0
  -30.7183   62.6534   61.8254 H   0  0  0  0  0  0  0  0  0  0  0  0
  -35.4139   73.6640   63.8828 H   0  0  0  0  0  0  0  0  0  0  0  0
  -29.6772   62.3559   63.9813 H   0  0  0  0  0  0  0  0  0  0  0  0
  -28.9074   61.3964   62.6969 H   0  0  0  0  0  0  0  0  0  0  0  0
  -29.0384   60.1631   64.7668 H   0  0  0  0  0  0  0  0  0  0  0  0
  -30.0133   59.4422   63.4648 H   0  0  0  0  0  0  0  0  0  0  0  0
  -33.5340   72.0818   66.2160 H   0  0  0  0  0  0  0  0  0  0  0  0
  -31.1445   59.3226   65.5885 H   0  0  0  0  0  0  0  0  0  0  0  0
  -31.9848   60.3566   64.4064 H   0  0  0  0  0  0  0  0  0  0  0  0
  -32.0763   61.2892   66.6238 H   0  0  0  0  0  0  0  0  0  0  0  0
  -31.1562   62.2944   65.4785 H   0  0  0  0  0  0  0  0  0  0  0  0
  -30.1191   62.2541   67.6577 H   0  0  0  0  0  0  0  0  0  0  0  0
  -29.1131   61.5143   66.3984 H   0  0  0  0  0  0  0  0  0  0  0  0
  -30.7518   60.0396   68.4001 H   0  0  0  0  0  0  0  0  0  0  0  0
  -28.9848   60.2826   68.4242 H   0  0  0  0  0  0  0  0  0  0  0  0
  -28.7505   59.0028   66.4369 H   0  0  0  0  0  0  0  0  0  0  0  0
  -30.5048   58.7737   66.3744 H   0  0  0  0  0  0  0  0  0  0  0  0
  -28.7027   57.7771   68.5330 H   0  0  0  0  0  0  0  0  0  0  0  0
  -29.4038   56.8185   67.2209 H   0  0  0  0  0  0  0  0  0  0  0  0
  -30.9391   58.2338   69.3605 H   0  0  0  0  0  0  0  0  0  0  0  0
  -30.6567   56.5120   69.2676 H   0  0  0  0  0  0  0  0  0  0  0  0
  -31.6244   57.3057   68.0483 H   0  0  0  0  0  0  0  0  0  0  0  0
  -34.7635   66.8274   61.0701 H   0  0  0  0  0  0  0  0  0  0  0  0
  -34.2169   67.4862   62.6195 H   0  0  0  0  0  0  0  0  0  0  0  0
  -36.3181   66.9067   63.6323 H   0  0  0  0  0  0  0  0  0  0  0  0
  -36.8648   66.2284   62.0904 H   0  0  0  0  0  0  0  0  0  0  0  0
  -36.1849   69.0903   62.5846 H   0  0  0  0  0  0  0  0  0  0  0  0
  -37.8144   68.3840   62.4613 H   0  0  0  0  0  0  0  0  0  0  0  0
  -37.4201   67.7990   60.1879 H   0  0  0  0  0  0  0  0  0  0  0  0
  -35.7820   68.4846   60.3079 H   0  0  0  0  0  0  0  0  0  0  0  0
  -38.3219   70.0172   60.5574 H   0  0  0  0  0  0  0  0  0  0  0  0
  -37.2439   69.9536   59.1411 H   0  0  0  0  0  0  0  0  0  0  0  0
  -36.5208   71.0415   61.8171 H   0  0  0  0  0  0  0  0  0  0  0  0
  -36.9419   71.9754   60.3614 H   0  0  0  0  0  0  0  0  0  0  0  0
  -35.0255   71.1279   59.2285 H   0  0  0  0  0  0  0  0  0  0  0  0
  -34.6094   70.1782   60.6814 H   0  0  0  0  0  0  0  0  0  0  0  0
  -33.2115   72.1328   60.4674 H   0  0  0  0  0  0  0  0  0  0  0  0
  -34.2541   72.1684   61.9110 H   0  0  0  0  0  0  0  0  0  0  0  0
  -34.0814   74.3482   60.8899 H   0  0  0  0  0  0  0  0  0  0  0  0
  -35.7336   73.6730   60.8311 H   0  0  0  0  0  0  0  0  0  0  0  0
  -35.4724   73.1496   58.5235 H   0  0  0  0  0  0  0  0  0  0  0  0
  -33.8165   73.7923   58.5694 H   0  0  0  0  0  0  0  0  0  0  0  0
  -35.3409   75.3547   57.5360 H   0  0  0  0  0  0  0  0  0  0  0  0
  -34.6529   75.9584   59.0731 H   0  0  0  0  0  0  0  0  0  0  0  0
  -37.4062   74.8946   58.7140 H   0  0  0  0  0  0  0  0  0  0  0  0
  -36.9167   76.6098   58.8370 H   0  0  0  0  0  0  0  0  0  0  0  0
  -36.6144   74.5746   60.9933 H   0  0  0  0  0  0  0  0  0  0  0  0
  -37.8668   75.8243   60.8911 H   0  0  0  0  0  0  0  0  0  0  0  0
  -35.0649   76.7668   60.8842 H   0  0  0  0  0  0  0  0  0  0  0  0
  -35.4866   77.7975   62.8476 H   0  0  0  0  0  0  0  0  0  0  0  0
  -37.6094   77.8769   63.8744 H   0  0  0  0  0  0  0  0  0  0  0  0
  -37.2420   76.1411   63.9976 H   0  0  0  0  0  0  0  0  0  0  0  0
  -38.5131   75.7033   62.0161 H   0  0  0  0  0  0  0  0  0  0  0  0
  -38.8682   77.4368   61.8702 H   0  0  0  0  0  0  0  0  0  0  0  0
  -40.1081   77.3809   63.9155 H   0  0  0  0  0  0  0  0  0  0  0  0
  -39.7410   75.6508   64.0783 H   0  0  0  0  0  0  0  0  0  0  0  0
  -40.9968   75.1717   62.1025 H   0  0  0  0  0  0  0  0  0  0  0  0
  -41.3544   76.9117   61.9327 H   0  0  0  0  0  0  0  0  0  0  0  0
  -42.6318   76.8770   63.9384 H   0  0  0  0  0  0  0  0  0  0  0  0
  -42.2636   75.1477   64.1339 H   0  0  0  0  0  0  0  0  0  0  0  0
  -43.4846   74.6349   62.1517 H   0  0  0  0  0  0  0  0  0  0  0  0
  -43.8417   76.3682   61.9421 H   0  0  0  0  0  0  0  0  0  0  0  0
  -45.1448   76.3713   63.9346 H   0  0  0  0  0  0  0  0  0  0  0  0
  -44.7782   74.6540   64.1754 H   0  0  0  0  0  0  0  0  0  0  0  0
  -46.3408   75.8020   61.9019 H   0  0  0  0  0  0  0  0  0  0  0  0
  -46.9999   74.9324   63.2666 H   0  0  0  0  0  0  0  0  0  0  0  0
  -45.9516   74.1143   62.1330 H   0  0  0  0  0  0  0  0  0  0  0  0
  -30.3291   70.0960   61.6371 H   0  0  0  0  0  0  0  0  0  0  0  0
  -32.9193   69.4938   63.0591 H   0  0  0  0  0  0  0  0  0  0  0  0
  -31.5471   72.1651   62.7102 H   0  0  0  0  0  0  0  0  0  0  0  0
  -31.0444   72.1140   65.0021 H   0  0  0  0  0  0  0  0  0  0  0  0
  -29.4118   71.1378   63.5901 H   0  0  0  0  0  0  0  0  0  0  0  0
  -28.2611   69.5805   65.0573 H   0  0  0  0  0  0  0  0  0  0  0  0
  -28.9495   70.9336   65.9532 H   0  0  0  0  0  0  0  0  0  0  0  0
  1  4  1  0  0  0  0
  1 31  1  0  0  0  0
  1 62  1  0  0  0  0
  2  3  1  0  0  0  0
  2  4  1  0  0  0  0
  2 63  1  0  0  0  0
  2 64  1  0  0  0  0
  3 55  1  0  0  0  0
  4  6  1  0  0  0  0
  4 65  1  6  0  0  0
  5  6  1  0  0  0  0
  5 66  1  0  0  0  0
  6  8  1  0  0  0  0
  6 67  1  1  0  0  0
  7 31  2  0  0  0  0
  8 10  2  0  0  0  0
  8 68  1  0  0  0  0
  9 56  1  0  0  0  0
  9 69  1  0  0  0  0
 10 12  1  0  0  0  0
 10 70  1  0  0  0  0
 11 57  1  0  0  0  0
 11 61  1  0  0  0  0
 12 14  1  0  0  0  0
 12 71  1  0  0  0  0
 12 72  1  0  0  0  0
 13 58  1  0  0  0  0
 13 73  1  0  0  0  0
 14 16  1  0  0  0  0
 14 74  1  0  0  0  0
 14 75  1  0  0  0  0
 15 55  1  0  0  0  0
 15 59  1  0  0  0  0
 16 18  1  0  0  0  0
 16 76  1  0  0  0  0
 16 77  1  0  0  0  0
 17 60  1  0  0  0  0
 17 78  1  0  0  0  0
 18 20  1  0  0  0  0
 18 79  1  0  0  0  0
 18 80  1  0  0  0  0
 19 61  1  0  0  0  0
 19 81  1  0  0  0  0
 20 22  1  0  0  0  0
 20 82  1  0  0  0  0
 20 83  1  0  0  0  0
 21 61  1  0  0  0  0
 22 24  1  0  0  0  0
 22 84  1  0  0  0  0
 22 85  1  0  0  0  0
 23 61  1  0  0  0  0
 23 86  1  0  0  0  0
 24 25  1  0  0  0  0
 24 87  1  0  0  0  0
 24 88  1  0  0  0  0
 25 26  1  0  0  0  0
 25 89  1  0  0  0  0
 25 90  1  0  0  0  0
 26 27  1  0  0  0  0
 26 91  1  0  0  0  0
 26 92  1  0  0  0  0
 27 28  1  0  0  0  0
 27 93  1  0  0  0  0
 27 94  1  0  0  0  0
 28 29  1  0  0  0  0
 28 95  1  0  0  0  0
 28 96  1  0  0  0  0
 29 30  1  0  0  0  0
 29 97  1  0  0  0  0
 29 98  1  0  0  0  0
 30 99  1  0  0  0  0
 30100  1  0  0  0  0
 30101  1  0  0  0  0
 31 32  1  0  0  0  0
 32 33  1  0  0  0  0
 32102  1  0  0  0  0
 32103  1  0  0  0  0
 33 34  1  0  0  0  0
 33104  1  0  0  0  0
 33105  1  0  0  0  0
 34 35  1  0  0  0  0
 34106  1  0  0  0  0
 34107  1  0  0  0  0
 35 36  1  0  0  0  0
 35108  1  0  0  0  0
 35109  1  0  0  0  0
 36 37  1  0  0  0  0
 36110  1  0  0  0  0
 36111  1  0  0  0  0
 37 38  1  0  0  0  0
 37112  1  0  0  0  0
 37113  1  0  0  0  0
 38 39  1  0  0  0  0
 38114  1  0  0  0  0
 38115  1  0  0  0  0
 39 40  1  0  0  0  0
 39116  1  0  0  0  0
 39117  1  0  0  0  0
 40 41  1  0  0  0  0
 40118  1  0  0  0  0
 40119  1  0  0  0  0
 41 42  1  0  0  0  0
 41120  1  0  0  0  0
 41121  1  0  0  0  0
 42 43  1  0  0  0  0
 42122  1  0  0  0  0
 42123  1  0  0  0  0
 43 44  1  0  0  0  0
 43124  1  0  0  0  0
 43125  1  0  0  0  0
 44 45  1  0  0  0  0
 44126  1  0  0  0  0
 44127  1  0  0  0  0
 45 46  2  0  0  0  0
 45128  1  0  0  0  0
 46 47  1  0  0  0  0
 46129  1  0  0  0  0
 47 48  1  0  0  0  0
 47130  1  0  0  0  0
 47131  1  0  0  0  0
 48 49  1  0  0  0  0
 48132  1  0  0  0  0
 48133  1  0  0  0  0
 49 50  1  0  0  0  0
 49134  1  0  0  0  0
 49135  1  0  0  0  0
 50 51  1  0  0  0  0
 50136  1  0  0  0  0
 50137  1  0  0  0  0
 51 52  1  0  0  0  0
 51138  1  0  0  0  0
 51139  1  0  0  0  0
 52 53  1  0  0  0  0
 52140  1  0  0  0  0
 52141  1  0  0  0  0
 53 54  1  0  0  0  0
 53142  1  0  0  0  0
 53143  1  0  0  0  0
 54144  1  0  0  0  0
 54145  1  0  0  0  0
 54146  1  0  0  0  0
 55 56  1  0  0  0  0
 55147  1  6  0  0  0
 56 57  1  0  0  0  0
 56148  1  1  0  0  0
 57 58  1  0  0  0  0
 57149  1  6  0  0  0
 58 59  1  0  0  0  0
 58150  1  1  0  0  0
 59 60  1  0  0  0  0
 59151  1  6  0  0  0
 60152  1  0  0  0  0
 60153  1  0  0  0  0
M  CHG  1  21  -1
M  END
$$$$