/media/chris/experiments/cd1a-new-docking/inputs/ligands/7ryn_ligand.pdb
 OpenBabel07032312553D

153153  0  0  1  0  0  0  0  0999 V2000
  -33.0340   65.1330   62.2120 N   0  0  0  0  0  0  0  0  0  0  0  0
  -32.0220   67.3480   62.3220 C   0  0  0  0  0  0  0  0  0  0  0  0
  -33.3204   67.9104   62.5424 O   0  0  0  0  0  0  0  0  0  0  0  0
  -32.1830   66.0840   61.5030 C   0  0  1  0  0  0  0  0  0  0  0  0
  -29.9992   66.3678   60.5104 O   0  0  0  0  0  0  0  0  0  0  0  0
  -30.8310   65.4230   61.1900 C   0  0  2  0  0  0  0  0  0  0  0  0
  -31.7322   64.9724   64.0416 O   0  0  0  0  0  0  0  0  0  0  0  0
  -31.0055   64.1786   60.3744 C   0  0  0  0  0  0  0  0  0  0  0  0
  -35.3151   69.8361   62.1498 O   0  0  0  0  0  0  0  0  0  0  0  0
  -30.2096   63.1284   60.4144 C   0  0  0  0  0  0  0  0  0  0  0  0
  -36.2332   71.0293   64.5551 O   0  0  0  0  0  0  0  0  0  0  0  0
  -30.4192   61.8950   59.5986 C   0  0  0  0  0  0  0  0  0  0  0  0
  -34.7894   69.6393   66.4168 O   0  0  0  0  0  0  0  0  0  0  0  0
  -29.6983   61.9963   58.2528 C   0  0  0  0  0  0  0  0  0  0  0  0
  -32.7334   68.8853   64.5507 O   0  0  0  0  0  0  0  0  0  0  0  0
  -29.8789   60.7821   57.3563 C   0  0  0  0  0  0  0  0  0  0  0  0
  -31.8166   70.8306   67.4934 O   0  0  0  0  0  0  0  0  0  0  0  0
  -29.3880   59.4789   57.9632 C   0  0  0  0  0  0  0  0  0  0  0  0
  -38.0793   72.2327   65.5303 O   0  0  0  0  0  0  0  0  0  0  0  0
  -27.9100   59.4832   58.3256 C   0  0  0  0  0  0  0  0  0  0  0  0
  -35.9141   73.4042   65.0253 O   0  5  0  0  0  0  0  0  0  0  0  0
  -26.9917   59.7458   57.1420 C   0  0  0  0  0  0  0  0  0  0  0  0
  -36.1043   71.8317   66.7937 O   0  0  0  0  0  0  0  0  0  0  0  0
  -27.1305   58.7292   56.0225 C   0  0  0  0  0  0  0  0  0  0  0  0
  -26.2050   58.9755   54.8455 C   0  0  0  0  0  0  0  0  0  0  0  0
  -26.3585   57.9666   53.7203 C   0  0  0  0  0  0  0  0  0  0  0  0
  -27.7513   57.9562   53.1184 C   0  0  0  0  0  0  0  0  0  0  0  0
  -28.1774   59.2753   52.5029 C   0  0  0  0  0  0  0  0  0  0  0  0
  -27.2718   59.7072   51.3662 C   0  0  0  0  0  0  0  0  0  0  0  0
  -27.2558   58.7100   50.2261 C   0  0  0  0  0  0  0  0  0  0  0  0
  -32.7434   64.6519   63.4237 C   0  0  0  0  0  0  0  0  0  0  0  0
  -33.7473   63.6846   63.9996 C   0  0  0  0  0  0  0  0  0  0  0  0
  -33.4387   62.2372   63.6383 C   0  0  0  0  0  0  0  0  0  0  0  0
  -34.4586   61.2614   64.2031 C   0  0  0  0  0  0  0  0  0  0  0  0
  -35.8752   61.4936   63.7046 C   0  0  0  0  0  0  0  0  0  0  0  0
  -36.0265   61.3599   62.1967 C   0  0  0  0  0  0  0  0  0  0  0  0
  -35.6633   59.9824   61.6571 C   0  0  0  0  0  0  0  0  0  0  0  0
  -35.7995   59.8565   60.1452 C   0  0  0  0  0  0  0  0  0  0  0  0
  -34.9100   60.8068   59.3475 C   0  0  0  0  0  0  0  0  0  0  0  0
  -35.1599   62.2854   59.6399 C   0  0  0  0  0  0  0  0  0  0  0  0
  -34.2883   63.2501   58.8361 C   0  0  0  0  0  0  0  0  0  0  0  0
  -34.5481   64.7210   59.1617 C   0  0  0  0  0  0  0  0  0  0  0  0
  -35.9812   65.1943   58.9189 C   0  0  0  0  0  0  0  0  0  0  0  0
  -36.4753   65.0423   57.4778 C   0  0  0  0  0  0  0  0  0  0  0  0
  -35.6362   65.8008   56.4905 C   0  0  0  0  0  0  0  0  0  0  0  0
  -36.0575   66.3308   55.3558 C   0  0  0  0  0  0  0  0  0  0  0  0
  -37.4593   66.2839   54.8275 C   0  0  0  0  0  0  0  0  0  0  0  0
  -37.5405   66.2872   53.2995 C   0  0  0  0  0  0  0  0  0  0  0  0
  -38.9690   66.2565   52.7725 C   0  0  0  0  0  0  0  0  0  0  0  0
  -39.0519   66.2425   51.2502 C   0  0  0  0  0  0  0  0  0  0  0  0
  -40.4718   66.2289   50.6955 C   0  0  0  0  0  0  0  0  0  0  0  0
  -41.2982   67.4426   51.0967 C   0  0  0  0  0  0  0  0  0  0  0  0
  -40.7272   68.7691   50.6212 C   0  0  0  0  0  0  0  0  0  0  0  0
  -40.6238   68.8592   49.1122 C   0  0  0  0  0  0  0  0  0  0  0  0
  -33.3156   69.0988   63.2783 C   0  0  2  0  0  0  0  0  0  0  0  0
  -34.7576   69.5657   63.4297 C   0  0  1  0  0  0  0  0  0  0  0  0
  -34.8089   70.8140   64.3015 C   0  0  2  0  0  0  0  0  0  0  0  0
  -34.0866   70.5888   65.6217 C   0  0  2  0  0  0  0  0  0  0  0  0
  -32.6741   70.0760   65.3523 C   0  0  1  0  0  0  0  0  0  0  0  0
  -31.9211   69.7182   66.6122 C   0  0  0  0  0  0  0  0  0  0  0  0
  -36.6672   72.2789   65.4347 S   0  0  0  0  0  0  0  0  0  0  0  0
  -33.8632   64.8313   61.7754 H   0  0  0  0  0  0  0  0  0  0  0  0
  -31.5648   67.1148   63.2609 H   0  0  0  0  0  0  0  0  0  0  0  0
  -31.4012   68.0473   61.8019 H   0  0  0  0  0  0  0  0  0  0  0  0
  -32.6374   66.3625   60.5752 H   0  0  0  0  0  0  0  0  0  0  0  0
  -29.9008   67.1635   61.0564 H   0  0  0  0  0  0  0  0  0  0  0  0
  -30.3647   65.1308   62.1077 H   0  0  0  0  0  0  0  0  0  0  0  0
  -31.8115   64.1406   59.7311 H   0  0  0  0  0  0  0  0  0  0  0  0
  -35.2768   69.0347   61.6046 H   0  0  0  0  0  0  0  0  0  0  0  0
  -29.3943   63.1604   61.0462 H   0  0  0  0  0  0  0  0  0  0  0  0
  -31.4669   61.7644   59.4250 H   0  0  0  0  0  0  0  0  0  0  0  0
  -30.0204   61.0600   60.1360 H   0  0  0  0  0  0  0  0  0  0  0  0
  -35.6873   69.9632   66.5891 H   0  0  0  0  0  0  0  0  0  0  0  0
  -28.6525   62.1220   58.4409 H   0  0  0  0  0  0  0  0  0  0  0  0
  -30.1292   62.8277   57.7350 H   0  0  0  0  0  0  0  0  0  0  0  0
  -29.3397   60.9529   56.4480 H   0  0  0  0  0  0  0  0  0  0  0  0
  -30.9315   60.6702   57.2000 H   0  0  0  0  0  0  0  0  0  0  0  0
  -31.3292   70.5677   68.2897 H   0  0  0  0  0  0  0  0  0  0  0  0
  -29.5591   58.6933   57.2572 H   0  0  0  0  0  0  0  0  0  0  0  0
  -29.9300   59.3384   58.8751 H   0  0  0  0  0  0  0  0  0  0  0  0
  -38.4697   72.5099   64.6867 H   0  0  0  0  0  0  0  0  0  0  0  0
  -27.6612   58.5290   58.7411 H   0  0  0  0  0  0  0  0  0  0  0  0
  -27.7606   60.2825   59.0211 H   0  0  0  0  0  0  0  0  0  0  0  0
  -25.9798   59.7291   57.4896 H   0  0  0  0  0  0  0  0  0  0  0  0
  -27.2692   60.6963   56.7366 H   0  0  0  0  0  0  0  0  0  0  0  0
  -36.5974   71.0582   67.1092 H   0  0  0  0  0  0  0  0  0  0  0  0
  -28.1397   58.7551   55.6679 H   0  0  0  0  0  0  0  0  0  0  0  0
  -26.8618   57.7784   56.4333 H   0  0  0  0  0  0  0  0  0  0  0  0
  -25.1952   58.9370   55.1972 H   0  0  0  0  0  0  0  0  0  0  0  0
  -26.4633   59.9323   54.4422 H   0  0  0  0  0  0  0  0  0  0  0  0
  -26.1465   56.9912   54.1058 H   0  0  0  0  0  0  0  0  0  0  0  0
  -25.6769   58.2466   52.9445 H   0  0  0  0  0  0  0  0  0  0  0  0
  -28.4481   57.7069   53.8912 H   0  0  0  0  0  0  0  0  0  0  0  0
  -27.7356   57.2394   52.3241 H   0  0  0  0  0  0  0  0  0  0  0  0
  -28.1586   60.0295   53.2616 H   0  0  0  0  0  0  0  0  0  0  0  0
  -29.1607   59.1435   52.1020 H   0  0  0  0  0  0  0  0  0  0  0  0
  -26.2759   59.8140   51.7426 H   0  0  0  0  0  0  0  0  0  0  0  0
  -27.6493   60.6324   50.9835 H   0  0  0  0  0  0  0  0  0  0  0  0
  -26.8819   57.7714   50.5784 H   0  0  0  0  0  0  0  0  0  0  0  0
  -26.6244   59.0741   49.4427 H   0  0  0  0  0  0  0  0  0  0  0  0
  -28.2497   58.5802   49.8518 H   0  0  0  0  0  0  0  0  0  0  0  0
  -34.7176   63.9326   63.6228 H   0  0  0  0  0  0  0  0  0  0  0  0
  -33.7049   63.7691   65.0654 H   0  0  0  0  0  0  0  0  0  0  0  0
  -32.4735   61.9860   64.0258 H   0  0  0  0  0  0  0  0  0  0  0  0
  -33.4702   62.1564   62.5718 H   0  0  0  0  0  0  0  0  0  0  0  0
  -34.4575   61.3526   65.2692 H   0  0  0  0  0  0  0  0  0  0  0  0
  -34.1697   60.2852   63.8738 H   0  0  0  0  0  0  0  0  0  0  0  0
  -36.1744   62.4814   63.9871 H   0  0  0  0  0  0  0  0  0  0  0  0
  -36.4887   60.7369   64.1471 H   0  0  0  0  0  0  0  0  0  0  0  0
  -35.3908   62.0826   61.7294 H   0  0  0  0  0  0  0  0  0  0  0  0
  -37.0614   61.5164   61.9744 H   0  0  0  0  0  0  0  0  0  0  0  0
  -36.3073   59.2607   62.1147 H   0  0  0  0  0  0  0  0  0  0  0  0
  -34.6320   59.8191   61.8909 H   0  0  0  0  0  0  0  0  0  0  0  0
  -36.8181   60.0539   59.8839 H   0  0  0  0  0  0  0  0  0  0  0  0
  -35.4873   58.8645   59.8933 H   0  0  0  0  0  0  0  0  0  0  0  0
  -35.0843   60.6358   58.3058 H   0  0  0  0  0  0  0  0  0  0  0  0
  -33.9004   60.6008   59.6360 H   0  0  0  0  0  0  0  0  0  0  0  0
  -34.9744   62.4558   60.6798 H   0  0  0  0  0  0  0  0  0  0  0  0
  -36.1723   62.4835   59.3557 H   0  0  0  0  0  0  0  0  0  0  0  0
  -34.4814   63.0942   57.7953 H   0  0  0  0  0  0  0  0  0  0  0  0
  -33.2704   63.0451   59.0946 H   0  0  0  0  0  0  0  0  0  0  0  0
  -33.8956   65.3150   58.5564 H   0  0  0  0  0  0  0  0  0  0  0  0
  -34.3715   64.8301   60.2114 H   0  0  0  0  0  0  0  0  0  0  0  0
  -36.0382   66.2298   59.1823 H   0  0  0  0  0  0  0  0  0  0  0  0
  -36.6091   64.5692   59.5188 H   0  0  0  0  0  0  0  0  0  0  0  0
  -37.4805   65.4046   57.4213 H   0  0  0  0  0  0  0  0  0  0  0  0
  -36.4116   64.0049   57.2238 H   0  0  0  0  0  0  0  0  0  0  0  0
  -34.6369   65.9193   56.7194 H   0  0  0  0  0  0  0  0  0  0  0  0
  -35.3564   66.8227   54.7801 H   0  0  0  0  0  0  0  0  0  0  0  0
  -37.9880   67.1381   55.1959 H   0  0  0  0  0  0  0  0  0  0  0  0
  -37.8889   65.3627   55.1618 H   0  0  0  0  0  0  0  0  0  0  0  0
  -37.0236   65.4263   52.9300 H   0  0  0  0  0  0  0  0  0  0  0  0
  -37.0970   67.2000   52.9604 H   0  0  0  0  0  0  0  0  0  0  0  0
  -39.4821   67.1238   53.1322 H   0  0  0  0  0  0  0  0  0  0  0  0
  -39.4154   65.3490   53.1217 H   0  0  0  0  0  0  0  0  0  0  0  0
  -38.5461   65.3688   50.8958 H   0  0  0  0  0  0  0  0  0  0  0  0
  -38.6014   67.1523   50.9121 H   0  0  0  0  0  0  0  0  0  0  0  0
  -40.9660   65.3503   51.0543 H   0  0  0  0  0  0  0  0  0  0  0  0
  -40.3904   66.2453   49.6287 H   0  0  0  0  0  0  0  0  0  0  0  0
  -41.3614   67.4677   52.1645 H   0  0  0  0  0  0  0  0  0  0  0  0
  -42.2538   67.3330   50.6278 H   0  0  0  0  0  0  0  0  0  0  0  0
  -39.7491   68.8889   51.0383 H   0  0  0  0  0  0  0  0  0  0  0  0
  -41.3947   69.5404   50.9441 H   0  0  0  0  0  0  0  0  0  0  0  0
  -39.9612   68.0991   48.7541 H   0  0  0  0  0  0  0  0  0  0  0  0
  -40.2445   69.8213   48.8375 H   0  0  0  0  0  0  0  0  0  0  0  0
  -41.5925   68.7208   48.6794 H   0  0  0  0  0  0  0  0  0  0  0  0
  -32.7377   69.8438   62.7723 H   0  0  0  0  0  0  0  0  0  0  0  0
  -35.3300   68.7932   63.8992 H   0  0  0  0  0  0  0  0  0  0  0  0
  -34.3360   71.6474   63.8253 H   0  0  0  0  0  0  0  0  0  0  0  0
  -34.0399   71.5181   66.1499 H   0  0  0  0  0  0  0  0  0  0  0  0
  -32.1619   70.8745   64.8573 H   0  0  0  0  0  0  0  0  0  0  0  0
  -32.4378   68.9261   67.1126 H   0  0  0  0  0  0  0  0  0  0  0  0
  -30.9325   69.4152   66.3368 H   0  0  0  0  0  0  0  0  0  0  0  0
  1  4  1  0  0  0  0
  1 31  1  0  0  0  0
  1 62  1  0  0  0  0
  2  3  1  0  0  0  0
  2  4  1  0  0  0  0
  2 63  1  0  0  0  0
  2 64  1  0  0  0  0
  3 55  1  0  0  0  0
  4  6  1  0  0  0  0
  4 65  1  6  0  0  0
  5  6  1  0  0  0  0
  5 66  1  0  0  0  0
  6  8  1  0  0  0  0
  6 67  1  1  0  0  0
  7 31  2  0  0  0  0
  8 10  2  0  0  0  0
  8 68  1  0  0  0  0
  9 56  1  0  0  0  0
  9 69  1  0  0  0  0
 10 12  1  0  0  0  0
 10 70  1  0  0  0  0
 11 57  1  0  0  0  0
 11 61  1  0  0  0  0
 12 14  1  0  0  0  0
 12 71  1  0  0  0  0
 12 72  1  0  0  0  0
 13 58  1  0  0  0  0
 13 73  1  0  0  0  0
 14 16  1  0  0  0  0
 14 74  1  0  0  0  0
 14 75  1  0  0  0  0
 15 55  1  0  0  0  0
 15 59  1  0  0  0  0
 16 18  1  0  0  0  0
 16 76  1  0  0  0  0
 16 77  1  0  0  0  0
 17 60  1  0  0  0  0
 17 78  1  0  0  0  0
 18 20  1  0  0  0  0
 18 79  1  0  0  0  0
 18 80  1  0  0  0  0
 19 61  1  0  0  0  0
 19 81  1  0  0  0  0
 20 22  1  0  0  0  0
 20 82  1  0  0  0  0
 20 83  1  0  0  0  0
 21 61  1  0  0  0  0
 22 24  1  0  0  0  0
 22 84  1  0  0  0  0
 22 85  1  0  0  0  0
 23 61  1  0  0  0  0
 23 86  1  0  0  0  0
 24 25  1  0  0  0  0
 24 87  1  0  0  0  0
 24 88  1  0  0  0  0
 25 26  1  0  0  0  0
 25 89  1  0  0  0  0
 25 90  1  0  0  0  0
 26 27  1  0  0  0  0
 26 91  1  0  0  0  0
 26 92  1  0  0  0  0
 27 28  1  0  0  0  0
 27 93  1  0  0  0  0
 27 94  1  0  0  0  0
 28 29  1  0  0  0  0
 28 95  1  0  0  0  0
 28 96  1  0  0  0  0
 29 30  1  0  0  0  0
 29 97  1  0  0  0  0
 29 98  1  0  0  0  0
 30 99  1  0  0  0  0
 30100  1  0  0  0  0
 30101  1  0  0  0  0
 31 32  1  0  0  0  0
 32 33  1  0  0  0  0
 32102  1  0  0  0  0
 32103  1  0  0  0  0
 33 34  1  0  0  0  0
 33104  1  0  0  0  0
 33105  1  0  0  0  0
 34 35  1  0  0  0  0
 34106  1  0  0  0  0
 34107  1  0  0  0  0
 35 36  1  0  0  0  0
 35108  1  0  0  0  0
 35109  1  0  0  0  0
 36 37  1  0  0  0  0
 36110  1  0  0  0  0
 36111  1  0  0  0  0
 37 38  1  0  0  0  0
 37112  1  0  0  0  0
 37113  1  0  0  0  0
 38 39  1  0  0  0  0
 38114  1  0  0  0  0
 38115  1  0  0  0  0
 39 40  1  0  0  0  0
 39116  1  0  0  0  0
 39117  1  0  0  0  0
 40 41  1  0  0  0  0
 40118  1  0  0  0  0
 40119  1  0  0  0  0
 41 42  1  0  0  0  0
 41120  1  0  0  0  0
 41121  1  0  0  0  0
 42 43  1  0  0  0  0
 42122  1  0  0  0  0
 42123  1  0  0  0  0
 43 44  1  0  0  0  0
 43124  1  0  0  0  0
 43125  1  0  0  0  0
 44 45  1  0  0  0  0
 44126  1  0  0  0  0
 44127  1  0  0  0  0
 45 46  2  0  0  0  0
 45128  1  0  0  0  0
 46 47  1  0  0  0  0
 46129  1  0  0  0  0
 47 48  1  0  0  0  0
 47130  1  0  0  0  0
 47131  1  0  0  0  0
 48 49  1  0  0  0  0
 48132  1  0  0  0  0
 48133  1  0  0  0  0
 49 50  1  0  0  0  0
 49134  1  0  0  0  0
 49135  1  0  0  0  0
 50 51  1  0  0  0  0
 50136  1  0  0  0  0
 50137  1  0  0  0  0
 51 52  1  0  0  0  0
 51138  1  0  0  0  0
 51139  1  0  0  0  0
 52 53  1  0  0  0  0
 52140  1  0  0  0  0
 52141  1  0  0  0  0
 53 54  1  0  0  0  0
 53142  1  0  0  0  0
 53143  1  0  0  0  0
 54144  1  0  0  0  0
 54145  1  0  0  0  0
 54146  1  0  0  0  0
 55 56  1  0  0  0  0
 55147  1  6  0  0  0
 56 57  1  0  0  0  0
 56148  1  1  0  0  0
 57 58  1  0  0  0  0
 57149  1  6  0  0  0
 58 59  1  0  0  0  0
 58150  1  1  0  0  0
 59 60  1  0  0  0  0
 59151  1  6  0  0  0
 60152  1  0  0  0  0
 60153  1  0  0  0  0
M  CHG  1  21  -1
M  END
$$$$