/media/chris/experiments/cd1a-new-docking/inputs/ligands/7ryn_ligand.pdb
 OpenBabel07032312553D

153153  0  0  1  0  0  0  0  0999 V2000
  -33.0340   65.1330   62.2120 N   0  0  0  0  0  0  0  0  0  0  0  0
  -32.0220   67.3480   62.3220 C   0  0  0  0  0  0  0  0  0  0  0  0
  -31.4051   67.0024   63.5673 O   0  0  0  0  0  0  0  0  0  0  0  0
  -32.1830   66.0840   61.5030 C   0  0  1  0  0  0  0  0  0  0  0  0
  -30.2154   65.0225   62.4176 O   0  0  0  0  0  0  0  0  0  0  0  0
  -30.8310   65.4230   61.1900 C   0  0  2  0  0  0  0  0  0  0  0  0
  -34.2576   66.6787   63.2990 O   0  0  0  0  0  0  0  0  0  0  0  0
  -29.9369   66.3439   60.4177 C   0  0  0  0  0  0  0  0  0  0  0  0
  -29.0472   68.5087   63.4560 O   0  0  0  0  0  0  0  0  0  0  0  0
  -30.3493   67.2791   59.5850 C   0  0  0  0  0  0  0  0  0  0  0  0
  -29.4663   71.3004   63.7442 O   0  0  0  0  0  0  0  0  0  0  0  0
  -29.4320   68.1925   58.8402 C   0  0  0  0  0  0  0  0  0  0  0  0
  -32.1950   71.4092   63.9043 O   0  0  0  0  0  0  0  0  0  0  0  0
  -28.0884   67.5157   58.5614 C   0  0  0  0  0  0  0  0  0  0  0  0
  -32.4523   68.6756   64.7639 O   0  0  0  0  0  0  0  0  0  0  0  0
  -27.0919   68.3911   57.8191 C   0  0  0  0  0  0  0  0  0  0  0  0
  -34.4615   70.6093   64.8705 O   0  0  0  0  0  0  0  0  0  0  0  0
  -25.7632   67.7152   57.5264 C   0  0  0  0  0  0  0  0  0  0  0  0
  -27.6225   72.0302   62.3750 O   0  0  0  0  0  0  0  0  0  0  0  0
  -24.7646   68.6030   56.7982 C   0  0  0  0  0  0  0  0  0  0  0  0
  -28.0944   69.5812   62.6834 O   0  5  0  0  0  0  0  0  0  0  0  0
  -23.4433   67.9139   56.4938 C   0  0  0  0  0  0  0  0  0  0  0  0
  -27.2205   70.9190   64.4392 O   0  0  0  0  0  0  0  0  0  0  0  0
  -23.5815   66.6920   55.6027 C   0  0  0  0  0  0  0  0  0  0  0  0
  -24.1701   66.9872   54.2357 C   0  0  0  0  0  0  0  0  0  0  0  0
  -23.3459   67.9578   53.4073 C   0  0  0  0  0  0  0  0  0  0  0  0
  -23.1665   69.3069   54.0782 C   0  0  0  0  0  0  0  0  0  0  0  0
  -22.3618   70.3064   53.2696 C   0  0  0  0  0  0  0  0  0  0  0  0
  -22.1932   71.6328   53.9842 C   0  0  0  0  0  0  0  0  0  0  0  0
  -21.4039   72.6355   53.1681 C   0  0  0  0  0  0  0  0  0  0  0  0
  -34.0033   65.5031   63.0532 C   0  0  0  0  0  0  0  0  0  0  0  0
  -34.7826   64.3775   63.6864 C   0  0  0  0  0  0  0  0  0  0  0  0
  -35.8794   64.8771   64.6180 C   0  0  0  0  0  0  0  0  0  0  0  0
  -36.9102   65.7359   63.9029 C   0  0  0  0  0  0  0  0  0  0  0  0
  -36.3285   66.9745   63.2420 C   0  0  0  0  0  0  0  0  0  0  0  0
  -37.3637   67.8417   62.5414 C   0  0  0  0  0  0  0  0  0  0  0  0
  -36.7819   69.0755   61.8631 C   0  0  0  0  0  0  0  0  0  0  0  0
  -35.7642   68.7591   60.7748 C   0  0  0  0  0  0  0  0  0  0  0  0
  -35.1593   69.9858   60.0969 C   0  0  0  0  0  0  0  0  0  0  0  0
  -34.1530   69.6553   58.9958 C   0  0  0  0  0  0  0  0  0  0  0  0
  -33.5258   70.8739   58.3191 C   0  0  0  0  0  0  0  0  0  0  0  0
  -32.5365   70.5130   57.2108 C   0  0  0  0  0  0  0  0  0  0  0  0
  -31.8746   71.7055   56.5205 C   0  0  0  0  0  0  0  0  0  0  0  0
  -30.8973   71.3411   55.3997 C   0  0  0  0  0  0  0  0  0  0  0  0
  -29.7628   70.4789   55.8726 C   0  0  0  0  0  0  0  0  0  0  0  0
  -29.1198   69.5754   55.1543 C   0  0  0  0  0  0  0  0  0  0  0  0
  -29.3921   69.2315   53.7212 C   0  0  0  0  0  0  0  0  0  0  0  0
  -28.5804   70.0622   52.7249 C   0  0  0  0  0  0  0  0  0  0  0  0
  -28.8764   69.7174   51.2714 C   0  0  0  0  0  0  0  0  0  0  0  0
  -28.0563   70.5320   50.2774 C   0  0  0  0  0  0  0  0  0  0  0  0
  -26.5482   70.3496   50.4040 C   0  0  0  0  0  0  0  0  0  0  0  0
  -26.0827   68.9181   50.1774 C   0  0  0  0  0  0  0  0  0  0  0  0
  -24.5816   68.7221   50.3182 C   0  0  0  0  0  0  0  0  0  0  0  0
  -24.1482   67.2915   50.0703 C   0  0  0  0  0  0  0  0  0  0  0  0
  -31.2104   68.0828   64.4327 C   0  0  2  0  0  0  0  0  0  0  0  0
  -30.3138   69.0941   63.7304 C   0  0  1  0  0  0  0  0  0  0  0  0
  -30.1449   70.3308   64.6038 C   0  0  2  0  0  0  0  0  0  0  0  0
  -31.4954   70.8877   65.0296 C   0  0  2  0  0  0  0  0  0  0  0  0
  -32.3266   69.7807   65.6732 C   0  0  1  0  0  0  0  0  0  0  0  0
  -33.7288   70.2187   66.0260 C   0  0  0  0  0  0  0  0  0  0  0  0
  -28.0466   70.9183   63.1425 S   0  0  0  0  0  0  0  0  0  0  0  0
  -32.8861   64.1712   62.0627 H   0  0  0  0  0  0  0  0  0  0  0  0
  -31.4053   68.0450   61.7940 H   0  0  0  0  0  0  0  0  0  0  0  0
  -32.9770   67.7979   62.4965 H   0  0  0  0  0  0  0  0  0  0  0  0
  -32.6374   66.3625   60.5752 H   0  0  0  0  0  0  0  0  0  0  0  0
  -30.8116   64.4280   62.8994 H   0  0  0  0  0  0  0  0  0  0  0  0
  -30.9971   64.5628   60.5757 H   0  0  0  0  0  0  0  0  0  0  0  0
  -28.9186   66.2380   60.5475 H   0  0  0  0  0  0  0  0  0  0  0  0
  -29.1677   67.7231   62.8999 H   0  0  0  0  0  0  0  0  0  0  0  0
  -31.3654   67.3862   59.4394 H   0  0  0  0  0  0  0  0  0  0  0  0
  -29.2652   69.0732   59.4246 H   0  0  0  0  0  0  0  0  0  0  0  0
  -29.8872   68.4430   57.9048 H   0  0  0  0  0  0  0  0  0  0  0  0
  -31.6684   72.1129   63.4939 H   0  0  0  0  0  0  0  0  0  0  0  0
  -28.2693   66.6403   57.9733 H   0  0  0  0  0  0  0  0  0  0  0  0
  -27.6530   67.2931   59.5131 H   0  0  0  0  0  0  0  0  0  0  0  0
  -26.9020   69.2606   58.4131 H   0  0  0  0  0  0  0  0  0  0  0  0
  -27.5331   68.6229   56.8722 H   0  0  0  0  0  0  0  0  0  0  0  0
  -35.3545   70.8838   65.1313 H   0  0  0  0  0  0  0  0  0  0  0  0
  -25.9505   66.8528   56.9214 H   0  0  0  0  0  0  0  0  0  0  0  0
  -25.3265   67.4685   58.4716 H   0  0  0  0  0  0  0  0  0  0  0  0
  -28.1249   72.0612   61.5458 H   0  0  0  0  0  0  0  0  0  0  0  0
  -24.5663   69.4595   57.4081 H   0  0  0  0  0  0  0  0  0  0  0  0
  -25.2050   68.8642   55.8587 H   0  0  0  0  0  0  0  0  0  0  0  0
  -23.0008   67.6087   57.4189 H   0  0  0  0  0  0  0  0  0  0  0  0
  -22.8380   68.6196   55.9641 H   0  0  0  0  0  0  0  0  0  0  0  0
  -27.1647   71.8230   64.7865 H   0  0  0  0  0  0  0  0  0  0  0  0
  -24.2157   65.9857   56.0965 H   0  0  0  0  0  0  0  0  0  0  0  0
  -22.5934   66.3154   55.4391 H   0  0  0  0  0  0  0  0  0  0  0  0
  -25.1458   67.4048   54.3720 H   0  0  0  0  0  0  0  0  0  0  0  0
  -24.1908   66.0613   53.6999 H   0  0  0  0  0  0  0  0  0  0  0  0
  -23.8368   68.1066   52.4682 H   0  0  0  0  0  0  0  0  0  0  0  0
  -22.3731   67.5289   53.2863 H   0  0  0  0  0  0  0  0  0  0  0  0
  -22.6674   69.1527   55.0120 H   0  0  0  0  0  0  0  0  0  0  0  0
  -24.1453   69.7239   54.1924 H   0  0  0  0  0  0  0  0  0  0  0  0
  -22.8636   70.4789   52.3404 H   0  0  0  0  0  0  0  0  0  0  0  0
  -21.3865   69.8923   53.1201 H   0  0  0  0  0  0  0  0  0  0  0  0
  -21.6802   71.4623   54.9076 H   0  0  0  0  0  0  0  0  0  0  0  0
  -23.1689   72.0413   54.1456 H   0  0  0  0  0  0  0  0  0  0  0  0
  -20.4201   72.2544   52.9894 H   0  0  0  0  0  0  0  0  0  0  0  0
  -21.3368   73.5585   53.7050 H   0  0  0  0  0  0  0  0  0  0  0  0
  -21.8971   72.8017   52.2332 H   0  0  0  0  0  0  0  0  0  0  0  0
  -34.1073   63.7667   64.2484 H   0  0  0  0  0  0  0  0  0  0  0  0
  -35.2520   63.8250   62.8995 H   0  0  0  0  0  0  0  0  0  0  0  0
  -35.4296   65.4585   65.3956 H   0  0  0  0  0  0  0  0  0  0  0  0
  -36.3874   64.0201   65.0082 H   0  0  0  0  0  0  0  0  0  0  0  0
  -37.6428   66.0480   64.6176 H   0  0  0  0  0  0  0  0  0  0  0  0
  -37.3275   65.1346   63.1224 H   0  0  0  0  0  0  0  0  0  0  0  0
  -35.6049   66.6622   62.5184 H   0  0  0  0  0  0  0  0  0  0  0  0
  -35.8994   67.5700   64.0206 H   0  0  0  0  0  0  0  0  0  0  0  0
  -38.0802   68.1635   63.2679 H   0  0  0  0  0  0  0  0  0  0  0  0
  -37.7996   67.2413   61.7704 H   0  0  0  0  0  0  0  0  0  0  0  0
  -36.3027   69.6752   62.6085 H   0  0  0  0  0  0  0  0  0  0  0  0
  -37.5962   69.5825   61.3892 H   0  0  0  0  0  0  0  0  0  0  0  0
  -36.2489   68.1685   60.0257 H   0  0  0  0  0  0  0  0  0  0  0  0
  -34.9561   68.2469   61.2538 H   0  0  0  0  0  0  0  0  0  0  0  0
  -34.6622   70.5711   60.8422 H   0  0  0  0  0  0  0  0  0  0  0  0
  -35.9665   70.5112   59.6307 H   0  0  0  0  0  0  0  0  0  0  0  0
  -34.6552   69.0794   58.2468 H   0  0  0  0  0  0  0  0  0  0  0  0
  -33.3520   69.1247   59.4668 H   0  0  0  0  0  0  0  0  0  0  0  0
  -33.0091   71.4454   59.0616 H   0  0  0  0  0  0  0  0  0  0  0  0
  -34.3214   71.4258   57.8638 H   0  0  0  0  0  0  0  0  0  0  0  0
  -33.0615   69.9494   56.4681 H   0  0  0  0  0  0  0  0  0  0  0  0
  -31.7473   69.9651   57.6818 H   0  0  0  0  0  0  0  0  0  0  0  0
  -31.3389   72.2625   57.2605 H   0  0  0  0  0  0  0  0  0  0  0  0
  -32.6643   72.2620   56.0606 H   0  0  0  0  0  0  0  0  0  0  0  0
  -30.4931   72.2440   54.9919 H   0  0  0  0  0  0  0  0  0  0  0  0
  -31.4418   70.7827   54.6672 H   0  0  0  0  0  0  0  0  0  0  0  0
  -29.4565   70.6036   56.8502 H   0  0  0  0  0  0  0  0  0  0  0  0
  -28.3597   69.0586   55.6235 H   0  0  0  0  0  0  0  0  0  0  0  0
  -30.4320   69.3921   53.5269 H   0  0  0  0  0  0  0  0  0  0  0  0
  -29.1045   68.2100   53.5844 H   0  0  0  0  0  0  0  0  0  0  0  0
  -27.5401   69.8924   52.9092 H   0  0  0  0  0  0  0  0  0  0  0  0
  -28.8535   71.0866   52.8697 H   0  0  0  0  0  0  0  0  0  0  0  0
  -29.9142   69.8989   51.0842 H   0  0  0  0  0  0  0  0  0  0  0  0
  -28.6140   68.6897   51.1305 H   0  0  0  0  0  0  0  0  0  0  0  0
  -28.2816   71.5672   50.4270 H   0  0  0  0  0  0  0  0  0  0  0  0
  -28.3247   70.1826   49.3023 H   0  0  0  0  0  0  0  0  0  0  0  0
  -26.2534   70.6486   51.3882 H   0  0  0  0  0  0  0  0  0  0  0  0
  -26.0960   70.9493   49.6419 H   0  0  0  0  0  0  0  0  0  0  0  0
  -26.3684   68.6247   49.1888 H   0  0  0  0  0  0  0  0  0  0  0  0
  -26.5437   68.3207   50.9361 H   0  0  0  0  0  0  0  0  0  0  0  0
  -24.2926   68.9994   51.3104 H   0  0  0  0  0  0  0  0  0  0  0  0
  -24.1071   69.3341   49.5797 H   0  0  0  0  0  0  0  0  0  0  0  0
  -24.6060   66.6497   50.7937 H   0  0  0  0  0  0  0  0  0  0  0  0
  -23.0838   67.2216   50.1543 H   0  0  0  0  0  0  0  0  0  0  0  0
  -24.4488   66.9930   49.0877 H   0  0  0  0  0  0  0  0  0  0  0  0
  -30.7515   67.7503   65.3403 H   0  0  0  0  0  0  0  0  0  0  0  0
  -30.7674   69.3839   62.8057 H   0  0  0  0  0  0  0  0  0  0  0  0
  -29.6019   70.1103   65.4990 H   0  0  0  0  0  0  0  0  0  0  0  0
  -31.3342   71.6761   65.7349 H   0  0  0  0  0  0  0  0  0  0  0  0
  -31.8112   69.5117   66.5715 H   0  0  0  0  0  0  0  0  0  0  0  0
  -34.2372   69.4060   66.5014 H   0  0  0  0  0  0  0  0  0  0  0  0
  -33.6613   71.0623   66.6807 H   0  0  0  0  0  0  0  0  0  0  0  0
  1  4  1  0  0  0  0
  1 31  1  0  0  0  0
  1 62  1  0  0  0  0
  2  3  1  0  0  0  0
  2  4  1  0  0  0  0
  2 63  1  0  0  0  0
  2 64  1  0  0  0  0
  3 55  1  0  0  0  0
  4  6  1  0  0  0  0
  4 65  1  6  0  0  0
  5  6  1  0  0  0  0
  5 66  1  0  0  0  0
  6  8  1  0  0  0  0
  6 67  1  6  0  0  0
  7 31  2  0  0  0  0
  8 10  2  0  0  0  0
  8 68  1  0  0  0  0
  9 56  1  0  0  0  0
  9 69  1  0  0  0  0
 10 12  1  0  0  0  0
 10 70  1  0  0  0  0
 11 57  1  0  0  0  0
 11 61  1  0  0  0  0
 12 14  1  0  0  0  0
 12 71  1  0  0  0  0
 12 72  1  0  0  0  0
 13 58  1  0  0  0  0
 13 73  1  0  0  0  0
 14 16  1  0  0  0  0
 14 74  1  0  0  0  0
 14 75  1  0  0  0  0
 15 55  1  0  0  0  0
 15 59  1  0  0  0  0
 16 18  1  0  0  0  0
 16 76  1  0  0  0  0
 16 77  1  0  0  0  0
 17 60  1  0  0  0  0
 17 78  1  0  0  0  0
 18 20  1  0  0  0  0
 18 79  1  0  0  0  0
 18 80  1  0  0  0  0
 19 61  1  0  0  0  0
 19 81  1  0  0  0  0
 20 22  1  0  0  0  0
 20 82  1  0  0  0  0
 20 83  1  0  0  0  0
 21 61  1  0  0  0  0
 22 24  1  0  0  0  0
 22 84  1  0  0  0  0
 22 85  1  0  0  0  0
 23 61  1  0  0  0  0
 23 86  1  0  0  0  0
 24 25  1  0  0  0  0
 24 87  1  0  0  0  0
 24 88  1  0  0  0  0
 25 26  1  0  0  0  0
 25 89  1  0  0  0  0
 25 90  1  0  0  0  0
 26 27  1  0  0  0  0
 26 91  1  0  0  0  0
 26 92  1  0  0  0  0
 27 28  1  0  0  0  0
 27 93  1  0  0  0  0
 27 94  1  0  0  0  0
 28 29  1  0  0  0  0
 28 95  1  0  0  0  0
 28 96  1  0  0  0  0
 29 30  1  0  0  0  0
 29 97  1  0  0  0  0
 29 98  1  0  0  0  0
 30 99  1  0  0  0  0
 30100  1  0  0  0  0
 30101  1  0  0  0  0
 31 32  1  0  0  0  0
 32 33  1  0  0  0  0
 32102  1  0  0  0  0
 32103  1  0  0  0  0
 33 34  1  0  0  0  0
 33104  1  0  0  0  0
 33105  1  0  0  0  0
 34 35  1  0  0  0  0
 34106  1  0  0  0  0
 34107  1  0  0  0  0
 35 36  1  0  0  0  0
 35108  1  0  0  0  0
 35109  1  0  0  0  0
 36 37  1  0  0  0  0
 36110  1  0  0  0  0
 36111  1  0  0  0  0
 37 38  1  0  0  0  0
 37112  1  0  0  0  0
 37113  1  0  0  0  0
 38 39  1  0  0  0  0
 38114  1  0  0  0  0
 38115  1  0  0  0  0
 39 40  1  0  0  0  0
 39116  1  0  0  0  0
 39117  1  0  0  0  0
 40 41  1  0  0  0  0
 40118  1  0  0  0  0
 40119  1  0  0  0  0
 41 42  1  0  0  0  0
 41120  1  0  0  0  0
 41121  1  0  0  0  0
 42 43  1  0  0  0  0
 42122  1  0  0  0  0
 42123  1  0  0  0  0
 43 44  1  0  0  0  0
 43124  1  0  0  0  0
 43125  1  0  0  0  0
 44 45  1  0  0  0  0
 44126  1  0  0  0  0
 44127  1  0  0  0  0
 45 46  2  0  0  0  0
 45128  1  0  0  0  0
 46 47  1  0  0  0  0
 46129  1  0  0  0  0
 47 48  1  0  0  0  0
 47130  1  0  0  0  0
 47131  1  0  0  0  0
 48 49  1  0  0  0  0
 48132  1  0  0  0  0
 48133  1  0  0  0  0
 49 50  1  0  0  0  0
 49134  1  0  0  0  0
 49135  1  0  0  0  0
 50 51  1  0  0  0  0
 50136  1  0  0  0  0
 50137  1  0  0  0  0
 51 52  1  0  0  0  0
 51138  1  0  0  0  0
 51139  1  0  0  0  0
 52 53  1  0  0  0  0
 52140  1  0  0  0  0
 52141  1  0  0  0  0
 53 54  1  0  0  0  0
 53142  1  0  0  0  0
 53143  1  0  0  0  0
 54144  1  0  0  0  0
 54145  1  0  0  0  0
 54146  1  0  0  0  0
 55 56  1  0  0  0  0
 55147  1  1  0  0  0
 56 57  1  0  0  0  0
 56148  1  6  0  0  0
 57 58  1  0  0  0  0
 57149  1  1  0  0  0
 58 59  1  0  0  0  0
 58150  1  1  0  0  0
 59 60  1  0  0  0  0
 59151  1  1  0  0  0
 60152  1  0  0  0  0
 60153  1  0  0  0  0
M  CHG  1  21  -1
M  END
$$$$
/media/chris/experiments/cd1a-new-docking/inputs/ligands/7ryn_ligand.pdb
 OpenBabel07032312553D

153153  0  0  1  0  0  0  0  0999 V2000
  -33.0340   65.1330   62.2120 N   0  0  0  0  0  0  0  0  0  0  0  0
  -32.0220   67.3480   62.3220 C   0  0  0  0  0  0  0  0  0  0  0  0
  -31.1969   68.2589   61.5870 O   0  0  0  0  0  0  0  0  0  0  0  0
  -32.1830   66.0840   61.5030 C   0  0  1  0  0  0  0  0  0  0  0  0
  -30.2154   65.0225   62.4176 O   0  0  0  0  0  0  0  0  0  0  0  0
  -30.8310   65.4230   61.1900 C   0  0  2  0  0  0  0  0  0  0  0  0
  -34.6226   65.0093   60.6217 O   0  0  0  0  0  0  0  0  0  0  0  0
  -29.9369   66.3439   60.4177 C   0  0  0  0  0  0  0  0  0  0  0  0
  -30.5919   70.7636   60.4909 O   0  0  0  0  0  0  0  0  0  0  0  0
  -28.6200   66.3494   60.4787 C   0  0  0  0  0  0  0  0  0  0  0  0
  -30.1038   70.6942   57.6964 O   0  0  0  0  0  0  0  0  0  0  0  0
  -27.7547   67.2714   59.6837 C   0  0  0  0  0  0  0  0  0  0  0  0
  -30.3176   68.0143   57.1911 O   0  0  0  0  0  0  0  0  0  0  0  0
  -28.4200   67.6432   58.3570 C   0  0  0  0  0  0  0  0  0  0  0  0
  -31.9134   67.4984   59.5287 O   0  0  0  0  0  0  0  0  0  0  0  0
  -28.7306   66.4550   57.4612 C   0  0  0  0  0  0  0  0  0  0  0  0
  -33.2824   66.6972   56.2473 O   0  0  0  0  0  0  0  0  0  0  0  0
  -27.5144   65.6332   57.0696 C   0  0  0  0  0  0  0  0  0  0  0  0
  -29.0479   71.8916   55.8913 O   0  0  0  0  0  0  0  0  0  0  0  0
  -27.8305   64.4554   56.1592 C   0  0  0  0  0  0  0  0  0  0  0  0
  -31.5517   71.8438   56.1010 O   0  5  0  0  0  0  0  0  0  0  0  0
  -28.8091   63.4609   56.7646 C   0  0  0  0  0  0  0  0  0  0  0  0
  -30.3125   69.9256   55.4519 O   0  0  0  0  0  0  0  0  0  0  0  0
  -28.3296   62.8469   58.0681 C   0  0  0  0  0  0  0  0  0  0  0  0
  -29.2936   61.8409   58.6690 C   0  0  0  0  0  0  0  0  0  0  0  0
  -30.6655   62.4138   58.9811 C   0  0  0  0  0  0  0  0  0  0  0  0
  -31.6077   61.3959   59.5966 C   0  0  0  0  0  0  0  0  0  0  0  0
  -31.8656   60.1776   58.7308 C   0  0  0  0  0  0  0  0  0  0  0  0
  -30.6007   59.3972   58.4316 C   0  0  0  0  0  0  0  0  0  0  0  0
  -29.9315   58.8736   59.6856 C   0  0  0  0  0  0  0  0  0  0  0  0
  -34.1853   64.6703   61.7176 C   0  0  0  0  0  0  0  0  0  0  0  0
  -34.9232   63.6880   62.5927 C   0  0  0  0  0  0  0  0  0  0  0  0
  -35.1194   62.3363   61.9181 C   0  0  0  0  0  0  0  0  0  0  0  0
  -33.8042   61.6607   61.5647 C   0  0  0  0  0  0  0  0  0  0  0  0
  -32.9178   61.3719   62.7648 C   0  0  0  0  0  0  0  0  0  0  0  0
  -33.5517   60.4416   63.7881 C   0  0  0  0  0  0  0  0  0  0  0  0
  -33.8983   59.0627   63.2412 C   0  0  0  0  0  0  0  0  0  0  0  0
  -34.5483   58.1391   64.2634 C   0  0  0  0  0  0  0  0  0  0  0  0
  -35.8711   58.6503   64.8286 C   0  0  0  0  0  0  0  0  0  0  0  0
  -36.5044   57.7235   65.8650 C   0  0  0  0  0  0  0  0  0  0  0  0
  -36.8174   56.3169   65.3552 C   0  0  0  0  0  0  0  0  0  0  0  0
  -37.7793   56.3000   64.1669 C   0  0  0  0  0  0  0  0  0  0  0  0
  -38.1306   54.9094   63.6384 C   0  0  0  0  0  0  0  0  0  0  0  0
  -36.9359   54.0810   63.1582 C   0  0  0  0  0  0  0  0  0  0  0  0
  -37.3347   52.7319   62.6337 C   0  0  0  0  0  0  0  0  0  0  0  0
  -36.6037   51.6321   62.6785 C   0  0  0  0  0  0  0  0  0  0  0  0
  -35.2300   51.5097   63.2649 C   0  0  0  0  0  0  0  0  0  0  0  0
  -34.1069   51.7723   62.2593 C   0  0  0  0  0  0  0  0  0  0  0  0
  -32.7149   51.6289   62.8602 C   0  0  0  0  0  0  0  0  0  0  0  0
  -31.5945   51.9068   61.8643 C   0  0  0  0  0  0  0  0  0  0  0  0
  -31.6047   53.3145   61.2794 C   0  0  0  0  0  0  0  0  0  0  0  0
  -31.4494   54.4126   62.3221 C   0  0  0  0  0  0  0  0  0  0  0  0
  -31.4753   55.8214   61.7508 C   0  0  0  0  0  0  0  0  0  0  0  0
  -32.7755   56.1469   61.0439 C   0  0  0  0  0  0  0  0  0  0  0  0
  -31.7197   68.6370   60.3470 C   0  0  2  0  0  0  0  0  0  0  0  0
  -30.7339   69.5958   59.6920 C   0  0  1  0  0  0  0  0  0  0  0  0
  -31.2217   69.9672   58.2973 C   0  0  2  0  0  0  0  0  0  0  0  0
  -31.5198   68.7232   57.4733 C   0  0  2  0  0  0  0  0  0  0  0  0
  -32.4738   67.8141   58.2442 C   0  0  1  0  0  0  0  0  0  0  0  0
  -32.7367   66.5000   57.5466 C   0  0  0  0  0  0  0  0  0  0  0  0
  -30.2702   71.2568   56.2201 S   0  0  0  0  0  0  0  0  0  0  0  0
  -32.7449   64.8171   63.0985 H   0  0  0  0  0  0  0  0  0  0  0  0
  -32.9806   67.7896   62.4978 H   0  0  0  0  0  0  0  0  0  0  0  0
  -31.5704   67.1208   63.2650 H   0  0  0  0  0  0  0  0  0  0  0  0
  -32.6374   66.3625   60.5752 H   0  0  0  0  0  0  0  0  0  0  0  0
  -30.8116   64.4280   62.8994 H   0  0  0  0  0  0  0  0  0  0  0  0
  -30.9971   64.5628   60.5757 H   0  0  0  0  0  0  0  0  0  0  0  0
  -30.3869   67.0273   59.7888 H   0  0  0  0  0  0  0  0  0  0  0  0
  -30.2812   70.5145   61.3754 H   0  0  0  0  0  0  0  0  0  0  0  0
  -28.1601   65.6775   61.1128 H   0  0  0  0  0  0  0  0  0  0  0  0
  -26.8210   66.7886   59.4834 H   0  0  0  0  0  0  0  0  0  0  0  0
  -27.6011   68.1663   60.2497 H   0  0  0  0  0  0  0  0  0  0  0  0
  -29.7100   68.5903   56.7012 H   0  0  0  0  0  0  0  0  0  0  0  0
  -27.7647   68.3016   57.8259 H   0  0  0  0  0  0  0  0  0  0  0  0
  -29.3574   68.0983   58.6000 H   0  0  0  0  0  0  0  0  0  0  0  0
  -29.1902   66.8206   56.5668 H   0  0  0  0  0  0  0  0  0  0  0  0
  -29.3708   65.8069   58.0225 H   0  0  0  0  0  0  0  0  0  0  0  0
  -33.4388   65.8364   55.8283 H   0  0  0  0  0  0  0  0  0  0  0  0
  -27.0613   65.2561   57.9626 H   0  0  0  0  0  0  0  0  0  0  0  0
  -26.8651   66.2830   56.5210 H   0  0  0  0  0  0  0  0  0  0  0  0
  -28.9870   72.7385   56.3603 H   0  0  0  0  0  0  0  0  0  0  0  0
  -26.9174   63.9416   55.9420 H   0  0  0  0  0  0  0  0  0  0  0  0
  -28.2930   64.8543   55.2806 H   0  0  0  0  0  0  0  0  0  0  0  0
  -28.9691   62.6726   56.0589 H   0  0  0  0  0  0  0  0  0  0  0  0
  -29.7062   64.0007   56.9852 H   0  0  0  0  0  0  0  0  0  0  0  0
  -29.4473   69.4909   55.5105 H   0  0  0  0  0  0  0  0  0  0  0  0
  -28.1811   63.6350   58.7764 H   0  0  0  0  0  0  0  0  0  0  0  0
  -27.4274   62.3161   57.8463 H   0  0  0  0  0  0  0  0  0  0  0  0
  -28.8691   61.4690   59.5781 H   0  0  0  0  0  0  0  0  0  0  0  0
  -29.4367   61.0728   57.9380 H   0  0  0  0  0  0  0  0  0  0  0  0
  -31.0995   62.7737   58.0717 H   0  0  0  0  0  0  0  0  0  0  0  0
  -30.5296   63.1975   59.6967 H   0  0  0  0  0  0  0  0  0  0  0  0
  -32.5445   61.8776   59.7843 H   0  0  0  0  0  0  0  0  0  0  0  0
  -31.1346   61.0421   60.4887 H   0  0  0  0  0  0  0  0  0  0  0  0
  -32.2967   60.4994   57.8059 H   0  0  0  0  0  0  0  0  0  0  0  0
  -32.5259   59.5307   59.2698 H   0  0  0  0  0  0  0  0  0  0  0  0
  -29.9149   60.0389   57.9190 H   0  0  0  0  0  0  0  0  0  0  0  0
  -30.8734   58.5537   57.8323 H   0  0  0  0  0  0  0  0  0  0  0  0
  -29.6463   59.6962   60.3076 H   0  0  0  0  0  0  0  0  0  0  0  0
  -29.0619   58.3109   59.4173 H   0  0  0  0  0  0  0  0  0  0  0  0
  -30.6137   58.2439   60.2176 H   0  0  0  0  0  0  0  0  0  0  0  0
  -35.8837   64.0950   62.8308 H   0  0  0  0  0  0  0  0  0  0  0  0
  -34.3335   63.5295   63.4714 H   0  0  0  0  0  0  0  0  0  0  0  0
  -35.6824   62.4805   61.0198 H   0  0  0  0  0  0  0  0  0  0  0  0
  -35.6333   61.7015   62.6095 H   0  0  0  0  0  0  0  0  0  0  0  0
  -33.2668   62.2992   60.8950 H   0  0  0  0  0  0  0  0  0  0  0  0
  -34.0486   60.7164   61.1249 H   0  0  0  0  0  0  0  0  0  0  0  0
  -32.6911   62.2996   63.2475 H   0  0  0  0  0  0  0  0  0  0  0  0
  -32.0440   60.8779   62.3945 H   0  0  0  0  0  0  0  0  0  0  0  0
  -34.4512   60.8976   64.1457 H   0  0  0  0  0  0  0  0  0  0  0  0
  -32.8282   60.2944   64.5626 H   0  0  0  0  0  0  0  0  0  0  0  0
  -32.9972   58.6011   62.8951 H   0  0  0  0  0  0  0  0  0  0  0  0
  -34.6117   59.2096   62.4574 H   0  0  0  0  0  0  0  0  0  0  0  0
  -33.8658   58.0081   65.0769 H   0  0  0  0  0  0  0  0  0  0  0  0
  -34.7692   57.2261   63.7511 H   0  0  0  0  0  0  0  0  0  0  0  0
  -36.5596   58.7691   64.0182 H   0  0  0  0  0  0  0  0  0  0  0  0
  -35.6583   59.5727   65.3274 H   0  0  0  0  0  0  0  0  0  0  0  0
  -37.4188   58.1693   66.1966 H   0  0  0  0  0  0  0  0  0  0  0  0
  -35.7847   57.6085   66.6484 H   0  0  0  0  0  0  0  0  0  0  0  0
  -37.2562   55.7567   66.1543 H   0  0  0  0  0  0  0  0  0  0  0  0
  -35.8950   55.8907   65.0200 H   0  0  0  0  0  0  0  0  0  0  0  0
  -37.3308   56.8545   63.3692 H   0  0  0  0  0  0  0  0  0  0  0  0
  -38.6957   56.7260   64.5186 H   0  0  0  0  0  0  0  0  0  0  0  0
  -38.8053   55.0270   62.8163 H   0  0  0  0  0  0  0  0  0  0  0  0
  -38.5552   54.3740   64.4618 H   0  0  0  0  0  0  0  0  0  0  0  0
  -36.2636   53.9433   63.9791 H   0  0  0  0  0  0  0  0  0  0  0  0
  -36.4765   54.6159   62.3534 H   0  0  0  0  0  0  0  0  0  0  0  0
  -38.2669   52.6566   62.1974 H   0  0  0  0  0  0  0  0  0  0  0  0
  -37.0171   50.7784   62.2721 H   0  0  0  0  0  0  0  0  0  0  0  0
  -35.1139   50.5180   63.6496 H   0  0  0  0  0  0  0  0  0  0  0  0
  -35.1477   52.2555   64.0277 H   0  0  0  0  0  0  0  0  0  0  0  0
  -34.2136   52.7685   61.8835 H   0  0  0  0  0  0  0  0  0  0  0  0
  -34.1956   51.0381   61.4861 H   0  0  0  0  0  0  0  0  0  0  0  0
  -32.6042   50.6291   63.2250 H   0  0  0  0  0  0  0  0  0  0  0  0
  -32.6312   52.3556   63.6411 H   0  0  0  0  0  0  0  0  0  0  0  0
  -31.6832   51.2091   61.0580 H   0  0  0  0  0  0  0  0  0  0  0  0
  -30.6758   51.8077   62.4037 H   0  0  0  0  0  0  0  0  0  0  0  0
  -32.5341   53.4617   60.7699 H   0  0  0  0  0  0  0  0  0  0  0  0
  -30.7629   53.3860   60.6229 H   0  0  0  0  0  0  0  0  0  0  0  0
  -30.5145   54.2705   62.8227 H   0  0  0  0  0  0  0  0  0  0  0  0
  -32.2885   54.3322   62.9812 H   0  0  0  0  0  0  0  0  0  0  0  0
  -30.6720   55.9209   61.0510 H   0  0  0  0  0  0  0  0  0  0  0  0
  -31.3760   56.5023   62.5702 H   0  0  0  0  0  0  0  0  0  0  0  0
  -32.9073   55.4824   60.2157 H   0  0  0  0  0  0  0  0  0  0  0  0
  -32.7461   57.1563   60.6902 H   0  0  0  0  0  0  0  0  0  0  0  0
  -33.5912   56.0319   61.7268 H   0  0  0  0  0  0  0  0  0  0  0  0
  -32.6683   69.1148   60.4768 H   0  0  0  0  0  0  0  0  0  0  0  0
  -29.7806   69.1171   59.6081 H   0  0  0  0  0  0  0  0  0  0  0  0
  -32.1244   70.5404   58.3348 H   0  0  0  0  0  0  0  0  0  0  0  0
  -31.9715   69.0231   56.5509 H   0  0  0  0  0  0  0  0  0  0  0  0
  -33.3938   68.3546   58.3234 H   0  0  0  0  0  0  0  0  0  0  0  0
  -31.8154   65.9631   57.4586 H   0  0  0  0  0  0  0  0  0  0  0  0
  -33.4461   65.9486   58.1276 H   0  0  0  0  0  0  0  0  0  0  0  0
  1  4  1  0  0  0  0
  1 31  1  0  0  0  0
  1 62  1  0  0  0  0
  2  3  1  0  0  0  0
  2  4  1  0  0  0  0
  2 63  1  0  0  0  0
  2 64  1  0  0  0  0
  3 55  1  0  0  0  0
  4  6  1  0  0  0  0
  4 65  1  6  0  0  0
  5  6  1  0  0  0  0
  5 66  1  0  0  0  0
  6  8  1  0  0  0  0
  6 67  1  6  0  0  0
  7 31  2  0  0  0  0
  8 10  2  0  0  0  0
  8 68  1  0  0  0  0
  9 56  1  0  0  0  0
  9 69  1  0  0  0  0
 10 12  1  0  0  0  0
 10 70  1  0  0  0  0
 11 57  1  0  0  0  0
 11 61  1  0  0  0  0
 12 14  1  0  0  0  0
 12 71  1  0  0  0  0
 12 72  1  0  0  0  0
 13 58  1  0  0  0  0
 13 73  1  0  0  0  0
 14 16  1  0  0  0  0
 14 74  1  0  0  0  0
 14 75  1  0  0  0  0
 15 55  1  0  0  0  0
 15 59  1  0  0  0  0
 16 18  1  0  0  0  0
 16 76  1  0  0  0  0
 16 77  1  0  0  0  0
 17 60  1  0  0  0  0
 17 78  1  0  0  0  0
 18 20  1  0  0  0  0
 18 79  1  0  0  0  0
 18 80  1  0  0  0  0
 19 61  1  0  0  0  0
 19 81  1  0  0  0  0
 20 22  1  0  0  0  0
 20 82  1  0  0  0  0
 20 83  1  0  0  0  0
 21 61  1  0  0  0  0
 22 24  1  0  0  0  0
 22 84  1  0  0  0  0
 22 85  1  0  0  0  0
 23 61  1  0  0  0  0
 23 86  1  0  0  0  0
 24 25  1  0  0  0  0
 24 87  1  0  0  0  0
 24 88  1  0  0  0  0
 25 26  1  0  0  0  0
 25 89  1  0  0  0  0
 25 90  1  0  0  0  0
 26 27  1  0  0  0  0
 26 91  1  0  0  0  0
 26 92  1  0  0  0  0
 27 28  1  0  0  0  0
 27 93  1  0  0  0  0
 27 94  1  0  0  0  0
 28 29  1  0  0  0  0
 28 95  1  0  0  0  0
 28 96  1  0  0  0  0
 29 30  1  0  0  0  0
 29 97  1  0  0  0  0
 29 98  1  0  0  0  0
 30 99  1  0  0  0  0
 30100  1  0  0  0  0
 30101  1  0  0  0  0
 31 32  1  0  0  0  0
 32 33  1  0  0  0  0
 32102  1  0  0  0  0
 32103  1  0  0  0  0
 33 34  1  0  0  0  0
 33104  1  0  0  0  0
 33105  1  0  0  0  0
 34 35  1  0  0  0  0
 34106  1  0  0  0  0
 34107  1  0  0  0  0
 35 36  1  0  0  0  0
 35108  1  0  0  0  0
 35109  1  0  0  0  0
 36 37  1  0  0  0  0
 36110  1  0  0  0  0
 36111  1  0  0  0  0
 37 38  1  0  0  0  0
 37112  1  0  0  0  0
 37113  1  0  0  0  0
 38 39  1  0  0  0  0
 38114  1  0  0  0  0
 38115  1  0  0  0  0
 39 40  1  0  0  0  0
 39116  1  0  0  0  0
 39117  1  0  0  0  0
 40 41  1  0  0  0  0
 40118  1  0  0  0  0
 40119  1  0  0  0  0
 41 42  1  0  0  0  0
 41120  1  0  0  0  0
 41121  1  0  0  0  0
 42 43  1  0  0  0  0
 42122  1  0  0  0  0
 42123  1  0  0  0  0
 43 44  1  0  0  0  0
 43124  1  0  0  0  0
 43125  1  0  0  0  0
 44 45  1  0  0  0  0
 44126  1  0  0  0  0
 44127  1  0  0  0  0
 45 46  2  0  0  0  0
 45128  1  0  0  0  0
 46 47  1  0  0  0  0
 46129  1  0  0  0  0
 47 48  1  0  0  0  0
 47130  1  0  0  0  0
 47131  1  0  0  0  0
 48 49  1  0  0  0  0
 48132  1  0  0  0  0
 48133  1  0  0  0  0
 49 50  1  0  0  0  0
 49134  1  0  0  0  0
 49135  1  0  0  0  0
 50 51  1  0  0  0  0
 50136  1  0  0  0  0
 50137  1  0  0  0  0
 51 52  1  0  0  0  0
 51138  1  0  0  0  0
 51139  1  0  0  0  0
 52 53  1  0  0  0  0
 52140  1  0  0  0  0
 52141  1  0  0  0  0
 53 54  1  0  0  0  0
 53142  1  0  0  0  0
 53143  1  0  0  0  0
 54144  1  0  0  0  0
 54145  1  0  0  0  0
 54146  1  0  0  0  0
 55 56  1  0  0  0  0
 55147  1  1  0  0  0
 56 57  1  0  0  0  0
 56148  1  6  0  0  0
 57 58  1  0  0  0  0
 57149  1  1  0  0  0
 58 59  1  0  0  0  0
 58150  1  6  0  0  0
 59 60  1  0  0  0  0
 59151  1  1  0  0  0
 60152  1  0  0  0  0
 60153  1  0  0  0  0
M  CHG  1  21  -1
M  END
$$$$
/media/chris/experiments/cd1a-new-docking/inputs/ligands/7ryn_ligand.pdb
 OpenBabel07032312553D

153153  0  0  1  0  0  0  0  0999 V2000
  -33.0340   65.1330   62.2120 N   0  0  0  0  0  0  0  0  0  0  0  0
  -32.0220   67.3480   62.3220 C   0  0  0  0  0  0  0  0  0  0  0  0
  -31.1969   68.2589   61.5870 O   0  0  0  0  0  0  0  0  0  0  0  0
  -32.1830   66.0840   61.5030 C   0  0  1  0  0  0  0  0  0  0  0  0
  -29.9992   66.3678   60.5104 O   0  0  0  0  0  0  0  0  0  0  0  0
  -30.8310   65.4230   61.1900 C   0  0  2  0  0  0  0  0  0  0  0  0
  -35.0701   64.2925   62.6764 O   0  0  0  0  0  0  0  0  0  0  0  0
  -31.0055   64.1786   60.3744 C   0  0  0  0  0  0  0  0  0  0  0  0
  -32.9308   70.4319   61.2513 O   0  0  0  0  0  0  0  0  0  0  0  0
  -30.0261   63.3955   59.9676 C   0  0  0  0  0  0  0  0  0  0  0  0
  -33.4310   71.8685   63.6467 O   0  0  0  0  0  0  0  0  0  0  0  0
  -30.2340   62.1517   59.1673 C   0  0  0  0  0  0  0  0  0  0  0  0
  -32.0199   70.3807   65.4572 O   0  0  0  0  0  0  0  0  0  0  0  0
  -28.9021   61.4599   58.8696 C   0  0  0  0  0  0  0  0  0  0  0  0
  -30.2839   69.2401   63.4665 O   0  0  0  0  0  0  0  0  0  0  0  0
  -28.1350   61.0259   60.1080 C   0  0  0  0  0  0  0  0  0  0  0  0
  -27.9496   69.4112   65.0113 O   0  0  0  0  0  0  0  0  0  0  0  0
  -26.8044   60.3539   59.8151 C   0  0  0  0  0  0  0  0  0  0  0  0
  -33.0558   74.2487   63.6804 O   0  0  0  0  0  0  0  0  0  0  0  0
  -26.0499   59.9069   61.0587 C   0  0  0  0  0  0  0  0  0  0  0  0
  -33.2511   72.9552   65.8262 O   0  5  0  0  0  0  0  0  0  0  0  0
  -24.7113   59.2505   60.7581 C   0  0  0  0  0  0  0  0  0  0  0  0
  -35.1273   73.3479   64.4253 O   0  0  0  0  0  0  0  0  0  0  0  0
  -23.7348   60.1576   60.0303 C   0  0  0  0  0  0  0  0  0  0  0  0
  -23.3683   61.4140   60.7981 C   0  0  0  0  0  0  0  0  0  0  0  0
  -22.4045   62.3272   60.0599 C   0  0  0  0  0  0  0  0  0  0  0  0
  -22.0384   63.5684   60.8523 C   0  0  0  0  0  0  0  0  0  0  0  0
  -23.2192   64.4439   61.2257 C   0  0  0  0  0  0  0  0  0  0  0  0
  -23.9822   64.9410   60.0135 C   0  0  0  0  0  0  0  0  0  0  0  0
  -25.1509   65.8291   60.3874 C   0  0  0  0  0  0  0  0  0  0  0  0
  -34.3610   65.0876   62.0665 C   0  0  0  0  0  0  0  0  0  0  0  0
  -34.9461   66.0885   61.1016 C   0  0  0  0  0  0  0  0  0  0  0  0
  -35.3277   67.3990   61.7781 C   0  0  0  0  0  0  0  0  0  0  0  0
  -35.9335   68.4036   60.8112 C   0  0  0  0  0  0  0  0  0  0  0  0
  -36.3091   69.7283   61.4541 C   0  0  0  0  0  0  0  0  0  0  0  0
  -37.3208   69.5994   62.5830 C   0  0  0  0  0  0  0  0  0  0  0  0
  -38.6430   68.9711   62.1615 C   0  0  0  0  0  0  0  0  0  0  0  0
  -39.3676   69.7375   61.0624 C   0  0  0  0  0  0  0  0  0  0  0  0
  -39.7156   71.1803   61.4196 C   0  0  0  0  0  0  0  0  0  0  0  0
  -40.4569   71.9329   60.3158 C   0  0  0  0  0  0  0  0  0  0  0  0
  -41.8022   71.3235   59.9218 C   0  0  0  0  0  0  0  0  0  0  0  0
  -42.8072   71.2705   61.0727 C   0  0  0  0  0  0  0  0  0  0  0  0
  -43.1829   72.6279   61.6668 C   0  0  0  0  0  0  0  0  0  0  0  0
  -44.1765   72.5701   62.8302 C   0  0  0  0  0  0  0  0  0  0  0  0
  -44.5258   73.9280   63.3670 C   0  0  0  0  0  0  0  0  0  0  0  0
  -45.3441   74.1805   64.3732 C   0  0  0  0  0  0  0  0  0  0  0  0
  -46.0862   73.1612   65.1833 C   0  0  0  0  0  0  0  0  0  0  0  0
  -47.4706   72.8228   64.6264 C   0  0  0  0  0  0  0  0  0  0  0  0
  -48.3948   74.0299   64.5359 C   0  0  0  0  0  0  0  0  0  0  0  0
  -49.7804   73.6919   63.9972 C   0  0  0  0  0  0  0  0  0  0  0  0
  -50.7207   74.8860   63.8803 C   0  0  0  0  0  0  0  0  0  0  0  0
  -50.9748   75.5977   65.2017 C   0  0  0  0  0  0  0  0  0  0  0  0
  -51.9250   76.7802   65.0990 C   0  0  0  0  0  0  0  0  0  0  0  0
  -51.4332   77.8504   64.1458 C   0  0  0  0  0  0  0  0  0  0  0  0
  -30.9530   69.4703   62.2406 C   0  0  2  0  0  0  0  0  0  0  0  0
  -32.2933   70.1495   62.4906 C   0  0  1  0  0  0  0  0  0  0  0  0
  -32.0829   71.4352   63.2803 C   0  0  2  0  0  0  0  0  0  0  0  0
  -31.2728   71.1754   64.5419 C   0  0  2  0  0  0  0  0  0  0  0  0
  -29.9796   70.4491   64.1802 C   0  0  1  0  0  0  0  0  0  0  0  0
  -29.1637   70.0508   65.3877 C   0  0  0  0  0  0  0  0  0  0  0  0
  -33.5968   73.2117   64.4786 S   0  0  0  0  0  0  0  0  0  0  0  0
  -32.6087   64.4935   62.8279 H   0  0  0  0  0  0  0  0  0  0  0  0
  -32.9806   67.7896   62.4978 H   0  0  0  0  0  0  0  0  0  0  0  0
  -31.5704   67.1208   63.2650 H   0  0  0  0  0  0  0  0  0  0  0  0
  -32.6374   66.3625   60.5752 H   0  0  0  0  0  0  0  0  0  0  0  0
  -29.9008   67.1635   61.0564 H   0  0  0  0  0  0  0  0  0  0  0  0
  -30.3647   65.1308   62.1077 H   0  0  0  0  0  0  0  0  0  0  0  0
  -31.9673   63.9138   60.1104 H   0  0  0  0  0  0  0  0  0  0  0  0
  -33.0591   69.6065   60.7582 H   0  0  0  0  0  0  0  0  0  0  0  0
  -29.0594   63.6571   60.2167 H   0  0  0  0  0  0  0  0  0  0  0  0
  -30.7100   62.4060   58.2433 H   0  0  0  0  0  0  0  0  0  0  0  0
  -30.8464   61.4814   59.7334 H   0  0  0  0  0  0  0  0  0  0  0  0
  -32.8421   70.8405   65.6883 H   0  0  0  0  0  0  0  0  0  0  0  0
  -28.2880   62.1385   58.3152 H   0  0  0  0  0  0  0  0  0  0  0  0
  -29.1335   60.5694   58.3234 H   0  0  0  0  0  0  0  0  0  0  0  0
  -28.7445   60.3379   60.6559 H   0  0  0  0  0  0  0  0  0  0  0  0
  -27.9142   61.9158   60.6595 H   0  0  0  0  0  0  0  0  0  0  0  0
  -27.4513   69.1691   65.8075 H   0  0  0  0  0  0  0  0  0  0  0  0
  -26.1890   61.0456   59.2786 H   0  0  0  0  0  0  0  0  0  0  0  0
  -27.0209   59.4713   59.2503 H   0  0  0  0  0  0  0  0  0  0  0  0
  -32.0874   74.1932   63.6910 H   0  0  0  0  0  0  0  0  0  0  0  0
  -26.6588   59.2050   61.5894 H   0  0  0  0  0  0  0  0  0  0  0  0
  -25.8453   60.7859   61.6335 H   0  0  0  0  0  0  0  0  0  0  0  0
  -24.8874   58.3875   60.1505 H   0  0  0  0  0  0  0  0  0  0  0  0
  -24.2661   59.0040   61.6994 H   0  0  0  0  0  0  0  0  0  0  0  0
  -35.4045   73.5252   63.5129 H   0  0  0  0  0  0  0  0  0  0  0  0
  -24.1757   60.4487   59.0998 H   0  0  0  0  0  0  0  0  0  0  0  0
  -22.8311   59.5992   59.9018 H   0  0  0  0  0  0  0  0  0  0  0  0
  -22.9157   61.1235   61.7231 H   0  0  0  0  0  0  0  0  0  0  0  0
  -24.2735   61.9668   60.9394 H   0  0  0  0  0  0  0  0  0  0  0  0
  -22.8597   62.6315   59.1407 H   0  0  0  0  0  0  0  0  0  0  0  0
  -21.5028   61.7750   59.8959 H   0  0  0  0  0  0  0  0  0  0  0  0
  -21.3610   64.1526   60.2651 H   0  0  0  0  0  0  0  0  0  0  0  0
  -21.6076   63.2284   61.7708 H   0  0  0  0  0  0  0  0  0  0  0  0
  -22.8593   65.2891   61.7744 H   0  0  0  0  0  0  0  0  0  0  0  0
  -23.8906   63.8507   61.8106 H   0  0  0  0  0  0  0  0  0  0  0  0
  -24.3529   64.0963   59.4713 H   0  0  0  0  0  0  0  0  0  0  0  0
  -23.3077   65.5236   59.4214 H   0  0  0  0  0  0  0  0  0  0  0  0
  -25.8454   65.2732   60.9820 H   0  0  0  0  0  0  0  0  0  0  0  0
  -25.6372   66.1719   59.4981 H   0  0  0  0  0  0  0  0  0  0  0  0
  -24.7957   66.6696   60.9463 H   0  0  0  0  0  0  0  0  0  0  0  0
  -35.8221   65.6645   60.6569 H   0  0  0  0  0  0  0  0  0  0  0  0
  -34.1984   66.3077   60.3682 H   0  0  0  0  0  0  0  0  0  0  0  0
  -34.4491   67.8286   62.2123 H   0  0  0  0  0  0  0  0  0  0  0  0
  -36.0671   67.1770   62.5190 H   0  0  0  0  0  0  0  0  0  0  0  0
  -36.8163   67.9727   60.3871 H   0  0  0  0  0  0  0  0  0  0  0  0
  -35.1859   68.6164   60.0758 H   0  0  0  0  0  0  0  0  0  0  0  0
  -36.7247   70.3633   60.6998 H   0  0  0  0  0  0  0  0  0  0  0  0
  -35.4149   70.1309   61.8822 H   0  0  0  0  0  0  0  0  0  0  0  0
  -37.5207   70.5772   62.9688 H   0  0  0  0  0  0  0  0  0  0  0  0
  -36.8879   68.9486   63.3137 H   0  0  0  0  0  0  0  0  0  0  0  0
  -39.2825   68.9254   63.0182 H   0  0  0  0  0  0  0  0  0  0  0  0
  -38.4152   68.0030   61.7669 H   0  0  0  0  0  0  0  0  0  0  0  0
  -40.2770   69.2201   60.8382 H   0  0  0  0  0  0  0  0  0  0  0  0
  -38.6961   69.7837   60.2306 H   0  0  0  0  0  0  0  0  0  0  0  0
  -38.8063   71.7032   61.6310 H   0  0  0  0  0  0  0  0  0  0  0  0
  -40.3737   71.1401   62.2624 H   0  0  0  0  0  0  0  0  0  0  0  0
  -39.8322   71.9519   59.4474 H   0  0  0  0  0  0  0  0  0  0  0  0
  -40.6679   72.9078   60.7030 H   0  0  0  0  0  0  0  0  0  0  0  0
  -41.6333   70.3260   59.5734 H   0  0  0  0  0  0  0  0  0  0  0  0
  -42.2230   71.9515   59.1646 H   0  0  0  0  0  0  0  0  0  0  0  0
  -42.3863   70.6718   61.8533 H   0  0  0  0  0  0  0  0  0  0  0  0
  -43.7084   70.8640   60.6635 H   0  0  0  0  0  0  0  0  0  0  0  0
  -43.6155   73.2226   60.8896 H   0  0  0  0  0  0  0  0  0  0  0  0
  -42.2796   73.0417   62.0641 H   0  0  0  0  0  0  0  0  0  0  0  0
  -43.7446   71.9914   63.6198 H   0  0  0  0  0  0  0  0  0  0  0  0
  -45.0785   72.1285   62.4610 H   0  0  0  0  0  0  0  0  0  0  0  0
  -44.0856   74.7402   62.9070 H   0  0  0  0  0  0  0  0  0  0  0  0
  -45.4853   75.1714   64.6245 H   0  0  0  0  0  0  0  0  0  0  0  0
  -46.2051   73.5405   66.1768 H   0  0  0  0  0  0  0  0  0  0  0  0
  -45.5095   72.2602   65.1569 H   0  0  0  0  0  0  0  0  0  0  0  0
  -47.9250   72.0943   65.2650 H   0  0  0  0  0  0  0  0  0  0  0  0
  -47.3309   72.4553   63.6312 H   0  0  0  0  0  0  0  0  0  0  0  0
  -47.9458   74.7531   63.8876 H   0  0  0  0  0  0  0  0  0  0  0  0
  -48.5247   74.4038   65.5300 H   0  0  0  0  0  0  0  0  0  0  0  0
  -50.2289   72.9760   64.6538 H   0  0  0  0  0  0  0  0  0  0  0  0
  -49.6385   73.3176   63.0049 H   0  0  0  0  0  0  0  0  0  0  0  0
  -51.6583   74.5412   63.4969 H   0  0  0  0  0  0  0  0  0  0  0  0
  -50.2485   75.5930   63.2306 H   0  0  0  0  0  0  0  0  0  0  0  0
  -50.0378   75.9517   65.5780 H   0  0  0  0  0  0  0  0  0  0  0  0
  -51.4391   74.8851   65.8510 H   0  0  0  0  0  0  0  0  0  0  0  0
  -52.0369   77.2137   66.0709 H   0  0  0  0  0  0  0  0  0  0  0  0
  -52.8548   76.4129   64.7176 H   0  0  0  0  0  0  0  0  0  0  0  0
  -50.5015   78.2411   64.4982 H   0  0  0  0  0  0  0  0  0  0  0  0
  -52.1538   78.6396   64.0931 H   0  0  0  0  0  0  0  0  0  0  0  0
  -51.2970   77.4263   63.1730 H   0  0  0  0  0  0  0  0  0  0  0  0
  -30.3291   70.0960   61.6371 H   0  0  0  0  0  0  0  0  0  0  0  0
  -32.9193   69.4938   63.0591 H   0  0  0  0  0  0  0  0  0  0  0  0
  -31.5471   72.1651   62.7102 H   0  0  0  0  0  0  0  0  0  0  0  0
  -31.0444   72.1140   65.0021 H   0  0  0  0  0  0  0  0  0  0  0  0
  -29.4118   71.1378   63.5901 H   0  0  0  0  0  0  0  0  0  0  0  0
  -28.9326   70.9278   65.9555 H   0  0  0  0  0  0  0  0  0  0  0  0
  -29.7397   69.3608   65.9683 H   0  0  0  0  0  0  0  0  0  0  0  0
  1  4  1  0  0  0  0
  1 31  1  0  0  0  0
  1 62  1  0  0  0  0
  2  3  1  0  0  0  0
  2  4  1  0  0  0  0
  2 63  1  0  0  0  0
  2 64  1  0  0  0  0
  3 55  1  0  0  0  0
  4  6  1  0  0  0  0
  4 65  1  6  0  0  0
  5  6  1  0  0  0  0
  5 66  1  0  0  0  0
  6  8  1  0  0  0  0
  6 67  1  1  0  0  0
  7 31  2  0  0  0  0
  8 10  2  0  0  0  0
  8 68  1  0  0  0  0
  9 56  1  0  0  0  0
  9 69  1  0  0  0  0
 10 12  1  0  0  0  0
 10 70  1  0  0  0  0
 11 57  1  0  0  0  0
 11 61  1  0  0  0  0
 12 14  1  0  0  0  0
 12 71  1  0  0  0  0
 12 72  1  0  0  0  0
 13 58  1  0  0  0  0
 13 73  1  0  0  0  0
 14 16  1  0  0  0  0
 14 74  1  0  0  0  0
 14 75  1  0  0  0  0
 15 55  1  0  0  0  0
 15 59  1  0  0  0  0
 16 18  1  0  0  0  0
 16 76  1  0  0  0  0
 16 77  1  0  0  0  0
 17 60  1  0  0  0  0
 17 78  1  0  0  0  0
 18 20  1  0  0  0  0
 18 79  1  0  0  0  0
 18 80  1  0  0  0  0
 19 61  1  0  0  0  0
 19 81  1  0  0  0  0
 20 22  1  0  0  0  0
 20 82  1  0  0  0  0
 20 83  1  0  0  0  0
 21 61  1  0  0  0  0
 22 24  1  0  0  0  0
 22 84  1  0  0  0  0
 22 85  1  0  0  0  0
 23 61  1  0  0  0  0
 23 86  1  0  0  0  0
 24 25  1  0  0  0  0
 24 87  1  0  0  0  0
 24 88  1  0  0  0  0
 25 26  1  0  0  0  0
 25 89  1  0  0  0  0
 25 90  1  0  0  0  0
 26 27  1  0  0  0  0
 26 91  1  0  0  0  0
 26 92  1  0  0  0  0
 27 28  1  0  0  0  0
 27 93  1  0  0  0  0
 27 94  1  0  0  0  0
 28 29  1  0  0  0  0
 28 95  1  0  0  0  0
 28 96  1  0  0  0  0
 29 30  1  0  0  0  0
 29 97  1  0  0  0  0
 29 98  1  0  0  0  0
 30 99  1  0  0  0  0
 30100  1  0  0  0  0
 30101  1  0  0  0  0
 31 32  1  0  0  0  0
 32 33  1  0  0  0  0
 32102  1  0  0  0  0
 32103  1  0  0  0  0
 33 34  1  0  0  0  0
 33104  1  0  0  0  0
 33105  1  0  0  0  0
 34 35  1  0  0  0  0
 34106  1  0  0  0  0
 34107  1  0  0  0  0
 35 36  1  0  0  0  0
 35108  1  0  0  0  0
 35109  1  0  0  0  0
 36 37  1  0  0  0  0
 36110  1  0  0  0  0
 36111  1  0  0  0  0
 37 38  1  0  0  0  0
 37112  1  0  0  0  0
 37113  1  0  0  0  0
 38 39  1  0  0  0  0
 38114  1  0  0  0  0
 38115  1  0  0  0  0
 39 40  1  0  0  0  0
 39116  1  0  0  0  0
 39117  1  0  0  0  0
 40 41  1  0  0  0  0
 40118  1  0  0  0  0
 40119  1  0  0  0  0
 41 42  1  0  0  0  0
 41120  1  0  0  0  0
 41121  1  0  0  0  0
 42 43  1  0  0  0  0
 42122  1  0  0  0  0
 42123  1  0  0  0  0
 43 44  1  0  0  0  0
 43124  1  0  0  0  0
 43125  1  0  0  0  0
 44 45  1  0  0  0  0
 44126  1  0  0  0  0
 44127  1  0  0  0  0
 45 46  2  0  0  0  0
 45128  1  0  0  0  0
 46 47  1  0  0  0  0
 46129  1  0  0  0  0
 47 48  1  0  0  0  0
 47130  1  0  0  0  0
 47131  1  0  0  0  0
 48 49  1  0  0  0  0
 48132  1  0  0  0  0
 48133  1  0  0  0  0
 49 50  1  0  0  0  0
 49134  1  0  0  0  0
 49135  1  0  0  0  0
 50 51  1  0  0  0  0
 50136  1  0  0  0  0
 50137  1  0  0  0  0
 51 52  1  0  0  0  0
 51138  1  0  0  0  0
 51139  1  0  0  0  0
 52 53  1  0  0  0  0
 52140  1  0  0  0  0
 52141  1  0  0  0  0
 53 54  1  0  0  0  0
 53142  1  0  0  0  0
 53143  1  0  0  0  0
 54144  1  0  0  0  0
 54145  1  0  0  0  0
 54146  1  0  0  0  0
 55 56  1  0  0  0  0
 55147  1  6  0  0  0
 56 57  1  0  0  0  0
 56148  1  1  0  0  0
 57 58  1  0  0  0  0
 57149  1  6  0  0  0
 58 59  1  0  0  0  0
 58150  1  1  0  0  0
 59 60  1  0  0  0  0
 59151  1  6  0  0  0
 60152  1  0  0  0  0
 60153  1  0  0  0  0
M  CHG  1  21  -1
M  END
$$$$
/media/chris/experiments/cd1a-new-docking/inputs/ligands/7ryn_ligand.pdb
 OpenBabel07032312553D

153153  0  0  1  0  0  0  0  0999 V2000
  -33.0340   65.1330   62.2120 N   0  0  0  0  0  0  0  0  0  0  0  0
  -32.0220   67.3480   62.3220 C   0  0  0  0  0  0  0  0  0  0  0  0
  -31.4051   67.0024   63.5673 O   0  0  0  0  0  0  0  0  0  0  0  0
  -32.1830   66.0840   61.5030 C   0  0  1  0  0  0  0  0  0  0  0  0
  -29.9992   66.3678   60.5104 O   0  0  0  0  0  0  0  0  0  0  0  0
  -30.8310   65.4230   61.1900 C   0  0  2  0  0  0  0  0  0  0  0  0
  -34.9746   65.8457   61.3210 O   0  0  0  0  0  0  0  0  0  0  0  0
  -31.0055   64.1786   60.3744 C   0  0  0  0  0  0  0  0  0  0  0  0
  -29.0472   68.5087   63.4560 O   0  0  0  0  0  0  0  0  0  0  0  0
  -30.0261   63.3955   59.9676 C   0  0  0  0  0  0  0  0  0  0  0  0
  -29.4663   71.3004   63.7442 O   0  0  0  0  0  0  0  0  0  0  0  0
  -30.2340   62.1517   59.1673 C   0  0  0  0  0  0  0  0  0  0  0  0
  -32.1950   71.4092   63.9043 O   0  0  0  0  0  0  0  0  0  0  0  0
  -29.6970   60.9249   59.9074 C   0  0  0  0  0  0  0  0  0  0  0  0
  -32.4523   68.6756   64.7639 O   0  0  0  0  0  0  0  0  0  0  0  0
  -30.3641   60.6647   61.2482 C   0  0  0  0  0  0  0  0  0  0  0  0
  -33.7220   71.3280   66.9172 O   0  0  0  0  0  0  0  0  0  0  0  0
  -31.8594   60.4103   61.1630 C   0  0  0  0  0  0  0  0  0  0  0  0
  -28.4817   73.4554   63.3041 O   0  0  0  0  0  0  0  0  0  0  0  0
  -32.5235   60.1673   62.5105 C   0  0  0  0  0  0  0  0  0  0  0  0
  -28.5846   72.5516   65.6468 O   0  5  0  0  0  0  0  0  0  0  0  0
  -32.3972   61.3378   63.4735 C   0  0  0  0  0  0  0  0  0  0  0  0
  -30.5292   73.2918   64.5035 O   0  0  0  0  0  0  0  0  0  0  0  0
  -30.9614   61.7154   63.7927 C   0  0  0  0  0  0  0  0  0  0  0  0
  -30.8281   62.8717   64.7661 C   0  0  0  0  0  0  0  0  0  0  0  0
  -31.4796   64.1577   64.2872 C   0  0  0  0  0  0  0  0  0  0  0  0
  -31.3198   65.3048   65.2675 C   0  0  0  0  0  0  0  0  0  0  0  0
  -31.9069   65.0413   66.6409 C   0  0  0  0  0  0  0  0  0  0  0  0
  -31.7400   66.2186   67.5815 C   0  0  0  0  0  0  0  0  0  0  0  0
  -30.2872   66.5918   67.7920 C   0  0  0  0  0  0  0  0  0  0  0  0
  -34.3610   65.0876   62.0665 C   0  0  0  0  0  0  0  0  0  0  0  0
  -35.0703   64.0312   62.8766 C   0  0  0  0  0  0  0  0  0  0  0  0
  -35.8339   63.0413   62.0062 C   0  0  0  0  0  0  0  0  0  0  0  0
  -36.8908   63.7122   61.1437 C   0  0  0  0  0  0  0  0  0  0  0  0
  -37.6814   62.7473   60.2759 C   0  0  0  0  0  0  0  0  0  0  0  0
  -38.7271   63.4220   59.4008 C   0  0  0  0  0  0  0  0  0  0  0  0
  -39.5334   62.4562   58.5420 C   0  0  0  0  0  0  0  0  0  0  0  0
  -38.6866   61.6277   57.5844 C   0  0  0  0  0  0  0  0  0  0  0  0
  -37.8692   62.4480   56.5896 C   0  0  0  0  0  0  0  0  0  0  0  0
  -37.0375   61.6055   55.6237 C   0  0  0  0  0  0  0  0  0  0  0  0
  -36.2003   62.4133   54.6322 C   0  0  0  0  0  0  0  0  0  0  0  0
  -37.0333   63.3338   53.7401 C   0  0  0  0  0  0  0  0  0  0  0  0
  -37.8427   64.3965   54.4831 C   0  0  0  0  0  0  0  0  0  0  0  0
  -37.0102   65.3813   55.3085 C   0  0  0  0  0  0  0  0  0  0  0  0
  -36.1836   64.7049   56.3637 C   0  0  0  0  0  0  0  0  0  0  0  0
  -35.3827   65.3033   57.2276 C   0  0  0  0  0  0  0  0  0  0  0  0
  -35.1406   66.7788   57.3297 C   0  0  0  0  0  0  0  0  0  0  0  0
  -33.6787   67.1778   57.1176 C   0  0  0  0  0  0  0  0  0  0  0  0
  -33.4398   68.6769   57.2402 C   0  0  0  0  0  0  0  0  0  0  0  0
  -33.8018   69.2370   58.6111 C   0  0  0  0  0  0  0  0  0  0  0  0
  -33.5881   70.7395   58.7557 C   0  0  0  0  0  0  0  0  0  0  0  0
  -33.9384   71.2784   60.1355 C   0  0  0  0  0  0  0  0  0  0  0  0
  -35.3822   71.0404   60.5485 C   0  0  0  0  0  0  0  0  0  0  0  0
  -36.3789   71.6715   59.5976 C   0  0  0  0  0  0  0  0  0  0  0  0
  -31.2104   68.0828   64.4327 C   0  0  2  0  0  0  0  0  0  0  0  0
  -30.3138   69.0941   63.7304 C   0  0  1  0  0  0  0  0  0  0  0  0
  -30.1449   70.3308   64.6038 C   0  0  2  0  0  0  0  0  0  0  0  0
  -31.4954   70.8877   65.0296 C   0  0  2  0  0  0  0  0  0  0  0  0
  -32.3266   69.7807   65.6732 C   0  0  1  0  0  0  0  0  0  0  0  0
  -33.7288   70.2187   66.0260 C   0  0  0  0  0  0  0  0  0  0  0  0
  -29.1081   72.7269   64.3444 S   0  0  0  0  0  0  0  0  0  0  0  0
  -32.6087   64.4935   62.8279 H   0  0  0  0  0  0  0  0  0  0  0  0
  -31.4053   68.0450   61.7940 H   0  0  0  0  0  0  0  0  0  0  0  0
  -32.9770   67.7979   62.4965 H   0  0  0  0  0  0  0  0  0  0  0  0
  -32.6374   66.3625   60.5752 H   0  0  0  0  0  0  0  0  0  0  0  0
  -29.9008   67.1635   61.0564 H   0  0  0  0  0  0  0  0  0  0  0  0
  -30.3647   65.1308   62.1077 H   0  0  0  0  0  0  0  0  0  0  0  0
  -31.9673   63.9138   60.1104 H   0  0  0  0  0  0  0  0  0  0  0  0
  -29.1677   67.7231   62.8999 H   0  0  0  0  0  0  0  0  0  0  0  0
  -29.0594   63.6571   60.2167 H   0  0  0  0  0  0  0  0  0  0  0  0
  -29.7221   62.2479   58.2326 H   0  0  0  0  0  0  0  0  0  0  0  0
  -31.2841   62.0207   59.0089 H   0  0  0  0  0  0  0  0  0  0  0  0
  -31.6684   72.1129   63.4939 H   0  0  0  0  0  0  0  0  0  0  0  0
  -28.6497   61.0662   60.0754 H   0  0  0  0  0  0  0  0  0  0  0  0
  -29.9070   60.0769   59.2897 H   0  0  0  0  0  0  0  0  0  0  0  0
  -30.2045   61.5183   61.8733 H   0  0  0  0  0  0  0  0  0  0  0  0
  -29.9233   59.7729   61.6421 H   0  0  0  0  0  0  0  0  0  0  0  0
  -34.6350   71.5832   67.1228 H   0  0  0  0  0  0  0  0  0  0  0  0
  -32.0197   59.5489   60.5487 H   0  0  0  0  0  0  0  0  0  0  0  0
  -32.3014   61.2952   60.7550 H   0  0  0  0  0  0  0  0  0  0  0  0
  -27.5791   73.1242   63.1756 H   0  0  0  0  0  0  0  0  0  0  0  0
  -32.0703   59.3090   62.9607 H   0  0  0  0  0  0  0  0  0  0  0  0
  -33.5676   60.0268   62.3240 H   0  0  0  0  0  0  0  0  0  0  0  0
  -32.8889   61.0775   64.3875 H   0  0  0  0  0  0  0  0  0  0  0  0
  -32.8438   62.1846   62.9957 H   0  0  0  0  0  0  0  0  0  0  0  0
  -30.9236   73.4264   63.6276 H   0  0  0  0  0  0  0  0  0  0  0  0
  -30.4741   61.9868   62.8795 H   0  0  0  0  0  0  0  0  0  0  0  0
  -30.5146   60.8636   64.2614 H   0  0  0  0  0  0  0  0  0  0  0  0
  -29.7868   63.0603   64.9246 H   0  0  0  0  0  0  0  0  0  0  0  0
  -31.3343   62.5824   65.6633 H   0  0  0  0  0  0  0  0  0  0  0  0
  -32.5241   63.9768   64.1415 H   0  0  0  0  0  0  0  0  0  0  0  0
  -30.9928   64.4436   63.3783 H   0  0  0  0  0  0  0  0  0  0  0  0
  -31.8034   66.1662   64.8565 H   0  0  0  0  0  0  0  0  0  0  0  0
  -30.2680   65.4436   65.4065 H   0  0  0  0  0  0  0  0  0  0  0  0
  -31.4163   64.1907   67.0660 H   0  0  0  0  0  0  0  0  0  0  0  0
  -32.9560   64.8707   66.5178 H   0  0  0  0  0  0  0  0  0  0  0  0
  -32.1698   65.9651   68.5280 H   0  0  0  0  0  0  0  0  0  0  0  0
  -32.2309   67.0601   67.1391 H   0  0  0  0  0  0  0  0  0  0  0  0
  -29.7677   65.7677   68.2346 H   0  0  0  0  0  0  0  0  0  0  0  0
  -30.2273   67.4408   68.4404 H   0  0  0  0  0  0  0  0  0  0  0  0
  -29.8401   66.8305   66.8496 H   0  0  0  0  0  0  0  0  0  0  0  0
  -35.7619   64.5121   63.5364 H   0  0  0  0  0  0  0  0  0  0  0  0
  -34.3269   63.4826   63.4163 H   0  0  0  0  0  0  0  0  0  0  0  0
  -36.3137   62.3262   62.6413 H   0  0  0  0  0  0  0  0  0  0  0  0
  -35.1281   62.5766   61.3498 H   0  0  0  0  0  0  0  0  0  0  0  0
  -36.4047   64.4193   60.5044 H   0  0  0  0  0  0  0  0  0  0  0  0
  -37.5889   64.1733   61.8106 H   0  0  0  0  0  0  0  0  0  0  0  0
  -38.1777   62.0478   60.9156 H   0  0  0  0  0  0  0  0  0  0  0  0
  -36.9818   62.2762   59.6175 H   0  0  0  0  0  0  0  0  0  0  0  0
  -38.2288   64.1127   58.7530 H   0  0  0  0  0  0  0  0  0  0  0  0
  -39.4197   63.9019   60.0604 H   0  0  0  0  0  0  0  0  0  0  0  0
  -40.2358   63.0225   57.9669 H   0  0  0  0  0  0  0  0  0  0  0  0
  -40.0090   61.7690   59.2102 H   0  0  0  0  0  0  0  0  0  0  0  0
  -39.3395   60.9855   57.0311 H   0  0  0  0  0  0  0  0  0  0  0  0
  -37.9832   61.0915   58.1866 H   0  0  0  0  0  0  0  0  0  0  0  0
  -37.2058   63.0812   57.1407 H   0  0  0  0  0  0  0  0  0  0  0  0
  -38.5678   62.9997   55.9959 H   0  0  0  0  0  0  0  0  0  0  0  0
  -37.7042   60.9812   55.0664 H   0  0  0  0  0  0  0  0  0  0  0  0
  -36.3458   61.0516   56.2235 H   0  0  0  0  0  0  0  0  0  0  0  0
  -35.6633   61.7307   54.0072 H   0  0  0  0  0  0  0  0  0  0  0  0
  -35.5472   63.0371   55.2061 H   0  0  0  0  0  0  0  0  0  0  0  0
  -37.7157   62.7268   53.1826 H   0  0  0  0  0  0  0  0  0  0  0  0
  -36.3365   63.8647   53.1257 H   0  0  0  0  0  0  0  0  0  0  0  0
  -38.5188   63.8968   55.1449 H   0  0  0  0  0  0  0  0  0  0  0  0
  -38.3363   64.9771   53.7320 H   0  0  0  0  0  0  0  0  0  0  0  0
  -37.6728   66.0732   55.7850 H   0  0  0  0  0  0  0  0  0  0  0  0
  -36.3363   65.8731   54.6384 H   0  0  0  0  0  0  0  0  0  0  0  0
  -36.2469   63.6763   56.4195 H   0  0  0  0  0  0  0  0  0  0  0  0
  -34.8771   64.6987   57.8938 H   0  0  0  0  0  0  0  0  0  0  0  0
  -35.4418   67.1040   58.3036 H   0  0  0  0  0  0  0  0  0  0  0  0
  -35.7081   67.2437   56.5507 H   0  0  0  0  0  0  0  0  0  0  0  0
  -33.3798   66.8651   56.1390 H   0  0  0  0  0  0  0  0  0  0  0  0
  -33.1055   66.7017   57.8855 H   0  0  0  0  0  0  0  0  0  0  0  0
  -34.0324   69.1763   56.5024 H   0  0  0  0  0  0  0  0  0  0  0  0
  -32.3925   68.8428   57.0974 H   0  0  0  0  0  0  0  0  0  0  0  0
  -33.2000   68.7417   59.3442 H   0  0  0  0  0  0  0  0  0  0  0  0
  -34.8493   69.0641   58.7441 H   0  0  0  0  0  0  0  0  0  0  0  0
  -34.1995   71.2385   58.0331 H   0  0  0  0  0  0  0  0  0  0  0  0
  -32.5448   70.9224   58.6046 H   0  0  0  0  0  0  0  0  0  0  0  0
  -33.7575   72.3330   60.1399 H   0  0  0  0  0  0  0  0  0  0  0  0
  -33.3265   70.7504   60.8367 H   0  0  0  0  0  0  0  0  0  0  0  0
  -35.5311   71.4547   61.5237 H   0  0  0  0  0  0  0  0  0  0  0  0
  -35.5501   69.9837   60.5350 H   0  0  0  0  0  0  0  0  0  0  0  0
  -36.2387   72.7322   59.5863 H   0  0  0  0  0  0  0  0  0  0  0  0
  -37.3733   71.4466   59.9223 H   0  0  0  0  0  0  0  0  0  0  0  0
  -36.2284   71.2814   58.6126 H   0  0  0  0  0  0  0  0  0  0  0  0
  -30.7515   67.7503   65.3403 H   0  0  0  0  0  0  0  0  0  0  0  0
  -30.7674   69.3839   62.8057 H   0  0  0  0  0  0  0  0  0  0  0  0
  -29.6019   70.1103   65.4990 H   0  0  0  0  0  0  0  0  0  0  0  0
  -31.3342   71.6761   65.7349 H   0  0  0  0  0  0  0  0  0  0  0  0
  -31.8112   69.5117   66.5715 H   0  0  0  0  0  0  0  0  0  0  0  0
  -34.2418   70.4968   65.1292 H   0  0  0  0  0  0  0  0  0  0  0  0
  -34.2225   69.4026   66.5110 H   0  0  0  0  0  0  0  0  0  0  0  0
  1  4  1  0  0  0  0
  1 31  1  0  0  0  0
  1 62  1  0  0  0  0
  2  3  1  0  0  0  0
  2  4  1  0  0  0  0
  2 63  1  0  0  0  0
  2 64  1  0  0  0  0
  3 55  1  0  0  0  0
  4  6  1  0  0  0  0
  4 65  1  6  0  0  0
  5  6  1  0  0  0  0
  5 66  1  0  0  0  0
  6  8  1  0  0  0  0
  6 67  1  1  0  0  0
  7 31  2  0  0  0  0
  8 10  2  0  0  0  0
  8 68  1  0  0  0  0
  9 56  1  0  0  0  0
  9 69  1  0  0  0  0
 10 12  1  0  0  0  0
 10 70  1  0  0  0  0
 11 57  1  0  0  0  0
 11 61  1  0  0  0  0
 12 14  1  0  0  0  0
 12 71  1  0  0  0  0
 12 72  1  0  0  0  0
 13 58  1  0  0  0  0
 13 73  1  0  0  0  0
 14 16  1  0  0  0  0
 14 74  1  0  0  0  0
 14 75  1  0  0  0  0
 15 55  1  0  0  0  0
 15 59  1  0  0  0  0
 16 18  1  0  0  0  0
 16 76  1  0  0  0  0
 16 77  1  0  0  0  0
 17 60  1  0  0  0  0
 17 78  1  0  0  0  0
 18 20  1  0  0  0  0
 18 79  1  0  0  0  0
 18 80  1  0  0  0  0
 19 61  1  0  0  0  0
 19 81  1  0  0  0  0
 20 22  1  0  0  0  0
 20 82  1  0  0  0  0
 20 83  1  0  0  0  0
 21 61  1  0  0  0  0
 22 24  1  0  0  0  0
 22 84  1  0  0  0  0
 22 85  1  0  0  0  0
 23 61  1  0  0  0  0
 23 86  1  0  0  0  0
 24 25  1  0  0  0  0
 24 87  1  0  0  0  0
 24 88  1  0  0  0  0
 25 26  1  0  0  0  0
 25 89  1  0  0  0  0
 25 90  1  0  0  0  0
 26 27  1  0  0  0  0
 26 91  1  0  0  0  0
 26 92  1  0  0  0  0
 27 28  1  0  0  0  0
 27 93  1  0  0  0  0
 27 94  1  0  0  0  0
 28 29  1  0  0  0  0
 28 95  1  0  0  0  0
 28 96  1  0  0  0  0
 29 30  1  0  0  0  0
 29 97  1  0  0  0  0
 29 98  1  0  0  0  0
 30 99  1  0  0  0  0
 30100  1  0  0  0  0
 30101  1  0  0  0  0
 31 32  1  0  0  0  0
 32 33  1  0  0  0  0
 32102  1  0  0  0  0
 32103  1  0  0  0  0
 33 34  1  0  0  0  0
 33104  1  0  0  0  0
 33105  1  0  0  0  0
 34 35  1  0  0  0  0
 34106  1  0  0  0  0
 34107  1  0  0  0  0
 35 36  1  0  0  0  0
 35108  1  0  0  0  0
 35109  1  0  0  0  0
 36 37  1  0  0  0  0
 36110  1  0  0  0  0
 36111  1  0  0  0  0
 37 38  1  0  0  0  0
 37112  1  0  0  0  0
 37113  1  0  0  0  0
 38 39  1  0  0  0  0
 38114  1  0  0  0  0
 38115  1  0  0  0  0
 39 40  1  0  0  0  0
 39116  1  0  0  0  0
 39117  1  0  0  0  0
 40 41  1  0  0  0  0
 40118  1  0  0  0  0
 40119  1  0  0  0  0
 41 42  1  0  0  0  0
 41120  1  0  0  0  0
 41121  1  0  0  0  0
 42 43  1  0  0  0  0
 42122  1  0  0  0  0
 42123  1  0  0  0  0
 43 44  1  0  0  0  0
 43124  1  0  0  0  0
 43125  1  0  0  0  0
 44 45  1  0  0  0  0
 44126  1  0  0  0  0
 44127  1  0  0  0  0
 45 46  2  0  0  0  0
 45128  1  0  0  0  0
 46 47  1  0  0  0  0
 46129  1  0  0  0  0
 47 48  1  0  0  0  0
 47130  1  0  0  0  0
 47131  1  0  0  0  0
 48 49  1  0  0  0  0
 48132  1  0  0  0  0
 48133  1  0  0  0  0
 49 50  1  0  0  0  0
 49134  1  0  0  0  0
 49135  1  0  0  0  0
 50 51  1  0  0  0  0
 50136  1  0  0  0  0
 50137  1  0  0  0  0
 51 52  1  0  0  0  0
 51138  1  0  0  0  0
 51139  1  0  0  0  0
 52 53  1  0  0  0  0
 52140  1  0  0  0  0
 52141  1  0  0  0  0
 53 54  1  0  0  0  0
 53142  1  0  0  0  0
 53143  1  0  0  0  0
 54144  1  0  0  0  0
 54145  1  0  0  0  0
 54146  1  0  0  0  0
 55 56  1  0  0  0  0
 55147  1  1  0  0  0
 56 57  1  0  0  0  0
 56148  1  6  0  0  0
 57 58  1  0  0  0  0
 57149  1  1  0  0  0
 58 59  1  0  0  0  0
 58150  1  1  0  0  0
 59 60  1  0  0  0  0
 59151  1  1  0  0  0
 60152  1  0  0  0  0
 60153  1  0  0  0  0
M  CHG  1  21  -1
M  END
$$$$
/media/chris/experiments/cd1a-new-docking/inputs/ligands/7ryn_ligand.pdb
 OpenBabel07032312553D

153153  0  0  1  0  0  0  0  0999 V2000
  -33.0340   65.1330   62.2120 N   0  0  0  0  0  0  0  0  0  0  0  0
  -32.0220   67.3480   62.3220 C   0  0  0  0  0  0  0  0  0  0  0  0
  -31.1969   68.2589   61.5870 O   0  0  0  0  0  0  0  0  0  0  0  0
  -32.1830   66.0840   61.5030 C   0  0  1  0  0  0  0  0  0  0  0  0
  -31.0548   64.2805   60.3587 O   0  0  0  0  0  0  0  0  0  0  0  0
  -30.8310   65.4230   61.1900 C   0  0  2  0  0  0  0  0  0  0  0  0
  -34.5420   63.4616   62.1958 O   0  0  0  0  0  0  0  0  0  0  0  0
  -30.1054   65.0399   62.4433 C   0  0  0  0  0  0  0  0  0  0  0  0
  -28.8256   69.6743   61.1237 O   0  0  0  0  0  0  0  0  0  0  0  0
  -29.2560   65.8107   63.0932 C   0  0  0  0  0  0  0  0  0  0  0  0
  -29.1955   72.4811   60.9310 O   0  0  0  0  0  0  0  0  0  0  0  0
  -28.5590   65.4049   64.3502 C   0  0  0  0  0  0  0  0  0  0  0  0
  -31.9137   72.6716   61.1716 O   0  0  0  0  0  0  0  0  0  0  0  0
  -29.4088   64.4215   65.1577 C   0  0  0  0  0  0  0  0  0  0  0  0
  -32.1725   70.1372   62.5085 O   0  0  0  0  0  0  0  0  0  0  0  0
  -30.7684   64.9638   65.5679 C   0  0  0  0  0  0  0  0  0  0  0  0
  -33.3185   73.1515   64.2067 O   0  0  0  0  0  0  0  0  0  0  0  0
  -30.7086   66.2187   66.4220 C   0  0  0  0  0  0  0  0  0  0  0  0
  -29.9935   74.6555   61.5959 O   0  0  0  0  0  0  0  0  0  0  0  0
  -32.0725   66.7462   66.8430 C   0  0  0  0  0  0  0  0  0  0  0  0
  -27.8592   74.4219   60.2899 O   0  5  0  0  0  0  0  0  0  0  0  0
  -32.9784   67.0993   65.6734 C   0  0  0  0  0  0  0  0  0  0  0  0
  -28.0162   73.7536   62.5626 O   0  0  0  0  0  0  0  0  0  0  0  0
  -33.2927   65.9230   64.7660 C   0  0  0  0  0  0  0  0  0  0  0  0
  -34.1824   66.2718   63.5874 C   0  0  0  0  0  0  0  0  0  0  0  0
  -35.5345   66.8397   63.9838 C   0  0  0  0  0  0  0  0  0  0  0  0
  -36.4141   67.1655   62.7911 C   0  0  0  0  0  0  0  0  0  0  0  0
  -37.7662   67.7507   63.1514 C   0  0  0  0  0  0  0  0  0  0  0  0
  -37.6515   69.0575   63.9114 C   0  0  0  0  0  0  0  0  0  0  0  0
  -39.0023   69.6318   64.2853 C   0  0  0  0  0  0  0  0  0  0  0  0
  -33.8200   64.2493   61.5913 C   0  0  0  0  0  0  0  0  0  0  0  0
  -33.7740   64.2810   60.0839 C   0  0  0  0  0  0  0  0  0  0  0  0
  -33.3190   62.9564   59.4847 C   0  0  0  0  0  0  0  0  0  0  0  0
  -33.2552   62.9908   57.9661 C   0  0  0  0  0  0  0  0  0  0  0  0
  -32.2853   64.0219   57.4134 C   0  0  0  0  0  0  0  0  0  0  0  0
  -30.8424   63.8013   57.8423 C   0  0  0  0  0  0  0  0  0  0  0  0
  -30.2603   62.4661   57.3960 C   0  0  0  0  0  0  0  0  0  0  0  0
  -28.8212   62.2408   57.8414 C   0  0  0  0  0  0  0  0  0  0  0  0
  -27.8308   63.2879   57.3381 C   0  0  0  0  0  0  0  0  0  0  0  0
  -28.1372   64.7096   57.8060 C   0  0  0  0  0  0  0  0  0  0  0  0
  -27.1637   65.7720   57.2960 C   0  0  0  0  0  0  0  0  0  0  0  0
  -27.4848   67.1814   57.7938 C   0  0  0  0  0  0  0  0  0  0  0  0
  -26.5429   68.2755   57.2915 C   0  0  0  0  0  0  0  0  0  0  0  0
  -25.0705   68.0795   57.6626 C   0  0  0  0  0  0  0  0  0  0  0  0
  -24.8463   68.0156   59.1457 C   0  0  0  0  0  0  0  0  0  0  0  0
  -25.1490   68.9588   60.0201 C   0  0  0  0  0  0  0  0  0  0  0  0
  -25.7800   70.2816   59.7072 C   0  0  0  0  0  0  0  0  0  0  0  0
  -25.3688   71.4009   60.6662 C   0  0  0  0  0  0  0  0  0  0  0  0
  -25.7214   71.1092   62.1187 C   0  0  0  0  0  0  0  0  0  0  0  0
  -25.0435   69.8582   62.6662 C   0  0  0  0  0  0  0  0  0  0  0  0
  -23.5200   69.9098   62.6556 C   0  0  0  0  0  0  0  0  0  0  0  0
  -22.9391   71.0389   63.4951 C   0  0  0  0  0  0  0  0  0  0  0  0
  -21.4204   71.1095   63.4776 C   0  0  0  0  0  0  0  0  0  0  0  0
  -20.8569   71.3367   62.0894 C   0  0  0  0  0  0  0  0  0  0  0  0
  -30.9530   69.4703   62.2406 C   0  0  2  0  0  0  0  0  0  0  0  0
  -30.0721   70.3242   61.3379 C   0  0  1  0  0  0  0  0  0  0  0  0
  -29.8516   71.6915   61.9728 C   0  0  2  0  0  0  0  0  0  0  0  0
  -31.1762   72.3417   62.3441 C   0  0  2  0  0  0  0  0  0  0  0  0
  -31.9954   71.3819   63.2035 C   0  0  1  0  0  0  0  0  0  0  0  0
  -33.3762   71.9033   63.5259 C   0  0  0  0  0  0  0  0  0  0  0  0
  -28.7943   73.9833   61.2565 S   0  0  0  0  0  0  0  0  0  0  0  0
  -33.0282   65.1436   63.1964 H   0  0  0  0  0  0  0  0  0  0  0  0
  -32.9806   67.7896   62.4978 H   0  0  0  0  0  0  0  0  0  0  0  0
  -31.5704   67.1208   63.2650 H   0  0  0  0  0  0  0  0  0  0  0  0
  -32.6374   66.3625   60.5752 H   0  0  0  0  0  0  0  0  0  0  0  0
  -31.5249   64.5525   59.5551 H   0  0  0  0  0  0  0  0  0  0  0  0
  -30.2105   66.1253   60.6735 H   0  0  0  0  0  0  0  0  0  0  0  0
  -30.2845   64.0992   62.8281 H   0  0  0  0  0  0  0  0  0  0  0  0
  -28.9790   68.8059   60.7197 H   0  0  0  0  0  0  0  0  0  0  0  0
  -29.0613   66.7494   62.7110 H   0  0  0  0  0  0  0  0  0  0  0  0
  -28.3733   66.2756   64.9437 H   0  0  0  0  0  0  0  0  0  0  0  0
  -27.6391   64.9247   64.0892 H   0  0  0  0  0  0  0  0  0  0  0  0
  -31.3948   73.2814   60.6241 H   0  0  0  0  0  0  0  0  0  0  0  0
  -28.8696   64.1618   66.0447 H   0  0  0  0  0  0  0  0  0  0  0  0
  -29.5922   63.5801   64.5227 H   0  0  0  0  0  0  0  0  0  0  0  0
  -31.2785   64.2045   66.1230 H   0  0  0  0  0  0  0  0  0  0  0  0
  -31.2769   65.2312   64.6652 H   0  0  0  0  0  0  0  0  0  0  0  0
  -34.2189   73.4572   64.3982 H   0  0  0  0  0  0  0  0  0  0  0  0
  -30.2102   66.9828   65.8629 H   0  0  0  0  0  0  0  0  0  0  0  0
  -30.1870   65.9581   67.3192 H   0  0  0  0  0  0  0  0  0  0  0  0
  -30.5119   74.8176   60.7922 H   0  0  0  0  0  0  0  0  0  0  0  0
  -31.9267   67.6254   67.4350 H   0  0  0  0  0  0  0  0  0  0  0  0
  -32.5563   65.9628   67.3881 H   0  0  0  0  0  0  0  0  0  0  0  0
  -32.4970   67.8564   65.0902 H   0  0  0  0  0  0  0  0  0  0  0  0
  -33.9076   67.4311   66.0875 H   0  0  0  0  0  0  0  0  0  0  0  0
  -28.6262   73.4506   63.2533 H   0  0  0  0  0  0  0  0  0  0  0  0
  -33.7845   65.1715   65.3477 H   0  0  0  0  0  0  0  0  0  0  0  0
  -32.3609   65.5872   64.3611 H   0  0  0  0  0  0  0  0  0  0  0  0
  -34.3452   65.3835   63.0136 H   0  0  0  0  0  0  0  0  0  0  0  0
  -33.6767   67.0332   63.0311 H   0  0  0  0  0  0  0  0  0  0  0  0
  -35.3761   67.7364   64.5456 H   0  0  0  0  0  0  0  0  0  0  0  0
  -36.0393   66.0917   64.5587 H   0  0  0  0  0  0  0  0  0  0  0  0
  -36.5762   66.2637   62.2385 H   0  0  0  0  0  0  0  0  0  0  0  0
  -35.8982   67.9136   62.2263 H   0  0  0  0  0  0  0  0  0  0  0  0
  -38.2938   67.0457   63.7594 H   0  0  0  0  0  0  0  0  0  0  0  0
  -38.2865   67.9512   62.2382 H   0  0  0  0  0  0  0  0  0  0  0  0
  -37.1349   69.7665   63.2987 H   0  0  0  0  0  0  0  0  0  0  0  0
  -37.1198   68.8602   64.8187 H   0  0  0  0  0  0  0  0  0  0  0  0
  -39.5598   69.8403   63.3961 H   0  0  0  0  0  0  0  0  0  0  0  0
  -38.8642   70.5364   64.8400 H   0  0  0  0  0  0  0  0  0  0  0  0
  -39.5373   68.9245   64.8840 H   0  0  0  0  0  0  0  0  0  0  0  0
  -33.0933   65.0477   59.7778 H   0  0  0  0  0  0  0  0  0  0  0  0
  -34.7666   64.4720   59.7329 H   0  0  0  0  0  0  0  0  0  0  0  0
  -34.0068   62.1923   59.7812 H   0  0  0  0  0  0  0  0  0  0  0  0
  -32.3308   62.7609   59.8454 H   0  0  0  0  0  0  0  0  0  0  0  0
  -34.2328   63.2140   57.5929 H   0  0  0  0  0  0  0  0  0  0  0  0
  -32.9030   62.0317   57.6484 H   0  0  0  0  0  0  0  0  0  0  0  0
  -32.5932   64.9894   57.7510 H   0  0  0  0  0  0  0  0  0  0  0  0
  -32.3101   63.9323   56.3474 H   0  0  0  0  0  0  0  0  0  0  0  0
  -30.7982   63.8475   58.9104 H   0  0  0  0  0  0  0  0  0  0  0  0
  -30.2595   64.5657   57.3722 H   0  0  0  0  0  0  0  0  0  0  0  0
  -30.2927   62.4248   56.3273 H   0  0  0  0  0  0  0  0  0  0  0  0
  -30.8510   61.7008   57.8547 H   0  0  0  0  0  0  0  0  0  0  0  0
  -28.5063   61.2833   57.4823 H   0  0  0  0  0  0  0  0  0  0  0  0
  -28.8191   62.3090   58.9092 H   0  0  0  0  0  0  0  0  0  0  0  0
  -27.8434   63.2758   56.2682 H   0  0  0  0  0  0  0  0  0  0  0  0
  -26.8745   63.0286   57.7421 H   0  0  0  0  0  0  0  0  0  0  0  0
  -28.1133   64.7212   58.8757 H   0  0  0  0  0  0  0  0  0  0  0  0
  -29.0968   64.9605   57.4045 H   0  0  0  0  0  0  0  0  0  0  0  0
  -27.1952   65.7750   56.2265 H   0  0  0  0  0  0  0  0  0  0  0  0
  -26.1947   65.5181   57.6723 H   0  0  0  0  0  0  0  0  0  0  0  0
  -27.4433   67.1730   58.8630 H   0  0  0  0  0  0  0  0  0  0  0  0
  -28.4535   67.4209   57.4075 H   0  0  0  0  0  0  0  0  0  0  0  0
  -26.8679   69.2083   57.7027 H   0  0  0  0  0  0  0  0  0  0  0  0
  -26.5897   68.2442   56.2230 H   0  0  0  0  0  0  0  0  0  0  0  0
  -24.5066   68.8981   57.2668 H   0  0  0  0  0  0  0  0  0  0  0  0
  -24.7566   67.1437   57.2493 H   0  0  0  0  0  0  0  0  0  0  0  0
  -24.4155   67.1544   59.5170 H   0  0  0  0  0  0  0  0  0  0  0  0
  -24.9306   68.7668   61.0103 H   0  0  0  0  0  0  0  0  0  0  0  0
  -26.8430   70.1688   59.7555 H   0  0  0  0  0  0  0  0  0  0  0  0
  -25.4439   70.5658   58.7320 H   0  0  0  0  0  0  0  0  0  0  0  0
  -25.8655   72.3013   60.3703 H   0  0  0  0  0  0  0  0  0  0  0  0
  -24.3040   71.4909   60.6103 H   0  0  0  0  0  0  0  0  0  0  0  0
  -26.7811   70.9802   62.1913 H   0  0  0  0  0  0  0  0  0  0  0  0
  -25.3742   71.9372   62.7007 H   0  0  0  0  0  0  0  0  0  0  0  0
  -25.3539   69.0231   62.0736 H   0  0  0  0  0  0  0  0  0  0  0  0
  -25.3384   69.7757   63.6915 H   0  0  0  0  0  0  0  0  0  0  0  0
  -23.1936   70.0383   61.6447 H   0  0  0  0  0  0  0  0  0  0  0  0
  -23.1735   68.9924   63.0836 H   0  0  0  0  0  0  0  0  0  0  0  0
  -23.2572   70.9025   64.5075 H   0  0  0  0  0  0  0  0  0  0  0  0
  -23.2948   71.9537   63.0690 H   0  0  0  0  0  0  0  0  0  0  0  0
  -21.0313   70.1880   63.8574 H   0  0  0  0  0  0  0  0  0  0  0  0
  -21.1306   71.9433   64.0823 H   0  0  0  0  0  0  0  0  0  0  0  0
  -21.1288   70.5184   61.4558 H   0  0  0  0  0  0  0  0  0  0  0  0
  -19.7906   71.4063   62.1443 H   0  0  0  0  0  0  0  0  0  0  0  0
  -21.2535   72.2458   61.6879 H   0  0  0  0  0  0  0  0  0  0  0  0
  -30.4622   69.2932   63.1747 H   0  0  0  0  0  0  0  0  0  0  0  0
  -30.5589   70.4564   60.3943 H   0  0  0  0  0  0  0  0  0  0  0  0
  -29.2758   71.6206   62.8719 H   0  0  0  0  0  0  0  0  0  0  0  0
  -30.9761   73.2382   62.8929 H   0  0  0  0  0  0  0  0  0  0  0  0
  -31.4476   71.2644   64.1151 H   0  0  0  0  0  0  0  0  0  0  0  0
  -33.9213   72.0300   62.6139 H   0  0  0  0  0  0  0  0  0  0  0  0
  -33.8606   71.1952   64.1653 H   0  0  0  0  0  0  0  0  0  0  0  0
  1  4  1  0  0  0  0
  1 31  1  0  0  0  0
  1 62  1  0  0  0  0
  2  3  1  0  0  0  0
  2  4  1  0  0  0  0
  2 63  1  0  0  0  0
  2 64  1  0  0  0  0
  3 55  1  0  0  0  0
  4  6  1  0  0  0  0
  4 65  1  6  0  0  0
  5  6  1  0  0  0  0
  5 66  1  0  0  0  0
  6  8  1  0  0  0  0
  6 67  1  6  0  0  0
  7 31  2  0  0  0  0
  8 10  2  0  0  0  0
  8 68  1  0  0  0  0
  9 56  1  0  0  0  0
  9 69  1  0  0  0  0
 10 12  1  0  0  0  0
 10 70  1  0  0  0  0
 11 57  1  0  0  0  0
 11 61  1  0  0  0  0
 12 14  1  0  0  0  0
 12 71  1  0  0  0  0
 12 72  1  0  0  0  0
 13 58  1  0  0  0  0
 13 73  1  0  0  0  0
 14 16  1  0  0  0  0
 14 74  1  0  0  0  0
 14 75  1  0  0  0  0
 15 55  1  0  0  0  0
 15 59  1  0  0  0  0
 16 18  1  0  0  0  0
 16 76  1  0  0  0  0
 16 77  1  0  0  0  0
 17 60  1  0  0  0  0
 17 78  1  0  0  0  0
 18 20  1  0  0  0  0
 18 79  1  0  0  0  0
 18 80  1  0  0  0  0
 19 61  1  0  0  0  0
 19 81  1  0  0  0  0
 20 22  1  0  0  0  0
 20 82  1  0  0  0  0
 20 83  1  0  0  0  0
 21 61  1  0  0  0  0
 22 24  1  0  0  0  0
 22 84  1  0  0  0  0
 22 85  1  0  0  0  0
 23 61  1  0  0  0  0
 23 86  1  0  0  0  0
 24 25  1  0  0  0  0
 24 87  1  0  0  0  0
 24 88  1  0  0  0  0
 25 26  1  0  0  0  0
 25 89  1  0  0  0  0
 25 90  1  0  0  0  0
 26 27  1  0  0  0  0
 26 91  1  0  0  0  0
 26 92  1  0  0  0  0
 27 28  1  0  0  0  0
 27 93  1  0  0  0  0
 27 94  1  0  0  0  0
 28 29  1  0  0  0  0
 28 95  1  0  0  0  0
 28 96  1  0  0  0  0
 29 30  1  0  0  0  0
 29 97  1  0  0  0  0
 29 98  1  0  0  0  0
 30 99  1  0  0  0  0
 30100  1  0  0  0  0
 30101  1  0  0  0  0
 31 32  1  0  0  0  0
 32 33  1  0  0  0  0
 32102  1  0  0  0  0
 32103  1  0  0  0  0
 33 34  1  0  0  0  0
 33104  1  0  0  0  0
 33105  1  0  0  0  0
 34 35  1  0  0  0  0
 34106  1  0  0  0  0
 34107  1  0  0  0  0
 35 36  1  0  0  0  0
 35108  1  0  0  0  0
 35109  1  0  0  0  0
 36 37  1  0  0  0  0
 36110  1  0  0  0  0
 36111  1  0  0  0  0
 37 38  1  0  0  0  0
 37112  1  0  0  0  0
 37113  1  0  0  0  0
 38 39  1  0  0  0  0
 38114  1  0  0  0  0
 38115  1  0  0  0  0
 39 40  1  0  0  0  0
 39116  1  0  0  0  0
 39117  1  0  0  0  0
 40 41  1  0  0  0  0
 40118  1  0  0  0  0
 40119  1  0  0  0  0
 41 42  1  0  0  0  0
 41120  1  0  0  0  0
 41121  1  0  0  0  0
 42 43  1  0  0  0  0
 42122  1  0  0  0  0
 42123  1  0  0  0  0
 43 44  1  0  0  0  0
 43124  1  0  0  0  0
 43125  1  0  0  0  0
 44 45  1  0  0  0  0
 44126  1  0  0  0  0
 44127  1  0  0  0  0
 45 46  2  0  0  0  0
 45128  1  0  0  0  0
 46 47  1  0  0  0  0
 46129  1  0  0  0  0
 47 48  1  0  0  0  0
 47130  1  0  0  0  0
 47131  1  0  0  0  0
 48 49  1  0  0  0  0
 48132  1  0  0  0  0
 48133  1  0  0  0  0
 49 50  1  0  0  0  0
 49134  1  0  0  0  0
 49135  1  0  0  0  0
 50 51  1  0  0  0  0
 50136  1  0  0  0  0
 50137  1  0  0  0  0
 51 52  1  0  0  0  0
 51138  1  0  0  0  0
 51139  1  0  0  0  0
 52 53  1  0  0  0  0
 52140  1  0  0  0  0
 52141  1  0  0  0  0
 53 54  1  0  0  0  0
 53142  1  0  0  0  0
 53143  1  0  0  0  0
 54144  1  0  0  0  0
 54145  1  0  0  0  0
 54146  1  0  0  0  0
 55 56  1  0  0  0  0
 55147  1  1  0  0  0
 56 57  1  0  0  0  0
 56148  1  6  0  0  0
 57 58  1  0  0  0  0
 57149  1  1  0  0  0
 58 59  1  0  0  0  0
 58150  1  1  0  0  0
 59 60  1  0  0  0  0
 59151  1  1  0  0  0
 60152  1  0  0  0  0
 60153  1  0  0  0  0
M  CHG  1  21  -1
M  END
$$$$
/media/chris/experiments/cd1a-new-docking/inputs/ligands/7ryn_ligand.pdb
 OpenBabel07032312553D

153153  0  0  1  0  0  0  0  0999 V2000
  -33.0340   65.1330   62.2120 N   0  0  0  0  0  0  0  0  0  0  0  0
  -32.0220   67.3480   62.3220 C   0  0  0  0  0  0  0  0  0  0  0  0
  -31.1969   68.2589   61.5870 O   0  0  0  0  0  0  0  0  0  0  0  0
  -32.1830   66.0840   61.5030 C   0  0  1  0  0  0  0  0  0  0  0  0
  -30.2154   65.0225   62.4176 O   0  0  0  0  0  0  0  0  0  0  0  0
  -30.8310   65.4230   61.1900 C   0  0  2  0  0  0  0  0  0  0  0  0
  -32.9252   63.5132   60.6524 O   0  0  0  0  0  0  0  0  0  0  0  0
  -29.9369   66.3439   60.4177 C   0  0  0  0  0  0  0  0  0  0  0  0
  -28.8256   69.6743   61.1237 O   0  0  0  0  0  0  0  0  0  0  0  0
  -29.0262   65.9607   59.5448 C   0  0  0  0  0  0  0  0  0  0  0  0
  -29.1955   72.4811   60.9310 O   0  0  0  0  0  0  0  0  0  0  0  0
  -28.1594   66.9053   58.7787 C   0  0  0  0  0  0  0  0  0  0  0  0
  -31.9137   72.6716   61.1716 O   0  0  0  0  0  0  0  0  0  0  0  0
  -26.8602   67.1950   59.5332 C   0  0  0  0  0  0  0  0  0  0  0  0
  -32.1725   70.1372   62.5085 O   0  0  0  0  0  0  0  0  0  0  0  0
  -26.0011   65.9673   59.7888 C   0  0  0  0  0  0  0  0  0  0  0  0
  -34.0953   71.0007   64.3582 O   0  0  0  0  0  0  0  0  0  0  0  0
  -26.6881   64.8820   60.5998 C   0  0  0  0  0  0  0  0  0  0  0  0
  -27.3990   72.9217   59.3864 O   0  0  0  0  0  0  0  0  0  0  0  0
  -25.8165   63.6633   60.8663 C   0  0  0  0  0  0  0  0  0  0  0  0
  -27.8907   70.5749   60.1391 O   0  5  0  0  0  0  0  0  0  0  0  0
  -26.5168   62.5742   61.6641 C   0  0  0  0  0  0  0  0  0  0  0  0
  -26.9287   72.1823   61.5976 O   0  0  0  0  0  0  0  0  0  0  0  0
  -27.0012   63.0309   63.0290 C   0  0  0  0  0  0  0  0  0  0  0  0
  -27.6859   61.9447   63.8373 C   0  0  0  0  0  0  0  0  0  0  0  0
  -28.9096   61.3522   63.1598 C   0  0  0  0  0  0  0  0  0  0  0  0
  -29.5884   60.2804   63.9923 C   0  0  0  0  0  0  0  0  0  0  0  0
  -30.0979   60.7614   65.3374 C   0  0  0  0  0  0  0  0  0  0  0  0
  -31.1343   61.8604   65.2087 C   0  0  0  0  0  0  0  0  0  0  0  0
  -31.6296   62.3515   66.5533 C   0  0  0  0  0  0  0  0  0  0  0  0
  -33.3385   63.9239   61.7329 C   0  0  0  0  0  0  0  0  0  0  0  0
  -34.2258   63.0783   62.6121 C   0  0  0  0  0  0  0  0  0  0  0  0
  -33.6134   62.8171   63.9823 C   0  0  0  0  0  0  0  0  0  0  0  0
  -34.4978   61.9507   64.8645 C   0  0  0  0  0  0  0  0  0  0  0  0
  -34.7754   60.5705   64.2926 C   0  0  0  0  0  0  0  0  0  0  0  0
  -33.5252   59.7304   64.0784 C   0  0  0  0  0  0  0  0  0  0  0  0
  -32.7386   59.4536   65.3533 C   0  0  0  0  0  0  0  0  0  0  0  0
  -33.5248   58.6872   66.4091 C   0  0  0  0  0  0  0  0  0  0  0  0
  -32.7557   58.4166   67.6997 C   0  0  0  0  0  0  0  0  0  0  0  0
  -33.5489   57.6326   68.7440 C   0  0  0  0  0  0  0  0  0  0  0  0
  -34.8443   58.3056   69.1974 C   0  0  0  0  0  0  0  0  0  0  0  0
  -35.6077   57.5072   70.2542 C   0  0  0  0  0  0  0  0  0  0  0  0
  -36.0271   56.1012   69.8253 C   0  0  0  0  0  0  0  0  0  0  0  0
  -34.8710   55.1667   69.4592 C   0  0  0  0  0  0  0  0  0  0  0  0
  -35.3352   53.8052   69.0292 C   0  0  0  0  0  0  0  0  0  0  0  0
  -34.6762   52.6713   69.1898 C   0  0  0  0  0  0  0  0  0  0  0  0
  -33.3333   52.5159   69.8366 C   0  0  0  0  0  0  0  0  0  0  0  0
  -33.1384   51.1669   70.5320 C   0  0  0  0  0  0  0  0  0  0  0  0
  -34.1586   50.9035   71.6317 C   0  0  0  0  0  0  0  0  0  0  0  0
  -35.5975   50.8784   71.1285 C   0  0  0  0  0  0  0  0  0  0  0  0
  -35.8839   49.8012   70.0885 C   0  0  0  0  0  0  0  0  0  0  0  0
  -35.6467   48.3845   70.5922 C   0  0  0  0  0  0  0  0  0  0  0  0
  -35.9133   47.3032   69.5571 C   0  0  0  0  0  0  0  0  0  0  0  0
  -35.0275   47.4270   68.3340 C   0  0  0  0  0  0  0  0  0  0  0  0
  -30.9530   69.4703   62.2406 C   0  0  2  0  0  0  0  0  0  0  0  0
  -30.0721   70.3242   61.3379 C   0  0  1  0  0  0  0  0  0  0  0  0
  -29.8516   71.6915   61.9728 C   0  0  2  0  0  0  0  0  0  0  0  0
  -31.1762   72.3417   62.3441 C   0  0  2  0  0  0  0  0  0  0  0  0
  -31.9954   71.3819   63.2035 C   0  0  1  0  0  0  0  0  0  0  0  0
  -33.3762   71.9033   63.5259 C   0  0  0  0  0  0  0  0  0  0  0  0
  -27.8065   71.9707   60.3532 S   0  0  0  0  0  0  0  0  0  0  0  0
  -33.4017   65.3959   63.0866 H   0  0  0  0  0  0  0  0  0  0  0  0
  -32.9806   67.7896   62.4978 H   0  0  0  0  0  0  0  0  0  0  0  0
  -31.5704   67.1208   63.2650 H   0  0  0  0  0  0  0  0  0  0  0  0
  -32.6374   66.3625   60.5752 H   0  0  0  0  0  0  0  0  0  0  0  0
  -30.8116   64.4280   62.8994 H   0  0  0  0  0  0  0  0  0  0  0  0
  -30.9971   64.5628   60.5757 H   0  0  0  0  0  0  0  0  0  0  0  0
  -30.0419   67.3574   60.5817 H   0  0  0  0  0  0  0  0  0  0  0  0
  -28.9790   68.8059   60.7197 H   0  0  0  0  0  0  0  0  0  0  0  0
  -28.9053   64.9489   59.3813 H   0  0  0  0  0  0  0  0  0  0  0  0
  -28.6890   67.8230   58.6294 H   0  0  0  0  0  0  0  0  0  0  0  0
  -27.9141   66.4559   57.8391 H   0  0  0  0  0  0  0  0  0  0  0  0
  -31.3948   73.2814   60.6241 H   0  0  0  0  0  0  0  0  0  0  0  0
  -27.1107   67.6318   60.4773 H   0  0  0  0  0  0  0  0  0  0  0  0
  -26.2841   67.8498   58.9133 H   0  0  0  0  0  0  0  0  0  0  0  0
  -25.1238   66.2764   60.3177 H   0  0  0  0  0  0  0  0  0  0  0  0
  -25.7813   65.5423   58.8318 H   0  0  0  0  0  0  0  0  0  0  0  0
  -34.9748   71.3645   64.5457 H   0  0  0  0  0  0  0  0  0  0  0  0
  -27.5586   64.5628   60.0657 H   0  0  0  0  0  0  0  0  0  0  0  0
  -26.9229   65.3090   61.5524 H   0  0  0  0  0  0  0  0  0  0  0  0
  -27.9341   72.8168   58.5842 H   0  0  0  0  0  0  0  0  0  0  0  0
  -24.9520   63.9790   61.4120 H   0  0  0  0  0  0  0  0  0  0  0  0
  -25.5671   63.2428   59.9145 H   0  0  0  0  0  0  0  0  0  0  0  0
  -25.8318   61.7639   61.8028 H   0  0  0  0  0  0  0  0  0  0  0  0
  -27.3830   62.2863   61.1058 H   0  0  0  0  0  0  0  0  0  0  0  0
  -26.8467   73.1319   61.7778 H   0  0  0  0  0  0  0  0  0  0  0  0
  -27.6949   63.8333   62.8884 H   0  0  0  0  0  0  0  0  0  0  0  0
  -26.1341   63.3273   63.5814 H   0  0  0  0  0  0  0  0  0  0  0  0
  -27.9890   62.3625   64.7746 H   0  0  0  0  0  0  0  0  0  0  0  0
  -26.9787   61.1499   63.9514 H   0  0  0  0  0  0  0  0  0  0  0  0
  -28.6079   60.9202   62.2285 H   0  0  0  0  0  0  0  0  0  0  0  0
  -29.6147   62.1452   63.0228 H   0  0  0  0  0  0  0  0  0  0  0  0
  -28.8841   59.4932   64.1632 H   0  0  0  0  0  0  0  0  0  0  0  0
  -30.4455   59.9600   63.4378 H   0  0  0  0  0  0  0  0  0  0  0  0
  -29.2705   61.1352   65.9037 H   0  0  0  0  0  0  0  0  0  0  0  0
  -30.5651   59.9304   65.8233 H   0  0  0  0  0  0  0  0  0  0  0  0
  -31.9673   61.4831   64.6531 H   0  0  0  0  0  0  0  0  0  0  0  0
  -30.6715   62.6870   64.7112 H   0  0  0  0  0  0  0  0  0  0  0  0
  -32.0991   61.5449   67.0767 H   0  0  0  0  0  0  0  0  0  0  0  0
  -32.3368   63.1409   66.4063 H   0  0  0  0  0  0  0  0  0  0  0  0
  -30.8028   62.7155   67.1267 H   0  0  0  0  0  0  0  0  0  0  0  0
  -34.3943   62.1394   62.1273 H   0  0  0  0  0  0  0  0  0  0  0  0
  -35.1397   63.6142   62.7620 H   0  0  0  0  0  0  0  0  0  0  0  0
  -33.4562   63.7556   64.4715 H   0  0  0  0  0  0  0  0  0  0  0  0
  -32.6940   62.2912   63.8305 H   0  0  0  0  0  0  0  0  0  0  0  0
  -35.4327   62.4530   65.0010 H   0  0  0  0  0  0  0  0  0  0  0  0
  -33.9712   61.8053   65.7846 H   0  0  0  0  0  0  0  0  0  0  0  0
  -35.2675   60.6889   63.3499 H   0  0  0  0  0  0  0  0  0  0  0  0
  -35.3792   60.0528   65.0083 H   0  0  0  0  0  0  0  0  0  0  0  0
  -32.8856   60.2475   63.3940 H   0  0  0  0  0  0  0  0  0  0  0  0
  -33.8499   58.7825   63.7030 H   0  0  0  0  0  0  0  0  0  0  0  0
  -32.4359   60.3903   65.7725 H   0  0  0  0  0  0  0  0  0  0  0  0
  -31.9071   58.8390   65.0781 H   0  0  0  0  0  0  0  0  0  0  0  0
  -33.8169   57.7466   65.9909 H   0  0  0  0  0  0  0  0  0  0  0  0
  -34.3578   59.3039   66.6752 H   0  0  0  0  0  0  0  0  0  0  0  0
  -32.4743   59.3564   68.1269 H   0  0  0  0  0  0  0  0  0  0  0  0
  -31.9115   57.8142   67.4362 H   0  0  0  0  0  0  0  0  0  0  0  0
  -32.9256   57.4959   69.6029 H   0  0  0  0  0  0  0  0  0  0  0  0
  -33.8327   56.7113   68.2798 H   0  0  0  0  0  0  0  0  0  0  0  0
  -35.4777   58.4308   68.3442 H   0  0  0  0  0  0  0  0  0  0  0  0
  -34.5745   59.2404   69.6427 H   0  0  0  0  0  0  0  0  0  0  0  0
  -36.4916   58.0539   70.5086 H   0  0  0  0  0  0  0  0  0  0  0  0
  -34.9346   57.3801   71.0763 H   0  0  0  0  0  0  0  0  0  0  0  0
  -36.6652   56.1909   68.9711 H   0  0  0  0  0  0  0  0  0  0  0  0
  -36.5116   55.6614   70.6719 H   0  0  0  0  0  0  0  0  0  0  0  0
  -34.2365   55.0571   70.3138 H   0  0  0  0  0  0  0  0  0  0  0  0
  -34.3523   55.6055   68.6325 H   0  0  0  0  0  0  0  0  0  0  0  0
  -36.2551   53.7498   68.5647 H   0  0  0  0  0  0  0  0  0  0  0  0
  -35.1282   51.8131   68.8372 H   0  0  0  0  0  0  0  0  0  0  0  0
  -33.2171   53.2914   70.5647 H   0  0  0  0  0  0  0  0  0  0  0  0
  -32.6021   52.5749   69.0576 H   0  0  0  0  0  0  0  0  0  0  0  0
  -32.1599   51.1458   70.9644 H   0  0  0  0  0  0  0  0  0  0  0  0
  -33.2680   50.4064   69.7906 H   0  0  0  0  0  0  0  0  0  0  0  0
  -34.0702   51.6745   72.3683 H   0  0  0  0  0  0  0  0  0  0  0  0
  -33.9473   49.9346   72.0334 H   0  0  0  0  0  0  0  0  0  0  0  0
  -35.8159   51.8307   70.6923 H   0  0  0  0  0  0  0  0  0  0  0  0
  -36.2126   50.6556   71.9752 H   0  0  0  0  0  0  0  0  0  0  0  0
  -35.2489   49.9700   69.2440 H   0  0  0  0  0  0  0  0  0  0  0  0
  -36.9221   49.8747   69.8405 H   0  0  0  0  0  0  0  0  0  0  0  0
  -36.2906   48.2137   71.4296 H   0  0  0  0  0  0  0  0  0  0  0  0
  -34.6096   48.3178   70.8470 H   0  0  0  0  0  0  0  0  0  0  0  0
  -36.9351   47.3717   69.2471 H   0  0  0  0  0  0  0  0  0  0  0  0
  -35.6987   46.3602   70.0150 H   0  0  0  0  0  0  0  0  0  0  0  0
  -35.2167   48.3623   67.8498 H   0  0  0  0  0  0  0  0  0  0  0  0
  -35.2396   46.6257   67.6574 H   0  0  0  0  0  0  0  0  0  0  0  0
  -34.0006   47.3805   68.6311 H   0  0  0  0  0  0  0  0  0  0  0  0
  -30.4622   69.2932   63.1747 H   0  0  0  0  0  0  0  0  0  0  0  0
  -30.5589   70.4564   60.3943 H   0  0  0  0  0  0  0  0  0  0  0  0
  -29.2758   71.6206   62.8719 H   0  0  0  0  0  0  0  0  0  0  0  0
  -30.9761   73.2382   62.8929 H   0  0  0  0  0  0  0  0  0  0  0  0
  -31.4476   71.2644   64.1151 H   0  0  0  0  0  0  0  0  0  0  0  0
  -33.2837   72.8424   64.0303 H   0  0  0  0  0  0  0  0  0  0  0  0
  -33.9150   72.0142   62.6081 H   0  0  0  0  0  0  0  0  0  0  0  0
  1  4  1  0  0  0  0
  1 31  1  0  0  0  0
  1 62  1  0  0  0  0
  2  3  1  0  0  0  0
  2  4  1  0  0  0  0
  2 63  1  0  0  0  0
  2 64  1  0  0  0  0
  3 55  1  0  0  0  0
  4  6  1  0  0  0  0
  4 65  1  6  0  0  0
  5  6  1  0  0  0  0
  5 66  1  0  0  0  0
  6  8  1  0  0  0  0
  6 67  1  6  0  0  0
  7 31  2  0  0  0  0
  8 10  2  0  0  0  0
  8 68  1  0  0  0  0
  9 56  1  0  0  0  0
  9 69  1  0  0  0  0
 10 12  1  0  0  0  0
 10 70  1  0  0  0  0
 11 57  1  0  0  0  0
 11 61  1  0  0  0  0
 12 14  1  0  0  0  0
 12 71  1  0  0  0  0
 12 72  1  0  0  0  0
 13 58  1  0  0  0  0
 13 73  1  0  0  0  0
 14 16  1  0  0  0  0
 14 74  1  0  0  0  0
 14 75  1  0  0  0  0
 15 55  1  0  0  0  0
 15 59  1  0  0  0  0
 16 18  1  0  0  0  0
 16 76  1  0  0  0  0
 16 77  1  0  0  0  0
 17 60  1  0  0  0  0
 17 78  1  0  0  0  0
 18 20  1  0  0  0  0
 18 79  1  0  0  0  0
 18 80  1  0  0  0  0
 19 61  1  0  0  0  0
 19 81  1  0  0  0  0
 20 22  1  0  0  0  0
 20 82  1  0  0  0  0
 20 83  1  0  0  0  0
 21 61  1  0  0  0  0
 22 24  1  0  0  0  0
 22 84  1  0  0  0  0
 22 85  1  0  0  0  0
 23 61  1  0  0  0  0
 23 86  1  0  0  0  0
 24 25  1  0  0  0  0
 24 87  1  0  0  0  0
 24 88  1  0  0  0  0
 25 26  1  0  0  0  0
 25 89  1  0  0  0  0
 25 90  1  0  0  0  0
 26 27  1  0  0  0  0
 26 91  1  0  0  0  0
 26 92  1  0  0  0  0
 27 28  1  0  0  0  0
 27 93  1  0  0  0  0
 27 94  1  0  0  0  0
 28 29  1  0  0  0  0
 28 95  1  0  0  0  0
 28 96  1  0  0  0  0
 29 30  1  0  0  0  0
 29 97  1  0  0  0  0
 29 98  1  0  0  0  0
 30 99  1  0  0  0  0
 30100  1  0  0  0  0
 30101  1  0  0  0  0
 31 32  1  0  0  0  0
 32 33  1  0  0  0  0
 32102  1  0  0  0  0
 32103  1  0  0  0  0
 33 34  1  0  0  0  0
 33104  1  0  0  0  0
 33105  1  0  0  0  0
 34 35  1  0  0  0  0
 34106  1  0  0  0  0
 34107  1  0  0  0  0
 35 36  1  0  0  0  0
 35108  1  0  0  0  0
 35109  1  0  0  0  0
 36 37  1  0  0  0  0
 36110  1  0  0  0  0
 36111  1  0  0  0  0
 37 38  1  0  0  0  0
 37112  1  0  0  0  0
 37113  1  0  0  0  0
 38 39  1  0  0  0  0
 38114  1  0  0  0  0
 38115  1  0  0  0  0
 39 40  1  0  0  0  0
 39116  1  0  0  0  0
 39117  1  0  0  0  0
 40 41  1  0  0  0  0
 40118  1  0  0  0  0
 40119  1  0  0  0  0
 41 42  1  0  0  0  0
 41120  1  0  0  0  0
 41121  1  0  0  0  0
 42 43  1  0  0  0  0
 42122  1  0  0  0  0
 42123  1  0  0  0  0
 43 44  1  0  0  0  0
 43124  1  0  0  0  0
 43125  1  0  0  0  0
 44 45  1  0  0  0  0
 44126  1  0  0  0  0
 44127  1  0  0  0  0
 45 46  2  0  0  0  0
 45128  1  0  0  0  0
 46 47  1  0  0  0  0
 46129  1  0  0  0  0
 47 48  1  0  0  0  0
 47130  1  0  0  0  0
 47131  1  0  0  0  0
 48 49  1  0  0  0  0
 48132  1  0  0  0  0
 48133  1  0  0  0  0
 49 50  1  0  0  0  0
 49134  1  0  0  0  0
 49135  1  0  0  0  0
 50 51  1  0  0  0  0
 50136  1  0  0  0  0
 50137  1  0  0  0  0
 51 52  1  0  0  0  0
 51138  1  0  0  0  0
 51139  1  0  0  0  0
 52 53  1  0  0  0  0
 52140  1  0  0  0  0
 52141  1  0  0  0  0
 53 54  1  0  0  0  0
 53142  1  0  0  0  0
 53143  1  0  0  0  0
 54144  1  0  0  0  0
 54145  1  0  0  0  0
 54146  1  0  0  0  0
 55 56  1  0  0  0  0
 55147  1  1  0  0  0
 56 57  1  0  0  0  0
 56148  1  6  0  0  0
 57 58  1  0  0  0  0
 57149  1  1  0  0  0
 58 59  1  0  0  0  0
 58150  1  1  0  0  0
 59 60  1  0  0  0  0
 59151  1  1  0  0  0
 60152  1  0  0  0  0
 60153  1  0  0  0  0
M  CHG  1  21  -1
M  END
$$$$
/media/chris/experiments/cd1a-new-docking/inputs/ligands/7ryn_ligand.pdb
 OpenBabel07032312553D

153153  0  0  1  0  0  0  0  0999 V2000
  -33.0340   65.1330   62.2120 N   0  0  0  0  0  0  0  0  0  0  0  0
  -32.0220   67.3480   62.3220 C   0  0  0  0  0  0  0  0  0  0  0  0
  -31.4051   67.0024   63.5673 O   0  0  0  0  0  0  0  0  0  0  0  0
  -32.1830   66.0840   61.5030 C   0  0  1  0  0  0  0  0  0  0  0  0
  -30.2154   65.0225   62.4176 O   0  0  0  0  0  0  0  0  0  0  0  0
  -30.8310   65.4230   61.1900 C   0  0  2  0  0  0  0  0  0  0  0  0
  -32.4714   65.8137   64.2827 O   0  0  0  0  0  0  0  0  0  0  0  0
  -29.9369   66.3439   60.4177 C   0  0  0  0  0  0  0  0  0  0  0  0
  -31.4046   66.6220   66.3415 O   0  0  0  0  0  0  0  0  0  0  0  0
  -28.6200   66.3494   60.4787 C   0  0  0  0  0  0  0  0  0  0  0  0
  -29.4155   68.1261   67.6954 O   0  0  0  0  0  0  0  0  0  0  0  0
  -27.7547   67.2714   59.6837 C   0  0  0  0  0  0  0  0  0  0  0  0
  -28.1411   69.3260   65.5933 O   0  0  0  0  0  0  0  0  0  0  0  0
  -26.4595   67.5927   60.4323 C   0  0  0  0  0  0  0  0  0  0  0  0
  -30.3909   69.0606   63.8198 O   0  0  0  0  0  0  0  0  0  0  0  0
  -25.5312   68.5419   59.6922 C   0  0  0  0  0  0  0  0  0  0  0  0
  -28.1534   70.6686   63.3778 O   0  0  0  0  0  0  0  0  0  0  0  0
  -24.2371   68.8490   60.4262 C   0  0  0  0  0  0  0  0  0  0  0  0
  -28.1457   70.0889   68.2805 O   0  0  0  0  0  0  0  0  0  0  0  0
  -23.3203   69.8130   59.6873 C   0  0  0  0  0  0  0  0  0  0  0  0
  -28.4860   68.2421   69.9506 O   0  5  0  0  0  0  0  0  0  0  0  0
  -22.8949   69.3193   58.3130 C   0  0  0  0  0  0  0  0  0  0  0  0
  -30.2585   69.6783   69.2930 O   0  0  0  0  0  0  0  0  0  0  0  0
  -21.9664   70.2722   57.5810 C   0  0  0  0  0  0  0  0  0  0  0  0
  -22.5560   71.6502   57.3445 C   0  0  0  0  0  0  0  0  0  0  0  0
  -22.9169   72.3923   58.6199 C   0  0  0  0  0  0  0  0  0  0  0  0
  -21.7223   72.6353   59.5234 C   0  0  0  0  0  0  0  0  0  0  0  0
  -20.6239   73.4732   58.8975 C   0  0  0  0  0  0  0  0  0  0  0  0
  -21.0986   74.8596   58.5088 C   0  0  0  0  0  0  0  0  0  0  0  0
  -21.5951   75.6573   59.6968 C   0  0  0  0  0  0  0  0  0  0  0  0
  -33.1122   65.0716   63.5440 C   0  0  0  0  0  0  0  0  0  0  0  0
  -34.0520   64.0283   64.0950 C   0  0  0  0  0  0  0  0  0  0  0  0
  -35.2217   63.7435   63.1616 C   0  0  0  0  0  0  0  0  0  0  0  0
  -36.0602   64.9795   62.8779 C   0  0  0  0  0  0  0  0  0  0  0  0
  -35.2911   66.1048   62.2061 C   0  0  0  0  0  0  0  0  0  0  0  0
  -36.1272   67.3473   61.9383 C   0  0  0  0  0  0  0  0  0  0  0  0
  -37.3356   67.1002   61.0441 C   0  0  0  0  0  0  0  0  0  0  0  0
  -36.9824   66.5529   59.6671 C   0  0  0  0  0  0  0  0  0  0  0  0
  -38.1817   66.3158   58.7528 C   0  0  0  0  0  0  0  0  0  0  0  0
  -37.8161   65.7510   57.3811 C   0  0  0  0  0  0  0  0  0  0  0  0
  -37.1152   64.3931   57.4174 C   0  0  0  0  0  0  0  0  0  0  0  0
  -36.7464   63.8610   56.0324 C   0  0  0  0  0  0  0  0  0  0  0  0
  -35.7875   64.7440   55.2341 C   0  0  0  0  0  0  0  0  0  0  0  0
  -34.4221   64.9698   55.8888 C   0  0  0  0  0  0  0  0  0  0  0  0
  -34.5230   65.6171   57.2398 C   0  0  0  0  0  0  0  0  0  0  0  0
  -33.9917   66.7751   57.5898 C   0  0  0  0  0  0  0  0  0  0  0  0
  -33.1835   67.6772   56.7070 C   0  0  0  0  0  0  0  0  0  0  0  0
  -32.6907   68.9441   57.4095 C   0  0  0  0  0  0  0  0  0  0  0  0
  -31.7854   68.6589   58.6005 C   0  0  0  0  0  0  0  0  0  0  0  0
  -31.3070   69.9194   59.3122 C   0  0  0  0  0  0  0  0  0  0  0  0
  -30.3849   69.6629   60.4987 C   0  0  0  0  0  0  0  0  0  0  0  0
  -29.9309   70.9312   61.2075 C   0  0  0  0  0  0  0  0  0  0  0  0
  -29.1733   71.9041   60.3179 C   0  0  0  0  0  0  0  0  0  0  0  0
  -28.7206   73.1475   61.0560 C   0  0  0  0  0  0  0  0  0  0  0  0
  -31.2104   68.0828   64.4327 C   0  0  2  0  0  0  0  0  0  0  0  0
  -30.5480   67.5584   65.7001 C   0  0  1  0  0  0  0  0  0  0  0  0
  -30.2364   68.7171   66.6389 C   0  0  2  0  0  0  0  0  0  0  0  0
  -29.4420   69.8007   65.9249 C   0  0  2  0  0  0  0  0  0  0  0  0
  -30.1703   70.2134   64.6482 C   0  0  1  0  0  0  0  0  0  0  0  0
  -29.3950   71.2080   63.8163 C   0  0  0  0  0  0  0  0  0  0  0  0
  -28.9132   69.0600   68.8784 S   0  0  0  0  0  0  0  0  0  0  0  0
  -33.5772   64.5058   61.6821 H   0  0  0  0  0  0  0  0  0  0  0  0
  -31.4053   68.0450   61.7940 H   0  0  0  0  0  0  0  0  0  0  0  0
  -32.9770   67.7979   62.4965 H   0  0  0  0  0  0  0  0  0  0  0  0
  -32.6374   66.3625   60.5752 H   0  0  0  0  0  0  0  0  0  0  0  0
  -30.8116   64.4280   62.8994 H   0  0  0  0  0  0  0  0  0  0  0  0
  -30.9971   64.5628   60.5757 H   0  0  0  0  0  0  0  0  0  0  0  0
  -30.3869   67.0273   59.7888 H   0  0  0  0  0  0  0  0  0  0  0  0
  -31.5955   65.8899   65.7345 H   0  0  0  0  0  0  0  0  0  0  0  0
  -28.1601   65.6775   61.1128 H   0  0  0  0  0  0  0  0  0  0  0  0
  -28.2879   68.1809   59.5014 H   0  0  0  0  0  0  0  0  0  0  0  0
  -27.5040   66.7913   58.7609 H   0  0  0  0  0  0  0  0  0  0  0  0
  -27.6765   69.0633   66.4032 H   0  0  0  0  0  0  0  0  0  0  0  0
  -25.9349   66.6761   60.6040 H   0  0  0  0  0  0  0  0  0  0  0  0
  -26.7426   68.0845   61.3395 H   0  0  0  0  0  0  0  0  0  0  0  0
  -26.0519   69.4627   59.5315 H   0  0  0  0  0  0  0  0  0  0  0  0
  -25.2579   68.0543   58.7798 H   0  0  0  0  0  0  0  0  0  0  0  0
  -27.6822   71.3306   62.8482 H   0  0  0  0  0  0  0  0  0  0  0  0
  -23.7090   67.9305   60.5760 H   0  0  0  0  0  0  0  0  0  0  0  0
  -24.5080   69.3231   61.3464 H   0  0  0  0  0  0  0  0  0  0  0  0
  -27.2864   69.7330   68.0054 H   0  0  0  0  0  0  0  0  0  0  0  0
  -22.4417   69.9643   60.2789 H   0  0  0  0  0  0  0  0  0  0  0  0
  -23.8723   70.7174   59.5379 H   0  0  0  0  0  0  0  0  0  0  0  0
  -23.7731   69.1797   57.7178 H   0  0  0  0  0  0  0  0  0  0  0  0
  -22.3531   68.4088   58.4624 H   0  0  0  0  0  0  0  0  0  0  0  0
  -30.5856   70.2488   68.5800 H   0  0  0  0  0  0  0  0  0  0  0  0
  -21.7242   69.8426   56.6314 H   0  0  0  0  0  0  0  0  0  0  0  0
  -21.1071   70.4064   58.2043 H   0  0  0  0  0  0  0  0  0  0  0  0
  -23.4428   71.5407   56.7559 H   0  0  0  0  0  0  0  0  0  0  0  0
  -21.8039   72.2292   56.8504 H   0  0  0  0  0  0  0  0  0  0  0  0
  -23.6391   71.8144   59.1578 H   0  0  0  0  0  0  0  0  0  0  0  0
  -23.3023   73.3490   58.3351 H   0  0  0  0  0  0  0  0  0  0  0  0
  -21.3074   71.6863   59.7922 H   0  0  0  0  0  0  0  0  0  0  0  0
  -22.0839   73.1861   60.3665 H   0  0  0  0  0  0  0  0  0  0  0  0
  -20.2695   72.9737   58.0202 H   0  0  0  0  0  0  0  0  0  0  0  0
  -19.8488   73.5883   59.6261 H   0  0  0  0  0  0  0  0  0  0  0  0
  -21.8966   74.7634   57.8024 H   0  0  0  0  0  0  0  0  0  0  0  0
  -20.2644   75.3835   58.0912 H   0  0  0  0  0  0  0  0  0  0  0  0
  -22.4321   75.1573   60.1376 H   0  0  0  0  0  0  0  0  0  0  0  0
  -21.8926   76.6326   59.3724 H   0  0  0  0  0  0  0  0  0  0  0  0
  -20.8112   75.7457   60.4198 H   0  0  0  0  0  0  0  0  0  0  0  0
  -34.4370   64.3740   65.0315 H   0  0  0  0  0  0  0  0  0  0  0  0
  -33.4981   63.1198   64.2077 H   0  0  0  0  0  0  0  0  0  0  0  0
  -35.8470   63.0017   63.6129 H   0  0  0  0  0  0  0  0  0  0  0  0
  -34.8173   63.4064   62.2300 H   0  0  0  0  0  0  0  0  0  0  0  0
  -36.4479   65.3438   63.8062 H   0  0  0  0  0  0  0  0  0  0  0  0
  -36.8316   64.6821   62.1987 H   0  0  0  0  0  0  0  0  0  0  0  0
  -34.9138   65.7446   61.2719 H   0  0  0  0  0  0  0  0  0  0  0  0
  -34.5112   66.3939   62.8794 H   0  0  0  0  0  0  0  0  0  0  0  0
  -35.5033   68.0774   61.4666 H   0  0  0  0  0  0  0  0  0  0  0  0
  -36.5042   67.6764   62.8840 H   0  0  0  0  0  0  0  0  0  0  0  0
  -37.8546   68.0270   60.9154 H   0  0  0  0  0  0  0  0  0  0  0  0
  -37.9345   66.3580   61.5292 H   0  0  0  0  0  0  0  0  0  0  0  0
  -36.4732   65.6210   59.7985 H   0  0  0  0  0  0  0  0  0  0  0  0
  -36.3787   67.2964   59.1901 H   0  0  0  0  0  0  0  0  0  0  0  0
  -38.6847   67.2492   58.6090 H   0  0  0  0  0  0  0  0  0  0  0  0
  -38.7978   65.5852   59.2339 H   0  0  0  0  0  0  0  0  0  0  0  0
  -37.1665   66.4488   56.8953 H   0  0  0  0  0  0  0  0  0  0  0  0
  -38.7383   65.6020   56.8593 H   0  0  0  0  0  0  0  0  0  0  0  0
  -37.7673   63.6877   57.8888 H   0  0  0  0  0  0  0  0  0  0  0  0
  -36.2013   64.5245   57.9581 H   0  0  0  0  0  0  0  0  0  0  0  0
  -37.6485   63.7549   55.4668 H   0  0  0  0  0  0  0  0  0  0  0  0
  -36.2348   62.9354   56.1948 H   0  0  0  0  0  0  0  0  0  0  0  0
  -36.2516   65.6981   55.0957 H   0  0  0  0  0  0  0  0  0  0  0  0
  -35.5982   64.2277   54.3162 H   0  0  0  0  0  0  0  0  0  0  0  0
  -33.8374   65.5994   55.2512 H   0  0  0  0  0  0  0  0  0  0  0  0
  -33.9682   64.0105   56.0251 H   0  0  0  0  0  0  0  0  0  0  0  0
  -35.0572   65.1101   57.9626 H   0  0  0  0  0  0  0  0  0  0  0  0
  -34.1477   67.0874   58.5609 H   0  0  0  0  0  0  0  0  0  0  0  0
  -33.7897   67.9667   55.8742 H   0  0  0  0  0  0  0  0  0  0  0  0
  -32.3156   67.1273   56.4083 H   0  0  0  0  0  0  0  0  0  0  0  0
  -33.5414   69.4945   57.7537 H   0  0  0  0  0  0  0  0  0  0  0  0
  -32.1138   69.4971   56.6980 H   0  0  0  0  0  0  0  0  0  0  0  0
  -30.9290   68.1191   58.2540 H   0  0  0  0  0  0  0  0  0  0  0  0
  -32.3596   68.0959   59.3063 H   0  0  0  0  0  0  0  0  0  0  0  0
  -32.1662   70.4506   59.6652 H   0  0  0  0  0  0  0  0  0  0  0  0
  -30.7366   70.4750   58.5975 H   0  0  0  0  0  0  0  0  0  0  0  0
  -29.5179   69.1441   60.1465 H   0  0  0  0  0  0  0  0  0  0  0  0
  -30.9430   69.0905   61.2099 H   0  0  0  0  0  0  0  0  0  0  0  0
  -29.2925   70.6519   62.0195 H   0  0  0  0  0  0  0  0  0  0  0  0
  -30.8165   71.4365   61.5320 H   0  0  0  0  0  0  0  0  0  0  0  0
  -29.8128   72.1990   59.5123 H   0  0  0  0  0  0  0  0  0  0  0  0
  -28.2963   71.4018   59.9665 H   0  0  0  0  0  0  0  0  0  0  0  0
  -29.5757   73.6760   61.4223 H   0  0  0  0  0  0  0  0  0  0  0  0
  -28.1705   73.7778   60.3889 H   0  0  0  0  0  0  0  0  0  0  0  0
  -28.0957   72.8667   61.8779 H   0  0  0  0  0  0  0  0  0  0  0  0
  -32.1486   68.5400   64.6687 H   0  0  0  0  0  0  0  0  0  0  0  0
  -29.6327   67.0681   65.4416 H   0  0  0  0  0  0  0  0  0  0  0  0
  -31.1294   69.1768   67.0080 H   0  0  0  0  0  0  0  0  0  0  0  0
  -29.3488   70.6437   66.5772 H   0  0  0  0  0  0  0  0  0  0  0  0
  -31.0858   70.6667   64.9665 H   0  0  0  0  0  0  0  0  0  0  0  0
  -29.9792   71.4753   62.9606 H   0  0  0  0  0  0  0  0  0  0  0  0
  -29.1918   72.0657   64.4231 H   0  0  0  0  0  0  0  0  0  0  0  0
  1  4  1  0  0  0  0
  1 31  1  0  0  0  0
  1 62  1  0  0  0  0
  2  3  1  0  0  0  0
  2  4  1  0  0  0  0
  2 63  1  0  0  0  0
  2 64  1  0  0  0  0
  3 55  1  0  0  0  0
  4  6  1  0  0  0  0
  4 65  1  6  0  0  0
  5  6  1  0  0  0  0
  5 66  1  0  0  0  0
  6  8  1  0  0  0  0
  6 67  1  6  0  0  0
  7 31  2  0  0  0  0
  8 10  2  0  0  0  0
  8 68  1  0  0  0  0
  9 56  1  0  0  0  0
  9 69  1  0  0  0  0
 10 12  1  0  0  0  0
 10 70  1  0  0  0  0
 11 57  1  0  0  0  0
 11 61  1  0  0  0  0
 12 14  1  0  0  0  0
 12 71  1  0  0  0  0
 12 72  1  0  0  0  0
 13 58  1  0  0  0  0
 13 73  1  0  0  0  0
 14 16  1  0  0  0  0
 14 74  1  0  0  0  0
 14 75  1  0  0  0  0
 15 55  1  0  0  0  0
 15 59  1  0  0  0  0
 16 18  1  0  0  0  0
 16 76  1  0  0  0  0
 16 77  1  0  0  0  0
 17 60  1  0  0  0  0
 17 78  1  0  0  0  0
 18 20  1  0  0  0  0
 18 79  1  0  0  0  0
 18 80  1  0  0  0  0
 19 61  1  0  0  0  0
 19 81  1  0  0  0  0
 20 22  1  0  0  0  0
 20 82  1  0  0  0  0
 20 83  1  0  0  0  0
 21 61  1  0  0  0  0
 22 24  1  0  0  0  0
 22 84  1  0  0  0  0
 22 85  1  0  0  0  0
 23 61  1  0  0  0  0
 23 86  1  0  0  0  0
 24 25  1  0  0  0  0
 24 87  1  0  0  0  0
 24 88  1  0  0  0  0
 25 26  1  0  0  0  0
 25 89  1  0  0  0  0
 25 90  1  0  0  0  0
 26 27  1  0  0  0  0
 26 91  1  0  0  0  0
 26 92  1  0  0  0  0
 27 28  1  0  0  0  0
 27 93  1  0  0  0  0
 27 94  1  0  0  0  0
 28 29  1  0  0  0  0
 28 95  1  0  0  0  0
 28 96  1  0  0  0  0
 29 30  1  0  0  0  0
 29 97  1  0  0  0  0
 29 98  1  0  0  0  0
 30 99  1  0  0  0  0
 30100  1  0  0  0  0
 30101  1  0  0  0  0
 31 32  1  0  0  0  0
 32 33  1  0  0  0  0
 32102  1  0  0  0  0
 32103  1  0  0  0  0
 33 34  1  0  0  0  0
 33104  1  0  0  0  0
 33105  1  0  0  0  0
 34 35  1  0  0  0  0
 34106  1  0  0  0  0
 34107  1  0  0  0  0
 35 36  1  0  0  0  0
 35108  1  0  0  0  0
 35109  1  0  0  0  0
 36 37  1  0  0  0  0
 36110  1  0  0  0  0
 36111  1  0  0  0  0
 37 38  1  0  0  0  0
 37112  1  0  0  0  0
 37113  1  0  0  0  0
 38 39  1  0  0  0  0
 38114  1  0  0  0  0
 38115  1  0  0  0  0
 39 40  1  0  0  0  0
 39116  1  0  0  0  0
 39117  1  0  0  0  0
 40 41  1  0  0  0  0
 40118  1  0  0  0  0
 40119  1  0  0  0  0
 41 42  1  0  0  0  0
 41120  1  0  0  0  0
 41121  1  0  0  0  0
 42 43  1  0  0  0  0
 42122  1  0  0  0  0
 42123  1  0  0  0  0
 43 44  1  0  0  0  0
 43124  1  0  0  0  0
 43125  1  0  0  0  0
 44 45  1  0  0  0  0
 44126  1  0  0  0  0
 44127  1  0  0  0  0
 45 46  2  0  0  0  0
 45128  1  0  0  0  0
 46 47  1  0  0  0  0
 46129  1  0  0  0  0
 47 48  1  0  0  0  0
 47130  1  0  0  0  0
 47131  1  0  0  0  0
 48 49  1  0  0  0  0
 48132  1  0  0  0  0
 48133  1  0  0  0  0
 49 50  1  0  0  0  0
 49134  1  0  0  0  0
 49135  1  0  0  0  0
 50 51  1  0  0  0  0
 50136  1  0  0  0  0
 50137  1  0  0  0  0
 51 52  1  0  0  0  0
 51138  1  0  0  0  0
 51139  1  0  0  0  0
 52 53  1  0  0  0  0
 52140  1  0  0  0  0
 52141  1  0  0  0  0
 53 54  1  0  0  0  0
 53142  1  0  0  0  0
 53143  1  0  0  0  0
 54144  1  0  0  0  0
 54145  1  0  0  0  0
 54146  1  0  0  0  0
 55 56  1  0  0  0  0
 55147  1  1  0  0  0
 56 57  1  0  0  0  0
 56148  1  6  0  0  0
 57 58  1  0  0  0  0
 57149  1  1  0  0  0
 58 59  1  0  0  0  0
 58150  1  1  0  0  0
 59 60  1  0  0  0  0
 59151  1  1  0  0  0
 60152  1  0  0  0  0
 60153  1  0  0  0  0
M  CHG  1  21  -1
M  END
$$$$
/media/chris/experiments/cd1a-new-docking/inputs/ligands/7ryn_ligand.pdb
 OpenBabel07032312553D

153153  0  0  1  0  0  0  0  0999 V2000
  -33.0340   65.1330   62.2120 N   0  0  0  0  0  0  0  0  0  0  0  0
  -32.0220   67.3480   62.3220 C   0  0  0  0  0  0  0  0  0  0  0  0
  -33.3204   67.9104   62.5424 O   0  0  0  0  0  0  0  0  0  0  0  0
  -32.1830   66.0840   61.5030 C   0  0  1  0  0  0  0  0  0  0  0  0
  -31.0548   64.2805   60.3587 O   0  0  0  0  0  0  0  0  0  0  0  0
  -30.8310   65.4230   61.1900 C   0  0  2  0  0  0  0  0  0  0  0  0
  -34.9746   65.8457   61.3210 O   0  0  0  0  0  0  0  0  0  0  0  0
  -30.1054   65.0399   62.4433 C   0  0  0  0  0  0  0  0  0  0  0  0
  -35.3151   69.8361   62.1498 O   0  0  0  0  0  0  0  0  0  0  0  0
  -28.9184   64.4680   62.4873 C   0  0  0  0  0  0  0  0  0  0  0  0
  -36.2332   71.0293   64.5551 O   0  0  0  0  0  0  0  0  0  0  0  0
  -28.2138   64.1114   63.7550 C   0  0  0  0  0  0  0  0  0  0  0  0
  -34.7894   69.6393   66.4168 O   0  0  0  0  0  0  0  0  0  0  0  0
  -27.9816   65.3501   64.6226 C   0  0  0  0  0  0  0  0  0  0  0  0
  -32.7334   68.8853   64.5507 O   0  0  0  0  0  0  0  0  0  0  0  0
  -27.1527   66.4338   63.9524 C   0  0  0  0  0  0  0  0  0  0  0  0
  -32.5661   68.6711   67.3280 O   0  0  0  0  0  0  0  0  0  0  0  0
  -26.9068   67.6575   64.8184 C   0  0  0  0  0  0  0  0  0  0  0  0
  -38.4981   71.4463   63.8454 O   0  0  0  0  0  0  0  0  0  0  0  0
  -28.1781   68.3598   65.2725 C   0  0  0  0  0  0  0  0  0  0  0  0
  -36.8651   70.3129   62.3077 O   0  5  0  0  0  0  0  0  0  0  0  0
  -29.0491   68.8484   64.1253 C   0  0  0  0  0  0  0  0  0  0  0  0
  -36.6888   72.6195   62.8416 O   0  0  0  0  0  0  0  0  0  0  0  0
  -28.3509   69.8324   63.2031 C   0  0  0  0  0  0  0  0  0  0  0  0
  -29.2196   70.3369   62.0659 C   0  0  0  0  0  0  0  0  0  0  0  0
  -30.4638   71.0783   62.5240 C   0  0  0  0  0  0  0  0  0  0  0  0
  -31.3262   71.5590   61.3718 C   0  0  0  0  0  0  0  0  0  0  0  0
  -30.6232   72.5022   60.4145 C   0  0  0  0  0  0  0  0  0  0  0  0
  -31.5259   72.9702   59.2898 C   0  0  0  0  0  0  0  0  0  0  0  0
  -32.7369   73.7272   59.7945 C   0  0  0  0  0  0  0  0  0  0  0  0
  -34.3610   65.0876   62.0665 C   0  0  0  0  0  0  0  0  0  0  0  0
  -35.0703   64.0312   62.8766 C   0  0  0  0  0  0  0  0  0  0  0  0
  -34.1128   63.2023   63.7231 C   0  0  0  0  0  0  0  0  0  0  0  0
  -33.0657   62.4820   62.8888 C   0  0  0  0  0  0  0  0  0  0  0  0
  -32.1055   61.6325   63.7046 C   0  0  0  0  0  0  0  0  0  0  0  0
  -32.7837   60.5214   64.4920 C   0  0  0  0  0  0  0  0  0  0  0  0
  -33.5283   59.5135   63.6258 C   0  0  0  0  0  0  0  0  0  0  0  0
  -32.6382   58.7759   62.6339 C   0  0  0  0  0  0  0  0  0  0  0  0
  -33.3727   57.7741   61.7465 C   0  0  0  0  0  0  0  0  0  0  0  0
  -32.4666   57.0286   60.7679 C   0  0  0  0  0  0  0  0  0  0  0  0
  -33.1904   56.0340   59.8607 C   0  0  0  0  0  0  0  0  0  0  0  0
  -32.2570   55.2911   58.9046 C   0  0  0  0  0  0  0  0  0  0  0  0
  -31.1764   54.4472   59.5804 C   0  0  0  0  0  0  0  0  0  0  0  0
  -30.2329   53.7180   58.6201 C   0  0  0  0  0  0  0  0  0  0  0  0
  -29.2016   52.8908   59.3316 C   0  0  0  0  0  0  0  0  0  0  0  0
  -29.3263   51.6224   59.6803 C   0  0  0  0  0  0  0  0  0  0  0  0
  -30.5220   50.7533   59.4329 C   0  0  0  0  0  0  0  0  0  0  0  0
  -30.4684   49.9985   58.1029 C   0  0  0  0  0  0  0  0  0  0  0  0
  -31.6952   49.1315   57.8528 C   0  0  0  0  0  0  0  0  0  0  0  0
  -32.9958   49.9251   57.7984 C   0  0  0  0  0  0  0  0  0  0  0  0
  -33.3113   50.7077   59.0679 C   0  0  0  0  0  0  0  0  0  0  0  0
  -34.6213   51.4802   59.0021 C   0  0  0  0  0  0  0  0  0  0  0  0
  -34.6852   52.5024   57.8784 C   0  0  0  0  0  0  0  0  0  0  0  0
  -35.9937   53.2659   57.8500 C   0  0  0  0  0  0  0  0  0  0  0  0
  -33.3156   69.0988   63.2783 C   0  0  2  0  0  0  0  0  0  0  0  0
  -34.7576   69.5657   63.4297 C   0  0  1  0  0  0  0  0  0  0  0  0
  -34.8089   70.8140   64.3015 C   0  0  2  0  0  0  0  0  0  0  0  0
  -34.0866   70.5888   65.6217 C   0  0  2  0  0  0  0  0  0  0  0  0
  -32.6741   70.0760   65.3523 C   0  0  1  0  0  0  0  0  0  0  0  0
  -31.9211   69.7182   66.6122 C   0  0  0  0  0  0  0  0  0  0  0  0
  -37.2005   71.2487   63.3141 S   0  0  0  0  0  0  0  0  0  0  0  0
  -32.6087   64.4935   62.8279 H   0  0  0  0  0  0  0  0  0  0  0  0
  -31.5648   67.1148   63.2609 H   0  0  0  0  0  0  0  0  0  0  0  0
  -31.4012   68.0473   61.8019 H   0  0  0  0  0  0  0  0  0  0  0  0
  -32.6374   66.3625   60.5752 H   0  0  0  0  0  0  0  0  0  0  0  0
  -31.5249   64.5525   59.5551 H   0  0  0  0  0  0  0  0  0  0  0  0
  -30.2105   66.1253   60.6735 H   0  0  0  0  0  0  0  0  0  0  0  0
  -30.5711   65.2392   63.3425 H   0  0  0  0  0  0  0  0  0  0  0  0
  -35.2768   69.0347   61.6046 H   0  0  0  0  0  0  0  0  0  0  0  0
  -28.4487   64.2543   61.5936 H   0  0  0  0  0  0  0  0  0  0  0  0
  -27.2690   63.6690   63.5172 H   0  0  0  0  0  0  0  0  0  0  0  0
  -28.8242   63.4230   64.3013 H   0  0  0  0  0  0  0  0  0  0  0  0
  -35.6873   69.9632   66.5891 H   0  0  0  0  0  0  0  0  0  0  0  0
  -27.4762   65.0448   65.5150 H   0  0  0  0  0  0  0  0  0  0  0  0
  -28.9444   65.7749   64.8161 H   0  0  0  0  0  0  0  0  0  0  0  0
  -27.6644   66.7475   63.0666 H   0  0  0  0  0  0  0  0  0  0  0  0
  -26.1940   66.0046   63.7487 H   0  0  0  0  0  0  0  0  0  0  0  0
  -32.0585   68.4665   68.1288 H   0  0  0  0  0  0  0  0  0  0  0  0
  -26.3195   68.3541   64.2575 H   0  0  0  0  0  0  0  0  0  0  0  0
  -26.4089   67.3165   65.7020 H   0  0  0  0  0  0  0  0  0  0  0  0
  -38.8534   70.5983   64.1546 H   0  0  0  0  0  0  0  0  0  0  0  0
  -27.9030   69.2032   65.8707 H   0  0  0  0  0  0  0  0  0  0  0  0
  -28.7539   67.6424   65.8190 H   0  0  0  0  0  0  0  0  0  0  0  0
  -29.9130   69.3266   64.5373 H   0  0  0  0  0  0  0  0  0  0  0  0
  -29.2983   67.9910   63.5356 H   0  0  0  0  0  0  0  0  0  0  0  0
  -36.9009   73.2912   63.5085 H   0  0  0  0  0  0  0  0  0  0  0  0
  -27.4938   69.3492   62.7827 H   0  0  0  0  0  0  0  0  0  0  0  0
  -28.0942   70.6843   63.7975 H   0  0  0  0  0  0  0  0  0  0  0  0
  -29.5252   69.4973   61.4773 H   0  0  0  0  0  0  0  0  0  0  0  0
  -28.6290   71.0350   61.5101 H   0  0  0  0  0  0  0  0  0  0  0  0
  -30.1617   71.9272   63.1010 H   0  0  0  0  0  0  0  0  0  0  0  0
  -31.0510   70.3929   63.0988 H   0  0  0  0  0  0  0  0  0  0  0  0
  -32.1756   72.0668   61.7787 H   0  0  0  0  0  0  0  0  0  0  0  0
  -31.5913   70.6906   60.8056 H   0  0  0  0  0  0  0  0  0  0  0  0
  -29.7816   71.9955   59.9903 H   0  0  0  0  0  0  0  0  0  0  0  0
  -30.3243   73.3658   60.9710 H   0  0  0  0  0  0  0  0  0  0  0  0
  -31.8603   72.1153   58.7400 H   0  0  0  0  0  0  0  0  0  0  0  0
  -30.9590   73.6370   58.6742 H   0  0  0  0  0  0  0  0  0  0  0  0
  -33.3258   73.0849   60.4154 H   0  0  0  0  0  0  0  0  0  0  0  0
  -33.3242   74.0559   58.9627 H   0  0  0  0  0  0  0  0  0  0  0  0
  -32.4161   74.5757   60.3620 H   0  0  0  0  0  0  0  0  0  0  0  0
  -35.5902   63.3777   62.2076 H   0  0  0  0  0  0  0  0  0  0  0  0
  -35.7431   64.5303   63.5424 H   0  0  0  0  0  0  0  0  0  0  0  0
  -34.6784   62.4739   64.2657 H   0  0  0  0  0  0  0  0  0  0  0  0
  -33.5982   63.8727   64.3793 H   0  0  0  0  0  0  0  0  0  0  0  0
  -32.4972   63.2151   62.3556 H   0  0  0  0  0  0  0  0  0  0  0  0
  -33.5921   61.8164   62.2370 H   0  0  0  0  0  0  0  0  0  0  0  0
  -31.5936   62.2705   64.3944 H   0  0  0  0  0  0  0  0  0  0  0  0
  -31.4408   61.1612   63.0110 H   0  0  0  0  0  0  0  0  0  0  0  0
  -33.4840   60.9668   65.1673 H   0  0  0  0  0  0  0  0  0  0  0  0
  -32.0093   59.9829   64.9972 H   0  0  0  0  0  0  0  0  0  0  0  0
  -34.2847   60.0346   63.0769 H   0  0  0  0  0  0  0  0  0  0  0  0
  -33.9347   58.7764   64.2864 H   0  0  0  0  0  0  0  0  0  0  0  0
  -31.8895   58.2470   63.1860 H   0  0  0  0  0  0  0  0  0  0  0  0
  -32.2302   59.5187   61.9807 H   0  0  0  0  0  0  0  0  0  0  0  0
  -34.1128   58.3031   61.1834 H   0  0  0  0  0  0  0  0  0  0  0  0
  -33.7974   57.0381   62.3968 H   0  0  0  0  0  0  0  0  0  0  0  0
  -31.7343   56.4919   61.3341 H   0  0  0  0  0  0  0  0  0  0  0  0
  -32.0401   57.7701   60.1251 H   0  0  0  0  0  0  0  0  0  0  0  0
  -33.9138   56.5685   59.2810 H   0  0  0  0  0  0  0  0  0  0  0  0
  -33.6416   55.2996   60.4948 H   0  0  0  0  0  0  0  0  0  0  0  0
  -31.7724   56.0158   58.2842 H   0  0  0  0  0  0  0  0  0  0  0  0
  -32.8722   54.6068   58.3585 H   0  0  0  0  0  0  0  0  0  0  0  0
  -31.6607   53.7141   60.1910 H   0  0  0  0  0  0  0  0  0  0  0  0
  -30.5687   55.1288   60.1381 H   0  0  0  0  0  0  0  0  0  0  0  0
  -29.7307   54.4452   58.0168 H   0  0  0  0  0  0  0  0  0  0  0  0
  -30.8269   53.0527   58.0290 H   0  0  0  0  0  0  0  0  0  0  0  0
  -28.3122   53.3563   59.5706 H   0  0  0  0  0  0  0  0  0  0  0  0
  -28.5263   51.1902   60.1682 H   0  0  0  0  0  0  0  0  0  0  0  0
  -31.3954   51.3714   59.4356 H   0  0  0  0  0  0  0  0  0  0  0  0
  -30.5403   50.0177   60.2097 H   0  0  0  0  0  0  0  0  0  0  0  0
  -29.6026   49.3697   58.1039 H   0  0  0  0  0  0  0  0  0  0  0  0
  -30.4337   50.7310   57.3238 H   0  0  0  0  0  0  0  0  0  0  0  0
  -31.7692   48.4126   58.6418 H   0  0  0  0  0  0  0  0  0  0  0  0
  -31.5663   48.6699   56.8961 H   0  0  0  0  0  0  0  0  0  0  0  0
  -33.7982   49.2401   57.6197 H   0  0  0  0  0  0  0  0  0  0  0  0
  -32.8802   50.6464   57.0166 H   0  0  0  0  0  0  0  0  0  0  0  0
  -32.5173   51.4037   59.2416 H   0  0  0  0  0  0  0  0  0  0  0  0
  -33.4093   49.9936   59.8587 H   0  0  0  0  0  0  0  0  0  0  0  0
  -34.7552   51.9938   59.9312 H   0  0  0  0  0  0  0  0  0  0  0  0
  -35.3922   50.7633   58.8105 H   0  0  0  0  0  0  0  0  0  0  0  0
  -34.5674   51.9920   56.9454 H   0  0  0  0  0  0  0  0  0  0  0  0
  -33.9025   53.2125   58.0452 H   0  0  0  0  0  0  0  0  0  0  0  0
  -36.8012   52.5837   57.6844 H   0  0  0  0  0  0  0  0  0  0  0  0
  -35.9686   53.9874   57.0602 H   0  0  0  0  0  0  0  0  0  0  0  0
  -36.1353   53.7659   58.7854 H   0  0  0  0  0  0  0  0  0  0  0  0
  -32.7377   69.8438   62.7723 H   0  0  0  0  0  0  0  0  0  0  0  0
  -35.3300   68.7932   63.8992 H   0  0  0  0  0  0  0  0  0  0  0  0
  -34.3360   71.6474   63.8253 H   0  0  0  0  0  0  0  0  0  0  0  0
  -34.0399   71.5181   66.1499 H   0  0  0  0  0  0  0  0  0  0  0  0
  -32.1619   70.8745   64.8573 H   0  0  0  0  0  0  0  0  0  0  0  0
  -30.9335   69.4016   66.3486 H   0  0  0  0  0  0  0  0  0  0  0  0
  -31.8897   70.5836   67.2407 H   0  0  0  0  0  0  0  0  0  0  0  0
  1  4  1  0  0  0  0
  1 31  1  0  0  0  0
  1 62  1  0  0  0  0
  2  3  1  0  0  0  0
  2  4  1  0  0  0  0
  2 63  1  0  0  0  0
  2 64  1  0  0  0  0
  3 55  1  0  0  0  0
  4  6  1  0  0  0  0
  4 65  1  6  0  0  0
  5  6  1  0  0  0  0
  5 66  1  0  0  0  0
  6  8  1  0  0  0  0
  6 67  1  6  0  0  0
  7 31  2  0  0  0  0
  8 10  2  0  0  0  0
  8 68  1  0  0  0  0
  9 56  1  0  0  0  0
  9 69  1  0  0  0  0
 10 12  1  0  0  0  0
 10 70  1  0  0  0  0
 11 57  1  0  0  0  0
 11 61  1  0  0  0  0
 12 14  1  0  0  0  0
 12 71  1  0  0  0  0
 12 72  1  0  0  0  0
 13 58  1  0  0  0  0
 13 73  1  0  0  0  0
 14 16  1  0  0  0  0
 14 74  1  0  0  0  0
 14 75  1  0  0  0  0
 15 55  1  0  0  0  0
 15 59  1  0  0  0  0
 16 18  1  0  0  0  0
 16 76  1  0  0  0  0
 16 77  1  0  0  0  0
 17 60  1  0  0  0  0
 17 78  1  0  0  0  0
 18 20  1  0  0  0  0
 18 79  1  0  0  0  0
 18 80  1  0  0  0  0
 19 61  1  0  0  0  0
 19 81  1  0  0  0  0
 20 22  1  0  0  0  0
 20 82  1  0  0  0  0
 20 83  1  0  0  0  0
 21 61  1  0  0  0  0
 22 24  1  0  0  0  0
 22 84  1  0  0  0  0
 22 85  1  0  0  0  0
 23 61  1  0  0  0  0
 23 86  1  0  0  0  0
 24 25  1  0  0  0  0
 24 87  1  0  0  0  0
 24 88  1  0  0  0  0
 25 26  1  0  0  0  0
 25 89  1  0  0  0  0
 25 90  1  0  0  0  0
 26 27  1  0  0  0  0
 26 91  1  0  0  0  0
 26 92  1  0  0  0  0
 27 28  1  0  0  0  0
 27 93  1  0  0  0  0
 27 94  1  0  0  0  0
 28 29  1  0  0  0  0
 28 95  1  0  0  0  0
 28 96  1  0  0  0  0
 29 30  1  0  0  0  0
 29 97  1  0  0  0  0
 29 98  1  0  0  0  0
 30 99  1  0  0  0  0
 30100  1  0  0  0  0
 30101  1  0  0  0  0
 31 32  1  0  0  0  0
 32 33  1  0  0  0  0
 32102  1  0  0  0  0
 32103  1  0  0  0  0
 33 34  1  0  0  0  0
 33104  1  0  0  0  0
 33105  1  0  0  0  0
 34 35  1  0  0  0  0
 34106  1  0  0  0  0
 34107  1  0  0  0  0
 35 36  1  0  0  0  0
 35108  1  0  0  0  0
 35109  1  0  0  0  0
 36 37  1  0  0  0  0
 36110  1  0  0  0  0
 36111  1  0  0  0  0
 37 38  1  0  0  0  0
 37112  1  0  0  0  0
 37113  1  0  0  0  0
 38 39  1  0  0  0  0
 38114  1  0  0  0  0
 38115  1  0  0  0  0
 39 40  1  0  0  0  0
 39116  1  0  0  0  0
 39117  1  0  0  0  0
 40 41  1  0  0  0  0
 40118  1  0  0  0  0
 40119  1  0  0  0  0
 41 42  1  0  0  0  0
 41120  1  0  0  0  0
 41121  1  0  0  0  0
 42 43  1  0  0  0  0
 42122  1  0  0  0  0
 42123  1  0  0  0  0
 43 44  1  0  0  0  0
 43124  1  0  0  0  0
 43125  1  0  0  0  0
 44 45  1  0  0  0  0
 44126  1  0  0  0  0
 44127  1  0  0  0  0
 45 46  2  0  0  0  0
 45128  1  0  0  0  0
 46 47  1  0  0  0  0
 46129  1  0  0  0  0
 47 48  1  0  0  0  0
 47130  1  0  0  0  0
 47131  1  0  0  0  0
 48 49  1  0  0  0  0
 48132  1  0  0  0  0
 48133  1  0  0  0  0
 49 50  1  0  0  0  0
 49134  1  0  0  0  0
 49135  1  0  0  0  0
 50 51  1  0  0  0  0
 50136  1  0  0  0  0
 50137  1  0  0  0  0
 51 52  1  0  0  0  0
 51138  1  0  0  0  0
 51139  1  0  0  0  0
 52 53  1  0  0  0  0
 52140  1  0  0  0  0
 52141  1  0  0  0  0
 53 54  1  0  0  0  0
 53142  1  0  0  0  0
 53143  1  0  0  0  0
 54144  1  0  0  0  0
 54145  1  0  0  0  0
 54146  1  0  0  0  0
 55 56  1  0  0  0  0
 55147  1  6  0  0  0
 56 57  1  0  0  0  0
 56148  1  1  0  0  0
 57 58  1  0  0  0  0
 57149  1  6  0  0  0
 58 59  1  0  0  0  0
 58150  1  1  0  0  0
 59 60  1  0  0  0  0
 59151  1  6  0  0  0
 60152  1  0  0  0  0
 60153  1  0  0  0  0
M  CHG  1  21  -1
M  END
$$$$
/media/chris/experiments/cd1a-new-docking/inputs/ligands/7ryn_ligand.pdb
 OpenBabel07032312553D

153153  0  0  1  0  0  0  0  0999 V2000
  -33.0340   65.1330   62.2120 N   0  0  0  0  0  0  0  0  0  0  0  0
  -32.0220   67.3480   62.3220 C   0  0  0  0  0  0  0  0  0  0  0  0
  -31.4051   67.0024   63.5673 O   0  0  0  0  0  0  0  0  0  0  0  0
  -32.1830   66.0840   61.5030 C   0  0  1  0  0  0  0  0  0  0  0  0
  -31.0548   64.2805   60.3587 O   0  0  0  0  0  0  0  0  0  0  0  0
  -30.8310   65.4230   61.1900 C   0  0  2  0  0  0  0  0  0  0  0  0
  -33.3937   66.4369   64.0115 O   0  0  0  0  0  0  0  0  0  0  0  0
  -30.1054   65.0399   62.4433 C   0  0  0  0  0  0  0  0  0  0  0  0
  -31.4046   66.6220   66.3415 O   0  0  0  0  0  0  0  0  0  0  0  0
  -29.2770   64.0208   62.5582 C   0  0  0  0  0  0  0  0  0  0  0  0
  -29.4155   68.1261   67.6954 O   0  0  0  0  0  0  0  0  0  0  0  0
  -28.5564   63.6732   63.8194 C   0  0  0  0  0  0  0  0  0  0  0  0
  -28.1411   69.3260   65.5933 O   0  0  0  0  0  0  0  0  0  0  0  0
  -27.2080   63.0152   63.5192 C   0  0  0  0  0  0  0  0  0  0  0  0
  -30.3909   69.0606   63.8198 O   0  0  0  0  0  0  0  0  0  0  0  0
  -26.4204   62.6159   64.7565 C   0  0  0  0  0  0  0  0  0  0  0  0
  -29.1056   72.3918   64.5510 O   0  0  0  0  0  0  0  0  0  0  0  0
  -26.0911   63.7707   65.6870 C   0  0  0  0  0  0  0  0  0  0  0  0
  -29.0352   66.5764   69.5011 O   0  0  0  0  0  0  0  0  0  0  0  0
  -25.2880   63.3663   66.9147 C   0  0  0  0  0  0  0  0  0  0  0  0
  -30.6879   66.0419   67.6849 O   0  5  0  0  0  0  0  0  0  0  0  0
  -24.9769   64.5248   67.8498 C   0  0  0  0  0  0  0  0  0  0  0  0
  -31.1144   67.7162   69.3133 O   0  0  0  0  0  0  0  0  0  0  0  0
  -24.1819   65.6418   67.1967 C   0  0  0  0  0  0  0  0  0  0  0  0
  -23.8534   66.7933   68.1286 C   0  0  0  0  0  0  0  0  0  0  0  0
  -25.0755   67.4714   68.7236 C   0  0  0  0  0  0  0  0  0  0  0  0
  -26.0065   68.0458   67.6720 C   0  0  0  0  0  0  0  0  0  0  0  0
  -26.5752   67.0193   66.7112 C   0  0  0  0  0  0  0  0  0  0  0  0
  -27.4851   67.6386   65.6686 C   0  0  0  0  0  0  0  0  0  0  0  0
  -28.0656   66.6099   64.7203 C   0  0  0  0  0  0  0  0  0  0  0  0
  -33.5723   65.3825   63.4087 C   0  0  0  0  0  0  0  0  0  0  0  0
  -34.4300   64.2814   63.9806 C   0  0  0  0  0  0  0  0  0  0  0  0
  -33.6565   62.9855   64.1884 C   0  0  0  0  0  0  0  0  0  0  0  0
  -32.4959   63.1442   65.1574 C   0  0  0  0  0  0  0  0  0  0  0  0
  -32.9132   63.5767   66.5531 C   0  0  0  0  0  0  0  0  0  0  0  0
  -33.8472   62.5968   67.2473 C   0  0  0  0  0  0  0  0  0  0  0  0
  -33.2507   61.2098   67.4503 C   0  0  0  0  0  0  0  0  0  0  0  0
  -31.9940   61.1986   68.3111 C   0  0  0  0  0  0  0  0  0  0  0  0
  -31.3744   59.8177   68.5100 C   0  0  0  0  0  0  0  0  0  0  0  0
  -30.9321   59.1418   67.2131 C   0  0  0  0  0  0  0  0  0  0  0  0
  -32.0509   58.9227   66.1950 C   0  0  0  0  0  0  0  0  0  0  0  0
  -31.5827   58.2296   64.9153 C   0  0  0  0  0  0  0  0  0  0  0  0
  -30.4899   58.9677   64.1423 C   0  0  0  0  0  0  0  0  0  0  0  0
  -30.0352   58.2794   62.8525 C   0  0  0  0  0  0  0  0  0  0  0  0
  -29.4897   56.9006   63.0882 C   0  0  0  0  0  0  0  0  0  0  0  0
  -29.5453   55.8864   62.2431 C   0  0  0  0  0  0  0  0  0  0  0  0
  -30.1620   55.9095   60.8773 C   0  0  0  0  0  0  0  0  0  0  0  0
  -29.4946   54.9544   59.8855 C   0  0  0  0  0  0  0  0  0  0  0  0
  -30.1170   54.9974   58.4962 C   0  0  0  0  0  0  0  0  0  0  0  0
  -29.4646   54.0341   57.5110 C   0  0  0  0  0  0  0  0  0  0  0  0
  -29.5506   52.5661   57.9126 C   0  0  0  0  0  0  0  0  0  0  0  0
  -30.9762   52.0485   58.0421 C   0  0  0  0  0  0  0  0  0  0  0  0
  -31.0731   50.5895   58.4589 C   0  0  0  0  0  0  0  0  0  0  0  0
  -32.5033   50.1000   58.5625 C   0  0  0  0  0  0  0  0  0  0  0  0
  -31.2104   68.0828   64.4327 C   0  0  2  0  0  0  0  0  0  0  0  0
  -30.5480   67.5584   65.7001 C   0  0  1  0  0  0  0  0  0  0  0  0
  -30.2364   68.7171   66.6389 C   0  0  2  0  0  0  0  0  0  0  0  0
  -29.4420   69.8007   65.9249 C   0  0  2  0  0  0  0  0  0  0  0  0
  -30.1703   70.2134   64.6482 C   0  0  1  0  0  0  0  0  0  0  0  0
  -29.3950   71.2080   63.8163 C   0  0  0  0  0  0  0  0  0  0  0  0
  -30.0256   66.9384   68.5560 S   0  0  0  0  0  0  0  0  0  0  0  0
  -33.2204   64.2647   61.7870 H   0  0  0  0  0  0  0  0  0  0  0  0
  -31.4053   68.0450   61.7940 H   0  0  0  0  0  0  0  0  0  0  0  0
  -32.9770   67.7979   62.4965 H   0  0  0  0  0  0  0  0  0  0  0  0
  -32.6374   66.3625   60.5752 H   0  0  0  0  0  0  0  0  0  0  0  0
  -31.5249   64.5525   59.5551 H   0  0  0  0  0  0  0  0  0  0  0  0
  -30.2105   66.1253   60.6735 H   0  0  0  0  0  0  0  0  0  0  0  0
  -30.2667   65.6189   63.2823 H   0  0  0  0  0  0  0  0  0  0  0  0
  -31.5955   65.8899   65.7345 H   0  0  0  0  0  0  0  0  0  0  0  0
  -29.1171   63.4287   61.7282 H   0  0  0  0  0  0  0  0  0  0  0  0
  -29.1568   62.9956   64.3896 H   0  0  0  0  0  0  0  0  0  0  0  0
  -28.3803   64.5738   64.3697 H   0  0  0  0  0  0  0  0  0  0  0  0
  -27.6765   69.0633   66.4032 H   0  0  0  0  0  0  0  0  0  0  0  0
  -26.6169   63.7044   62.9531 H   0  0  0  0  0  0  0  0  0  0  0  0
  -27.4186   62.1128   62.9842 H   0  0  0  0  0  0  0  0  0  0  0  0
  -25.5016   62.1687   64.4391 H   0  0  0  0  0  0  0  0  0  0  0  0
  -27.0406   61.9428   65.3107 H   0  0  0  0  0  0  0  0  0  0  0  0
  -28.6087   73.0074   63.9896 H   0  0  0  0  0  0  0  0  0  0  0  0
  -27.0095   64.2106   66.0155 H   0  0  0  0  0  0  0  0  0  0  0  0
  -25.4833   64.4532   65.1304 H   0  0  0  0  0  0  0  0  0  0  0  0
  -28.3292   66.0818   69.0563 H   0  0  0  0  0  0  0  0  0  0  0  0
  -24.3635   62.9382   66.5878 H   0  0  0  0  0  0  0  0  0  0  0  0
  -25.8871   62.6717   67.4656 H   0  0  0  0  0  0  0  0  0  0  0  0
  -24.4128   64.1484   68.6775 H   0  0  0  0  0  0  0  0  0  0  0  0
  -25.9145   64.9436   68.1506 H   0  0  0  0  0  0  0  0  0  0  0  0
  -30.6977   68.3443   69.9238 H   0  0  0  0  0  0  0  0  0  0  0  0
  -24.7522   66.0251   66.3765 H   0  0  0  0  0  0  0  0  0  0  0  0
  -23.2492   65.2178   66.8883 H   0  0  0  0  0  0  0  0  0  0  0  0
  -23.2972   67.5235   67.5787 H   0  0  0  0  0  0  0  0  0  0  0  0
  -23.2973   66.3829   68.9454 H   0  0  0  0  0  0  0  0  0  0  0  0
  -24.7480   68.2668   69.3600 H   0  0  0  0  0  0  0  0  0  0  0  0
  -25.6231   66.7273   69.2634 H   0  0  0  0  0  0  0  0  0  0  0  0
  -25.4626   68.7710   67.1037 H   0  0  0  0  0  0  0  0  0  0  0  0
  -26.8384   68.4662   68.1974 H   0  0  0  0  0  0  0  0  0  0  0  0
  -27.1351   66.2993   67.2706 H   0  0  0  0  0  0  0  0  0  0  0  0
  -25.7534   66.5666   66.1966 H   0  0  0  0  0  0  0  0  0  0  0  0
  -26.9221   68.3496   65.1007 H   0  0  0  0  0  0  0  0  0  0  0  0
  -28.3003   68.1028   66.1832 H   0  0  0  0  0  0  0  0  0  0  0  0
  -27.2724   66.1268   64.1891 H   0  0  0  0  0  0  0  0  0  0  0  0
  -28.7178   67.0946   64.0240 H   0  0  0  0  0  0  0  0  0  0  0  0
  -28.6169   65.8818   65.2779 H   0  0  0  0  0  0  0  0  0  0  0  0
  -35.2400   64.0930   63.3073 H   0  0  0  0  0  0  0  0  0  0  0  0
  -34.7806   64.6070   64.9377 H   0  0  0  0  0  0  0  0  0  0  0  0
  -33.2722   62.6611   63.2440 H   0  0  0  0  0  0  0  0  0  0  0  0
  -34.3321   62.2695   64.6077 H   0  0  0  0  0  0  0  0  0  0  0  0
  -31.8261   63.8796   64.7631 H   0  0  0  0  0  0  0  0  0  0  0  0
  -32.0386   62.1817   65.2543 H   0  0  0  0  0  0  0  0  0  0  0  0
  -33.4103   64.5213   66.4788 H   0  0  0  0  0  0  0  0  0  0  0  0
  -32.0217   63.6276   67.1426 H   0  0  0  0  0  0  0  0  0  0  0  0
  -34.7327   62.4987   66.6548 H   0  0  0  0  0  0  0  0  0  0  0  0
  -34.0447   62.9942   68.2209 H   0  0  0  0  0  0  0  0  0  0  0  0
  -33.0055   60.8047   66.4908 H   0  0  0  0  0  0  0  0  0  0  0  0
  -33.9857   60.6279   67.9660 H   0  0  0  0  0  0  0  0  0  0  0  0
  -32.2446   61.5941   69.2733 H   0  0  0  0  0  0  0  0  0  0  0  0
  -31.2656   61.7870   67.7933 H   0  0  0  0  0  0  0  0  0  0  0  0
  -32.0979   59.1899   68.9867 H   0  0  0  0  0  0  0  0  0  0  0  0
  -30.4942   59.9561   69.1024 H   0  0  0  0  0  0  0  0  0  0  0  0
  -30.5140   58.1882   67.4597 H   0  0  0  0  0  0  0  0  0  0  0  0
  -30.2281   59.8026   66.7520 H   0  0  0  0  0  0  0  0  0  0  0  0
  -32.4623   59.8752   65.9335 H   0  0  0  0  0  0  0  0  0  0  0  0
  -32.7738   58.2813   66.6544 H   0  0  0  0  0  0  0  0  0  0  0  0
  -32.4286   58.1188   64.2696 H   0  0  0  0  0  0  0  0  0  0  0  0
  -31.1550   57.2974   65.2201 H   0  0  0  0  0  0  0  0  0  0  0  0
  -29.6390   59.0676   64.7834 H   0  0  0  0  0  0  0  0  0  0  0  0
  -30.9118   59.9061   63.8487 H   0  0  0  0  0  0  0  0  0  0  0  0
  -29.2718   58.8756   62.3979 H   0  0  0  0  0  0  0  0  0  0  0  0
  -30.8930   58.1820   62.2204 H   0  0  0  0  0  0  0  0  0  0  0  0
  -29.0281   56.7289   63.9951 H   0  0  0  0  0  0  0  0  0  0  0  0
  -29.1252   54.9959   62.5521 H   0  0  0  0  0  0  0  0  0  0  0  0
  -30.0885   56.9043   60.4902 H   0  0  0  0  0  0  0  0  0  0  0  0
  -31.1767   55.5882   60.9867 H   0  0  0  0  0  0  0  0  0  0  0  0
  -29.5790   53.9574   60.2647 H   0  0  0  0  0  0  0  0  0  0  0  0
  -28.4748   55.2627   59.7856 H   0  0  0  0  0  0  0  0  0  0  0  0
  -30.0216   55.9916   58.1124 H   0  0  0  0  0  0  0  0  0  0  0  0
  -31.1398   54.7002   58.5987 H   0  0  0  0  0  0  0  0  0  0  0  0
  -28.4311   54.2964   57.4215 H   0  0  0  0  0  0  0  0  0  0  0  0
  -30.0013   54.1301   56.5903 H   0  0  0  0  0  0  0  0  0  0  0  0
  -29.0604   52.4449   58.8560 H   0  0  0  0  0  0  0  0  0  0  0  0
  -29.0829   52.0013   57.1334 H   0  0  0  0  0  0  0  0  0  0  0  0
  -31.4612   52.1600   57.0949 H   0  0  0  0  0  0  0  0  0  0  0  0
  -31.4426   52.6215   58.8162 H   0  0  0  0  0  0  0  0  0  0  0  0
  -30.6031   50.4751   59.4133 H   0  0  0  0  0  0  0  0  0  0  0  0
  -30.5880   50.0069   57.7039 H   0  0  0  0  0  0  0  0  0  0  0  0
  -33.0198   50.6632   59.3114 H   0  0  0  0  0  0  0  0  0  0  0  0
  -32.5072   49.0638   58.8295 H   0  0  0  0  0  0  0  0  0  0  0  0
  -32.9930   50.2271   57.6196 H   0  0  0  0  0  0  0  0  0  0  0  0
  -32.1486   68.5400   64.6687 H   0  0  0  0  0  0  0  0  0  0  0  0
  -29.6327   67.0681   65.4416 H   0  0  0  0  0  0  0  0  0  0  0  0
  -31.1294   69.1768   67.0080 H   0  0  0  0  0  0  0  0  0  0  0  0
  -29.3488   70.6437   66.5772 H   0  0  0  0  0  0  0  0  0  0  0  0
  -31.0858   70.6667   64.9665 H   0  0  0  0  0  0  0  0  0  0  0  0
  -28.4751   70.7586   63.5055 H   0  0  0  0  0  0  0  0  0  0  0  0
  -29.9937   71.4764   62.9711 H   0  0  0  0  0  0  0  0  0  0  0  0
  1  4  1  0  0  0  0
  1 31  1  0  0  0  0
  1 62  1  0  0  0  0
  2  3  1  0  0  0  0
  2  4  1  0  0  0  0
  2 63  1  0  0  0  0
  2 64  1  0  0  0  0
  3 55  1  0  0  0  0
  4  6  1  0  0  0  0
  4 65  1  6  0  0  0
  5  6  1  0  0  0  0
  5 66  1  0  0  0  0
  6  8  1  0  0  0  0
  6 67  1  6  0  0  0
  7 31  2  0  0  0  0
  8 10  2  0  0  0  0
  8 68  1  0  0  0  0
  9 56  1  0  0  0  0
  9 69  1  0  0  0  0
 10 12  1  0  0  0  0
 10 70  1  0  0  0  0
 11 57  1  0  0  0  0
 11 61  1  0  0  0  0
 12 14  1  0  0  0  0
 12 71  1  0  0  0  0
 12 72  1  0  0  0  0
 13 58  1  0  0  0  0
 13 73  1  0  0  0  0
 14 16  1  0  0  0  0
 14 74  1  0  0  0  0
 14 75  1  0  0  0  0
 15 55  1  0  0  0  0
 15 59  1  0  0  0  0
 16 18  1  0  0  0  0
 16 76  1  0  0  0  0
 16 77  1  0  0  0  0
 17 60  1  0  0  0  0
 17 78  1  0  0  0  0
 18 20  1  0  0  0  0
 18 79  1  0  0  0  0
 18 80  1  0  0  0  0
 19 61  1  0  0  0  0
 19 81  1  0  0  0  0
 20 22  1  0  0  0  0
 20 82  1  0  0  0  0
 20 83  1  0  0  0  0
 21 61  1  0  0  0  0
 22 24  1  0  0  0  0
 22 84  1  0  0  0  0
 22 85  1  0  0  0  0
 23 61  1  0  0  0  0
 23 86  1  0  0  0  0
 24 25  1  0  0  0  0
 24 87  1  0  0  0  0
 24 88  1  0  0  0  0
 25 26  1  0  0  0  0
 25 89  1  0  0  0  0
 25 90  1  0  0  0  0
 26 27  1  0  0  0  0
 26 91  1  0  0  0  0
 26 92  1  0  0  0  0
 27 28  1  0  0  0  0
 27 93  1  0  0  0  0
 27 94  1  0  0  0  0
 28 29  1  0  0  0  0
 28 95  1  0  0  0  0
 28 96  1  0  0  0  0
 29 30  1  0  0  0  0
 29 97  1  0  0  0  0
 29 98  1  0  0  0  0
 30 99  1  0  0  0  0
 30100  1  0  0  0  0
 30101  1  0  0  0  0
 31 32  1  0  0  0  0
 32 33  1  0  0  0  0
 32102  1  0  0  0  0
 32103  1  0  0  0  0
 33 34  1  0  0  0  0
 33104  1  0  0  0  0
 33105  1  0  0  0  0
 34 35  1  0  0  0  0
 34106  1  0  0  0  0
 34107  1  0  0  0  0
 35 36  1  0  0  0  0
 35108  1  0  0  0  0
 35109  1  0  0  0  0
 36 37  1  0  0  0  0
 36110  1  0  0  0  0
 36111  1  0  0  0  0
 37 38  1  0  0  0  0
 37112  1  0  0  0  0
 37113  1  0  0  0  0
 38 39  1  0  0  0  0
 38114  1  0  0  0  0
 38115  1  0  0  0  0
 39 40  1  0  0  0  0
 39116  1  0  0  0  0
 39117  1  0  0  0  0
 40 41  1  0  0  0  0
 40118  1  0  0  0  0
 40119  1  0  0  0  0
 41 42  1  0  0  0  0
 41120  1  0  0  0  0
 41121  1  0  0  0  0
 42 43  1  0  0  0  0
 42122  1  0  0  0  0
 42123  1  0  0  0  0
 43 44  1  0  0  0  0
 43124  1  0  0  0  0
 43125  1  0  0  0  0
 44 45  1  0  0  0  0
 44126  1  0  0  0  0
 44127  1  0  0  0  0
 45 46  2  0  0  0  0
 45128  1  0  0  0  0
 46 47  1  0  0  0  0
 46129  1  0  0  0  0
 47 48  1  0  0  0  0
 47130  1  0  0  0  0
 47131  1  0  0  0  0
 48 49  1  0  0  0  0
 48132  1  0  0  0  0
 48133  1  0  0  0  0
 49 50  1  0  0  0  0
 49134  1  0  0  0  0
 49135  1  0  0  0  0
 50 51  1  0  0  0  0
 50136  1  0  0  0  0
 50137  1  0  0  0  0
 51 52  1  0  0  0  0
 51138  1  0  0  0  0
 51139  1  0  0  0  0
 52 53  1  0  0  0  0
 52140  1  0  0  0  0
 52141  1  0  0  0  0
 53 54  1  0  0  0  0
 53142  1  0  0  0  0
 53143  1  0  0  0  0
 54144  1  0  0  0  0
 54145  1  0  0  0  0
 54146  1  0  0  0  0
 55 56  1  0  0  0  0
 55147  1  1  0  0  0
 56 57  1  0  0  0  0
 56148  1  6  0  0  0
 57 58  1  0  0  0  0
 57149  1  1  0  0  0
 58 59  1  0  0  0  0
 58150  1  1  0  0  0
 59 60  1  0  0  0  0
 59151  1  1  0  0  0
 60152  1  0  0  0  0
 60153  1  0  0  0  0
M  CHG  1  21  -1
M  END
$$$$
/media/chris/experiments/cd1a-new-docking/inputs/ligands/7ryn_ligand.pdb
 OpenBabel07032312553D

153153  0  0  1  0  0  0  0  0999 V2000
  -33.0340   65.1330   62.2120 N   0  0  0  0  0  0  0  0  0  0  0  0
  -32.0220   67.3480   62.3220 C   0  0  0  0  0  0  0  0  0  0  0  0
  -31.4051   67.0024   63.5673 O   0  0  0  0  0  0  0  0  0  0  0  0
  -32.1830   66.0840   61.5030 C   0  0  1  0  0  0  0  0  0  0  0  0
  -29.9992   66.3678   60.5104 O   0  0  0  0  0  0  0  0  0  0  0  0
  -30.8310   65.4230   61.1900 C   0  0  2  0  0  0  0  0  0  0  0  0
  -32.0656   63.2817   61.3736 O   0  0  0  0  0  0  0  0  0  0  0  0
  -31.0055   64.1786   60.3744 C   0  0  0  0  0  0  0  0  0  0  0  0
  -29.0472   68.5087   63.4560 O   0  0  0  0  0  0  0  0  0  0  0  0
  -30.0261   63.3955   59.9676 C   0  0  0  0  0  0  0  0  0  0  0  0
  -29.4663   71.3004   63.7442 O   0  0  0  0  0  0  0  0  0  0  0  0
  -30.2340   62.1517   59.1673 C   0  0  0  0  0  0  0  0  0  0  0  0
  -32.1950   71.4092   63.9043 O   0  0  0  0  0  0  0  0  0  0  0  0
  -31.7204   61.9178   58.8901 C   0  0  0  0  0  0  0  0  0  0  0  0
  -32.4523   68.6756   64.7639 O   0  0  0  0  0  0  0  0  0  0  0  0
  -32.3892   63.0299   58.0986 C   0  0  0  0  0  0  0  0  0  0  0  0
  -34.4603   69.1740   66.6572 O   0  0  0  0  0  0  0  0  0  0  0  0
  -31.7955   63.2592   56.7192 C   0  0  0  0  0  0  0  0  0  0  0  0
  -28.4817   73.4554   63.3041 O   0  0  0  0  0  0  0  0  0  0  0  0
  -32.4587   64.3851   55.9394 C   0  0  0  0  0  0  0  0  0  0  0  0
  -28.5846   72.5516   65.6468 O   0  5  0  0  0  0  0  0  0  0  0  0
  -32.3583   65.7414   56.6202 C   0  0  0  0  0  0  0  0  0  0  0  0
  -30.5292   73.2918   64.5035 O   0  0  0  0  0  0  0  0  0  0  0  0
  -32.9880   65.7808   58.0015 C   0  0  0  0  0  0  0  0  0  0  0  0
  -32.9064   67.1356   58.6797 C   0  0  0  0  0  0  0  0  0  0  0  0
  -31.4874   67.6411   58.8759 C   0  0  0  0  0  0  0  0  0  0  0  0
  -31.4282   68.9888   59.5707 C   0  0  0  0  0  0  0  0  0  0  0  0
  -30.0254   69.5309   59.7674 C   0  0  0  0  0  0  0  0  0  0  0  0
  -30.0126   70.8692   60.4796 C   0  0  0  0  0  0  0  0  0  0  0  0
  -30.7906   71.9321   59.7317 C   0  0  0  0  0  0  0  0  0  0  0  0
  -32.9097   63.8084   62.0927 C   0  0  0  0  0  0  0  0  0  0  0  0
  -33.8750   62.9864   62.9098 C   0  0  0  0  0  0  0  0  0  0  0  0
  -33.1693   62.0688   63.9001 C   0  0  0  0  0  0  0  0  0  0  0  0
  -32.2267   61.0878   63.2216 C   0  0  0  0  0  0  0  0  0  0  0  0
  -32.9080   60.1725   62.2180 C   0  0  0  0  0  0  0  0  0  0  0  0
  -34.0130   59.3159   62.8178 C   0  0  0  0  0  0  0  0  0  0  0  0
  -34.6869   58.3846   61.8182 C   0  0  0  0  0  0  0  0  0  0  0  0
  -35.3348   59.1056   60.6431 C   0  0  0  0  0  0  0  0  0  0  0  0
  -36.0293   58.1870   59.6410 C   0  0  0  0  0  0  0  0  0  0  0  0
  -36.6603   58.9203   58.4585 C   0  0  0  0  0  0  0  0  0  0  0  0
  -37.3743   58.0151   57.4549 C   0  0  0  0  0  0  0  0  0  0  0  0
  -38.5347   57.2274   58.0634 C   0  0  0  0  0  0  0  0  0  0  0  0
  -39.2640   56.2970   57.0944 C   0  0  0  0  0  0  0  0  0  0  0  0
  -38.3937   55.2005   56.4746 C   0  0  0  0  0  0  0  0  0  0  0  0
  -37.2316   55.7479   55.6973 C   0  0  0  0  0  0  0  0  0  0  0  0
  -36.6648   55.1852   54.6447 C   0  0  0  0  0  0  0  0  0  0  0  0
  -37.0702   53.8881   54.0130 C   0  0  0  0  0  0  0  0  0  0  0  0
  -35.9613   52.8336   54.0087 C   0  0  0  0  0  0  0  0  0  0  0  0
  -34.7087   53.2800   53.2664 C   0  0  0  0  0  0  0  0  0  0  0  0
  -34.9630   53.6240   51.8031 C   0  0  0  0  0  0  0  0  0  0  0  0
  -33.7219   54.0579   51.0317 C   0  0  0  0  0  0  0  0  0  0  0  0
  -33.9972   54.4137   49.5775 C   0  0  0  0  0  0  0  0  0  0  0  0
  -34.5959   53.2788   48.7618 C   0  0  0  0  0  0  0  0  0  0  0  0
  -33.7096   52.0504   48.7218 C   0  0  0  0  0  0  0  0  0  0  0  0
  -31.2104   68.0828   64.4327 C   0  0  2  0  0  0  0  0  0  0  0  0
  -30.3138   69.0941   63.7304 C   0  0  1  0  0  0  0  0  0  0  0  0
  -30.1449   70.3308   64.6038 C   0  0  2  0  0  0  0  0  0  0  0  0
  -31.4954   70.8877   65.0296 C   0  0  2  0  0  0  0  0  0  0  0  0
  -32.3266   69.7807   65.6732 C   0  0  1  0  0  0  0  0  0  0  0  0
  -33.7288   70.2187   66.0260 C   0  0  0  0  0  0  0  0  0  0  0  0
  -29.1081   72.7269   64.3444 S   0  0  0  0  0  0  0  0  0  0  0  0
  -33.7342   65.4854   62.8076 H   0  0  0  0  0  0  0  0  0  0  0  0
  -31.4053   68.0450   61.7940 H   0  0  0  0  0  0  0  0  0  0  0  0
  -32.9770   67.7979   62.4965 H   0  0  0  0  0  0  0  0  0  0  0  0
  -32.6374   66.3625   60.5752 H   0  0  0  0  0  0  0  0  0  0  0  0
  -29.9008   67.1635   61.0564 H   0  0  0  0  0  0  0  0  0  0  0  0
  -30.3647   65.1308   62.1077 H   0  0  0  0  0  0  0  0  0  0  0  0
  -31.9673   63.9138   60.1104 H   0  0  0  0  0  0  0  0  0  0  0  0
  -29.1677   67.7231   62.8999 H   0  0  0  0  0  0  0  0  0  0  0  0
  -29.0594   63.6571   60.2167 H   0  0  0  0  0  0  0  0  0  0  0  0
  -29.8442   61.3168   59.7112 H   0  0  0  0  0  0  0  0  0  0  0  0
  -29.7266   62.2606   58.2316 H   0  0  0  0  0  0  0  0  0  0  0  0
  -31.6684   72.1129   63.4939 H   0  0  0  0  0  0  0  0  0  0  0  0
  -32.2259   61.8229   59.8284 H   0  0  0  0  0  0  0  0  0  0  0  0
  -31.7862   61.0327   58.2924 H   0  0  0  0  0  0  0  0  0  0  0  0
  -32.3008   63.9385   58.6568 H   0  0  0  0  0  0  0  0  0  0  0  0
  -33.4058   62.7313   57.9491 H   0  0  0  0  0  0  0  0  0  0  0  0
  -35.3533   69.4873   66.8698 H   0  0  0  0  0  0  0  0  0  0  0  0
  -31.8952   62.3552   56.1555 H   0  0  0  0  0  0  0  0  0  0  0  0
  -30.7742   63.5432   56.8650 H   0  0  0  0  0  0  0  0  0  0  0  0
  -27.5791   73.1242   63.1756 H   0  0  0  0  0  0  0  0  0  0  0  0
  -33.4941   64.1455   55.8146 H   0  0  0  0  0  0  0  0  0  0  0  0
  -31.9430   64.4648   55.0052 H   0  0  0  0  0  0  0  0  0  0  0  0
  -32.8497   66.4654   56.0044 H   0  0  0  0  0  0  0  0  0  0  0  0
  -31.3166   65.9510   56.7460 H   0  0  0  0  0  0  0  0  0  0  0  0
  -30.9236   73.4264   63.6276 H   0  0  0  0  0  0  0  0  0  0  0  0
  -32.4880   65.0646   58.6196 H   0  0  0  0  0  0  0  0  0  0  0  0
  -34.0274   65.5612   57.8737 H   0  0  0  0  0  0  0  0  0  0  0  0
  -33.3730   67.0605   59.6397 H   0  0  0  0  0  0  0  0  0  0  0  0
  -33.3991   67.8349   58.0371 H   0  0  0  0  0  0  0  0  0  0  0  0
  -31.0220   67.7315   57.9166 H   0  0  0  0  0  0  0  0  0  0  0  0
  -30.9804   66.9363   59.5013 H   0  0  0  0  0  0  0  0  0  0  0  0
  -31.8867   68.8899   60.5324 H   0  0  0  0  0  0  0  0  0  0  0  0
  -31.9375   69.6827   58.9353 H   0  0  0  0  0  0  0  0  0  0  0  0
  -29.5658   69.6486   58.8084 H   0  0  0  0  0  0  0  0  0  0  0  0
  -29.4909   68.8335   60.3780 H   0  0  0  0  0  0  0  0  0  0  0  0
  -28.9982   71.1942   60.5812 H   0  0  0  0  0  0  0  0  0  0  0  0
  -30.4800   70.7346   61.4327 H   0  0  0  0  0  0  0  0  0  0  0  0
  -30.3461   72.0899   58.7712 H   0  0  0  0  0  0  0  0  0  0  0  0
  -30.7714   72.8459   60.2880 H   0  0  0  0  0  0  0  0  0  0  0  0
  -31.8038   71.6114   59.6074 H   0  0  0  0  0  0  0  0  0  0  0  0
  -34.4625   62.3872   62.2459 H   0  0  0  0  0  0  0  0  0  0  0  0
  -34.4833   63.6639   63.4719 H   0  0  0  0  0  0  0  0  0  0  0  0
  -33.9085   61.5153   64.4406 H   0  0  0  0  0  0  0  0  0  0  0  0
  -32.5826   62.6844   64.5496 H   0  0  0  0  0  0  0  0  0  0  0  0
  -31.7719   60.4809   63.9764 H   0  0  0  0  0  0  0  0  0  0  0  0
  -31.5130   61.6695   62.6766 H   0  0  0  0  0  0  0  0  0  0  0  0
  -32.1686   59.5232   61.7978 H   0  0  0  0  0  0  0  0  0  0  0  0
  -33.3661   60.8019   61.4839 H   0  0  0  0  0  0  0  0  0  0  0  0
  -34.7579   59.9658   63.2272 H   0  0  0  0  0  0  0  0  0  0  0  0
  -33.5553   58.6949   63.5593 H   0  0  0  0  0  0  0  0  0  0  0  0
  -35.4440   57.8298   62.3320 H   0  0  0  0  0  0  0  0  0  0  0  0
  -33.9210   57.7565   61.4134 H   0  0  0  0  0  0  0  0  0  0  0  0
  -34.5738   59.6507   60.1249 H   0  0  0  0  0  0  0  0  0  0  0  0
  -36.0948   59.7362   61.0549 H   0  0  0  0  0  0  0  0  0  0  0  0
  -36.7999   57.6507   60.1542 H   0  0  0  0  0  0  0  0  0  0  0  0
  -35.2760   57.5423   59.2387 H   0  0  0  0  0  0  0  0  0  0  0  0
  -35.8860   59.4468   57.9407 H   0  0  0  0  0  0  0  0  0  0  0  0
  -37.4076   59.5678   58.8675 H   0  0  0  0  0  0  0  0  0  0  0  0
  -36.6632   57.3201   57.0598 H   0  0  0  0  0  0  0  0  0  0  0  0
  -37.7864   58.6483   56.6971 H   0  0  0  0  0  0  0  0  0  0  0  0
  -39.2454   57.9283   58.4487 H   0  0  0  0  0  0  0  0  0  0  0  0
  -38.1064   56.5985   58.8158 H   0  0  0  0  0  0  0  0  0  0  0  0
  -39.6645   56.8920   56.3004 H   0  0  0  0  0  0  0  0  0  0  0  0
  -40.0150   55.7953   57.6683 H   0  0  0  0  0  0  0  0  0  0  0  0
  -38.9999   54.6149   55.8155 H   0  0  0  0  0  0  0  0  0  0  0  0
  -37.9964   54.6137   57.2763 H   0  0  0  0  0  0  0  0  0  0  0  0
  -36.8388   56.6478   56.0149 H   0  0  0  0  0  0  0  0  0  0  0  0
  -35.8692   55.6853   54.2181 H   0  0  0  0  0  0  0  0  0  0  0  0
  -37.3573   54.0806   53.0004 H   0  0  0  0  0  0  0  0  0  0  0  0
  -37.8750   53.4935   54.5973 H   0  0  0  0  0  0  0  0  0  0  0  0
  -36.3366   51.9480   53.5397 H   0  0  0  0  0  0  0  0  0  0  0  0
  -35.6822   52.6629   55.0274 H   0  0  0  0  0  0  0  0  0  0  0  0
  -33.9892   52.4892   53.3089 H   0  0  0  0  0  0  0  0  0  0  0  0
  -34.3587   54.1710   53.7443 H   0  0  0  0  0  0  0  0  0  0  0  0
  -35.6756   54.4214   51.7660 H   0  0  0  0  0  0  0  0  0  0  0  0
  -35.3142   52.7277   51.3359 H   0  0  0  0  0  0  0  0  0  0  0  0
  -33.0127   53.2570   51.0549 H   0  0  0  0  0  0  0  0  0  0  0  0
  -33.3536   54.9438   51.5055 H   0  0  0  0  0  0  0  0  0  0  0  0
  -33.0734   54.7034   49.1220 H   0  0  0  0  0  0  0  0  0  0  0  0
  -34.7204   55.2022   49.5850 H   0  0  0  0  0  0  0  0  0  0  0  0
  -34.7491   53.6221   47.7600 H   0  0  0  0  0  0  0  0  0  0  0  0
  -35.5153   52.9964   49.2308 H   0  0  0  0  0  0  0  0  0  0  0  0
  -32.7780   52.2978   48.2573 H   0  0  0  0  0  0  0  0  0  0  0  0
  -34.1943   51.2790   48.1607 H   0  0  0  0  0  0  0  0  0  0  0  0
  -33.5307   51.7071   49.7193 H   0  0  0  0  0  0  0  0  0  0  0  0
  -30.7515   67.7503   65.3403 H   0  0  0  0  0  0  0  0  0  0  0  0
  -30.7674   69.3839   62.8057 H   0  0  0  0  0  0  0  0  0  0  0  0
  -29.6019   70.1103   65.4990 H   0  0  0  0  0  0  0  0  0  0  0  0
  -31.3342   71.6761   65.7349 H   0  0  0  0  0  0  0  0  0  0  0  0
  -31.8112   69.5117   66.5715 H   0  0  0  0  0  0  0  0  0  0  0  0
  -33.6744   71.0553   66.6909 H   0  0  0  0  0  0  0  0  0  0  0  0
  -34.2350   70.4823   65.1209 H   0  0  0  0  0  0  0  0  0  0  0  0
  1  4  1  0  0  0  0
  1 31  1  0  0  0  0
  1 62  1  0  0  0  0
  2  3  1  0  0  0  0
  2  4  1  0  0  0  0
  2 63  1  0  0  0  0
  2 64  1  0  0  0  0
  3 55  1  0  0  0  0
  4  6  1  0  0  0  0
  4 65  1  6  0  0  0
  5  6  1  0  0  0  0
  5 66  1  0  0  0  0
  6  8  1  0  0  0  0
  6 67  1  1  0  0  0
  7 31  2  0  0  0  0
  8 10  2  0  0  0  0
  8 68  1  0  0  0  0
  9 56  1  0  0  0  0
  9 69  1  0  0  0  0
 10 12  1  0  0  0  0
 10 70  1  0  0  0  0
 11 57  1  0  0  0  0
 11 61  1  0  0  0  0
 12 14  1  0  0  0  0
 12 71  1  0  0  0  0
 12 72  1  0  0  0  0
 13 58  1  0  0  0  0
 13 73  1  0  0  0  0
 14 16  1  0  0  0  0
 14 74  1  0  0  0  0
 14 75  1  0  0  0  0
 15 55  1  0  0  0  0
 15 59  1  0  0  0  0
 16 18  1  0  0  0  0
 16 76  1  0  0  0  0
 16 77  1  0  0  0  0
 17 60  1  0  0  0  0
 17 78  1  0  0  0  0
 18 20  1  0  0  0  0
 18 79  1  0  0  0  0
 18 80  1  0  0  0  0
 19 61  1  0  0  0  0
 19 81  1  0  0  0  0
 20 22  1  0  0  0  0
 20 82  1  0  0  0  0
 20 83  1  0  0  0  0
 21 61  1  0  0  0  0
 22 24  1  0  0  0  0
 22 84  1  0  0  0  0
 22 85  1  0  0  0  0
 23 61  1  0  0  0  0
 23 86  1  0  0  0  0
 24 25  1  0  0  0  0
 24 87  1  0  0  0  0
 24 88  1  0  0  0  0
 25 26  1  0  0  0  0
 25 89  1  0  0  0  0
 25 90  1  0  0  0  0
 26 27  1  0  0  0  0
 26 91  1  0  0  0  0
 26 92  1  0  0  0  0
 27 28  1  0  0  0  0
 27 93  1  0  0  0  0
 27 94  1  0  0  0  0
 28 29  1  0  0  0  0
 28 95  1  0  0  0  0
 28 96  1  0  0  0  0
 29 30  1  0  0  0  0
 29 97  1  0  0  0  0
 29 98  1  0  0  0  0
 30 99  1  0  0  0  0
 30100  1  0  0  0  0
 30101  1  0  0  0  0
 31 32  1  0  0  0  0
 32 33  1  0  0  0  0
 32102  1  0  0  0  0
 32103  1  0  0  0  0
 33 34  1  0  0  0  0
 33104  1  0  0  0  0
 33105  1  0  0  0  0
 34 35  1  0  0  0  0
 34106  1  0  0  0  0
 34107  1  0  0  0  0
 35 36  1  0  0  0  0
 35108  1  0  0  0  0
 35109  1  0  0  0  0
 36 37  1  0  0  0  0
 36110  1  0  0  0  0
 36111  1  0  0  0  0
 37 38  1  0  0  0  0
 37112  1  0  0  0  0
 37113  1  0  0  0  0
 38 39  1  0  0  0  0
 38114  1  0  0  0  0
 38115  1  0  0  0  0
 39 40  1  0  0  0  0
 39116  1  0  0  0  0
 39117  1  0  0  0  0
 40 41  1  0  0  0  0
 40118  1  0  0  0  0
 40119  1  0  0  0  0
 41 42  1  0  0  0  0
 41120  1  0  0  0  0
 41121  1  0  0  0  0
 42 43  1  0  0  0  0
 42122  1  0  0  0  0
 42123  1  0  0  0  0
 43 44  1  0  0  0  0
 43124  1  0  0  0  0
 43125  1  0  0  0  0
 44 45  1  0  0  0  0
 44126  1  0  0  0  0
 44127  1  0  0  0  0
 45 46  2  0  0  0  0
 45128  1  0  0  0  0
 46 47  1  0  0  0  0
 46129  1  0  0  0  0
 47 48  1  0  0  0  0
 47130  1  0  0  0  0
 47131  1  0  0  0  0
 48 49  1  0  0  0  0
 48132  1  0  0  0  0
 48133  1  0  0  0  0
 49 50  1  0  0  0  0
 49134  1  0  0  0  0
 49135  1  0  0  0  0
 50 51  1  0  0  0  0
 50136  1  0  0  0  0
 50137  1  0  0  0  0
 51 52  1  0  0  0  0
 51138  1  0  0  0  0
 51139  1  0  0  0  0
 52 53  1  0  0  0  0
 52140  1  0  0  0  0
 52141  1  0  0  0  0
 53 54  1  0  0  0  0
 53142  1  0  0  0  0
 53143  1  0  0  0  0
 54144  1  0  0  0  0
 54145  1  0  0  0  0
 54146  1  0  0  0  0
 55 56  1  0  0  0  0
 55147  1  1  0  0  0
 56 57  1  0  0  0  0
 56148  1  6  0  0  0
 57 58  1  0  0  0  0
 57149  1  1  0  0  0
 58 59  1  0  0  0  0
 58150  1  1  0  0  0
 59 60  1  0  0  0  0
 59151  1  1  0  0  0
 60152  1  0  0  0  0
 60153  1  0  0  0  0
M  CHG  1  21  -1
M  END
$$$$
/media/chris/experiments/cd1a-new-docking/inputs/ligands/7ryn_ligand.pdb
 OpenBabel07032312553D

153153  0  0  1  0  0  0  0  0999 V2000
  -33.0340   65.1330   62.2120 N   0  0  0  0  0  0  0  0  0  0  0  0
  -32.0220   67.3480   62.3220 C   0  0  0  0  0  0  0  0  0  0  0  0
  -33.3204   67.9104   62.5424 O   0  0  0  0  0  0  0  0  0  0  0  0
  -32.1830   66.0840   61.5030 C   0  0  1  0  0  0  0  0  0  0  0  0
  -30.2154   65.0225   62.4176 O   0  0  0  0  0  0  0  0  0  0  0  0
  -30.8310   65.4230   61.1900 C   0  0  2  0  0  0  0  0  0  0  0  0
  -35.0701   64.2925   62.6764 O   0  0  0  0  0  0  0  0  0  0  0  0
  -29.9369   66.3439   60.4177 C   0  0  0  0  0  0  0  0  0  0  0  0
  -35.3151   69.8361   62.1498 O   0  0  0  0  0  0  0  0  0  0  0  0
  -29.8817   66.4205   59.1027 C   0  0  0  0  0  0  0  0  0  0  0  0
  -36.2332   71.0293   64.5551 O   0  0  0  0  0  0  0  0  0  0  0  0
  -28.9891   67.3610   58.3614 C   0  0  0  0  0  0  0  0  0  0  0  0
  -34.7894   69.6393   66.4168 O   0  0  0  0  0  0  0  0  0  0  0  0
  -28.0184   66.5999   57.4561 C   0  0  0  0  0  0  0  0  0  0  0  0
  -32.7334   68.8853   64.5507 O   0  0  0  0  0  0  0  0  0  0  0  0
  -27.0628   67.4906   56.6789 C   0  0  0  0  0  0  0  0  0  0  0  0
  -31.8166   70.8306   67.4934 O   0  0  0  0  0  0  0  0  0  0  0  0
  -26.1094   66.7379   55.7667 C   0  0  0  0  0  0  0  0  0  0  0  0
  -36.2134   73.4312   64.7481 O   0  0  0  0  0  0  0  0  0  0  0  0
  -26.8026   65.9172   54.6889 C   0  0  0  0  0  0  0  0  0  0  0  0
  -36.4108   71.9862   66.7947 O   0  5  0  0  0  0  0  0  0  0  0  0
  -27.6512   66.7486   53.7392 C   0  0  0  0  0  0  0  0  0  0  0  0
  -38.1902   72.2024   65.2379 O   0  0  0  0  0  0  0  0  0  0  0  0
  -26.8625   67.7930   52.9690 C   0  0  0  0  0  0  0  0  0  0  0  0
  -25.7722   67.2167   52.0851 C   0  0  0  0  0  0  0  0  0  0  0  0
  -26.2854   66.2739   51.0103 C   0  0  0  0  0  0  0  0  0  0  0  0
  -25.1775   65.6962   50.1493 C   0  0  0  0  0  0  0  0  0  0  0  0
  -25.6575   64.7629   49.0543 C   0  0  0  0  0  0  0  0  0  0  0  0
  -24.5176   64.1964   48.2307 C   0  0  0  0  0  0  0  0  0  0  0  0
  -23.6970   65.2760   47.5556 C   0  0  0  0  0  0  0  0  0  0  0  0
  -34.3610   65.0876   62.0665 C   0  0  0  0  0  0  0  0  0  0  0  0
  -34.9461   66.0885   61.1016 C   0  0  0  0  0  0  0  0  0  0  0  0
  -36.2104   65.5768   60.4231 C   0  0  0  0  0  0  0  0  0  0  0  0
  -35.9768   64.2974   59.6359 C   0  0  0  0  0  0  0  0  0  0  0  0
  -34.9383   64.4324   58.5347 C   0  0  0  0  0  0  0  0  0  0  0  0
  -35.2803   65.4865   57.4924 C   0  0  0  0  0  0  0  0  0  0  0  0
  -34.2499   65.6130   56.3775 C   0  0  0  0  0  0  0  0  0  0  0  0
  -34.5864   66.6808   55.3447 C   0  0  0  0  0  0  0  0  0  0  0  0
  -35.9169   66.4707   54.6264 C   0  0  0  0  0  0  0  0  0  0  0  0
  -36.0114   65.1490   53.8659 C   0  0  0  0  0  0  0  0  0  0  0  0
  -37.3319   64.9318   53.1274 C   0  0  0  0  0  0  0  0  0  0  0  0
  -37.4044   63.5945   52.3901 C   0  0  0  0  0  0  0  0  0  0  0  0
  -36.3240   63.3804   51.3301 C   0  0  0  0  0  0  0  0  0  0  0  0
  -36.3071   64.4207   50.2070 C   0  0  0  0  0  0  0  0  0  0  0  0
  -36.0611   65.8149   50.7070 C   0  0  0  0  0  0  0  0  0  0  0  0
  -34.8825   66.3965   50.8431 C   0  0  0  0  0  0  0  0  0  0  0  0
  -33.5537   65.7820   50.5226 C   0  0  0  0  0  0  0  0  0  0  0  0
  -32.6100   65.6972   51.7242 C   0  0  0  0  0  0  0  0  0  0  0  0
  -31.2565   65.0872   51.3849 C   0  0  0  0  0  0  0  0  0  0  0  0
  -30.3208   64.9861   52.5843 C   0  0  0  0  0  0  0  0  0  0  0  0
  -28.9519   64.3941   52.2689 C   0  0  0  0  0  0  0  0  0  0  0  0
  -28.0373   64.2850   53.4808 C   0  0  0  0  0  0  0  0  0  0  0  0
  -28.5781   63.3976   54.5907 C   0  0  0  0  0  0  0  0  0  0  0  0
  -27.6536   63.3231   55.7889 C   0  0  0  0  0  0  0  0  0  0  0  0
  -33.3156   69.0988   63.2783 C   0  0  2  0  0  0  0  0  0  0  0  0
  -34.7576   69.5657   63.4297 C   0  0  1  0  0  0  0  0  0  0  0  0
  -34.8089   70.8140   64.3015 C   0  0  2  0  0  0  0  0  0  0  0  0
  -34.0866   70.5888   65.6217 C   0  0  2  0  0  0  0  0  0  0  0  0
  -32.6741   70.0760   65.3523 C   0  0  1  0  0  0  0  0  0  0  0  0
  -31.9211   69.7182   66.6122 C   0  0  0  0  0  0  0  0  0  0  0  0
  -36.6672   72.2789   65.4347 S   0  0  0  0  0  0  0  0  0  0  0  0
  -32.6087   64.4935   62.8279 H   0  0  0  0  0  0  0  0  0  0  0  0
  -31.5648   67.1148   63.2609 H   0  0  0  0  0  0  0  0  0  0  0  0
  -31.4012   68.0473   61.8019 H   0  0  0  0  0  0  0  0  0  0  0  0
  -32.6374   66.3625   60.5752 H   0  0  0  0  0  0  0  0  0  0  0  0
  -30.8116   64.4280   62.8994 H   0  0  0  0  0  0  0  0  0  0  0  0
  -30.9971   64.5628   60.5757 H   0  0  0  0  0  0  0  0  0  0  0  0
  -29.3156   66.9669   60.9570 H   0  0  0  0  0  0  0  0  0  0  0  0
  -35.2768   69.0347   61.6046 H   0  0  0  0  0  0  0  0  0  0  0  0
  -30.4908   65.7941   58.5535 H   0  0  0  0  0  0  0  0  0  0  0  0
  -28.4293   67.9400   59.0658 H   0  0  0  0  0  0  0  0  0  0  0  0
  -29.5964   67.9962   57.7510 H   0  0  0  0  0  0  0  0  0  0  0  0
  -35.6873   69.9632   66.5891 H   0  0  0  0  0  0  0  0  0  0  0  0
  -28.5907   66.0294   56.7549 H   0  0  0  0  0  0  0  0  0  0  0  0
  -27.4170   65.9881   58.0956 H   0  0  0  0  0  0  0  0  0  0  0  0
  -26.4821   68.0521   57.3807 H   0  0  0  0  0  0  0  0  0  0  0  0
  -27.6655   68.1102   56.0483 H   0  0  0  0  0  0  0  0  0  0  0  0
  -31.3292   70.5677   68.2897 H   0  0  0  0  0  0  0  0  0  0  0  0
  -25.5210   66.0760   56.3673 H   0  0  0  0  0  0  0  0  0  0  0  0
  -25.5172   67.4732   55.2631 H   0  0  0  0  0  0  0  0  0  0  0  0
  -35.2523   73.5115   64.8513 H   0  0  0  0  0  0  0  0  0  0  0  0
  -27.4354   65.1983   55.1662 H   0  0  0  0  0  0  0  0  0  0  0  0
  -26.0344   65.4585   54.1021 H   0  0  0  0  0  0  0  0  0  0  0  0
  -28.4055   67.2485   54.3103 H   0  0  0  0  0  0  0  0  0  0  0  0
  -28.0638   66.0745   53.0180 H   0  0  0  0  0  0  0  0  0  0  0  0
  -38.4069   72.3981   64.3129 H   0  0  0  0  0  0  0  0  0  0  0  0
  -26.4080   68.4581   53.6733 H   0  0  0  0  0  0  0  0  0  0  0  0
  -27.5556   68.2885   52.3217 H   0  0  0  0  0  0  0  0  0  0  0  0
  -25.0852   66.6792   52.7048 H   0  0  0  0  0  0  0  0  0  0  0  0
  -25.3125   68.0412   51.5814 H   0  0  0  0  0  0  0  0  0  0  0  0
  -26.9619   66.8120   50.3796 H   0  0  0  0  0  0  0  0  0  0  0  0
  -26.7654   65.4557   51.5052 H   0  0  0  0  0  0  0  0  0  0  0  0
  -24.5096   65.1521   50.7839 H   0  0  0  0  0  0  0  0  0  0  0  0
  -24.7072   66.5239   49.6608 H   0  0  0  0  0  0  0  0  0  0  0  0
  -26.3133   65.3046   48.4052 H   0  0  0  0  0  0  0  0  0  0  0  0
  -26.1573   63.9417   49.5242 H   0  0  0  0  0  0  0  0  0  0  0  0
  -24.9245   63.5537   47.4781 H   0  0  0  0  0  0  0  0  0  0  0  0
  -23.8699   63.6636   48.8951 H   0  0  0  0  0  0  0  0  0  0  0  0
  -24.3190   65.8282   46.8824 H   0  0  0  0  0  0  0  0  0  0  0  0
  -22.8939   64.8253   47.0108 H   0  0  0  0  0  0  0  0  0  0  0  0
  -23.2986   65.9370   48.2967 H   0  0  0  0  0  0  0  0  0  0  0  0
  -34.2171   66.3060   60.3491 H   0  0  0  0  0  0  0  0  0  0  0  0
  -35.2087   66.9625   61.6602 H   0  0  0  0  0  0  0  0  0  0  0  0
  -36.5683   66.3304   59.7531 H   0  0  0  0  0  0  0  0  0  0  0  0
  -36.9234   65.3586   61.1905 H   0  0  0  0  0  0  0  0  0  0  0  0
  -36.9037   64.0020   59.1904 H   0  0  0  0  0  0  0  0  0  0  0  0
  -35.6033   63.5713   60.3274 H   0  0  0  0  0  0  0  0  0  0  0  0
  -34.8458   63.4877   58.0409 H   0  0  0  0  0  0  0  0  0  0  0  0
  -34.0271   64.7417   59.0026 H   0  0  0  0  0  0  0  0  0  0  0  0
  -35.3609   66.4330   57.9850 H   0  0  0  0  0  0  0  0  0  0  0  0
  -36.1973   65.1816   57.0331 H   0  0  0  0  0  0  0  0  0  0  0  0
  -34.1782   64.6703   55.8765 H   0  0  0  0  0  0  0  0  0  0  0  0
  -33.3288   65.9047   56.8374 H   0  0  0  0  0  0  0  0  0  0  0  0
  -33.8083   66.6921   54.6102 H   0  0  0  0  0  0  0  0  0  0  0  0
  -34.6716   67.6042   55.8786 H   0  0  0  0  0  0  0  0  0  0  0  0
  -36.0525   67.2706   53.9287 H   0  0  0  0  0  0  0  0  0  0  0  0
  -36.6755   66.4485   55.3807 H   0  0  0  0  0  0  0  0  0  0  0  0
  -35.8864   64.3508   54.5675 H   0  0  0  0  0  0  0  0  0  0  0  0
  -35.2467   65.1746   53.1179 H   0  0  0  0  0  0  0  0  0  0  0  0
  -37.4544   65.7194   52.4135 H   0  0  0  0  0  0  0  0  0  0  0  0
  -38.1080   64.9280   53.8640 H   0  0  0  0  0  0  0  0  0  0  0  0
  -38.3581   63.5323   51.9089 H   0  0  0  0  0  0  0  0  0  0  0  0
  -37.2509   62.8370   53.1300 H   0  0  0  0  0  0  0  0  0  0  0  0
  -36.4774   62.4177   50.8890 H   0  0  0  0  0  0  0  0  0  0  0  0
  -35.3855   63.4700   51.8361 H   0  0  0  0  0  0  0  0  0  0  0  0
  -37.2528   64.3991   49.7070 H   0  0  0  0  0  0  0  0  0  0  0  0
  -35.5028   64.1691   49.5477 H   0  0  0  0  0  0  0  0  0  0  0  0
  -36.8901   66.3709   50.9690 H   0  0  0  0  0  0  0  0  0  0  0  0
  -34.8765   67.3635   51.2034 H   0  0  0  0  0  0  0  0  0  0  0  0
  -33.0828   66.3718   49.7641 H   0  0  0  0  0  0  0  0  0  0  0  0
  -33.7421   64.7789   50.2013 H   0  0  0  0  0  0  0  0  0  0  0  0
  -33.0738   65.0966   52.4786 H   0  0  0  0  0  0  0  0  0  0  0  0
  -32.4319   66.6979   52.0586 H   0  0  0  0  0  0  0  0  0  0  0  0
  -30.7878   65.6948   50.6392 H   0  0  0  0  0  0  0  0  0  0  0  0
  -31.4365   64.0906   51.0395 H   0  0  0  0  0  0  0  0  0  0  0  0
  -30.7894   64.3699   53.3229 H   0  0  0  0  0  0  0  0  0  0  0  0
  -30.1495   65.9867   52.9223 H   0  0  0  0  0  0  0  0  0  0  0  0
  -28.4747   65.0161   51.5407 H   0  0  0  0  0  0  0  0  0  0  0  0
  -29.1168   63.3991   51.9115 H   0  0  0  0  0  0  0  0  0  0  0  0
  -27.8884   65.2670   53.8786 H   0  0  0  0  0  0  0  0  0  0  0  0
  -27.1286   63.8337   53.1410 H   0  0  0  0  0  0  0  0  0  0  0  0
  -28.7143   62.4099   54.2025 H   0  0  0  0  0  0  0  0  0  0  0  0
  -29.5009   63.8254   54.9231 H   0  0  0  0  0  0  0  0  0  0  0  0
  -26.7177   62.8983   55.4913 H   0  0  0  0  0  0  0  0  0  0  0  0
  -28.0987   62.7109   56.5452 H   0  0  0  0  0  0  0  0  0  0  0  0
  -27.4916   64.3073   56.1762 H   0  0  0  0  0  0  0  0  0  0  0  0
  -32.7377   69.8438   62.7723 H   0  0  0  0  0  0  0  0  0  0  0  0
  -35.3300   68.7932   63.8992 H   0  0  0  0  0  0  0  0  0  0  0  0
  -34.3360   71.6474   63.8253 H   0  0  0  0  0  0  0  0  0  0  0  0
  -34.0399   71.5181   66.1499 H   0  0  0  0  0  0  0  0  0  0  0  0
  -32.1619   70.8745   64.8573 H   0  0  0  0  0  0  0  0  0  0  0  0
  -32.4378   68.9261   67.1126 H   0  0  0  0  0  0  0  0  0  0  0  0
  -30.9325   69.4152   66.3368 H   0  0  0  0  0  0  0  0  0  0  0  0
  1  4  1  0  0  0  0
  1 31  1  0  0  0  0
  1 62  1  0  0  0  0
  2  3  1  0  0  0  0
  2  4  1  0  0  0  0
  2 63  1  0  0  0  0
  2 64  1  0  0  0  0
  3 55  1  0  0  0  0
  4  6  1  0  0  0  0
  4 65  1  6  0  0  0
  5  6  1  0  0  0  0
  5 66  1  0  0  0  0
  6  8  1  0  0  0  0
  6 67  1  6  0  0  0
  7 31  2  0  0  0  0
  8 10  2  0  0  0  0
  8 68  1  0  0  0  0
  9 56  1  0  0  0  0
  9 69  1  0  0  0  0
 10 12  1  0  0  0  0
 10 70  1  0  0  0  0
 11 57  1  0  0  0  0
 11 61  1  0  0  0  0
 12 14  1  0  0  0  0
 12 71  1  0  0  0  0
 12 72  1  0  0  0  0
 13 58  1  0  0  0  0
 13 73  1  0  0  0  0
 14 16  1  0  0  0  0
 14 74  1  0  0  0  0
 14 75  1  0  0  0  0
 15 55  1  0  0  0  0
 15 59  1  0  0  0  0
 16 18  1  0  0  0  0
 16 76  1  0  0  0  0
 16 77  1  0  0  0  0
 17 60  1  0  0  0  0
 17 78  1  0  0  0  0
 18 20  1  0  0  0  0
 18 79  1  0  0  0  0
 18 80  1  0  0  0  0
 19 61  1  0  0  0  0
 19 81  1  0  0  0  0
 20 22  1  0  0  0  0
 20 82  1  0  0  0  0
 20 83  1  0  0  0  0
 21 61  1  0  0  0  0
 22 24  1  0  0  0  0
 22 84  1  0  0  0  0
 22 85  1  0  0  0  0
 23 61  1  0  0  0  0
 23 86  1  0  0  0  0
 24 25  1  0  0  0  0
 24 87  1  0  0  0  0
 24 88  1  0  0  0  0
 25 26  1  0  0  0  0
 25 89  1  0  0  0  0
 25 90  1  0  0  0  0
 26 27  1  0  0  0  0
 26 91  1  0  0  0  0
 26 92  1  0  0  0  0
 27 28  1  0  0  0  0
 27 93  1  0  0  0  0
 27 94  1  0  0  0  0
 28 29  1  0  0  0  0
 28 95  1  0  0  0  0
 28 96  1  0  0  0  0
 29 30  1  0  0  0  0
 29 97  1  0  0  0  0
 29 98  1  0  0  0  0
 30 99  1  0  0  0  0
 30100  1  0  0  0  0
 30101  1  0  0  0  0
 31 32  1  0  0  0  0
 32 33  1  0  0  0  0
 32102  1  0  0  0  0
 32103  1  0  0  0  0
 33 34  1  0  0  0  0
 33104  1  0  0  0  0
 33105  1  0  0  0  0
 34 35  1  0  0  0  0
 34106  1  0  0  0  0
 34107  1  0  0  0  0
 35 36  1  0  0  0  0
 35108  1  0  0  0  0
 35109  1  0  0  0  0
 36 37  1  0  0  0  0
 36110  1  0  0  0  0
 36111  1  0  0  0  0
 37 38  1  0  0  0  0
 37112  1  0  0  0  0
 37113  1  0  0  0  0
 38 39  1  0  0  0  0
 38114  1  0  0  0  0
 38115  1  0  0  0  0
 39 40  1  0  0  0  0
 39116  1  0  0  0  0
 39117  1  0  0  0  0
 40 41  1  0  0  0  0
 40118  1  0  0  0  0
 40119  1  0  0  0  0
 41 42  1  0  0  0  0
 41120  1  0  0  0  0
 41121  1  0  0  0  0
 42 43  1  0  0  0  0
 42122  1  0  0  0  0
 42123  1  0  0  0  0
 43 44  1  0  0  0  0
 43124  1  0  0  0  0
 43125  1  0  0  0  0
 44 45  1  0  0  0  0
 44126  1  0  0  0  0
 44127  1  0  0  0  0
 45 46  2  0  0  0  0
 45128  1  0  0  0  0
 46 47  1  0  0  0  0
 46129  1  0  0  0  0
 47 48  1  0  0  0  0
 47130  1  0  0  0  0
 47131  1  0  0  0  0
 48 49  1  0  0  0  0
 48132  1  0  0  0  0
 48133  1  0  0  0  0
 49 50  1  0  0  0  0
 49134  1  0  0  0  0
 49135  1  0  0  0  0
 50 51  1  0  0  0  0
 50136  1  0  0  0  0
 50137  1  0  0  0  0
 51 52  1  0  0  0  0
 51138  1  0  0  0  0
 51139  1  0  0  0  0
 52 53  1  0  0  0  0
 52140  1  0  0  0  0
 52141  1  0  0  0  0
 53 54  1  0  0  0  0
 53142  1  0  0  0  0
 53143  1  0  0  0  0
 54144  1  0  0  0  0
 54145  1  0  0  0  0
 54146  1  0  0  0  0
 55 56  1  0  0  0  0
 55147  1  6  0  0  0
 56 57  1  0  0  0  0
 56148  1  1  0  0  0
 57 58  1  0  0  0  0
 57149  1  6  0  0  0
 58 59  1  0  0  0  0
 58150  1  1  0  0  0
 59 60  1  0  0  0  0
 59151  1  6  0  0  0
 60152  1  0  0  0  0
 60153  1  0  0  0  0
M  CHG  1  21  -1
M  END
$$$$
/media/chris/experiments/cd1a-new-docking/inputs/ligands/7ryn_ligand.pdb
 OpenBabel07032312553D

153153  0  0  1  0  0  0  0  0999 V2000
  -33.0340   65.1330   62.2120 N   0  0  0  0  0  0  0  0  0  0  0  0
  -32.0220   67.3480   62.3220 C   0  0  0  0  0  0  0  0  0  0  0  0
  -33.3204   67.9104   62.5424 O   0  0  0  0  0  0  0  0  0  0  0  0
  -32.1830   66.0840   61.5030 C   0  0  1  0  0  0  0  0  0  0  0  0
  -29.9992   66.3678   60.5104 O   0  0  0  0  0  0  0  0  0  0  0  0
  -30.8310   65.4230   61.1900 C   0  0  2  0  0  0  0  0  0  0  0  0
  -32.4714   65.8137   64.2827 O   0  0  0  0  0  0  0  0  0  0  0  0
  -31.0055   64.1786   60.3744 C   0  0  0  0  0  0  0  0  0  0  0  0
  -33.4828   67.8547   65.3373 O   0  0  0  0  0  0  0  0  0  0  0  0
  -30.6246   62.9714   60.7426 C   0  0  0  0  0  0  0  0  0  0  0  0
  -31.7851   69.7369   66.6130 O   0  0  0  0  0  0  0  0  0  0  0  0
  -30.8265   61.7465   59.9122 C   0  0  0  0  0  0  0  0  0  0  0  0
  -30.5036   70.8340   64.4596 O   0  0  0  0  0  0  0  0  0  0  0  0
  -30.2908   60.5036   60.6258 C   0  0  0  0  0  0  0  0  0  0  0  0
  -32.5700   70.0926   62.6001 O   0  0  0  0  0  0  0  0  0  0  0  0
  -30.4452   59.2153   59.8338 C   0  0  0  0  0  0  0  0  0  0  0  0
  -31.7323   73.6181   62.9917 O   0  0  0  0  0  0  0  0  0  0  0  0
  -29.7160   59.2101   58.5011 C   0  0  0  0  0  0  0  0  0  0  0  0
  -30.6849   70.2420   68.6965 O   0  0  0  0  0  0  0  0  0  0  0  0
  -29.8889   57.9240   57.7062 C   0  0  0  0  0  0  0  0  0  0  0  0
  -32.6697   71.5855   67.9409 O   0  5  0  0  0  0  0  0  0  0  0  0
  -29.1422   57.9199   56.3812 C   0  0  0  0  0  0  0  0  0  0  0  0
  -30.5576   71.7614   66.8710 O   0  0  0  0  0  0  0  0  0  0  0  0
  -27.6385   58.0745   56.5258 C   0  0  0  0  0  0  0  0  0  0  0  0
  -26.9777   56.9690   57.3281 C   0  0  0  0  0  0  0  0  0  0  0  0
  -25.4760   57.1359   57.4851 C   0  0  0  0  0  0  0  0  0  0  0  0
  -24.7414   57.1767   56.1580 C   0  0  0  0  0  0  0  0  0  0  0  0
  -23.2370   57.3257   56.2792 C   0  0  0  0  0  0  0  0  0  0  0  0
  -22.8340   58.5912   57.0105 C   0  0  0  0  0  0  0  0  0  0  0  0
  -21.3309   58.7470   57.1157 C   0  0  0  0  0  0  0  0  0  0  0  0
  -33.1122   65.0716   63.5440 C   0  0  0  0  0  0  0  0  0  0  0  0
  -34.0520   64.0283   64.0950 C   0  0  0  0  0  0  0  0  0  0  0  0
  -35.4642   64.5621   64.2982 C   0  0  0  0  0  0  0  0  0  0  0  0
  -36.4095   63.5175   64.8695 C   0  0  0  0  0  0  0  0  0  0  0  0
  -37.8313   64.0159   65.0677 C   0  0  0  0  0  0  0  0  0  0  0  0
  -38.7720   62.9747   65.6553 C   0  0  0  0  0  0  0  0  0  0  0  0
  -38.9052   61.7133   64.8116 C   0  0  0  0  0  0  0  0  0  0  0  0
  -39.4216   61.9663   63.4010 C   0  0  0  0  0  0  0  0  0  0  0  0
  -40.7966   62.6264   63.3385 C   0  0  0  0  0  0  0  0  0  0  0  0
  -41.3108   62.8593   61.9187 C   0  0  0  0  0  0  0  0  0  0  0  0
  -41.4816   61.5887   61.0865 C   0  0  0  0  0  0  0  0  0  0  0  0
  -40.1865   60.7947   60.9144 C   0  0  0  0  0  0  0  0  0  0  0  0
  -39.0463   61.5551   60.2373 C   0  0  0  0  0  0  0  0  0  0  0  0
  -37.7563   60.7517   60.0513 C   0  0  0  0  0  0  0  0  0  0  0  0
  -37.9463   59.5335   59.1946 C   0  0  0  0  0  0  0  0  0  0  0  0
  -37.0356   58.9829   58.4115 C   0  0  0  0  0  0  0  0  0  0  0  0
  -35.6283   59.4624   58.2230 C   0  0  0  0  0  0  0  0  0  0  0  0
  -35.0587   59.1659   56.8341 C   0  0  0  0  0  0  0  0  0  0  0  0
  -35.8440   59.8250   55.7080 C   0  0  0  0  0  0  0  0  0  0  0  0
  -35.8730   61.3464   55.8006 C   0  0  0  0  0  0  0  0  0  0  0  0
  -34.5017   62.0090   55.7362 C   0  0  0  0  0  0  0  0  0  0  0  0
  -34.5483   63.5265   55.8472 C   0  0  0  0  0  0  0  0  0  0  0  0
  -33.1868   64.1985   55.7670 C   0  0  0  0  0  0  0  0  0  0  0  0
  -32.2373   63.7377   56.8542 C   0  0  0  0  0  0  0  0  0  0  0  0
  -33.3156   69.0988   63.2783 C   0  0  2  0  0  0  0  0  0  0  0  0
  -32.6936   68.8090   64.6382 C   0  0  1  0  0  0  0  0  0  0  0  0
  -32.5875   70.0974   65.4443 C   0  0  2  0  0  0  0  0  0  0  0  0
  -31.8713   71.1807   64.6514 C   0  0  2  0  0  0  0  0  0  0  0  0
  -32.5450   71.3514   63.2921 C   0  0  1  0  0  0  0  0  0  0  0  0
  -31.8289   72.3311   62.3923 C   0  0  0  0  0  0  0  0  0  0  0  0
  -31.4824   70.8551   67.7000 S   0  0  0  0  0  0  0  0  0  0  0  0
  -33.5772   64.5058   61.6821 H   0  0  0  0  0  0  0  0  0  0  0  0
  -31.5648   67.1148   63.2609 H   0  0  0  0  0  0  0  0  0  0  0  0
  -31.4012   68.0473   61.8019 H   0  0  0  0  0  0  0  0  0  0  0  0
  -32.6374   66.3625   60.5752 H   0  0  0  0  0  0  0  0  0  0  0  0
  -29.9008   67.1635   61.0564 H   0  0  0  0  0  0  0  0  0  0  0  0
  -30.3647   65.1308   62.1077 H   0  0  0  0  0  0  0  0  0  0  0  0
  -31.4592   64.2738   59.4524 H   0  0  0  0  0  0  0  0  0  0  0  0
  -33.5430   67.0398   64.8146 H   0  0  0  0  0  0  0  0  0  0  0  0
  -30.1599   62.8667   61.6581 H   0  0  0  0  0  0  0  0  0  0  0  0
  -30.3104   61.8655   58.9825 H   0  0  0  0  0  0  0  0  0  0  0  0
  -31.8756   61.6175   59.7458 H   0  0  0  0  0  0  0  0  0  0  0  0
  -30.0736   70.7251   65.3222 H   0  0  0  0  0  0  0  0  0  0  0  0
  -30.8178   60.3942   61.5506 H   0  0  0  0  0  0  0  0  0  0  0  0
  -29.2406   60.6563   60.7628 H   0  0  0  0  0  0  0  0  0  0  0  0
  -31.4871   59.0600   59.6464 H   0  0  0  0  0  0  0  0  0  0  0  0
  -30.0088   58.4377   60.4252 H   0  0  0  0  0  0  0  0  0  0  0  0
  -31.2687   74.2211   62.3898 H   0  0  0  0  0  0  0  0  0  0  0  0
  -28.6721   59.3523   58.6882 H   0  0  0  0  0  0  0  0  0  0  0  0
  -30.1401   59.9970   57.9131 H   0  0  0  0  0  0  0  0  0  0  0  0
  -31.2382   69.6603   69.2409 H   0  0  0  0  0  0  0  0  0  0  0  0
  -30.9313   57.7874   57.5071 H   0  0  0  0  0  0  0  0  0  0  0  0
  -29.4796   57.1326   58.2986 H   0  0  0  0  0  0  0  0  0  0  0  0
  -29.5089   58.7289   55.7846 H   0  0  0  0  0  0  0  0  0  0  0  0
  -29.3158   56.9662   55.9282 H   0  0  0  0  0  0  0  0  0  0  0  0
  -29.7286   71.2935   66.6845 H   0  0  0  0  0  0  0  0  0  0  0  0
  -27.4416   59.0069   57.0124 H   0  0  0  0  0  0  0  0  0  0  0  0
  -27.2267   58.0290   55.5393 H   0  0  0  0  0  0  0  0  0  0  0  0
  -27.1635   56.0377   56.8351 H   0  0  0  0  0  0  0  0  0  0  0  0
  -27.3986   57.0045   58.3112 H   0  0  0  0  0  0  0  0  0  0  0  0
  -25.0997   56.3141   58.0578 H   0  0  0  0  0  0  0  0  0  0  0  0
  -25.3076   58.0733   57.9728 H   0  0  0  0  0  0  0  0  0  0  0  0
  -25.1154   58.0054   55.5937 H   0  0  0  0  0  0  0  0  0  0  0  0
  -24.9178   56.2347   55.6821 H   0  0  0  0  0  0  0  0  0  0  0  0
  -22.8144   57.3484   55.2964 H   0  0  0  0  0  0  0  0  0  0  0  0
  -22.8733   56.4940   56.8458 H   0  0  0  0  0  0  0  0  0  0  0  0
  -23.2459   58.5630   57.9976 H   0  0  0  0  0  0  0  0  0  0  0  0
  -23.2086   59.4230   56.4513 H   0  0  0  0  0  0  0  0  0  0  0  0
  -20.9255   57.9275   57.6715 H   0  0  0  0  0  0  0  0  0  0  0  0
  -21.1016   59.6650   57.6153 H   0  0  0  0  0  0  0  0  0  0  0  0
  -20.9040   58.7585   56.1346 H   0  0  0  0  0  0  0  0  0  0  0  0
  -33.6744   63.6901   65.0373 H   0  0  0  0  0  0  0  0  0  0  0  0
  -34.1056   63.2315   63.3829 H   0  0  0  0  0  0  0  0  0  0  0  0
  -35.8458   64.8891   63.3535 H   0  0  0  0  0  0  0  0  0  0  0  0
  -35.4077   65.3663   65.0018 H   0  0  0  0  0  0  0  0  0  0  0  0
  -36.0283   63.2009   65.8178 H   0  0  0  0  0  0  0  0  0  0  0  0
  -36.4567   62.7194   64.1583 H   0  0  0  0  0  0  0  0  0  0  0  0
  -38.2172   64.3209   64.1175 H   0  0  0  0  0  0  0  0  0  0  0  0
  -37.7832   64.8227   65.7690 H   0  0  0  0  0  0  0  0  0  0  0  0
  -39.7416   63.4159   65.7561 H   0  0  0  0  0  0  0  0  0  0  0  0
  -38.3555   62.6762   66.5946 H   0  0  0  0  0  0  0  0  0  0  0  0
  -39.5832   61.0483   65.3044 H   0  0  0  0  0  0  0  0  0  0  0  0
  -37.9231   61.3000   64.7135 H   0  0  0  0  0  0  0  0  0  0  0  0
  -39.4787   61.0265   62.8926 H   0  0  0  0  0  0  0  0  0  0  0  0
  -38.7357   62.6486   62.9440 H   0  0  0  0  0  0  0  0  0  0  0  0
  -40.7383   63.5727   63.8345 H   0  0  0  0  0  0  0  0  0  0  0  0
  -41.4836   61.9552   63.8101 H   0  0  0  0  0  0  0  0  0  0  0  0
  -40.6172   63.4983   61.4134 H   0  0  0  0  0  0  0  0  0  0  0  0
  -42.2851   63.2906   62.0165 H   0  0  0  0  0  0  0  0  0  0  0  0
  -41.8414   61.8643   60.1172 H   0  0  0  0  0  0  0  0  0  0  0  0
  -42.1700   60.9590   61.6104 H   0  0  0  0  0  0  0  0  0  0  0  0
  -40.4041   59.9289   60.3246 H   0  0  0  0  0  0  0  0  0  0  0  0
  -39.8455   60.5623   61.9017 H   0  0  0  0  0  0  0  0  0  0  0  0
  -38.8198   62.4142   60.8335 H   0  0  0  0  0  0  0  0  0  0  0  0
  -39.3913   61.8002   59.2546 H   0  0  0  0  0  0  0  0  0  0  0  0
  -37.4054   60.4415   61.0134 H   0  0  0  0  0  0  0  0  0  0  0  0
  -37.0511   61.3861   59.5563 H   0  0  0  0  0  0  0  0  0  0  0  0
  -38.8749   59.0841   59.2199 H   0  0  0  0  0  0  0  0  0  0  0  0
  -37.3198   58.1449   57.8803 H   0  0  0  0  0  0  0  0  0  0  0  0
  -35.0079   58.9841   58.9519 H   0  0  0  0  0  0  0  0  0  0  0  0
  -35.6427   60.5265   58.3347 H   0  0  0  0  0  0  0  0  0  0  0  0
  -35.0699   58.1069   56.6814 H   0  0  0  0  0  0  0  0  0  0  0  0
  -34.0671   59.5668   56.8059 H   0  0  0  0  0  0  0  0  0  0  0  0
  -36.8508   59.4639   55.7399 H   0  0  0  0  0  0  0  0  0  0  0  0
  -35.3533   59.5734   54.7910 H   0  0  0  0  0  0  0  0  0  0  0  0
  -36.3314   61.6162   56.7291 H   0  0  0  0  0  0  0  0  0  0  0  0
  -36.4194   61.6932   54.9485 H   0  0  0  0  0  0  0  0  0  0  0  0
  -34.0464   61.7527   54.8024 H   0  0  0  0  0  0  0  0  0  0  0  0
  -33.9424   61.6516   56.5755 H   0  0  0  0  0  0  0  0  0  0  0  0
  -34.9935   63.7809   56.7863 H   0  0  0  0  0  0  0  0  0  0  0  0
  -35.1154   63.8791   55.0111 H   0  0  0  0  0  0  0  0  0  0  0  0
  -33.3221   65.2560   55.8575 H   0  0  0  0  0  0  0  0  0  0  0  0
  -32.7519   63.9318   54.8264 H   0  0  0  0  0  0  0  0  0  0  0  0
  -32.6426   63.9893   57.8119 H   0  0  0  0  0  0  0  0  0  0  0  0
  -31.2907   64.2208   56.7294 H   0  0  0  0  0  0  0  0  0  0  0  0
  -32.1079   62.6775   56.7890 H   0  0  0  0  0  0  0  0  0  0  0  0
  -34.3149   69.4618   63.3994 H   0  0  0  0  0  0  0  0  0  0  0  0
  -31.7117   68.4079   64.4976 H   0  0  0  0  0  0  0  0  0  0  0  0
  -33.5521   70.4836   65.6995 H   0  0  0  0  0  0  0  0  0  0  0  0
  -31.9240   72.0982   65.1994 H   0  0  0  0  0  0  0  0  0  0  0  0
  -33.5275   71.7227   63.4965 H   0  0  0  0  0  0  0  0  0  0  0  0
  -30.8430   71.9650   62.1951 H   0  0  0  0  0  0  0  0  0  0  0  0
  -32.3898   72.4251   61.4860 H   0  0  0  0  0  0  0  0  0  0  0  0
  1  4  1  0  0  0  0
  1 31  1  0  0  0  0
  1 62  1  0  0  0  0
  2  3  1  0  0  0  0
  2  4  1  0  0  0  0
  2 63  1  0  0  0  0
  2 64  1  0  0  0  0
  3 55  1  0  0  0  0
  4  6  1  0  0  0  0
  4 65  1  6  0  0  0
  5  6  1  0  0  0  0
  5 66  1  0  0  0  0
  6  8  1  0  0  0  0
  6 67  1  1  0  0  0
  7 31  2  0  0  0  0
  8 10  2  0  0  0  0
  8 68  1  0  0  0  0
  9 56  1  0  0  0  0
  9 69  1  0  0  0  0
 10 12  1  0  0  0  0
 10 70  1  0  0  0  0
 11 57  1  0  0  0  0
 11 61  1  0  0  0  0
 12 14  1  0  0  0  0
 12 71  1  0  0  0  0
 12 72  1  0  0  0  0
 13 58  1  0  0  0  0
 13 73  1  0  0  0  0
 14 16  1  0  0  0  0
 14 74  1  0  0  0  0
 14 75  1  0  0  0  0
 15 55  1  0  0  0  0
 15 59  1  0  0  0  0
 16 18  1  0  0  0  0
 16 76  1  0  0  0  0
 16 77  1  0  0  0  0
 17 60  1  0  0  0  0
 17 78  1  0  0  0  0
 18 20  1  0  0  0  0
 18 79  1  0  0  0  0
 18 80  1  0  0  0  0
 19 61  1  0  0  0  0
 19 81  1  0  0  0  0
 20 22  1  0  0  0  0
 20 82  1  0  0  0  0
 20 83  1  0  0  0  0
 21 61  1  0  0  0  0
 22 24  1  0  0  0  0
 22 84  1  0  0  0  0
 22 85  1  0  0  0  0
 23 61  1  0  0  0  0
 23 86  1  0  0  0  0
 24 25  1  0  0  0  0
 24 87  1  0  0  0  0
 24 88  1  0  0  0  0
 25 26  1  0  0  0  0
 25 89  1  0  0  0  0
 25 90  1  0  0  0  0
 26 27  1  0  0  0  0
 26 91  1  0  0  0  0
 26 92  1  0  0  0  0
 27 28  1  0  0  0  0
 27 93  1  0  0  0  0
 27 94  1  0  0  0  0
 28 29  1  0  0  0  0
 28 95  1  0  0  0  0
 28 96  1  0  0  0  0
 29 30  1  0  0  0  0
 29 97  1  0  0  0  0
 29 98  1  0  0  0  0
 30 99  1  0  0  0  0
 30100  1  0  0  0  0
 30101  1  0  0  0  0
 31 32  1  0  0  0  0
 32 33  1  0  0  0  0
 32102  1  0  0  0  0
 32103  1  0  0  0  0
 33 34  1  0  0  0  0
 33104  1  0  0  0  0
 33105  1  0  0  0  0
 34 35  1  0  0  0  0
 34106  1  0  0  0  0
 34107  1  0  0  0  0
 35 36  1  0  0  0  0
 35108  1  0  0  0  0
 35109  1  0  0  0  0
 36 37  1  0  0  0  0
 36110  1  0  0  0  0
 36111  1  0  0  0  0
 37 38  1  0  0  0  0
 37112  1  0  0  0  0
 37113  1  0  0  0  0
 38 39  1  0  0  0  0
 38114  1  0  0  0  0
 38115  1  0  0  0  0
 39 40  1  0  0  0  0
 39116  1  0  0  0  0
 39117  1  0  0  0  0
 40 41  1  0  0  0  0
 40118  1  0  0  0  0
 40119  1  0  0  0  0
 41 42  1  0  0  0  0
 41120  1  0  0  0  0
 41121  1  0  0  0  0
 42 43  1  0  0  0  0
 42122  1  0  0  0  0
 42123  1  0  0  0  0
 43 44  1  0  0  0  0
 43124  1  0  0  0  0
 43125  1  0  0  0  0
 44 45  1  0  0  0  0
 44126  1  0  0  0  0
 44127  1  0  0  0  0
 45 46  2  0  0  0  0
 45128  1  0  0  0  0
 46 47  1  0  0  0  0
 46129  1  0  0  0  0
 47 48  1  0  0  0  0
 47130  1  0  0  0  0
 47131  1  0  0  0  0
 48 49  1  0  0  0  0
 48132  1  0  0  0  0
 48133  1  0  0  0  0
 49 50  1  0  0  0  0
 49134  1  0  0  0  0
 49135  1  0  0  0  0
 50 51  1  0  0  0  0
 50136  1  0  0  0  0
 50137  1  0  0  0  0
 51 52  1  0  0  0  0
 51138  1  0  0  0  0
 51139  1  0  0  0  0
 52 53  1  0  0  0  0
 52140  1  0  0  0  0
 52141  1  0  0  0  0
 53 54  1  0  0  0  0
 53142  1  0  0  0  0
 53143  1  0  0  0  0
 54144  1  0  0  0  0
 54145  1  0  0  0  0
 54146  1  0  0  0  0
 55 56  1  0  0  0  0
 55147  1  1  0  0  0
 56 57  1  0  0  0  0
 56148  1  6  0  0  0
 57 58  1  0  0  0  0
 57149  1  1  0  0  0
 58 59  1  0  0  0  0
 58150  1  1  0  0  0
 59 60  1  0  0  0  0
 59151  1  1  0  0  0
 60152  1  0  0  0  0
 60153  1  0  0  0  0
M  CHG  1  21  -1
M  END
$$$$
/media/chris/experiments/cd1a-new-docking/inputs/ligands/7ryn_ligand.pdb
 OpenBabel07032312553D

153153  0  0  1  0  0  0  0  0999 V2000
  -33.0340   65.1330   62.2120 N   0  0  0  0  0  0  0  0  0  0  0  0
  -32.0220   67.3480   62.3220 C   0  0  0  0  0  0  0  0  0  0  0  0
  -31.1969   68.2589   61.5870 O   0  0  0  0  0  0  0  0  0  0  0  0
  -32.1830   66.0840   61.5030 C   0  0  1  0  0  0  0  0  0  0  0  0
  -31.0548   64.2805   60.3587 O   0  0  0  0  0  0  0  0  0  0  0  0
  -30.8310   65.4230   61.1900 C   0  0  2  0  0  0  0  0  0  0  0  0
  -34.5420   63.4616   62.1958 O   0  0  0  0  0  0  0  0  0  0  0  0
  -30.1054   65.0399   62.4433 C   0  0  0  0  0  0  0  0  0  0  0  0
  -28.8256   69.6743   61.1237 O   0  0  0  0  0  0  0  0  0  0  0  0
  -29.2560   65.8107   63.0932 C   0  0  0  0  0  0  0  0  0  0  0  0
  -29.1955   72.4811   60.9310 O   0  0  0  0  0  0  0  0  0  0  0  0
  -28.5590   65.4049   64.3502 C   0  0  0  0  0  0  0  0  0  0  0  0
  -31.9137   72.6716   61.1716 O   0  0  0  0  0  0  0  0  0  0  0  0
  -29.4088   64.4215   65.1577 C   0  0  0  0  0  0  0  0  0  0  0  0
  -32.1725   70.1372   62.5085 O   0  0  0  0  0  0  0  0  0  0  0  0
  -30.7684   64.9638   65.5679 C   0  0  0  0  0  0  0  0  0  0  0  0
  -33.3185   73.1515   64.2067 O   0  0  0  0  0  0  0  0  0  0  0  0
  -30.7086   66.2187   66.4220 C   0  0  0  0  0  0  0  0  0  0  0  0
  -28.2009   74.5050   60.0814 O   0  0  0  0  0  0  0  0  0  0  0  0
  -32.0725   66.7462   66.8430 C   0  0  0  0  0  0  0  0  0  0  0  0
  -28.2208   74.0289   62.5489 O   0  5  0  0  0  0  0  0  0  0  0  0
  -32.9784   67.0993   65.6734 C   0  0  0  0  0  0  0  0  0  0  0  0
  -30.2001   74.5960   61.3668 O   0  0  0  0  0  0  0  0  0  0  0  0
  -33.2927   65.9230   64.7660 C   0  0  0  0  0  0  0  0  0  0  0  0
  -34.0110   64.7811   65.4606 C   0  0  0  0  0  0  0  0  0  0  0  0
  -35.3585   65.1670   66.0459 C   0  0  0  0  0  0  0  0  0  0  0  0
  -36.3411   65.6592   64.9996 C   0  0  0  0  0  0  0  0  0  0  0  0
  -37.6923   66.0692   65.5532 C   0  0  0  0  0  0  0  0  0  0  0  0
  -37.5925   67.2068   66.5504 C   0  0  0  0  0  0  0  0  0  0  0  0
  -38.9409   67.6035   67.1150 C   0  0  0  0  0  0  0  0  0  0  0  0
  -33.8200   64.2493   61.5913 C   0  0  0  0  0  0  0  0  0  0  0  0
  -33.7740   64.2810   60.0839 C   0  0  0  0  0  0  0  0  0  0  0  0
  -33.3190   62.9564   59.4847 C   0  0  0  0  0  0  0  0  0  0  0  0
  -33.2552   62.9908   57.9661 C   0  0  0  0  0  0  0  0  0  0  0  0
  -32.8203   61.6773   57.3378 C   0  0  0  0  0  0  0  0  0  0  0  0
  -31.4445   61.2069   57.7854 C   0  0  0  0  0  0  0  0  0  0  0  0
  -31.3319   60.9578   59.2841 C   0  0  0  0  0  0  0  0  0  0  0  0
  -29.9486   60.5033   59.7317 C   0  0  0  0  0  0  0  0  0  0  0  0
  -29.4659   59.2089   59.0820 C   0  0  0  0  0  0  0  0  0  0  0  0
  -30.3736   58.0073   59.3397 C   0  0  0  0  0  0  0  0  0  0  0  0
  -29.8943   56.6999   58.7095 C   0  0  0  0  0  0  0  0  0  0  0  0
  -30.8305   55.5195   58.9695 C   0  0  0  0  0  0  0  0  0  0  0  0
  -30.3766   54.1890   58.3691 C   0  0  0  0  0  0  0  0  0  0  0  0
  -30.2021   54.1938   56.8481 C   0  0  0  0  0  0  0  0  0  0  0  0
  -31.4652   54.5465   56.1172 C   0  0  0  0  0  0  0  0  0  0  0  0
  -32.6119   53.8935   56.1847 C   0  0  0  0  0  0  0  0  0  0  0  0
  -32.8831   52.6706   57.0074 C   0  0  0  0  0  0  0  0  0  0  0  0
  -33.9320   51.7389   56.3964 C   0  0  0  0  0  0  0  0  0  0  0  0
  -35.2852   52.4072   56.1926 C   0  0  0  0  0  0  0  0  0  0  0  0
  -35.2325   53.6054   55.2514 C   0  0  0  0  0  0  0  0  0  0  0  0
  -36.5715   54.3037   55.0430 C   0  0  0  0  0  0  0  0  0  0  0  0
  -37.1741   54.8680   56.3218 C   0  0  0  0  0  0  0  0  0  0  0  0
  -38.5181   55.5519   56.1275 C   0  0  0  0  0  0  0  0  0  0  0  0
  -39.5809   54.6188   55.5837 C   0  0  0  0  0  0  0  0  0  0  0  0
  -30.9530   69.4703   62.2406 C   0  0  2  0  0  0  0  0  0  0  0  0
  -30.0721   70.3242   61.3379 C   0  0  1  0  0  0  0  0  0  0  0  0
  -29.8516   71.6915   61.9728 C   0  0  2  0  0  0  0  0  0  0  0  0
  -31.1762   72.3417   62.3441 C   0  0  2  0  0  0  0  0  0  0  0  0
  -31.9954   71.3819   63.2035 C   0  0  1  0  0  0  0  0  0  0  0  0
  -33.3762   71.9033   63.5259 C   0  0  0  0  0  0  0  0  0  0  0  0
  -28.7943   73.9833   61.2565 S   0  0  0  0  0  0  0  0  0  0  0  0
  -33.0282   65.1436   63.1964 H   0  0  0  0  0  0  0  0  0  0  0  0
  -32.9806   67.7896   62.4978 H   0  0  0  0  0  0  0  0  0  0  0  0
  -31.5704   67.1208   63.2650 H   0  0  0  0  0  0  0  0  0  0  0  0
  -32.6374   66.3625   60.5752 H   0  0  0  0  0  0  0  0  0  0  0  0
  -31.5249   64.5525   59.5551 H   0  0  0  0  0  0  0  0  0  0  0  0
  -30.2105   66.1253   60.6735 H   0  0  0  0  0  0  0  0  0  0  0  0
  -30.2845   64.0992   62.8281 H   0  0  0  0  0  0  0  0  0  0  0  0
  -28.9790   68.8059   60.7197 H   0  0  0  0  0  0  0  0  0  0  0  0
  -29.0613   66.7494   62.7110 H   0  0  0  0  0  0  0  0  0  0  0  0
  -28.3733   66.2756   64.9437 H   0  0  0  0  0  0  0  0  0  0  0  0
  -27.6391   64.9247   64.0892 H   0  0  0  0  0  0  0  0  0  0  0  0
  -31.3948   73.2814   60.6241 H   0  0  0  0  0  0  0  0  0  0  0  0
  -28.8696   64.1618   66.0447 H   0  0  0  0  0  0  0  0  0  0  0  0
  -29.5922   63.5801   64.5227 H   0  0  0  0  0  0  0  0  0  0  0  0
  -31.2785   64.2045   66.1230 H   0  0  0  0  0  0  0  0  0  0  0  0
  -31.2769   65.2312   64.6652 H   0  0  0  0  0  0  0  0  0  0  0  0
  -34.2189   73.4572   64.3982 H   0  0  0  0  0  0  0  0  0  0  0  0
  -30.2102   66.9828   65.8629 H   0  0  0  0  0  0  0  0  0  0  0  0
  -30.1870   65.9581   67.3192 H   0  0  0  0  0  0  0  0  0  0  0  0
  -27.3087   74.1382   59.9795 H   0  0  0  0  0  0  0  0  0  0  0  0
  -31.9267   67.6254   67.4350 H   0  0  0  0  0  0  0  0  0  0  0  0
  -32.5563   65.9628   67.3881 H   0  0  0  0  0  0  0  0  0  0  0  0
  -32.4970   67.8564   65.0902 H   0  0  0  0  0  0  0  0  0  0  0  0
  -33.9076   67.4311   66.0875 H   0  0  0  0  0  0  0  0  0  0  0  0
  -30.6278   74.5827   60.4963 H   0  0  0  0  0  0  0  0  0  0  0  0
  -32.3721   65.5492   64.3689 H   0  0  0  0  0  0  0  0  0  0  0  0
  -33.9524   66.2864   64.0060 H   0  0  0  0  0  0  0  0  0  0  0  0
  -33.3884   64.4247   66.2544 H   0  0  0  0  0  0  0  0  0  0  0  0
  -34.1975   64.0338   64.7178 H   0  0  0  0  0  0  0  0  0  0  0  0
  -35.2077   65.9452   66.7647 H   0  0  0  0  0  0  0  0  0  0  0  0
  -35.7777   64.2884   66.4901 H   0  0  0  0  0  0  0  0  0  0  0  0
  -36.4947   64.8740   64.2891 H   0  0  0  0  0  0  0  0  0  0  0  0
  -35.9102   66.5367   64.5647 H   0  0  0  0  0  0  0  0  0  0  0  0
  -38.1340   65.2247   66.0396 H   0  0  0  0  0  0  0  0  0  0  0  0
  -38.2895   66.4086   64.7327 H   0  0  0  0  0  0  0  0  0  0  0  0
  -37.1624   68.0554   66.0608 H   0  0  0  0  0  0  0  0  0  0  0  0
  -36.9847   66.8725   67.3650 H   0  0  0  0  0  0  0  0  0  0  0  0
  -39.5736   67.9435   66.3219 H   0  0  0  0  0  0  0  0  0  0  0  0
  -38.8112   68.3893   67.8295 H   0  0  0  0  0  0  0  0  0  0  0  0
  -39.3905   66.7580   67.5924 H   0  0  0  0  0  0  0  0  0  0  0  0
  -33.0933   65.0477   59.7778 H   0  0  0  0  0  0  0  0  0  0  0  0
  -34.7666   64.4720   59.7329 H   0  0  0  0  0  0  0  0  0  0  0  0
  -34.0068   62.1923   59.7812 H   0  0  0  0  0  0  0  0  0  0  0  0
  -32.3308   62.7609   59.8454 H   0  0  0  0  0  0  0  0  0  0  0  0
  -32.5594   63.7499   57.6753 H   0  0  0  0  0  0  0  0  0  0  0  0
  -34.2477   63.1878   57.6181 H   0  0  0  0  0  0  0  0  0  0  0  0
  -32.8051   61.8006   56.2751 H   0  0  0  0  0  0  0  0  0  0  0  0
  -33.5215   60.9337   57.6545 H   0  0  0  0  0  0  0  0  0  0  0  0
  -30.7286   61.9543   57.5139 H   0  0  0  0  0  0  0  0  0  0  0  0
  -31.2653   60.2695   57.3016 H   0  0  0  0  0  0  0  0  0  0  0  0
  -32.0388   60.2013   59.5540 H   0  0  0  0  0  0  0  0  0  0  0  0
  -31.5243   61.8917   59.7696 H   0  0  0  0  0  0  0  0  0  0  0  0
  -29.9717   60.3568   60.7914 H   0  0  0  0  0  0  0  0  0  0  0  0
  -29.2646   61.2686   59.4296 H   0  0  0  0  0  0  0  0  0  0  0  0
  -28.4924   58.9832   59.4646 H   0  0  0  0  0  0  0  0  0  0  0  0
  -29.4652   59.3749   58.0250 H   0  0  0  0  0  0  0  0  0  0  0  0
  -31.3433   58.2313   58.9466 H   0  0  0  0  0  0  0  0  0  0  0  0
  -30.3754   57.8506   60.3982 H   0  0  0  0  0  0  0  0  0  0  0  0
  -28.9312   56.4633   59.1111 H   0  0  0  0  0  0  0  0  0  0  0  0
  -29.8658   56.8522   57.6508 H   0  0  0  0  0  0  0  0  0  0  0  0
  -31.7887   55.7593   58.5582 H   0  0  0  0  0  0  0  0  0  0  0  0
  -30.8458   55.3786   60.0300 H   0  0  0  0  0  0  0  0  0  0  0  0
  -31.1057   53.4464   58.6176 H   0  0  0  0  0  0  0  0  0  0  0  0
  -29.4098   53.9883   58.7813 H   0  0  0  0  0  0  0  0  0  0  0  0
  -29.8882   53.2193   56.5372 H   0  0  0  0  0  0  0  0  0  0  0  0
  -29.4738   54.9408   56.6104 H   0  0  0  0  0  0  0  0  0  0  0  0
  -31.4350   55.3765   55.5047 H   0  0  0  0  0  0  0  0  0  0  0  0
  -33.3932   54.2596   55.6185 H   0  0  0  0  0  0  0  0  0  0  0  0
  -33.2279   52.9814   57.9715 H   0  0  0  0  0  0  0  0  0  0  0  0
  -31.9675   52.1193   57.0599 H   0  0  0  0  0  0  0  0  0  0  0  0
  -34.0620   50.9001   57.0478 H   0  0  0  0  0  0  0  0  0  0  0  0
  -33.5736   51.4479   55.4311 H   0  0  0  0  0  0  0  0  0  0  0  0
  -35.6467   52.7384   57.1436 H   0  0  0  0  0  0  0  0  0  0  0  0
  -35.9318   51.6817   55.7448 H   0  0  0  0  0  0  0  0  0  0  0  0
  -34.8798   53.2675   54.2994 H   0  0  0  0  0  0  0  0  0  0  0  0
  -34.5825   54.3227   55.7074 H   0  0  0  0  0  0  0  0  0  0  0  0
  -37.2599   53.5971   54.6286 H   0  0  0  0  0  0  0  0  0  0  0  0
  -36.3932   55.1321   54.3897 H   0  0  0  0  0  0  0  0  0  0  0  0
  -36.4895   55.5826   56.7287 H   0  0  0  0  0  0  0  0  0  0  0  0
  -37.3428   54.0376   56.9752 H   0  0  0  0  0  0  0  0  0  0  0  0
  -38.3923   56.3631   55.4412 H   0  0  0  0  0  0  0  0  0  0  0  0
  -38.8482   55.8901   57.0874 H   0  0  0  0  0  0  0  0  0  0  0  0
  -39.2821   54.2603   54.6209 H   0  0  0  0  0  0  0  0  0  0  0  0
  -40.5077   55.1464   55.4961 H   0  0  0  0  0  0  0  0  0  0  0  0
  -39.7035   53.7908   56.2503 H   0  0  0  0  0  0  0  0  0  0  0  0
  -30.4622   69.2932   63.1747 H   0  0  0  0  0  0  0  0  0  0  0  0
  -30.5589   70.4564   60.3943 H   0  0  0  0  0  0  0  0  0  0  0  0
  -29.2758   71.6206   62.8719 H   0  0  0  0  0  0  0  0  0  0  0  0
  -30.9761   73.2382   62.8929 H   0  0  0  0  0  0  0  0  0  0  0  0
  -31.4476   71.2644   64.1151 H   0  0  0  0  0  0  0  0  0  0  0  0
  -33.9213   72.0300   62.6139 H   0  0  0  0  0  0  0  0  0  0  0  0
  -33.8606   71.1952   64.1653 H   0  0  0  0  0  0  0  0  0  0  0  0
  1  4  1  0  0  0  0
  1 31  1  0  0  0  0
  1 62  1  0  0  0  0
  2  3  1  0  0  0  0
  2  4  1  0  0  0  0
  2 63  1  0  0  0  0
  2 64  1  0  0  0  0
  3 55  1  0  0  0  0
  4  6  1  0  0  0  0
  4 65  1  6  0  0  0
  5  6  1  0  0  0  0
  5 66  1  0  0  0  0
  6  8  1  0  0  0  0
  6 67  1  6  0  0  0
  7 31  2  0  0  0  0
  8 10  2  0  0  0  0
  8 68  1  0  0  0  0
  9 56  1  0  0  0  0
  9 69  1  0  0  0  0
 10 12  1  0  0  0  0
 10 70  1  0  0  0  0
 11 57  1  0  0  0  0
 11 61  1  0  0  0  0
 12 14  1  0  0  0  0
 12 71  1  0  0  0  0
 12 72  1  0  0  0  0
 13 58  1  0  0  0  0
 13 73  1  0  0  0  0
 14 16  1  0  0  0  0
 14 74  1  0  0  0  0
 14 75  1  0  0  0  0
 15 55  1  0  0  0  0
 15 59  1  0  0  0  0
 16 18  1  0  0  0  0
 16 76  1  0  0  0  0
 16 77  1  0  0  0  0
 17 60  1  0  0  0  0
 17 78  1  0  0  0  0
 18 20  1  0  0  0  0
 18 79  1  0  0  0  0
 18 80  1  0  0  0  0
 19 61  1  0  0  0  0
 19 81  1  0  0  0  0
 20 22  1  0  0  0  0
 20 82  1  0  0  0  0
 20 83  1  0  0  0  0
 21 61  1  0  0  0  0
 22 24  1  0  0  0  0
 22 84  1  0  0  0  0
 22 85  1  0  0  0  0
 23 61  1  0  0  0  0
 23 86  1  0  0  0  0
 24 25  1  0  0  0  0
 24 87  1  0  0  0  0
 24 88  1  0  0  0  0
 25 26  1  0  0  0  0
 25 89  1  0  0  0  0
 25 90  1  0  0  0  0
 26 27  1  0  0  0  0
 26 91  1  0  0  0  0
 26 92  1  0  0  0  0
 27 28  1  0  0  0  0
 27 93  1  0  0  0  0
 27 94  1  0  0  0  0
 28 29  1  0  0  0  0
 28 95  1  0  0  0  0
 28 96  1  0  0  0  0
 29 30  1  0  0  0  0
 29 97  1  0  0  0  0
 29 98  1  0  0  0  0
 30 99  1  0  0  0  0
 30100  1  0  0  0  0
 30101  1  0  0  0  0
 31 32  1  0  0  0  0
 32 33  1  0  0  0  0
 32102  1  0  0  0  0
 32103  1  0  0  0  0
 33 34  1  0  0  0  0
 33104  1  0  0  0  0
 33105  1  0  0  0  0
 34 35  1  0  0  0  0
 34106  1  0  0  0  0
 34107  1  0  0  0  0
 35 36  1  0  0  0  0
 35108  1  0  0  0  0
 35109  1  0  0  0  0
 36 37  1  0  0  0  0
 36110  1  0  0  0  0
 36111  1  0  0  0  0
 37 38  1  0  0  0  0
 37112  1  0  0  0  0
 37113  1  0  0  0  0
 38 39  1  0  0  0  0
 38114  1  0  0  0  0
 38115  1  0  0  0  0
 39 40  1  0  0  0  0
 39116  1  0  0  0  0
 39117  1  0  0  0  0
 40 41  1  0  0  0  0
 40118  1  0  0  0  0
 40119  1  0  0  0  0
 41 42  1  0  0  0  0
 41120  1  0  0  0  0
 41121  1  0  0  0  0
 42 43  1  0  0  0  0
 42122  1  0  0  0  0
 42123  1  0  0  0  0
 43 44  1  0  0  0  0
 43124  1  0  0  0  0
 43125  1  0  0  0  0
 44 45  1  0  0  0  0
 44126  1  0  0  0  0
 44127  1  0  0  0  0
 45 46  2  0  0  0  0
 45128  1  0  0  0  0
 46 47  1  0  0  0  0
 46129  1  0  0  0  0
 47 48  1  0  0  0  0
 47130  1  0  0  0  0
 47131  1  0  0  0  0
 48 49  1  0  0  0  0
 48132  1  0  0  0  0
 48133  1  0  0  0  0
 49 50  1  0  0  0  0
 49134  1  0  0  0  0
 49135  1  0  0  0  0
 50 51  1  0  0  0  0
 50136  1  0  0  0  0
 50137  1  0  0  0  0
 51 52  1  0  0  0  0
 51138  1  0  0  0  0
 51139  1  0  0  0  0
 52 53  1  0  0  0  0
 52140  1  0  0  0  0
 52141  1  0  0  0  0
 53 54  1  0  0  0  0
 53142  1  0  0  0  0
 53143  1  0  0  0  0
 54144  1  0  0  0  0
 54145  1  0  0  0  0
 54146  1  0  0  0  0
 55 56  1  0  0  0  0
 55147  1  1  0  0  0
 56 57  1  0  0  0  0
 56148  1  6  0  0  0
 57 58  1  0  0  0  0
 57149  1  1  0  0  0
 58 59  1  0  0  0  0
 58150  1  1  0  0  0
 59 60  1  0  0  0  0
 59151  1  1  0  0  0
 60152  1  0  0  0  0
 60153  1  0  0  0  0
M  CHG  1  21  -1
M  END
$$$$
/media/chris/experiments/cd1a-new-docking/inputs/ligands/7ryn_ligand.pdb
 OpenBabel07032312553D

153153  0  0  1  0  0  0  0  0999 V2000
  -33.0340   65.1330   62.2120 N   0  0  0  0  0  0  0  0  0  0  0  0
  -32.0220   67.3480   62.3220 C   0  0  0  0  0  0  0  0  0  0  0  0
  -31.4051   67.0024   63.5673 O   0  0  0  0  0  0  0  0  0  0  0  0
  -32.1830   66.0840   61.5030 C   0  0  1  0  0  0  0  0  0  0  0  0
  -30.2154   65.0225   62.4176 O   0  0  0  0  0  0  0  0  0  0  0  0
  -30.8310   65.4230   61.1900 C   0  0  2  0  0  0  0  0  0  0  0  0
  -34.2576   66.6787   63.2990 O   0  0  0  0  0  0  0  0  0  0  0  0
  -29.9369   66.3439   60.4177 C   0  0  0  0  0  0  0  0  0  0  0  0
  -29.0472   68.5087   63.4560 O   0  0  0  0  0  0  0  0  0  0  0  0
  -30.3493   67.2791   59.5850 C   0  0  0  0  0  0  0  0  0  0  0  0
  -29.4663   71.3004   63.7442 O   0  0  0  0  0  0  0  0  0  0  0  0
  -29.4320   68.1925   58.8402 C   0  0  0  0  0  0  0  0  0  0  0  0
  -32.1950   71.4092   63.9043 O   0  0  0  0  0  0  0  0  0  0  0  0
  -28.0884   67.5157   58.5614 C   0  0  0  0  0  0  0  0  0  0  0  0
  -32.4523   68.6756   64.7639 O   0  0  0  0  0  0  0  0  0  0  0  0
  -27.0919   68.3911   57.8191 C   0  0  0  0  0  0  0  0  0  0  0  0
  -34.4615   70.6093   64.8705 O   0  0  0  0  0  0  0  0  0  0  0  0
  -27.5737   68.8730   56.4613 C   0  0  0  0  0  0  0  0  0  0  0  0
  -28.4817   73.4554   63.3041 O   0  0  0  0  0  0  0  0  0  0  0  0
  -26.5645   69.7348   55.7167 C   0  0  0  0  0  0  0  0  0  0  0  0
  -28.5846   72.5516   65.6468 O   0  5  0  0  0  0  0  0  0  0  0  0
  -27.0606   70.2272   54.3659 C   0  0  0  0  0  0  0  0  0  0  0  0
  -30.5292   73.2918   64.5035 O   0  0  0  0  0  0  0  0  0  0  0  0
  -26.0485   71.0734   53.6137 C   0  0  0  0  0  0  0  0  0  0  0  0
  -24.7543   70.3494   53.2927 C   0  0  0  0  0  0  0  0  0  0  0  0
  -24.9365   69.1231   52.4148 C   0  0  0  0  0  0  0  0  0  0  0  0
  -25.5417   69.4468   51.0614 C   0  0  0  0  0  0  0  0  0  0  0  0
  -24.7142   70.3961   50.2162 C   0  0  0  0  0  0  0  0  0  0  0  0
  -25.3637   70.7048   48.8816 C   0  0  0  0  0  0  0  0  0  0  0  0
  -24.5279   71.6395   48.0317 C   0  0  0  0  0  0  0  0  0  0  0  0
  -34.0033   65.5031   63.0532 C   0  0  0  0  0  0  0  0  0  0  0  0
  -34.7826   64.3775   63.6864 C   0  0  0  0  0  0  0  0  0  0  0  0
  -35.8794   64.8771   64.6180 C   0  0  0  0  0  0  0  0  0  0  0  0
  -36.6555   63.7445   65.2709 C   0  0  0  0  0  0  0  0  0  0  0  0
  -37.3399   62.8162   64.2815 C   0  0  0  0  0  0  0  0  0  0  0  0
  -38.1300   61.6933   64.9367 C   0  0  0  0  0  0  0  0  0  0  0  0
  -38.8037   60.7505   63.9477 C   0  0  0  0  0  0  0  0  0  0  0  0
  -37.8318   60.0300   63.0222 C   0  0  0  0  0  0  0  0  0  0  0  0
  -38.4929   59.0940   62.0136 C   0  0  0  0  0  0  0  0  0  0  0  0
  -37.5069   58.3645   61.1027 C   0  0  0  0  0  0  0  0  0  0  0  0
  -38.1551   57.4362   60.0757 C   0  0  0  0  0  0  0  0  0  0  0  0
  -37.1442   56.7074   59.1902 C   0  0  0  0  0  0  0  0  0  0  0  0
  -37.7546   55.7815   58.1382 C   0  0  0  0  0  0  0  0  0  0  0  0
  -36.7392   55.0402   57.2643 C   0  0  0  0  0  0  0  0  0  0  0  0
  -35.8402   55.9683   56.4997 C   0  0  0  0  0  0  0  0  0  0  0  0
  -36.2258   56.8821   55.6268 C   0  0  0  0  0  0  0  0  0  0  0  0
  -37.6394   57.1780   55.2263 C   0  0  0  0  0  0  0  0  0  0  0  0
  -38.3105   58.2503   56.0874 C   0  0  0  0  0  0  0  0  0  0  0  0
  -39.7517   58.5317   55.6837 C   0  0  0  0  0  0  0  0  0  0  0  0
  -39.8945   59.0050   54.2415 C   0  0  0  0  0  0  0  0  0  0  0  0
  -39.1316   60.2847   53.9187 C   0  0  0  0  0  0  0  0  0  0  0  0
  -37.6271   60.1685   54.1193 C   0  0  0  0  0  0  0  0  0  0  0  0
  -36.8585   61.4449   53.8161 C   0  0  0  0  0  0  0  0  0  0  0  0
  -35.3633   61.2922   54.0086 C   0  0  0  0  0  0  0  0  0  0  0  0
  -31.2104   68.0828   64.4327 C   0  0  2  0  0  0  0  0  0  0  0  0
  -30.3138   69.0941   63.7304 C   0  0  1  0  0  0  0  0  0  0  0  0
  -30.1449   70.3308   64.6038 C   0  0  2  0  0  0  0  0  0  0  0  0
  -31.4954   70.8877   65.0296 C   0  0  2  0  0  0  0  0  0  0  0  0
  -32.3266   69.7807   65.6732 C   0  0  1  0  0  0  0  0  0  0  0  0
  -33.7288   70.2187   66.0260 C   0  0  0  0  0  0  0  0  0  0  0  0
  -29.1081   72.7269   64.3444 S   0  0  0  0  0  0  0  0  0  0  0  0
  -32.8861   64.1712   62.0627 H   0  0  0  0  0  0  0  0  0  0  0  0
  -31.4053   68.0450   61.7940 H   0  0  0  0  0  0  0  0  0  0  0  0
  -32.9770   67.7979   62.4965 H   0  0  0  0  0  0  0  0  0  0  0  0
  -32.6374   66.3625   60.5752 H   0  0  0  0  0  0  0  0  0  0  0  0
  -30.8116   64.4280   62.8994 H   0  0  0  0  0  0  0  0  0  0  0  0
  -30.9971   64.5628   60.5757 H   0  0  0  0  0  0  0  0  0  0  0  0
  -28.9186   66.2380   60.5475 H   0  0  0  0  0  0  0  0  0  0  0  0
  -29.1677   67.7231   62.8999 H   0  0  0  0  0  0  0  0  0  0  0  0
  -31.3654   67.3862   59.4394 H   0  0  0  0  0  0  0  0  0  0  0  0
  -29.2652   69.0732   59.4246 H   0  0  0  0  0  0  0  0  0  0  0  0
  -29.8872   68.4430   57.9048 H   0  0  0  0  0  0  0  0  0  0  0  0
  -31.6684   72.1129   63.4939 H   0  0  0  0  0  0  0  0  0  0  0  0
  -28.2693   66.6403   57.9733 H   0  0  0  0  0  0  0  0  0  0  0  0
  -27.6530   67.2931   59.5131 H   0  0  0  0  0  0  0  0  0  0  0  0
  -26.1932   67.8284   57.6755 H   0  0  0  0  0  0  0  0  0  0  0  0
  -26.9440   69.2643   58.4195 H   0  0  0  0  0  0  0  0  0  0  0  0
  -35.3545   70.8838   65.1313 H   0  0  0  0  0  0  0  0  0  0  0  0
  -28.4653   69.4470   56.6049 H   0  0  0  0  0  0  0  0  0  0  0  0
  -27.7372   68.0008   55.8633 H   0  0  0  0  0  0  0  0  0  0  0  0
  -27.5791   73.1242   63.1756 H   0  0  0  0  0  0  0  0  0  0  0  0
  -25.6771   69.1575   55.5608 H   0  0  0  0  0  0  0  0  0  0  0  0
  -26.3872   70.6007   56.3196 H   0  0  0  0  0  0  0  0  0  0  0  0
  -27.9411   70.8145   54.5233 H   0  0  0  0  0  0  0  0  0  0  0  0
  -27.2488   69.3603   53.7676 H   0  0  0  0  0  0  0  0  0  0  0  0
  -30.9236   73.4264   63.6276 H   0  0  0  0  0  0  0  0  0  0  0  0
  -25.8155   71.9296   54.2116 H   0  0  0  0  0  0  0  0  0  0  0  0
  -26.4976   71.3335   52.6780 H   0  0  0  0  0  0  0  0  0  0  0  0
  -24.3035   70.0410   54.2128 H   0  0  0  0  0  0  0  0  0  0  0  0
  -24.1422   71.0353   52.7451 H   0  0  0  0  0  0  0  0  0  0  0  0
  -25.5808   68.4346   52.9204 H   0  0  0  0  0  0  0  0  0  0  0  0
  -23.9660   68.7078   52.2400 H   0  0  0  0  0  0  0  0  0  0  0  0
  -26.5016   69.8915   51.2218 H   0  0  0  0  0  0  0  0  0  0  0  0
  -25.5944   68.5243   50.5219 H   0  0  0  0  0  0  0  0  0  0  0  0
  -23.7579   69.9508   50.0372 H   0  0  0  0  0  0  0  0  0  0  0  0
  -24.6260   71.3166   50.7546 H   0  0  0  0  0  0  0  0  0  0  0  0
  -26.3147   71.1616   49.0603 H   0  0  0  0  0  0  0  0  0  0  0  0
  -25.4641   69.7827   48.3480 H   0  0  0  0  0  0  0  0  0  0  0  0
  -24.4093   72.5735   48.5400 H   0  0  0  0  0  0  0  0  0  0  0  0
  -25.0176   71.8031   47.0945 H   0  0  0  0  0  0  0  0  0  0  0  0
  -23.5666   71.2020   47.8603 H   0  0  0  0  0  0  0  0  0  0  0  0
  -34.1073   63.7667   64.2484 H   0  0  0  0  0  0  0  0  0  0  0  0
  -35.2520   63.8250   62.8995 H   0  0  0  0  0  0  0  0  0  0  0  0
  -36.5611   65.4780   64.0530 H   0  0  0  0  0  0  0  0  0  0  0  0
  -35.4098   65.4390   65.3982 H   0  0  0  0  0  0  0  0  0  0  0  0
  -37.4038   64.1711   65.9057 H   0  0  0  0  0  0  0  0  0  0  0  0
  -35.9461   63.1534   65.8115 H   0  0  0  0  0  0  0  0  0  0  0  0
  -36.5905   62.3799   63.6546 H   0  0  0  0  0  0  0  0  0  0  0  0
  -38.0402   63.4095   63.7315 H   0  0  0  0  0  0  0  0  0  0  0  0
  -38.8869   62.1302   65.5540 H   0  0  0  0  0  0  0  0  0  0  0  0
  -37.4302   61.1074   65.4952 H   0  0  0  0  0  0  0  0  0  0  0  0
  -39.4813   61.3205   63.3470 H   0  0  0  0  0  0  0  0  0  0  0  0
  -39.2996   59.9979   64.5244 H   0  0  0  0  0  0  0  0  0  0  0  0
  -37.1624   59.4525   63.6250 H   0  0  0  0  0  0  0  0  0  0  0  0
  -37.3350   60.7879   62.4534 H   0  0  0  0  0  0  0  0  0  0  0  0
  -39.1527   59.6719   61.4007 H   0  0  0  0  0  0  0  0  0  0  0  0
  -39.0059   58.3436   62.5781 H   0  0  0  0  0  0  0  0  0  0  0  0
  -36.8554   57.7790   61.7172 H   0  0  0  0  0  0  0  0  0  0  0  0
  -36.9928   59.1201   60.5460 H   0  0  0  0  0  0  0  0  0  0  0  0
  -38.7962   58.0198   59.4486 H   0  0  0  0  0  0  0  0  0  0  0  0
  -38.6924   56.6890   60.6214 H   0  0  0  0  0  0  0  0  0  0  0  0
  -36.5122   56.1197   59.8227 H   0  0  0  0  0  0  0  0  0  0  0  0
  -36.6181   57.4668   58.6504 H   0  0  0  0  0  0  0  0  0  0  0  0
  -38.3767   56.3709   57.4975 H   0  0  0  0  0  0  0  0  0  0  0  0
  -38.2926   55.0294   58.6764 H   0  0  0  0  0  0  0  0  0  0  0  0
  -37.2716   54.4284   56.5663 H   0  0  0  0  0  0  0  0  0  0  0  0
  -36.1211   54.4567   57.9141 H   0  0  0  0  0  0  0  0  0  0  0  0
  -34.8261   55.8847   56.6722 H   0  0  0  0  0  0  0  0  0  0  0  0
  -35.4850   57.4442   55.1793 H   0  0  0  0  0  0  0  0  0  0  0  0
  -38.2089   56.2757   55.3055 H   0  0  0  0  0  0  0  0  0  0  0  0
  -37.6087   57.5545   54.2252 H   0  0  0  0  0  0  0  0  0  0  0  0
  -37.7496   59.1572   55.9987 H   0  0  0  0  0  0  0  0  0  0  0  0
  -38.3285   57.8841   57.0926 H   0  0  0  0  0  0  0  0  0  0  0  0
  -40.1432   59.2894   56.3298 H   0  0  0  0  0  0  0  0  0  0  0  0
  -40.2894   57.6106   55.7688 H   0  0  0  0  0  0  0  0  0  0  0  0
  -40.9326   59.1766   54.0472 H   0  0  0  0  0  0  0  0  0  0  0  0
  -39.4754   58.2369   53.6258 H   0  0  0  0  0  0  0  0  0  0  0  0
  -39.4975   61.0650   54.5528 H   0  0  0  0  0  0  0  0  0  0  0  0
  -39.2933   60.4914   52.8813 H   0  0  0  0  0  0  0  0  0  0  0  0
  -37.2614   59.3956   53.4761 H   0  0  0  0  0  0  0  0  0  0  0  0
  -37.4704   59.9536   55.1556 H   0  0  0  0  0  0  0  0  0  0  0  0
  -37.2095   62.2178   54.4675 H   0  0  0  0  0  0  0  0  0  0  0  0
  -37.0270   61.6846   52.7870 H   0  0  0  0  0  0  0  0  0  0  0  0
  -35.1581   61.0514   55.0308 H   0  0  0  0  0  0  0  0  0  0  0  0
  -34.8754   62.2097   53.7535 H   0  0  0  0  0  0  0  0  0  0  0  0
  -35.0007   60.5079   53.3776 H   0  0  0  0  0  0  0  0  0  0  0  0
  -30.7515   67.7503   65.3403 H   0  0  0  0  0  0  0  0  0  0  0  0
  -30.7674   69.3839   62.8057 H   0  0  0  0  0  0  0  0  0  0  0  0
  -29.6019   70.1103   65.4990 H   0  0  0  0  0  0  0  0  0  0  0  0
  -31.3342   71.6761   65.7349 H   0  0  0  0  0  0  0  0  0  0  0  0
  -31.8112   69.5117   66.5715 H   0  0  0  0  0  0  0  0  0  0  0  0
  -34.2372   69.4060   66.5014 H   0  0  0  0  0  0  0  0  0  0  0  0
  -33.6613   71.0623   66.6807 H   0  0  0  0  0  0  0  0  0  0  0  0
  1  4  1  0  0  0  0
  1 31  1  0  0  0  0
  1 62  1  0  0  0  0
  2  3  1  0  0  0  0
  2  4  1  0  0  0  0
  2 63  1  0  0  0  0
  2 64  1  0  0  0  0
  3 55  1  0  0  0  0
  4  6  1  0  0  0  0
  4 65  1  6  0  0  0
  5  6  1  0  0  0  0
  5 66  1  0  0  0  0
  6  8  1  0  0  0  0
  6 67  1  6  0  0  0
  7 31  2  0  0  0  0
  8 10  2  0  0  0  0
  8 68  1  0  0  0  0
  9 56  1  0  0  0  0
  9 69  1  0  0  0  0
 10 12  1  0  0  0  0
 10 70  1  0  0  0  0
 11 57  1  0  0  0  0
 11 61  1  0  0  0  0
 12 14  1  0  0  0  0
 12 71  1  0  0  0  0
 12 72  1  0  0  0  0
 13 58  1  0  0  0  0
 13 73  1  0  0  0  0
 14 16  1  0  0  0  0
 14 74  1  0  0  0  0
 14 75  1  0  0  0  0
 15 55  1  0  0  0  0
 15 59  1  0  0  0  0
 16 18  1  0  0  0  0
 16 76  1  0  0  0  0
 16 77  1  0  0  0  0
 17 60  1  0  0  0  0
 17 78  1  0  0  0  0
 18 20  1  0  0  0  0
 18 79  1  0  0  0  0
 18 80  1  0  0  0  0
 19 61  1  0  0  0  0
 19 81  1  0  0  0  0
 20 22  1  0  0  0  0
 20 82  1  0  0  0  0
 20 83  1  0  0  0  0
 21 61  1  0  0  0  0
 22 24  1  0  0  0  0
 22 84  1  0  0  0  0
 22 85  1  0  0  0  0
 23 61  1  0  0  0  0
 23 86  1  0  0  0  0
 24 25  1  0  0  0  0
 24 87  1  0  0  0  0
 24 88  1  0  0  0  0
 25 26  1  0  0  0  0
 25 89  1  0  0  0  0
 25 90  1  0  0  0  0
 26 27  1  0  0  0  0
 26 91  1  0  0  0  0
 26 92  1  0  0  0  0
 27 28  1  0  0  0  0
 27 93  1  0  0  0  0
 27 94  1  0  0  0  0
 28 29  1  0  0  0  0
 28 95  1  0  0  0  0
 28 96  1  0  0  0  0
 29 30  1  0  0  0  0
 29 97  1  0  0  0  0
 29 98  1  0  0  0  0
 30 99  1  0  0  0  0
 30100  1  0  0  0  0
 30101  1  0  0  0  0
 31 32  1  0  0  0  0
 32 33  1  0  0  0  0
 32102  1  0  0  0  0
 32103  1  0  0  0  0
 33 34  1  0  0  0  0
 33104  1  0  0  0  0
 33105  1  0  0  0  0
 34 35  1  0  0  0  0
 34106  1  0  0  0  0
 34107  1  0  0  0  0
 35 36  1  0  0  0  0
 35108  1  0  0  0  0
 35109  1  0  0  0  0
 36 37  1  0  0  0  0
 36110  1  0  0  0  0
 36111  1  0  0  0  0
 37 38  1  0  0  0  0
 37112  1  0  0  0  0
 37113  1  0  0  0  0
 38 39  1  0  0  0  0
 38114  1  0  0  0  0
 38115  1  0  0  0  0
 39 40  1  0  0  0  0
 39116  1  0  0  0  0
 39117  1  0  0  0  0
 40 41  1  0  0  0  0
 40118  1  0  0  0  0
 40119  1  0  0  0  0
 41 42  1  0  0  0  0
 41120  1  0  0  0  0
 41121  1  0  0  0  0
 42 43  1  0  0  0  0
 42122  1  0  0  0  0
 42123  1  0  0  0  0
 43 44  1  0  0  0  0
 43124  1  0  0  0  0
 43125  1  0  0  0  0
 44 45  1  0  0  0  0
 44126  1  0  0  0  0
 44127  1  0  0  0  0
 45 46  2  0  0  0  0
 45128  1  0  0  0  0
 46 47  1  0  0  0  0
 46129  1  0  0  0  0
 47 48  1  0  0  0  0
 47130  1  0  0  0  0
 47131  1  0  0  0  0
 48 49  1  0  0  0  0
 48132  1  0  0  0  0
 48133  1  0  0  0  0
 49 50  1  0  0  0  0
 49134  1  0  0  0  0
 49135  1  0  0  0  0
 50 51  1  0  0  0  0
 50136  1  0  0  0  0
 50137  1  0  0  0  0
 51 52  1  0  0  0  0
 51138  1  0  0  0  0
 51139  1  0  0  0  0
 52 53  1  0  0  0  0
 52140  1  0  0  0  0
 52141  1  0  0  0  0
 53 54  1  0  0  0  0
 53142  1  0  0  0  0
 53143  1  0  0  0  0
 54144  1  0  0  0  0
 54145  1  0  0  0  0
 54146  1  0  0  0  0
 55 56  1  0  0  0  0
 55147  1  1  0  0  0
 56 57  1  0  0  0  0
 56148  1  6  0  0  0
 57 58  1  0  0  0  0
 57149  1  1  0  0  0
 58 59  1  0  0  0  0
 58150  1  1  0  0  0
 59 60  1  0  0  0  0
 59151  1  1  0  0  0
 60152  1  0  0  0  0
 60153  1  0  0  0  0
M  CHG  1  21  -1
M  END
$$$$
/media/chris/experiments/cd1a-new-docking/inputs/ligands/7ryn_ligand.pdb
 OpenBabel07032312553D

153153  0  0  1  0  0  0  0  0999 V2000
  -33.0340   65.1330   62.2120 N   0  0  0  0  0  0  0  0  0  0  0  0
  -32.0220   67.3480   62.3220 C   0  0  0  0  0  0  0  0  0  0  0  0
  -31.1969   68.2589   61.5870 O   0  0  0  0  0  0  0  0  0  0  0  0
  -32.1830   66.0840   61.5030 C   0  0  1  0  0  0  0  0  0  0  0  0
  -30.2154   65.0225   62.4176 O   0  0  0  0  0  0  0  0  0  0  0  0
  -30.8310   65.4230   61.1900 C   0  0  2  0  0  0  0  0  0  0  0  0
  -33.8904   64.1653   60.3686 O   0  0  0  0  0  0  0  0  0  0  0  0
  -29.9369   66.3439   60.4177 C   0  0  0  0  0  0  0  0  0  0  0  0
  -32.9308   70.4319   61.2513 O   0  0  0  0  0  0  0  0  0  0  0  0
  -29.4494   66.0973   59.2179 C   0  0  0  0  0  0  0  0  0  0  0  0
  -33.4310   71.8685   63.6467 O   0  0  0  0  0  0  0  0  0  0  0  0
  -28.5714   67.0436   58.4666 C   0  0  0  0  0  0  0  0  0  0  0  0
  -32.0199   70.3807   65.4572 O   0  0  0  0  0  0  0  0  0  0  0  0
  -29.4001   67.9862   57.5915 C   0  0  0  0  0  0  0  0  0  0  0  0
  -30.2839   69.2401   63.4665 O   0  0  0  0  0  0  0  0  0  0  0  0
  -30.3745   68.8593   58.3654 C   0  0  0  0  0  0  0  0  0  0  0  0
  -29.8754   69.1472   66.2254 O   0  0  0  0  0  0  0  0  0  0  0  0
  -31.2103   69.7840   57.4969 C   0  0  0  0  0  0  0  0  0  0  0  0
  -34.9849   73.3767   64.7040 O   0  0  0  0  0  0  0  0  0  0  0  0
  -32.1714   70.6669   58.2796 C   0  0  0  0  0  0  0  0  0  0  0  0
  -32.7374   74.1926   63.9306 O   0  5  0  0  0  0  0  0  0  0  0  0
  -31.4809   71.5996   59.2628 C   0  0  0  0  0  0  0  0  0  0  0  0
  -32.9709   72.7578   65.8076 O   0  0  0  0  0  0  0  0  0  0  0  0
  -32.4393   72.4696   60.0570 C   0  0  0  0  0  0  0  0  0  0  0  0
  -31.7563   73.4147   61.0279 C   0  0  0  0  0  0  0  0  0  0  0  0
  -32.7186   74.2713   61.8328 C   0  0  0  0  0  0  0  0  0  0  0  0
  -33.6053   75.1439   60.9640 C   0  0  0  0  0  0  0  0  0  0  0  0
  -34.5673   76.0253   61.7373 C   0  0  0  0  0  0  0  0  0  0  0  0
  -35.4442   76.8663   60.8304 C   0  0  0  0  0  0  0  0  0  0  0  0
  -34.6394   77.7821   59.9314 C   0  0  0  0  0  0  0  0  0  0  0  0
  -33.8200   64.2493   61.5913 C   0  0  0  0  0  0  0  0  0  0  0  0
  -34.6214   63.3431   62.4924 C   0  0  0  0  0  0  0  0  0  0  0  0
  -33.8835   62.0543   62.8317 C   0  0  0  0  0  0  0  0  0  0  0  0
  -34.6957   61.1314   63.7260 C   0  0  0  0  0  0  0  0  0  0  0  0
  -33.9785   59.8438   64.0959 C   0  0  0  0  0  0  0  0  0  0  0  0
  -34.7991   58.9137   64.9769 C   0  0  0  0  0  0  0  0  0  0  0  0
  -36.1008   58.4447   64.3396 C   0  0  0  0  0  0  0  0  0  0  0  0
  -36.9284   57.5272   65.2305 C   0  0  0  0  0  0  0  0  0  0  0  0
  -36.2163   56.2456   65.6556 C   0  0  0  0  0  0  0  0  0  0  0  0
  -37.0625   55.3260   66.5347 C   0  0  0  0  0  0  0  0  0  0  0  0
  -36.3569   54.0462   66.9826 C   0  0  0  0  0  0  0  0  0  0  0  0
  -35.8930   53.1680   65.8203 C   0  0  0  0  0  0  0  0  0  0  0  0
  -34.8886   53.8248   64.8735 C   0  0  0  0  0  0  0  0  0  0  0  0
  -33.5715   54.2527   65.5263 C   0  0  0  0  0  0  0  0  0  0  0  0
  -32.8155   53.1013   66.1238 C   0  0  0  0  0  0  0  0  0  0  0  0
  -32.3577   52.0479   65.4708 C   0  0  0  0  0  0  0  0  0  0  0  0
  -32.4984   51.7919   64.0009 C   0  0  0  0  0  0  0  0  0  0  0  0
  -31.8748   50.4712   63.5446 C   0  0  0  0  0  0  0  0  0  0  0  0
  -32.4966   49.2503   64.2092 C   0  0  0  0  0  0  0  0  0  0  0  0
  -32.3797   49.2636   65.7292 C   0  0  0  0  0  0  0  0  0  0  0  0
  -32.9795   48.0439   66.4193 C   0  0  0  0  0  0  0  0  0  0  0  0
  -32.8690   48.0821   67.9370 C   0  0  0  0  0  0  0  0  0  0  0  0
  -31.4423   48.1707   68.4550 C   0  0  0  0  0  0  0  0  0  0  0  0
  -31.3648   48.1898   69.9681 C   0  0  0  0  0  0  0  0  0  0  0  0
  -30.9530   69.4703   62.2406 C   0  0  2  0  0  0  0  0  0  0  0  0
  -32.2933   70.1495   62.4906 C   0  0  1  0  0  0  0  0  0  0  0  0
  -32.0829   71.4352   63.2803 C   0  0  2  0  0  0  0  0  0  0  0  0
  -31.2728   71.1754   64.5419 C   0  0  2  0  0  0  0  0  0  0  0  0
  -29.9796   70.4491   64.1802 C   0  0  1  0  0  0  0  0  0  0  0  0
  -29.1637   70.0508   65.3877 C   0  0  0  0  0  0  0  0  0  0  0  0
  -33.5968   73.2117   64.4786 S   0  0  0  0  0  0  0  0  0  0  0  0
  -33.0282   65.1436   63.1964 H   0  0  0  0  0  0  0  0  0  0  0  0
  -32.9806   67.7896   62.4978 H   0  0  0  0  0  0  0  0  0  0  0  0
  -31.5704   67.1208   63.2650 H   0  0  0  0  0  0  0  0  0  0  0  0
  -32.6374   66.3625   60.5752 H   0  0  0  0  0  0  0  0  0  0  0  0
  -30.8116   64.4280   62.8994 H   0  0  0  0  0  0  0  0  0  0  0  0
  -30.9971   64.5628   60.5757 H   0  0  0  0  0  0  0  0  0  0  0  0
  -29.6826   67.2413   60.8593 H   0  0  0  0  0  0  0  0  0  0  0  0
  -33.0591   69.6065   60.7582 H   0  0  0  0  0  0  0  0  0  0  0  0
  -29.6884   65.1980   58.7717 H   0  0  0  0  0  0  0  0  0  0  0  0
  -27.9058   66.4832   57.8438 H   0  0  0  0  0  0  0  0  0  0  0  0
  -28.0213   67.6303   59.1723 H   0  0  0  0  0  0  0  0  0  0  0  0
  -32.8421   70.8405   65.6883 H   0  0  0  0  0  0  0  0  0  0  0  0
  -29.9587   67.3947   56.8965 H   0  0  0  0  0  0  0  0  0  0  0  0
  -28.7091   68.6474   57.1117 H   0  0  0  0  0  0  0  0  0  0  0  0
  -29.8146   69.4595   59.0518 H   0  0  0  0  0  0  0  0  0  0  0  0
  -31.0580   68.1969   58.8543 H   0  0  0  0  0  0  0  0  0  0  0  0
  -29.3250   68.9123   66.9889 H   0  0  0  0  0  0  0  0  0  0  0  0
  -31.7808   69.1843   56.8188 H   0  0  0  0  0  0  0  0  0  0  0  0
  -30.5282   70.4378   56.9949 H   0  0  0  0  0  0  0  0  0  0  0  0
  -35.4139   73.6640   63.8828 H   0  0  0  0  0  0  0  0  0  0  0  0
  -32.8413   70.0362   58.8257 H   0  0  0  0  0  0  0  0  0  0  0  0
  -32.6801   71.2833   57.5681 H   0  0  0  0  0  0  0  0  0  0  0  0
  -30.8201   72.2384   58.7150 H   0  0  0  0  0  0  0  0  0  0  0  0
  -30.9629   70.9826   59.9670 H   0  0  0  0  0  0  0  0  0  0  0  0
  -33.5340   72.0818   66.2160 H   0  0  0  0  0  0  0  0  0  0  0  0
  -33.0919   71.8297   60.6134 H   0  0  0  0  0  0  0  0  0  0  0  0
  -32.9628   73.0783   59.3496 H   0  0  0  0  0  0  0  0  0  0  0  0
  -31.1131   74.0633   60.4707 H   0  0  0  0  0  0  0  0  0  0  0  0
  -31.2211   72.8076   61.7278 H   0  0  0  0  0  0  0  0  0  0  0  0
  -32.1504   74.9033   62.4829 H   0  0  0  0  0  0  0  0  0  0  0  0
  -33.3577   73.6085   62.3778 H   0  0  0  0  0  0  0  0  0  0  0  0
  -34.1772   74.5063   60.3227 H   0  0  0  0  0  0  0  0  0  0  0  0
  -32.9543   75.8009   60.4259 H   0  0  0  0  0  0  0  0  0  0  0  0
  -34.0019   76.6781   62.3690 H   0  0  0  0  0  0  0  0  0  0  0  0
  -35.2088   75.3846   62.3055 H   0  0  0  0  0  0  0  0  0  0  0  0
  -36.0919   77.4638   61.4373 H   0  0  0  0  0  0  0  0  0  0  0  0
  -35.9973   76.1990   60.2030 H   0  0  0  0  0  0  0  0  0  0  0  0
  -34.0734   78.4637   60.5314 H   0  0  0  0  0  0  0  0  0  0  0  0
  -35.3027   78.3317   59.2967 H   0  0  0  0  0  0  0  0  0  0  0  0
  -33.9738   77.1978   59.3311 H   0  0  0  0  0  0  0  0  0  0  0  0
  -35.5383   63.0939   62.0003 H   0  0  0  0  0  0  0  0  0  0  0  0
  -34.7957   63.8680   63.4084 H   0  0  0  0  0  0  0  0  0  0  0  0
  -32.9725   62.3037   63.3345 H   0  0  0  0  0  0  0  0  0  0  0  0
  -33.6997   61.5358   61.9140 H   0  0  0  0  0  0  0  0  0  0  0  0
  -35.6009   60.8779   63.2148 H   0  0  0  0  0  0  0  0  0  0  0  0
  -34.8736   61.6609   64.6386 H   0  0  0  0  0  0  0  0  0  0  0  0
  -33.0795   60.0967   64.6182 H   0  0  0  0  0  0  0  0  0  0  0  0
  -33.7887   59.3199   63.1824 H   0  0  0  0  0  0  0  0  0  0  0  0
  -35.0355   59.4306   65.8834 H   0  0  0  0  0  0  0  0  0  0  0  0
  -34.2039   58.0403   65.1437 H   0  0  0  0  0  0  0  0  0  0  0  0
  -35.8642   57.9166   63.4395 H   0  0  0  0  0  0  0  0  0  0  0  0
  -36.6913   59.3186   64.1598 H   0  0  0  0  0  0  0  0  0  0  0  0
  -37.8156   57.2554   64.6977 H   0  0  0  0  0  0  0  0  0  0  0  0
  -37.1298   58.0749   66.1273 H   0  0  0  0  0  0  0  0  0  0  0  0
  -35.3357   56.5150   66.2005 H   0  0  0  0  0  0  0  0  0  0  0  0
  -35.9971   55.7020   64.7604 H   0  0  0  0  0  0  0  0  0  0  0  0
  -37.9369   55.0495   65.9835 H   0  0  0  0  0  0  0  0  0  0  0  0
  -37.2837   55.8772   67.4247 H   0  0  0  0  0  0  0  0  0  0  0  0
  -37.0344   53.4793   67.5863 H   0  0  0  0  0  0  0  0  0  0  0  0
  -35.4820   54.3414   67.5232 H   0  0  0  0  0  0  0  0  0  0  0  0
  -36.7546   52.8908   65.2496 H   0  0  0  0  0  0  0  0  0  0  0  0
  -35.3874   52.3337   66.2599 H   0  0  0  0  0  0  0  0  0  0  0  0
  -35.3485   54.6942   64.4522 H   0  0  0  0  0  0  0  0  0  0  0  0
  -34.6351   53.0839   64.1443 H   0  0  0  0  0  0  0  0  0  0  0  0
  -33.7876   54.9584   66.3010 H   0  0  0  0  0  0  0  0  0  0  0  0
  -32.9567   54.6783   64.7609 H   0  0  0  0  0  0  0  0  0  0  0  0
  -32.6369   53.1360   67.1397 H   0  0  0  0  0  0  0  0  0  0  0  0
  -31.8567   51.3353   66.0243 H   0  0  0  0  0  0  0  0  0  0  0  0
  -32.0227   52.5910   63.4717 H   0  0  0  0  0  0  0  0  0  0  0  0
  -33.5463   51.7316   63.7927 H   0  0  0  0  0  0  0  0  0  0  0  0
  -30.8307   50.4901   63.7779 H   0  0  0  0  0  0  0  0  0  0  0  0
  -32.0512   50.3840   62.4928 H   0  0  0  0  0  0  0  0  0  0  0  0
  -32.0050   48.3750   63.8388 H   0  0  0  0  0  0  0  0  0  0  0  0
  -33.5401   49.2585   63.9724 H   0  0  0  0  0  0  0  0  0  0  0  0
  -32.8809   50.1352   66.0955 H   0  0  0  0  0  0  0  0  0  0  0  0
  -31.3337   49.2574   65.9544 H   0  0  0  0  0  0  0  0  0  0  0  0
  -32.4707   47.1716   66.0656 H   0  0  0  0  0  0  0  0  0  0  0  0
  -34.0229   48.0327   66.1823 H   0  0  0  0  0  0  0  0  0  0  0  0
  -33.3136   47.1911   68.3285 H   0  0  0  0  0  0  0  0  0  0  0  0
  -33.3695   48.9710   68.2598 H   0  0  0  0  0  0  0  0  0  0  0  0
  -30.9976   49.0684   68.0789 H   0  0  0  0  0  0  0  0  0  0  0  0
  -30.9233   47.2979   68.1178 H   0  0  0  0  0  0  0  0  0  0  0  0
  -31.8758   49.0530   70.3405 H   0  0  0  0  0  0  0  0  0  0  0  0
  -30.3395   48.2234   70.2724 H   0  0  0  0  0  0  0  0  0  0  0  0
  -31.8244   47.3066   70.3600 H   0  0  0  0  0  0  0  0  0  0  0  0
  -30.3291   70.0960   61.6371 H   0  0  0  0  0  0  0  0  0  0  0  0
  -32.9193   69.4938   63.0591 H   0  0  0  0  0  0  0  0  0  0  0  0
  -31.5471   72.1651   62.7102 H   0  0  0  0  0  0  0  0  0  0  0  0
  -31.0444   72.1140   65.0021 H   0  0  0  0  0  0  0  0  0  0  0  0
  -29.4118   71.1378   63.5901 H   0  0  0  0  0  0  0  0  0  0  0  0
  -28.2611   69.5805   65.0573 H   0  0  0  0  0  0  0  0  0  0  0  0
  -28.9495   70.9336   65.9532 H   0  0  0  0  0  0  0  0  0  0  0  0
  1  4  1  0  0  0  0
  1 31  1  0  0  0  0
  1 62  1  0  0  0  0
  2  3  1  0  0  0  0
  2  4  1  0  0  0  0
  2 63  1  0  0  0  0
  2 64  1  0  0  0  0
  3 55  1  0  0  0  0
  4  6  1  0  0  0  0
  4 65  1  6  0  0  0
  5  6  1  0  0  0  0
  5 66  1  0  0  0  0
  6  8  1  0  0  0  0
  6 67  1  6  0  0  0
  7 31  2  0  0  0  0
  8 10  2  0  0  0  0
  8 68  1  0  0  0  0
  9 56  1  0  0  0  0
  9 69  1  0  0  0  0
 10 12  1  0  0  0  0
 10 70  1  0  0  0  0
 11 57  1  0  0  0  0
 11 61  1  0  0  0  0
 12 14  1  0  0  0  0
 12 71  1  0  0  0  0
 12 72  1  0  0  0  0
 13 58  1  0  0  0  0
 13 73  1  0  0  0  0
 14 16  1  0  0  0  0
 14 74  1  0  0  0  0
 14 75  1  0  0  0  0
 15 55  1  0  0  0  0
 15 59  1  0  0  0  0
 16 18  1  0  0  0  0
 16 76  1  0  0  0  0
 16 77  1  0  0  0  0
 17 60  1  0  0  0  0
 17 78  1  0  0  0  0
 18 20  1  0  0  0  0
 18 79  1  0  0  0  0
 18 80  1  0  0  0  0
 19 61  1  0  0  0  0
 19 81  1  0  0  0  0
 20 22  1  0  0  0  0
 20 82  1  0  0  0  0
 20 83  1  0  0  0  0
 21 61  1  0  0  0  0
 22 24  1  0  0  0  0
 22 84  1  0  0  0  0
 22 85  1  0  0  0  0
 23 61  1  0  0  0  0
 23 86  1  0  0  0  0
 24 25  1  0  0  0  0
 24 87  1  0  0  0  0
 24 88  1  0  0  0  0
 25 26  1  0  0  0  0
 25 89  1  0  0  0  0
 25 90  1  0  0  0  0
 26 27  1  0  0  0  0
 26 91  1  0  0  0  0
 26 92  1  0  0  0  0
 27 28  1  0  0  0  0
 27 93  1  0  0  0  0
 27 94  1  0  0  0  0
 28 29  1  0  0  0  0
 28 95  1  0  0  0  0
 28 96  1  0  0  0  0
 29 30  1  0  0  0  0
 29 97  1  0  0  0  0
 29 98  1  0  0  0  0
 30 99  1  0  0  0  0
 30100  1  0  0  0  0
 30101  1  0  0  0  0
 31 32  1  0  0  0  0
 32 33  1  0  0  0  0
 32102  1  0  0  0  0
 32103  1  0  0  0  0
 33 34  1  0  0  0  0
 33104  1  0  0  0  0
 33105  1  0  0  0  0
 34 35  1  0  0  0  0
 34106  1  0  0  0  0
 34107  1  0  0  0  0
 35 36  1  0  0  0  0
 35108  1  0  0  0  0
 35109  1  0  0  0  0
 36 37  1  0  0  0  0
 36110  1  0  0  0  0
 36111  1  0  0  0  0
 37 38  1  0  0  0  0
 37112  1  0  0  0  0
 37113  1  0  0  0  0
 38 39  1  0  0  0  0
 38114  1  0  0  0  0
 38115  1  0  0  0  0
 39 40  1  0  0  0  0
 39116  1  0  0  0  0
 39117  1  0  0  0  0
 40 41  1  0  0  0  0
 40118  1  0  0  0  0
 40119  1  0  0  0  0
 41 42  1  0  0  0  0
 41120  1  0  0  0  0
 41121  1  0  0  0  0
 42 43  1  0  0  0  0
 42122  1  0  0  0  0
 42123  1  0  0  0  0
 43 44  1  0  0  0  0
 43124  1  0  0  0  0
 43125  1  0  0  0  0
 44 45  1  0  0  0  0
 44126  1  0  0  0  0
 44127  1  0  0  0  0
 45 46  2  0  0  0  0
 45128  1  0  0  0  0
 46 47  1  0  0  0  0
 46129  1  0  0  0  0
 47 48  1  0  0  0  0
 47130  1  0  0  0  0
 47131  1  0  0  0  0
 48 49  1  0  0  0  0
 48132  1  0  0  0  0
 48133  1  0  0  0  0
 49 50  1  0  0  0  0
 49134  1  0  0  0  0
 49135  1  0  0  0  0
 50 51  1  0  0  0  0
 50136  1  0  0  0  0
 50137  1  0  0  0  0
 51 52  1  0  0  0  0
 51138  1  0  0  0  0
 51139  1  0  0  0  0
 52 53  1  0  0  0  0
 52140  1  0  0  0  0
 52141  1  0  0  0  0
 53 54  1  0  0  0  0
 53142  1  0  0  0  0
 53143  1  0  0  0  0
 54144  1  0  0  0  0
 54145  1  0  0  0  0
 54146  1  0  0  0  0
 55 56  1  0  0  0  0
 55147  1  6  0  0  0
 56 57  1  0  0  0  0
 56148  1  1  0  0  0
 57 58  1  0  0  0  0
 57149  1  6  0  0  0
 58 59  1  0  0  0  0
 58150  1  1  0  0  0
 59 60  1  0  0  0  0
 59151  1  6  0  0  0
 60152  1  0  0  0  0
 60153  1  0  0  0  0
M  CHG  1  21  -1
M  END
$$$$
/media/chris/experiments/cd1a-new-docking/inputs/ligands/7ryn_ligand.pdb
 OpenBabel07032312553D

153153  0  0  1  0  0  0  0  0999 V2000
  -33.0340   65.1330   62.2120 N   0  0  0  0  0  0  0  0  0  0  0  0
  -32.0220   67.3480   62.3220 C   0  0  0  0  0  0  0  0  0  0  0  0
  -31.1969   68.2589   61.5870 O   0  0  0  0  0  0  0  0  0  0  0  0
  -32.1830   66.0840   61.5030 C   0  0  1  0  0  0  0  0  0  0  0  0
  -29.9992   66.3678   60.5104 O   0  0  0  0  0  0  0  0  0  0  0  0
  -30.8310   65.4230   61.1900 C   0  0  2  0  0  0  0  0  0  0  0  0
  -34.2576   66.6787   63.2990 O   0  0  0  0  0  0  0  0  0  0  0  0
  -31.0055   64.1786   60.3744 C   0  0  0  0  0  0  0  0  0  0  0  0
  -28.8256   69.6743   61.1237 O   0  0  0  0  0  0  0  0  0  0  0  0
  -30.2096   63.1284   60.4144 C   0  0  0  0  0  0  0  0  0  0  0  0
  -29.1955   72.4811   60.9310 O   0  0  0  0  0  0  0  0  0  0  0  0
  -30.4192   61.8950   59.5986 C   0  0  0  0  0  0  0  0  0  0  0  0
  -31.9137   72.6716   61.1716 O   0  0  0  0  0  0  0  0  0  0  0  0
  -31.6680   62.0196   58.7235 C   0  0  0  0  0  0  0  0  0  0  0  0
  -32.1725   70.1372   62.5085 O   0  0  0  0  0  0  0  0  0  0  0  0
  -31.9583   60.7931   57.8737 C   0  0  0  0  0  0  0  0  0  0  0  0
  -33.3185   73.1515   64.2067 O   0  0  0  0  0  0  0  0  0  0  0  0
  -33.1884   60.9213   56.9915 C   0  0  0  0  0  0  0  0  0  0  0  0
  -28.2009   74.5050   60.0814 O   0  0  0  0  0  0  0  0  0  0  0  0
  -34.4763   61.1808   57.7594 C   0  0  0  0  0  0  0  0  0  0  0  0
  -28.2208   74.0289   62.5489 O   0  5  0  0  0  0  0  0  0  0  0  0
  -34.8164   60.0934   58.7669 C   0  0  0  0  0  0  0  0  0  0  0  0
  -30.2001   74.5960   61.3668 O   0  0  0  0  0  0  0  0  0  0  0  0
  -34.9852   58.7170   58.1479 C   0  0  0  0  0  0  0  0  0  0  0  0
  -35.3413   57.6302   59.1451 C   0  0  0  0  0  0  0  0  0  0  0  0
  -36.6514   57.8704   59.8755 C   0  0  0  0  0  0  0  0  0  0  0  0
  -37.8462   57.9428   58.9429 C   0  0  0  0  0  0  0  0  0  0  0  0
  -38.0894   56.6808   58.1376 C   0  0  0  0  0  0  0  0  0  0  0  0
  -38.3598   55.4735   59.0139 C   0  0  0  0  0  0  0  0  0  0  0  0
  -39.5898   55.6492   59.8804 C   0  0  0  0  0  0  0  0  0  0  0  0
  -34.0033   65.5031   63.0532 C   0  0  0  0  0  0  0  0  0  0  0  0
  -34.7826   64.3775   63.6864 C   0  0  0  0  0  0  0  0  0  0  0  0
  -34.3013   63.0053   63.2326 C   0  0  0  0  0  0  0  0  0  0  0  0
  -32.8464   62.7463   63.5898 C   0  0  0  0  0  0  0  0  0  0  0  0
  -32.5621   62.7848   65.0821 C   0  0  0  0  0  0  0  0  0  0  0  0
  -33.3331   61.7458   65.8823 C   0  0  0  0  0  0  0  0  0  0  0  0
  -33.0314   60.3069   65.4831 C   0  0  0  0  0  0  0  0  0  0  0  0
  -31.5724   59.9090   65.6658 C   0  0  0  0  0  0  0  0  0  0  0  0
  -31.2504   58.4747   65.2540 C   0  0  0  0  0  0  0  0  0  0  0  0
  -32.0424   57.4153   66.0186 C   0  0  0  0  0  0  0  0  0  0  0  0
  -31.7185   55.9731   65.6291 C   0  0  0  0  0  0  0  0  0  0  0  0
  -32.5377   54.9362   66.3978 C   0  0  0  0  0  0  0  0  0  0  0  0
  -32.3722   54.9772   67.9168 C   0  0  0  0  0  0  0  0  0  0  0  0
  -30.9411   54.7609   68.4159 C   0  0  0  0  0  0  0  0  0  0  0  0
  -30.3691   53.4391   67.9919 C   0  0  0  0  0  0  0  0  0  0  0  0
  -29.4773   52.7272   68.6580 C   0  0  0  0  0  0  0  0  0  0  0  0
  -28.8593   53.0949   69.9729 C   0  0  0  0  0  0  0  0  0  0  0  0
  -29.7684   53.9453   70.8628 C   0  0  0  0  0  0  0  0  0  0  0  0
  -29.1254   54.3282   72.1892 C   0  0  0  0  0  0  0  0  0  0  0  0
  -30.0357   55.1612   73.0845 C   0  0  0  0  0  0  0  0  0  0  0  0
  -29.4103   55.5727   74.4124 C   0  0  0  0  0  0  0  0  0  0  0  0
  -28.1606   56.4287   74.2621 C   0  0  0  0  0  0  0  0  0  0  0  0
  -27.5193   56.8305   75.5808 C   0  0  0  0  0  0  0  0  0  0  0  0
  -27.0704   55.6406   76.4046 C   0  0  0  0  0  0  0  0  0  0  0  0
  -30.9530   69.4703   62.2406 C   0  0  2  0  0  0  0  0  0  0  0  0
  -30.0721   70.3242   61.3379 C   0  0  1  0  0  0  0  0  0  0  0  0
  -29.8516   71.6915   61.9728 C   0  0  2  0  0  0  0  0  0  0  0  0
  -31.1762   72.3417   62.3441 C   0  0  2  0  0  0  0  0  0  0  0  0
  -31.9954   71.3819   63.2035 C   0  0  1  0  0  0  0  0  0  0  0  0
  -33.3762   71.9033   63.5259 C   0  0  0  0  0  0  0  0  0  0  0  0
  -28.7943   73.9833   61.2565 S   0  0  0  0  0  0  0  0  0  0  0  0
  -32.8861   64.1712   62.0627 H   0  0  0  0  0  0  0  0  0  0  0  0
  -32.9806   67.7896   62.4978 H   0  0  0  0  0  0  0  0  0  0  0  0
  -31.5704   67.1208   63.2650 H   0  0  0  0  0  0  0  0  0  0  0  0
  -32.6374   66.3625   60.5752 H   0  0  0  0  0  0  0  0  0  0  0  0
  -29.9008   67.1635   61.0564 H   0  0  0  0  0  0  0  0  0  0  0  0
  -30.3647   65.1308   62.1077 H   0  0  0  0  0  0  0  0  0  0  0  0
  -31.8115   64.1406   59.7311 H   0  0  0  0  0  0  0  0  0  0  0  0
  -28.9790   68.8059   60.7197 H   0  0  0  0  0  0  0  0  0  0  0  0
  -29.3943   63.1604   61.0462 H   0  0  0  0  0  0  0  0  0  0  0  0
  -30.5341   61.0574   60.2545 H   0  0  0  0  0  0  0  0  0  0  0  0
  -29.5698   61.7599   58.9620 H   0  0  0  0  0  0  0  0  0  0  0  0
  -31.3948   73.2814   60.6241 H   0  0  0  0  0  0  0  0  0  0  0  0
  -31.5379   62.8571   58.0704 H   0  0  0  0  0  0  0  0  0  0  0  0
  -32.4986   62.1370   59.3878 H   0  0  0  0  0  0  0  0  0  0  0  0
  -32.1004   59.9582   58.5277 H   0  0  0  0  0  0  0  0  0  0  0  0
  -31.1220   60.6696   57.2178 H   0  0  0  0  0  0  0  0  0  0  0  0
  -34.2189   73.4572   64.3982 H   0  0  0  0  0  0  0  0  0  0  0  0
  -33.3030   60.0117   56.4398 H   0  0  0  0  0  0  0  0  0  0  0  0
  -33.0287   61.7694   56.3589 H   0  0  0  0  0  0  0  0  0  0  0  0
  -27.3087   74.1382   59.9795 H   0  0  0  0  0  0  0  0  0  0  0  0
  -35.2799   61.2537   57.0566 H   0  0  0  0  0  0  0  0  0  0  0  0
  -34.3342   62.0860   58.3119 H   0  0  0  0  0  0  0  0  0  0  0  0
  -35.7313   60.3589   59.2541 H   0  0  0  0  0  0  0  0  0  0  0  0
  -33.9936   60.0305   59.4480 H   0  0  0  0  0  0  0  0  0  0  0  0
  -30.6278   74.5827   60.4963 H   0  0  0  0  0  0  0  0  0  0  0  0
  -34.0660   58.4477   57.6711 H   0  0  0  0  0  0  0  0  0  0  0  0
  -35.8021   58.7853   57.4603 H   0  0  0  0  0  0  0  0  0  0  0  0
  -34.5574   57.5687   59.8708 H   0  0  0  0  0  0  0  0  0  0  0  0
  -35.4577   56.7238   58.5884 H   0  0  0  0  0  0  0  0  0  0  0  0
  -36.5794   58.7948   60.4095 H   0  0  0  0  0  0  0  0  0  0  0  0
  -36.8082   57.0405   60.5324 H   0  0  0  0  0  0  0  0  0  0  0  0
  -37.6889   58.7509   58.2594 H   0  0  0  0  0  0  0  0  0  0  0  0
  -38.7084   58.0815   59.5612 H   0  0  0  0  0  0  0  0  0  0  0  0
  -37.2241   56.4835   57.5399 H   0  0  0  0  0  0  0  0  0  0  0  0
  -38.9573   56.8438   57.5334 H   0  0  0  0  0  0  0  0  0  0  0  0
  -37.5132   55.3136   59.6484 H   0  0  0  0  0  0  0  0  0  0  0  0
  -38.5327   54.6367   58.3700 H   0  0  0  0  0  0  0  0  0  0  0  0
  -39.4471   56.4814   60.5377 H   0  0  0  0  0  0  0  0  0  0  0  0
  -39.7493   54.7623   60.4573 H   0  0  0  0  0  0  0  0  0  0  0  0
  -40.4418   55.8280   59.2582 H   0  0  0  0  0  0  0  0  0  0  0  0
  -35.8140   64.4836   63.4224 H   0  0  0  0  0  0  0  0  0  0  0  0
  -34.6384   64.4382   64.7449 H   0  0  0  0  0  0  0  0  0  0  0  0
  -34.4101   62.9383   62.1703 H   0  0  0  0  0  0  0  0  0  0  0  0
  -34.8937   62.2714   63.7380 H   0  0  0  0  0  0  0  0  0  0  0  0
  -32.2447   63.4916   63.1129 H   0  0  0  0  0  0  0  0  0  0  0  0
  -32.6161   61.7564   63.2553 H   0  0  0  0  0  0  0  0  0  0  0  0
  -32.8227   63.7552   65.4500 H   0  0  0  0  0  0  0  0  0  0  0  0
  -31.5224   62.5646   65.2065 H   0  0  0  0  0  0  0  0  0  0  0  0
  -34.3792   61.9215   65.7422 H   0  0  0  0  0  0  0  0  0  0  0  0
  -33.0301   61.8538   66.9029 H   0  0  0  0  0  0  0  0  0  0  0  0
  -33.2879   60.1825   64.4518 H   0  0  0  0  0  0  0  0  0  0  0  0
  -33.6082   59.6779   66.1285 H   0  0  0  0  0  0  0  0  0  0  0  0
  -31.3217   60.0240   66.6996 H   0  0  0  0  0  0  0  0  0  0  0  0
  -31.0009   60.5454   65.0230 H   0  0  0  0  0  0  0  0  0  0  0  0
  -30.2080   58.3023   65.4227 H   0  0  0  0  0  0  0  0  0  0  0  0
  -31.5225   58.3803   64.2235 H   0  0  0  0  0  0  0  0  0  0  0  0
  -33.0838   57.5834   65.8394 H   0  0  0  0  0  0  0  0  0  0  0  0
  -31.7712   57.5190   67.0485 H   0  0  0  0  0  0  0  0  0  0  0  0
  -30.6810   55.7952   65.8209 H   0  0  0  0  0  0  0  0  0  0  0  0
  -31.9639   55.8638   64.5934 H   0  0  0  0  0  0  0  0  0  0  0  0
  -32.2451   53.9645   66.0584 H   0  0  0  0  0  0  0  0  0  0  0  0
  -33.5650   55.1634   66.2032 H   0  0  0  0  0  0  0  0  0  0  0  0
  -32.9906   54.2129   68.3392 H   0  0  0  0  0  0  0  0  0  0  0  0
  -32.6504   55.9643   68.2222 H   0  0  0  0  0  0  0  0  0  0  0  0
  -30.9417   54.8058   69.4850 H   0  0  0  0  0  0  0  0  0  0  0  0
  -30.3313   55.5279   67.9860 H   0  0  0  0  0  0  0  0  0  0  0  0
  -30.7038   53.0502   67.0965 H   0  0  0  0  0  0  0  0  0  0  0  0
  -29.1786   51.8352   68.2335 H   0  0  0  0  0  0  0  0  0  0  0  0
  -27.9619   53.6457   69.7822 H   0  0  0  0  0  0  0  0  0  0  0  0
  -28.6734   52.1812   70.4978 H   0  0  0  0  0  0  0  0  0  0  0  0
  -30.6606   53.3906   71.0654 H   0  0  0  0  0  0  0  0  0  0  0  0
  -29.9697   54.8536   70.3342 H   0  0  0  0  0  0  0  0  0  0  0  0
  -28.2397   54.8933   71.9863 H   0  0  0  0  0  0  0  0  0  0  0  0
  -28.9138   53.4189   72.7120 H   0  0  0  0  0  0  0  0  0  0  0  0
  -30.9153   54.5884   73.2925 H   0  0  0  0  0  0  0  0  0  0  0  0
  -30.2424   56.0658   72.5517 H   0  0  0  0  0  0  0  0  0  0  0  0
  -29.1494   54.6862   74.9518 H   0  0  0  0  0  0  0  0  0  0  0  0
  -30.1355   56.1666   74.9284 H   0  0  0  0  0  0  0  0  0  0  0  0
  -28.4258   57.3198   73.7325 H   0  0  0  0  0  0  0  0  0  0  0  0
  -27.4414   55.8343   73.7385 H   0  0  0  0  0  0  0  0  0  0  0  0
  -28.2312   57.3908   76.1501 H   0  0  0  0  0  0  0  0  0  0  0  0
  -26.6489   57.4092   75.3516 H   0  0  0  0  0  0  0  0  0  0  0  0
  -27.9190   55.0379   76.6524 H   0  0  0  0  0  0  0  0  0  0  0  0
  -26.6028   55.9850   77.3033 H   0  0  0  0  0  0  0  0  0  0  0  0
  -26.3724   55.0587   75.8397 H   0  0  0  0  0  0  0  0  0  0  0  0
  -30.4622   69.2932   63.1747 H   0  0  0  0  0  0  0  0  0  0  0  0
  -30.5589   70.4564   60.3943 H   0  0  0  0  0  0  0  0  0  0  0  0
  -29.2758   71.6206   62.8719 H   0  0  0  0  0  0  0  0  0  0  0  0
  -30.9761   73.2382   62.8929 H   0  0  0  0  0  0  0  0  0  0  0  0
  -31.4476   71.2644   64.1151 H   0  0  0  0  0  0  0  0  0  0  0  0
  -33.9213   72.0300   62.6139 H   0  0  0  0  0  0  0  0  0  0  0  0
  -33.8606   71.1952   64.1653 H   0  0  0  0  0  0  0  0  0  0  0  0
  1  4  1  0  0  0  0
  1 31  1  0  0  0  0
  1 62  1  0  0  0  0
  2  3  1  0  0  0  0
  2  4  1  0  0  0  0
  2 63  1  0  0  0  0
  2 64  1  0  0  0  0
  3 55  1  0  0  0  0
  4  6  1  0  0  0  0
  4 65  1  6  0  0  0
  5  6  1  0  0  0  0
  5 66  1  0  0  0  0
  6  8  1  0  0  0  0
  6 67  1  1  0  0  0
  7 31  2  0  0  0  0
  8 10  2  0  0  0  0
  8 68  1  0  0  0  0
  9 56  1  0  0  0  0
  9 69  1  0  0  0  0
 10 12  1  0  0  0  0
 10 70  1  0  0  0  0
 11 57  1  0  0  0  0
 11 61  1  0  0  0  0
 12 14  1  0  0  0  0
 12 71  1  0  0  0  0
 12 72  1  0  0  0  0
 13 58  1  0  0  0  0
 13 73  1  0  0  0  0
 14 16  1  0  0  0  0
 14 74  1  0  0  0  0
 14 75  1  0  0  0  0
 15 55  1  0  0  0  0
 15 59  1  0  0  0  0
 16 18  1  0  0  0  0
 16 76  1  0  0  0  0
 16 77  1  0  0  0  0
 17 60  1  0  0  0  0
 17 78  1  0  0  0  0
 18 20  1  0  0  0  0
 18 79  1  0  0  0  0
 18 80  1  0  0  0  0
 19 61  1  0  0  0  0
 19 81  1  0  0  0  0
 20 22  1  0  0  0  0
 20 82  1  0  0  0  0
 20 83  1  0  0  0  0
 21 61  1  0  0  0  0
 22 24  1  0  0  0  0
 22 84  1  0  0  0  0
 22 85  1  0  0  0  0
 23 61  1  0  0  0  0
 23 86  1  0  0  0  0
 24 25  1  0  0  0  0
 24 87  1  0  0  0  0
 24 88  1  0  0  0  0
 25 26  1  0  0  0  0
 25 89  1  0  0  0  0
 25 90  1  0  0  0  0
 26 27  1  0  0  0  0
 26 91  1  0  0  0  0
 26 92  1  0  0  0  0
 27 28  1  0  0  0  0
 27 93  1  0  0  0  0
 27 94  1  0  0  0  0
 28 29  1  0  0  0  0
 28 95  1  0  0  0  0
 28 96  1  0  0  0  0
 29 30  1  0  0  0  0
 29 97  1  0  0  0  0
 29 98  1  0  0  0  0
 30 99  1  0  0  0  0
 30100  1  0  0  0  0
 30101  1  0  0  0  0
 31 32  1  0  0  0  0
 32 33  1  0  0  0  0
 32102  1  0  0  0  0
 32103  1  0  0  0  0
 33 34  1  0  0  0  0
 33104  1  0  0  0  0
 33105  1  0  0  0  0
 34 35  1  0  0  0  0
 34106  1  0  0  0  0
 34107  1  0  0  0  0
 35 36  1  0  0  0  0
 35108  1  0  0  0  0
 35109  1  0  0  0  0
 36 37  1  0  0  0  0
 36110  1  0  0  0  0
 36111  1  0  0  0  0
 37 38  1  0  0  0  0
 37112  1  0  0  0  0
 37113  1  0  0  0  0
 38 39  1  0  0  0  0
 38114  1  0  0  0  0
 38115  1  0  0  0  0
 39 40  1  0  0  0  0
 39116  1  0  0  0  0
 39117  1  0  0  0  0
 40 41  1  0  0  0  0
 40118  1  0  0  0  0
 40119  1  0  0  0  0
 41 42  1  0  0  0  0
 41120  1  0  0  0  0
 41121  1  0  0  0  0
 42 43  1  0  0  0  0
 42122  1  0  0  0  0
 42123  1  0  0  0  0
 43 44  1  0  0  0  0
 43124  1  0  0  0  0
 43125  1  0  0  0  0
 44 45  1  0  0  0  0
 44126  1  0  0  0  0
 44127  1  0  0  0  0
 45 46  2  0  0  0  0
 45128  1  0  0  0  0
 46 47  1  0  0  0  0
 46129  1  0  0  0  0
 47 48  1  0  0  0  0
 47130  1  0  0  0  0
 47131  1  0  0  0  0
 48 49  1  0  0  0  0
 48132  1  0  0  0  0
 48133  1  0  0  0  0
 49 50  1  0  0  0  0
 49134  1  0  0  0  0
 49135  1  0  0  0  0
 50 51  1  0  0  0  0
 50136  1  0  0  0  0
 50137  1  0  0  0  0
 51 52  1  0  0  0  0
 51138  1  0  0  0  0
 51139  1  0  0  0  0
 52 53  1  0  0  0  0
 52140  1  0  0  0  0
 52141  1  0  0  0  0
 53 54  1  0  0  0  0
 53142  1  0  0  0  0
 53143  1  0  0  0  0
 54144  1  0  0  0  0
 54145  1  0  0  0  0
 54146  1  0  0  0  0
 55 56  1  0  0  0  0
 55147  1  1  0  0  0
 56 57  1  0  0  0  0
 56148  1  6  0  0  0
 57 58  1  0  0  0  0
 57149  1  1  0  0  0
 58 59  1  0  0  0  0
 58150  1  1  0  0  0
 59 60  1  0  0  0  0
 59151  1  1  0  0  0
 60152  1  0  0  0  0
 60153  1  0  0  0  0
M  CHG  1  21  -1
M  END
$$$$
/media/chris/experiments/cd1a-new-docking/inputs/ligands/7ryn_ligand.pdb
 OpenBabel07032312553D

153153  0  0  1  0  0  0  0  0999 V2000
  -33.0340   65.1330   62.2120 N   0  0  0  0  0  0  0  0  0  0  0  0
  -32.0220   67.3480   62.3220 C   0  0  0  0  0  0  0  0  0  0  0  0
  -31.1969   68.2589   61.5870 O   0  0  0  0  0  0  0  0  0  0  0  0
  -32.1830   66.0840   61.5030 C   0  0  1  0  0  0  0  0  0  0  0  0
  -30.2154   65.0225   62.4176 O   0  0  0  0  0  0  0  0  0  0  0  0
  -30.8310   65.4230   61.1900 C   0  0  2  0  0  0  0  0  0  0  0  0
  -33.8904   64.1653   60.3686 O   0  0  0  0  0  0  0  0  0  0  0  0
  -29.9369   66.3439   60.4177 C   0  0  0  0  0  0  0  0  0  0  0  0
  -32.9308   70.4319   61.2513 O   0  0  0  0  0  0  0  0  0  0  0  0
  -29.8817   66.4205   59.1027 C   0  0  0  0  0  0  0  0  0  0  0  0
  -33.4310   71.8685   63.6467 O   0  0  0  0  0  0  0  0  0  0  0  0
  -28.9891   67.3610   58.3614 C   0  0  0  0  0  0  0  0  0  0  0  0
  -32.0199   70.3807   65.4572 O   0  0  0  0  0  0  0  0  0  0  0  0
  -27.5176   67.0910   58.6821 C   0  0  0  0  0  0  0  0  0  0  0  0
  -30.2839   69.2401   63.4665 O   0  0  0  0  0  0  0  0  0  0  0  0
  -27.0439   65.6962   58.3070 C   0  0  0  0  0  0  0  0  0  0  0  0
  -29.8754   69.1472   66.2254 O   0  0  0  0  0  0  0  0  0  0  0  0
  -27.1564   65.3754   56.8264 C   0  0  0  0  0  0  0  0  0  0  0  0
  -34.9849   73.3767   64.7040 O   0  0  0  0  0  0  0  0  0  0  0  0
  -26.6963   63.9718   56.4607 C   0  0  0  0  0  0  0  0  0  0  0  0
  -32.7374   74.1926   63.9306 O   0  5  0  0  0  0  0  0  0  0  0  0
  -27.4926   62.8706   57.1438 C   0  0  0  0  0  0  0  0  0  0  0  0
  -32.9709   72.7578   65.8076 O   0  0  0  0  0  0  0  0  0  0  0  0
  -27.0240   61.4693   56.7933 C   0  0  0  0  0  0  0  0  0  0  0  0
  -27.8249   60.3653   57.4582 C   0  0  0  0  0  0  0  0  0  0  0  0
  -27.8080   60.4214   58.9761 C   0  0  0  0  0  0  0  0  0  0  0  0
  -26.4101   60.3234   59.5581 C   0  0  0  0  0  0  0  0  0  0  0  0
  -25.6671   59.0528   59.1923 C   0  0  0  0  0  0  0  0  0  0  0  0
  -24.2832   58.9894   59.8083 C   0  0  0  0  0  0  0  0  0  0  0  0
  -23.4046   60.1472   59.3819 C   0  0  0  0  0  0  0  0  0  0  0  0
  -33.8200   64.2493   61.5913 C   0  0  0  0  0  0  0  0  0  0  0  0
  -34.6214   63.3431   62.4924 C   0  0  0  0  0  0  0  0  0  0  0  0
  -33.8835   62.0543   62.8317 C   0  0  0  0  0  0  0  0  0  0  0  0
  -33.5284   61.2396   61.5983 C   0  0  0  0  0  0  0  0  0  0  0  0
  -32.8057   59.9388   61.9061 C   0  0  0  0  0  0  0  0  0  0  0  0
  -32.4360   59.1328   60.6699 C   0  0  0  0  0  0  0  0  0  0  0  0
  -31.5007   59.8604   59.7126 C   0  0  0  0  0  0  0  0  0  0  0  0
  -31.1458   59.0577   58.4676 C   0  0  0  0  0  0  0  0  0  0  0  0
  -30.1955   59.7667   57.5060 C   0  0  0  0  0  0  0  0  0  0  0  0
  -29.8607   58.9585   56.2534 C   0  0  0  0  0  0  0  0  0  0  0  0
  -28.8964   59.6486   55.2888 C   0  0  0  0  0  0  0  0  0  0  0  0
  -29.4115   60.9910   54.7693 C   0  0  0  0  0  0  0  0  0  0  0  0
  -28.4822   61.7049   53.7878 C   0  0  0  0  0  0  0  0  0  0  0  0
  -28.9933   63.0568   53.2826 C   0  0  0  0  0  0  0  0  0  0  0  0
  -29.1976   64.0529   54.3872 C   0  0  0  0  0  0  0  0  0  0  0  0
  -30.3378   64.6401   54.7049 C   0  0  0  0  0  0  0  0  0  0  0  0
  -31.6578   64.4274   54.0278 C   0  0  0  0  0  0  0  0  0  0  0  0
  -32.2477   65.7007   53.4176 C   0  0  0  0  0  0  0  0  0  0  0  0
  -33.5967   65.4779   52.7469 C   0  0  0  0  0  0  0  0  0  0  0  0
  -34.6706   64.9698   53.7023 C   0  0  0  0  0  0  0  0  0  0  0  0
  -36.0273   64.7221   53.0528 C   0  0  0  0  0  0  0  0  0  0  0  0
  -37.0916   64.2316   54.0243 C   0  0  0  0  0  0  0  0  0  0  0  0
  -36.7417   62.9281   54.7244 C   0  0  0  0  0  0  0  0  0  0  0  0
  -37.8273   62.4579   55.6712 C   0  0  0  0  0  0  0  0  0  0  0  0
  -30.9530   69.4703   62.2406 C   0  0  2  0  0  0  0  0  0  0  0  0
  -32.2933   70.1495   62.4906 C   0  0  1  0  0  0  0  0  0  0  0  0
  -32.0829   71.4352   63.2803 C   0  0  2  0  0  0  0  0  0  0  0  0
  -31.2728   71.1754   64.5419 C   0  0  2  0  0  0  0  0  0  0  0  0
  -29.9796   70.4491   64.1802 C   0  0  1  0  0  0  0  0  0  0  0  0
  -29.1637   70.0508   65.3877 C   0  0  0  0  0  0  0  0  0  0  0  0
  -33.5968   73.2117   64.4786 S   0  0  0  0  0  0  0  0  0  0  0  0
  -33.0282   65.1436   63.1964 H   0  0  0  0  0  0  0  0  0  0  0  0
  -32.9806   67.7896   62.4978 H   0  0  0  0  0  0  0  0  0  0  0  0
  -31.5704   67.1208   63.2650 H   0  0  0  0  0  0  0  0  0  0  0  0
  -32.6374   66.3625   60.5752 H   0  0  0  0  0  0  0  0  0  0  0  0
  -30.8116   64.4280   62.8994 H   0  0  0  0  0  0  0  0  0  0  0  0
  -30.9971   64.5628   60.5757 H   0  0  0  0  0  0  0  0  0  0  0  0
  -29.3156   66.9669   60.9570 H   0  0  0  0  0  0  0  0  0  0  0  0
  -33.0591   69.6065   60.7582 H   0  0  0  0  0  0  0  0  0  0  0  0
  -30.4908   65.7941   58.5535 H   0  0  0  0  0  0  0  0  0  0  0  0
  -29.2295   68.3652   58.6418 H   0  0  0  0  0  0  0  0  0  0  0  0
  -29.1404   67.2174   57.3119 H   0  0  0  0  0  0  0  0  0  0  0  0
  -32.8421   70.8405   65.6883 H   0  0  0  0  0  0  0  0  0  0  0  0
  -27.3739   67.2226   59.7342 H   0  0  0  0  0  0  0  0  0  0  0  0
  -26.9441   67.7785   58.0962 H   0  0  0  0  0  0  0  0  0  0  0  0
  -27.6315   64.9854   58.8495 H   0  0  0  0  0  0  0  0  0  0  0  0
  -26.0035   65.6493   58.5527 H   0  0  0  0  0  0  0  0  0  0  0  0
  -29.3250   68.9123   66.9889 H   0  0  0  0  0  0  0  0  0  0  0  0
  -26.5587   66.0776   56.2836 H   0  0  0  0  0  0  0  0  0  0  0  0
  -28.1945   65.4366   56.5743 H   0  0  0  0  0  0  0  0  0  0  0  0
  -35.4139   73.6640   63.8828 H   0  0  0  0  0  0  0  0  0  0  0  0
  -25.6687   63.8692   56.7408 H   0  0  0  0  0  0  0  0  0  0  0  0
  -26.8452   63.8581   55.4072 H   0  0  0  0  0  0  0  0  0  0  0  0
  -28.5181   62.9660   56.8538 H   0  0  0  0  0  0  0  0  0  0  0  0
  -27.3525   62.9920   58.1976 H   0  0  0  0  0  0  0  0  0  0  0  0
  -33.5340   72.0818   66.2160 H   0  0  0  0  0  0  0  0  0  0  0  0
  -26.0019   61.3713   57.0944 H   0  0  0  0  0  0  0  0  0  0  0  0
  -27.1560   61.3541   55.7377 H   0  0  0  0  0  0  0  0  0  0  0  0
  -27.4199   59.4236   57.1513 H   0  0  0  0  0  0  0  0  0  0  0  0
  -28.8427   60.4934   57.1539 H   0  0  0  0  0  0  0  0  0  0  0  0
  -28.3923   59.6084   59.3538 H   0  0  0  0  0  0  0  0  0  0  0  0
  -28.2092   61.3702   59.2656 H   0  0  0  0  0  0  0  0  0  0  0  0
  -26.4874   60.3708   60.6243 H   0  0  0  0  0  0  0  0  0  0  0  0
  -25.8493   61.1352   59.1442 H   0  0  0  0  0  0  0  0  0  0  0  0
  -25.5709   59.0064   58.1277 H   0  0  0  0  0  0  0  0  0  0  0  0
  -26.2301   58.2267   59.5738 H   0  0  0  0  0  0  0  0  0  0  0  0
  -23.8156   58.0750   59.5080 H   0  0  0  0  0  0  0  0  0  0  0  0
  -24.3977   59.0424   60.8708 H   0  0  0  0  0  0  0  0  0  0  0  0
  -23.2710   60.1215   58.3206 H   0  0  0  0  0  0  0  0  0  0  0  0
  -22.4522   60.0683   59.8633 H   0  0  0  0  0  0  0  0  0  0  0  0
  -23.8698   61.0695   59.6606 H   0  0  0  0  0  0  0  0  0  0  0  0
  -35.5383   63.0939   62.0003 H   0  0  0  0  0  0  0  0  0  0  0  0
  -34.7957   63.8680   63.4084 H   0  0  0  0  0  0  0  0  0  0  0  0
  -34.5067   61.4600   63.4668 H   0  0  0  0  0  0  0  0  0  0  0  0
  -32.9680   62.3238   63.3157 H   0  0  0  0  0  0  0  0  0  0  0  0
  -32.8978   61.8350   60.9714 H   0  0  0  0  0  0  0  0  0  0  0  0
  -34.4506   60.9776   61.1232 H   0  0  0  0  0  0  0  0  0  0  0  0
  -33.4412   59.3379   62.5227 H   0  0  0  0  0  0  0  0  0  0  0  0
  -31.8893   60.1996   62.3930 H   0  0  0  0  0  0  0  0  0  0  0  0
  -33.3360   58.8925   60.1434 H   0  0  0  0  0  0  0  0  0  0  0  0
  -31.9140   58.2636   61.0118 H   0  0  0  0  0  0  0  0  0  0  0  0
  -30.5955   60.0897   60.2350 H   0  0  0  0  0  0  0  0  0  0  0  0
  -32.0166   60.7371   59.3805 H   0  0  0  0  0  0  0  0  0  0  0  0
  -32.0516   58.8391   57.9415 H   0  0  0  0  0  0  0  0  0  0  0  0
  -30.6363   58.1800   58.8067 H   0  0  0  0  0  0  0  0  0  0  0  0
  -29.2837   59.9741   58.0262 H   0  0  0  0  0  0  0  0  0  0  0  0
  -30.6938   60.6546   57.1772 H   0  0  0  0  0  0  0  0  0  0  0  0
  -30.7727   58.7619   55.7296 H   0  0  0  0  0  0  0  0  0  0  0  0
  -29.3688   58.0695   56.5890 H   0  0  0  0  0  0  0  0  0  0  0  0
  -28.7332   59.0016   54.4523 H   0  0  0  0  0  0  0  0  0  0  0  0
  -27.9952   59.8453   55.8310 H   0  0  0  0  0  0  0  0  0  0  0  0
  -29.5645   61.6353   55.6097 H   0  0  0  0  0  0  0  0  0  0  0  0
  -30.3095   60.7770   54.2282 H   0  0  0  0  0  0  0  0  0  0  0  0
  -28.3391   61.0663   52.9413 H   0  0  0  0  0  0  0  0  0  0  0  0
  -27.5784   61.9072   54.3237 H   0  0  0  0  0  0  0  0  0  0  0  0
  -29.9273   62.9040   52.7834 H   0  0  0  0  0  0  0  0  0  0  0  0
  -28.2506   63.4554   52.6235 H   0  0  0  0  0  0  0  0  0  0  0  0
  -28.3700   64.3023   54.9511 H   0  0  0  0  0  0  0  0  0  0  0  0
  -30.3175   65.3070   55.4922 H   0  0  0  0  0  0  0  0  0  0  0  0
  -32.3501   64.0464   54.7493 H   0  0  0  0  0  0  0  0  0  0  0  0
  -31.4898   63.7432   53.2225 H   0  0  0  0  0  0  0  0  0  0  0  0
  -31.5626   66.0758   52.6863 H   0  0  0  0  0  0  0  0  0  0  0  0
  -32.4022   66.3937   54.2180 H   0  0  0  0  0  0  0  0  0  0  0  0
  -33.4717   64.7595   51.9639 H   0  0  0  0  0  0  0  0  0  0  0  0
  -33.9260   66.4262   52.3765 H   0  0  0  0  0  0  0  0  0  0  0  0
  -34.7988   65.6958   54.4778 H   0  0  0  0  0  0  0  0  0  0  0  0
  -34.3304   64.0235   54.0677 H   0  0  0  0  0  0  0  0  0  0  0  0
  -35.9051   63.9859   52.2859 H   0  0  0  0  0  0  0  0  0  0  0  0
  -36.3653   65.6614   52.6675 H   0  0  0  0  0  0  0  0  0  0  0  0
  -38.0016   64.0868   53.4804 H   0  0  0  0  0  0  0  0  0  0  0  0
  -37.1792   64.9769   54.7870 H   0  0  0  0  0  0  0  0  0  0  0  0
  -35.8403   63.0716   55.2828 H   0  0  0  0  0  0  0  0  0  0  0  0
  -36.6272   62.1786   53.9694 H   0  0  0  0  0  0  0  0  0  0  0  0
  -37.9686   63.1865   56.4419 H   0  0  0  0  0  0  0  0  0  0  0  0
  -37.5385   61.5257   56.1102 H   0  0  0  0  0  0  0  0  0  0  0  0
  -38.7414   62.3293   55.1300 H   0  0  0  0  0  0  0  0  0  0  0  0
  -30.3291   70.0960   61.6371 H   0  0  0  0  0  0  0  0  0  0  0  0
  -32.9193   69.4938   63.0591 H   0  0  0  0  0  0  0  0  0  0  0  0
  -31.5471   72.1651   62.7102 H   0  0  0  0  0  0  0  0  0  0  0  0
  -31.0444   72.1140   65.0021 H   0  0  0  0  0  0  0  0  0  0  0  0
  -29.4118   71.1378   63.5901 H   0  0  0  0  0  0  0  0  0  0  0  0
  -28.2611   69.5805   65.0573 H   0  0  0  0  0  0  0  0  0  0  0  0
  -28.9495   70.9336   65.9532 H   0  0  0  0  0  0  0  0  0  0  0  0
  1  4  1  0  0  0  0
  1 31  1  0  0  0  0
  1 62  1  0  0  0  0
  2  3  1  0  0  0  0
  2  4  1  0  0  0  0
  2 63  1  0  0  0  0
  2 64  1  0  0  0  0
  3 55  1  0  0  0  0
  4  6  1  0  0  0  0
  4 65  1  6  0  0  0
  5  6  1  0  0  0  0
  5 66  1  0  0  0  0
  6  8  1  0  0  0  0
  6 67  1  6  0  0  0
  7 31  2  0  0  0  0
  8 10  2  0  0  0  0
  8 68  1  0  0  0  0
  9 56  1  0  0  0  0
  9 69  1  0  0  0  0
 10 12  1  0  0  0  0
 10 70  1  0  0  0  0
 11 57  1  0  0  0  0
 11 61  1  0  0  0  0
 12 14  1  0  0  0  0
 12 71  1  0  0  0  0
 12 72  1  0  0  0  0
 13 58  1  0  0  0  0
 13 73  1  0  0  0  0
 14 16  1  0  0  0  0
 14 74  1  0  0  0  0
 14 75  1  0  0  0  0
 15 55  1  0  0  0  0
 15 59  1  0  0  0  0
 16 18  1  0  0  0  0
 16 76  1  0  0  0  0
 16 77  1  0  0  0  0
 17 60  1  0  0  0  0
 17 78  1  0  0  0  0
 18 20  1  0  0  0  0
 18 79  1  0  0  0  0
 18 80  1  0  0  0  0
 19 61  1  0  0  0  0
 19 81  1  0  0  0  0
 20 22  1  0  0  0  0
 20 82  1  0  0  0  0
 20 83  1  0  0  0  0
 21 61  1  0  0  0  0
 22 24  1  0  0  0  0
 22 84  1  0  0  0  0
 22 85  1  0  0  0  0
 23 61  1  0  0  0  0
 23 86  1  0  0  0  0
 24 25  1  0  0  0  0
 24 87  1  0  0  0  0
 24 88  1  0  0  0  0
 25 26  1  0  0  0  0
 25 89  1  0  0  0  0
 25 90  1  0  0  0  0
 26 27  1  0  0  0  0
 26 91  1  0  0  0  0
 26 92  1  0  0  0  0
 27 28  1  0  0  0  0
 27 93  1  0  0  0  0
 27 94  1  0  0  0  0
 28 29  1  0  0  0  0
 28 95  1  0  0  0  0
 28 96  1  0  0  0  0
 29 30  1  0  0  0  0
 29 97  1  0  0  0  0
 29 98  1  0  0  0  0
 30 99  1  0  0  0  0
 30100  1  0  0  0  0
 30101  1  0  0  0  0
 31 32  1  0  0  0  0
 32 33  1  0  0  0  0
 32102  1  0  0  0  0
 32103  1  0  0  0  0
 33 34  1  0  0  0  0
 33104  1  0  0  0  0
 33105  1  0  0  0  0
 34 35  1  0  0  0  0
 34106  1  0  0  0  0
 34107  1  0  0  0  0
 35 36  1  0  0  0  0
 35108  1  0  0  0  0
 35109  1  0  0  0  0
 36 37  1  0  0  0  0
 36110  1  0  0  0  0
 36111  1  0  0  0  0
 37 38  1  0  0  0  0
 37112  1  0  0  0  0
 37113  1  0  0  0  0
 38 39  1  0  0  0  0
 38114  1  0  0  0  0
 38115  1  0  0  0  0
 39 40  1  0  0  0  0
 39116  1  0  0  0  0
 39117  1  0  0  0  0
 40 41  1  0  0  0  0
 40118  1  0  0  0  0
 40119  1  0  0  0  0
 41 42  1  0  0  0  0
 41120  1  0  0  0  0
 41121  1  0  0  0  0
 42 43  1  0  0  0  0
 42122  1  0  0  0  0
 42123  1  0  0  0  0
 43 44  1  0  0  0  0
 43124  1  0  0  0  0
 43125  1  0  0  0  0
 44 45  1  0  0  0  0
 44126  1  0  0  0  0
 44127  1  0  0  0  0
 45 46  2  0  0  0  0
 45128  1  0  0  0  0
 46 47  1  0  0  0  0
 46129  1  0  0  0  0
 47 48  1  0  0  0  0
 47130  1  0  0  0  0
 47131  1  0  0  0  0
 48 49  1  0  0  0  0
 48132  1  0  0  0  0
 48133  1  0  0  0  0
 49 50  1  0  0  0  0
 49134  1  0  0  0  0
 49135  1  0  0  0  0
 50 51  1  0  0  0  0
 50136  1  0  0  0  0
 50137  1  0  0  0  0
 51 52  1  0  0  0  0
 51138  1  0  0  0  0
 51139  1  0  0  0  0
 52 53  1  0  0  0  0
 52140  1  0  0  0  0
 52141  1  0  0  0  0
 53 54  1  0  0  0  0
 53142  1  0  0  0  0
 53143  1  0  0  0  0
 54144  1  0  0  0  0
 54145  1  0  0  0  0
 54146  1  0  0  0  0
 55 56  1  0  0  0  0
 55147  1  6  0  0  0
 56 57  1  0  0  0  0
 56148  1  1  0  0  0
 57 58  1  0  0  0  0
 57149  1  6  0  0  0
 58 59  1  0  0  0  0
 58150  1  1  0  0  0
 59 60  1  0  0  0  0
 59151  1  6  0  0  0
 60152  1  0  0  0  0
 60153  1  0  0  0  0
M  CHG  1  21  -1
M  END
$$$$
/media/chris/experiments/cd1a-new-docking/inputs/ligands/7ryn_ligand.pdb
 OpenBabel07032312553D

153153  0  0  1  0  0  0  0  0999 V2000
  -33.0340   65.1330   62.2120 N   0  0  0  0  0  0  0  0  0  0  0  0
  -32.0220   67.3480   62.3220 C   0  0  0  0  0  0  0  0  0  0  0  0
  -31.4051   67.0024   63.5673 O   0  0  0  0  0  0  0  0  0  0  0  0
  -32.1830   66.0840   61.5030 C   0  0  1  0  0  0  0  0  0  0  0  0
  -29.9992   66.3678   60.5104 O   0  0  0  0  0  0  0  0  0  0  0  0
  -30.8310   65.4230   61.1900 C   0  0  2  0  0  0  0  0  0  0  0  0
  -34.2576   66.6787   63.2990 O   0  0  0  0  0  0  0  0  0  0  0  0
  -31.0055   64.1786   60.3744 C   0  0  0  0  0  0  0  0  0  0  0  0
  -29.0472   68.5087   63.4560 O   0  0  0  0  0  0  0  0  0  0  0  0
  -32.0597   63.3881   60.4139 C   0  0  0  0  0  0  0  0  0  0  0  0
  -29.4663   71.3004   63.7442 O   0  0  0  0  0  0  0  0  0  0  0  0
  -32.2106   62.1609   59.5761 C   0  0  0  0  0  0  0  0  0  0  0  0
  -32.1950   71.4092   63.9043 O   0  0  0  0  0  0  0  0  0  0  0  0
  -32.8943   62.4834   58.2459 C   0  0  0  0  0  0  0  0  0  0  0  0
  -32.4523   68.6756   64.7639 O   0  0  0  0  0  0  0  0  0  0  0  0
  -33.0993   61.2782   57.3424 C   0  0  0  0  0  0  0  0  0  0  0  0
  -34.4615   70.6093   64.8705 O   0  0  0  0  0  0  0  0  0  0  0  0
  -33.7628   61.5990   56.0140 C   0  0  0  0  0  0  0  0  0  0  0  0
  -28.4817   73.4554   63.3041 O   0  0  0  0  0  0  0  0  0  0  0  0
  -32.9773   62.5746   55.1497 C   0  0  0  0  0  0  0  0  0  0  0  0
  -28.5846   72.5516   65.6468 O   0  5  0  0  0  0  0  0  0  0  0  0
  -33.6561   62.9039   53.8290 C   0  0  0  0  0  0  0  0  0  0  0  0
  -30.5292   73.2918   64.5035 O   0  0  0  0  0  0  0  0  0  0  0  0
  -35.0196   63.5535   53.9872 C   0  0  0  0  0  0  0  0  0  0  0  0
  -34.9917   64.8761   54.7304 C   0  0  0  0  0  0  0  0  0  0  0  0
  -34.1492   65.9443   54.0546 C   0  0  0  0  0  0  0  0  0  0  0  0
  -34.1215   67.2525   54.8229 C   0  0  0  0  0  0  0  0  0  0  0  0
  -33.5440   67.1454   56.2212 C   0  0  0  0  0  0  0  0  0  0  0  0
  -33.5514   68.4706   56.9576 C   0  0  0  0  0  0  0  0  0  0  0  0
  -32.9586   68.3655   58.3476 C   0  0  0  0  0  0  0  0  0  0  0  0
  -34.0033   65.5031   63.0532 C   0  0  0  0  0  0  0  0  0  0  0  0
  -34.7826   64.3775   63.6864 C   0  0  0  0  0  0  0  0  0  0  0  0
  -36.2686   64.4370   63.3565 C   0  0  0  0  0  0  0  0  0  0  0  0
  -37.0593   63.3134   64.0074 C   0  0  0  0  0  0  0  0  0  0  0  0
  -36.5985   61.9224   63.6050 C   0  0  0  0  0  0  0  0  0  0  0  0
  -37.4017   60.7993   64.2439 C   0  0  0  0  0  0  0  0  0  0  0  0
  -36.9318   59.4031   63.8562 C   0  0  0  0  0  0  0  0  0  0  0  0
  -36.9837   59.1283   62.3588 C   0  0  0  0  0  0  0  0  0  0  0  0
  -36.5318   57.7270   61.9556 C   0  0  0  0  0  0  0  0  0  0  0  0
  -36.5722   57.4695   60.4502 C   0  0  0  0  0  0  0  0  0  0  0  0
  -36.1386   56.0646   60.0323 C   0  0  0  0  0  0  0  0  0  0  0  0
  -36.1727   55.8413   58.5202 C   0  0  0  0  0  0  0  0  0  0  0  0
  -37.5409   56.0384   57.8676 C   0  0  0  0  0  0  0  0  0  0  0  0
  -37.5752   55.7975   56.3560 C   0  0  0  0  0  0  0  0  0  0  0  0
  -36.6435   56.7002   55.6003 C   0  0  0  0  0  0  0  0  0  0  0  0
  -36.6746   58.0211   55.5930 C   0  0  0  0  0  0  0  0  0  0  0  0
  -37.6452   58.8844   56.3406 C   0  0  0  0  0  0  0  0  0  0  0  0
  -37.1697   59.2720   57.7424 C   0  0  0  0  0  0  0  0  0  0  0  0
  -38.1699   60.1348   58.5004 C   0  0  0  0  0  0  0  0  0  0  0  0
  -38.4962   61.4454   57.7933 C   0  0  0  0  0  0  0  0  0  0  0  0
  -39.1189   61.2793   56.4118 C   0  0  0  0  0  0  0  0  0  0  0  0
  -40.4432   60.5288   56.4226 C   0  0  0  0  0  0  0  0  0  0  0  0
  -41.0643   60.3430   55.0473 C   0  0  0  0  0  0  0  0  0  0  0  0
  -42.3887   59.6081   55.0932 C   0  0  0  0  0  0  0  0  0  0  0  0
  -31.2104   68.0828   64.4327 C   0  0  2  0  0  0  0  0  0  0  0  0
  -30.3138   69.0941   63.7304 C   0  0  1  0  0  0  0  0  0  0  0  0
  -30.1449   70.3308   64.6038 C   0  0  2  0  0  0  0  0  0  0  0  0
  -31.4954   70.8877   65.0296 C   0  0  2  0  0  0  0  0  0  0  0  0
  -32.3266   69.7807   65.6732 C   0  0  1  0  0  0  0  0  0  0  0  0
  -33.7288   70.2187   66.0260 C   0  0  0  0  0  0  0  0  0  0  0  0
  -29.1081   72.7269   64.3444 S   0  0  0  0  0  0  0  0  0  0  0  0
  -32.8861   64.1712   62.0627 H   0  0  0  0  0  0  0  0  0  0  0  0
  -31.4053   68.0450   61.7940 H   0  0  0  0  0  0  0  0  0  0  0  0
  -32.9770   67.7979   62.4965 H   0  0  0  0  0  0  0  0  0  0  0  0
  -32.6374   66.3625   60.5752 H   0  0  0  0  0  0  0  0  0  0  0  0
  -29.9008   67.1635   61.0564 H   0  0  0  0  0  0  0  0  0  0  0  0
  -30.3647   65.1308   62.1077 H   0  0  0  0  0  0  0  0  0  0  0  0
  -30.2407   63.9200   59.7315 H   0  0  0  0  0  0  0  0  0  0  0  0
  -29.1677   67.7231   62.8999 H   0  0  0  0  0  0  0  0  0  0  0  0
  -32.8255   63.6315   61.0615 H   0  0  0  0  0  0  0  0  0  0  0  0
  -32.8013   61.4448   60.1082 H   0  0  0  0  0  0  0  0  0  0  0  0
  -31.2370   61.7671   59.3714 H   0  0  0  0  0  0  0  0  0  0  0  0
  -31.6684   72.1129   63.4939 H   0  0  0  0  0  0  0  0  0  0  0  0
  -32.2916   63.1962   57.7229 H   0  0  0  0  0  0  0  0  0  0  0  0
  -33.8678   62.8586   58.4835 H   0  0  0  0  0  0  0  0  0  0  0  0
  -33.7121   60.5709   57.8610 H   0  0  0  0  0  0  0  0  0  0  0  0
  -32.1259   60.8967   57.1147 H   0  0  0  0  0  0  0  0  0  0  0  0
  -35.3545   70.8838   65.1313 H   0  0  0  0  0  0  0  0  0  0  0  0
  -34.7245   62.0241   56.2122 H   0  0  0  0  0  0  0  0  0  0  0  0
  -33.8228   60.6807   55.4681 H   0  0  0  0  0  0  0  0  0  0  0  0
  -27.5791   73.1242   63.1756 H   0  0  0  0  0  0  0  0  0  0  0  0
  -32.0201   62.1451   54.9397 H   0  0  0  0  0  0  0  0  0  0  0  0
  -32.9022   63.4895   55.6996 H   0  0  0  0  0  0  0  0  0  0  0  0
  -33.7769   61.9959   53.2760 H   0  0  0  0  0  0  0  0  0  0  0  0
  -33.0305   63.6101   53.3242 H   0  0  0  0  0  0  0  0  0  0  0  0
  -30.9236   73.4264   63.6276 H   0  0  0  0  0  0  0  0  0  0  0  0
  -35.6531   62.8791   54.5244 H   0  0  0  0  0  0  0  0  0  0  0  0
  -35.3795   63.7607   53.0010 H   0  0  0  0  0  0  0  0  0  0  0  0
  -34.5957   64.7041   55.7094 H   0  0  0  0  0  0  0  0  0  0  0  0
  -35.9972   65.2413   54.7524 H   0  0  0  0  0  0  0  0  0  0  0  0
  -34.5511   66.1296   53.0804 H   0  0  0  0  0  0  0  0  0  0  0  0
  -33.1447   65.5784   54.0097 H   0  0  0  0  0  0  0  0  0  0  0  0
  -35.1249   67.6155   54.9021 H   0  0  0  0  0  0  0  0  0  0  0  0
  -33.4808   67.9135   54.2775 H   0  0  0  0  0  0  0  0  0  0  0  0
  -32.5342   66.7988   56.1494 H   0  0  0  0  0  0  0  0  0  0  0  0
  -34.1565   66.4639   56.7737 H   0  0  0  0  0  0  0  0  0  0  0  0
  -34.5623   68.8114   57.0406 H   0  0  0  0  0  0  0  0  0  0  0  0
  -32.9496   69.1564   56.3986 H   0  0  0  0  0  0  0  0  0  0  0  0
  -33.5405   67.6844   58.9328 H   0  0  0  0  0  0  0  0  0  0  0  0
  -32.9644   69.3296   58.8116 H   0  0  0  0  0  0  0  0  0  0  0  0
  -31.9523   68.0082   58.2801 H   0  0  0  0  0  0  0  0  0  0  0  0
  -34.6646   64.4337   64.7484 H   0  0  0  0  0  0  0  0  0  0  0  0
  -34.4000   63.4579   63.2955 H   0  0  0  0  0  0  0  0  0  0  0  0
  -36.3867   64.3686   62.2953 H   0  0  0  0  0  0  0  0  0  0  0  0
  -36.6476   65.3621   63.7380 H   0  0  0  0  0  0  0  0  0  0  0  0
  -38.0873   63.4209   63.7307 H   0  0  0  0  0  0  0  0  0  0  0  0
  -36.9069   63.3976   65.0631 H   0  0  0  0  0  0  0  0  0  0  0  0
  -35.5741   61.8102   63.8929 H   0  0  0  0  0  0  0  0  0  0  0  0
  -36.7385   61.8421   62.5473 H   0  0  0  0  0  0  0  0  0  0  0  0
  -38.4239   60.9051   63.9460 H   0  0  0  0  0  0  0  0  0  0  0  0
  -37.2696   60.8876   65.3021 H   0  0  0  0  0  0  0  0  0  0  0  0
  -37.5549   58.6881   64.3517 H   0  0  0  0  0  0  0  0  0  0  0  0
  -35.9058   59.3276   64.1506 H   0  0  0  0  0  0  0  0  0  0  0  0
  -36.3514   59.8377   61.8669 H   0  0  0  0  0  0  0  0  0  0  0  0
  -38.0105   59.2116   62.0698 H   0  0  0  0  0  0  0  0  0  0  0  0
  -37.1714   57.0162   62.4358 H   0  0  0  0  0  0  0  0  0  0  0  0
  -35.5098   57.6325   62.2583 H   0  0  0  0  0  0  0  0  0  0  0  0
  -35.9235   58.1744   59.9736 H   0  0  0  0  0  0  0  0  0  0  0  0
  -37.5949   57.5718   60.1528 H   0  0  0  0  0  0  0  0  0  0  0  0
  -36.7940   55.3562   60.4943 H   0  0  0  0  0  0  0  0  0  0  0  0
  -35.1230   55.9419   60.3461 H   0  0  0  0  0  0  0  0  0  0  0  0
  -35.8537   54.8387   58.3257 H   0  0  0  0  0  0  0  0  0  0  0  0
  -35.5293   56.5827   58.0944 H   0  0  0  0  0  0  0  0  0  0  0  0
  -37.8547   57.0448   58.0510 H   0  0  0  0  0  0  0  0  0  0  0  0
  -38.1889   55.3065   58.3027 H   0  0  0  0  0  0  0  0  0  0  0  0
  -38.5723   55.9655   56.0059 H   0  0  0  0  0  0  0  0  0  0  0  0
  -37.2575   54.7905   56.1836 H   0  0  0  0  0  0  0  0  0  0  0  0
  -35.9100   56.2465   55.0334 H   0  0  0  0  0  0  0  0  0  0  0  0
  -35.9649   58.5031   55.0194 H   0  0  0  0  0  0  0  0  0  0  0  0
  -38.5693   58.3527   56.4322 H   0  0  0  0  0  0  0  0  0  0  0  0
  -37.7502   59.7920   55.7837 H   0  0  0  0  0  0  0  0  0  0  0  0
  -36.2525   59.8154   57.6518 H   0  0  0  0  0  0  0  0  0  0  0  0
  -37.0480   58.3655   58.2978 H   0  0  0  0  0  0  0  0  0  0  0  0
  -37.7616   60.3612   59.4631 H   0  0  0  0  0  0  0  0  0  0  0  0
  -39.0806   59.5771   58.5686 H   0  0  0  0  0  0  0  0  0  0  0  0
  -37.5890   62.0025   57.6864 H   0  0  0  0  0  0  0  0  0  0  0  0
  -39.2244   61.9446   58.3977 H   0  0  0  0  0  0  0  0  0  0  0  0
  -38.4308   60.7412   55.7938 H   0  0  0  0  0  0  0  0  0  0  0  0
  -39.3200   62.2622   56.0397 H   0  0  0  0  0  0  0  0  0  0  0  0
  -41.1333   61.0744   57.0317 H   0  0  0  0  0  0  0  0  0  0  0  0
  -40.2391   59.5498   56.8031 H   0  0  0  0  0  0  0  0  0  0  0  0
  -40.3847   59.7843   54.4383 H   0  0  0  0  0  0  0  0  0  0  0  0
  -41.2511   61.3167   54.6449 H   0  0  0  0  0  0  0  0  0  0  0  0
  -42.2383   58.6267   55.4921 H   0  0  0  0  0  0  0  0  0  0  0  0
  -42.7896   59.5335   54.1040 H   0  0  0  0  0  0  0  0  0  0  0  0
  -43.0732   60.1452   55.7160 H   0  0  0  0  0  0  0  0  0  0  0  0
  -30.7515   67.7503   65.3403 H   0  0  0  0  0  0  0  0  0  0  0  0
  -30.7674   69.3839   62.8057 H   0  0  0  0  0  0  0  0  0  0  0  0
  -29.6019   70.1103   65.4990 H   0  0  0  0  0  0  0  0  0  0  0  0
  -31.3342   71.6761   65.7349 H   0  0  0  0  0  0  0  0  0  0  0  0
  -31.8112   69.5117   66.5715 H   0  0  0  0  0  0  0  0  0  0  0  0
  -34.2372   69.4060   66.5014 H   0  0  0  0  0  0  0  0  0  0  0  0
  -33.6613   71.0623   66.6807 H   0  0  0  0  0  0  0  0  0  0  0  0
  1  4  1  0  0  0  0
  1 31  1  0  0  0  0
  1 62  1  0  0  0  0
  2  3  1  0  0  0  0
  2  4  1  0  0  0  0
  2 63  1  0  0  0  0
  2 64  1  0  0  0  0
  3 55  1  0  0  0  0
  4  6  1  0  0  0  0
  4 65  1  6  0  0  0
  5  6  1  0  0  0  0
  5 66  1  0  0  0  0
  6  8  1  0  0  0  0
  6 67  1  1  0  0  0
  7 31  2  0  0  0  0
  8 10  2  0  0  0  0
  8 68  1  0  0  0  0
  9 56  1  0  0  0  0
  9 69  1  0  0  0  0
 10 12  1  0  0  0  0
 10 70  1  0  0  0  0
 11 57  1  0  0  0  0
 11 61  1  0  0  0  0
 12 14  1  0  0  0  0
 12 71  1  0  0  0  0
 12 72  1  0  0  0  0
 13 58  1  0  0  0  0
 13 73  1  0  0  0  0
 14 16  1  0  0  0  0
 14 74  1  0  0  0  0
 14 75  1  0  0  0  0
 15 55  1  0  0  0  0
 15 59  1  0  0  0  0
 16 18  1  0  0  0  0
 16 76  1  0  0  0  0
 16 77  1  0  0  0  0
 17 60  1  0  0  0  0
 17 78  1  0  0  0  0
 18 20  1  0  0  0  0
 18 79  1  0  0  0  0
 18 80  1  0  0  0  0
 19 61  1  0  0  0  0
 19 81  1  0  0  0  0
 20 22  1  0  0  0  0
 20 82  1  0  0  0  0
 20 83  1  0  0  0  0
 21 61  1  0  0  0  0
 22 24  1  0  0  0  0
 22 84  1  0  0  0  0
 22 85  1  0  0  0  0
 23 61  1  0  0  0  0
 23 86  1  0  0  0  0
 24 25  1  0  0  0  0
 24 87  1  0  0  0  0
 24 88  1  0  0  0  0
 25 26  1  0  0  0  0
 25 89  1  0  0  0  0
 25 90  1  0  0  0  0
 26 27  1  0  0  0  0
 26 91  1  0  0  0  0
 26 92  1  0  0  0  0
 27 28  1  0  0  0  0
 27 93  1  0  0  0  0
 27 94  1  0  0  0  0
 28 29  1  0  0  0  0
 28 95  1  0  0  0  0
 28 96  1  0  0  0  0
 29 30  1  0  0  0  0
 29 97  1  0  0  0  0
 29 98  1  0  0  0  0
 30 99  1  0  0  0  0
 30100  1  0  0  0  0
 30101  1  0  0  0  0
 31 32  1  0  0  0  0
 32 33  1  0  0  0  0
 32102  1  0  0  0  0
 32103  1  0  0  0  0
 33 34  1  0  0  0  0
 33104  1  0  0  0  0
 33105  1  0  0  0  0
 34 35  1  0  0  0  0
 34106  1  0  0  0  0
 34107  1  0  0  0  0
 35 36  1  0  0  0  0
 35108  1  0  0  0  0
 35109  1  0  0  0  0
 36 37  1  0  0  0  0
 36110  1  0  0  0  0
 36111  1  0  0  0  0
 37 38  1  0  0  0  0
 37112  1  0  0  0  0
 37113  1  0  0  0  0
 38 39  1  0  0  0  0
 38114  1  0  0  0  0
 38115  1  0  0  0  0
 39 40  1  0  0  0  0
 39116  1  0  0  0  0
 39117  1  0  0  0  0
 40 41  1  0  0  0  0
 40118  1  0  0  0  0
 40119  1  0  0  0  0
 41 42  1  0  0  0  0
 41120  1  0  0  0  0
 41121  1  0  0  0  0
 42 43  1  0  0  0  0
 42122  1  0  0  0  0
 42123  1  0  0  0  0
 43 44  1  0  0  0  0
 43124  1  0  0  0  0
 43125  1  0  0  0  0
 44 45  1  0  0  0  0
 44126  1  0  0  0  0
 44127  1  0  0  0  0
 45 46  2  0  0  0  0
 45128  1  0  0  0  0
 46 47  1  0  0  0  0
 46129  1  0  0  0  0
 47 48  1  0  0  0  0
 47130  1  0  0  0  0
 47131  1  0  0  0  0
 48 49  1  0  0  0  0
 48132  1  0  0  0  0
 48133  1  0  0  0  0
 49 50  1  0  0  0  0
 49134  1  0  0  0  0
 49135  1  0  0  0  0
 50 51  1  0  0  0  0
 50136  1  0  0  0  0
 50137  1  0  0  0  0
 51 52  1  0  0  0  0
 51138  1  0  0  0  0
 51139  1  0  0  0  0
 52 53  1  0  0  0  0
 52140  1  0  0  0  0
 52141  1  0  0  0  0
 53 54  1  0  0  0  0
 53142  1  0  0  0  0
 53143  1  0  0  0  0
 54144  1  0  0  0  0
 54145  1  0  0  0  0
 54146  1  0  0  0  0
 55 56  1  0  0  0  0
 55147  1  1  0  0  0
 56 57  1  0  0  0  0
 56148  1  6  0  0  0
 57 58  1  0  0  0  0
 57149  1  1  0  0  0
 58 59  1  0  0  0  0
 58150  1  1  0  0  0
 59 60  1  0  0  0  0
 59151  1  1  0  0  0
 60152  1  0  0  0  0
 60153  1  0  0  0  0
M  CHG  1  21  -1
M  END
$$$$
/media/chris/experiments/cd1a-new-docking/inputs/ligands/7ryn_ligand.pdb
 OpenBabel07032312553D

153153  0  0  1  0  0  0  0  0999 V2000
  -33.0340   65.1330   62.2120 N   0  0  0  0  0  0  0  0  0  0  0  0
  -32.0220   67.3480   62.3220 C   0  0  0  0  0  0  0  0  0  0  0  0
  -31.4051   67.0024   63.5673 O   0  0  0  0  0  0  0  0  0  0  0  0
  -32.1830   66.0840   61.5030 C   0  0  1  0  0  0  0  0  0  0  0  0
  -30.2154   65.0225   62.4176 O   0  0  0  0  0  0  0  0  0  0  0  0
  -30.8310   65.4230   61.1900 C   0  0  2  0  0  0  0  0  0  0  0  0
  -34.2576   66.6787   63.2990 O   0  0  0  0  0  0  0  0  0  0  0  0
  -29.9369   66.3439   60.4177 C   0  0  0  0  0  0  0  0  0  0  0  0
  -29.0472   68.5087   63.4560 O   0  0  0  0  0  0  0  0  0  0  0  0
  -30.3493   67.2791   59.5850 C   0  0  0  0  0  0  0  0  0  0  0  0
  -29.4663   71.3004   63.7442 O   0  0  0  0  0  0  0  0  0  0  0  0
  -29.4320   68.1925   58.8402 C   0  0  0  0  0  0  0  0  0  0  0  0
  -32.1950   71.4092   63.9043 O   0  0  0  0  0  0  0  0  0  0  0  0
  -29.1569   69.4678   59.6396 C   0  0  0  0  0  0  0  0  0  0  0  0
  -32.4523   68.6756   64.7639 O   0  0  0  0  0  0  0  0  0  0  0  0
  -28.2419   70.4580   58.9376 C   0  0  0  0  0  0  0  0  0  0  0  0
  -34.4615   70.6093   64.8705 O   0  0  0  0  0  0  0  0  0  0  0  0
  -27.9539   71.7175   59.7369 C   0  0  0  0  0  0  0  0  0  0  0  0
  -27.6225   72.0302   62.3750 O   0  0  0  0  0  0  0  0  0  0  0  0
  -27.0511   72.7116   59.0211 C   0  0  0  0  0  0  0  0  0  0  0  0
  -28.0944   69.5812   62.6834 O   0  5  0  0  0  0  0  0  0  0  0  0
  -26.7537   73.9620   59.8343 C   0  0  0  0  0  0  0  0  0  0  0  0
  -27.2205   70.9190   64.4392 O   0  0  0  0  0  0  0  0  0  0  0  0
  -26.0422   73.6835   61.1467 C   0  0  0  0  0  0  0  0  0  0  0  0
  -24.6899   73.0140   60.9868 C   0  0  0  0  0  0  0  0  0  0  0  0
  -23.6886   73.8321   60.1895 C   0  0  0  0  0  0  0  0  0  0  0  0
  -23.3798   75.1751   60.8247 C   0  0  0  0  0  0  0  0  0  0  0  0
  -22.7748   75.0870   62.2128 C   0  0  0  0  0  0  0  0  0  0  0  0
  -22.4986   76.4505   62.8154 C   0  0  0  0  0  0  0  0  0  0  0  0
  -23.7551   77.2826   62.9688 C   0  0  0  0  0  0  0  0  0  0  0  0
  -34.0033   65.5031   63.0532 C   0  0  0  0  0  0  0  0  0  0  0  0
  -34.7826   64.3775   63.6864 C   0  0  0  0  0  0  0  0  0  0  0  0
  -36.2686   64.4370   63.3565 C   0  0  0  0  0  0  0  0  0  0  0  0
  -36.9201   65.7312   63.8165 C   0  0  0  0  0  0  0  0  0  0  0  0
  -36.8153   65.9760   65.3127 C   0  0  0  0  0  0  0  0  0  0  0  0
  -37.4825   67.2631   65.7738 C   0  0  0  0  0  0  0  0  0  0  0  0
  -37.3647   67.5205   67.2707 C   0  0  0  0  0  0  0  0  0  0  0  0
  -35.9291   67.6489   67.7635 C   0  0  0  0  0  0  0  0  0  0  0  0
  -35.0590   66.4211   67.5074 C   0  0  0  0  0  0  0  0  0  0  0  0
  -33.6264   66.5557   68.0213 C   0  0  0  0  0  0  0  0  0  0  0  0
  -32.7379   65.3404   67.7571 C   0  0  0  0  0  0  0  0  0  0  0  0
  -31.3161   65.4967   68.2970 C   0  0  0  0  0  0  0  0  0  0  0  0
  -30.3909   64.3079   68.0374 C   0  0  0  0  0  0  0  0  0  0  0  0
  -30.8668   62.9787   68.6298 C   0  0  0  0  0  0  0  0  0  0  0  0
  -31.0335   63.0312   70.1210 C   0  0  0  0  0  0  0  0  0  0  0  0
  -30.8749   62.0212   70.9580 C   0  0  0  0  0  0  0  0  0  0  0  0
  -30.4935   60.6201   70.5872 C   0  0  0  0  0  0  0  0  0  0  0  0
  -28.9832   60.3742   70.5860 C   0  0  0  0  0  0  0  0  0  0  0  0
  -28.6049   58.9528   70.1914 C   0  0  0  0  0  0  0  0  0  0  0  0
  -29.1997   57.8914   71.1101 C   0  0  0  0  0  0  0  0  0  0  0  0
  -30.7234   57.8739   71.1509 C   0  0  0  0  0  0  0  0  0  0  0  0
  -31.3695   57.5945   69.8012 C   0  0  0  0  0  0  0  0  0  0  0  0
  -30.9992   56.2476   69.2009 C   0  0  0  0  0  0  0  0  0  0  0  0
  -31.6441   56.0067   67.8511 C   0  0  0  0  0  0  0  0  0  0  0  0
  -31.2104   68.0828   64.4327 C   0  0  2  0  0  0  0  0  0  0  0  0
  -30.3138   69.0941   63.7304 C   0  0  1  0  0  0  0  0  0  0  0  0
  -30.1449   70.3308   64.6038 C   0  0  2  0  0  0  0  0  0  0  0  0
  -31.4954   70.8877   65.0296 C   0  0  2  0  0  0  0  0  0  0  0  0
  -32.3266   69.7807   65.6732 C   0  0  1  0  0  0  0  0  0  0  0  0
  -33.7288   70.2187   66.0260 C   0  0  0  0  0  0  0  0  0  0  0  0
  -28.0466   70.9183   63.1425 S   0  0  0  0  0  0  0  0  0  0  0  0
  -32.8861   64.1712   62.0627 H   0  0  0  0  0  0  0  0  0  0  0  0
  -31.4053   68.0450   61.7940 H   0  0  0  0  0  0  0  0  0  0  0  0
  -32.9770   67.7979   62.4965 H   0  0  0  0  0  0  0  0  0  0  0  0
  -32.6374   66.3625   60.5752 H   0  0  0  0  0  0  0  0  0  0  0  0
  -30.8116   64.4280   62.8994 H   0  0  0  0  0  0  0  0  0  0  0  0
  -30.9971   64.5628   60.5757 H   0  0  0  0  0  0  0  0  0  0  0  0
  -28.9186   66.2380   60.5475 H   0  0  0  0  0  0  0  0  0  0  0  0
  -29.1677   67.7231   62.8999 H   0  0  0  0  0  0  0  0  0  0  0  0
  -31.3654   67.3862   59.4394 H   0  0  0  0  0  0  0  0  0  0  0  0
  -29.8833   68.4558   57.9064 H   0  0  0  0  0  0  0  0  0  0  0  0
  -28.5038   67.6852   58.6791 H   0  0  0  0  0  0  0  0  0  0  0  0
  -31.6684   72.1129   63.4939 H   0  0  0  0  0  0  0  0  0  0  0  0
  -28.7023   69.1906   60.5677 H   0  0  0  0  0  0  0  0  0  0  0  0
  -30.0989   69.9584   59.7696 H   0  0  0  0  0  0  0  0  0  0  0  0
  -28.7025   70.7444   58.0153 H   0  0  0  0  0  0  0  0  0  0  0  0
  -27.3039   69.9626   58.7975 H   0  0  0  0  0  0  0  0  0  0  0  0
  -35.3545   70.8838   65.1313 H   0  0  0  0  0  0  0  0  0  0  0  0
  -27.4813   71.4334   60.6538 H   0  0  0  0  0  0  0  0  0  0  0  0
  -28.8925   72.2073   59.8917 H   0  0  0  0  0  0  0  0  0  0  0  0
  -28.1249   72.0612   61.5458 H   0  0  0  0  0  0  0  0  0  0  0  0
  -27.5286   73.0066   58.1101 H   0  0  0  0  0  0  0  0  0  0  0  0
  -26.1164   72.2193   58.8509 H   0  0  0  0  0  0  0  0  0  0  0  0
  -27.6798   74.4526   60.0499 H   0  0  0  0  0  0  0  0  0  0  0  0
  -26.0971   74.5682   59.2458 H   0  0  0  0  0  0  0  0  0  0  0  0
  -27.1647   71.8230   64.7865 H   0  0  0  0  0  0  0  0  0  0  0  0
  -26.6653   73.0458   61.7383 H   0  0  0  0  0  0  0  0  0  0  0  0
  -25.8648   74.6318   61.6095 H   0  0  0  0  0  0  0  0  0  0  0  0
  -24.8341   72.0785   60.4878 H   0  0  0  0  0  0  0  0  0  0  0  0
  -24.2831   72.8969   61.9695 H   0  0  0  0  0  0  0  0  0  0  0  0
  -24.0885   74.0014   59.2116 H   0  0  0  0  0  0  0  0  0  0  0  0
  -22.7750   73.2760   60.1570 H   0  0  0  0  0  0  0  0  0  0  0  0
  -24.2914   75.7312   60.8916 H   0  0  0  0  0  0  0  0  0  0  0  0
  -22.6484   75.6466   60.2021 H   0  0  0  0  0  0  0  0  0  0  0  0
  -21.8535   74.5463   62.1515 H   0  0  0  0  0  0  0  0  0  0  0  0
  -23.4822   74.5908   62.8439 H   0  0  0  0  0  0  0  0  0  0  0  0
  -21.8156   76.9745   62.1799 H   0  0  0  0  0  0  0  0  0  0  0  0
  -22.0890   76.2973   63.7919 H   0  0  0  0  0  0  0  0  0  0  0  0
  -24.1894   77.4534   62.0059 H   0  0  0  0  0  0  0  0  0  0  0  0
  -23.5086   78.2207   63.4204 H   0  0  0  0  0  0  0  0  0  0  0  0
  -24.4546   76.7613   63.5882 H   0  0  0  0  0  0  0  0  0  0  0  0
  -34.6646   64.4337   64.7484 H   0  0  0  0  0  0  0  0  0  0  0  0
  -34.4000   63.4579   63.2955 H   0  0  0  0  0  0  0  0  0  0  0  0
  -36.7592   63.6168   63.8378 H   0  0  0  0  0  0  0  0  0  0  0  0
  -36.3657   64.3867   62.2921 H   0  0  0  0  0  0  0  0  0  0  0  0
  -37.9565   65.6991   63.5523 H   0  0  0  0  0  0  0  0  0  0  0  0
  -36.3976   66.5305   63.3338 H   0  0  0  0  0  0  0  0  0  0  0  0
  -35.7789   66.0207   65.5751 H   0  0  0  0  0  0  0  0  0  0  0  0
  -37.3265   65.1700   65.7963 H   0  0  0  0  0  0  0  0  0  0  0  0
  -38.5212   67.2126   65.5218 H   0  0  0  0  0  0  0  0  0  0  0  0
  -36.9774   68.0674   65.2808 H   0  0  0  0  0  0  0  0  0  0  0  0
  -37.8277   66.7074   67.7898 H   0  0  0  0  0  0  0  0  0  0  0  0
  -37.8445   68.4572   67.4636 H   0  0  0  0  0  0  0  0  0  0  0  0
  -35.9527   67.8276   68.8182 H   0  0  0  0  0  0  0  0  0  0  0  0
  -35.4893   68.4536   67.2122 H   0  0  0  0  0  0  0  0  0  0  0  0
  -35.0229   66.2486   66.4520 H   0  0  0  0  0  0  0  0  0  0  0  0
  -35.5046   65.6090   68.0429 H   0  0  0  0  0  0  0  0  0  0  0  0
  -33.6650   66.7172   69.0784 H   0  0  0  0  0  0  0  0  0  0  0  0
  -33.1886   67.3729   67.4871 H   0  0  0  0  0  0  0  0  0  0  0  0
  -32.6836   65.1837   66.7000 H   0  0  0  0  0  0  0  0  0  0  0  0
  -33.1794   64.5102   68.2677 H   0  0  0  0  0  0  0  0  0  0  0  0
  -31.3775   65.6444   69.3550 H   0  0  0  0  0  0  0  0  0  0  0  0
  -30.8884   66.3273   67.7755 H   0  0  0  0  0  0  0  0  0  0  0  0
  -29.4330   64.5346   68.4568 H   0  0  0  0  0  0  0  0  0  0  0  0
  -30.3676   64.1721   66.9763 H   0  0  0  0  0  0  0  0  0  0  0  0
  -30.1481   62.2223   68.3928 H   0  0  0  0  0  0  0  0  0  0  0  0
  -31.8255   62.7630   68.2065 H   0  0  0  0  0  0  0  0  0  0  0  0
  -31.2967   63.9412   70.5305 H   0  0  0  0  0  0  0  0  0  0  0  0
  -31.0278   62.2152   71.9600 H   0  0  0  0  0  0  0  0  0  0  0  0
  -30.8699   60.4158   69.6066 H   0  0  0  0  0  0  0  0  0  0  0  0
  -30.9151   59.9743   71.3288 H   0  0  0  0  0  0  0  0  0  0  0  0
  -28.6072   60.5652   71.5693 H   0  0  0  0  0  0  0  0  0  0  0  0
  -28.5558   61.0301   69.8565 H   0  0  0  0  0  0  0  0  0  0  0  0
  -27.5388   58.8656   70.2180 H   0  0  0  0  0  0  0  0  0  0  0  0
  -29.0002   58.7807   69.2121 H   0  0  0  0  0  0  0  0  0  0  0  0
  -28.8406   58.0688   72.1024 H   0  0  0  0  0  0  0  0  0  0  0  0
  -28.8944   56.9436   70.7184 H   0  0  0  0  0  0  0  0  0  0  0  0
  -31.0629   58.8279   71.4967 H   0  0  0  0  0  0  0  0  0  0  0  0
  -31.0092   57.0766   71.8049 H   0  0  0  0  0  0  0  0  0  0  0  0
  -31.0665   58.3610   69.1189 H   0  0  0  0  0  0  0  0  0  0  0  0
  -32.4271   57.5790   69.9634 H   0  0  0  0  0  0  0  0  0  0  0  0
  -31.3141   55.4763   69.8723 H   0  0  0  0  0  0  0  0  0  0  0  0
  -29.9391   56.2409   69.0562 H   0  0  0  0  0  0  0  0  0  0  0  0
  -32.7086   56.0070   67.9592 H   0  0  0  0  0  0  0  0  0  0  0  0
  -31.3249   55.0603   67.4671 H   0  0  0  0  0  0  0  0  0  0  0  0
  -31.3541   56.7826   67.1737 H   0  0  0  0  0  0  0  0  0  0  0  0
  -30.7515   67.7503   65.3403 H   0  0  0  0  0  0  0  0  0  0  0  0
  -30.7674   69.3839   62.8057 H   0  0  0  0  0  0  0  0  0  0  0  0
  -29.6019   70.1103   65.4990 H   0  0  0  0  0  0  0  0  0  0  0  0
  -31.3342   71.6761   65.7349 H   0  0  0  0  0  0  0  0  0  0  0  0
  -31.8112   69.5117   66.5715 H   0  0  0  0  0  0  0  0  0  0  0  0
  -34.2372   69.4060   66.5014 H   0  0  0  0  0  0  0  0  0  0  0  0
  -33.6613   71.0623   66.6807 H   0  0  0  0  0  0  0  0  0  0  0  0
  1  4  1  0  0  0  0
  1 31  1  0  0  0  0
  1 62  1  0  0  0  0
  2  3  1  0  0  0  0
  2  4  1  0  0  0  0
  2 63  1  0  0  0  0
  2 64  1  0  0  0  0
  3 55  1  0  0  0  0
  4  6  1  0  0  0  0
  4 65  1  6  0  0  0
  5  6  1  0  0  0  0
  5 66  1  0  0  0  0
  6  8  1  0  0  0  0
  6 67  1  6  0  0  0
  7 31  2  0  0  0  0
  8 10  2  0  0  0  0
  8 68  1  0  0  0  0
  9 56  1  0  0  0  0
  9 69  1  0  0  0  0
 10 12  1  0  0  0  0
 10 70  1  0  0  0  0
 11 57  1  0  0  0  0
 11 61  1  0  0  0  0
 12 14  1  0  0  0  0
 12 71  1  0  0  0  0
 12 72  1  0  0  0  0
 13 58  1  0  0  0  0
 13 73  1  0  0  0  0
 14 16  1  0  0  0  0
 14 74  1  0  0  0  0
 14 75  1  0  0  0  0
 15 55  1  0  0  0  0
 15 59  1  0  0  0  0
 16 18  1  0  0  0  0
 16 76  1  0  0  0  0
 16 77  1  0  0  0  0
 17 60  1  0  0  0  0
 17 78  1  0  0  0  0
 18 20  1  0  0  0  0
 18 79  1  0  0  0  0
 18 80  1  0  0  0  0
 19 61  1  0  0  0  0
 19 81  1  0  0  0  0
 20 22  1  0  0  0  0
 20 82  1  0  0  0  0
 20 83  1  0  0  0  0
 21 61  1  0  0  0  0
 22 24  1  0  0  0  0
 22 84  1  0  0  0  0
 22 85  1  0  0  0  0
 23 61  1  0  0  0  0
 23 86  1  0  0  0  0
 24 25  1  0  0  0  0
 24 87  1  0  0  0  0
 24 88  1  0  0  0  0
 25 26  1  0  0  0  0
 25 89  1  0  0  0  0
 25 90  1  0  0  0  0
 26 27  1  0  0  0  0
 26 91  1  0  0  0  0
 26 92  1  0  0  0  0
 27 28  1  0  0  0  0
 27 93  1  0  0  0  0
 27 94  1  0  0  0  0
 28 29  1  0  0  0  0
 28 95  1  0  0  0  0
 28 96  1  0  0  0  0
 29 30  1  0  0  0  0
 29 97  1  0  0  0  0
 29 98  1  0  0  0  0
 30 99  1  0  0  0  0
 30100  1  0  0  0  0
 30101  1  0  0  0  0
 31 32  1  0  0  0  0
 32 33  1  0  0  0  0
 32102  1  0  0  0  0
 32103  1  0  0  0  0
 33 34  1  0  0  0  0
 33104  1  0  0  0  0
 33105  1  0  0  0  0
 34 35  1  0  0  0  0
 34106  1  0  0  0  0
 34107  1  0  0  0  0
 35 36  1  0  0  0  0
 35108  1  0  0  0  0
 35109  1  0  0  0  0
 36 37  1  0  0  0  0
 36110  1  0  0  0  0
 36111  1  0  0  0  0
 37 38  1  0  0  0  0
 37112  1  0  0  0  0
 37113  1  0  0  0  0
 38 39  1  0  0  0  0
 38114  1  0  0  0  0
 38115  1  0  0  0  0
 39 40  1  0  0  0  0
 39116  1  0  0  0  0
 39117  1  0  0  0  0
 40 41  1  0  0  0  0
 40118  1  0  0  0  0
 40119  1  0  0  0  0
 41 42  1  0  0  0  0
 41120  1  0  0  0  0
 41121  1  0  0  0  0
 42 43  1  0  0  0  0
 42122  1  0  0  0  0
 42123  1  0  0  0  0
 43 44  1  0  0  0  0
 43124  1  0  0  0  0
 43125  1  0  0  0  0
 44 45  1  0  0  0  0
 44126  1  0  0  0  0
 44127  1  0  0  0  0
 45 46  2  0  0  0  0
 45128  1  0  0  0  0
 46 47  1  0  0  0  0
 46129  1  0  0  0  0
 47 48  1  0  0  0  0
 47130  1  0  0  0  0
 47131  1  0  0  0  0
 48 49  1  0  0  0  0
 48132  1  0  0  0  0
 48133  1  0  0  0  0
 49 50  1  0  0  0  0
 49134  1  0  0  0  0
 49135  1  0  0  0  0
 50 51  1  0  0  0  0
 50136  1  0  0  0  0
 50137  1  0  0  0  0
 51 52  1  0  0  0  0
 51138  1  0  0  0  0
 51139  1  0  0  0  0
 52 53  1  0  0  0  0
 52140  1  0  0  0  0
 52141  1  0  0  0  0
 53 54  1  0  0  0  0
 53142  1  0  0  0  0
 53143  1  0  0  0  0
 54144  1  0  0  0  0
 54145  1  0  0  0  0
 54146  1  0  0  0  0
 55 56  1  0  0  0  0
 55147  1  1  0  0  0
 56 57  1  0  0  0  0
 56148  1  6  0  0  0
 57 58  1  0  0  0  0
 57149  1  1  0  0  0
 58 59  1  0  0  0  0
 58150  1  1  0  0  0
 59 60  1  0  0  0  0
 59151  1  1  0  0  0
 60152  1  0  0  0  0
 60153  1  0  0  0  0
M  CHG  1  21  -1
M  END
$$$$
/media/chris/experiments/cd1a-new-docking/inputs/ligands/7ryn_ligand.pdb
 OpenBabel07032312553D

153153  0  0  1  0  0  0  0  0999 V2000
  -33.0340   65.1330   62.2120 N   0  0  0  0  0  0  0  0  0  0  0  0
  -32.0220   67.3480   62.3220 C   0  0  0  0  0  0  0  0  0  0  0  0
  -31.1969   68.2589   61.5870 O   0  0  0  0  0  0  0  0  0  0  0  0
  -32.1830   66.0840   61.5030 C   0  0  1  0  0  0  0  0  0  0  0  0
  -30.2154   65.0225   62.4176 O   0  0  0  0  0  0  0  0  0  0  0  0
  -30.8310   65.4230   61.1900 C   0  0  2  0  0  0  0  0  0  0  0  0
  -35.0054   64.5907   63.1540 O   0  0  0  0  0  0  0  0  0  0  0  0
  -29.9369   66.3439   60.4177 C   0  0  0  0  0  0  0  0  0  0  0  0
  -32.9308   70.4319   61.2513 O   0  0  0  0  0  0  0  0  0  0  0  0
  -30.3493   67.2791   59.5850 C   0  0  0  0  0  0  0  0  0  0  0  0
  -33.4310   71.8685   63.6467 O   0  0  0  0  0  0  0  0  0  0  0  0
  -29.4320   68.1925   58.8402 C   0  0  0  0  0  0  0  0  0  0  0  0
  -32.0199   70.3807   65.4572 O   0  0  0  0  0  0  0  0  0  0  0  0
  -29.6083   68.0365   57.3283 C   0  0  0  0  0  0  0  0  0  0  0  0
  -30.2839   69.2401   63.4665 O   0  0  0  0  0  0  0  0  0  0  0  0
  -29.3405   66.6323   56.8115 C   0  0  0  0  0  0  0  0  0  0  0  0
  -29.8754   69.1472   66.2254 O   0  0  0  0  0  0  0  0  0  0  0  0
  -30.2537   65.5673   57.3942 C   0  0  0  0  0  0  0  0  0  0  0  0
  -34.9849   73.3767   64.7040 O   0  0  0  0  0  0  0  0  0  0  0  0
  -29.9688   64.1618   56.8852 C   0  0  0  0  0  0  0  0  0  0  0  0
  -32.7374   74.1926   63.9306 O   0  5  0  0  0  0  0  0  0  0  0  0
  -30.0990   64.0205   55.3765 C   0  0  0  0  0  0  0  0  0  0  0  0
  -32.9709   72.7578   65.8076 O   0  0  0  0  0  0  0  0  0  0  0  0
  -31.4781   64.3707   54.8459 C   0  0  0  0  0  0  0  0  0  0  0  0
  -32.5963   63.5233   55.4235 C   0  0  0  0  0  0  0  0  0  0  0  0
  -33.9722   63.8650   54.8779 C   0  0  0  0  0  0  0  0  0  0  0  0
  -34.3721   65.3057   55.1365 C   0  0  0  0  0  0  0  0  0  0  0  0
  -33.4512   66.3338   54.5079 C   0  0  0  0  0  0  0  0  0  0  0  0
  -33.8781   67.7577   54.8056 C   0  0  0  0  0  0  0  0  0  0  0  0
  -33.8816   68.0644   56.2890 C   0  0  0  0  0  0  0  0  0  0  0  0
  -34.3010   65.3918   62.5466 C   0  0  0  0  0  0  0  0  0  0  0  0
  -34.8204   66.7470   62.1356 C   0  0  0  0  0  0  0  0  0  0  0  0
  -36.2638   66.9752   62.5659 C   0  0  0  0  0  0  0  0  0  0  0  0
  -36.7956   68.3337   62.1381 C   0  0  0  0  0  0  0  0  0  0  0  0
  -36.7993   68.5479   60.6336 C   0  0  0  0  0  0  0  0  0  0  0  0
  -37.3158   69.9141   60.2080 C   0  0  0  0  0  0  0  0  0  0  0  0
  -36.4993   71.0813   60.7481 C   0  0  0  0  0  0  0  0  0  0  0  0
  -35.0443   71.0772   60.2972 C   0  0  0  0  0  0  0  0  0  0  0  0
  -34.2082   72.2316   60.8439 C   0  0  0  0  0  0  0  0  0  0  0  0
  -34.7315   73.6148   60.4604 C   0  0  0  0  0  0  0  0  0  0  0  0
  -34.8112   73.8713   58.9557 C   0  0  0  0  0  0  0  0  0  0  0  0
  -35.3217   75.2684   58.6024 C   0  0  0  0  0  0  0  0  0  0  0  0
  -36.7175   75.6001   59.1298 C   0  0  0  0  0  0  0  0  0  0  0  0
  -36.8575   75.5597   60.6539 C   0  0  0  0  0  0  0  0  0  0  0  0
  -35.9586   76.5415   61.3484 C   0  0  0  0  0  0  0  0  0  0  0  0
  -36.2048   77.1439   62.4983 C   0  0  0  0  0  0  0  0  0  0  0  0
  -37.4303   76.9659   63.3424 C   0  0  0  0  0  0  0  0  0  0  0  0
  -38.6856   76.6211   62.5383 C   0  0  0  0  0  0  0  0  0  0  0  0
  -39.9289   76.4590   63.4028 C   0  0  0  0  0  0  0  0  0  0  0  0
  -41.1773   76.0987   62.6054 C   0  0  0  0  0  0  0  0  0  0  0  0
  -41.0805   74.7831   61.8414 C   0  0  0  0  0  0  0  0  0  0  0  0
  -42.3290   74.4477   61.0378 C   0  0  0  0  0  0  0  0  0  0  0  0
  -42.2491   73.1289   60.2854 C   0  0  0  0  0  0  0  0  0  0  0  0
  -43.4993   72.8320   59.4823 C   0  0  0  0  0  0  0  0  0  0  0  0
  -30.9530   69.4703   62.2406 C   0  0  2  0  0  0  0  0  0  0  0  0
  -32.2933   70.1495   62.4906 C   0  0  1  0  0  0  0  0  0  0  0  0
  -32.0829   71.4352   63.2803 C   0  0  2  0  0  0  0  0  0  0  0  0
  -31.2728   71.1754   64.5419 C   0  0  2  0  0  0  0  0  0  0  0  0
  -29.9796   70.4491   64.1802 C   0  0  1  0  0  0  0  0  0  0  0  0
  -29.1637   70.0508   65.3877 C   0  0  0  0  0  0  0  0  0  0  0  0
  -33.5968   73.2117   64.4786 S   0  0  0  0  0  0  0  0  0  0  0  0
  -32.6553   64.2575   62.4556 H   0  0  0  0  0  0  0  0  0  0  0  0
  -32.9806   67.7896   62.4978 H   0  0  0  0  0  0  0  0  0  0  0  0
  -31.5704   67.1208   63.2650 H   0  0  0  0  0  0  0  0  0  0  0  0
  -32.6374   66.3625   60.5752 H   0  0  0  0  0  0  0  0  0  0  0  0
  -30.8116   64.4280   62.8994 H   0  0  0  0  0  0  0  0  0  0  0  0
  -30.9971   64.5628   60.5757 H   0  0  0  0  0  0  0  0  0  0  0  0
  -28.9186   66.2380   60.5475 H   0  0  0  0  0  0  0  0  0  0  0  0
  -33.0591   69.6065   60.7582 H   0  0  0  0  0  0  0  0  0  0  0  0
  -31.3654   67.3862   59.4394 H   0  0  0  0  0  0  0  0  0  0  0  0
  -28.4204   67.9601   59.1000 H   0  0  0  0  0  0  0  0  0  0  0  0
  -29.6663   69.2018   59.1075 H   0  0  0  0  0  0  0  0  0  0  0  0
  -32.8421   70.8405   65.6883 H   0  0  0  0  0  0  0  0  0  0  0  0
  -28.9330   68.7080   56.8406 H   0  0  0  0  0  0  0  0  0  0  0  0
  -30.6343   68.2523   57.1145 H   0  0  0  0  0  0  0  0  0  0  0  0
  -28.3298   66.3743   57.0502 H   0  0  0  0  0  0  0  0  0  0  0  0
  -29.5264   66.6526   55.7580 H   0  0  0  0  0  0  0  0  0  0  0  0
  -29.3250   68.9123   66.9889 H   0  0  0  0  0  0  0  0  0  0  0  0
  -31.2639   65.8172   57.1450 H   0  0  0  0  0  0  0  0  0  0  0  0
  -30.0810   65.5552   58.4501 H   0  0  0  0  0  0  0  0  0  0  0  0
  -35.4139   73.6640   63.8828 H   0  0  0  0  0  0  0  0  0  0  0  0
  -30.6592   63.4882   57.3485 H   0  0  0  0  0  0  0  0  0  0  0  0
  -28.9522   63.9390   57.1339 H   0  0  0  0  0  0  0  0  0  0  0  0
  -29.8834   63.0062   55.1126 H   0  0  0  0  0  0  0  0  0  0  0  0
  -29.4108   64.7123   54.9377 H   0  0  0  0  0  0  0  0  0  0  0  0
  -33.5340   72.0818   66.2160 H   0  0  0  0  0  0  0  0  0  0  0  0
  -31.4725   64.2415   53.7837 H   0  0  0  0  0  0  0  0  0  0  0  0
  -31.6740   65.3814   55.1375 H   0  0  0  0  0  0  0  0  0  0  0  0
  -32.6106   63.6619   56.4844 H   0  0  0  0  0  0  0  0  0  0  0  0
  -32.3943   62.5103   55.1443 H   0  0  0  0  0  0  0  0  0  0  0  0
  -34.6918   63.2230   55.3416 H   0  0  0  0  0  0  0  0  0  0  0  0
  -33.9388   63.7278   53.8173 H   0  0  0  0  0  0  0  0  0  0  0  0
  -34.3803   65.4661   56.1944 H   0  0  0  0  0  0  0  0  0  0  0  0
  -35.3335   65.4413   54.6869 H   0  0  0  0  0  0  0  0  0  0  0  0
  -33.4508   66.1907   53.4475 H   0  0  0  0  0  0  0  0  0  0  0  0
  -32.4759   66.1937   54.9252 H   0  0  0  0  0  0  0  0  0  0  0  0
  -34.8658   67.9071   54.4221 H   0  0  0  0  0  0  0  0  0  0  0  0
  -33.1719   68.4129   54.3399 H   0  0  0  0  0  0  0  0  0  0  0  0
  -34.5805   67.4232   56.7841 H   0  0  0  0  0  0  0  0  0  0  0  0
  -34.1640   69.0851   56.4415 H   0  0  0  0  0  0  0  0  0  0  0  0
  -32.9027   67.9015   56.6891 H   0  0  0  0  0  0  0  0  0  0  0  0
  -34.7635   66.8274   61.0701 H   0  0  0  0  0  0  0  0  0  0  0  0
  -34.2169   67.4862   62.6195 H   0  0  0  0  0  0  0  0  0  0  0  0
  -36.3181   66.9067   63.6323 H   0  0  0  0  0  0  0  0  0  0  0  0
  -36.8648   66.2284   62.0904 H   0  0  0  0  0  0  0  0  0  0  0  0
  -36.1849   69.0903   62.5846 H   0  0  0  0  0  0  0  0  0  0  0  0
  -37.8144   68.3840   62.4613 H   0  0  0  0  0  0  0  0  0  0  0  0
  -37.4201   67.7990   60.1879 H   0  0  0  0  0  0  0  0  0  0  0  0
  -35.7820   68.4846   60.3079 H   0  0  0  0  0  0  0  0  0  0  0  0
  -38.3219   70.0172   60.5574 H   0  0  0  0  0  0  0  0  0  0  0  0
  -37.2439   69.9536   59.1411 H   0  0  0  0  0  0  0  0  0  0  0  0
  -36.5208   71.0415   61.8171 H   0  0  0  0  0  0  0  0  0  0  0  0
  -36.9419   71.9754   60.3614 H   0  0  0  0  0  0  0  0  0  0  0  0
  -35.0255   71.1279   59.2285 H   0  0  0  0  0  0  0  0  0  0  0  0
  -34.6094   70.1782   60.6814 H   0  0  0  0  0  0  0  0  0  0  0  0
  -33.2115   72.1328   60.4674 H   0  0  0  0  0  0  0  0  0  0  0  0
  -34.2541   72.1684   61.9110 H   0  0  0  0  0  0  0  0  0  0  0  0
  -34.0814   74.3482   60.8899 H   0  0  0  0  0  0  0  0  0  0  0  0
  -35.7336   73.6730   60.8311 H   0  0  0  0  0  0  0  0  0  0  0  0
  -35.4724   73.1496   58.5235 H   0  0  0  0  0  0  0  0  0  0  0  0
  -33.8165   73.7923   58.5694 H   0  0  0  0  0  0  0  0  0  0  0  0
  -35.3409   75.3547   57.5360 H   0  0  0  0  0  0  0  0  0  0  0  0
  -34.6529   75.9584   59.0731 H   0  0  0  0  0  0  0  0  0  0  0  0
  -37.4062   74.8946   58.7140 H   0  0  0  0  0  0  0  0  0  0  0  0
  -36.9167   76.6098   58.8370 H   0  0  0  0  0  0  0  0  0  0  0  0
  -36.6144   74.5746   60.9933 H   0  0  0  0  0  0  0  0  0  0  0  0
  -37.8668   75.8243   60.8911 H   0  0  0  0  0  0  0  0  0  0  0  0
  -35.0649   76.7668   60.8842 H   0  0  0  0  0  0  0  0  0  0  0  0
  -35.4866   77.7975   62.8476 H   0  0  0  0  0  0  0  0  0  0  0  0
  -37.6094   77.8769   63.8744 H   0  0  0  0  0  0  0  0  0  0  0  0
  -37.2420   76.1411   63.9976 H   0  0  0  0  0  0  0  0  0  0  0  0
  -38.5131   75.7033   62.0161 H   0  0  0  0  0  0  0  0  0  0  0  0
  -38.8682   77.4368   61.8702 H   0  0  0  0  0  0  0  0  0  0  0  0
  -40.1081   77.3809   63.9155 H   0  0  0  0  0  0  0  0  0  0  0  0
  -39.7410   75.6508   64.0783 H   0  0  0  0  0  0  0  0  0  0  0  0
  -41.3614   76.8821   61.9003 H   0  0  0  0  0  0  0  0  0  0  0  0
  -41.9690   75.9811   63.3156 H   0  0  0  0  0  0  0  0  0  0  0  0
  -40.9105   73.9955   62.5455 H   0  0  0  0  0  0  0  0  0  0  0  0
  -40.2774   74.8866   61.1420 H   0  0  0  0  0  0  0  0  0  0  0  0
  -42.4909   75.2307   60.3267 H   0  0  0  0  0  0  0  0  0  0  0  0
  -43.1310   74.3536   61.7398 H   0  0  0  0  0  0  0  0  0  0  0  0
  -42.1028   72.3401   60.9934 H   0  0  0  0  0  0  0  0  0  0  0  0
  -41.4341   73.2013   59.5959 H   0  0  0  0  0  0  0  0  0  0  0  0
  -44.3372   72.7528   60.1429 H   0  0  0  0  0  0  0  0  0  0  0  0
  -43.3732   71.9100   58.9540 H   0  0  0  0  0  0  0  0  0  0  0  0
  -43.6702   73.6234   58.7827 H   0  0  0  0  0  0  0  0  0  0  0  0
  -30.3291   70.0960   61.6371 H   0  0  0  0  0  0  0  0  0  0  0  0
  -32.9193   69.4938   63.0591 H   0  0  0  0  0  0  0  0  0  0  0  0
  -31.5471   72.1651   62.7102 H   0  0  0  0  0  0  0  0  0  0  0  0
  -31.0444   72.1140   65.0021 H   0  0  0  0  0  0  0  0  0  0  0  0
  -29.4118   71.1378   63.5901 H   0  0  0  0  0  0  0  0  0  0  0  0
  -28.2611   69.5805   65.0573 H   0  0  0  0  0  0  0  0  0  0  0  0
  -28.9495   70.9336   65.9532 H   0  0  0  0  0  0  0  0  0  0  0  0
  1  4  1  0  0  0  0
  1 31  1  0  0  0  0
  1 62  1  0  0  0  0
  2  3  1  0  0  0  0
  2  4  1  0  0  0  0
  2 63  1  0  0  0  0
  2 64  1  0  0  0  0
  3 55  1  0  0  0  0
  4  6  1  0  0  0  0
  4 65  1  6  0  0  0
  5  6  1  0  0  0  0
  5 66  1  0  0  0  0
  6  8  1  0  0  0  0
  6 67  1  6  0  0  0
  7 31  2  0  0  0  0
  8 10  2  0  0  0  0
  8 68  1  0  0  0  0
  9 56  1  0  0  0  0
  9 69  1  0  0  0  0
 10 12  1  0  0  0  0
 10 70  1  0  0  0  0
 11 57  1  0  0  0  0
 11 61  1  0  0  0  0
 12 14  1  0  0  0  0
 12 71  1  0  0  0  0
 12 72  1  0  0  0  0
 13 58  1  0  0  0  0
 13 73  1  0  0  0  0
 14 16  1  0  0  0  0
 14 74  1  0  0  0  0
 14 75  1  0  0  0  0
 15 55  1  0  0  0  0
 15 59  1  0  0  0  0
 16 18  1  0  0  0  0
 16 76  1  0  0  0  0
 16 77  1  0  0  0  0
 17 60  1  0  0  0  0
 17 78  1  0  0  0  0
 18 20  1  0  0  0  0
 18 79  1  0  0  0  0
 18 80  1  0  0  0  0
 19 61  1  0  0  0  0
 19 81  1  0  0  0  0
 20 22  1  0  0  0  0
 20 82  1  0  0  0  0
 20 83  1  0  0  0  0
 21 61  1  0  0  0  0
 22 24  1  0  0  0  0
 22 84  1  0  0  0  0
 22 85  1  0  0  0  0
 23 61  1  0  0  0  0
 23 86  1  0  0  0  0
 24 25  1  0  0  0  0
 24 87  1  0  0  0  0
 24 88  1  0  0  0  0
 25 26  1  0  0  0  0
 25 89  1  0  0  0  0
 25 90  1  0  0  0  0
 26 27  1  0  0  0  0
 26 91  1  0  0  0  0
 26 92  1  0  0  0  0
 27 28  1  0  0  0  0
 27 93  1  0  0  0  0
 27 94  1  0  0  0  0
 28 29  1  0  0  0  0
 28 95  1  0  0  0  0
 28 96  1  0  0  0  0
 29 30  1  0  0  0  0
 29 97  1  0  0  0  0
 29 98  1  0  0  0  0
 30 99  1  0  0  0  0
 30100  1  0  0  0  0
 30101  1  0  0  0  0
 31 32  1  0  0  0  0
 32 33  1  0  0  0  0
 32102  1  0  0  0  0
 32103  1  0  0  0  0
 33 34  1  0  0  0  0
 33104  1  0  0  0  0
 33105  1  0  0  0  0
 34 35  1  0  0  0  0
 34106  1  0  0  0  0
 34107  1  0  0  0  0
 35 36  1  0  0  0  0
 35108  1  0  0  0  0
 35109  1  0  0  0  0
 36 37  1  0  0  0  0
 36110  1  0  0  0  0
 36111  1  0  0  0  0
 37 38  1  0  0  0  0
 37112  1  0  0  0  0
 37113  1  0  0  0  0
 38 39  1  0  0  0  0
 38114  1  0  0  0  0
 38115  1  0  0  0  0
 39 40  1  0  0  0  0
 39116  1  0  0  0  0
 39117  1  0  0  0  0
 40 41  1  0  0  0  0
 40118  1  0  0  0  0
 40119  1  0  0  0  0
 41 42  1  0  0  0  0
 41120  1  0  0  0  0
 41121  1  0  0  0  0
 42 43  1  0  0  0  0
 42122  1  0  0  0  0
 42123  1  0  0  0  0
 43 44  1  0  0  0  0
 43124  1  0  0  0  0
 43125  1  0  0  0  0
 44 45  1  0  0  0  0
 44126  1  0  0  0  0
 44127  1  0  0  0  0
 45 46  2  0  0  0  0
 45128  1  0  0  0  0
 46 47  1  0  0  0  0
 46129  1  0  0  0  0
 47 48  1  0  0  0  0
 47130  1  0  0  0  0
 47131  1  0  0  0  0
 48 49  1  0  0  0  0
 48132  1  0  0  0  0
 48133  1  0  0  0  0
 49 50  1  0  0  0  0
 49134  1  0  0  0  0
 49135  1  0  0  0  0
 50 51  1  0  0  0  0
 50136  1  0  0  0  0
 50137  1  0  0  0  0
 51 52  1  0  0  0  0
 51138  1  0  0  0  0
 51139  1  0  0  0  0
 52 53  1  0  0  0  0
 52140  1  0  0  0  0
 52141  1  0  0  0  0
 53 54  1  0  0  0  0
 53142  1  0  0  0  0
 53143  1  0  0  0  0
 54144  1  0  0  0  0
 54145  1  0  0  0  0
 54146  1  0  0  0  0
 55 56  1  0  0  0  0
 55147  1  6  0  0  0
 56 57  1  0  0  0  0
 56148  1  1  0  0  0
 57 58  1  0  0  0  0
 57149  1  6  0  0  0
 58 59  1  0  0  0  0
 58150  1  1  0  0  0
 59 60  1  0  0  0  0
 59151  1  6  0  0  0
 60152  1  0  0  0  0
 60153  1  0  0  0  0
M  CHG  1  21  -1
M  END
$$$$
/media/chris/experiments/cd1a-new-docking/inputs/ligands/7ryn_ligand.pdb
 OpenBabel07032312553D

153153  0  0  1  0  0  0  0  0999 V2000
  -33.0340   65.1330   62.2120 N   0  0  0  0  0  0  0  0  0  0  0  0
  -32.0220   67.3480   62.3220 C   0  0  0  0  0  0  0  0  0  0  0  0
  -31.1969   68.2589   61.5870 O   0  0  0  0  0  0  0  0  0  0  0  0
  -32.1830   66.0840   61.5030 C   0  0  1  0  0  0  0  0  0  0  0  0
  -30.2154   65.0225   62.4176 O   0  0  0  0  0  0  0  0  0  0  0  0
  -30.8310   65.4230   61.1900 C   0  0  2  0  0  0  0  0  0  0  0  0
  -34.5420   63.4616   62.1958 O   0  0  0  0  0  0  0  0  0  0  0  0
  -29.9369   66.3439   60.4177 C   0  0  0  0  0  0  0  0  0  0  0  0
  -32.9308   70.4319   61.2513 O   0  0  0  0  0  0  0  0  0  0  0  0
  -28.7231   66.0464   59.9980 C   0  0  0  0  0  0  0  0  0  0  0  0
  -33.4310   71.8685   63.6467 O   0  0  0  0  0  0  0  0  0  0  0  0
  -27.8610   66.9824   59.2161 C   0  0  0  0  0  0  0  0  0  0  0  0
  -32.0199   70.3807   65.4572 O   0  0  0  0  0  0  0  0  0  0  0  0
  -27.5713   68.2574   60.0107 C   0  0  0  0  0  0  0  0  0  0  0  0
  -30.2839   69.2401   63.4665 O   0  0  0  0  0  0  0  0  0  0  0  0
  -26.7108   69.2698   59.2723 C   0  0  0  0  0  0  0  0  0  0  0  0
  -29.8754   69.1472   66.2254 O   0  0  0  0  0  0  0  0  0  0  0  0
  -27.3194   69.7807   57.9775 C   0  0  0  0  0  0  0  0  0  0  0  0
  -34.9849   73.3767   64.7040 O   0  0  0  0  0  0  0  0  0  0  0  0
  -28.6505   70.4955   58.1593 C   0  0  0  0  0  0  0  0  0  0  0  0
  -32.7374   74.1926   63.9306 O   0  5  0  0  0  0  0  0  0  0  0  0
  -28.5654   71.7289   59.0451 C   0  0  0  0  0  0  0  0  0  0  0  0
  -32.9709   72.7578   65.8076 O   0  0  0  0  0  0  0  0  0  0  0  0
  -27.6310   72.8012   58.5129 C   0  0  0  0  0  0  0  0  0  0  0  0
  -28.0268   73.3468   57.1534 C   0  0  0  0  0  0  0  0  0  0  0  0
  -29.3962   74.0040   57.1290 C   0  0  0  0  0  0  0  0  0  0  0  0
  -30.5140   73.0619   57.5357 C   0  0  0  0  0  0  0  0  0  0  0  0
  -31.8977   73.6821   57.5057 C   0  0  0  0  0  0  0  0  0  0  0  0
  -32.0181   74.8824   58.4241 C   0  0  0  0  0  0  0  0  0  0  0  0
  -31.7248   74.5386   59.8699 C   0  0  0  0  0  0  0  0  0  0  0  0
  -33.8200   64.2493   61.5913 C   0  0  0  0  0  0  0  0  0  0  0  0
  -33.7740   64.2810   60.0839 C   0  0  0  0  0  0  0  0  0  0  0  0
  -34.8086   65.2264   59.4870 C   0  0  0  0  0  0  0  0  0  0  0  0
  -36.2321   64.8569   59.8721 C   0  0  0  0  0  0  0  0  0  0  0  0
  -37.2888   65.7727   59.2772 C   0  0  0  0  0  0  0  0  0  0  0  0
  -38.7116   65.4118   59.6772 C   0  0  0  0  0  0  0  0  0  0  0  0
  -39.1306   64.0038   59.2739 C   0  0  0  0  0  0  0  0  0  0  0  0
  -40.5612   63.6513   59.6607 C   0  0  0  0  0  0  0  0  0  0  0  0
  -40.9909   62.2372   59.2783 C   0  0  0  0  0  0  0  0  0  0  0  0
  -42.4327   61.9016   59.6561 C   0  0  0  0  0  0  0  0  0  0  0  0
  -43.4874   62.7905   58.9974 C   0  0  0  0  0  0  0  0  0  0  0  0
  -43.3255   64.2744   59.3277 C   0  0  0  0  0  0  0  0  0  0  0  0
  -44.3724   65.1949   58.7006 C   0  0  0  0  0  0  0  0  0  0  0  0
  -44.4279   65.1610   57.1710 C   0  0  0  0  0  0  0  0  0  0  0  0
  -44.7618   63.8011   56.6294 C   0  0  0  0  0  0  0  0  0  0  0  0
  -44.0058   63.0772   55.8230 C   0  0  0  0  0  0  0  0  0  0  0  0
  -42.6610   63.4671   55.2889 C   0  0  0  0  0  0  0  0  0  0  0  0
  -42.7226   64.2153   53.9555 C   0  0  0  0  0  0  0  0  0  0  0  0
  -41.3506   64.5922   53.4126 C   0  0  0  0  0  0  0  0  0  0  0  0
  -40.4552   63.3882   53.1428 C   0  0  0  0  0  0  0  0  0  0  0  0
  -39.0688   63.7384   52.6143 C   0  0  0  0  0  0  0  0  0  0  0  0
  -38.1947   62.5239   52.3347 C   0  0  0  0  0  0  0  0  0  0  0  0
  -37.9468   61.6428   53.5487 C   0  0  0  0  0  0  0  0  0  0  0  0
  -37.0603   60.4528   53.2421 C   0  0  0  0  0  0  0  0  0  0  0  0
  -30.9530   69.4703   62.2406 C   0  0  2  0  0  0  0  0  0  0  0  0
  -32.2933   70.1495   62.4906 C   0  0  1  0  0  0  0  0  0  0  0  0
  -32.0829   71.4352   63.2803 C   0  0  2  0  0  0  0  0  0  0  0  0
  -31.2728   71.1754   64.5419 C   0  0  2  0  0  0  0  0  0  0  0  0
  -29.9796   70.4491   64.1802 C   0  0  1  0  0  0  0  0  0  0  0  0
  -29.1637   70.0508   65.3877 C   0  0  0  0  0  0  0  0  0  0  0  0
  -33.5968   73.2117   64.4786 S   0  0  0  0  0  0  0  0  0  0  0  0
  -33.0282   65.1436   63.1964 H   0  0  0  0  0  0  0  0  0  0  0  0
  -32.9806   67.7896   62.4978 H   0  0  0  0  0  0  0  0  0  0  0  0
  -31.5704   67.1208   63.2650 H   0  0  0  0  0  0  0  0  0  0  0  0
  -32.6374   66.3625   60.5752 H   0  0  0  0  0  0  0  0  0  0  0  0
  -30.8116   64.4280   62.8994 H   0  0  0  0  0  0  0  0  0  0  0  0
  -30.9971   64.5628   60.5757 H   0  0  0  0  0  0  0  0  0  0  0  0
  -30.2993   67.2846   60.1969 H   0  0  0  0  0  0  0  0  0  0  0  0
  -33.0591   69.6065   60.7582 H   0  0  0  0  0  0  0  0  0  0  0  0
  -28.3466   65.1122   60.2228 H   0  0  0  0  0  0  0  0  0  0  0  0
  -28.3625   67.2431   58.3075 H   0  0  0  0  0  0  0  0  0  0  0  0
  -26.9323   66.4942   59.0059 H   0  0  0  0  0  0  0  0  0  0  0  0
  -32.8421   70.8405   65.6883 H   0  0  0  0  0  0  0  0  0  0  0  0
  -27.0665   67.9828   60.9133 H   0  0  0  0  0  0  0  0  0  0  0  0
  -28.5149   68.7288   60.1904 H   0  0  0  0  0  0  0  0  0  0  0  0
  -25.7730   68.8086   59.0428 H   0  0  0  0  0  0  0  0  0  0  0  0
  -26.6103   70.1164   59.9189 H   0  0  0  0  0  0  0  0  0  0  0  0
  -29.3250   68.9123   66.9889 H   0  0  0  0  0  0  0  0  0  0  0  0
  -27.4719   68.9463   57.3252 H   0  0  0  0  0  0  0  0  0  0  0  0
  -26.6349   70.4981   57.5756 H   0  0  0  0  0  0  0  0  0  0  0  0
  -35.4139   73.6640   63.8828 H   0  0  0  0  0  0  0  0  0  0  0  0
  -29.3446   69.8105   58.5996 H   0  0  0  0  0  0  0  0  0  0  0  0
  -28.9626   70.8267   57.1909 H   0  0  0  0  0  0  0  0  0  0  0  0
  -28.2177   71.4274   60.0111 H   0  0  0  0  0  0  0  0  0  0  0  0
  -29.5453   72.1574   59.0786 H   0  0  0  0  0  0  0  0  0  0  0  0
  -33.5340   72.0818   66.2160 H   0  0  0  0  0  0  0  0  0  0  0  0
  -26.6492   72.3831   58.4345 H   0  0  0  0  0  0  0  0  0  0  0  0
  -27.6771   73.6202   59.2000 H   0  0  0  0  0  0  0  0  0  0  0  0
  -28.0289   72.5377   56.4533 H   0  0  0  0  0  0  0  0  0  0  0  0
  -27.3141   74.1046   56.9033 H   0  0  0  0  0  0  0  0  0  0  0  0
  -29.5890   74.3531   56.1361 H   0  0  0  0  0  0  0  0  0  0  0  0
  -29.3792   74.8051   57.8381 H   0  0  0  0  0  0  0  0  0  0  0  0
  -30.3204   72.7233   58.5320 H   0  0  0  0  0  0  0  0  0  0  0  0
  -30.5198   72.2673   56.8190 H   0  0  0  0  0  0  0  0  0  0  0  0
  -32.6106   72.9446   57.8104 H   0  0  0  0  0  0  0  0  0  0  0  0
  -32.0807   74.0186   56.5066 H   0  0  0  0  0  0  0  0  0  0  0  0
  -33.0146   75.2663   58.3581 H   0  0  0  0  0  0  0  0  0  0  0  0
  -31.2957   75.6063   58.1092 H   0  0  0  0  0  0  0  0  0  0  0  0
  -32.4328   73.8144   60.2150 H   0  0  0  0  0  0  0  0  0  0  0  0
  -31.7981   75.4224   60.4686 H   0  0  0  0  0  0  0  0  0  0  0  0
  -30.7364   74.1363   59.9474 H   0  0  0  0  0  0  0  0  0  0  0  0
  -33.9580   63.2938   59.7144 H   0  0  0  0  0  0  0  0  0  0  0  0
  -32.8063   64.6355   59.7963 H   0  0  0  0  0  0  0  0  0  0  0  0
  -34.7240   65.1974   58.4207 H   0  0  0  0  0  0  0  0  0  0  0  0
  -34.6130   66.2050   59.8729 H   0  0  0  0  0  0  0  0  0  0  0  0
  -36.3137   64.8964   60.9383 H   0  0  0  0  0  0  0  0  0  0  0  0
  -36.4149   63.8774   59.4820 H   0  0  0  0  0  0  0  0  0  0  0  0
  -37.2158   65.7236   58.2108 H   0  0  0  0  0  0  0  0  0  0  0  0
  -37.0986   66.7549   59.6567 H   0  0  0  0  0  0  0  0  0  0  0  0
  -39.3785   66.1075   59.2123 H   0  0  0  0  0  0  0  0  0  0  0  0
  -38.7525   65.4528   60.7457 H   0  0  0  0  0  0  0  0  0  0  0  0
  -38.4718   63.3071   59.7487 H   0  0  0  0  0  0  0  0  0  0  0  0
  -39.0770   63.9575   58.2062 H   0  0  0  0  0  0  0  0  0  0  0  0
  -41.2184   64.3427   59.1759 H   0  0  0  0  0  0  0  0  0  0  0  0
  -40.6097   63.7056   60.7282 H   0  0  0  0  0  0  0  0  0  0  0  0
  -40.3434   61.5436   59.7729 H   0  0  0  0  0  0  0  0  0  0  0  0
  -40.9274   62.1724   58.2121 H   0  0  0  0  0  0  0  0  0  0  0  0
  -42.5306   61.9982   60.7173 H   0  0  0  0  0  0  0  0  0  0  0  0
  -42.6137   60.9067   59.3063 H   0  0  0  0  0  0  0  0  0  0  0  0
  -44.4537   62.4728   59.3296 H   0  0  0  0  0  0  0  0  0  0  0  0
  -43.3690   62.6885   57.9389 H   0  0  0  0  0  0  0  0  0  0  0  0
  -42.3612   64.5871   58.9853 H   0  0  0  0  0  0  0  0  0  0  0  0
  -43.4492   64.3596   60.3871 H   0  0  0  0  0  0  0  0  0  0  0  0
  -44.1565   66.1983   59.0032 H   0  0  0  0  0  0  0  0  0  0  0  0
  -45.3236   64.8444   59.0431 H   0  0  0  0  0  0  0  0  0  0  0  0
  -43.4735   65.4564   56.7879 H   0  0  0  0  0  0  0  0  0  0  0  0
  -45.2044   65.8295   56.8625 H   0  0  0  0  0  0  0  0  0  0  0  0
  -45.6664   63.3937   56.9136 H   0  0  0  0  0  0  0  0  0  0  0  0
  -44.3758   62.1581   55.5343 H   0  0  0  0  0  0  0  0  0  0  0  0
  -42.0814   62.5783   55.1512 H   0  0  0  0  0  0  0  0  0  0  0  0
  -42.2224   64.1337   56.0018 H   0  0  0  0  0  0  0  0  0  0  0  0
  -43.2907   65.1113   54.0948 H   0  0  0  0  0  0  0  0  0  0  0  0
  -43.1756   63.5574   53.2435 H   0  0  0  0  0  0  0  0  0  0  0  0
  -40.8646   65.2232   54.1271 H   0  0  0  0  0  0  0  0  0  0  0  0
  -41.5060   65.0866   52.4764 H   0  0  0  0  0  0  0  0  0  0  0  0
  -40.9408   62.7654   52.4209 H   0  0  0  0  0  0  0  0  0  0  0  0
  -40.3083   62.9008   54.0840 H   0  0  0  0  0  0  0  0  0  0  0  0
  -38.5751   64.3497   53.3405 H   0  0  0  0  0  0  0  0  0  0  0  0
  -39.2087   64.2438   51.6816 H   0  0  0  0  0  0  0  0  0  0  0  0
  -37.2491   62.8675   51.9705 H   0  0  0  0  0  0  0  0  0  0  0  0
  -38.7201   61.9241   51.6211 H   0  0  0  0  0  0  0  0  0  0  0  0
  -38.8885   61.2835   53.9079 H   0  0  0  0  0  0  0  0  0  0  0  0
  -37.4427   62.2388   54.2806 H   0  0  0  0  0  0  0  0  0  0  0  0
  -37.5356   59.8330   52.5108 H   0  0  0  0  0  0  0  0  0  0  0  0
  -36.8984   59.8887   54.1368 H   0  0  0  0  0  0  0  0  0  0  0  0
  -36.1209   60.7964   52.8622 H   0  0  0  0  0  0  0  0  0  0  0  0
  -30.3291   70.0960   61.6371 H   0  0  0  0  0  0  0  0  0  0  0  0
  -32.9193   69.4938   63.0591 H   0  0  0  0  0  0  0  0  0  0  0  0
  -31.5471   72.1651   62.7102 H   0  0  0  0  0  0  0  0  0  0  0  0
  -31.0444   72.1140   65.0021 H   0  0  0  0  0  0  0  0  0  0  0  0
  -29.4118   71.1378   63.5901 H   0  0  0  0  0  0  0  0  0  0  0  0
  -28.2611   69.5805   65.0573 H   0  0  0  0  0  0  0  0  0  0  0  0
  -28.9495   70.9336   65.9532 H   0  0  0  0  0  0  0  0  0  0  0  0
  1  4  1  0  0  0  0
  1 31  1  0  0  0  0
  1 62  1  0  0  0  0
  2  3  1  0  0  0  0
  2  4  1  0  0  0  0
  2 63  1  0  0  0  0
  2 64  1  0  0  0  0
  3 55  1  0  0  0  0
  4  6  1  0  0  0  0
  4 65  1  6  0  0  0
  5  6  1  0  0  0  0
  5 66  1  0  0  0  0
  6  8  1  0  0  0  0
  6 67  1  6  0  0  0
  7 31  2  0  0  0  0
  8 10  2  0  0  0  0
  8 68  1  0  0  0  0
  9 56  1  0  0  0  0
  9 69  1  0  0  0  0
 10 12  1  0  0  0  0
 10 70  1  0  0  0  0
 11 57  1  0  0  0  0
 11 61  1  0  0  0  0
 12 14  1  0  0  0  0
 12 71  1  0  0  0  0
 12 72  1  0  0  0  0
 13 58  1  0  0  0  0
 13 73  1  0  0  0  0
 14 16  1  0  0  0  0
 14 74  1  0  0  0  0
 14 75  1  0  0  0  0
 15 55  1  0  0  0  0
 15 59  1  0  0  0  0
 16 18  1  0  0  0  0
 16 76  1  0  0  0  0
 16 77  1  0  0  0  0
 17 60  1  0  0  0  0
 17 78  1  0  0  0  0
 18 20  1  0  0  0  0
 18 79  1  0  0  0  0
 18 80  1  0  0  0  0
 19 61  1  0  0  0  0
 19 81  1  0  0  0  0
 20 22  1  0  0  0  0
 20 82  1  0  0  0  0
 20 83  1  0  0  0  0
 21 61  1  0  0  0  0
 22 24  1  0  0  0  0
 22 84  1  0  0  0  0
 22 85  1  0  0  0  0
 23 61  1  0  0  0  0
 23 86  1  0  0  0  0
 24 25  1  0  0  0  0
 24 87  1  0  0  0  0
 24 88  1  0  0  0  0
 25 26  1  0  0  0  0
 25 89  1  0  0  0  0
 25 90  1  0  0  0  0
 26 27  1  0  0  0  0
 26 91  1  0  0  0  0
 26 92  1  0  0  0  0
 27 28  1  0  0  0  0
 27 93  1  0  0  0  0
 27 94  1  0  0  0  0
 28 29  1  0  0  0  0
 28 95  1  0  0  0  0
 28 96  1  0  0  0  0
 29 30  1  0  0  0  0
 29 97  1  0  0  0  0
 29 98  1  0  0  0  0
 30 99  1  0  0  0  0
 30100  1  0  0  0  0
 30101  1  0  0  0  0
 31 32  1  0  0  0  0
 32 33  1  0  0  0  0
 32102  1  0  0  0  0
 32103  1  0  0  0  0
 33 34  1  0  0  0  0
 33104  1  0  0  0  0
 33105  1  0  0  0  0
 34 35  1  0  0  0  0
 34106  1  0  0  0  0
 34107  1  0  0  0  0
 35 36  1  0  0  0  0
 35108  1  0  0  0  0
 35109  1  0  0  0  0
 36 37  1  0  0  0  0
 36110  1  0  0  0  0
 36111  1  0  0  0  0
 37 38  1  0  0  0  0
 37112  1  0  0  0  0
 37113  1  0  0  0  0
 38 39  1  0  0  0  0
 38114  1  0  0  0  0
 38115  1  0  0  0  0
 39 40  1  0  0  0  0
 39116  1  0  0  0  0
 39117  1  0  0  0  0
 40 41  1  0  0  0  0
 40118  1  0  0  0  0
 40119  1  0  0  0  0
 41 42  1  0  0  0  0
 41120  1  0  0  0  0
 41121  1  0  0  0  0
 42 43  1  0  0  0  0
 42122  1  0  0  0  0
 42123  1  0  0  0  0
 43 44  1  0  0  0  0
 43124  1  0  0  0  0
 43125  1  0  0  0  0
 44 45  1  0  0  0  0
 44126  1  0  0  0  0
 44127  1  0  0  0  0
 45 46  2  0  0  0  0
 45128  1  0  0  0  0
 46 47  1  0  0  0  0
 46129  1  0  0  0  0
 47 48  1  0  0  0  0
 47130  1  0  0  0  0
 47131  1  0  0  0  0
 48 49  1  0  0  0  0
 48132  1  0  0  0  0
 48133  1  0  0  0  0
 49 50  1  0  0  0  0
 49134  1  0  0  0  0
 49135  1  0  0  0  0
 50 51  1  0  0  0  0
 50136  1  0  0  0  0
 50137  1  0  0  0  0
 51 52  1  0  0  0  0
 51138  1  0  0  0  0
 51139  1  0  0  0  0
 52 53  1  0  0  0  0
 52140  1  0  0  0  0
 52141  1  0  0  0  0
 53 54  1  0  0  0  0
 53142  1  0  0  0  0
 53143  1  0  0  0  0
 54144  1  0  0  0  0
 54145  1  0  0  0  0
 54146  1  0  0  0  0
 55 56  1  0  0  0  0
 55147  1  6  0  0  0
 56 57  1  0  0  0  0
 56148  1  1  0  0  0
 57 58  1  0  0  0  0
 57149  1  6  0  0  0
 58 59  1  0  0  0  0
 58150  1  1  0  0  0
 59 60  1  0  0  0  0
 59151  1  6  0  0  0
 60152  1  0  0  0  0
 60153  1  0  0  0  0
M  CHG  1  21  -1
M  END
$$$$
/media/chris/experiments/cd1a-new-docking/inputs/ligands/7ryn_ligand.pdb
 OpenBabel07032312553D

153153  0  0  1  0  0  0  0  0999 V2000
  -33.0340   65.1330   62.2120 N   0  0  0  0  0  0  0  0  0  0  0  0
  -32.0220   67.3480   62.3220 C   0  0  0  0  0  0  0  0  0  0  0  0
  -31.4051   67.0024   63.5673 O   0  0  0  0  0  0  0  0  0  0  0  0
  -32.1830   66.0840   61.5030 C   0  0  1  0  0  0  0  0  0  0  0  0
  -31.0548   64.2805   60.3587 O   0  0  0  0  0  0  0  0  0  0  0  0
  -30.8310   65.4230   61.1900 C   0  0  2  0  0  0  0  0  0  0  0  0
  -31.4954   63.4950   62.3441 O   0  0  0  0  0  0  0  0  0  0  0  0
  -30.1054   65.0399   62.4433 C   0  0  0  0  0  0  0  0  0  0  0  0
  -31.4046   66.6220   66.3415 O   0  0  0  0  0  0  0  0  0  0  0  0
  -28.9184   64.4680   62.4873 C   0  0  0  0  0  0  0  0  0  0  0  0
  -29.4155   68.1261   67.6954 O   0  0  0  0  0  0  0  0  0  0  0  0
  -28.2138   64.1114   63.7550 C   0  0  0  0  0  0  0  0  0  0  0  0
  -28.1411   69.3260   65.5933 O   0  0  0  0  0  0  0  0  0  0  0  0
  -29.0503   64.4971   64.9767 C   0  0  0  0  0  0  0  0  0  0  0  0
  -30.3909   69.0606   63.8198 O   0  0  0  0  0  0  0  0  0  0  0  0
  -28.3904   64.1801   66.3089 C   0  0  0  0  0  0  0  0  0  0  0  0
  -28.1534   70.6686   63.3778 O   0  0  0  0  0  0  0  0  0  0  0  0
  -27.0679   64.8924   66.5361 C   0  0  0  0  0  0  0  0  0  0  0  0
  -29.0352   66.5764   69.5011 O   0  0  0  0  0  0  0  0  0  0  0  0
  -26.4049   64.5573   67.8642 C   0  0  0  0  0  0  0  0  0  0  0  0
  -30.6879   66.0419   67.6849 O   0  5  0  0  0  0  0  0  0  0  0  0
  -26.0681   63.0828   68.0239 C   0  0  0  0  0  0  0  0  0  0  0  0
  -31.1144   67.7162   69.3133 O   0  0  0  0  0  0  0  0  0  0  0  0
  -27.2753   62.1660   67.9321 C   0  0  0  0  0  0  0  0  0  0  0  0
  -26.9488   60.6946   68.1074 C   0  0  0  0  0  0  0  0  0  0  0  0
  -25.9632   60.1567   67.0843 C   0  0  0  0  0  0  0  0  0  0  0  0
  -26.4524   60.3023   65.6553 C   0  0  0  0  0  0  0  0  0  0  0  0
  -27.7620   59.5938   65.3665 C   0  0  0  0  0  0  0  0  0  0  0  0
  -28.2039   59.7512   63.9248 C   0  0  0  0  0  0  0  0  0  0  0  0
  -28.3961   61.2014   63.5319 C   0  0  0  0  0  0  0  0  0  0  0  0
  -32.6252   63.9148   62.5768 C   0  0  0  0  0  0  0  0  0  0  0  0
  -33.6441   63.0766   63.3080 C   0  0  0  0  0  0  0  0  0  0  0  0
  -33.4627   61.5850   63.0573 C   0  0  0  0  0  0  0  0  0  0  0  0
  -33.5729   61.2200   61.5856 C   0  0  0  0  0  0  0  0  0  0  0  0
  -34.9065   61.5890   60.9574 C   0  0  0  0  0  0  0  0  0  0  0  0
  -35.0214   61.2077   59.4891 C   0  0  0  0  0  0  0  0  0  0  0  0
  -34.8862   59.7137   59.2243 C   0  0  0  0  0  0  0  0  0  0  0  0
  -34.9847   59.3367   57.7517 C   0  0  0  0  0  0  0  0  0  0  0  0
  -33.9121   59.9630   56.8642 C   0  0  0  0  0  0  0  0  0  0  0  0
  -32.4846   59.5727   57.2440 C   0  0  0  0  0  0  0  0  0  0  0  0
  -31.3983   60.2057   56.3747 C   0  0  0  0  0  0  0  0  0  0  0  0
  -29.9820   59.7840   56.7668 C   0  0  0  0  0  0  0  0  0  0  0  0
  -29.7016   58.2848   56.6653 C   0  0  0  0  0  0  0  0  0  0  0  0
  -28.2876   57.8640   57.0748 C   0  0  0  0  0  0  0  0  0  0  0  0
  -27.2208   58.5222   56.2485 C   0  0  0  0  0  0  0  0  0  0  0  0
  -26.6236   59.6694   56.5189 C   0  0  0  0  0  0  0  0  0  0  0  0
  -26.8893   60.5432   57.7071 C   0  0  0  0  0  0  0  0  0  0  0  0
  -27.3703   61.9489   57.3409 C   0  0  0  0  0  0  0  0  0  0  0  0
  -27.6212   62.8346   58.5541 C   0  0  0  0  0  0  0  0  0  0  0  0
  -26.3777   63.0581   59.4074 C   0  0  0  0  0  0  0  0  0  0  0  0
  -26.6049   63.9280   60.6385 C   0  0  0  0  0  0  0  0  0  0  0  0
  -25.3496   64.1545   61.4692 C   0  0  0  0  0  0  0  0  0  0  0  0
  -24.7133   62.8780   61.9959 C   0  0  0  0  0  0  0  0  0  0  0  0
  -25.6475   62.0740   62.8772 C   0  0  0  0  0  0  0  0  0  0  0  0
  -31.2104   68.0828   64.4327 C   0  0  2  0  0  0  0  0  0  0  0  0
  -30.5480   67.5584   65.7001 C   0  0  1  0  0  0  0  0  0  0  0  0
  -30.2364   68.7171   66.6389 C   0  0  2  0  0  0  0  0  0  0  0  0
  -29.4420   69.8007   65.9249 C   0  0  2  0  0  0  0  0  0  0  0  0
  -30.1703   70.2134   64.6482 C   0  0  1  0  0  0  0  0  0  0  0  0
  -29.3950   71.2080   63.8163 C   0  0  0  0  0  0  0  0  0  0  0  0
  -30.0256   66.9384   68.5560 S   0  0  0  0  0  0  0  0  0  0  0  0
  -33.9548   65.4029   62.4321 H   0  0  0  0  0  0  0  0  0  0  0  0
  -31.4053   68.0450   61.7940 H   0  0  0  0  0  0  0  0  0  0  0  0
  -32.9770   67.7979   62.4965 H   0  0  0  0  0  0  0  0  0  0  0  0
  -32.6374   66.3625   60.5752 H   0  0  0  0  0  0  0  0  0  0  0  0
  -31.5249   64.5525   59.5551 H   0  0  0  0  0  0  0  0  0  0  0  0
  -30.2105   66.1253   60.6735 H   0  0  0  0  0  0  0  0  0  0  0  0
  -30.5711   65.2392   63.3425 H   0  0  0  0  0  0  0  0  0  0  0  0
  -31.5955   65.8899   65.7345 H   0  0  0  0  0  0  0  0  0  0  0  0
  -28.4487   64.2543   61.5936 H   0  0  0  0  0  0  0  0  0  0  0  0
  -27.2790   64.6306   63.7933 H   0  0  0  0  0  0  0  0  0  0  0  0
  -28.0568   63.0531   63.7707 H   0  0  0  0  0  0  0  0  0  0  0  0
  -27.6765   69.0633   66.4032 H   0  0  0  0  0  0  0  0  0  0  0  0
  -29.9791   63.9682   64.9280 H   0  0  0  0  0  0  0  0  0  0  0  0
  -29.1756   65.5592   64.9407 H   0  0  0  0  0  0  0  0  0  0  0  0
  -28.2151   63.1255   66.3536 H   0  0  0  0  0  0  0  0  0  0  0  0
  -29.0583   64.5231   67.0712 H   0  0  0  0  0  0  0  0  0  0  0  0
  -27.6822   71.3306   62.8482 H   0  0  0  0  0  0  0  0  0  0  0  0
  -27.2442   65.9473   66.5047 H   0  0  0  0  0  0  0  0  0  0  0  0
  -26.4024   64.5629   65.7659 H   0  0  0  0  0  0  0  0  0  0  0  0
  -28.3292   66.0818   69.0563 H   0  0  0  0  0  0  0  0  0  0  0  0
  -27.0690   64.8398   68.6542 H   0  0  0  0  0  0  0  0  0  0  0  0
  -25.4802   65.0948   67.8968 H   0  0  0  0  0  0  0  0  0  0  0  0
  -25.6100   62.9429   68.9807 H   0  0  0  0  0  0  0  0  0  0  0  0
  -25.4162   62.8223   67.2163 H   0  0  0  0  0  0  0  0  0  0  0  0
  -30.6977   68.3443   69.9238 H   0  0  0  0  0  0  0  0  0  0  0  0
  -27.7256   62.2983   66.9706 H   0  0  0  0  0  0  0  0  0  0  0  0
  -27.9296   62.4353   68.7347 H   0  0  0  0  0  0  0  0  0  0  0  0
  -27.8577   60.1358   68.0259 H   0  0  0  0  0  0  0  0  0  0  0  0
  -26.4876   60.5910   69.0674 H   0  0  0  0  0  0  0  0  0  0  0  0
  -25.7974   59.1186   67.2837 H   0  0  0  0  0  0  0  0  0  0  0  0
  -25.0641   60.7297   67.1744 H   0  0  0  0  0  0  0  0  0  0  0  0
  -25.7045   59.9022   65.0031 H   0  0  0  0  0  0  0  0  0  0  0  0
  -26.6284   61.3458   65.4975 H   0  0  0  0  0  0  0  0  0  0  0  0
  -28.5195   60.0003   66.0036 H   0  0  0  0  0  0  0  0  0  0  0  0
  -27.6127   58.5498   65.5478 H   0  0  0  0  0  0  0  0  0  0  0  0
  -29.1310   59.2339   63.7917 H   0  0  0  0  0  0  0  0  0  0  0  0
  -27.4338   59.3453   63.3027 H   0  0  0  0  0  0  0  0  0  0  0  0
  -29.1626   61.6367   64.1384 H   0  0  0  0  0  0  0  0  0  0  0  0
  -28.6815   61.2571   62.5021 H   0  0  0  0  0  0  0  0  0  0  0  0
  -27.4801   61.7349   63.6775 H   0  0  0  0  0  0  0  0  0  0  0  0
  -34.6219   63.3629   62.9810 H   0  0  0  0  0  0  0  0  0  0  0  0
  -33.5131   63.2478   64.3561 H   0  0  0  0  0  0  0  0  0  0  0  0
  -34.2162   61.0527   63.5994 H   0  0  0  0  0  0  0  0  0  0  0  0
  -32.4788   61.3197   63.3834 H   0  0  0  0  0  0  0  0  0  0  0  0
  -33.4363   60.1631   61.4896 H   0  0  0  0  0  0  0  0  0  0  0  0
  -32.8212   61.7800   61.0698 H   0  0  0  0  0  0  0  0  0  0  0  0
  -35.0376   62.6476   61.0421 H   0  0  0  0  0  0  0  0  0  0  0  0
  -35.6600   61.0391   61.4815 H   0  0  0  0  0  0  0  0  0  0  0  0
  -34.2510   61.7164   58.9482 H   0  0  0  0  0  0  0  0  0  0  0  0
  -36.0034   61.4906   59.1719 H   0  0  0  0  0  0  0  0  0  0  0  0
  -35.6641   59.2056   59.7550 H   0  0  0  0  0  0  0  0  0  0  0  0
  -33.9094   59.4269   59.5538 H   0  0  0  0  0  0  0  0  0  0  0  0
  -35.9420   59.6495   57.3901 H   0  0  0  0  0  0  0  0  0  0  0  0
  -34.8427   58.2775   57.6988 H   0  0  0  0  0  0  0  0  0  0  0  0
  -33.9990   61.0273   56.9316 H   0  0  0  0  0  0  0  0  0  0  0  0
  -34.0791   59.5976   55.8725 H   0  0  0  0  0  0  0  0  0  0  0  0
  -32.3973   58.5092   57.1653 H   0  0  0  0  0  0  0  0  0  0  0  0
  -32.3260   59.9349   58.2383 H   0  0  0  0  0  0  0  0  0  0  0  0
  -31.4715   61.2696   56.4619 H   0  0  0  0  0  0  0  0  0  0  0  0
  -31.5611   59.8690   55.3721 H   0  0  0  0  0  0  0  0  0  0  0  0
  -29.8149   60.0849   57.7799 H   0  0  0  0  0  0  0  0  0  0  0  0
  -29.3251   60.2586   56.0681 H   0  0  0  0  0  0  0  0  0  0  0  0
  -29.8562   57.9859   55.6496 H   0  0  0  0  0  0  0  0  0  0  0  0
  -30.3676   57.8079   57.3536 H   0  0  0  0  0  0  0  0  0  0  0  0
  -28.2009   56.8034   56.9626 H   0  0  0  0  0  0  0  0  0  0  0  0
  -28.1425   58.1697   58.0899 H   0  0  0  0  0  0  0  0  0  0  0  0
  -26.9264   58.0328   55.3890 H   0  0  0  0  0  0  0  0  0  0  0  0
  -25.9079   59.9937   55.8499 H   0  0  0  0  0  0  0  0  0  0  0  0
  -25.9840   60.6320   58.2705 H   0  0  0  0  0  0  0  0  0  0  0  0
  -27.6745   60.0798   58.2671 H   0  0  0  0  0  0  0  0  0  0  0  0
  -28.2828   61.8626   56.7889 H   0  0  0  0  0  0  0  0  0  0  0  0
  -26.5940   62.4101   56.7669 H   0  0  0  0  0  0  0  0  0  0  0  0
  -28.3712   62.3731   59.1619 H   0  0  0  0  0  0  0  0  0  0  0  0
  -27.9298   63.7917   58.1885 H   0  0  0  0  0  0  0  0  0  0  0  0
  -25.6343   63.5284   58.7983 H   0  0  0  0  0  0  0  0  0  0  0  0
  -26.0770   62.0958   59.7656 H   0  0  0  0  0  0  0  0  0  0  0  0
  -27.3378   63.4532   61.2568 H   0  0  0  0  0  0  0  0  0  0  0  0
  -26.9249   64.8871   60.2884 H   0  0  0  0  0  0  0  0  0  0  0  0
  -25.6067   64.7711   62.3050 H   0  0  0  0  0  0  0  0  0  0  0  0
  -24.6308   64.6125   60.8223 H   0  0  0  0  0  0  0  0  0  0  0  0
  -23.8461   63.1388   62.5660 H   0  0  0  0  0  0  0  0  0  0  0  0
  -24.4660   62.2699   61.1509 H   0  0  0  0  0  0  0  0  0  0  0  0
  -25.9160   62.6542   63.7352 H   0  0  0  0  0  0  0  0  0  0  0  0
  -25.1566   61.1771   63.1926 H   0  0  0  0  0  0  0  0  0  0  0  0
  -26.5297   61.8229   62.3262 H   0  0  0  0  0  0  0  0  0  0  0  0
  -32.1486   68.5400   64.6687 H   0  0  0  0  0  0  0  0  0  0  0  0
  -29.6327   67.0681   65.4416 H   0  0  0  0  0  0  0  0  0  0  0  0
  -31.1294   69.1768   67.0080 H   0  0  0  0  0  0  0  0  0  0  0  0
  -29.3488   70.6437   66.5772 H   0  0  0  0  0  0  0  0  0  0  0  0
  -31.0858   70.6667   64.9665 H   0  0  0  0  0  0  0  0  0  0  0  0
  -29.9792   71.4753   62.9606 H   0  0  0  0  0  0  0  0  0  0  0  0
  -29.1918   72.0657   64.4231 H   0  0  0  0  0  0  0  0  0  0  0  0
  1  4  1  0  0  0  0
  1 31  1  0  0  0  0
  1 62  1  0  0  0  0
  2  3  1  0  0  0  0
  2  4  1  0  0  0  0
  2 63  1  0  0  0  0
  2 64  1  0  0  0  0
  3 55  1  0  0  0  0
  4  6  1  0  0  0  0
  4 65  1  6  0  0  0
  5  6  1  0  0  0  0
  5 66  1  0  0  0  0
  6  8  1  0  0  0  0
  6 67  1  6  0  0  0
  7 31  2  0  0  0  0
  8 10  2  0  0  0  0
  8 68  1  0  0  0  0
  9 56  1  0  0  0  0
  9 69  1  0  0  0  0
 10 12  1  0  0  0  0
 10 70  1  0  0  0  0
 11 57  1  0  0  0  0
 11 61  1  0  0  0  0
 12 14  1  0  0  0  0
 12 71  1  0  0  0  0
 12 72  1  0  0  0  0
 13 58  1  0  0  0  0
 13 73  1  0  0  0  0
 14 16  1  0  0  0  0
 14 74  1  0  0  0  0
 14 75  1  0  0  0  0
 15 55  1  0  0  0  0
 15 59  1  0  0  0  0
 16 18  1  0  0  0  0
 16 76  1  0  0  0  0
 16 77  1  0  0  0  0
 17 60  1  0  0  0  0
 17 78  1  0  0  0  0
 18 20  1  0  0  0  0
 18 79  1  0  0  0  0
 18 80  1  0  0  0  0
 19 61  1  0  0  0  0
 19 81  1  0  0  0  0
 20 22  1  0  0  0  0
 20 82  1  0  0  0  0
 20 83  1  0  0  0  0
 21 61  1  0  0  0  0
 22 24  1  0  0  0  0
 22 84  1  0  0  0  0
 22 85  1  0  0  0  0
 23 61  1  0  0  0  0
 23 86  1  0  0  0  0
 24 25  1  0  0  0  0
 24 87  1  0  0  0  0
 24 88  1  0  0  0  0
 25 26  1  0  0  0  0
 25 89  1  0  0  0  0
 25 90  1  0  0  0  0
 26 27  1  0  0  0  0
 26 91  1  0  0  0  0
 26 92  1  0  0  0  0
 27 28  1  0  0  0  0
 27 93  1  0  0  0  0
 27 94  1  0  0  0  0
 28 29  1  0  0  0  0
 28 95  1  0  0  0  0
 28 96  1  0  0  0  0
 29 30  1  0  0  0  0
 29 97  1  0  0  0  0
 29 98  1  0  0  0  0
 30 99  1  0  0  0  0
 30100  1  0  0  0  0
 30101  1  0  0  0  0
 31 32  1  0  0  0  0
 32 33  1  0  0  0  0
 32102  1  0  0  0  0
 32103  1  0  0  0  0
 33 34  1  0  0  0  0
 33104  1  0  0  0  0
 33105  1  0  0  0  0
 34 35  1  0  0  0  0
 34106  1  0  0  0  0
 34107  1  0  0  0  0
 35 36  1  0  0  0  0
 35108  1  0  0  0  0
 35109  1  0  0  0  0
 36 37  1  0  0  0  0
 36110  1  0  0  0  0
 36111  1  0  0  0  0
 37 38  1  0  0  0  0
 37112  1  0  0  0  0
 37113  1  0  0  0  0
 38 39  1  0  0  0  0
 38114  1  0  0  0  0
 38115  1  0  0  0  0
 39 40  1  0  0  0  0
 39116  1  0  0  0  0
 39117  1  0  0  0  0
 40 41  1  0  0  0  0
 40118  1  0  0  0  0
 40119  1  0  0  0  0
 41 42  1  0  0  0  0
 41120  1  0  0  0  0
 41121  1  0  0  0  0
 42 43  1  0  0  0  0
 42122  1  0  0  0  0
 42123  1  0  0  0  0
 43 44  1  0  0  0  0
 43124  1  0  0  0  0
 43125  1  0  0  0  0
 44 45  1  0  0  0  0
 44126  1  0  0  0  0
 44127  1  0  0  0  0
 45 46  2  0  0  0  0
 45128  1  0  0  0  0
 46 47  1  0  0  0  0
 46129  1  0  0  0  0
 47 48  1  0  0  0  0
 47130  1  0  0  0  0
 47131  1  0  0  0  0
 48 49  1  0  0  0  0
 48132  1  0  0  0  0
 48133  1  0  0  0  0
 49 50  1  0  0  0  0
 49134  1  0  0  0  0
 49135  1  0  0  0  0
 50 51  1  0  0  0  0
 50136  1  0  0  0  0
 50137  1  0  0  0  0
 51 52  1  0  0  0  0
 51138  1  0  0  0  0
 51139  1  0  0  0  0
 52 53  1  0  0  0  0
 52140  1  0  0  0  0
 52141  1  0  0  0  0
 53 54  1  0  0  0  0
 53142  1  0  0  0  0
 53143  1  0  0  0  0
 54144  1  0  0  0  0
 54145  1  0  0  0  0
 54146  1  0  0  0  0
 55 56  1  0  0  0  0
 55147  1  1  0  0  0
 56 57  1  0  0  0  0
 56148  1  6  0  0  0
 57 58  1  0  0  0  0
 57149  1  1  0  0  0
 58 59  1  0  0  0  0
 58150  1  1  0  0  0
 59 60  1  0  0  0  0
 59151  1  1  0  0  0
 60152  1  0  0  0  0
 60153  1  0  0  0  0
M  CHG  1  21  -1
M  END
$$$$
/media/chris/experiments/cd1a-new-docking/inputs/ligands/7ryn_ligand.pdb
 OpenBabel07032312553D

153153  0  0  1  0  0  0  0  0999 V2000
  -33.0340   65.1330   62.2120 N   0  0  0  0  0  0  0  0  0  0  0  0
  -32.0220   67.3480   62.3220 C   0  0  0  0  0  0  0  0  0  0  0  0
  -33.3204   67.9104   62.5424 O   0  0  0  0  0  0  0  0  0  0  0  0
  -32.1830   66.0840   61.5030 C   0  0  1  0  0  0  0  0  0  0  0  0
  -30.2154   65.0225   62.4176 O   0  0  0  0  0  0  0  0  0  0  0  0
  -30.8310   65.4230   61.1900 C   0  0  2  0  0  0  0  0  0  0  0  0
  -32.9252   63.5132   60.6524 O   0  0  0  0  0  0  0  0  0  0  0  0
  -29.9369   66.3439   60.4177 C   0  0  0  0  0  0  0  0  0  0  0  0
  -35.3151   69.8361   62.1498 O   0  0  0  0  0  0  0  0  0  0  0  0
  -29.0262   65.9607   59.5448 C   0  0  0  0  0  0  0  0  0  0  0  0
  -36.2332   71.0293   64.5551 O   0  0  0  0  0  0  0  0  0  0  0  0
  -28.1594   66.9053   58.7787 C   0  0  0  0  0  0  0  0  0  0  0  0
  -34.7894   69.6393   66.4168 O   0  0  0  0  0  0  0  0  0  0  0  0
  -26.8602   67.1950   59.5332 C   0  0  0  0  0  0  0  0  0  0  0  0
  -32.7334   68.8853   64.5507 O   0  0  0  0  0  0  0  0  0  0  0  0
  -27.0624   67.8069   60.9099 C   0  0  0  0  0  0  0  0  0  0  0  0
  -31.8166   70.8306   67.4934 O   0  0  0  0  0  0  0  0  0  0  0  0
  -27.8108   69.1289   60.9022 C   0  0  0  0  0  0  0  0  0  0  0  0
  -38.0793   72.2327   65.5303 O   0  0  0  0  0  0  0  0  0  0  0  0
  -27.9947   69.7439   62.2819 C   0  0  0  0  0  0  0  0  0  0  0  0
  -35.9141   73.4042   65.0253 O   0  5  0  0  0  0  0  0  0  0  0  0
  -28.7595   71.0585   62.2677 C   0  0  0  0  0  0  0  0  0  0  0  0
  -36.1043   71.8317   66.7937 O   0  0  0  0  0  0  0  0  0  0  0  0
  -28.1024   72.1395   61.4276 C   0  0  0  0  0  0  0  0  0  0  0  0
  -28.8513   73.4592   61.4225 C   0  0  0  0  0  0  0  0  0  0  0  0
  -30.2732   73.3579   60.8976 C   0  0  0  0  0  0  0  0  0  0  0  0
  -31.1439   72.4251   61.7188 C   0  0  0  0  0  0  0  0  0  0  0  0
  -31.3059   72.8350   63.1700 C   0  0  0  0  0  0  0  0  0  0  0  0
  -31.9543   74.1971   63.3216 C   0  0  0  0  0  0  0  0  0  0  0  0
  -32.0998   74.6124   64.7710 C   0  0  0  0  0  0  0  0  0  0  0  0
  -33.3385   63.9239   61.7329 C   0  0  0  0  0  0  0  0  0  0  0  0
  -34.2258   63.0783   62.6121 C   0  0  0  0  0  0  0  0  0  0  0  0
  -34.0432   63.3836   64.0933 C   0  0  0  0  0  0  0  0  0  0  0  0
  -34.9238   62.5207   64.9829 C   0  0  0  0  0  0  0  0  0  0  0  0
  -34.6549   61.0304   64.8565 C   0  0  0  0  0  0  0  0  0  0  0  0
  -33.2369   60.6271   65.2318 C   0  0  0  0  0  0  0  0  0  0  0  0
  -32.8605   60.9522   66.6717 C   0  0  0  0  0  0  0  0  0  0  0  0
  -32.9580   62.4330   67.0155 C   0  0  0  0  0  0  0  0  0  0  0  0
  -32.5676   62.7774   68.4505 C   0  0  0  0  0  0  0  0  0  0  0  0
  -32.6858   64.2628   68.7880 C   0  0  0  0  0  0  0  0  0  0  0  0
  -32.2821   64.6257   70.2168 C   0  0  0  0  0  0  0  0  0  0  0  0
  -32.4267   66.1149   70.5308 C   0  0  0  0  0  0  0  0  0  0  0  0
  -33.8456   66.6687   70.4020 C   0  0  0  0  0  0  0  0  0  0  0  0
  -34.8773   66.0215   71.3297 C   0  0  0  0  0  0  0  0  0  0  0  0
  -34.5448   66.1953   72.7834 C   0  0  0  0  0  0  0  0  0  0  0  0
  -34.8514   65.3572   73.7578 C   0  0  0  0  0  0  0  0  0  0  0  0
  -35.5908   64.0623   73.6070 C   0  0  0  0  0  0  0  0  0  0  0  0
  -35.1931   63.0039   74.6381 C   0  0  0  0  0  0  0  0  0  0  0  0
  -35.9371   61.6863   74.4662 C   0  0  0  0  0  0  0  0  0  0  0  0
  -35.6921   61.0251   73.1146 C   0  0  0  0  0  0  0  0  0  0  0  0
  -36.4389   59.7121   72.9095 C   0  0  0  0  0  0  0  0  0  0  0  0
  -37.9531   59.8506   72.9809 C   0  0  0  0  0  0  0  0  0  0  0  0
  -38.7071   58.5435   72.7945 C   0  0  0  0  0  0  0  0  0  0  0  0
  -38.3677   57.5115   73.8508 C   0  0  0  0  0  0  0  0  0  0  0  0
  -33.3156   69.0988   63.2783 C   0  0  2  0  0  0  0  0  0  0  0  0
  -34.7576   69.5657   63.4297 C   0  0  1  0  0  0  0  0  0  0  0  0
  -34.8089   70.8140   64.3015 C   0  0  2  0  0  0  0  0  0  0  0  0
  -34.0866   70.5888   65.6217 C   0  0  2  0  0  0  0  0  0  0  0  0
  -32.6741   70.0760   65.3523 C   0  0  1  0  0  0  0  0  0  0  0  0
  -31.9211   69.7182   66.6122 C   0  0  0  0  0  0  0  0  0  0  0  0
  -36.6672   72.2789   65.4347 S   0  0  0  0  0  0  0  0  0  0  0  0
  -33.4017   65.3959   63.0866 H   0  0  0  0  0  0  0  0  0  0  0  0
  -31.5648   67.1148   63.2609 H   0  0  0  0  0  0  0  0  0  0  0  0
  -31.4012   68.0473   61.8019 H   0  0  0  0  0  0  0  0  0  0  0  0
  -32.6374   66.3625   60.5752 H   0  0  0  0  0  0  0  0  0  0  0  0
  -30.8116   64.4280   62.8994 H   0  0  0  0  0  0  0  0  0  0  0  0
  -30.9971   64.5628   60.5757 H   0  0  0  0  0  0  0  0  0  0  0  0
  -30.0419   67.3574   60.5817 H   0  0  0  0  0  0  0  0  0  0  0  0
  -35.2768   69.0347   61.6046 H   0  0  0  0  0  0  0  0  0  0  0  0
  -28.9053   64.9489   59.3813 H   0  0  0  0  0  0  0  0  0  0  0  0
  -28.6890   67.8230   58.6294 H   0  0  0  0  0  0  0  0  0  0  0  0
  -27.9141   66.4559   57.8391 H   0  0  0  0  0  0  0  0  0  0  0  0
  -35.6873   69.9632   66.5891 H   0  0  0  0  0  0  0  0  0  0  0  0
  -26.2759   67.8732   58.9471 H   0  0  0  0  0  0  0  0  0  0  0  0
  -26.3753   66.2531   59.6835 H   0  0  0  0  0  0  0  0  0  0  0  0
  -26.1004   67.9689   61.3493 H   0  0  0  0  0  0  0  0  0  0  0  0
  -27.6628   67.1179   61.4665 H   0  0  0  0  0  0  0  0  0  0  0  0
  -31.3292   70.5677   68.2897 H   0  0  0  0  0  0  0  0  0  0  0  0
  -28.7781   68.9655   60.4749 H   0  0  0  0  0  0  0  0  0  0  0  0
  -27.2199   69.8159   60.3332 H   0  0  0  0  0  0  0  0  0  0  0  0
  -38.4697   72.5099   64.6867 H   0  0  0  0  0  0  0  0  0  0  0  0
  -27.0278   69.9200   62.7050 H   0  0  0  0  0  0  0  0  0  0  0  0
  -28.5724   69.0520   62.8585 H   0  0  0  0  0  0  0  0  0  0  0  0
  -28.8382   71.4141   63.2738 H   0  0  0  0  0  0  0  0  0  0  0  0
  -29.7146   70.8592   61.8284 H   0  0  0  0  0  0  0  0  0  0  0  0
  -36.5974   71.0582   67.1092 H   0  0  0  0  0  0  0  0  0  0  0  0
  -28.0349   71.7874   60.4195 H   0  0  0  0  0  0  0  0  0  0  0  0
  -27.1438   72.3298   61.8633 H   0  0  0  0  0  0  0  0  0  0  0  0
  -28.3133   74.1495   60.8070 H   0  0  0  0  0  0  0  0  0  0  0  0
  -28.9182   73.7823   62.4404 H   0  0  0  0  0  0  0  0  0  0  0  0
  -30.2401   72.9957   59.8914 H   0  0  0  0  0  0  0  0  0  0  0  0
  -30.7063   74.3345   60.9569 H   0  0  0  0  0  0  0  0  0  0  0  0
  -30.7056   71.4493   61.6935 H   0  0  0  0  0  0  0  0  0  0  0  0
  -32.1202   72.4550   61.2820 H   0  0  0  0  0  0  0  0  0  0  0  0
  -30.3395   72.8625   63.6284 H   0  0  0  0  0  0  0  0  0  0  0  0
  -31.9453   72.1174   63.6402 H   0  0  0  0  0  0  0  0  0  0  0  0
  -32.9258   74.1663   62.8743 H   0  0  0  0  0  0  0  0  0  0  0  0
  -31.3219   74.9135   62.8402 H   0  0  0  0  0  0  0  0  0  0  0  0
  -32.7290   73.9131   65.2810 H   0  0  0  0  0  0  0  0  0  0  0  0
  -32.5372   75.5877   64.8204 H   0  0  0  0  0  0  0  0  0  0  0  0
  -31.1361   74.6298   65.2355 H   0  0  0  0  0  0  0  0  0  0  0  0
  -33.9935   62.0475   62.4433 H   0  0  0  0  0  0  0  0  0  0  0  0
  -35.2411   63.3003   62.3578 H   0  0  0  0  0  0  0  0  0  0  0  0
  -34.2872   64.4114   64.2637 H   0  0  0  0  0  0  0  0  0  0  0  0
  -33.0247   63.1720   64.3439 H   0  0  0  0  0  0  0  0  0  0  0  0
  -35.9457   62.7019   64.7226 H   0  0  0  0  0  0  0  0  0  0  0  0
  -34.7031   62.7913   65.9943 H   0  0  0  0  0  0  0  0  0  0  0  0
  -34.8302   60.7412   63.8414 H   0  0  0  0  0  0  0  0  0  0  0  0
  -35.3107   60.5367   65.5428 H   0  0  0  0  0  0  0  0  0  0  0  0
  -32.5583   61.1399   64.5827 H   0  0  0  0  0  0  0  0  0  0  0  0
  -33.1804   59.5634   65.1298 H   0  0  0  0  0  0  0  0  0  0  0  0
  -31.8524   60.6337   66.8366 H   0  0  0  0  0  0  0  0  0  0  0  0
  -33.5606   60.4409   67.2988 H   0  0  0  0  0  0  0  0  0  0  0  0
  -33.9692   62.7462   66.8600 H   0  0  0  0  0  0  0  0  0  0  0  0
  -32.2607   62.9390   66.3809 H   0  0  0  0  0  0  0  0  0  0  0  0
  -31.5521   62.4773   68.6041 H   0  0  0  0  0  0  0  0  0  0  0  0
  -33.2518   62.2596   69.0899 H   0  0  0  0  0  0  0  0  0  0  0  0
  -33.7043   64.5576   68.6440 H   0  0  0  0  0  0  0  0  0  0  0  0
  -32.0047   64.7754   68.1413 H   0  0  0  0  0  0  0  0  0  0  0  0
  -31.2592   64.3468   70.3611 H   0  0  0  0  0  0  0  0  0  0  0  0
  -32.9423   64.0995   70.8741 H   0  0  0  0  0  0  0  0  0  0  0  0
  -31.7962   66.6584   69.8585 H   0  0  0  0  0  0  0  0  0  0  0  0
  -32.1530   66.2312   71.5587 H   0  0  0  0  0  0  0  0  0  0  0  0
  -34.1688   66.5230   69.3925 H   0  0  0  0  0  0  0  0  0  0  0  0
  -33.7922   67.6992   70.6854 H   0  0  0  0  0  0  0  0  0  0  0  0
  -34.9229   64.9747   71.1125 H   0  0  0  0  0  0  0  0  0  0  0  0
  -35.8155   66.5052   71.1544 H   0  0  0  0  0  0  0  0  0  0  0  0
  -34.0284   67.0493   73.0463 H   0  0  0  0  0  0  0  0  0  0  0  0
  -34.5543   65.6185   74.7109 H   0  0  0  0  0  0  0  0  0  0  0  0
  -35.3943   63.6728   72.6300 H   0  0  0  0  0  0  0  0  0  0  0  0
  -36.6282   64.2745   73.7606 H   0  0  0  0  0  0  0  0  0  0  0  0
  -35.4013   63.3866   75.6154 H   0  0  0  0  0  0  0  0  0  0  0  0
  -34.1519   62.8006   74.4983 H   0  0  0  0  0  0  0  0  0  0  0  0
  -36.9858   61.8732   74.5674 H   0  0  0  0  0  0  0  0  0  0  0  0
  -35.5717   61.0167   75.2166 H   0  0  0  0  0  0  0  0  0  0  0  0
  -34.6438   60.8315   73.0222 H   0  0  0  0  0  0  0  0  0  0  0  0
  -36.0588   61.7033   72.3726 H   0  0  0  0  0  0  0  0  0  0  0  0
  -36.1267   59.0242   73.6673 H   0  0  0  0  0  0  0  0  0  0  0  0
  -36.2029   59.3692   71.9238 H   0  0  0  0  0  0  0  0  0  0  0  0
  -38.2646   60.5300   72.2152 H   0  0  0  0  0  0  0  0  0  0  0  0
  -38.1841   60.2016   73.9650 H   0  0  0  0  0  0  0  0  0  0  0  0
  -38.4618   58.1419   71.8335 H   0  0  0  0  0  0  0  0  0  0  0  0
  -39.7514   58.7599   72.8807 H   0  0  0  0  0  0  0  0  0  0  0  0
  -37.3267   57.2709   73.7929 H   0  0  0  0  0  0  0  0  0  0  0  0
  -38.9477   56.6277   73.6854 H   0  0  0  0  0  0  0  0  0  0  0  0
  -38.5889   57.9072   74.8200 H   0  0  0  0  0  0  0  0  0  0  0  0
  -32.7377   69.8438   62.7723 H   0  0  0  0  0  0  0  0  0  0  0  0
  -35.3300   68.7932   63.8992 H   0  0  0  0  0  0  0  0  0  0  0  0
  -34.3360   71.6474   63.8253 H   0  0  0  0  0  0  0  0  0  0  0  0
  -34.0399   71.5181   66.1499 H   0  0  0  0  0  0  0  0  0  0  0  0
  -32.1619   70.8745   64.8573 H   0  0  0  0  0  0  0  0  0  0  0  0
  -32.4378   68.9261   67.1126 H   0  0  0  0  0  0  0  0  0  0  0  0
  -30.9325   69.4152   66.3368 H   0  0  0  0  0  0  0  0  0  0  0  0
  1  4  1  0  0  0  0
  1 31  1  0  0  0  0
  1 62  1  0  0  0  0
  2  3  1  0  0  0  0
  2  4  1  0  0  0  0
  2 63  1  0  0  0  0
  2 64  1  0  0  0  0
  3 55  1  0  0  0  0
  4  6  1  0  0  0  0
  4 65  1  6  0  0  0
  5  6  1  0  0  0  0
  5 66  1  0  0  0  0
  6  8  1  0  0  0  0
  6 67  1  6  0  0  0
  7 31  2  0  0  0  0
  8 10  2  0  0  0  0
  8 68  1  0  0  0  0
  9 56  1  0  0  0  0
  9 69  1  0  0  0  0
 10 12  1  0  0  0  0
 10 70  1  0  0  0  0
 11 57  1  0  0  0  0
 11 61  1  0  0  0  0
 12 14  1  0  0  0  0
 12 71  1  0  0  0  0
 12 72  1  0  0  0  0
 13 58  1  0  0  0  0
 13 73  1  0  0  0  0
 14 16  1  0  0  0  0
 14 74  1  0  0  0  0
 14 75  1  0  0  0  0
 15 55  1  0  0  0  0
 15 59  1  0  0  0  0
 16 18  1  0  0  0  0
 16 76  1  0  0  0  0
 16 77  1  0  0  0  0
 17 60  1  0  0  0  0
 17 78  1  0  0  0  0
 18 20  1  0  0  0  0
 18 79  1  0  0  0  0
 18 80  1  0  0  0  0
 19 61  1  0  0  0  0
 19 81  1  0  0  0  0
 20 22  1  0  0  0  0
 20 82  1  0  0  0  0
 20 83  1  0  0  0  0
 21 61  1  0  0  0  0
 22 24  1  0  0  0  0
 22 84  1  0  0  0  0
 22 85  1  0  0  0  0
 23 61  1  0  0  0  0
 23 86  1  0  0  0  0
 24 25  1  0  0  0  0
 24 87  1  0  0  0  0
 24 88  1  0  0  0  0
 25 26  1  0  0  0  0
 25 89  1  0  0  0  0
 25 90  1  0  0  0  0
 26 27  1  0  0  0  0
 26 91  1  0  0  0  0
 26 92  1  0  0  0  0
 27 28  1  0  0  0  0
 27 93  1  0  0  0  0
 27 94  1  0  0  0  0
 28 29  1  0  0  0  0
 28 95  1  0  0  0  0
 28 96  1  0  0  0  0
 29 30  1  0  0  0  0
 29 97  1  0  0  0  0
 29 98  1  0  0  0  0
 30 99  1  0  0  0  0
 30100  1  0  0  0  0
 30101  1  0  0  0  0
 31 32  1  0  0  0  0
 32 33  1  0  0  0  0
 32102  1  0  0  0  0
 32103  1  0  0  0  0
 33 34  1  0  0  0  0
 33104  1  0  0  0  0
 33105  1  0  0  0  0
 34 35  1  0  0  0  0
 34106  1  0  0  0  0
 34107  1  0  0  0  0
 35 36  1  0  0  0  0
 35108  1  0  0  0  0
 35109  1  0  0  0  0
 36 37  1  0  0  0  0
 36110  1  0  0  0  0
 36111  1  0  0  0  0
 37 38  1  0  0  0  0
 37112  1  0  0  0  0
 37113  1  0  0  0  0
 38 39  1  0  0  0  0
 38114  1  0  0  0  0
 38115  1  0  0  0  0
 39 40  1  0  0  0  0
 39116  1  0  0  0  0
 39117  1  0  0  0  0
 40 41  1  0  0  0  0
 40118  1  0  0  0  0
 40119  1  0  0  0  0
 41 42  1  0  0  0  0
 41120  1  0  0  0  0
 41121  1  0  0  0  0
 42 43  1  0  0  0  0
 42122  1  0  0  0  0
 42123  1  0  0  0  0
 43 44  1  0  0  0  0
 43124  1  0  0  0  0
 43125  1  0  0  0  0
 44 45  1  0  0  0  0
 44126  1  0  0  0  0
 44127  1  0  0  0  0
 45 46  2  0  0  0  0
 45128  1  0  0  0  0
 46 47  1  0  0  0  0
 46129  1  0  0  0  0
 47 48  1  0  0  0  0
 47130  1  0  0  0  0
 47131  1  0  0  0  0
 48 49  1  0  0  0  0
 48132  1  0  0  0  0
 48133  1  0  0  0  0
 49 50  1  0  0  0  0
 49134  1  0  0  0  0
 49135  1  0  0  0  0
 50 51  1  0  0  0  0
 50136  1  0  0  0  0
 50137  1  0  0  0  0
 51 52  1  0  0  0  0
 51138  1  0  0  0  0
 51139  1  0  0  0  0
 52 53  1  0  0  0  0
 52140  1  0  0  0  0
 52141  1  0  0  0  0
 53 54  1  0  0  0  0
 53142  1  0  0  0  0
 53143  1  0  0  0  0
 54144  1  0  0  0  0
 54145  1  0  0  0  0
 54146  1  0  0  0  0
 55 56  1  0  0  0  0
 55147  1  6  0  0  0
 56 57  1  0  0  0  0
 56148  1  1  0  0  0
 57 58  1  0  0  0  0
 57149  1  6  0  0  0
 58 59  1  0  0  0  0
 58150  1  1  0  0  0
 59 60  1  0  0  0  0
 59151  1  6  0  0  0
 60152  1  0  0  0  0
 60153  1  0  0  0  0
M  CHG  1  21  -1
M  END
$$$$
/media/chris/experiments/cd1a-new-docking/inputs/ligands/7ryn_ligand.pdb
 OpenBabel07032312553D

153153  0  0  1  0  0  0  0  0999 V2000
  -33.0340   65.1330   62.2120 N   0  0  0  0  0  0  0  0  0  0  0  0
  -32.0220   67.3480   62.3220 C   0  0  0  0  0  0  0  0  0  0  0  0
  -31.4051   67.0024   63.5673 O   0  0  0  0  0  0  0  0  0  0  0  0
  -32.1830   66.0840   61.5030 C   0  0  1  0  0  0  0  0  0  0  0  0
  -29.9992   66.3678   60.5104 O   0  0  0  0  0  0  0  0  0  0  0  0
  -30.8310   65.4230   61.1900 C   0  0  2  0  0  0  0  0  0  0  0  0
  -31.7322   64.9724   64.0416 O   0  0  0  0  0  0  0  0  0  0  0  0
  -31.0055   64.1786   60.3744 C   0  0  0  0  0  0  0  0  0  0  0  0
  -31.4046   66.6220   66.3415 O   0  0  0  0  0  0  0  0  0  0  0  0
  -32.1624   63.6954   59.9670 C   0  0  0  0  0  0  0  0  0  0  0  0
  -29.4155   68.1261   67.6954 O   0  0  0  0  0  0  0  0  0  0  0  0
  -32.3025   62.4588   59.1413 C   0  0  0  0  0  0  0  0  0  0  0  0
  -28.1411   69.3260   65.5933 O   0  0  0  0  0  0  0  0  0  0  0  0
  -33.6243   61.7469   59.4364 C   0  0  0  0  0  0  0  0  0  0  0  0
  -30.3909   69.0606   63.8198 O   0  0  0  0  0  0  0  0  0  0  0  0
  -33.8327   60.4663   58.6443 C   0  0  0  0  0  0  0  0  0  0  0  0
  -29.1056   72.3918   64.5510 O   0  0  0  0  0  0  0  0  0  0  0  0
  -35.1521   59.7669   58.9233 C   0  0  0  0  0  0  0  0  0  0  0  0
  -29.0352   66.5764   69.5011 O   0  0  0  0  0  0  0  0  0  0  0  0
  -35.3465   58.4770   58.1396 C   0  0  0  0  0  0  0  0  0  0  0  0
  -30.6879   66.0419   67.6849 O   0  5  0  0  0  0  0  0  0  0  0  0
  -35.3038   58.6665   56.6312 C   0  0  0  0  0  0  0  0  0  0  0  0
  -31.1144   67.7162   69.3133 O   0  0  0  0  0  0  0  0  0  0  0  0
  -36.3595   59.6225   56.1045 C   0  0  0  0  0  0  0  0  0  0  0  0
  -36.3336   59.8032   54.5981 C   0  0  0  0  0  0  0  0  0  0  0  0
  -36.5747   58.5209   53.8202 C   0  0  0  0  0  0  0  0  0  0  0  0
  -37.9273   57.8969   54.1091 C   0  0  0  0  0  0  0  0  0  0  0  0
  -39.1111   58.7783   53.7596 C   0  0  0  0  0  0  0  0  0  0  0  0
  -39.1591   59.1319   52.2861 C   0  0  0  0  0  0  0  0  0  0  0  0
  -40.3322   60.0261   51.9418 C   0  0  0  0  0  0  0  0  0  0  0  0
  -32.7434   64.6519   63.4237 C   0  0  0  0  0  0  0  0  0  0  0  0
  -33.7473   63.6846   63.9996 C   0  0  0  0  0  0  0  0  0  0  0  0
  -35.1647   63.9518   63.5095 C   0  0  0  0  0  0  0  0  0  0  0  0
  -36.1814   62.9890   64.1016 C   0  0  0  0  0  0  0  0  0  0  0  0
  -37.6033   63.2201   63.6178 C   0  0  0  0  0  0  0  0  0  0  0  0
  -38.1404   64.6094   63.9275 C   0  0  0  0  0  0  0  0  0  0  0  0
  -37.3421   65.7391   63.2894 C   0  0  0  0  0  0  0  0  0  0  0  0
  -37.8720   67.1295   63.6151 C   0  0  0  0  0  0  0  0  0  0  0  0
  -37.0926   68.2721   62.9690 C   0  0  0  0  0  0  0  0  0  0  0  0
  -37.6234   69.6620   63.3168 C   0  0  0  0  0  0  0  0  0  0  0  0
  -37.5932   70.0010   64.8069 C   0  0  0  0  0  0  0  0  0  0  0  0
  -38.1456   71.3902   65.1266 C   0  0  0  0  0  0  0  0  0  0  0  0
  -37.4160   72.5490   64.4473 C   0  0  0  0  0  0  0  0  0  0  0  0
  -37.4373   72.5160   62.9168 C   0  0  0  0  0  0  0  0  0  0  0  0
  -38.8269   72.5738   62.3514 C   0  0  0  0  0  0  0  0  0  0  0  0
  -39.2291   72.0287   61.2170 C   0  0  0  0  0  0  0  0  0  0  0  0
  -38.3790   71.2400   60.2675 C   0  0  0  0  0  0  0  0  0  0  0  0
  -37.2325   70.4889   60.9479 C   0  0  0  0  0  0  0  0  0  0  0  0
  -36.3644   69.7043   59.9732 C   0  0  0  0  0  0  0  0  0  0  0  0
  -35.6883   70.5808   58.9248 C   0  0  0  0  0  0  0  0  0  0  0  0
  -34.8261   69.8182   57.9253 C   0  0  0  0  0  0  0  0  0  0  0  0
  -33.6942   69.0295   58.5687 C   0  0  0  0  0  0  0  0  0  0  0  0
  -32.8179   68.2787   57.5787 C   0  0  0  0  0  0  0  0  0  0  0  0
  -32.1296   69.1953   56.5877 C   0  0  0  0  0  0  0  0  0  0  0  0
  -31.2104   68.0828   64.4327 C   0  0  2  0  0  0  0  0  0  0  0  0
  -30.5480   67.5584   65.7001 C   0  0  1  0  0  0  0  0  0  0  0  0
  -30.2364   68.7171   66.6389 C   0  0  2  0  0  0  0  0  0  0  0  0
  -29.4420   69.8007   65.9249 C   0  0  2  0  0  0  0  0  0  0  0  0
  -30.1703   70.2134   64.6482 C   0  0  1  0  0  0  0  0  0  0  0  0
  -29.3950   71.2080   63.8163 C   0  0  0  0  0  0  0  0  0  0  0  0
  -30.0256   66.9384   68.5560 S   0  0  0  0  0  0  0  0  0  0  0  0
  -33.8632   64.8313   61.7754 H   0  0  0  0  0  0  0  0  0  0  0  0
  -31.4053   68.0450   61.7940 H   0  0  0  0  0  0  0  0  0  0  0  0
  -32.9770   67.7979   62.4965 H   0  0  0  0  0  0  0  0  0  0  0  0
  -32.6374   66.3625   60.5752 H   0  0  0  0  0  0  0  0  0  0  0  0
  -29.9008   67.1635   61.0564 H   0  0  0  0  0  0  0  0  0  0  0  0
  -30.3647   65.1308   62.1077 H   0  0  0  0  0  0  0  0  0  0  0  0
  -30.1536   63.6592   60.1109 H   0  0  0  0  0  0  0  0  0  0  0  0
  -31.5955   65.8899   65.7345 H   0  0  0  0  0  0  0  0  0  0  0  0
  -33.0214   64.2010   60.2344 H   0  0  0  0  0  0  0  0  0  0  0  0
  -31.4917   61.7967   59.3630 H   0  0  0  0  0  0  0  0  0  0  0  0
  -32.2891   62.7365   58.1080 H   0  0  0  0  0  0  0  0  0  0  0  0
  -27.6765   69.0633   66.4032 H   0  0  0  0  0  0  0  0  0  0  0  0
  -34.4255   62.4179   59.2064 H   0  0  0  0  0  0  0  0  0  0  0  0
  -33.6000   61.4690   60.4693 H   0  0  0  0  0  0  0  0  0  0  0  0
  -33.0381   59.7910   58.8837 H   0  0  0  0  0  0  0  0  0  0  0  0
  -33.8453   60.7436   57.6109 H   0  0  0  0  0  0  0  0  0  0  0  0
  -28.6087   73.0074   63.9896 H   0  0  0  0  0  0  0  0  0  0  0  0
  -35.9478   60.4366   58.6719 H   0  0  0  0  0  0  0  0  0  0  0  0
  -35.1488   59.5019   59.9600 H   0  0  0  0  0  0  0  0  0  0  0  0
  -28.3292   66.0818   69.0563 H   0  0  0  0  0  0  0  0  0  0  0  0
  -36.2976   58.0627   58.4014 H   0  0  0  0  0  0  0  0  0  0  0  0
  -34.5346   57.8292   58.3968 H   0  0  0  0  0  0  0  0  0  0  0  0
  -35.4497   57.7135   56.1670 H   0  0  0  0  0  0  0  0  0  0  0  0
  -34.3511   59.0938   56.3971 H   0  0  0  0  0  0  0  0  0  0  0  0
  -30.6977   68.3443   69.9238 H   0  0  0  0  0  0  0  0  0  0  0  0
  -36.2054   60.5781   56.5605 H   0  0  0  0  0  0  0  0  0  0  0  0
  -37.3107   59.1975   56.3485 H   0  0  0  0  0  0  0  0  0  0  0  0
  -35.3749   60.1898   54.3217 H   0  0  0  0  0  0  0  0  0  0  0  0
  -37.1325   60.4710   54.3516 H   0  0  0  0  0  0  0  0  0  0  0  0
  -35.8120   57.8166   54.0793 H   0  0  0  0  0  0  0  0  0  0  0  0
  -36.5527   58.7692   52.7796 H   0  0  0  0  0  0  0  0  0  0  0  0
  -37.9753   57.6708   55.1539 H   0  0  0  0  0  0  0  0  0  0  0  0
  -38.0009   57.0270   53.4904 H   0  0  0  0  0  0  0  0  0  0  0  0
  -39.0444   59.6828   54.3273 H   0  0  0  0  0  0  0  0  0  0  0  0
  -40.0016   58.2321   53.9912 H   0  0  0  0  0  0  0  0  0  0  0  0
  -39.2384   58.2282   51.7188 H   0  0  0  0  0  0  0  0  0  0  0  0
  -38.2627   59.6668   52.0509 H   0  0  0  0  0  0  0  0  0  0  0  0
  -41.2464   59.5175   52.1666 H   0  0  0  0  0  0  0  0  0  0  0  0
  -40.3043   60.2655   50.8993 H   0  0  0  0  0  0  0  0  0  0  0  0
  -40.2747   60.9270   52.5163 H   0  0  0  0  0  0  0  0  0  0  0  0
  -33.7318   63.7687   65.0661 H   0  0  0  0  0  0  0  0  0  0  0  0
  -33.4726   62.7018   63.6777 H   0  0  0  0  0  0  0  0  0  0  0  0
  -35.1823   63.8557   62.4439 H   0  0  0  0  0  0  0  0  0  0  0  0
  -35.4341   64.9390   63.8221 H   0  0  0  0  0  0  0  0  0  0  0  0
  -36.1662   63.0959   65.1661 H   0  0  0  0  0  0  0  0  0  0  0  0
  -35.9009   62.0068   63.7831 H   0  0  0  0  0  0  0  0  0  0  0  0
  -38.2404   62.5000   64.0874 H   0  0  0  0  0  0  0  0  0  0  0  0
  -37.5892   63.1225   62.5524 H   0  0  0  0  0  0  0  0  0  0  0  0
  -38.1277   64.7462   64.9887 H   0  0  0  0  0  0  0  0  0  0  0  0
  -39.1276   64.6581   63.5176 H   0  0  0  0  0  0  0  0  0  0  0  0
  -37.3651   65.6098   62.2275 H   0  0  0  0  0  0  0  0  0  0  0  0
  -36.3509   65.6830   63.6885 H   0  0  0  0  0  0  0  0  0  0  0  0
  -37.8377   67.2600   64.6765 H   0  0  0  0  0  0  0  0  0  0  0  0
  -38.8650   67.1768   63.2192 H   0  0  0  0  0  0  0  0  0  0  0  0
  -37.1371   68.1512   61.9067 H   0  0  0  0  0  0  0  0  0  0  0  0
  -36.0937   68.2186   63.3486 H   0  0  0  0  0  0  0  0  0  0  0  0
  -38.6372   69.7256   62.9806 H   0  0  0  0  0  0  0  0  0  0  0  0
  -36.9757   70.3632   62.8334 H   0  0  0  0  0  0  0  0  0  0  0  0
  -36.5790   69.9537   65.1447 H   0  0  0  0  0  0  0  0  0  0  0  0
  -38.2197   69.2905   65.3045 H   0  0  0  0  0  0  0  0  0  0  0  0
  -38.0858   71.5354   66.1850 H   0  0  0  0  0  0  0  0  0  0  0  0
  -39.1473   71.4068   64.7508 H   0  0  0  0  0  0  0  0  0  0  0  0
  -36.3947   72.5310   64.7659 H   0  0  0  0  0  0  0  0  0  0  0  0
  -37.9342   73.4397   64.7353 H   0  0  0  0  0  0  0  0  0  0  0  0
  -36.9722   71.6101   62.5881 H   0  0  0  0  0  0  0  0  0  0  0  0
  -36.9125   73.3813   62.5692 H   0  0  0  0  0  0  0  0  0  0  0  0
  -39.5341   73.0875   62.9001 H   0  0  0  0  0  0  0  0  0  0  0  0
  -40.2205   72.1579   60.9610 H   0  0  0  0  0  0  0  0  0  0  0  0
  -37.9620   71.9134   59.5482 H   0  0  0  0  0  0  0  0  0  0  0  0
  -39.0123   70.5038   59.8181 H   0  0  0  0  0  0  0  0  0  0  0  0
  -37.6485   69.8053   61.6582 H   0  0  0  0  0  0  0  0  0  0  0  0
  -36.6055   71.2209   61.4124 H   0  0  0  0  0  0  0  0  0  0  0  0
  -36.9806   68.9883   59.4706 H   0  0  0  0  0  0  0  0  0  0  0  0
  -35.5884   69.2394   60.5446 H   0  0  0  0  0  0  0  0  0  0  0  0
  -35.0661   71.2885   59.4315 H   0  0  0  0  0  0  0  0  0  0  0  0
  -36.4725   71.0418   58.3614 H   0  0  0  0  0  0  0  0  0  0  0  0
  -34.4007   70.5217   57.2406 H   0  0  0  0  0  0  0  0  0  0  0  0
  -35.4639   69.1094   57.4397 H   0  0  0  0  0  0  0  0  0  0  0  0
  -34.1221   68.3188   59.2445 H   0  0  0  0  0  0  0  0  0  0  0  0
  -33.0638   69.7408   59.0601 H   0  0  0  0  0  0  0  0  0  0  0  0
  -33.4293   67.5876   57.0370 H   0  0  0  0  0  0  0  0  0  0  0  0
  -32.0546   67.7803   58.1390 H   0  0  0  0  0  0  0  0  0  0  0  0
  -32.8663   69.7115   56.0083 H   0  0  0  0  0  0  0  0  0  0  0  0
  -31.5072   68.6156   55.9385 H   0  0  0  0  0  0  0  0  0  0  0  0
  -31.5294   69.9059   57.1165 H   0  0  0  0  0  0  0  0  0  0  0  0
  -32.1486   68.5400   64.6687 H   0  0  0  0  0  0  0  0  0  0  0  0
  -29.6327   67.0681   65.4416 H   0  0  0  0  0  0  0  0  0  0  0  0
  -31.1294   69.1768   67.0080 H   0  0  0  0  0  0  0  0  0  0  0  0
  -29.3488   70.6437   66.5772 H   0  0  0  0  0  0  0  0  0  0  0  0
  -31.0858   70.6667   64.9665 H   0  0  0  0  0  0  0  0  0  0  0  0
  -28.4751   70.7586   63.5055 H   0  0  0  0  0  0  0  0  0  0  0  0
  -29.9937   71.4764   62.9711 H   0  0  0  0  0  0  0  0  0  0  0  0
  1  4  1  0  0  0  0
  1 31  1  0  0  0  0
  1 62  1  0  0  0  0
  2  3  1  0  0  0  0
  2  4  1  0  0  0  0
  2 63  1  0  0  0  0
  2 64  1  0  0  0  0
  3 55  1  0  0  0  0
  4  6  1  0  0  0  0
  4 65  1  6  0  0  0
  5  6  1  0  0  0  0
  5 66  1  0  0  0  0
  6  8  1  0  0  0  0
  6 67  1  1  0  0  0
  7 31  2  0  0  0  0
  8 10  2  0  0  0  0
  8 68  1  0  0  0  0
  9 56  1  0  0  0  0
  9 69  1  0  0  0  0
 10 12  1  0  0  0  0
 10 70  1  0  0  0  0
 11 57  1  0  0  0  0
 11 61  1  0  0  0  0
 12 14  1  0  0  0  0
 12 71  1  0  0  0  0
 12 72  1  0  0  0  0
 13 58  1  0  0  0  0
 13 73  1  0  0  0  0
 14 16  1  0  0  0  0
 14 74  1  0  0  0  0
 14 75  1  0  0  0  0
 15 55  1  0  0  0  0
 15 59  1  0  0  0  0
 16 18  1  0  0  0  0
 16 76  1  0  0  0  0
 16 77  1  0  0  0  0
 17 60  1  0  0  0  0
 17 78  1  0  0  0  0
 18 20  1  0  0  0  0
 18 79  1  0  0  0  0
 18 80  1  0  0  0  0
 19 61  1  0  0  0  0
 19 81  1  0  0  0  0
 20 22  1  0  0  0  0
 20 82  1  0  0  0  0
 20 83  1  0  0  0  0
 21 61  1  0  0  0  0
 22 24  1  0  0  0  0
 22 84  1  0  0  0  0
 22 85  1  0  0  0  0
 23 61  1  0  0  0  0
 23 86  1  0  0  0  0
 24 25  1  0  0  0  0
 24 87  1  0  0  0  0
 24 88  1  0  0  0  0
 25 26  1  0  0  0  0
 25 89  1  0  0  0  0
 25 90  1  0  0  0  0
 26 27  1  0  0  0  0
 26 91  1  0  0  0  0
 26 92  1  0  0  0  0
 27 28  1  0  0  0  0
 27 93  1  0  0  0  0
 27 94  1  0  0  0  0
 28 29  1  0  0  0  0
 28 95  1  0  0  0  0
 28 96  1  0  0  0  0
 29 30  1  0  0  0  0
 29 97  1  0  0  0  0
 29 98  1  0  0  0  0
 30 99  1  0  0  0  0
 30100  1  0  0  0  0
 30101  1  0  0  0  0
 31 32  1  0  0  0  0
 32 33  1  0  0  0  0
 32102  1  0  0  0  0
 32103  1  0  0  0  0
 33 34  1  0  0  0  0
 33104  1  0  0  0  0
 33105  1  0  0  0  0
 34 35  1  0  0  0  0
 34106  1  0  0  0  0
 34107  1  0  0  0  0
 35 36  1  0  0  0  0
 35108  1  0  0  0  0
 35109  1  0  0  0  0
 36 37  1  0  0  0  0
 36110  1  0  0  0  0
 36111  1  0  0  0  0
 37 38  1  0  0  0  0
 37112  1  0  0  0  0
 37113  1  0  0  0  0
 38 39  1  0  0  0  0
 38114  1  0  0  0  0
 38115  1  0  0  0  0
 39 40  1  0  0  0  0
 39116  1  0  0  0  0
 39117  1  0  0  0  0
 40 41  1  0  0  0  0
 40118  1  0  0  0  0
 40119  1  0  0  0  0
 41 42  1  0  0  0  0
 41120  1  0  0  0  0
 41121  1  0  0  0  0
 42 43  1  0  0  0  0
 42122  1  0  0  0  0
 42123  1  0  0  0  0
 43 44  1  0  0  0  0
 43124  1  0  0  0  0
 43125  1  0  0  0  0
 44 45  1  0  0  0  0
 44126  1  0  0  0  0
 44127  1  0  0  0  0
 45 46  2  0  0  0  0
 45128  1  0  0  0  0
 46 47  1  0  0  0  0
 46129  1  0  0  0  0
 47 48  1  0  0  0  0
 47130  1  0  0  0  0
 47131  1  0  0  0  0
 48 49  1  0  0  0  0
 48132  1  0  0  0  0
 48133  1  0  0  0  0
 49 50  1  0  0  0  0
 49134  1  0  0  0  0
 49135  1  0  0  0  0
 50 51  1  0  0  0  0
 50136  1  0  0  0  0
 50137  1  0  0  0  0
 51 52  1  0  0  0  0
 51138  1  0  0  0  0
 51139  1  0  0  0  0
 52 53  1  0  0  0  0
 52140  1  0  0  0  0
 52141  1  0  0  0  0
 53 54  1  0  0  0  0
 53142  1  0  0  0  0
 53143  1  0  0  0  0
 54144  1  0  0  0  0
 54145  1  0  0  0  0
 54146  1  0  0  0  0
 55 56  1  0  0  0  0
 55147  1  1  0  0  0
 56 57  1  0  0  0  0
 56148  1  6  0  0  0
 57 58  1  0  0  0  0
 57149  1  1  0  0  0
 58 59  1  0  0  0  0
 58150  1  1  0  0  0
 59 60  1  0  0  0  0
 59151  1  1  0  0  0
 60152  1  0  0  0  0
 60153  1  0  0  0  0
M  CHG  1  21  -1
M  END
$$$$
/media/chris/experiments/cd1a-new-docking/inputs/ligands/7ryn_ligand.pdb
 OpenBabel07032312553D

153153  0  0  1  0  0  0  0  0999 V2000
  -33.0340   65.1330   62.2120 N   0  0  0  0  0  0  0  0  0  0  0  0
  -32.0220   67.3480   62.3220 C   0  0  0  0  0  0  0  0  0  0  0  0
  -31.4051   67.0024   63.5673 O   0  0  0  0  0  0  0  0  0  0  0  0
  -32.1830   66.0840   61.5030 C   0  0  1  0  0  0  0  0  0  0  0  0
  -30.2154   65.0225   62.4176 O   0  0  0  0  0  0  0  0  0  0  0  0
  -30.8310   65.4230   61.1900 C   0  0  2  0  0  0  0  0  0  0  0  0
  -32.4714   65.8137   64.2827 O   0  0  0  0  0  0  0  0  0  0  0  0
  -29.9369   66.3439   60.4177 C   0  0  0  0  0  0  0  0  0  0  0  0
  -29.0472   68.5087   63.4560 O   0  0  0  0  0  0  0  0  0  0  0  0
  -29.5088   67.5166   60.8413 C   0  0  0  0  0  0  0  0  0  0  0  0
  -29.4663   71.3004   63.7442 O   0  0  0  0  0  0  0  0  0  0  0  0
  -28.6047   68.4062   60.0527 C   0  0  0  0  0  0  0  0  0  0  0  0
  -32.1950   71.4092   63.9043 O   0  0  0  0  0  0  0  0  0  0  0  0
  -27.6912   67.5893   59.1365 C   0  0  0  0  0  0  0  0  0  0  0  0
  -32.4523   68.6756   64.7639 O   0  0  0  0  0  0  0  0  0  0  0  0
  -26.7271   68.4260   58.3113 C   0  0  0  0  0  0  0  0  0  0  0  0
  -33.7220   71.3280   66.9172 O   0  0  0  0  0  0  0  0  0  0  0  0
  -25.8308   67.6180   57.3885 C   0  0  0  0  0  0  0  0  0  0  0  0
  -28.4817   73.4554   63.3041 O   0  0  0  0  0  0  0  0  0  0  0  0
  -26.5869   66.8013   56.3507 C   0  0  0  0  0  0  0  0  0  0  0  0
  -28.5846   72.5516   65.6468 O   0  5  0  0  0  0  0  0  0  0  0  0
  -25.6836   65.9820   55.4417 C   0  0  0  0  0  0  0  0  0  0  0  0
  -30.5292   73.2918   64.5035 O   0  0  0  0  0  0  0  0  0  0  0  0
  -26.4353   65.1794   54.3944 C   0  0  0  0  0  0  0  0  0  0  0  0
  -27.4270   64.1863   54.9709 C   0  0  0  0  0  0  0  0  0  0  0  0
  -28.5242   64.8256   55.8047 C   0  0  0  0  0  0  0  0  0  0  0  0
  -29.4944   63.8136   56.3852 C   0  0  0  0  0  0  0  0  0  0  0  0
  -30.6132   64.4204   57.2101 C   0  0  0  0  0  0  0  0  0  0  0  0
  -31.4824   65.3670   56.4058 C   0  0  0  0  0  0  0  0  0  0  0  0
  -32.5888   65.9852   57.2353 C   0  0  0  0  0  0  0  0  0  0  0  0
  -33.1122   65.0716   63.5440 C   0  0  0  0  0  0  0  0  0  0  0  0
  -34.0520   64.0283   64.0950 C   0  0  0  0  0  0  0  0  0  0  0  0
  -35.2217   63.7435   63.1616 C   0  0  0  0  0  0  0  0  0  0  0  0
  -36.0602   64.9795   62.8779 C   0  0  0  0  0  0  0  0  0  0  0  0
  -36.6633   65.6133   64.1204 C   0  0  0  0  0  0  0  0  0  0  0  0
  -37.5757   64.6824   64.9049 C   0  0  0  0  0  0  0  0  0  0  0  0
  -38.7634   64.1606   64.1063 C   0  0  0  0  0  0  0  0  0  0  0  0
  -39.6844   63.2423   64.8993 C   0  0  0  0  0  0  0  0  0  0  0  0
  -39.0072   61.9926   65.4560 C   0  0  0  0  0  0  0  0  0  0  0  0
  -39.9449   61.0715   66.2348 C   0  0  0  0  0  0  0  0  0  0  0  0
  -41.1140   60.5170   65.4211 C   0  0  0  0  0  0  0  0  0  0  0  0
  -42.0444   59.6129   66.2300 C   0  0  0  0  0  0  0  0  0  0  0  0
  -42.7195   60.2836   67.4263 C   0  0  0  0  0  0  0  0  0  0  0  0
  -43.6172   61.4735   67.0768 C   0  0  0  0  0  0  0  0  0  0  0  0
  -42.8784   62.5743   66.3720 C   0  0  0  0  0  0  0  0  0  0  0  0
  -43.1570   63.8643   66.4363 C   0  0  0  0  0  0  0  0  0  0  0  0
  -44.2655   64.4886   67.2285 C   0  0  0  0  0  0  0  0  0  0  0  0
  -44.3419   66.0101   67.0851 C   0  0  0  0  0  0  0  0  0  0  0  0
  -44.5864   66.4685   65.6536 C   0  0  0  0  0  0  0  0  0  0  0  0
  -43.5066   66.0114   64.6793 C   0  0  0  0  0  0  0  0  0  0  0  0
  -43.7181   66.4712   63.2413 C   0  0  0  0  0  0  0  0  0  0  0  0
  -42.6400   65.9917   62.2796 C   0  0  0  0  0  0  0  0  0  0  0  0
  -41.2357   66.4488   62.6410 C   0  0  0  0  0  0  0  0  0  0  0  0
  -40.1883   65.9700   61.6562 C   0  0  0  0  0  0  0  0  0  0  0  0
  -31.2104   68.0828   64.4327 C   0  0  2  0  0  0  0  0  0  0  0  0
  -30.3138   69.0941   63.7304 C   0  0  1  0  0  0  0  0  0  0  0  0
  -30.1449   70.3308   64.6038 C   0  0  2  0  0  0  0  0  0  0  0  0
  -31.4954   70.8877   65.0296 C   0  0  2  0  0  0  0  0  0  0  0  0
  -32.3266   69.7807   65.6732 C   0  0  1  0  0  0  0  0  0  0  0  0
  -33.7288   70.2187   66.0260 C   0  0  0  0  0  0  0  0  0  0  0  0
  -29.1081   72.7269   64.3444 S   0  0  0  0  0  0  0  0  0  0  0  0
  -33.5772   64.5058   61.6821 H   0  0  0  0  0  0  0  0  0  0  0  0
  -31.4053   68.0450   61.7940 H   0  0  0  0  0  0  0  0  0  0  0  0
  -32.9770   67.7979   62.4965 H   0  0  0  0  0  0  0  0  0  0  0  0
  -32.6374   66.3625   60.5752 H   0  0  0  0  0  0  0  0  0  0  0  0
  -30.8116   64.4280   62.8994 H   0  0  0  0  0  0  0  0  0  0  0  0
  -30.9971   64.5628   60.5757 H   0  0  0  0  0  0  0  0  0  0  0  0
  -29.6322   66.0363   59.4809 H   0  0  0  0  0  0  0  0  0  0  0  0
  -29.1677   67.7231   62.8999 H   0  0  0  0  0  0  0  0  0  0  0  0
  -29.8165   67.8388   61.7722 H   0  0  0  0  0  0  0  0  0  0  0  0
  -28.0023   68.9785   60.7269 H   0  0  0  0  0  0  0  0  0  0  0  0
  -29.2061   69.0508   59.4463 H   0  0  0  0  0  0  0  0  0  0  0  0
  -31.6684   72.1129   63.4939 H   0  0  0  0  0  0  0  0  0  0  0  0
  -28.3056   67.0260   58.4657 H   0  0  0  0  0  0  0  0  0  0  0  0
  -27.0940   66.9689   59.7716 H   0  0  0  0  0  0  0  0  0  0  0  0
  -26.1047   68.9799   58.9826 H   0  0  0  0  0  0  0  0  0  0  0  0
  -27.3251   69.0544   57.6849 H   0  0  0  0  0  0  0  0  0  0  0  0
  -34.6350   71.5832   67.1228 H   0  0  0  0  0  0  0  0  0  0  0  0
  -25.2496   66.9473   57.9863 H   0  0  0  0  0  0  0  0  0  0  0  0
  -25.2272   68.3192   56.8510 H   0  0  0  0  0  0  0  0  0  0  0  0
  -27.5791   73.1242   63.1756 H   0  0  0  0  0  0  0  0  0  0  0  0
  -27.1583   67.4720   55.7437 H   0  0  0  0  0  0  0  0  0  0  0  0
  -27.2033   66.1093   56.8855 H   0  0  0  0  0  0  0  0  0  0  0  0
  -25.1212   65.3030   56.0479 H   0  0  0  0  0  0  0  0  0  0  0  0
  -25.0595   66.6741   54.9160 H   0  0  0  0  0  0  0  0  0  0  0  0
  -30.9236   73.4264   63.6276 H   0  0  0  0  0  0  0  0  0  0  0  0
  -25.7213   64.6398   53.8079 H   0  0  0  0  0  0  0  0  0  0  0  0
  -27.0002   65.8796   53.8151 H   0  0  0  0  0  0  0  0  0  0  0  0
  -26.8920   63.4966   55.5898 H   0  0  0  0  0  0  0  0  0  0  0  0
  -27.9056   63.7082   54.1418 H   0  0  0  0  0  0  0  0  0  0  0  0
  -29.0708   65.5054   55.1851 H   0  0  0  0  0  0  0  0  0  0  0  0
  -28.0526   65.3240   56.6257 H   0  0  0  0  0  0  0  0  0  0  0  0
  -28.9436   63.1424   57.0105 H   0  0  0  0  0  0  0  0  0  0  0  0
  -29.9583   63.3238   55.5546 H   0  0  0  0  0  0  0  0  0  0  0  0
  -30.1824   64.9609   58.0269 H   0  0  0  0  0  0  0  0  0  0  0  0
  -31.2354   63.6196   57.5514 H   0  0  0  0  0  0  0  0  0  0  0  0
  -31.9232   64.8238   55.5962 H   0  0  0  0  0  0  0  0  0  0  0  0
  -30.8581   66.1612   56.0532 H   0  0  0  0  0  0  0  0  0  0  0  0
  -33.2323   65.2136   57.6035 H   0  0  0  0  0  0  0  0  0  0  0  0
  -33.1540   66.6616   56.6287 H   0  0  0  0  0  0  0  0  0  0  0  0
  -32.1619   66.5171   58.0597 H   0  0  0  0  0  0  0  0  0  0  0  0
  -34.4370   64.3740   65.0315 H   0  0  0  0  0  0  0  0  0  0  0  0
  -33.4981   63.1198   64.2077 H   0  0  0  0  0  0  0  0  0  0  0  0
  -35.8470   63.0017   63.6129 H   0  0  0  0  0  0  0  0  0  0  0  0
  -34.8173   63.4064   62.2300 H   0  0  0  0  0  0  0  0  0  0  0  0
  -36.8575   64.7020   62.2205 H   0  0  0  0  0  0  0  0  0  0  0  0
  -35.4050   65.7065   62.4454 H   0  0  0  0  0  0  0  0  0  0  0  0
  -37.2318   66.4687   63.8204 H   0  0  0  0  0  0  0  0  0  0  0  0
  -35.8490   65.8679   64.7662 H   0  0  0  0  0  0  0  0  0  0  0  0
  -37.9493   65.2148   65.7545 H   0  0  0  0  0  0  0  0  0  0  0  0
  -36.9881   63.8308   65.1779 H   0  0  0  0  0  0  0  0  0  0  0  0
  -38.3901   63.6173   63.2634 H   0  0  0  0  0  0  0  0  0  0  0  0
  -39.3445   65.0126   63.8211 H   0  0  0  0  0  0  0  0  0  0  0  0
  -40.4813   62.9321   64.2562 H   0  0  0  0  0  0  0  0  0  0  0  0
  -40.0229   63.8063   65.7433 H   0  0  0  0  0  0  0  0  0  0  0  0
  -38.2185   62.3006   66.1102 H   0  0  0  0  0  0  0  0  0  0  0  0
  -38.6514   61.4334   64.6160 H   0  0  0  0  0  0  0  0  0  0  0  0
  -40.3446   61.6228   67.0601 H   0  0  0  0  0  0  0  0  0  0  0  0
  -39.3594   60.2284   66.5369 H   0  0  0  0  0  0  0  0  0  0  0  0
  -40.7194   59.9517   64.6028 H   0  0  0  0  0  0  0  0  0  0  0  0
  -41.6946   61.3538   65.0931 H   0  0  0  0  0  0  0  0  0  0  0  0
  -41.4702   58.7864   66.5936 H   0  0  0  0  0  0  0  0  0  0  0  0
  -42.8321   59.3244   65.5658 H   0  0  0  0  0  0  0  0  0  0  0  0
  -41.9540   60.6283   68.0897 H   0  0  0  0  0  0  0  0  0  0  0  0
  -43.3579   59.5445   67.8636 H   0  0  0  0  0  0  0  0  0  0  0  0
  -44.0323   61.8656   67.9817 H   0  0  0  0  0  0  0  0  0  0  0  0
  -44.3767   61.1189   66.4118 H   0  0  0  0  0  0  0  0  0  0  0  0
  -42.0781   62.2974   65.7822 H   0  0  0  0  0  0  0  0  0  0  0  0
  -42.5556   64.5009   65.8903 H   0  0  0  0  0  0  0  0  0  0  0  0
  -44.1163   64.2536   68.2617 H   0  0  0  0  0  0  0  0  0  0  0  0
  -45.1837   64.0919   66.8484 H   0  0  0  0  0  0  0  0  0  0  0  0
  -43.4176   66.4300   67.4230 H   0  0  0  0  0  0  0  0  0  0  0  0
  -45.1735   66.3423   67.6708 H   0  0  0  0  0  0  0  0  0  0  0  0
  -44.6238   67.5378   65.6414 H   0  0  0  0  0  0  0  0  0  0  0  0
  -45.5077   66.0282   65.3337 H   0  0  0  0  0  0  0  0  0  0  0  0
  -43.4797   64.9417   64.6877 H   0  0  0  0  0  0  0  0  0  0  0  0
  -42.5906   66.4551   65.0095 H   0  0  0  0  0  0  0  0  0  0  0  0
  -43.7313   67.5410   63.2275 H   0  0  0  0  0  0  0  0  0  0  0  0
  -44.6429   66.0466   62.9106 H   0  0  0  0  0  0  0  0  0  0  0  0
  -42.8726   66.3617   61.3030 H   0  0  0  0  0  0  0  0  0  0  0  0
  -42.6378   64.9228   62.3278 H   0  0  0  0  0  0  0  0  0  0  0  0
  -40.9917   66.0684   63.6109 H   0  0  0  0  0  0  0  0  0  0  0  0
  -41.2308   67.5186   62.6203 H   0  0  0  0  0  0  0  0  0  0  0  0
  -40.1661   64.9002   61.6512 H   0  0  0  0  0  0  0  0  0  0  0  0
  -39.2289   66.3453   61.9453 H   0  0  0  0  0  0  0  0  0  0  0  0
  -40.4304   66.3263   60.6767 H   0  0  0  0  0  0  0  0  0  0  0  0
  -30.7515   67.7503   65.3403 H   0  0  0  0  0  0  0  0  0  0  0  0
  -30.7674   69.3839   62.8057 H   0  0  0  0  0  0  0  0  0  0  0  0
  -29.6019   70.1103   65.4990 H   0  0  0  0  0  0  0  0  0  0  0  0
  -31.3342   71.6761   65.7349 H   0  0  0  0  0  0  0  0  0  0  0  0
  -31.8112   69.5117   66.5715 H   0  0  0  0  0  0  0  0  0  0  0  0
  -34.2418   70.4968   65.1292 H   0  0  0  0  0  0  0  0  0  0  0  0
  -34.2225   69.4026   66.5110 H   0  0  0  0  0  0  0  0  0  0  0  0
  1  4  1  0  0  0  0
  1 31  1  0  0  0  0
  1 62  1  0  0  0  0
  2  3  1  0  0  0  0
  2  4  1  0  0  0  0
  2 63  1  0  0  0  0
  2 64  1  0  0  0  0
  3 55  1  0  0  0  0
  4  6  1  0  0  0  0
  4 65  1  6  0  0  0
  5  6  1  0  0  0  0
  5 66  1  0  0  0  0
  6  8  1  0  0  0  0
  6 67  1  6  0  0  0
  7 31  2  0  0  0  0
  8 10  2  0  0  0  0
  8 68  1  0  0  0  0
  9 56  1  0  0  0  0
  9 69  1  0  0  0  0
 10 12  1  0  0  0  0
 10 70  1  0  0  0  0
 11 57  1  0  0  0  0
 11 61  1  0  0  0  0
 12 14  1  0  0  0  0
 12 71  1  0  0  0  0
 12 72  1  0  0  0  0
 13 58  1  0  0  0  0
 13 73  1  0  0  0  0
 14 16  1  0  0  0  0
 14 74  1  0  0  0  0
 14 75  1  0  0  0  0
 15 55  1  0  0  0  0
 15 59  1  0  0  0  0
 16 18  1  0  0  0  0
 16 76  1  0  0  0  0
 16 77  1  0  0  0  0
 17 60  1  0  0  0  0
 17 78  1  0  0  0  0
 18 20  1  0  0  0  0
 18 79  1  0  0  0  0
 18 80  1  0  0  0  0
 19 61  1  0  0  0  0
 19 81  1  0  0  0  0
 20 22  1  0  0  0  0
 20 82  1  0  0  0  0
 20 83  1  0  0  0  0
 21 61  1  0  0  0  0
 22 24  1  0  0  0  0
 22 84  1  0  0  0  0
 22 85  1  0  0  0  0
 23 61  1  0  0  0  0
 23 86  1  0  0  0  0
 24 25  1  0  0  0  0
 24 87  1  0  0  0  0
 24 88  1  0  0  0  0
 25 26  1  0  0  0  0
 25 89  1  0  0  0  0
 25 90  1  0  0  0  0
 26 27  1  0  0  0  0
 26 91  1  0  0  0  0
 26 92  1  0  0  0  0
 27 28  1  0  0  0  0
 27 93  1  0  0  0  0
 27 94  1  0  0  0  0
 28 29  1  0  0  0  0
 28 95  1  0  0  0  0
 28 96  1  0  0  0  0
 29 30  1  0  0  0  0
 29 97  1  0  0  0  0
 29 98  1  0  0  0  0
 30 99  1  0  0  0  0
 30100  1  0  0  0  0
 30101  1  0  0  0  0
 31 32  1  0  0  0  0
 32 33  1  0  0  0  0
 32102  1  0  0  0  0
 32103  1  0  0  0  0
 33 34  1  0  0  0  0
 33104  1  0  0  0  0
 33105  1  0  0  0  0
 34 35  1  0  0  0  0
 34106  1  0  0  0  0
 34107  1  0  0  0  0
 35 36  1  0  0  0  0
 35108  1  0  0  0  0
 35109  1  0  0  0  0
 36 37  1  0  0  0  0
 36110  1  0  0  0  0
 36111  1  0  0  0  0
 37 38  1  0  0  0  0
 37112  1  0  0  0  0
 37113  1  0  0  0  0
 38 39  1  0  0  0  0
 38114  1  0  0  0  0
 38115  1  0  0  0  0
 39 40  1  0  0  0  0
 39116  1  0  0  0  0
 39117  1  0  0  0  0
 40 41  1  0  0  0  0
 40118  1  0  0  0  0
 40119  1  0  0  0  0
 41 42  1  0  0  0  0
 41120  1  0  0  0  0
 41121  1  0  0  0  0
 42 43  1  0  0  0  0
 42122  1  0  0  0  0
 42123  1  0  0  0  0
 43 44  1  0  0  0  0
 43124  1  0  0  0  0
 43125  1  0  0  0  0
 44 45  1  0  0  0  0
 44126  1  0  0  0  0
 44127  1  0  0  0  0
 45 46  2  0  0  0  0
 45128  1  0  0  0  0
 46 47  1  0  0  0  0
 46129  1  0  0  0  0
 47 48  1  0  0  0  0
 47130  1  0  0  0  0
 47131  1  0  0  0  0
 48 49  1  0  0  0  0
 48132  1  0  0  0  0
 48133  1  0  0  0  0
 49 50  1  0  0  0  0
 49134  1  0  0  0  0
 49135  1  0  0  0  0
 50 51  1  0  0  0  0
 50136  1  0  0  0  0
 50137  1  0  0  0  0
 51 52  1  0  0  0  0
 51138  1  0  0  0  0
 51139  1  0  0  0  0
 52 53  1  0  0  0  0
 52140  1  0  0  0  0
 52141  1  0  0  0  0
 53 54  1  0  0  0  0
 53142  1  0  0  0  0
 53143  1  0  0  0  0
 54144  1  0  0  0  0
 54145  1  0  0  0  0
 54146  1  0  0  0  0
 55 56  1  0  0  0  0
 55147  1  1  0  0  0
 56 57  1  0  0  0  0
 56148  1  6  0  0  0
 57 58  1  0  0  0  0
 57149  1  1  0  0  0
 58 59  1  0  0  0  0
 58150  1  1  0  0  0
 59 60  1  0  0  0  0
 59151  1  1  0  0  0
 60152  1  0  0  0  0
 60153  1  0  0  0  0
M  CHG  1  21  -1
M  END
$$$$
/media/chris/experiments/cd1a-new-docking/inputs/ligands/7ryn_ligand.pdb
 OpenBabel07032312553D

153153  0  0  1  0  0  0  0  0999 V2000
  -33.0340   65.1330   62.2120 N   0  0  0  0  0  0  0  0  0  0  0  0
  -32.0220   67.3480   62.3220 C   0  0  0  0  0  0  0  0  0  0  0  0
  -31.4051   67.0024   63.5673 O   0  0  0  0  0  0  0  0  0  0  0  0
  -32.1830   66.0840   61.5030 C   0  0  1  0  0  0  0  0  0  0  0  0
  -31.0548   64.2805   60.3587 O   0  0  0  0  0  0  0  0  0  0  0  0
  -30.8310   65.4230   61.1900 C   0  0  2  0  0  0  0  0  0  0  0  0
  -31.4954   63.4950   62.3441 O   0  0  0  0  0  0  0  0  0  0  0  0
  -30.1054   65.0399   62.4433 C   0  0  0  0  0  0  0  0  0  0  0  0
  -31.4046   66.6220   66.3415 O   0  0  0  0  0  0  0  0  0  0  0  0
  -28.9184   64.4680   62.4873 C   0  0  0  0  0  0  0  0  0  0  0  0
  -29.4155   68.1261   67.6954 O   0  0  0  0  0  0  0  0  0  0  0  0
  -28.2138   64.1114   63.7550 C   0  0  0  0  0  0  0  0  0  0  0  0
  -28.1411   69.3260   65.5933 O   0  0  0  0  0  0  0  0  0  0  0  0
  -29.0503   64.4971   64.9767 C   0  0  0  0  0  0  0  0  0  0  0  0
  -30.3909   69.0606   63.8198 O   0  0  0  0  0  0  0  0  0  0  0  0
  -28.3904   64.1801   66.3089 C   0  0  0  0  0  0  0  0  0  0  0  0
  -28.1534   70.6686   63.3778 O   0  0  0  0  0  0  0  0  0  0  0  0
  -27.0679   64.8924   66.5361 C   0  0  0  0  0  0  0  0  0  0  0  0
  -29.0352   66.5764   69.5011 O   0  0  0  0  0  0  0  0  0  0  0  0
  -26.4049   64.5573   67.8642 C   0  0  0  0  0  0  0  0  0  0  0  0
  -30.6879   66.0419   67.6849 O   0  5  0  0  0  0  0  0  0  0  0  0
  -26.0681   63.0828   68.0239 C   0  0  0  0  0  0  0  0  0  0  0  0
  -31.1144   67.7162   69.3133 O   0  0  0  0  0  0  0  0  0  0  0  0
  -27.2753   62.1660   67.9321 C   0  0  0  0  0  0  0  0  0  0  0  0
  -26.9488   60.6946   68.1074 C   0  0  0  0  0  0  0  0  0  0  0  0
  -25.9632   60.1567   67.0843 C   0  0  0  0  0  0  0  0  0  0  0  0
  -26.4524   60.3023   65.6553 C   0  0  0  0  0  0  0  0  0  0  0  0
  -27.7620   59.5938   65.3665 C   0  0  0  0  0  0  0  0  0  0  0  0
  -28.2039   59.7512   63.9248 C   0  0  0  0  0  0  0  0  0  0  0  0
  -29.5204   59.0574   63.6423 C   0  0  0  0  0  0  0  0  0  0  0  0
  -32.6252   63.9148   62.5768 C   0  0  0  0  0  0  0  0  0  0  0  0
  -33.6441   63.0766   63.3080 C   0  0  0  0  0  0  0  0  0  0  0  0
  -33.4627   61.5850   63.0573 C   0  0  0  0  0  0  0  0  0  0  0  0
  -33.5729   61.2200   61.5856 C   0  0  0  0  0  0  0  0  0  0  0  0
  -33.4131   59.7349   61.3056 C   0  0  0  0  0  0  0  0  0  0  0  0
  -33.5066   59.3734   59.8308 C   0  0  0  0  0  0  0  0  0  0  0  0
  -32.4425   60.0324   58.9624 C   0  0  0  0  0  0  0  0  0  0  0  0
  -32.5490   59.6820   57.4838 C   0  0  0  0  0  0  0  0  0  0  0  0
  -32.4374   58.1909   57.1763 C   0  0  0  0  0  0  0  0  0  0  0  0
  -33.5230   57.3379   57.8305 C   0  0  0  0  0  0  0  0  0  0  0  0
  -33.4145   55.8401   57.5455 C   0  0  0  0  0  0  0  0  0  0  0  0
  -34.5230   55.0141   58.1985 C   0  0  0  0  0  0  0  0  0  0  0  0
  -35.9417   55.3674   57.7524 C   0  0  0  0  0  0  0  0  0  0  0  0
  -37.0504   54.5500   58.4208 C   0  0  0  0  0  0  0  0  0  0  0  0
  -37.0808   54.7184   59.9124 C   0  0  0  0  0  0  0  0  0  0  0  0
  -37.7729   55.6249   60.5795 C   0  0  0  0  0  0  0  0  0  0  0  0
  -38.6696   56.6660   59.9811 C   0  0  0  0  0  0  0  0  0  0  0  0
  -38.2485   58.1005   60.3069 C   0  0  0  0  0  0  0  0  0  0  0  0
  -39.1753   59.1506   59.7088 C   0  0  0  0  0  0  0  0  0  0  0  0
  -40.6122   59.0435   60.2069 C   0  0  0  0  0  0  0  0  0  0  0  0
  -41.5654   60.0729   59.6106 C   0  0  0  0  0  0  0  0  0  0  0  0
  -42.9913   59.9621   60.1317 C   0  0  0  0  0  0  0  0  0  0  0  0
  -43.6464   58.6151   59.8704 C   0  0  0  0  0  0  0  0  0  0  0  0
  -43.7216   58.2723   58.3964 C   0  0  0  0  0  0  0  0  0  0  0  0
  -31.2104   68.0828   64.4327 C   0  0  2  0  0  0  0  0  0  0  0  0
  -30.5480   67.5584   65.7001 C   0  0  1  0  0  0  0  0  0  0  0  0
  -30.2364   68.7171   66.6389 C   0  0  2  0  0  0  0  0  0  0  0  0
  -29.4420   69.8007   65.9249 C   0  0  2  0  0  0  0  0  0  0  0  0
  -30.1703   70.2134   64.6482 C   0  0  1  0  0  0  0  0  0  0  0  0
  -29.3950   71.2080   63.8163 C   0  0  0  0  0  0  0  0  0  0  0  0
  -30.0256   66.9384   68.5560 S   0  0  0  0  0  0  0  0  0  0  0  0
  -33.9548   65.4029   62.4321 H   0  0  0  0  0  0  0  0  0  0  0  0
  -31.4053   68.0450   61.7940 H   0  0  0  0  0  0  0  0  0  0  0  0
  -32.9770   67.7979   62.4965 H   0  0  0  0  0  0  0  0  0  0  0  0
  -32.6374   66.3625   60.5752 H   0  0  0  0  0  0  0  0  0  0  0  0
  -31.5249   64.5525   59.5551 H   0  0  0  0  0  0  0  0  0  0  0  0
  -30.2105   66.1253   60.6735 H   0  0  0  0  0  0  0  0  0  0  0  0
  -30.5711   65.2392   63.3425 H   0  0  0  0  0  0  0  0  0  0  0  0
  -31.5955   65.8899   65.7345 H   0  0  0  0  0  0  0  0  0  0  0  0
  -28.4487   64.2543   61.5936 H   0  0  0  0  0  0  0  0  0  0  0  0
  -27.2790   64.6306   63.7933 H   0  0  0  0  0  0  0  0  0  0  0  0
  -28.0568   63.0531   63.7707 H   0  0  0  0  0  0  0  0  0  0  0  0
  -27.6765   69.0633   66.4032 H   0  0  0  0  0  0  0  0  0  0  0  0
  -29.9791   63.9682   64.9280 H   0  0  0  0  0  0  0  0  0  0  0  0
  -29.1756   65.5592   64.9407 H   0  0  0  0  0  0  0  0  0  0  0  0
  -28.2151   63.1255   66.3536 H   0  0  0  0  0  0  0  0  0  0  0  0
  -29.0583   64.5231   67.0712 H   0  0  0  0  0  0  0  0  0  0  0  0
  -27.6822   71.3306   62.8482 H   0  0  0  0  0  0  0  0  0  0  0  0
  -27.2442   65.9473   66.5047 H   0  0  0  0  0  0  0  0  0  0  0  0
  -26.4024   64.5629   65.7659 H   0  0  0  0  0  0  0  0  0  0  0  0
  -28.3292   66.0818   69.0563 H   0  0  0  0  0  0  0  0  0  0  0  0
  -27.0690   64.8398   68.6542 H   0  0  0  0  0  0  0  0  0  0  0  0
  -25.4802   65.0948   67.8968 H   0  0  0  0  0  0  0  0  0  0  0  0
  -25.6100   62.9429   68.9807 H   0  0  0  0  0  0  0  0  0  0  0  0
  -25.4162   62.8223   67.2163 H   0  0  0  0  0  0  0  0  0  0  0  0
  -30.6977   68.3443   69.9238 H   0  0  0  0  0  0  0  0  0  0  0  0
  -27.7256   62.2983   66.9706 H   0  0  0  0  0  0  0  0  0  0  0  0
  -27.9296   62.4353   68.7347 H   0  0  0  0  0  0  0  0  0  0  0  0
  -27.8577   60.1358   68.0259 H   0  0  0  0  0  0  0  0  0  0  0  0
  -26.4876   60.5910   69.0674 H   0  0  0  0  0  0  0  0  0  0  0  0
  -25.7974   59.1186   67.2837 H   0  0  0  0  0  0  0  0  0  0  0  0
  -25.0641   60.7297   67.1744 H   0  0  0  0  0  0  0  0  0  0  0  0
  -25.7045   59.9022   65.0031 H   0  0  0  0  0  0  0  0  0  0  0  0
  -26.6284   61.3458   65.4975 H   0  0  0  0  0  0  0  0  0  0  0  0
  -28.5195   60.0003   66.0036 H   0  0  0  0  0  0  0  0  0  0  0  0
  -27.6127   58.5498   65.5478 H   0  0  0  0  0  0  0  0  0  0  0  0
  -27.4523   59.3335   63.2880 H   0  0  0  0  0  0  0  0  0  0  0  0
  -28.3407   60.7961   63.7391 H   0  0  0  0  0  0  0  0  0  0  0  0
  -29.4154   58.0074   63.8195 H   0  0  0  0  0  0  0  0  0  0  0  0
  -29.7980   59.2209   62.6219 H   0  0  0  0  0  0  0  0  0  0  0  0
  -30.2778   59.4538   64.2858 H   0  0  0  0  0  0  0  0  0  0  0  0
  -34.6219   63.3629   62.9810 H   0  0  0  0  0  0  0  0  0  0  0  0
  -33.5131   63.2478   64.3561 H   0  0  0  0  0  0  0  0  0  0  0  0
  -34.2162   61.0527   63.5994 H   0  0  0  0  0  0  0  0  0  0  0  0
  -32.4788   61.3197   63.3834 H   0  0  0  0  0  0  0  0  0  0  0  0
  -32.8117   61.7476   61.0498 H   0  0  0  0  0  0  0  0  0  0  0  0
  -34.5593   61.4907   61.2716 H   0  0  0  0  0  0  0  0  0  0  0  0
  -34.1818   59.2081   61.8312 H   0  0  0  0  0  0  0  0  0  0  0  0
  -32.4314   59.4608   61.6314 H   0  0  0  0  0  0  0  0  0  0  0  0
  -34.4683   59.6743   59.4710 H   0  0  0  0  0  0  0  0  0  0  0  0
  -33.3525   58.3169   59.7608 H   0  0  0  0  0  0  0  0  0  0  0  0
  -31.4809   59.7217   59.3139 H   0  0  0  0  0  0  0  0  0  0  0  0
  -32.5871   61.0896   59.0424 H   0  0  0  0  0  0  0  0  0  0  0  0
  -31.7648   60.1902   56.9627 H   0  0  0  0  0  0  0  0  0  0  0  0
  -33.5258   59.9851   57.1691 H   0  0  0  0  0  0  0  0  0  0  0  0
  -31.4851   57.8466   57.5219 H   0  0  0  0  0  0  0  0  0  0  0  0
  -32.5555   58.0836   56.1182 H   0  0  0  0  0  0  0  0  0  0  0  0
  -34.4734   57.6771   57.4749 H   0  0  0  0  0  0  0  0  0  0  0  0
  -33.4039   57.4545   58.8875 H   0  0  0  0  0  0  0  0  0  0  0  0
  -32.4716   55.4926   57.9132 H   0  0  0  0  0  0  0  0  0  0  0  0
  -33.5086   55.7130   56.4873 H   0  0  0  0  0  0  0  0  0  0  0  0
  -34.4630   55.1567   59.2573 H   0  0  0  0  0  0  0  0  0  0  0  0
  -34.3583   54.0012   57.8956 H   0  0  0  0  0  0  0  0  0  0  0  0
  -36.0059   55.2128   56.6956 H   0  0  0  0  0  0  0  0  0  0  0  0
  -36.1027   56.3847   58.0425 H   0  0  0  0  0  0  0  0  0  0  0  0
  -36.8943   53.5154   58.1969 H   0  0  0  0  0  0  0  0  0  0  0  0
  -37.9852   54.9030   58.0383 H   0  0  0  0  0  0  0  0  0  0  0  0
  -36.5074   54.0650   60.4686 H   0  0  0  0  0  0  0  0  0  0  0  0
  -37.6882   55.6150   61.6080 H   0  0  0  0  0  0  0  0  0  0  0  0
  -39.6611   56.5121   60.3528 H   0  0  0  0  0  0  0  0  0  0  0  0
  -38.6107   56.5562   58.9184 H   0  0  0  0  0  0  0  0  0  0  0  0
  -37.2622   58.2603   59.9240 H   0  0  0  0  0  0  0  0  0  0  0  0
  -38.2906   58.2095   61.3705 H   0  0  0  0  0  0  0  0  0  0  0  0
  -39.1756   59.0364   58.6449 H   0  0  0  0  0  0  0  0  0  0  0  0
  -38.8060   60.1079   60.0124 H   0  0  0  0  0  0  0  0  0  0  0  0
  -40.6078   59.1679   61.2696 H   0  0  0  0  0  0  0  0  0  0  0  0
  -40.9702   58.0830   59.9000 H   0  0  0  0  0  0  0  0  0  0  0  0
  -41.5828   59.9418   58.5488 H   0  0  0  0  0  0  0  0  0  0  0  0
  -41.2022   61.0377   59.8974 H   0  0  0  0  0  0  0  0  0  0  0  0
  -43.5812   60.7195   59.6593 H   0  0  0  0  0  0  0  0  0  0  0  0
  -42.9408   60.0790   61.1941 H   0  0  0  0  0  0  0  0  0  0  0  0
  -44.6398   58.6358   60.2673 H   0  0  0  0  0  0  0  0  0  0  0  0
  -43.0442   57.8678   60.3436 H   0  0  0  0  0  0  0  0  0  0  0  0
  -44.3188   59.0020   57.8906 H   0  0  0  0  0  0  0  0  0  0  0  0
  -44.1634   57.3051   58.2772 H   0  0  0  0  0  0  0  0  0  0  0  0
  -42.7357   58.2678   57.9805 H   0  0  0  0  0  0  0  0  0  0  0  0
  -32.1486   68.5400   64.6687 H   0  0  0  0  0  0  0  0  0  0  0  0
  -29.6327   67.0681   65.4416 H   0  0  0  0  0  0  0  0  0  0  0  0
  -31.1294   69.1768   67.0080 H   0  0  0  0  0  0  0  0  0  0  0  0
  -29.3488   70.6437   66.5772 H   0  0  0  0  0  0  0  0  0  0  0  0
  -31.0858   70.6667   64.9665 H   0  0  0  0  0  0  0  0  0  0  0  0
  -29.9792   71.4753   62.9606 H   0  0  0  0  0  0  0  0  0  0  0  0
  -29.1918   72.0657   64.4231 H   0  0  0  0  0  0  0  0  0  0  0  0
  1  4  1  0  0  0  0
  1 31  1  0  0  0  0
  1 62  1  0  0  0  0
  2  3  1  0  0  0  0
  2  4  1  0  0  0  0
  2 63  1  0  0  0  0
  2 64  1  0  0  0  0
  3 55  1  0  0  0  0
  4  6  1  0  0  0  0
  4 65  1  6  0  0  0
  5  6  1  0  0  0  0
  5 66  1  0  0  0  0
  6  8  1  0  0  0  0
  6 67  1  6  0  0  0
  7 31  2  0  0  0  0
  8 10  2  0  0  0  0
  8 68  1  0  0  0  0
  9 56  1  0  0  0  0
  9 69  1  0  0  0  0
 10 12  1  0  0  0  0
 10 70  1  0  0  0  0
 11 57  1  0  0  0  0
 11 61  1  0  0  0  0
 12 14  1  0  0  0  0
 12 71  1  0  0  0  0
 12 72  1  0  0  0  0
 13 58  1  0  0  0  0
 13 73  1  0  0  0  0
 14 16  1  0  0  0  0
 14 74  1  0  0  0  0
 14 75  1  0  0  0  0
 15 55  1  0  0  0  0
 15 59  1  0  0  0  0
 16 18  1  0  0  0  0
 16 76  1  0  0  0  0
 16 77  1  0  0  0  0
 17 60  1  0  0  0  0
 17 78  1  0  0  0  0
 18 20  1  0  0  0  0
 18 79  1  0  0  0  0
 18 80  1  0  0  0  0
 19 61  1  0  0  0  0
 19 81  1  0  0  0  0
 20 22  1  0  0  0  0
 20 82  1  0  0  0  0
 20 83  1  0  0  0  0
 21 61  1  0  0  0  0
 22 24  1  0  0  0  0
 22 84  1  0  0  0  0
 22 85  1  0  0  0  0
 23 61  1  0  0  0  0
 23 86  1  0  0  0  0
 24 25  1  0  0  0  0
 24 87  1  0  0  0  0
 24 88  1  0  0  0  0
 25 26  1  0  0  0  0
 25 89  1  0  0  0  0
 25 90  1  0  0  0  0
 26 27  1  0  0  0  0
 26 91  1  0  0  0  0
 26 92  1  0  0  0  0
 27 28  1  0  0  0  0
 27 93  1  0  0  0  0
 27 94  1  0  0  0  0
 28 29  1  0  0  0  0
 28 95  1  0  0  0  0
 28 96  1  0  0  0  0
 29 30  1  0  0  0  0
 29 97  1  0  0  0  0
 29 98  1  0  0  0  0
 30 99  1  0  0  0  0
 30100  1  0  0  0  0
 30101  1  0  0  0  0
 31 32  1  0  0  0  0
 32 33  1  0  0  0  0
 32102  1  0  0  0  0
 32103  1  0  0  0  0
 33 34  1  0  0  0  0
 33104  1  0  0  0  0
 33105  1  0  0  0  0
 34 35  1  0  0  0  0
 34106  1  0  0  0  0
 34107  1  0  0  0  0
 35 36  1  0  0  0  0
 35108  1  0  0  0  0
 35109  1  0  0  0  0
 36 37  1  0  0  0  0
 36110  1  0  0  0  0
 36111  1  0  0  0  0
 37 38  1  0  0  0  0
 37112  1  0  0  0  0
 37113  1  0  0  0  0
 38 39  1  0  0  0  0
 38114  1  0  0  0  0
 38115  1  0  0  0  0
 39 40  1  0  0  0  0
 39116  1  0  0  0  0
 39117  1  0  0  0  0
 40 41  1  0  0  0  0
 40118  1  0  0  0  0
 40119  1  0  0  0  0
 41 42  1  0  0  0  0
 41120  1  0  0  0  0
 41121  1  0  0  0  0
 42 43  1  0  0  0  0
 42122  1  0  0  0  0
 42123  1  0  0  0  0
 43 44  1  0  0  0  0
 43124  1  0  0  0  0
 43125  1  0  0  0  0
 44 45  1  0  0  0  0
 44126  1  0  0  0  0
 44127  1  0  0  0  0
 45 46  2  0  0  0  0
 45128  1  0  0  0  0
 46 47  1  0  0  0  0
 46129  1  0  0  0  0
 47 48  1  0  0  0  0
 47130  1  0  0  0  0
 47131  1  0  0  0  0
 48 49  1  0  0  0  0
 48132  1  0  0  0  0
 48133  1  0  0  0  0
 49 50  1  0  0  0  0
 49134  1  0  0  0  0
 49135  1  0  0  0  0
 50 51  1  0  0  0  0
 50136  1  0  0  0  0
 50137  1  0  0  0  0
 51 52  1  0  0  0  0
 51138  1  0  0  0  0
 51139  1  0  0  0  0
 52 53  1  0  0  0  0
 52140  1  0  0  0  0
 52141  1  0  0  0  0
 53 54  1  0  0  0  0
 53142  1  0  0  0  0
 53143  1  0  0  0  0
 54144  1  0  0  0  0
 54145  1  0  0  0  0
 54146  1  0  0  0  0
 55 56  1  0  0  0  0
 55147  1  1  0  0  0
 56 57  1  0  0  0  0
 56148  1  6  0  0  0
 57 58  1  0  0  0  0
 57149  1  1  0  0  0
 58 59  1  0  0  0  0
 58150  1  1  0  0  0
 59 60  1  0  0  0  0
 59151  1  1  0  0  0
 60152  1  0  0  0  0
 60153  1  0  0  0  0
M  CHG  1  21  -1
M  END
$$$$
/media/chris/experiments/cd1a-new-docking/inputs/ligands/7ryn_ligand.pdb
 OpenBabel07032312553D

153153  0  0  1  0  0  0  0  0999 V2000
  -33.0340   65.1330   62.2120 N   0  0  0  0  0  0  0  0  0  0  0  0
  -32.0220   67.3480   62.3220 C   0  0  0  0  0  0  0  0  0  0  0  0
  -31.4051   67.0024   63.5673 O   0  0  0  0  0  0  0  0  0  0  0  0
  -32.1830   66.0840   61.5030 C   0  0  1  0  0  0  0  0  0  0  0  0
  -29.9992   66.3678   60.5104 O   0  0  0  0  0  0  0  0  0  0  0  0
  -30.8310   65.4230   61.1900 C   0  0  2  0  0  0  0  0  0  0  0  0
  -32.4714   65.8137   64.2827 O   0  0  0  0  0  0  0  0  0  0  0  0
  -31.0055   64.1786   60.3744 C   0  0  0  0  0  0  0  0  0  0  0  0
  -29.0472   68.5087   63.4560 O   0  0  0  0  0  0  0  0  0  0  0  0
  -30.0261   63.3955   59.9676 C   0  0  0  0  0  0  0  0  0  0  0  0
  -29.4663   71.3004   63.7442 O   0  0  0  0  0  0  0  0  0  0  0  0
  -30.2340   62.1517   59.1673 C   0  0  0  0  0  0  0  0  0  0  0  0
  -32.1950   71.4092   63.9043 O   0  0  0  0  0  0  0  0  0  0  0  0
  -29.0407   61.8830   58.2481 C   0  0  0  0  0  0  0  0  0  0  0  0
  -32.4523   68.6756   64.7639 O   0  0  0  0  0  0  0  0  0  0  0  0
  -29.1857   60.6393   57.3862 C   0  0  0  0  0  0  0  0  0  0  0  0
  -34.4615   70.6093   64.8705 O   0  0  0  0  0  0  0  0  0  0  0  0
  -27.9946   60.3613   56.4852 C   0  0  0  0  0  0  0  0  0  0  0  0
  -30.3325   73.3127   64.7477 O   0  0  0  0  0  0  0  0  0  0  0  0
  -28.1538   59.1245   55.6131 C   0  0  0  0  0  0  0  0  0  0  0  0
  -28.1465   73.3414   63.5084 O   0  5  0  0  0  0  0  0  0  0  0  0
  -28.3667   57.8428   56.4038 C   0  0  0  0  0  0  0  0  0  0  0  0
  -28.3751   72.2810   65.6203 O   0  0  0  0  0  0  0  0  0  0  0  0
  -28.5089   56.6049   55.5359 C   0  0  0  0  0  0  0  0  0  0  0  0
  -29.6665   56.6660   54.5567 C   0  0  0  0  0  0  0  0  0  0  0  0
  -29.5693   57.8077   53.5594 C   0  0  0  0  0  0  0  0  0  0  0  0
  -30.7448   57.8604   52.6013 C   0  0  0  0  0  0  0  0  0  0  0  0
  -32.0907   58.0587   53.2717 C   0  0  0  0  0  0  0  0  0  0  0  0
  -32.1695   59.3594   54.0467 C   0  0  0  0  0  0  0  0  0  0  0  0
  -31.9692   60.5740   53.1641 C   0  0  0  0  0  0  0  0  0  0  0  0
  -33.1122   65.0716   63.5440 C   0  0  0  0  0  0  0  0  0  0  0  0
  -34.0520   64.0283   64.0950 C   0  0  0  0  0  0  0  0  0  0  0  0
  -35.2217   63.7435   63.1616 C   0  0  0  0  0  0  0  0  0  0  0  0
  -36.0602   64.9795   62.8779 C   0  0  0  0  0  0  0  0  0  0  0  0
  -35.2911   66.1048   62.2061 C   0  0  0  0  0  0  0  0  0  0  0  0
  -36.1272   67.3473   61.9383 C   0  0  0  0  0  0  0  0  0  0  0  0
  -37.3356   67.1002   61.0441 C   0  0  0  0  0  0  0  0  0  0  0  0
  -36.9824   66.5529   59.6671 C   0  0  0  0  0  0  0  0  0  0  0  0
  -38.1817   66.3158   58.7528 C   0  0  0  0  0  0  0  0  0  0  0  0
  -37.8161   65.7510   57.3811 C   0  0  0  0  0  0  0  0  0  0  0  0
  -37.1152   64.3931   57.4174 C   0  0  0  0  0  0  0  0  0  0  0  0
  -36.7464   63.8610   56.0324 C   0  0  0  0  0  0  0  0  0  0  0  0
  -35.7875   64.7440   55.2341 C   0  0  0  0  0  0  0  0  0  0  0  0
  -34.4221   64.9698   55.8888 C   0  0  0  0  0  0  0  0  0  0  0  0
  -33.5243   65.8560   55.0748 C   0  0  0  0  0  0  0  0  0  0  0  0
  -32.3431   65.5262   54.5828 C   0  0  0  0  0  0  0  0  0  0  0  0
  -31.6632   64.1995   54.7362 C   0  0  0  0  0  0  0  0  0  0  0  0
  -30.2903   64.1311   54.0639 C   0  0  0  0  0  0  0  0  0  0  0  0
  -30.3396   64.3984   52.5655 C   0  0  0  0  0  0  0  0  0  0  0  0
  -28.9751   64.3139   51.8907 C   0  0  0  0  0  0  0  0  0  0  0  0
  -28.9933   64.5941   50.3924 C   0  0  0  0  0  0  0  0  0  0  0  0
  -27.6257   64.4888   49.7325 C   0  0  0  0  0  0  0  0  0  0  0  0
  -26.5849   65.4395   50.3023 C   0  0  0  0  0  0  0  0  0  0  0  0
  -26.9870   66.8953   50.1804 C   0  0  0  0  0  0  0  0  0  0  0  0
  -31.2104   68.0828   64.4327 C   0  0  2  0  0  0  0  0  0  0  0  0
  -30.3138   69.0941   63.7304 C   0  0  1  0  0  0  0  0  0  0  0  0
  -30.1449   70.3308   64.6038 C   0  0  2  0  0  0  0  0  0  0  0  0
  -31.4954   70.8877   65.0296 C   0  0  2  0  0  0  0  0  0  0  0  0
  -32.3266   69.7807   65.6732 C   0  0  1  0  0  0  0  0  0  0  0  0
  -33.7288   70.2187   66.0260 C   0  0  0  0  0  0  0  0  0  0  0  0
  -29.1081   72.7269   64.3444 S   0  0  0  0  0  0  0  0  0  0  0  0
  -33.5772   64.5058   61.6821 H   0  0  0  0  0  0  0  0  0  0  0  0
  -31.4053   68.0450   61.7940 H   0  0  0  0  0  0  0  0  0  0  0  0
  -32.9770   67.7979   62.4965 H   0  0  0  0  0  0  0  0  0  0  0  0
  -32.6374   66.3625   60.5752 H   0  0  0  0  0  0  0  0  0  0  0  0
  -29.9008   67.1635   61.0564 H   0  0  0  0  0  0  0  0  0  0  0  0
  -30.3647   65.1308   62.1077 H   0  0  0  0  0  0  0  0  0  0  0  0
  -31.9673   63.9138   60.1104 H   0  0  0  0  0  0  0  0  0  0  0  0
  -29.1677   67.7231   62.8999 H   0  0  0  0  0  0  0  0  0  0  0  0
  -29.0594   63.6571   60.2167 H   0  0  0  0  0  0  0  0  0  0  0  0
  -31.1160   62.2626   58.5717 H   0  0  0  0  0  0  0  0  0  0  0  0
  -30.3368   61.3269   59.8411 H   0  0  0  0  0  0  0  0  0  0  0  0
  -31.6684   72.1129   63.4939 H   0  0  0  0  0  0  0  0  0  0  0  0
  -28.1675   61.7700   58.8562 H   0  0  0  0  0  0  0  0  0  0  0  0
  -28.9747   62.7151   57.5786 H   0  0  0  0  0  0  0  0  0  0  0  0
  -30.0520   60.7579   56.7696 H   0  0  0  0  0  0  0  0  0  0  0  0
  -29.2633   59.8090   58.0567 H   0  0  0  0  0  0  0  0  0  0  0  0
  -35.3545   70.8838   65.1313 H   0  0  0  0  0  0  0  0  0  0  0  0
  -27.1299   60.2295   57.1015 H   0  0  0  0  0  0  0  0  0  0  0  0
  -27.9052   61.1974   55.8234 H   0  0  0  0  0  0  0  0  0  0  0  0
  -30.8236   73.6070   63.9646 H   0  0  0  0  0  0  0  0  0  0  0  0
  -27.2701   59.0129   55.0203 H   0  0  0  0  0  0  0  0  0  0  0  0
  -29.0294   59.2730   55.0162 H   0  0  0  0  0  0  0  0  0  0  0  0
  -29.2573   57.9501   56.9872 H   0  0  0  0  0  0  0  0  0  0  0  0
  -27.4958   57.7012   57.0091 H   0  0  0  0  0  0  0  0  0  0  0  0
  -29.0043   71.8529   66.2218 H   0  0  0  0  0  0  0  0  0  0  0  0
  -28.6545   55.7601   56.1762 H   0  0  0  0  0  0  0  0  0  0  0  0
  -27.6146   56.5316   54.9530 H   0  0  0  0  0  0  0  0  0  0  0  0
  -30.5730   56.7811   55.1134 H   0  0  0  0  0  0  0  0  0  0  0  0
  -29.6439   55.7575   53.9919 H   0  0  0  0  0  0  0  0  0  0  0  0
  -28.6710   57.6880   52.9906 H   0  0  0  0  0  0  0  0  0  0  0  0
  -29.5704   58.7207   54.1174 H   0  0  0  0  0  0  0  0  0  0  0  0
  -30.7744   56.9397   52.0569 H   0  0  0  0  0  0  0  0  0  0  0  0
  -30.5883   58.7118   51.9724 H   0  0  0  0  0  0  0  0  0  0  0  0
  -32.2603   57.2464   53.9471 H   0  0  0  0  0  0  0  0  0  0  0  0
  -32.8339   58.0940   52.5027 H   0  0  0  0  0  0  0  0  0  0  0  0
  -31.4114   59.3552   54.8019 H   0  0  0  0  0  0  0  0  0  0  0  0
  -33.1489   59.4251   54.4727 H   0  0  0  0  0  0  0  0  0  0  0  0
  -30.9954   60.5370   52.7222 H   0  0  0  0  0  0  0  0  0  0  0  0
  -32.0598   61.4622   53.7538 H   0  0  0  0  0  0  0  0  0  0  0  0
  -32.7108   60.5806   52.3929 H   0  0  0  0  0  0  0  0  0  0  0  0
  -34.4370   64.3740   65.0315 H   0  0  0  0  0  0  0  0  0  0  0  0
  -33.4981   63.1198   64.2077 H   0  0  0  0  0  0  0  0  0  0  0  0
  -35.8470   63.0017   63.6129 H   0  0  0  0  0  0  0  0  0  0  0  0
  -34.8173   63.4064   62.2300 H   0  0  0  0  0  0  0  0  0  0  0  0
  -36.4479   65.3438   63.8062 H   0  0  0  0  0  0  0  0  0  0  0  0
  -36.8316   64.6821   62.1987 H   0  0  0  0  0  0  0  0  0  0  0  0
  -34.9138   65.7446   61.2719 H   0  0  0  0  0  0  0  0  0  0  0  0
  -34.5112   66.3939   62.8794 H   0  0  0  0  0  0  0  0  0  0  0  0
  -35.5033   68.0774   61.4666 H   0  0  0  0  0  0  0  0  0  0  0  0
  -36.5042   67.6764   62.8840 H   0  0  0  0  0  0  0  0  0  0  0  0
  -37.8546   68.0270   60.9154 H   0  0  0  0  0  0  0  0  0  0  0  0
  -37.9345   66.3580   61.5292 H   0  0  0  0  0  0  0  0  0  0  0  0
  -36.4732   65.6210   59.7985 H   0  0  0  0  0  0  0  0  0  0  0  0
  -36.3787   67.2964   59.1901 H   0  0  0  0  0  0  0  0  0  0  0  0
  -38.6847   67.2492   58.6090 H   0  0  0  0  0  0  0  0  0  0  0  0
  -38.7978   65.5852   59.2339 H   0  0  0  0  0  0  0  0  0  0  0  0
  -37.1665   66.4488   56.8953 H   0  0  0  0  0  0  0  0  0  0  0  0
  -38.7383   65.6020   56.8593 H   0  0  0  0  0  0  0  0  0  0  0  0
  -37.7673   63.6877   57.8888 H   0  0  0  0  0  0  0  0  0  0  0  0
  -36.2013   64.5245   57.9581 H   0  0  0  0  0  0  0  0  0  0  0  0
  -37.6485   63.7549   55.4668 H   0  0  0  0  0  0  0  0  0  0  0  0
  -36.2348   62.9354   56.1948 H   0  0  0  0  0  0  0  0  0  0  0  0
  -36.2516   65.6981   55.0957 H   0  0  0  0  0  0  0  0  0  0  0  0
  -35.5982   64.2277   54.3162 H   0  0  0  0  0  0  0  0  0  0  0  0
  -33.9428   64.0215   56.0152 H   0  0  0  0  0  0  0  0  0  0  0  0
  -34.5917   65.4577   56.8259 H   0  0  0  0  0  0  0  0  0  0  0  0
  -33.8612   66.8121   54.8813 H   0  0  0  0  0  0  0  0  0  0  0  0
  -31.8424   66.2493   54.0428 H   0  0  0  0  0  0  0  0  0  0  0  0
  -32.2890   63.4470   54.3037 H   0  0  0  0  0  0  0  0  0  0  0  0
  -31.5067   64.0473   55.7837 H   0  0  0  0  0  0  0  0  0  0  0  0
  -29.8832   63.1543   54.2215 H   0  0  0  0  0  0  0  0  0  0  0  0
  -29.6841   64.8960   54.5026 H   0  0  0  0  0  0  0  0  0  0  0  0
  -30.7354   65.3800   52.4087 H   0  0  0  0  0  0  0  0  0  0  0  0
  -30.9554   63.6399   52.1292 H   0  0  0  0  0  0  0  0  0  0  0  0
  -28.5878   63.3280   52.0419 H   0  0  0  0  0  0  0  0  0  0  0  0
  -28.3677   65.0743   52.3355 H   0  0  0  0  0  0  0  0  0  0  0  0
  -29.3670   65.5849   50.2387 H   0  0  0  0  0  0  0  0  0  0  0  0
  -29.6152   63.8483   49.9429 H   0  0  0  0  0  0  0  0  0  0  0  0
  -27.7388   64.7007   48.6898 H   0  0  0  0  0  0  0  0  0  0  0  0
  -27.2702   63.4966   49.9172 H   0  0  0  0  0  0  0  0  0  0  0  0
  -25.6649   65.2941   49.7756 H   0  0  0  0  0  0  0  0  0  0  0  0
  -26.4857   65.2198   51.3448 H   0  0  0  0  0  0  0  0  0  0  0  0
  -27.0954   67.1500   49.1468 H   0  0  0  0  0  0  0  0  0  0  0  0
  -26.2326   67.5119   50.6225 H   0  0  0  0  0  0  0  0  0  0  0  0
  -27.9171   67.0519   50.6858 H   0  0  0  0  0  0  0  0  0  0  0  0
  -30.7515   67.7503   65.3403 H   0  0  0  0  0  0  0  0  0  0  0  0
  -30.7674   69.3839   62.8057 H   0  0  0  0  0  0  0  0  0  0  0  0
  -29.6019   70.1103   65.4990 H   0  0  0  0  0  0  0  0  0  0  0  0
  -31.3342   71.6761   65.7349 H   0  0  0  0  0  0  0  0  0  0  0  0
  -31.8112   69.5117   66.5715 H   0  0  0  0  0  0  0  0  0  0  0  0
  -34.2372   69.4060   66.5014 H   0  0  0  0  0  0  0  0  0  0  0  0
  -33.6613   71.0623   66.6807 H   0  0  0  0  0  0  0  0  0  0  0  0
  1  4  1  0  0  0  0
  1 31  1  0  0  0  0
  1 62  1  0  0  0  0
  2  3  1  0  0  0  0
  2  4  1  0  0  0  0
  2 63  1  0  0  0  0
  2 64  1  0  0  0  0
  3 55  1  0  0  0  0
  4  6  1  0  0  0  0
  4 65  1  6  0  0  0
  5  6  1  0  0  0  0
  5 66  1  0  0  0  0
  6  8  1  0  0  0  0
  6 67  1  1  0  0  0
  7 31  2  0  0  0  0
  8 10  2  0  0  0  0
  8 68  1  0  0  0  0
  9 56  1  0  0  0  0
  9 69  1  0  0  0  0
 10 12  1  0  0  0  0
 10 70  1  0  0  0  0
 11 57  1  0  0  0  0
 11 61  1  0  0  0  0
 12 14  1  0  0  0  0
 12 71  1  0  0  0  0
 12 72  1  0  0  0  0
 13 58  1  0  0  0  0
 13 73  1  0  0  0  0
 14 16  1  0  0  0  0
 14 74  1  0  0  0  0
 14 75  1  0  0  0  0
 15 55  1  0  0  0  0
 15 59  1  0  0  0  0
 16 18  1  0  0  0  0
 16 76  1  0  0  0  0
 16 77  1  0  0  0  0
 17 60  1  0  0  0  0
 17 78  1  0  0  0  0
 18 20  1  0  0  0  0
 18 79  1  0  0  0  0
 18 80  1  0  0  0  0
 19 61  1  0  0  0  0
 19 81  1  0  0  0  0
 20 22  1  0  0  0  0
 20 82  1  0  0  0  0
 20 83  1  0  0  0  0
 21 61  1  0  0  0  0
 22 24  1  0  0  0  0
 22 84  1  0  0  0  0
 22 85  1  0  0  0  0
 23 61  1  0  0  0  0
 23 86  1  0  0  0  0
 24 25  1  0  0  0  0
 24 87  1  0  0  0  0
 24 88  1  0  0  0  0
 25 26  1  0  0  0  0
 25 89  1  0  0  0  0
 25 90  1  0  0  0  0
 26 27  1  0  0  0  0
 26 91  1  0  0  0  0
 26 92  1  0  0  0  0
 27 28  1  0  0  0  0
 27 93  1  0  0  0  0
 27 94  1  0  0  0  0
 28 29  1  0  0  0  0
 28 95  1  0  0  0  0
 28 96  1  0  0  0  0
 29 30  1  0  0  0  0
 29 97  1  0  0  0  0
 29 98  1  0  0  0  0
 30 99  1  0  0  0  0
 30100  1  0  0  0  0
 30101  1  0  0  0  0
 31 32  1  0  0  0  0
 32 33  1  0  0  0  0
 32102  1  0  0  0  0
 32103  1  0  0  0  0
 33 34  1  0  0  0  0
 33104  1  0  0  0  0
 33105  1  0  0  0  0
 34 35  1  0  0  0  0
 34106  1  0  0  0  0
 34107  1  0  0  0  0
 35 36  1  0  0  0  0
 35108  1  0  0  0  0
 35109  1  0  0  0  0
 36 37  1  0  0  0  0
 36110  1  0  0  0  0
 36111  1  0  0  0  0
 37 38  1  0  0  0  0
 37112  1  0  0  0  0
 37113  1  0  0  0  0
 38 39  1  0  0  0  0
 38114  1  0  0  0  0
 38115  1  0  0  0  0
 39 40  1  0  0  0  0
 39116  1  0  0  0  0
 39117  1  0  0  0  0
 40 41  1  0  0  0  0
 40118  1  0  0  0  0
 40119  1  0  0  0  0
 41 42  1  0  0  0  0
 41120  1  0  0  0  0
 41121  1  0  0  0  0
 42 43  1  0  0  0  0
 42122  1  0  0  0  0
 42123  1  0  0  0  0
 43 44  1  0  0  0  0
 43124  1  0  0  0  0
 43125  1  0  0  0  0
 44 45  1  0  0  0  0
 44126  1  0  0  0  0
 44127  1  0  0  0  0
 45 46  2  0  0  0  0
 45128  1  0  0  0  0
 46 47  1  0  0  0  0
 46129  1  0  0  0  0
 47 48  1  0  0  0  0
 47130  1  0  0  0  0
 47131  1  0  0  0  0
 48 49  1  0  0  0  0
 48132  1  0  0  0  0
 48133  1  0  0  0  0
 49 50  1  0  0  0  0
 49134  1  0  0  0  0
 49135  1  0  0  0  0
 50 51  1  0  0  0  0
 50136  1  0  0  0  0
 50137  1  0  0  0  0
 51 52  1  0  0  0  0
 51138  1  0  0  0  0
 51139  1  0  0  0  0
 52 53  1  0  0  0  0
 52140  1  0  0  0  0
 52141  1  0  0  0  0
 53 54  1  0  0  0  0
 53142  1  0  0  0  0
 53143  1  0  0  0  0
 54144  1  0  0  0  0
 54145  1  0  0  0  0
 54146  1  0  0  0  0
 55 56  1  0  0  0  0
 55147  1  1  0  0  0
 56 57  1  0  0  0  0
 56148  1  6  0  0  0
 57 58  1  0  0  0  0
 57149  1  1  0  0  0
 58 59  1  0  0  0  0
 58150  1  1  0  0  0
 59 60  1  0  0  0  0
 59151  1  1  0  0  0
 60152  1  0  0  0  0
 60153  1  0  0  0  0
M  CHG  1  21  -1
M  END
$$$$
/media/chris/experiments/cd1a-new-docking/inputs/ligands/7ryn_ligand.pdb
 OpenBabel07032312553D

153153  0  0  1  0  0  0  0  0999 V2000
  -33.0340   65.1330   62.2120 N   0  0  0  0  0  0  0  0  0  0  0  0
  -32.0220   67.3480   62.3220 C   0  0  0  0  0  0  0  0  0  0  0  0
  -31.4051   67.0024   63.5673 O   0  0  0  0  0  0  0  0  0  0  0  0
  -32.1830   66.0840   61.5030 C   0  0  1  0  0  0  0  0  0  0  0  0
  -29.9992   66.3678   60.5104 O   0  0  0  0  0  0  0  0  0  0  0  0
  -30.8310   65.4230   61.1900 C   0  0  2  0  0  0  0  0  0  0  0  0
  -33.3937   66.4369   64.0115 O   0  0  0  0  0  0  0  0  0  0  0  0
  -31.0055   64.1786   60.3744 C   0  0  0  0  0  0  0  0  0  0  0  0
  -31.4046   66.6220   66.3415 O   0  0  0  0  0  0  0  0  0  0  0  0
  -30.1335   63.7170   59.5000 C   0  0  0  0  0  0  0  0  0  0  0  0
  -29.4155   68.1261   67.6954 O   0  0  0  0  0  0  0  0  0  0  0  0
  -30.3302   62.4635   58.7122 C   0  0  0  0  0  0  0  0  0  0  0  0
  -28.1411   69.3260   65.5933 O   0  0  0  0  0  0  0  0  0  0  0  0
  -31.0342   62.7525   57.3848 C   0  0  0  0  0  0  0  0  0  0  0  0
  -30.3909   69.0606   63.8198 O   0  0  0  0  0  0  0  0  0  0  0  0
  -31.2858   61.5199   56.5316 C   0  0  0  0  0  0  0  0  0  0  0  0
  -28.1534   70.6686   63.3778 O   0  0  0  0  0  0  0  0  0  0  0  0
  -31.9695   61.8068   55.2057 C   0  0  0  0  0  0  0  0  0  0  0  0
  -29.0352   66.5764   69.5011 O   0  0  0  0  0  0  0  0  0  0  0  0
  -32.2335   60.5665   54.3645 C   0  0  0  0  0  0  0  0  0  0  0  0
  -30.6879   66.0419   67.6849 O   0  5  0  0  0  0  0  0  0  0  0  0
  -32.9027   60.8636   53.0314 C   0  0  0  0  0  0  0  0  0  0  0  0
  -31.1144   67.7162   69.3133 O   0  0  0  0  0  0  0  0  0  0  0  0
  -34.2476   61.5566   53.1630 C   0  0  0  0  0  0  0  0  0  0  0  0
  -35.2734   60.7697   53.9573 C   0  0  0  0  0  0  0  0  0  0  0  0
  -35.5867   59.4026   53.3739 C   0  0  0  0  0  0  0  0  0  0  0  0
  -34.3733   58.4939   53.3065 C   0  0  0  0  0  0  0  0  0  0  0  0
  -34.6480   57.1255   52.7129 C   0  0  0  0  0  0  0  0  0  0  0  0
  -33.4134   56.2460   52.6807 C   0  0  0  0  0  0  0  0  0  0  0  0
  -32.8494   55.9868   54.0624 C   0  0  0  0  0  0  0  0  0  0  0  0
  -33.5723   65.3825   63.4087 C   0  0  0  0  0  0  0  0  0  0  0  0
  -34.4300   64.2814   63.9806 C   0  0  0  0  0  0  0  0  0  0  0  0
  -35.8645   64.7283   64.2323 C   0  0  0  0  0  0  0  0  0  0  0  0
  -36.7270   63.6254   64.8247 C   0  0  0  0  0  0  0  0  0  0  0  0
  -36.2366   63.1148   66.1694 C   0  0  0  0  0  0  0  0  0  0  0  0
  -36.1963   64.1802   67.2546 C   0  0  0  0  0  0  0  0  0  0  0  0
  -37.5526   64.8009   67.5644 C   0  0  0  0  0  0  0  0  0  0  0  0
  -38.5889   63.8018   68.0629 C   0  0  0  0  0  0  0  0  0  0  0  0
  -38.2097   63.0886   69.3583 C   0  0  0  0  0  0  0  0  0  0  0  0
  -38.0072   64.0256   70.5480 C   0  0  0  0  0  0  0  0  0  0  0  0
  -36.9174   65.0791   70.3510 C   0  0  0  0  0  0  0  0  0  0  0  0
  -36.7256   65.9908   71.5632 C   0  0  0  0  0  0  0  0  0  0  0  0
  -37.9646   66.7833   71.9795 C   0  0  0  0  0  0  0  0  0  0  0  0
  -38.5265   67.7148   70.9022 C   0  0  0  0  0  0  0  0  0  0  0  0
  -37.5338   68.7447   70.4459 C   0  0  0  0  0  0  0  0  0  0  0  0
  -37.4686   69.2828   69.2410 C   0  0  0  0  0  0  0  0  0  0  0  0
  -38.3748   68.9753   68.0876 C   0  0  0  0  0  0  0  0  0  0  0  0
  -38.5789   70.1551   67.1348 C   0  0  0  0  0  0  0  0  0  0  0  0
  -39.5145   69.8381   65.9757 C   0  0  0  0  0  0  0  0  0  0  0  0
  -39.0328   68.6802   65.1088 C   0  0  0  0  0  0  0  0  0  0  0  0
  -38.8924   67.3543   65.8477 C   0  0  0  0  0  0  0  0  0  0  0  0
  -40.1957   66.8459   66.4476 C   0  0  0  0  0  0  0  0  0  0  0  0
  -40.0631   65.5322   67.2015 C   0  0  0  0  0  0  0  0  0  0  0  0
  -41.3795   65.0444   67.7717 C   0  0  0  0  0  0  0  0  0  0  0  0
  -31.2104   68.0828   64.4327 C   0  0  2  0  0  0  0  0  0  0  0  0
  -30.5480   67.5584   65.7001 C   0  0  1  0  0  0  0  0  0  0  0  0
  -30.2364   68.7171   66.6389 C   0  0  2  0  0  0  0  0  0  0  0  0
  -29.4420   69.8007   65.9249 C   0  0  2  0  0  0  0  0  0  0  0  0
  -30.1703   70.2134   64.6482 C   0  0  1  0  0  0  0  0  0  0  0  0
  -29.3950   71.2080   63.8163 C   0  0  0  0  0  0  0  0  0  0  0  0
  -30.0256   66.9384   68.5560 S   0  0  0  0  0  0  0  0  0  0  0  0
  -33.2204   64.2647   61.7870 H   0  0  0  0  0  0  0  0  0  0  0  0
  -31.4053   68.0450   61.7940 H   0  0  0  0  0  0  0  0  0  0  0  0
  -32.9770   67.7979   62.4965 H   0  0  0  0  0  0  0  0  0  0  0  0
  -32.6374   66.3625   60.5752 H   0  0  0  0  0  0  0  0  0  0  0  0
  -29.9008   67.1635   61.0564 H   0  0  0  0  0  0  0  0  0  0  0  0
  -30.3647   65.1308   62.1077 H   0  0  0  0  0  0  0  0  0  0  0  0
  -31.8761   63.6408   60.5075 H   0  0  0  0  0  0  0  0  0  0  0  0
  -31.5955   65.8899   65.7345 H   0  0  0  0  0  0  0  0  0  0  0  0
  -29.2644   64.2531   59.3512 H   0  0  0  0  0  0  0  0  0  0  0  0
  -30.9260   61.7819   59.2827 H   0  0  0  0  0  0  0  0  0  0  0  0
  -29.3704   62.0393   58.5028 H   0  0  0  0  0  0  0  0  0  0  0  0
  -27.6765   69.0633   66.4032 H   0  0  0  0  0  0  0  0  0  0  0  0
  -30.4263   63.4309   56.8233 H   0  0  0  0  0  0  0  0  0  0  0  0
  -31.9935   63.1594   57.6278 H   0  0  0  0  0  0  0  0  0  0  0  0
  -31.9037   60.8471   57.0887 H   0  0  0  0  0  0  0  0  0  0  0  0
  -30.3265   61.1070   56.2989 H   0  0  0  0  0  0  0  0  0  0  0  0
  -27.6822   71.3306   62.8482 H   0  0  0  0  0  0  0  0  0  0  0  0
  -31.3463   62.4693   54.6422 H   0  0  0  0  0  0  0  0  0  0  0  0
  -32.9233   62.2341   55.4352 H   0  0  0  0  0  0  0  0  0  0  0  0
  -28.3292   66.0818   69.0563 H   0  0  0  0  0  0  0  0  0  0  0  0
  -32.8675   59.9089   54.9217 H   0  0  0  0  0  0  0  0  0  0  0  0
  -31.2821   60.1281   54.1462 H   0  0  0  0  0  0  0  0  0  0  0  0
  -33.0487   59.9388   52.5135 H   0  0  0  0  0  0  0  0  0  0  0  0
  -32.2577   61.5323   52.5006 H   0  0  0  0  0  0  0  0  0  0  0  0
  -30.6977   68.3443   69.9238 H   0  0  0  0  0  0  0  0  0  0  0  0
  -34.6379   61.7224   52.1806 H   0  0  0  0  0  0  0  0  0  0  0  0
  -34.0751   62.4674   53.6975 H   0  0  0  0  0  0  0  0  0  0  0  0
  -36.1799   61.3370   53.9920 H   0  0  0  0  0  0  0  0  0  0  0  0
  -34.8546   60.6047   54.9280 H   0  0  0  0  0  0  0  0  0  0  0  0
  -35.9694   59.5342   52.3834 H   0  0  0  0  0  0  0  0  0  0  0  0
  -36.3007   58.9354   54.0195 H   0  0  0  0  0  0  0  0  0  0  0  0
  -34.0007   58.3589   54.3004 H   0  0  0  0  0  0  0  0  0  0  0  0
  -33.6690   58.9722   52.6585 H   0  0  0  0  0  0  0  0  0  0  0  0
  -35.0053   57.2514   51.7122 H   0  0  0  0  0  0  0  0  0  0  0  0
  -35.3740   56.6427   53.3331 H   0  0  0  0  0  0  0  0  0  0  0  0
  -32.6637   56.7286   52.0891 H   0  0  0  0  0  0  0  0  0  0  0  0
  -33.6973   55.3026   52.2632 H   0  0  0  0  0  0  0  0  0  0  0  0
  -32.5555   56.9143   54.5075 H   0  0  0  0  0  0  0  0  0  0  0  0
  -31.9985   55.3427   53.9852 H   0  0  0  0  0  0  0  0  0  0  0  0
  -33.5959   55.5201   54.6706 H   0  0  0  0  0  0  0  0  0  0  0  0
  -34.0031   63.9607   64.9079 H   0  0  0  0  0  0  0  0  0  0  0  0
  -34.4586   63.4871   63.2642 H   0  0  0  0  0  0  0  0  0  0  0  0
  -36.2948   65.0375   63.3028 H   0  0  0  0  0  0  0  0  0  0  0  0
  -35.8337   65.5301   64.9402 H   0  0  0  0  0  0  0  0  0  0  0  0
  -36.7429   62.8048   64.1383 H   0  0  0  0  0  0  0  0  0  0  0  0
  -37.6981   64.0442   64.9871 H   0  0  0  0  0  0  0  0  0  0  0  0
  -35.2480   62.7258   66.0421 H   0  0  0  0  0  0  0  0  0  0  0  0
  -36.9327   62.3687   66.4915 H   0  0  0  0  0  0  0  0  0  0  0  0
  -35.5346   64.9589   66.9372 H   0  0  0  0  0  0  0  0  0  0  0  0
  -35.8651   63.6974   68.1502 H   0  0  0  0  0  0  0  0  0  0  0  0
  -37.9264   65.2569   66.6715 H   0  0  0  0  0  0  0  0  0  0  0  0
  -37.3981   65.5077   68.3528 H   0  0  0  0  0  0  0  0  0  0  0  0
  -38.7316   63.0617   67.3035 H   0  0  0  0  0  0  0  0  0  0  0  0
  -39.4755   64.3627   68.2729 H   0  0  0  0  0  0  0  0  0  0  0  0
  -37.2982   62.5531   69.1930 H   0  0  0  0  0  0  0  0  0  0  0  0
  -39.0270   62.4446   69.6074 H   0  0  0  0  0  0  0  0  0  0  0  0
  -37.7475   63.4322   71.3996 H   0  0  0  0  0  0  0  0  0  0  0  0
  -38.9259   64.5598   70.6725 H   0  0  0  0  0  0  0  0  0  0  0  0
  -37.1802   65.6853   69.5094 H   0  0  0  0  0  0  0  0  0  0  0  0
  -35.9963   64.5556   70.2016 H   0  0  0  0  0  0  0  0  0  0  0  0
  -35.9473   66.6883   71.3338 H   0  0  0  0  0  0  0  0  0  0  0  0
  -36.4919   65.3481   72.3861 H   0  0  0  0  0  0  0  0  0  0  0  0
  -37.7082   67.3774   72.8317 H   0  0  0  0  0  0  0  0  0  0  0  0
  -38.7287   66.0617   72.1803 H   0  0  0  0  0  0  0  0  0  0  0  0
  -39.3832   68.2184   71.2990 H   0  0  0  0  0  0  0  0  0  0  0  0
  -38.7769   67.1118   70.0545 H   0  0  0  0  0  0  0  0  0  0  0  0
  -36.8373   69.0619   71.1382 H   0  0  0  0  0  0  0  0  0  0  0  0
  -36.7246   69.9795   69.0790 H   0  0  0  0  0  0  0  0  0  0  0  0
  -39.3289   68.6853   68.4755 H   0  0  0  0  0  0  0  0  0  0  0  0
  -37.9093   68.1943   67.5234 H   0  0  0  0  0  0  0  0  0  0  0  0
  -37.6272   70.4378   66.7356 H   0  0  0  0  0  0  0  0  0  0  0  0
  -39.0297   70.9443   67.6994 H   0  0  0  0  0  0  0  0  0  0  0  0
  -39.6001   70.7096   65.3608 H   0  0  0  0  0  0  0  0  0  0  0  0
  -40.4537   69.5475   66.3979 H   0  0  0  0  0  0  0  0  0  0  0  0
  -38.0770   68.9404   64.7042 H   0  0  0  0  0  0  0  0  0  0  0  0
  -39.7789   68.5321   64.3562 H   0  0  0  0  0  0  0  0  0  0  0  0
  -38.1837   67.4823   66.6391 H   0  0  0  0  0  0  0  0  0  0  0  0
  -38.5754   66.6281   65.1286 H   0  0  0  0  0  0  0  0  0  0  0  0
  -40.8995   66.7077   65.6536 H   0  0  0  0  0  0  0  0  0  0  0  0
  -40.5134   67.5787   67.1597 H   0  0  0  0  0  0  0  0  0  0  0  0
  -39.3719   65.6688   68.0067 H   0  0  0  0  0  0  0  0  0  0  0  0
  -39.7219   64.7951   66.5049 H   0  0  0  0  0  0  0  0  0  0  0  0
  -41.7507   65.7603   68.4749 H   0  0  0  0  0  0  0  0  0  0  0  0
  -41.2293   64.1060   68.2635 H   0  0  0  0  0  0  0  0  0  0  0  0
  -42.0880   64.9224   66.9792 H   0  0  0  0  0  0  0  0  0  0  0  0
  -32.1486   68.5400   64.6687 H   0  0  0  0  0  0  0  0  0  0  0  0
  -29.6327   67.0681   65.4416 H   0  0  0  0  0  0  0  0  0  0  0  0
  -31.1294   69.1768   67.0080 H   0  0  0  0  0  0  0  0  0  0  0  0
  -29.3488   70.6437   66.5772 H   0  0  0  0  0  0  0  0  0  0  0  0
  -31.0858   70.6667   64.9665 H   0  0  0  0  0  0  0  0  0  0  0  0
  -29.9792   71.4753   62.9606 H   0  0  0  0  0  0  0  0  0  0  0  0
  -29.1918   72.0657   64.4231 H   0  0  0  0  0  0  0  0  0  0  0  0
  1  4  1  0  0  0  0
  1 31  1  0  0  0  0
  1 62  1  0  0  0  0
  2  3  1  0  0  0  0
  2  4  1  0  0  0  0
  2 63  1  0  0  0  0
  2 64  1  0  0  0  0
  3 55  1  0  0  0  0
  4  6  1  0  0  0  0
  4 65  1  6  0  0  0
  5  6  1  0  0  0  0
  5 66  1  0  0  0  0
  6  8  1  0  0  0  0
  6 67  1  1  0  0  0
  7 31  2  0  0  0  0
  8 10  2  0  0  0  0
  8 68  1  0  0  0  0
  9 56  1  0  0  0  0
  9 69  1  0  0  0  0
 10 12  1  0  0  0  0
 10 70  1  0  0  0  0
 11 57  1  0  0  0  0
 11 61  1  0  0  0  0
 12 14  1  0  0  0  0
 12 71  1  0  0  0  0
 12 72  1  0  0  0  0
 13 58  1  0  0  0  0
 13 73  1  0  0  0  0
 14 16  1  0  0  0  0
 14 74  1  0  0  0  0
 14 75  1  0  0  0  0
 15 55  1  0  0  0  0
 15 59  1  0  0  0  0
 16 18  1  0  0  0  0
 16 76  1  0  0  0  0
 16 77  1  0  0  0  0
 17 60  1  0  0  0  0
 17 78  1  0  0  0  0
 18 20  1  0  0  0  0
 18 79  1  0  0  0  0
 18 80  1  0  0  0  0
 19 61  1  0  0  0  0
 19 81  1  0  0  0  0
 20 22  1  0  0  0  0
 20 82  1  0  0  0  0
 20 83  1  0  0  0  0
 21 61  1  0  0  0  0
 22 24  1  0  0  0  0
 22 84  1  0  0  0  0
 22 85  1  0  0  0  0
 23 61  1  0  0  0  0
 23 86  1  0  0  0  0
 24 25  1  0  0  0  0
 24 87  1  0  0  0  0
 24 88  1  0  0  0  0
 25 26  1  0  0  0  0
 25 89  1  0  0  0  0
 25 90  1  0  0  0  0
 26 27  1  0  0  0  0
 26 91  1  0  0  0  0
 26 92  1  0  0  0  0
 27 28  1  0  0  0  0
 27 93  1  0  0  0  0
 27 94  1  0  0  0  0
 28 29  1  0  0  0  0
 28 95  1  0  0  0  0
 28 96  1  0  0  0  0
 29 30  1  0  0  0  0
 29 97  1  0  0  0  0
 29 98  1  0  0  0  0
 30 99  1  0  0  0  0
 30100  1  0  0  0  0
 30101  1  0  0  0  0
 31 32  1  0  0  0  0
 32 33  1  0  0  0  0
 32102  1  0  0  0  0
 32103  1  0  0  0  0
 33 34  1  0  0  0  0
 33104  1  0  0  0  0
 33105  1  0  0  0  0
 34 35  1  0  0  0  0
 34106  1  0  0  0  0
 34107  1  0  0  0  0
 35 36  1  0  0  0  0
 35108  1  0  0  0  0
 35109  1  0  0  0  0
 36 37  1  0  0  0  0
 36110  1  0  0  0  0
 36111  1  0  0  0  0
 37 38  1  0  0  0  0
 37112  1  0  0  0  0
 37113  1  0  0  0  0
 38 39  1  0  0  0  0
 38114  1  0  0  0  0
 38115  1  0  0  0  0
 39 40  1  0  0  0  0
 39116  1  0  0  0  0
 39117  1  0  0  0  0
 40 41  1  0  0  0  0
 40118  1  0  0  0  0
 40119  1  0  0  0  0
 41 42  1  0  0  0  0
 41120  1  0  0  0  0
 41121  1  0  0  0  0
 42 43  1  0  0  0  0
 42122  1  0  0  0  0
 42123  1  0  0  0  0
 43 44  1  0  0  0  0
 43124  1  0  0  0  0
 43125  1  0  0  0  0
 44 45  1  0  0  0  0
 44126  1  0  0  0  0
 44127  1  0  0  0  0
 45 46  2  0  0  0  0
 45128  1  0  0  0  0
 46 47  1  0  0  0  0
 46129  1  0  0  0  0
 47 48  1  0  0  0  0
 47130  1  0  0  0  0
 47131  1  0  0  0  0
 48 49  1  0  0  0  0
 48132  1  0  0  0  0
 48133  1  0  0  0  0
 49 50  1  0  0  0  0
 49134  1  0  0  0  0
 49135  1  0  0  0  0
 50 51  1  0  0  0  0
 50136  1  0  0  0  0
 50137  1  0  0  0  0
 51 52  1  0  0  0  0
 51138  1  0  0  0  0
 51139  1  0  0  0  0
 52 53  1  0  0  0  0
 52140  1  0  0  0  0
 52141  1  0  0  0  0
 53 54  1  0  0  0  0
 53142  1  0  0  0  0
 53143  1  0  0  0  0
 54144  1  0  0  0  0
 54145  1  0  0  0  0
 54146  1  0  0  0  0
 55 56  1  0  0  0  0
 55147  1  1  0  0  0
 56 57  1  0  0  0  0
 56148  1  6  0  0  0
 57 58  1  0  0  0  0
 57149  1  1  0  0  0
 58 59  1  0  0  0  0
 58150  1  1  0  0  0
 59 60  1  0  0  0  0
 59151  1  1  0  0  0
 60152  1  0  0  0  0
 60153  1  0  0  0  0
M  CHG  1  21  -1
M  END
$$$$
/media/chris/experiments/cd1a-new-docking/inputs/ligands/7ryn_ligand.pdb
 OpenBabel07032312553D

153153  0  0  1  0  0  0  0  0999 V2000
  -33.0340   65.1330   62.2120 N   0  0  0  0  0  0  0  0  0  0  0  0
  -32.0220   67.3480   62.3220 C   0  0  0  0  0  0  0  0  0  0  0  0
  -31.1969   68.2589   61.5870 O   0  0  0  0  0  0  0  0  0  0  0  0
  -32.1830   66.0840   61.5030 C   0  0  1  0  0  0  0  0  0  0  0  0
  -31.0548   64.2805   60.3587 O   0  0  0  0  0  0  0  0  0  0  0  0
  -30.8310   65.4230   61.1900 C   0  0  2  0  0  0  0  0  0  0  0  0
  -31.4954   63.4950   62.3441 O   0  0  0  0  0  0  0  0  0  0  0  0
  -30.1054   65.0399   62.4433 C   0  0  0  0  0  0  0  0  0  0  0  0
  -28.8256   69.6743   61.1237 O   0  0  0  0  0  0  0  0  0  0  0  0
  -28.9184   64.4680   62.4873 C   0  0  0  0  0  0  0  0  0  0  0  0
  -29.1955   72.4811   60.9310 O   0  0  0  0  0  0  0  0  0  0  0  0
  -28.2138   64.1114   63.7550 C   0  0  0  0  0  0  0  0  0  0  0  0
  -31.9137   72.6716   61.1716 O   0  0  0  0  0  0  0  0  0  0  0  0
  -29.0503   64.4971   64.9767 C   0  0  0  0  0  0  0  0  0  0  0  0
  -32.1725   70.1372   62.5085 O   0  0  0  0  0  0  0  0  0  0  0  0
  -28.3904   64.1801   66.3089 C   0  0  0  0  0  0  0  0  0  0  0  0
  -34.1498   72.0997   62.3478 O   0  0  0  0  0  0  0  0  0  0  0  0
  -27.0679   64.8924   66.5361 C   0  0  0  0  0  0  0  0  0  0  0  0
  -28.2009   74.5050   60.0814 O   0  0  0  0  0  0  0  0  0  0  0  0
  -26.4049   64.5573   67.8642 C   0  0  0  0  0  0  0  0  0  0  0  0
  -28.2208   74.0289   62.5489 O   0  5  0  0  0  0  0  0  0  0  0  0
  -26.0681   63.0828   68.0239 C   0  0  0  0  0  0  0  0  0  0  0  0
  -30.2001   74.5960   61.3668 O   0  0  0  0  0  0  0  0  0  0  0  0
  -27.2753   62.1660   67.9321 C   0  0  0  0  0  0  0  0  0  0  0  0
  -26.9488   60.6946   68.1074 C   0  0  0  0  0  0  0  0  0  0  0  0
  -25.9632   60.1567   67.0843 C   0  0  0  0  0  0  0  0  0  0  0  0
  -26.4524   60.3023   65.6553 C   0  0  0  0  0  0  0  0  0  0  0  0
  -27.7620   59.5938   65.3665 C   0  0  0  0  0  0  0  0  0  0  0  0
  -28.2039   59.7512   63.9248 C   0  0  0  0  0  0  0  0  0  0  0  0
  -29.5204   59.0574   63.6423 C   0  0  0  0  0  0  0  0  0  0  0  0
  -32.6252   63.9148   62.5768 C   0  0  0  0  0  0  0  0  0  0  0  0
  -33.6441   63.0766   63.3080 C   0  0  0  0  0  0  0  0  0  0  0  0
  -33.4627   61.5850   63.0573 C   0  0  0  0  0  0  0  0  0  0  0  0
  -33.5729   61.2200   61.5856 C   0  0  0  0  0  0  0  0  0  0  0  0
  -34.9065   61.5890   60.9574 C   0  0  0  0  0  0  0  0  0  0  0  0
  -35.0214   61.2077   59.4891 C   0  0  0  0  0  0  0  0  0  0  0  0
  -34.8862   59.7137   59.2243 C   0  0  0  0  0  0  0  0  0  0  0  0
  -34.9847   59.3367   57.7517 C   0  0  0  0  0  0  0  0  0  0  0  0
  -33.9121   59.9630   56.8642 C   0  0  0  0  0  0  0  0  0  0  0  0
  -32.4846   59.5727   57.2440 C   0  0  0  0  0  0  0  0  0  0  0  0
  -31.3983   60.2057   56.3747 C   0  0  0  0  0  0  0  0  0  0  0  0
  -29.9820   59.7840   56.7668 C   0  0  0  0  0  0  0  0  0  0  0  0
  -29.7016   58.2848   56.6653 C   0  0  0  0  0  0  0  0  0  0  0  0
  -30.6030   57.4000   57.5304 C   0  0  0  0  0  0  0  0  0  0  0  0
  -30.2771   55.9395   57.4084 C   0  0  0  0  0  0  0  0  0  0  0  0
  -29.4217   55.2675   58.1584 C   0  0  0  0  0  0  0  0  0  0  0  0
  -28.6065   55.8279   59.2843 C   0  0  0  0  0  0  0  0  0  0  0  0
  -27.0965   55.6930   59.0763 C   0  0  0  0  0  0  0  0  0  0  0  0
  -26.2772   56.2497   60.2330 C   0  0  0  0  0  0  0  0  0  0  0  0
  -26.5518   55.5514   61.5601 C   0  0  0  0  0  0  0  0  0  0  0  0
  -25.7567   56.1008   62.7390 C   0  0  0  0  0  0  0  0  0  0  0  0
  -24.2482   56.0156   62.5538 C   0  0  0  0  0  0  0  0  0  0  0  0
  -23.7257   54.6031   62.3453 C   0  0  0  0  0  0  0  0  0  0  0  0
  -24.0489   53.6785   63.5014 C   0  0  0  0  0  0  0  0  0  0  0  0
  -30.9530   69.4703   62.2406 C   0  0  2  0  0  0  0  0  0  0  0  0
  -30.0721   70.3242   61.3379 C   0  0  1  0  0  0  0  0  0  0  0  0
  -29.8516   71.6915   61.9728 C   0  0  2  0  0  0  0  0  0  0  0  0
  -31.1762   72.3417   62.3441 C   0  0  2  0  0  0  0  0  0  0  0  0
  -31.9954   71.3819   63.2035 C   0  0  1  0  0  0  0  0  0  0  0  0
  -33.3762   71.9033   63.5259 C   0  0  0  0  0  0  0  0  0  0  0  0
  -28.7943   73.9833   61.2565 S   0  0  0  0  0  0  0  0  0  0  0  0
  -33.9548   65.4029   62.4321 H   0  0  0  0  0  0  0  0  0  0  0  0
  -32.9806   67.7896   62.4978 H   0  0  0  0  0  0  0  0  0  0  0  0
  -31.5704   67.1208   63.2650 H   0  0  0  0  0  0  0  0  0  0  0  0
  -32.6374   66.3625   60.5752 H   0  0  0  0  0  0  0  0  0  0  0  0
  -31.5249   64.5525   59.5551 H   0  0  0  0  0  0  0  0  0  0  0  0
  -30.2105   66.1253   60.6735 H   0  0  0  0  0  0  0  0  0  0  0  0
  -30.5711   65.2392   63.3425 H   0  0  0  0  0  0  0  0  0  0  0  0
  -28.9790   68.8059   60.7197 H   0  0  0  0  0  0  0  0  0  0  0  0
  -28.4487   64.2543   61.5936 H   0  0  0  0  0  0  0  0  0  0  0  0
  -27.2790   64.6306   63.7933 H   0  0  0  0  0  0  0  0  0  0  0  0
  -28.0568   63.0531   63.7707 H   0  0  0  0  0  0  0  0  0  0  0  0
  -31.3948   73.2814   60.6241 H   0  0  0  0  0  0  0  0  0  0  0  0
  -29.9791   63.9682   64.9280 H   0  0  0  0  0  0  0  0  0  0  0  0
  -29.1756   65.5592   64.9407 H   0  0  0  0  0  0  0  0  0  0  0  0
  -28.2151   63.1255   66.3536 H   0  0  0  0  0  0  0  0  0  0  0  0
  -29.0583   64.5231   67.0712 H   0  0  0  0  0  0  0  0  0  0  0  0
  -35.0277   72.4338   62.5896 H   0  0  0  0  0  0  0  0  0  0  0  0
  -27.2442   65.9473   66.5047 H   0  0  0  0  0  0  0  0  0  0  0  0
  -26.4024   64.5629   65.7659 H   0  0  0  0  0  0  0  0  0  0  0  0
  -27.3087   74.1382   59.9795 H   0  0  0  0  0  0  0  0  0  0  0  0
  -27.0690   64.8398   68.6542 H   0  0  0  0  0  0  0  0  0  0  0  0
  -25.4802   65.0948   67.8968 H   0  0  0  0  0  0  0  0  0  0  0  0
  -25.6100   62.9429   68.9807 H   0  0  0  0  0  0  0  0  0  0  0  0
  -25.4162   62.8223   67.2163 H   0  0  0  0  0  0  0  0  0  0  0  0
  -30.6278   74.5827   60.4963 H   0  0  0  0  0  0  0  0  0  0  0  0
  -27.7256   62.2983   66.9706 H   0  0  0  0  0  0  0  0  0  0  0  0
  -27.9296   62.4353   68.7347 H   0  0  0  0  0  0  0  0  0  0  0  0
  -27.8577   60.1358   68.0259 H   0  0  0  0  0  0  0  0  0  0  0  0
  -26.4876   60.5910   69.0674 H   0  0  0  0  0  0  0  0  0  0  0  0
  -25.7974   59.1186   67.2837 H   0  0  0  0  0  0  0  0  0  0  0  0
  -25.0641   60.7297   67.1744 H   0  0  0  0  0  0  0  0  0  0  0  0
  -25.7045   59.9022   65.0031 H   0  0  0  0  0  0  0  0  0  0  0  0
  -26.6284   61.3458   65.4975 H   0  0  0  0  0  0  0  0  0  0  0  0
  -28.5195   60.0003   66.0036 H   0  0  0  0  0  0  0  0  0  0  0  0
  -27.6127   58.5498   65.5478 H   0  0  0  0  0  0  0  0  0  0  0  0
  -27.4523   59.3335   63.2880 H   0  0  0  0  0  0  0  0  0  0  0  0
  -28.3407   60.7961   63.7391 H   0  0  0  0  0  0  0  0  0  0  0  0
  -29.4154   58.0074   63.8195 H   0  0  0  0  0  0  0  0  0  0  0  0
  -29.7980   59.2209   62.6219 H   0  0  0  0  0  0  0  0  0  0  0  0
  -30.2778   59.4538   64.2858 H   0  0  0  0  0  0  0  0  0  0  0  0
  -34.6219   63.3629   62.9810 H   0  0  0  0  0  0  0  0  0  0  0  0
  -33.5131   63.2478   64.3561 H   0  0  0  0  0  0  0  0  0  0  0  0
  -34.2162   61.0527   63.5994 H   0  0  0  0  0  0  0  0  0  0  0  0
  -32.4788   61.3197   63.3834 H   0  0  0  0  0  0  0  0  0  0  0  0
  -33.4363   60.1631   61.4896 H   0  0  0  0  0  0  0  0  0  0  0  0
  -32.8212   61.7800   61.0698 H   0  0  0  0  0  0  0  0  0  0  0  0
  -35.0376   62.6476   61.0421 H   0  0  0  0  0  0  0  0  0  0  0  0
  -35.6600   61.0391   61.4815 H   0  0  0  0  0  0  0  0  0  0  0  0
  -34.2510   61.7164   58.9482 H   0  0  0  0  0  0  0  0  0  0  0  0
  -36.0034   61.4906   59.1719 H   0  0  0  0  0  0  0  0  0  0  0  0
  -35.6641   59.2056   59.7550 H   0  0  0  0  0  0  0  0  0  0  0  0
  -33.9094   59.4269   59.5538 H   0  0  0  0  0  0  0  0  0  0  0  0
  -35.9420   59.6495   57.3901 H   0  0  0  0  0  0  0  0  0  0  0  0
  -34.8427   58.2775   57.6988 H   0  0  0  0  0  0  0  0  0  0  0  0
  -33.9990   61.0273   56.9316 H   0  0  0  0  0  0  0  0  0  0  0  0
  -34.0791   59.5976   55.8725 H   0  0  0  0  0  0  0  0  0  0  0  0
  -32.3973   58.5092   57.1653 H   0  0  0  0  0  0  0  0  0  0  0  0
  -32.3260   59.9349   58.2383 H   0  0  0  0  0  0  0  0  0  0  0  0
  -31.4715   61.2696   56.4619 H   0  0  0  0  0  0  0  0  0  0  0  0
  -31.5611   59.8690   55.3721 H   0  0  0  0  0  0  0  0  0  0  0  0
  -29.8149   60.0849   57.7799 H   0  0  0  0  0  0  0  0  0  0  0  0
  -29.3251   60.2586   56.0681 H   0  0  0  0  0  0  0  0  0  0  0  0
  -28.6873   58.1158   56.9612 H   0  0  0  0  0  0  0  0  0  0  0  0
  -29.8980   58.0110   55.6497 H   0  0  0  0  0  0  0  0  0  0  0  0
  -31.6189   57.5495   57.2293 H   0  0  0  0  0  0  0  0  0  0  0  0
  -30.4452   57.6805   58.5508 H   0  0  0  0  0  0  0  0  0  0  0  0
  -30.7670   55.4110   56.6697 H   0  0  0  0  0  0  0  0  0  0  0  0
  -29.3039   54.2637   57.9496 H   0  0  0  0  0  0  0  0  0  0  0  0
  -28.8713   55.3112   60.1830 H   0  0  0  0  0  0  0  0  0  0  0  0
  -28.8229   56.8745   59.3365 H   0  0  0  0  0  0  0  0  0  0  0  0
  -26.8280   56.2205   58.1849 H   0  0  0  0  0  0  0  0  0  0  0  0
  -26.8782   54.6477   59.0074 H   0  0  0  0  0  0  0  0  0  0  0  0
  -26.5074   57.2889   60.3425 H   0  0  0  0  0  0  0  0  0  0  0  0
  -25.2463   56.0868   59.9974 H   0  0  0  0  0  0  0  0  0  0  0  0
  -26.3111   54.5148   61.4485 H   0  0  0  0  0  0  0  0  0  0  0  0
  -27.5845   55.7188   61.7846 H   0  0  0  0  0  0  0  0  0  0  0  0
  -26.0215   55.5442   63.6136 H   0  0  0  0  0  0  0  0  0  0  0  0
  -26.0026   57.1387   62.8249 H   0  0  0  0  0  0  0  0  0  0  0  0
  -23.7795   56.4217   63.4258 H   0  0  0  0  0  0  0  0  0  0  0  0
  -24.0156   56.5643   61.6651 H   0  0  0  0  0  0  0  0  0  0  0  0
  -22.6629   54.6458   62.2291 H   0  0  0  0  0  0  0  0  0  0  0  0
  -24.2057   54.2083   61.4743 H   0  0  0  0  0  0  0  0  0  0  0  0
  -23.5828   54.0448   64.3921 H   0  0  0  0  0  0  0  0  0  0  0  0
  -23.6834   52.6963   63.2856 H   0  0  0  0  0  0  0  0  0  0  0  0
  -25.1089   53.6414   63.6429 H   0  0  0  0  0  0  0  0  0  0  0  0
  -30.4622   69.2932   63.1747 H   0  0  0  0  0  0  0  0  0  0  0  0
  -30.5589   70.4564   60.3943 H   0  0  0  0  0  0  0  0  0  0  0  0
  -29.2758   71.6206   62.8719 H   0  0  0  0  0  0  0  0  0  0  0  0
  -30.9761   73.2382   62.8929 H   0  0  0  0  0  0  0  0  0  0  0  0
  -31.4476   71.2644   64.1151 H   0  0  0  0  0  0  0  0  0  0  0  0
  -33.8757   71.1972   64.1558 H   0  0  0  0  0  0  0  0  0  0  0  0
  -33.2710   72.8473   64.0187 H   0  0  0  0  0  0  0  0  0  0  0  0
  1  4  1  0  0  0  0
  1 31  1  0  0  0  0
  1 62  1  0  0  0  0
  2  3  1  0  0  0  0
  2  4  1  0  0  0  0
  2 63  1  0  0  0  0
  2 64  1  0  0  0  0
  3 55  1  0  0  0  0
  4  6  1  0  0  0  0
  4 65  1  6  0  0  0
  5  6  1  0  0  0  0
  5 66  1  0  0  0  0
  6  8  1  0  0  0  0
  6 67  1  6  0  0  0
  7 31  2  0  0  0  0
  8 10  2  0  0  0  0
  8 68  1  0  0  0  0
  9 56  1  0  0  0  0
  9 69  1  0  0  0  0
 10 12  1  0  0  0  0
 10 70  1  0  0  0  0
 11 57  1  0  0  0  0
 11 61  1  0  0  0  0
 12 14  1  0  0  0  0
 12 71  1  0  0  0  0
 12 72  1  0  0  0  0
 13 58  1  0  0  0  0
 13 73  1  0  0  0  0
 14 16  1  0  0  0  0
 14 74  1  0  0  0  0
 14 75  1  0  0  0  0
 15 55  1  0  0  0  0
 15 59  1  0  0  0  0
 16 18  1  0  0  0  0
 16 76  1  0  0  0  0
 16 77  1  0  0  0  0
 17 60  1  0  0  0  0
 17 78  1  0  0  0  0
 18 20  1  0  0  0  0
 18 79  1  0  0  0  0
 18 80  1  0  0  0  0
 19 61  1  0  0  0  0
 19 81  1  0  0  0  0
 20 22  1  0  0  0  0
 20 82  1  0  0  0  0
 20 83  1  0  0  0  0
 21 61  1  0  0  0  0
 22 24  1  0  0  0  0
 22 84  1  0  0  0  0
 22 85  1  0  0  0  0
 23 61  1  0  0  0  0
 23 86  1  0  0  0  0
 24 25  1  0  0  0  0
 24 87  1  0  0  0  0
 24 88  1  0  0  0  0
 25 26  1  0  0  0  0
 25 89  1  0  0  0  0
 25 90  1  0  0  0  0
 26 27  1  0  0  0  0
 26 91  1  0  0  0  0
 26 92  1  0  0  0  0
 27 28  1  0  0  0  0
 27 93  1  0  0  0  0
 27 94  1  0  0  0  0
 28 29  1  0  0  0  0
 28 95  1  0  0  0  0
 28 96  1  0  0  0  0
 29 30  1  0  0  0  0
 29 97  1  0  0  0  0
 29 98  1  0  0  0  0
 30 99  1  0  0  0  0
 30100  1  0  0  0  0
 30101  1  0  0  0  0
 31 32  1  0  0  0  0
 32 33  1  0  0  0  0
 32102  1  0  0  0  0
 32103  1  0  0  0  0
 33 34  1  0  0  0  0
 33104  1  0  0  0  0
 33105  1  0  0  0  0
 34 35  1  0  0  0  0
 34106  1  0  0  0  0
 34107  1  0  0  0  0
 35 36  1  0  0  0  0
 35108  1  0  0  0  0
 35109  1  0  0  0  0
 36 37  1  0  0  0  0
 36110  1  0  0  0  0
 36111  1  0  0  0  0
 37 38  1  0  0  0  0
 37112  1  0  0  0  0
 37113  1  0  0  0  0
 38 39  1  0  0  0  0
 38114  1  0  0  0  0
 38115  1  0  0  0  0
 39 40  1  0  0  0  0
 39116  1  0  0  0  0
 39117  1  0  0  0  0
 40 41  1  0  0  0  0
 40118  1  0  0  0  0
 40119  1  0  0  0  0
 41 42  1  0  0  0  0
 41120  1  0  0  0  0
 41121  1  0  0  0  0
 42 43  1  0  0  0  0
 42122  1  0  0  0  0
 42123  1  0  0  0  0
 43 44  1  0  0  0  0
 43124  1  0  0  0  0
 43125  1  0  0  0  0
 44 45  1  0  0  0  0
 44126  1  0  0  0  0
 44127  1  0  0  0  0
 45 46  2  0  0  0  0
 45128  1  0  0  0  0
 46 47  1  0  0  0  0
 46129  1  0  0  0  0
 47 48  1  0  0  0  0
 47130  1  0  0  0  0
 47131  1  0  0  0  0
 48 49  1  0  0  0  0
 48132  1  0  0  0  0
 48133  1  0  0  0  0
 49 50  1  0  0  0  0
 49134  1  0  0  0  0
 49135  1  0  0  0  0
 50 51  1  0  0  0  0
 50136  1  0  0  0  0
 50137  1  0  0  0  0
 51 52  1  0  0  0  0
 51138  1  0  0  0  0
 51139  1  0  0  0  0
 52 53  1  0  0  0  0
 52140  1  0  0  0  0
 52141  1  0  0  0  0
 53 54  1  0  0  0  0
 53142  1  0  0  0  0
 53143  1  0  0  0  0
 54144  1  0  0  0  0
 54145  1  0  0  0  0
 54146  1  0  0  0  0
 55 56  1  0  0  0  0
 55147  1  1  0  0  0
 56 57  1  0  0  0  0
 56148  1  6  0  0  0
 57 58  1  0  0  0  0
 57149  1  1  0  0  0
 58 59  1  0  0  0  0
 58150  1  1  0  0  0
 59 60  1  0  0  0  0
 59151  1  1  0  0  0
 60152  1  0  0  0  0
 60153  1  0  0  0  0
M  CHG  1  21  -1
M  END
$$$$
/media/chris/experiments/cd1a-new-docking/inputs/ligands/7ryn_ligand.pdb
 OpenBabel07032312553D

153153  0  0  1  0  0  0  0  0999 V2000
  -33.0340   65.1330   62.2120 N   0  0  0  0  0  0  0  0  0  0  0  0
  -32.0220   67.3480   62.3220 C   0  0  0  0  0  0  0  0  0  0  0  0
  -31.4051   67.0024   63.5673 O   0  0  0  0  0  0  0  0  0  0  0  0
  -32.1830   66.0840   61.5030 C   0  0  1  0  0  0  0  0  0  0  0  0
  -30.2154   65.0225   62.4176 O   0  0  0  0  0  0  0  0  0  0  0  0
  -30.8310   65.4230   61.1900 C   0  0  2  0  0  0  0  0  0  0  0  0
  -32.4714   65.8137   64.2827 O   0  0  0  0  0  0  0  0  0  0  0  0
  -29.9369   66.3439   60.4177 C   0  0  0  0  0  0  0  0  0  0  0  0
  -31.4046   66.6220   66.3415 O   0  0  0  0  0  0  0  0  0  0  0  0
  -28.6200   66.3494   60.4787 C   0  0  0  0  0  0  0  0  0  0  0  0
  -29.4155   68.1261   67.6954 O   0  0  0  0  0  0  0  0  0  0  0  0
  -27.7547   67.2714   59.6837 C   0  0  0  0  0  0  0  0  0  0  0  0
  -28.1411   69.3260   65.5933 O   0  0  0  0  0  0  0  0  0  0  0  0
  -26.4595   67.5927   60.4323 C   0  0  0  0  0  0  0  0  0  0  0  0
  -30.3909   69.0606   63.8198 O   0  0  0  0  0  0  0  0  0  0  0  0
  -25.5312   68.5419   59.6922 C   0  0  0  0  0  0  0  0  0  0  0  0
  -28.1534   70.6686   63.3778 O   0  0  0  0  0  0  0  0  0  0  0  0
  -24.2371   68.8490   60.4262 C   0  0  0  0  0  0  0  0  0  0  0  0
  -28.1457   70.0889   68.2805 O   0  0  0  0  0  0  0  0  0  0  0  0
  -23.3203   69.8130   59.6873 C   0  0  0  0  0  0  0  0  0  0  0  0
  -28.4860   68.2421   69.9506 O   0  5  0  0  0  0  0  0  0  0  0  0
  -22.0195   70.1022   60.4204 C   0  0  0  0  0  0  0  0  0  0  0  0
  -30.2585   69.6783   69.2930 O   0  0  0  0  0  0  0  0  0  0  0  0
  -21.1107   71.0771   59.6927 C   0  0  0  0  0  0  0  0  0  0  0  0
  -20.6940   70.6179   58.3078 C   0  0  0  0  0  0  0  0  0  0  0  0
  -21.8566   70.4121   57.3520 C   0  0  0  0  0  0  0  0  0  0  0  0
  -22.6589   71.6776   57.1121 C   0  0  0  0  0  0  0  0  0  0  0  0
  -21.8648   72.8159   56.5005 C   0  0  0  0  0  0  0  0  0  0  0  0
  -21.2914   72.4624   55.1423 C   0  0  0  0  0  0  0  0  0  0  0  0
  -22.3654   72.1224   54.1296 C   0  0  0  0  0  0  0  0  0  0  0  0
  -33.1122   65.0716   63.5440 C   0  0  0  0  0  0  0  0  0  0  0  0
  -34.0520   64.0283   64.0950 C   0  0  0  0  0  0  0  0  0  0  0  0
  -35.2217   63.7435   63.1616 C   0  0  0  0  0  0  0  0  0  0  0  0
  -36.1798   62.7046   63.7220 C   0  0  0  0  0  0  0  0  0  0  0  0
  -36.8218   63.1060   65.0396 C   0  0  0  0  0  0  0  0  0  0  0  0
  -37.7673   62.0582   65.6077 C   0  0  0  0  0  0  0  0  0  0  0  0
  -38.9298   61.7083   64.6874 C   0  0  0  0  0  0  0  0  0  0  0  0
  -39.8162   62.8958   64.3344 C   0  0  0  0  0  0  0  0  0  0  0  0
  -40.9958   62.5580   63.4261 C   0  0  0  0  0  0  0  0  0  0  0  0
  -41.8674   63.7600   63.0656 C   0  0  0  0  0  0  0  0  0  0  0  0
  -42.4915   64.4765   64.2629 C   0  0  0  0  0  0  0  0  0  0  0  0
  -43.3714   65.6638   63.8711 C   0  0  0  0  0  0  0  0  0  0  0  0
  -44.5707   65.3174   62.9890 C   0  0  0  0  0  0  0  0  0  0  0  0
  -45.5710   64.3416   63.6144 C   0  0  0  0  0  0  0  0  0  0  0  0
  -44.9515   63.0223   63.9747 C   0  0  0  0  0  0  0  0  0  0  0  0
  -45.3084   61.8403   63.5042 C   0  0  0  0  0  0  0  0  0  0  0  0
  -46.4022   61.5792   62.5134 C   0  0  0  0  0  0  0  0  0  0  0  0
  -46.5860   60.0978   62.1770 C   0  0  0  0  0  0  0  0  0  0  0  0
  -46.9505   59.2465   63.3861 C   0  0  0  0  0  0  0  0  0  0  0  0
  -48.2608   59.6620   64.0455 C   0  0  0  0  0  0  0  0  0  0  0  0
  -49.4825   59.5644   63.1390 C   0  0  0  0  0  0  0  0  0  0  0  0
  -49.7579   58.1561   62.6311 C   0  0  0  0  0  0  0  0  0  0  0  0
  -50.9647   58.0508   61.7122 C   0  0  0  0  0  0  0  0  0  0  0  0
  -51.2223   56.6351   61.2376 C   0  0  0  0  0  0  0  0  0  0  0  0
  -31.2104   68.0828   64.4327 C   0  0  2  0  0  0  0  0  0  0  0  0
  -30.5480   67.5584   65.7001 C   0  0  1  0  0  0  0  0  0  0  0  0
  -30.2364   68.7171   66.6389 C   0  0  2  0  0  0  0  0  0  0  0  0
  -29.4420   69.8007   65.9249 C   0  0  2  0  0  0  0  0  0  0  0  0
  -30.1703   70.2134   64.6482 C   0  0  1  0  0  0  0  0  0  0  0  0
  -29.3950   71.2080   63.8163 C   0  0  0  0  0  0  0  0  0  0  0  0
  -28.9132   69.0600   68.8784 S   0  0  0  0  0  0  0  0  0  0  0  0
  -33.5772   64.5058   61.6821 H   0  0  0  0  0  0  0  0  0  0  0  0
  -31.4053   68.0450   61.7940 H   0  0  0  0  0  0  0  0  0  0  0  0
  -32.9770   67.7979   62.4965 H   0  0  0  0  0  0  0  0  0  0  0  0
  -32.6374   66.3625   60.5752 H   0  0  0  0  0  0  0  0  0  0  0  0
  -30.8116   64.4280   62.8994 H   0  0  0  0  0  0  0  0  0  0  0  0
  -30.9971   64.5628   60.5757 H   0  0  0  0  0  0  0  0  0  0  0  0
  -30.3869   67.0273   59.7888 H   0  0  0  0  0  0  0  0  0  0  0  0
  -31.5955   65.8899   65.7345 H   0  0  0  0  0  0  0  0  0  0  0  0
  -28.1601   65.6775   61.1128 H   0  0  0  0  0  0  0  0  0  0  0  0
  -28.2879   68.1809   59.5014 H   0  0  0  0  0  0  0  0  0  0  0  0
  -27.5040   66.7913   58.7609 H   0  0  0  0  0  0  0  0  0  0  0  0
  -27.6765   69.0633   66.4032 H   0  0  0  0  0  0  0  0  0  0  0  0
  -25.9349   66.6761   60.6040 H   0  0  0  0  0  0  0  0  0  0  0  0
  -26.7426   68.0845   61.3395 H   0  0  0  0  0  0  0  0  0  0  0  0
  -26.0519   69.4627   59.5315 H   0  0  0  0  0  0  0  0  0  0  0  0
  -25.2579   68.0543   58.7798 H   0  0  0  0  0  0  0  0  0  0  0  0
  -27.6822   71.3306   62.8482 H   0  0  0  0  0  0  0  0  0  0  0  0
  -23.7090   67.9305   60.5760 H   0  0  0  0  0  0  0  0  0  0  0  0
  -24.5080   69.3231   61.3464 H   0  0  0  0  0  0  0  0  0  0  0  0
  -27.2864   69.7330   68.0054 H   0  0  0  0  0  0  0  0  0  0  0  0
  -23.8425   70.7366   59.5484 H   0  0  0  0  0  0  0  0  0  0  0  0
  -23.0599   69.3481   58.7594 H   0  0  0  0  0  0  0  0  0  0  0  0
  -21.4919   69.1801   60.5483 H   0  0  0  0  0  0  0  0  0  0  0  0
  -22.2813   70.5563   61.3532 H   0  0  0  0  0  0  0  0  0  0  0  0
  -30.5856   70.2488   68.5800 H   0  0  0  0  0  0  0  0  0  0  0  0
  -20.2276   71.2165   60.2806 H   0  0  0  0  0  0  0  0  0  0  0  0
  -21.6676   71.9816   59.5639 H   0  0  0  0  0  0  0  0  0  0  0  0
  -20.1689   69.6907   58.4041 H   0  0  0  0  0  0  0  0  0  0  0  0
  -20.0849   71.3939   57.8934 H   0  0  0  0  0  0  0  0  0  0  0  0
  -22.5076   69.6685   57.7622 H   0  0  0  0  0  0  0  0  0  0  0  0
  -21.4472   70.1098   56.4108 H   0  0  0  0  0  0  0  0  0  0  0  0
  -23.0500   72.0090   58.0513 H   0  0  0  0  0  0  0  0  0  0  0  0
  -23.4236   71.4255   56.4075 H   0  0  0  0  0  0  0  0  0  0  0  0
  -21.0587   73.0640   57.1589 H   0  0  0  0  0  0  0  0  0  0  0  0
  -22.5324   73.6412   56.3659 H   0  0  0  0  0  0  0  0  0  0  0  0
  -20.6440   71.6176   55.2525 H   0  0  0  0  0  0  0  0  0  0  0  0
  -20.7625   73.3190   54.7799 H   0  0  0  0  0  0  0  0  0  0  0  0
  -22.9137   71.2669   54.4648 H   0  0  0  0  0  0  0  0  0  0  0  0
  -21.9100   71.9068   53.1856 H   0  0  0  0  0  0  0  0  0  0  0  0
  -23.0310   72.9533   54.0230 H   0  0  0  0  0  0  0  0  0  0  0  0
  -34.4370   64.3740   65.0315 H   0  0  0  0  0  0  0  0  0  0  0  0
  -33.4981   63.1198   64.2077 H   0  0  0  0  0  0  0  0  0  0  0  0
  -34.8366   63.3863   62.2293 H   0  0  0  0  0  0  0  0  0  0  0  0
  -35.7682   64.6554   63.0406 H   0  0  0  0  0  0  0  0  0  0  0  0
  -35.6382   61.7945   63.8747 H   0  0  0  0  0  0  0  0  0  0  0  0
  -36.9719   62.5972   63.0108 H   0  0  0  0  0  0  0  0  0  0  0  0
  -37.3738   64.0094   64.8843 H   0  0  0  0  0  0  0  0  0  0  0  0
  -36.0291   63.2264   65.7480 H   0  0  0  0  0  0  0  0  0  0  0  0
  -38.1670   62.4295   66.5282 H   0  0  0  0  0  0  0  0  0  0  0  0
  -37.1954   61.1633   65.7378 H   0  0  0  0  0  0  0  0  0  0  0  0
  -39.5332   60.9698   65.1726 H   0  0  0  0  0  0  0  0  0  0  0  0
  -38.5051   61.3544   63.7712 H   0  0  0  0  0  0  0  0  0  0  0  0
  -39.2127   63.6279   63.8398 H   0  0  0  0  0  0  0  0  0  0  0  0
  -40.2325   63.2487   65.2548 H   0  0  0  0  0  0  0  0  0  0  0  0
  -41.6082   61.8360   63.9247 H   0  0  0  0  0  0  0  0  0  0  0  0
  -40.5849   62.1881   62.5101 H   0  0  0  0  0  0  0  0  0  0  0  0
  -42.6587   63.4198   62.4308 H   0  0  0  0  0  0  0  0  0  0  0  0
  -41.2230   64.4697   62.5902 H   0  0  0  0  0  0  0  0  0  0  0  0
  -41.7035   64.8322   64.8934 H   0  0  0  0  0  0  0  0  0  0  0  0
  -43.1208   63.7687   64.7608 H   0  0  0  0  0  0  0  0  0  0  0  0
  -42.7629   66.3674   63.3423 H   0  0  0  0  0  0  0  0  0  0  0  0
  -43.7740   66.0509   64.7838 H   0  0  0  0  0  0  0  0  0  0  0  0
  -44.2025   64.8812   62.0839 H   0  0  0  0  0  0  0  0  0  0  0  0
  -45.1023   66.2327   62.8326 H   0  0  0  0  0  0  0  0  0  0  0  0
  -46.3618   64.1680   62.9149 H   0  0  0  0  0  0  0  0  0  0  0  0
  -45.9306   64.7856   64.5191 H   0  0  0  0  0  0  0  0  0  0  0  0
  -44.1742   63.0403   64.6533 H   0  0  0  0  0  0  0  0  0  0  0  0
  -44.7856   61.0209   63.8511 H   0  0  0  0  0  0  0  0  0  0  0  0
  -46.1725   62.1049   61.6102 H   0  0  0  0  0  0  0  0  0  0  0  0
  -47.3152   61.9144   62.9596 H   0  0  0  0  0  0  0  0  0  0  0  0
  -45.6712   59.7273   61.7641 H   0  0  0  0  0  0  0  0  0  0  0  0
  -47.3984   60.0285   61.4840 H   0  0  0  0  0  0  0  0  0  0  0  0
  -46.1657   59.3298   64.1086 H   0  0  0  0  0  0  0  0  0  0  0  0
  -47.0757   58.2421   63.0392 H   0  0  0  0  0  0  0  0  0  0  0  0
  -48.1649   60.6773   64.3693 H   0  0  0  0  0  0  0  0  0  0  0  0
  -48.4253   58.9795   64.8531 H   0  0  0  0  0  0  0  0  0  0  0  0
  -49.3284   60.2036   62.2949 H   0  0  0  0  0  0  0  0  0  0  0  0
  -50.3295   59.8566   63.7239 H   0  0  0  0  0  0  0  0  0  0  0  0
  -49.9228   57.5207   63.4761 H   0  0  0  0  0  0  0  0  0  0  0  0
  -48.9052   57.8647   62.0541 H   0  0  0  0  0  0  0  0  0  0  0  0
  -50.7983   58.6726   60.8575 H   0  0  0  0  0  0  0  0  0  0  0  0
  -51.8220   58.3634   62.2709 H   0  0  0  0  0  0  0  0  0  0  0  0
  -50.3816   56.2896   60.6731 H   0  0  0  0  0  0  0  0  0  0  0  0
  -52.0967   56.6192   60.6211 H   0  0  0  0  0  0  0  0  0  0  0  0
  -51.3707   55.9968   62.0835 H   0  0  0  0  0  0  0  0  0  0  0  0
  -32.1486   68.5400   64.6687 H   0  0  0  0  0  0  0  0  0  0  0  0
  -29.6327   67.0681   65.4416 H   0  0  0  0  0  0  0  0  0  0  0  0
  -31.1294   69.1768   67.0080 H   0  0  0  0  0  0  0  0  0  0  0  0
  -29.3488   70.6437   66.5772 H   0  0  0  0  0  0  0  0  0  0  0  0
  -31.0858   70.6667   64.9665 H   0  0  0  0  0  0  0  0  0  0  0  0
  -29.9792   71.4753   62.9606 H   0  0  0  0  0  0  0  0  0  0  0  0
  -29.1918   72.0657   64.4231 H   0  0  0  0  0  0  0  0  0  0  0  0
  1  4  1  0  0  0  0
  1 31  1  0  0  0  0
  1 62  1  0  0  0  0
  2  3  1  0  0  0  0
  2  4  1  0  0  0  0
  2 63  1  0  0  0  0
  2 64  1  0  0  0  0
  3 55  1  0  0  0  0
  4  6  1  0  0  0  0
  4 65  1  6  0  0  0
  5  6  1  0  0  0  0
  5 66  1  0  0  0  0
  6  8  1  0  0  0  0
  6 67  1  6  0  0  0
  7 31  2  0  0  0  0
  8 10  2  0  0  0  0
  8 68  1  0  0  0  0
  9 56  1  0  0  0  0
  9 69  1  0  0  0  0
 10 12  1  0  0  0  0
 10 70  1  0  0  0  0
 11 57  1  0  0  0  0
 11 61  1  0  0  0  0
 12 14  1  0  0  0  0
 12 71  1  0  0  0  0
 12 72  1  0  0  0  0
 13 58  1  0  0  0  0
 13 73  1  0  0  0  0
 14 16  1  0  0  0  0
 14 74  1  0  0  0  0
 14 75  1  0  0  0  0
 15 55  1  0  0  0  0
 15 59  1  0  0  0  0
 16 18  1  0  0  0  0
 16 76  1  0  0  0  0
 16 77  1  0  0  0  0
 17 60  1  0  0  0  0
 17 78  1  0  0  0  0
 18 20  1  0  0  0  0
 18 79  1  0  0  0  0
 18 80  1  0  0  0  0
 19 61  1  0  0  0  0
 19 81  1  0  0  0  0
 20 22  1  0  0  0  0
 20 82  1  0  0  0  0
 20 83  1  0  0  0  0
 21 61  1  0  0  0  0
 22 24  1  0  0  0  0
 22 84  1  0  0  0  0
 22 85  1  0  0  0  0
 23 61  1  0  0  0  0
 23 86  1  0  0  0  0
 24 25  1  0  0  0  0
 24 87  1  0  0  0  0
 24 88  1  0  0  0  0
 25 26  1  0  0  0  0
 25 89  1  0  0  0  0
 25 90  1  0  0  0  0
 26 27  1  0  0  0  0
 26 91  1  0  0  0  0
 26 92  1  0  0  0  0
 27 28  1  0  0  0  0
 27 93  1  0  0  0  0
 27 94  1  0  0  0  0
 28 29  1  0  0  0  0
 28 95  1  0  0  0  0
 28 96  1  0  0  0  0
 29 30  1  0  0  0  0
 29 97  1  0  0  0  0
 29 98  1  0  0  0  0
 30 99  1  0  0  0  0
 30100  1  0  0  0  0
 30101  1  0  0  0  0
 31 32  1  0  0  0  0
 32 33  1  0  0  0  0
 32102  1  0  0  0  0
 32103  1  0  0  0  0
 33 34  1  0  0  0  0
 33104  1  0  0  0  0
 33105  1  0  0  0  0
 34 35  1  0  0  0  0
 34106  1  0  0  0  0
 34107  1  0  0  0  0
 35 36  1  0  0  0  0
 35108  1  0  0  0  0
 35109  1  0  0  0  0
 36 37  1  0  0  0  0
 36110  1  0  0  0  0
 36111  1  0  0  0  0
 37 38  1  0  0  0  0
 37112  1  0  0  0  0
 37113  1  0  0  0  0
 38 39  1  0  0  0  0
 38114  1  0  0  0  0
 38115  1  0  0  0  0
 39 40  1  0  0  0  0
 39116  1  0  0  0  0
 39117  1  0  0  0  0
 40 41  1  0  0  0  0
 40118  1  0  0  0  0
 40119  1  0  0  0  0
 41 42  1  0  0  0  0
 41120  1  0  0  0  0
 41121  1  0  0  0  0
 42 43  1  0  0  0  0
 42122  1  0  0  0  0
 42123  1  0  0  0  0
 43 44  1  0  0  0  0
 43124  1  0  0  0  0
 43125  1  0  0  0  0
 44 45  1  0  0  0  0
 44126  1  0  0  0  0
 44127  1  0  0  0  0
 45 46  2  0  0  0  0
 45128  1  0  0  0  0
 46 47  1  0  0  0  0
 46129  1  0  0  0  0
 47 48  1  0  0  0  0
 47130  1  0  0  0  0
 47131  1  0  0  0  0
 48 49  1  0  0  0  0
 48132  1  0  0  0  0
 48133  1  0  0  0  0
 49 50  1  0  0  0  0
 49134  1  0  0  0  0
 49135  1  0  0  0  0
 50 51  1  0  0  0  0
 50136  1  0  0  0  0
 50137  1  0  0  0  0
 51 52  1  0  0  0  0
 51138  1  0  0  0  0
 51139  1  0  0  0  0
 52 53  1  0  0  0  0
 52140  1  0  0  0  0
 52141  1  0  0  0  0
 53 54  1  0  0  0  0
 53142  1  0  0  0  0
 53143  1  0  0  0  0
 54144  1  0  0  0  0
 54145  1  0  0  0  0
 54146  1  0  0  0  0
 55 56  1  0  0  0  0
 55147  1  1  0  0  0
 56 57  1  0  0  0  0
 56148  1  6  0  0  0
 57 58  1  0  0  0  0
 57149  1  1  0  0  0
 58 59  1  0  0  0  0
 58150  1  1  0  0  0
 59 60  1  0  0  0  0
 59151  1  1  0  0  0
 60152  1  0  0  0  0
 60153  1  0  0  0  0
M  CHG  1  21  -1
M  END
$$$$
/media/chris/experiments/cd1a-new-docking/inputs/ligands/7ryn_ligand.pdb
 OpenBabel07032312553D

153153  0  0  1  0  0  0  0  0999 V2000
  -33.0340   65.1330   62.2120 N   0  0  0  0  0  0  0  0  0  0  0  0
  -32.0220   67.3480   62.3220 C   0  0  0  0  0  0  0  0  0  0  0  0
  -33.3204   67.9104   62.5424 O   0  0  0  0  0  0  0  0  0  0  0  0
  -32.1830   66.0840   61.5030 C   0  0  1  0  0  0  0  0  0  0  0  0
  -29.9992   66.3678   60.5104 O   0  0  0  0  0  0  0  0  0  0  0  0
  -30.8310   65.4230   61.1900 C   0  0  2  0  0  0  0  0  0  0  0  0
  -32.4714   65.8137   64.2827 O   0  0  0  0  0  0  0  0  0  0  0  0
  -31.0055   64.1786   60.3744 C   0  0  0  0  0  0  0  0  0  0  0  0
  -33.4828   67.8547   65.3373 O   0  0  0  0  0  0  0  0  0  0  0  0
  -31.1625   62.9657   60.8665 C   0  0  0  0  0  0  0  0  0  0  0  0
  -31.7851   69.7369   66.6130 O   0  0  0  0  0  0  0  0  0  0  0  0
  -31.3493   61.7453   60.0260 C   0  0  0  0  0  0  0  0  0  0  0  0
  -30.5036   70.8340   64.4596 O   0  0  0  0  0  0  0  0  0  0  0  0
  -32.0437   62.0872   58.7061 C   0  0  0  0  0  0  0  0  0  0  0  0
  -32.5700   70.0926   62.6001 O   0  0  0  0  0  0  0  0  0  0  0  0
  -32.2850   60.8902   57.8007 C   0  0  0  0  0  0  0  0  0  0  0  0
  -31.7323   73.6181   62.9917 O   0  0  0  0  0  0  0  0  0  0  0  0
  -33.1710   59.8160   58.4082 C   0  0  0  0  0  0  0  0  0  0  0  0
  -30.6849   70.2420   68.6965 O   0  0  0  0  0  0  0  0  0  0  0  0
  -33.3944   58.6133   57.5031 C   0  0  0  0  0  0  0  0  0  0  0  0
  -32.6697   71.5855   67.9409 O   0  5  0  0  0  0  0  0  0  0  0  0
  -34.0422   58.9626   56.1720 C   0  0  0  0  0  0  0  0  0  0  0  0
  -30.5576   71.7614   66.8710 O   0  0  0  0  0  0  0  0  0  0  0  0
  -35.4023   59.6241   56.3084 C   0  0  0  0  0  0  0  0  0  0  0  0
  -36.0619   59.9600   54.9838 C   0  0  0  0  0  0  0  0  0  0  0  0
  -37.4146   60.6369   55.1241 C   0  0  0  0  0  0  0  0  0  0  0  0
  -38.0637   60.9484   53.7884 C   0  0  0  0  0  0  0  0  0  0  0  0
  -38.3388   59.7309   52.9268 C   0  0  0  0  0  0  0  0  0  0  0  0
  -38.9712   60.0896   51.5964 C   0  0  0  0  0  0  0  0  0  0  0  0
  -38.0890   60.9924   50.7591 C   0  0  0  0  0  0  0  0  0  0  0  0
  -33.1122   65.0716   63.5440 C   0  0  0  0  0  0  0  0  0  0  0  0
  -34.0520   64.0283   64.0950 C   0  0  0  0  0  0  0  0  0  0  0  0
  -33.3426   63.0107   64.9792 C   0  0  0  0  0  0  0  0  0  0  0  0
  -32.2419   62.2620   64.2451 C   0  0  0  0  0  0  0  0  0  0  0  0
  -31.5265   61.2269   65.0973 C   0  0  0  0  0  0  0  0  0  0  0  0
  -32.4373   60.1282   65.6244 C   0  0  0  0  0  0  0  0  0  0  0  0
  -33.1147   59.3083   64.5337 C   0  0  0  0  0  0  0  0  0  0  0  0
  -33.9861   60.1319   63.5942 C   0  0  0  0  0  0  0  0  0  0  0  0
  -34.6856   59.3219   62.5056 C   0  0  0  0  0  0  0  0  0  0  0  0
  -35.5428   60.1612   61.5595 C   0  0  0  0  0  0  0  0  0  0  0  0
  -36.2633   59.3618   60.4741 C   0  0  0  0  0  0  0  0  0  0  0  0
  -35.3161   58.5802   59.5636 C   0  0  0  0  0  0  0  0  0  0  0  0
  -34.4525   57.5362   60.2714 C   0  0  0  0  0  0  0  0  0  0  0  0
  -35.2334   56.4290   60.9842 C   0  0  0  0  0  0  0  0  0  0  0  0
  -34.3417   55.4396   61.6771 C   0  0  0  0  0  0  0  0  0  0  0  0
  -33.0210   55.4679   61.7046 C   0  0  0  0  0  0  0  0  0  0  0  0
  -32.1472   56.4957   61.0517 C   0  0  0  0  0  0  0  0  0  0  0  0
  -30.6507   56.2455   61.2499 C   0  0  0  0  0  0  0  0  0  0  0  0
  -30.2332   56.2197   62.7142 C   0  0  0  0  0  0  0  0  0  0  0  0
  -28.7397   55.9875   62.9134 C   0  0  0  0  0  0  0  0  0  0  0  0
  -28.2972   55.9402   64.3714 C   0  0  0  0  0  0  0  0  0  0  0  0
  -26.8010   55.7247   64.5512 C   0  0  0  0  0  0  0  0  0  0  0  0
  -25.9371   56.8145   63.9367 C   0  0  0  0  0  0  0  0  0  0  0  0
  -26.1523   56.9659   62.4444 C   0  0  0  0  0  0  0  0  0  0  0  0
  -33.3156   69.0988   63.2783 C   0  0  2  0  0  0  0  0  0  0  0  0
  -32.6936   68.8090   64.6382 C   0  0  1  0  0  0  0  0  0  0  0  0
  -32.5875   70.0974   65.4443 C   0  0  2  0  0  0  0  0  0  0  0  0
  -31.8713   71.1807   64.6514 C   0  0  2  0  0  0  0  0  0  0  0  0
  -32.5450   71.3514   63.2921 C   0  0  1  0  0  0  0  0  0  0  0  0
  -31.8289   72.3311   62.3923 C   0  0  0  0  0  0  0  0  0  0  0  0
  -31.4824   70.8551   67.7000 S   0  0  0  0  0  0  0  0  0  0  0  0
  -33.5772   64.5058   61.6821 H   0  0  0  0  0  0  0  0  0  0  0  0
  -31.5648   67.1148   63.2609 H   0  0  0  0  0  0  0  0  0  0  0  0
  -31.4012   68.0473   61.8019 H   0  0  0  0  0  0  0  0  0  0  0  0
  -32.6374   66.3625   60.5752 H   0  0  0  0  0  0  0  0  0  0  0  0
  -29.9008   67.1635   61.0564 H   0  0  0  0  0  0  0  0  0  0  0  0
  -30.3647   65.1308   62.1077 H   0  0  0  0  0  0  0  0  0  0  0  0
  -31.0026   64.2787   59.3473 H   0  0  0  0  0  0  0  0  0  0  0  0
  -33.5430   67.0398   64.8146 H   0  0  0  0  0  0  0  0  0  0  0  0
  -31.1559   62.8529   61.8922 H   0  0  0  0  0  0  0  0  0  0  0  0
  -31.9475   61.0392   60.5631 H   0  0  0  0  0  0  0  0  0  0  0  0
  -30.3867   61.3326   59.8069 H   0  0  0  0  0  0  0  0  0  0  0  0
  -30.0736   70.7251   65.3222 H   0  0  0  0  0  0  0  0  0  0  0  0
  -31.4334   62.7897   58.1780 H   0  0  0  0  0  0  0  0  0  0  0  0
  -33.0061   62.4812   58.9580 H   0  0  0  0  0  0  0  0  0  0  0  0
  -31.3380   60.4507   57.5666 H   0  0  0  0  0  0  0  0  0  0  0  0
  -32.7977   61.2579   56.9365 H   0  0  0  0  0  0  0  0  0  0  0  0
  -31.2687   74.2211   62.3898 H   0  0  0  0  0  0  0  0  0  0  0  0
  -34.1229   60.2511   58.6308 H   0  0  0  0  0  0  0  0  0  0  0  0
  -32.6678   59.4570   59.2816 H   0  0  0  0  0  0  0  0  0  0  0  0
  -31.2382   69.6603   69.2409 H   0  0  0  0  0  0  0  0  0  0  0  0
  -34.0270   57.9183   58.0146 H   0  0  0  0  0  0  0  0  0  0  0  0
  -32.4307   58.2032   57.2840 H   0  0  0  0  0  0  0  0  0  0  0  0
  -34.1602   58.0614   55.6073 H   0  0  0  0  0  0  0  0  0  0  0  0
  -33.3994   59.6676   55.6876 H   0  0  0  0  0  0  0  0  0  0  0  0
  -29.7286   71.2935   66.6845 H   0  0  0  0  0  0  0  0  0  0  0  0
  -35.2811   60.5310   56.8632 H   0  0  0  0  0  0  0  0  0  0  0  0
  -36.0401   58.9208   56.8018 H   0  0  0  0  0  0  0  0  0  0  0  0
  -36.1951   59.0519   54.4339 H   0  0  0  0  0  0  0  0  0  0  0  0
  -35.4183   60.6528   54.4832 H   0  0  0  0  0  0  0  0  0  0  0  0
  -37.2833   61.5530   55.6611 H   0  0  0  0  0  0  0  0  0  0  0  0
  -38.0595   59.9585   55.6427 H   0  0  0  0  0  0  0  0  0  0  0  0
  -37.4146   61.6030   53.2453 H   0  0  0  0  0  0  0  0  0  0  0  0
  -39.0139   61.3896   54.0060 H   0  0  0  0  0  0  0  0  0  0  0  0
  -39.0014   59.0787   53.4565 H   0  0  0  0  0  0  0  0  0  0  0  0
  -37.4004   59.2591   52.7230 H   0  0  0  0  0  0  0  0  0  0  0  0
  -39.8981   60.5912   51.7813 H   0  0  0  0  0  0  0  0  0  0  0  0
  -39.1175   59.1810   51.0506 H   0  0  0  0  0  0  0  0  0  0  0  0
  -37.9239   61.9124   51.2799 H   0  0  0  0  0  0  0  0  0  0  0  0
  -38.5692   61.1930   49.8242 H   0  0  0  0  0  0  0  0  0  0  0  0
  -37.1508   60.5095   50.5818 H   0  0  0  0  0  0  0  0  0  0  0  0
  -34.5088   63.5120   63.2767 H   0  0  0  0  0  0  0  0  0  0  0  0
  -34.7782   64.5319   64.6981 H   0  0  0  0  0  0  0  0  0  0  0  0
  -34.0628   62.3019   65.3311 H   0  0  0  0  0  0  0  0  0  0  0  0
  -32.8870   63.5456   65.7862 H   0  0  0  0  0  0  0  0  0  0  0  0
  -31.5200   62.9742   63.9036 H   0  0  0  0  0  0  0  0  0  0  0  0
  -32.7093   61.7328   63.4411 H   0  0  0  0  0  0  0  0  0  0  0  0
  -31.0827   61.7267   65.9328 H   0  0  0  0  0  0  0  0  0  0  0  0
  -30.8006   60.7546   64.4689 H   0  0  0  0  0  0  0  0  0  0  0  0
  -33.1974   60.5811   66.2260 H   0  0  0  0  0  0  0  0  0  0  0  0
  -31.8193   59.4539   66.1798 H   0  0  0  0  0  0  0  0  0  0  0  0
  -33.7296   58.5681   65.0015 H   0  0  0  0  0  0  0  0  0  0  0  0
  -32.3359   58.8789   63.9388 H   0  0  0  0  0  0  0  0  0  0  0  0
  -33.3666   60.8641   63.1198 H   0  0  0  0  0  0  0  0  0  0  0  0
  -34.7586   60.5633   64.1959 H   0  0  0  0  0  0  0  0  0  0  0  0
  -35.3162   58.5979   62.9778 H   0  0  0  0  0  0  0  0  0  0  0  0
  -33.9169   58.8740   61.9111 H   0  0  0  0  0  0  0  0  0  0  0  0
  -34.9079   60.8771   61.0806 H   0  0  0  0  0  0  0  0  0  0  0  0
  -36.3051   60.6114   62.1605 H   0  0  0  0  0  0  0  0  0  0  0  0
  -36.8286   60.0416   59.8714 H   0  0  0  0  0  0  0  0  0  0  0  0
  -36.8854   58.6464   60.9702 H   0  0  0  0  0  0  0  0  0  0  0  0
  -34.6641   59.2801   59.0840 H   0  0  0  0  0  0  0  0  0  0  0  0
  -35.9372   58.0399   58.8800 H   0  0  0  0  0  0  0  0  0  0  0  0
  -33.8514   58.0403   60.9991 H   0  0  0  0  0  0  0  0  0  0  0  0
  -33.8783   57.0544   59.5078 H   0  0  0  0  0  0  0  0  0  0  0  0
  -35.8246   55.9077   60.2606 H   0  0  0  0  0  0  0  0  0  0  0  0
  -35.8401   56.8943   61.7328 H   0  0  0  0  0  0  0  0  0  0  0  0
  -34.8035   54.6650   62.1788 H   0  0  0  0  0  0  0  0  0  0  0  0
  -32.5472   54.7123   62.2238 H   0  0  0  0  0  0  0  0  0  0  0  0
  -32.3871   57.4538   61.4633 H   0  0  0  0  0  0  0  0  0  0  0  0
  -32.3365   56.4446   59.9998 H   0  0  0  0  0  0  0  0  0  0  0  0
  -30.1078   57.0239   60.7556 H   0  0  0  0  0  0  0  0  0  0  0  0
  -30.4338   55.2806   60.8413 H   0  0  0  0  0  0  0  0  0  0  0  0
  -30.7673   55.4333   63.2054 H   0  0  0  0  0  0  0  0  0  0  0  0
  -30.4613   57.1810   63.1249 H   0  0  0  0  0  0  0  0  0  0  0  0
  -28.2104   56.7812   62.4289 H   0  0  0  0  0  0  0  0  0  0  0  0
  -28.5227   55.0257   62.4978 H   0  0  0  0  0  0  0  0  0  0  0  0
  -28.8143   55.1382   64.8554 H   0  0  0  0  0  0  0  0  0  0  0  0
  -28.5290   56.8932   64.7992 H   0  0  0  0  0  0  0  0  0  0  0  0
  -26.5391   54.7922   64.0964 H   0  0  0  0  0  0  0  0  0  0  0  0
  -26.6122   55.7393   65.6043 H   0  0  0  0  0  0  0  0  0  0  0  0
  -24.9091   56.5741   64.1107 H   0  0  0  0  0  0  0  0  0  0  0  0
  -26.2127   57.7405   64.3965 H   0  0  0  0  0  0  0  0  0  0  0  0
  -25.8854   56.0546   61.9513 H   0  0  0  0  0  0  0  0  0  0  0  0
  -25.5418   57.7633   62.0751 H   0  0  0  0  0  0  0  0  0  0  0  0
  -27.1816   57.1868   62.2531 H   0  0  0  0  0  0  0  0  0  0  0  0
  -34.3149   69.4618   63.3994 H   0  0  0  0  0  0  0  0  0  0  0  0
  -31.7117   68.4079   64.4976 H   0  0  0  0  0  0  0  0  0  0  0  0
  -33.5521   70.4836   65.6995 H   0  0  0  0  0  0  0  0  0  0  0  0
  -31.9240   72.0982   65.1994 H   0  0  0  0  0  0  0  0  0  0  0  0
  -33.5275   71.7227   63.4965 H   0  0  0  0  0  0  0  0  0  0  0  0
  -30.8430   71.9650   62.1951 H   0  0  0  0  0  0  0  0  0  0  0  0
  -32.3898   72.4251   61.4860 H   0  0  0  0  0  0  0  0  0  0  0  0
  1  4  1  0  0  0  0
  1 31  1  0  0  0  0
  1 62  1  0  0  0  0
  2  3  1  0  0  0  0
  2  4  1  0  0  0  0
  2 63  1  0  0  0  0
  2 64  1  0  0  0  0
  3 55  1  0  0  0  0
  4  6  1  0  0  0  0
  4 65  1  6  0  0  0
  5  6  1  0  0  0  0
  5 66  1  0  0  0  0
  6  8  1  0  0  0  0
  6 67  1  1  0  0  0
  7 31  2  0  0  0  0
  8 10  2  0  0  0  0
  8 68  1  0  0  0  0
  9 56  1  0  0  0  0
  9 69  1  0  0  0  0
 10 12  1  0  0  0  0
 10 70  1  0  0  0  0
 11 57  1  0  0  0  0
 11 61  1  0  0  0  0
 12 14  1  0  0  0  0
 12 71  1  0  0  0  0
 12 72  1  0  0  0  0
 13 58  1  0  0  0  0
 13 73  1  0  0  0  0
 14 16  1  0  0  0  0
 14 74  1  0  0  0  0
 14 75  1  0  0  0  0
 15 55  1  0  0  0  0
 15 59  1  0  0  0  0
 16 18  1  0  0  0  0
 16 76  1  0  0  0  0
 16 77  1  0  0  0  0
 17 60  1  0  0  0  0
 17 78  1  0  0  0  0
 18 20  1  0  0  0  0
 18 79  1  0  0  0  0
 18 80  1  0  0  0  0
 19 61  1  0  0  0  0
 19 81  1  0  0  0  0
 20 22  1  0  0  0  0
 20 82  1  0  0  0  0
 20 83  1  0  0  0  0
 21 61  1  0  0  0  0
 22 24  1  0  0  0  0
 22 84  1  0  0  0  0
 22 85  1  0  0  0  0
 23 61  1  0  0  0  0
 23 86  1  0  0  0  0
 24 25  1  0  0  0  0
 24 87  1  0  0  0  0
 24 88  1  0  0  0  0
 25 26  1  0  0  0  0
 25 89  1  0  0  0  0
 25 90  1  0  0  0  0
 26 27  1  0  0  0  0
 26 91  1  0  0  0  0
 26 92  1  0  0  0  0
 27 28  1  0  0  0  0
 27 93  1  0  0  0  0
 27 94  1  0  0  0  0
 28 29  1  0  0  0  0
 28 95  1  0  0  0  0
 28 96  1  0  0  0  0
 29 30  1  0  0  0  0
 29 97  1  0  0  0  0
 29 98  1  0  0  0  0
 30 99  1  0  0  0  0
 30100  1  0  0  0  0
 30101  1  0  0  0  0
 31 32  1  0  0  0  0
 32 33  1  0  0  0  0
 32102  1  0  0  0  0
 32103  1  0  0  0  0
 33 34  1  0  0  0  0
 33104  1  0  0  0  0
 33105  1  0  0  0  0
 34 35  1  0  0  0  0
 34106  1  0  0  0  0
 34107  1  0  0  0  0
 35 36  1  0  0  0  0
 35108  1  0  0  0  0
 35109  1  0  0  0  0
 36 37  1  0  0  0  0
 36110  1  0  0  0  0
 36111  1  0  0  0  0
 37 38  1  0  0  0  0
 37112  1  0  0  0  0
 37113  1  0  0  0  0
 38 39  1  0  0  0  0
 38114  1  0  0  0  0
 38115  1  0  0  0  0
 39 40  1  0  0  0  0
 39116  1  0  0  0  0
 39117  1  0  0  0  0
 40 41  1  0  0  0  0
 40118  1  0  0  0  0
 40119  1  0  0  0  0
 41 42  1  0  0  0  0
 41120  1  0  0  0  0
 41121  1  0  0  0  0
 42 43  1  0  0  0  0
 42122  1  0  0  0  0
 42123  1  0  0  0  0
 43 44  1  0  0  0  0
 43124  1  0  0  0  0
 43125  1  0  0  0  0
 44 45  1  0  0  0  0
 44126  1  0  0  0  0
 44127  1  0  0  0  0
 45 46  2  0  0  0  0
 45128  1  0  0  0  0
 46 47  1  0  0  0  0
 46129  1  0  0  0  0
 47 48  1  0  0  0  0
 47130  1  0  0  0  0
 47131  1  0  0  0  0
 48 49  1  0  0  0  0
 48132  1  0  0  0  0
 48133  1  0  0  0  0
 49 50  1  0  0  0  0
 49134  1  0  0  0  0
 49135  1  0  0  0  0
 50 51  1  0  0  0  0
 50136  1  0  0  0  0
 50137  1  0  0  0  0
 51 52  1  0  0  0  0
 51138  1  0  0  0  0
 51139  1  0  0  0  0
 52 53  1  0  0  0  0
 52140  1  0  0  0  0
 52141  1  0  0  0  0
 53 54  1  0  0  0  0
 53142  1  0  0  0  0
 53143  1  0  0  0  0
 54144  1  0  0  0  0
 54145  1  0  0  0  0
 54146  1  0  0  0  0
 55 56  1  0  0  0  0
 55147  1  1  0  0  0
 56 57  1  0  0  0  0
 56148  1  6  0  0  0
 57 58  1  0  0  0  0
 57149  1  1  0  0  0
 58 59  1  0  0  0  0
 58150  1  1  0  0  0
 59 60  1  0  0  0  0
 59151  1  1  0  0  0
 60152  1  0  0  0  0
 60153  1  0  0  0  0
M  CHG  1  21  -1
M  END
$$$$
/media/chris/experiments/cd1a-new-docking/inputs/ligands/7ryn_ligand.pdb
 OpenBabel07032312553D

153153  0  0  1  0  0  0  0  0999 V2000
  -33.0340   65.1330   62.2120 N   0  0  0  0  0  0  0  0  0  0  0  0
  -32.0220   67.3480   62.3220 C   0  0  0  0  0  0  0  0  0  0  0  0
  -33.3204   67.9104   62.5424 O   0  0  0  0  0  0  0  0  0  0  0  0
  -32.1830   66.0840   61.5030 C   0  0  1  0  0  0  0  0  0  0  0  0
  -29.9992   66.3678   60.5104 O   0  0  0  0  0  0  0  0  0  0  0  0
  -30.8310   65.4230   61.1900 C   0  0  2  0  0  0  0  0  0  0  0  0
  -31.7322   64.9724   64.0416 O   0  0  0  0  0  0  0  0  0  0  0  0
  -31.0055   64.1786   60.3744 C   0  0  0  0  0  0  0  0  0  0  0  0
  -35.3151   69.8361   62.1498 O   0  0  0  0  0  0  0  0  0  0  0  0
  -30.2096   63.1284   60.4144 C   0  0  0  0  0  0  0  0  0  0  0  0
  -36.2332   71.0293   64.5551 O   0  0  0  0  0  0  0  0  0  0  0  0
  -30.4192   61.8950   59.5986 C   0  0  0  0  0  0  0  0  0  0  0  0
  -34.7894   69.6393   66.4168 O   0  0  0  0  0  0  0  0  0  0  0  0
  -29.6983   61.9963   58.2528 C   0  0  0  0  0  0  0  0  0  0  0  0
  -32.7334   68.8853   64.5507 O   0  0  0  0  0  0  0  0  0  0  0  0
  -29.8789   60.7821   57.3563 C   0  0  0  0  0  0  0  0  0  0  0  0
  -31.8166   70.8306   67.4934 O   0  0  0  0  0  0  0  0  0  0  0  0
  -29.3880   59.4789   57.9632 C   0  0  0  0  0  0  0  0  0  0  0  0
  -38.0793   72.2327   65.5303 O   0  0  0  0  0  0  0  0  0  0  0  0
  -27.9100   59.4832   58.3256 C   0  0  0  0  0  0  0  0  0  0  0  0
  -35.9141   73.4042   65.0253 O   0  5  0  0  0  0  0  0  0  0  0  0
  -26.9917   59.7458   57.1420 C   0  0  0  0  0  0  0  0  0  0  0  0
  -36.1043   71.8317   66.7937 O   0  0  0  0  0  0  0  0  0  0  0  0
  -27.1305   58.7292   56.0225 C   0  0  0  0  0  0  0  0  0  0  0  0
  -26.2050   58.9755   54.8455 C   0  0  0  0  0  0  0  0  0  0  0  0
  -26.3585   57.9666   53.7203 C   0  0  0  0  0  0  0  0  0  0  0  0
  -27.7513   57.9562   53.1184 C   0  0  0  0  0  0  0  0  0  0  0  0
  -28.1774   59.2753   52.5029 C   0  0  0  0  0  0  0  0  0  0  0  0
  -27.2718   59.7072   51.3662 C   0  0  0  0  0  0  0  0  0  0  0  0
  -27.2558   58.7100   50.2261 C   0  0  0  0  0  0  0  0  0  0  0  0
  -32.7434   64.6519   63.4237 C   0  0  0  0  0  0  0  0  0  0  0  0
  -33.7473   63.6846   63.9996 C   0  0  0  0  0  0  0  0  0  0  0  0
  -33.4387   62.2372   63.6383 C   0  0  0  0  0  0  0  0  0  0  0  0
  -34.4586   61.2614   64.2031 C   0  0  0  0  0  0  0  0  0  0  0  0
  -35.8752   61.4936   63.7046 C   0  0  0  0  0  0  0  0  0  0  0  0
  -36.0265   61.3599   62.1967 C   0  0  0  0  0  0  0  0  0  0  0  0
  -35.6633   59.9824   61.6571 C   0  0  0  0  0  0  0  0  0  0  0  0
  -35.7995   59.8565   60.1452 C   0  0  0  0  0  0  0  0  0  0  0  0
  -34.9100   60.8068   59.3475 C   0  0  0  0  0  0  0  0  0  0  0  0
  -35.1599   62.2854   59.6399 C   0  0  0  0  0  0  0  0  0  0  0  0
  -34.2883   63.2501   58.8361 C   0  0  0  0  0  0  0  0  0  0  0  0
  -34.5481   64.7210   59.1617 C   0  0  0  0  0  0  0  0  0  0  0  0
  -35.9812   65.1943   58.9189 C   0  0  0  0  0  0  0  0  0  0  0  0
  -36.4753   65.0423   57.4778 C   0  0  0  0  0  0  0  0  0  0  0  0
  -35.6362   65.8008   56.4905 C   0  0  0  0  0  0  0  0  0  0  0  0
  -36.0575   66.3308   55.3558 C   0  0  0  0  0  0  0  0  0  0  0  0
  -37.4593   66.2839   54.8275 C   0  0  0  0  0  0  0  0  0  0  0  0
  -37.5405   66.2872   53.2995 C   0  0  0  0  0  0  0  0  0  0  0  0
  -38.9690   66.2565   52.7725 C   0  0  0  0  0  0  0  0  0  0  0  0
  -39.0519   66.2425   51.2502 C   0  0  0  0  0  0  0  0  0  0  0  0
  -40.4718   66.2289   50.6955 C   0  0  0  0  0  0  0  0  0  0  0  0
  -41.2982   67.4426   51.0967 C   0  0  0  0  0  0  0  0  0  0  0  0
  -40.7272   68.7691   50.6212 C   0  0  0  0  0  0  0  0  0  0  0  0
  -40.6238   68.8592   49.1122 C   0  0  0  0  0  0  0  0  0  0  0  0
  -33.3156   69.0988   63.2783 C   0  0  2  0  0  0  0  0  0  0  0  0
  -34.7576   69.5657   63.4297 C   0  0  1  0  0  0  0  0  0  0  0  0
  -34.8089   70.8140   64.3015 C   0  0  2  0  0  0  0  0  0  0  0  0
  -34.0866   70.5888   65.6217 C   0  0  2  0  0  0  0  0  0  0  0  0
  -32.6741   70.0760   65.3523 C   0  0  1  0  0  0  0  0  0  0  0  0
  -31.9211   69.7182   66.6122 C   0  0  0  0  0  0  0  0  0  0  0  0
  -36.6672   72.2789   65.4347 S   0  0  0  0  0  0  0  0  0  0  0  0
  -33.8632   64.8313   61.7754 H   0  0  0  0  0  0  0  0  0  0  0  0
  -31.5648   67.1148   63.2609 H   0  0  0  0  0  0  0  0  0  0  0  0
  -31.4012   68.0473   61.8019 H   0  0  0  0  0  0  0  0  0  0  0  0
  -32.6374   66.3625   60.5752 H   0  0  0  0  0  0  0  0  0  0  0  0
  -29.9008   67.1635   61.0564 H   0  0  0  0  0  0  0  0  0  0  0  0
  -30.3647   65.1308   62.1077 H   0  0  0  0  0  0  0  0  0  0  0  0
  -31.8115   64.1406   59.7311 H   0  0  0  0  0  0  0  0  0  0  0  0
  -35.2768   69.0347   61.6046 H   0  0  0  0  0  0  0  0  0  0  0  0
  -29.3943   63.1604   61.0462 H   0  0  0  0  0  0  0  0  0  0  0  0
  -31.4669   61.7644   59.4250 H   0  0  0  0  0  0  0  0  0  0  0  0
  -30.0204   61.0600   60.1360 H   0  0  0  0  0  0  0  0  0  0  0  0
  -35.6873   69.9632   66.5891 H   0  0  0  0  0  0  0  0  0  0  0  0
  -28.6525   62.1220   58.4409 H   0  0  0  0  0  0  0  0  0  0  0  0
  -30.1292   62.8277   57.7350 H   0  0  0  0  0  0  0  0  0  0  0  0
  -29.3397   60.9529   56.4480 H   0  0  0  0  0  0  0  0  0  0  0  0
  -30.9315   60.6702   57.2000 H   0  0  0  0  0  0  0  0  0  0  0  0
  -31.3292   70.5677   68.2897 H   0  0  0  0  0  0  0  0  0  0  0  0
  -29.5591   58.6933   57.2572 H   0  0  0  0  0  0  0  0  0  0  0  0
  -29.9300   59.3384   58.8751 H   0  0  0  0  0  0  0  0  0  0  0  0
  -38.4697   72.5099   64.6867 H   0  0  0  0  0  0  0  0  0  0  0  0
  -27.6612   58.5290   58.7411 H   0  0  0  0  0  0  0  0  0  0  0  0
  -27.7606   60.2825   59.0211 H   0  0  0  0  0  0  0  0  0  0  0  0
  -25.9798   59.7291   57.4896 H   0  0  0  0  0  0  0  0  0  0  0  0
  -27.2692   60.6963   56.7366 H   0  0  0  0  0  0  0  0  0  0  0  0
  -36.5974   71.0582   67.1092 H   0  0  0  0  0  0  0  0  0  0  0  0
  -28.1397   58.7551   55.6679 H   0  0  0  0  0  0  0  0  0  0  0  0
  -26.8618   57.7784   56.4333 H   0  0  0  0  0  0  0  0  0  0  0  0
  -25.1952   58.9370   55.1972 H   0  0  0  0  0  0  0  0  0  0  0  0
  -26.4633   59.9323   54.4422 H   0  0  0  0  0  0  0  0  0  0  0  0
  -26.1465   56.9912   54.1058 H   0  0  0  0  0  0  0  0  0  0  0  0
  -25.6769   58.2466   52.9445 H   0  0  0  0  0  0  0  0  0  0  0  0
  -28.4481   57.7069   53.8912 H   0  0  0  0  0  0  0  0  0  0  0  0
  -27.7356   57.2394   52.3241 H   0  0  0  0  0  0  0  0  0  0  0  0
  -28.1586   60.0295   53.2616 H   0  0  0  0  0  0  0  0  0  0  0  0
  -29.1607   59.1435   52.1020 H   0  0  0  0  0  0  0  0  0  0  0  0
  -26.2759   59.8140   51.7426 H   0  0  0  0  0  0  0  0  0  0  0  0
  -27.6493   60.6324   50.9835 H   0  0  0  0  0  0  0  0  0  0  0  0
  -26.8819   57.7714   50.5784 H   0  0  0  0  0  0  0  0  0  0  0  0
  -26.6244   59.0741   49.4427 H   0  0  0  0  0  0  0  0  0  0  0  0
  -28.2497   58.5802   49.8518 H   0  0  0  0  0  0  0  0  0  0  0  0
  -34.7176   63.9326   63.6228 H   0  0  0  0  0  0  0  0  0  0  0  0
  -33.7049   63.7691   65.0654 H   0  0  0  0  0  0  0  0  0  0  0  0
  -32.4735   61.9860   64.0258 H   0  0  0  0  0  0  0  0  0  0  0  0
  -33.4702   62.1564   62.5718 H   0  0  0  0  0  0  0  0  0  0  0  0
  -34.4575   61.3526   65.2692 H   0  0  0  0  0  0  0  0  0  0  0  0
  -34.1697   60.2852   63.8738 H   0  0  0  0  0  0  0  0  0  0  0  0
  -36.1744   62.4814   63.9871 H   0  0  0  0  0  0  0  0  0  0  0  0
  -36.4887   60.7369   64.1471 H   0  0  0  0  0  0  0  0  0  0  0  0
  -35.3908   62.0826   61.7294 H   0  0  0  0  0  0  0  0  0  0  0  0
  -37.0614   61.5164   61.9744 H   0  0  0  0  0  0  0  0  0  0  0  0
  -36.3073   59.2607   62.1147 H   0  0  0  0  0  0  0  0  0  0  0  0
  -34.6320   59.8191   61.8909 H   0  0  0  0  0  0  0  0  0  0  0  0
  -36.8181   60.0539   59.8839 H   0  0  0  0  0  0  0  0  0  0  0  0
  -35.4873   58.8645   59.8933 H   0  0  0  0  0  0  0  0  0  0  0  0
  -35.0843   60.6358   58.3058 H   0  0  0  0  0  0  0  0  0  0  0  0
  -33.9004   60.6008   59.6360 H   0  0  0  0  0  0  0  0  0  0  0  0
  -34.9744   62.4558   60.6798 H   0  0  0  0  0  0  0  0  0  0  0  0
  -36.1723   62.4835   59.3557 H   0  0  0  0  0  0  0  0  0  0  0  0
  -34.4814   63.0942   57.7953 H   0  0  0  0  0  0  0  0  0  0  0  0
  -33.2704   63.0451   59.0946 H   0  0  0  0  0  0  0  0  0  0  0  0
  -33.8956   65.3150   58.5564 H   0  0  0  0  0  0  0  0  0  0  0  0
  -34.3715   64.8301   60.2114 H   0  0  0  0  0  0  0  0  0  0  0  0
  -36.0382   66.2298   59.1823 H   0  0  0  0  0  0  0  0  0  0  0  0
  -36.6091   64.5692   59.5188 H   0  0  0  0  0  0  0  0  0  0  0  0
  -37.4805   65.4046   57.4213 H   0  0  0  0  0  0  0  0  0  0  0  0
  -36.4116   64.0049   57.2238 H   0  0  0  0  0  0  0  0  0  0  0  0
  -34.6369   65.9193   56.7194 H   0  0  0  0  0  0  0  0  0  0  0  0
  -35.3564   66.8227   54.7801 H   0  0  0  0  0  0  0  0  0  0  0  0
  -37.9880   67.1381   55.1959 H   0  0  0  0  0  0  0  0  0  0  0  0
  -37.8889   65.3627   55.1618 H   0  0  0  0  0  0  0  0  0  0  0  0
  -37.0236   65.4263   52.9300 H   0  0  0  0  0  0  0  0  0  0  0  0
  -37.0970   67.2000   52.9604 H   0  0  0  0  0  0  0  0  0  0  0  0
  -39.4821   67.1238   53.1322 H   0  0  0  0  0  0  0  0  0  0  0  0
  -39.4154   65.3490   53.1217 H   0  0  0  0  0  0  0  0  0  0  0  0
  -38.5461   65.3688   50.8958 H   0  0  0  0  0  0  0  0  0  0  0  0
  -38.6014   67.1523   50.9121 H   0  0  0  0  0  0  0  0  0  0  0  0
  -40.9660   65.3503   51.0543 H   0  0  0  0  0  0  0  0  0  0  0  0
  -40.3904   66.2453   49.6287 H   0  0  0  0  0  0  0  0  0  0  0  0
  -41.3614   67.4677   52.1645 H   0  0  0  0  0  0  0  0  0  0  0  0
  -42.2538   67.3330   50.6278 H   0  0  0  0  0  0  0  0  0  0  0  0
  -39.7491   68.8889   51.0383 H   0  0  0  0  0  0  0  0  0  0  0  0
  -41.3947   69.5404   50.9441 H   0  0  0  0  0  0  0  0  0  0  0  0
  -39.9612   68.0991   48.7541 H   0  0  0  0  0  0  0  0  0  0  0  0
  -40.2445   69.8213   48.8375 H   0  0  0  0  0  0  0  0  0  0  0  0
  -41.5925   68.7208   48.6794 H   0  0  0  0  0  0  0  0  0  0  0  0
  -32.7377   69.8438   62.7723 H   0  0  0  0  0  0  0  0  0  0  0  0
  -35.3300   68.7932   63.8992 H   0  0  0  0  0  0  0  0  0  0  0  0
  -34.3360   71.6474   63.8253 H   0  0  0  0  0  0  0  0  0  0  0  0
  -34.0399   71.5181   66.1499 H   0  0  0  0  0  0  0  0  0  0  0  0
  -32.1619   70.8745   64.8573 H   0  0  0  0  0  0  0  0  0  0  0  0
  -32.4378   68.9261   67.1126 H   0  0  0  0  0  0  0  0  0  0  0  0
  -30.9325   69.4152   66.3368 H   0  0  0  0  0  0  0  0  0  0  0  0
  1  4  1  0  0  0  0
  1 31  1  0  0  0  0
  1 62  1  0  0  0  0
  2  3  1  0  0  0  0
  2  4  1  0  0  0  0
  2 63  1  0  0  0  0
  2 64  1  0  0  0  0
  3 55  1  0  0  0  0
  4  6  1  0  0  0  0
  4 65  1  6  0  0  0
  5  6  1  0  0  0  0
  5 66  1  0  0  0  0
  6  8  1  0  0  0  0
  6 67  1  1  0  0  0
  7 31  2  0  0  0  0
  8 10  2  0  0  0  0
  8 68  1  0  0  0  0
  9 56  1  0  0  0  0
  9 69  1  0  0  0  0
 10 12  1  0  0  0  0
 10 70  1  0  0  0  0
 11 57  1  0  0  0  0
 11 61  1  0  0  0  0
 12 14  1  0  0  0  0
 12 71  1  0  0  0  0
 12 72  1  0  0  0  0
 13 58  1  0  0  0  0
 13 73  1  0  0  0  0
 14 16  1  0  0  0  0
 14 74  1  0  0  0  0
 14 75  1  0  0  0  0
 15 55  1  0  0  0  0
 15 59  1  0  0  0  0
 16 18  1  0  0  0  0
 16 76  1  0  0  0  0
 16 77  1  0  0  0  0
 17 60  1  0  0  0  0
 17 78  1  0  0  0  0
 18 20  1  0  0  0  0
 18 79  1  0  0  0  0
 18 80  1  0  0  0  0
 19 61  1  0  0  0  0
 19 81  1  0  0  0  0
 20 22  1  0  0  0  0
 20 82  1  0  0  0  0
 20 83  1  0  0  0  0
 21 61  1  0  0  0  0
 22 24  1  0  0  0  0
 22 84  1  0  0  0  0
 22 85  1  0  0  0  0
 23 61  1  0  0  0  0
 23 86  1  0  0  0  0
 24 25  1  0  0  0  0
 24 87  1  0  0  0  0
 24 88  1  0  0  0  0
 25 26  1  0  0  0  0
 25 89  1  0  0  0  0
 25 90  1  0  0  0  0
 26 27  1  0  0  0  0
 26 91  1  0  0  0  0
 26 92  1  0  0  0  0
 27 28  1  0  0  0  0
 27 93  1  0  0  0  0
 27 94  1  0  0  0  0
 28 29  1  0  0  0  0
 28 95  1  0  0  0  0
 28 96  1  0  0  0  0
 29 30  1  0  0  0  0
 29 97  1  0  0  0  0
 29 98  1  0  0  0  0
 30 99  1  0  0  0  0
 30100  1  0  0  0  0
 30101  1  0  0  0  0
 31 32  1  0  0  0  0
 32 33  1  0  0  0  0
 32102  1  0  0  0  0
 32103  1  0  0  0  0
 33 34  1  0  0  0  0
 33104  1  0  0  0  0
 33105  1  0  0  0  0
 34 35  1  0  0  0  0
 34106  1  0  0  0  0
 34107  1  0  0  0  0
 35 36  1  0  0  0  0
 35108  1  0  0  0  0
 35109  1  0  0  0  0
 36 37  1  0  0  0  0
 36110  1  0  0  0  0
 36111  1  0  0  0  0
 37 38  1  0  0  0  0
 37112  1  0  0  0  0
 37113  1  0  0  0  0
 38 39  1  0  0  0  0
 38114  1  0  0  0  0
 38115  1  0  0  0  0
 39 40  1  0  0  0  0
 39116  1  0  0  0  0
 39117  1  0  0  0  0
 40 41  1  0  0  0  0
 40118  1  0  0  0  0
 40119  1  0  0  0  0
 41 42  1  0  0  0  0
 41120  1  0  0  0  0
 41121  1  0  0  0  0
 42 43  1  0  0  0  0
 42122  1  0  0  0  0
 42123  1  0  0  0  0
 43 44  1  0  0  0  0
 43124  1  0  0  0  0
 43125  1  0  0  0  0
 44 45  1  0  0  0  0
 44126  1  0  0  0  0
 44127  1  0  0  0  0
 45 46  2  0  0  0  0
 45128  1  0  0  0  0
 46 47  1  0  0  0  0
 46129  1  0  0  0  0
 47 48  1  0  0  0  0
 47130  1  0  0  0  0
 47131  1  0  0  0  0
 48 49  1  0  0  0  0
 48132  1  0  0  0  0
 48133  1  0  0  0  0
 49 50  1  0  0  0  0
 49134  1  0  0  0  0
 49135  1  0  0  0  0
 50 51  1  0  0  0  0
 50136  1  0  0  0  0
 50137  1  0  0  0  0
 51 52  1  0  0  0  0
 51138  1  0  0  0  0
 51139  1  0  0  0  0
 52 53  1  0  0  0  0
 52140  1  0  0  0  0
 52141  1  0  0  0  0
 53 54  1  0  0  0  0
 53142  1  0  0  0  0
 53143  1  0  0  0  0
 54144  1  0  0  0  0
 54145  1  0  0  0  0
 54146  1  0  0  0  0
 55 56  1  0  0  0  0
 55147  1  6  0  0  0
 56 57  1  0  0  0  0
 56148  1  1  0  0  0
 57 58  1  0  0  0  0
 57149  1  6  0  0  0
 58 59  1  0  0  0  0
 58150  1  1  0  0  0
 59 60  1  0  0  0  0
 59151  1  6  0  0  0
 60152  1  0  0  0  0
 60153  1  0  0  0  0
M  CHG  1  21  -1
M  END
$$$$
/media/chris/experiments/cd1a-new-docking/inputs/ligands/7ryn_ligand.pdb
 OpenBabel07032312553D

153153  0  0  1  0  0  0  0  0999 V2000
  -33.0340   65.1330   62.2120 N   0  0  0  0  0  0  0  0  0  0  0  0
  -32.0220   67.3480   62.3220 C   0  0  0  0  0  0  0  0  0  0  0  0
  -33.3204   67.9104   62.5424 O   0  0  0  0  0  0  0  0  0  0  0  0
  -32.1830   66.0840   61.5030 C   0  0  1  0  0  0  0  0  0  0  0  0
  -30.2154   65.0225   62.4176 O   0  0  0  0  0  0  0  0  0  0  0  0
  -30.8310   65.4230   61.1900 C   0  0  2  0  0  0  0  0  0  0  0  0
  -34.9746   65.8457   61.3210 O   0  0  0  0  0  0  0  0  0  0  0  0
  -29.9369   66.3439   60.4177 C   0  0  0  0  0  0  0  0  0  0  0  0
  -36.1193   67.8488   62.4832 O   0  0  0  0  0  0  0  0  0  0  0  0
  -29.8817   66.4205   59.1027 C   0  0  0  0  0  0  0  0  0  0  0  0
  -37.2741   70.0030   61.0417 O   0  0  0  0  0  0  0  0  0  0  0  0
  -28.9891   67.3610   58.3614 C   0  0  0  0  0  0  0  0  0  0  0  0
  -35.0443   71.4283   60.3491 O   0  0  0  0  0  0  0  0  0  0  0  0
  -28.7353   68.6333   59.1725 C   0  0  0  0  0  0  0  0  0  0  0  0
  -33.2780   69.1723   60.6099 O   0  0  0  0  0  0  0  0  0  0  0  0
  -27.8463   69.6500   58.4749 C   0  0  0  0  0  0  0  0  0  0  0  0
  -33.5192   70.8595   57.3883 O   0  0  0  0  0  0  0  0  0  0  0  0
  -26.4628   69.1316   58.1214 C   0  0  0  0  0  0  0  0  0  0  0  0
  -39.3056   70.1773   62.3260 O   0  0  0  0  0  0  0  0  0  0  0  0
  -25.5726   70.1598   57.4386 C   0  0  0  0  0  0  0  0  0  0  0  0
  -37.5532   68.4804   62.9303 O   0  5  0  0  0  0  0  0  0  0  0  0
  -25.3046   71.3943   58.2856 C   0  0  0  0  0  0  0  0  0  0  0  0
  -38.8935   68.2577   60.9834 O   0  0  0  0  0  0  0  0  0  0  0  0
  -24.4303   72.4291   57.5994 C   0  0  0  0  0  0  0  0  0  0  0  0
  -24.1449   73.6560   58.4453 C   0  0  0  0  0  0  0  0  0  0  0  0
  -25.3912   74.4111   58.8745 C   0  0  0  0  0  0  0  0  0  0  0  0
  -26.3319   73.5722   59.7194 C   0  0  0  0  0  0  0  0  0  0  0  0
  -27.5955   74.2912   60.1513 C   0  0  0  0  0  0  0  0  0  0  0  0
  -28.4968   73.4224   61.0064 C   0  0  0  0  0  0  0  0  0  0  0  0
  -29.7663   74.1363   61.4227 C   0  0  0  0  0  0  0  0  0  0  0  0
  -34.3610   65.0876   62.0665 C   0  0  0  0  0  0  0  0  0  0  0  0
  -35.0703   64.0312   62.8766 C   0  0  0  0  0  0  0  0  0  0  0  0
  -35.8339   63.0413   62.0062 C   0  0  0  0  0  0  0  0  0  0  0  0
  -36.8908   63.7122   61.1437 C   0  0  0  0  0  0  0  0  0  0  0  0
  -37.6814   62.7473   60.2759 C   0  0  0  0  0  0  0  0  0  0  0  0
  -38.7271   63.4220   59.4008 C   0  0  0  0  0  0  0  0  0  0  0  0
  -39.7740   64.2078   60.1801 C   0  0  0  0  0  0  0  0  0  0  0  0
  -39.1976   65.3448   61.0140 C   0  0  0  0  0  0  0  0  0  0  0  0
  -40.2326   66.1313   61.8144 C   0  0  0  0  0  0  0  0  0  0  0  0
  -41.3152   66.7858   60.9578 C   0  0  0  0  0  0  0  0  0  0  0  0
  -42.3494   67.5913   61.7439 C   0  0  0  0  0  0  0  0  0  0  0  0
  -43.4293   68.2200   60.8630 C   0  0  0  0  0  0  0  0  0  0  0  0
  -44.2727   67.2263   60.0644 C   0  0  0  0  0  0  0  0  0  0  0  0
  -45.0619   66.2238   60.9106 C   0  0  0  0  0  0  0  0  0  0  0  0
  -46.0461   66.8853   61.8316 C   0  0  0  0  0  0  0  0  0  0  0  0
  -46.0601   66.7960   63.1498 C   0  0  0  0  0  0  0  0  0  0  0  0
  -45.0941   66.0183   63.9912 C   0  0  0  0  0  0  0  0  0  0  0  0
  -45.7558   64.9312   64.8409 C   0  0  0  0  0  0  0  0  0  0  0  0
  -44.7686   64.1580   65.7050 C   0  0  0  0  0  0  0  0  0  0  0  0
  -43.6818   63.4544   64.8999 C   0  0  0  0  0  0  0  0  0  0  0  0
  -42.6893   62.6585   65.7397 C   0  0  0  0  0  0  0  0  0  0  0  0
  -41.9392   63.4997   66.7629 C   0  0  0  0  0  0  0  0  0  0  0  0
  -41.1288   64.6363   66.1602 C   0  0  0  0  0  0  0  0  0  0  0  0
  -40.3810   65.4437   67.2018 C   0  0  0  0  0  0  0  0  0  0  0  0
  -34.0138   68.2339   61.3725 C   0  0  2  0  0  0  0  0  0  0  0  0
  -35.3627   68.8190   61.7702 C   0  0  1  0  0  0  0  0  0  0  0  0
  -36.1194   69.2678   60.5264 C   0  0  2  0  0  0  0  0  0  0  0  0
  -35.2668   70.1951   59.6728 C   0  0  2  0  0  0  0  0  0  0  0  0
  -33.9243   69.5307   59.3780 C   0  0  1  0  0  0  0  0  0  0  0  0
  -32.9686   70.4285   58.6276 C   0  0  0  0  0  0  0  0  0  0  0  0
  -38.2920   69.2449   61.9971 S   0  0  0  0  0  0  0  0  0  0  0  0
  -32.6087   64.4935   62.8279 H   0  0  0  0  0  0  0  0  0  0  0  0
  -31.5648   67.1148   63.2609 H   0  0  0  0  0  0  0  0  0  0  0  0
  -31.4012   68.0473   61.8019 H   0  0  0  0  0  0  0  0  0  0  0  0
  -32.6374   66.3625   60.5752 H   0  0  0  0  0  0  0  0  0  0  0  0
  -30.8116   64.4280   62.8994 H   0  0  0  0  0  0  0  0  0  0  0  0
  -30.9971   64.5628   60.5757 H   0  0  0  0  0  0  0  0  0  0  0  0
  -29.3156   66.9669   60.9570 H   0  0  0  0  0  0  0  0  0  0  0  0
  -35.6277   67.5712   63.2720 H   0  0  0  0  0  0  0  0  0  0  0  0
  -30.4908   65.7941   58.5535 H   0  0  0  0  0  0  0  0  0  0  0  0
  -29.4524   67.6245   57.4336 H   0  0  0  0  0  0  0  0  0  0  0  0
  -28.0516   66.8751   58.1886 H   0  0  0  0  0  0  0  0  0  0  0  0
  -35.8963   71.8521   60.5374 H   0  0  0  0  0  0  0  0  0  0  0  0
  -28.2684   68.3559   60.0945 H   0  0  0  0  0  0  0  0  0  0  0  0
  -29.6864   69.1025   59.3142 H   0  0  0  0  0  0  0  0  0  0  0  0
  -27.7325   70.4951   59.1212 H   0  0  0  0  0  0  0  0  0  0  0  0
  -28.3272   69.8950   57.5510 H   0  0  0  0  0  0  0  0  0  0  0  0
  -32.8823   71.4323   56.9333 H   0  0  0  0  0  0  0  0  0  0  0  0
  -26.5748   68.2944   57.4646 H   0  0  0  0  0  0  0  0  0  0  0  0
  -25.9849   68.8713   59.0427 H   0  0  0  0  0  0  0  0  0  0  0  0
  -38.9597   70.8184   62.9666 H   0  0  0  0  0  0  0  0  0  0  0  0
  -26.0481   70.4691   56.5314 H   0  0  0  0  0  0  0  0  0  0  0  0
  -24.6278   69.6889   57.2639 H   0  0  0  0  0  0  0  0  0  0  0  0
  -24.8181   71.0858   59.1873 H   0  0  0  0  0  0  0  0  0  0  0  0
  -26.2512   71.8580   58.4696 H   0  0  0  0  0  0  0  0  0  0  0  0
  -39.4101   68.7464   60.3236 H   0  0  0  0  0  0  0  0  0  0  0  0
  -24.9233   72.7453   56.7039 H   0  0  0  0  0  0  0  0  0  0  0  0
  -23.4881   71.9597   57.4079 H   0  0  0  0  0  0  0  0  0  0  0  0
  -23.5273   74.3203   57.8777 H   0  0  0  0  0  0  0  0  0  0  0  0
  -23.6665   73.3129   59.3387 H   0  0  0  0  0  0  0  0  0  0  0  0
  -25.9145   74.7315   57.9979 H   0  0  0  0  0  0  0  0  0  0  0  0
  -25.0734   75.2378   59.4749 H   0  0  0  0  0  0  0  0  0  0  0  0
  -25.8061   73.2624   60.5983 H   0  0  0  0  0  0  0  0  0  0  0  0
  -26.6417   72.7508   59.1076 H   0  0  0  0  0  0  0  0  0  0  0  0
  -28.1358   74.5897   59.2773 H   0  0  0  0  0  0  0  0  0  0  0  0
  -27.3031   75.1346   60.7413 H   0  0  0  0  0  0  0  0  0  0  0  0
  -27.9610   73.1341   61.8866 H   0  0  0  0  0  0  0  0  0  0  0  0
  -28.7790   72.5722   60.4213 H   0  0  0  0  0  0  0  0  0  0  0  0
  -29.5164   74.9942   62.0113 H   0  0  0  0  0  0  0  0  0  0  0  0
  -30.3757   73.4729   62.0000 H   0  0  0  0  0  0  0  0  0  0  0  0
  -30.3035   74.4462   60.5507 H   0  0  0  0  0  0  0  0  0  0  0  0
  -35.7619   64.5121   63.5364 H   0  0  0  0  0  0  0  0  0  0  0  0
  -34.3269   63.4826   63.4163 H   0  0  0  0  0  0  0  0  0  0  0  0
  -36.3137   62.3262   62.6413 H   0  0  0  0  0  0  0  0  0  0  0  0
  -35.1281   62.5766   61.3498 H   0  0  0  0  0  0  0  0  0  0  0  0
  -36.4047   64.4193   60.5044 H   0  0  0  0  0  0  0  0  0  0  0  0
  -37.5889   64.1733   61.8106 H   0  0  0  0  0  0  0  0  0  0  0  0
  -38.1777   62.0478   60.9156 H   0  0  0  0  0  0  0  0  0  0  0  0
  -36.9818   62.2762   59.6175 H   0  0  0  0  0  0  0  0  0  0  0  0
  -39.2279   62.6667   58.8319 H   0  0  0  0  0  0  0  0  0  0  0  0
  -38.2075   64.1256   58.7845 H   0  0  0  0  0  0  0  0  0  0  0  0
  -40.2824   63.5327   60.8365 H   0  0  0  0  0  0  0  0  0  0  0  0
  -40.4290   64.6518   59.4599 H   0  0  0  0  0  0  0  0  0  0  0  0
  -38.6992   66.0237   60.3541 H   0  0  0  0  0  0  0  0  0  0  0  0
  -38.5392   64.8950   61.7275 H   0  0  0  0  0  0  0  0  0  0  0  0
  -39.7240   66.8996   62.3586 H   0  0  0  0  0  0  0  0  0  0  0  0
  -40.7263   65.4304   62.4546 H   0  0  0  0  0  0  0  0  0  0  0  0
  -41.8292   66.0145   60.4232 H   0  0  0  0  0  0  0  0  0  0  0  0
  -40.8148   67.4803   60.3157 H   0  0  0  0  0  0  0  0  0  0  0  0
  -41.8421   68.3738   62.2685 H   0  0  0  0  0  0  0  0  0  0  0  0
  -42.8408   66.9107   62.4075 H   0  0  0  0  0  0  0  0  0  0  0  0
  -42.9498   68.8799   60.1705 H   0  0  0  0  0  0  0  0  0  0  0  0
  -44.1041   68.7179   61.5276 H   0  0  0  0  0  0  0  0  0  0  0  0
  -43.6178   66.6758   59.4218 H   0  0  0  0  0  0  0  0  0  0  0  0
  -44.9977   67.8071   59.5335 H   0  0  0  0  0  0  0  0  0  0  0  0
  -44.3721   65.6557   61.4990 H   0  0  0  0  0  0  0  0  0  0  0  0
  -45.6172   65.6030   60.2389 H   0  0  0  0  0  0  0  0  0  0  0  0
  -46.7802   67.4638   61.3941 H   0  0  0  0  0  0  0  0  0  0  0  0
  -46.8054   67.3093   63.6459 H   0  0  0  0  0  0  0  0  0  0  0  0
  -44.5915   66.6995   64.6457 H   0  0  0  0  0  0  0  0  0  0  0  0
  -44.4215   65.5253   63.3208 H   0  0  0  0  0  0  0  0  0  0  0  0
  -46.2477   64.2416   64.1871 H   0  0  0  0  0  0  0  0  0  0  0  0
  -46.4414   65.4190   65.5019 H   0  0  0  0  0  0  0  0  0  0  0  0
  -45.3093   63.4212   66.2614 H   0  0  0  0  0  0  0  0  0  0  0  0
  -44.2816   64.8677   66.3407 H   0  0  0  0  0  0  0  0  0  0  0  0
  -43.1379   64.1960   64.3529 H   0  0  0  0  0  0  0  0  0  0  0  0
  -44.1795   62.7496   64.2670 H   0  0  0  0  0  0  0  0  0  0  0  0
  -41.9744   62.2097   65.0823 H   0  0  0  0  0  0  0  0  0  0  0  0
  -43.2543   61.9326   66.2862 H   0  0  0  0  0  0  0  0  0  0  0  0
  -41.2712   62.8588   67.2995 H   0  0  0  0  0  0  0  0  0  0  0  0
  -42.6780   63.9489   67.3933 H   0  0  0  0  0  0  0  0  0  0  0  0
  -41.7944   65.2892   65.6352 H   0  0  0  0  0  0  0  0  0  0  0  0
  -40.4010   64.2011   65.5077 H   0  0  0  0  0  0  0  0  0  0  0  0
  -41.0810   65.8947   67.8736 H   0  0  0  0  0  0  0  0  0  0  0  0
  -39.8085   66.2072   66.7177 H   0  0  0  0  0  0  0  0  0  0  0  0
  -39.7253   64.7994   67.7494 H   0  0  0  0  0  0  0  0  0  0  0  0
  -34.1535   67.3589   60.7727 H   0  0  0  0  0  0  0  0  0  0  0  0
  -35.2053   69.6672   62.4032 H   0  0  0  0  0  0  0  0  0  0  0  0
  -36.3912   68.4373   59.9090 H   0  0  0  0  0  0  0  0  0  0  0  0
  -35.7838   70.3893   58.7563 H   0  0  0  0  0  0  0  0  0  0  0  0
  -34.1465   68.6773   58.7719 H   0  0  0  0  0  0  0  0  0  0  0  0
  -32.7534   71.2867   59.2293 H   0  0  0  0  0  0  0  0  0  0  0  0
  -32.0777   69.8724   58.4228 H   0  0  0  0  0  0  0  0  0  0  0  0
  1  4  1  0  0  0  0
  1 31  1  0  0  0  0
  1 62  1  0  0  0  0
  2  3  1  0  0  0  0
  2  4  1  0  0  0  0
  2 63  1  0  0  0  0
  2 64  1  0  0  0  0
  3 55  1  0  0  0  0
  4  6  1  0  0  0  0
  4 65  1  6  0  0  0
  5  6  1  0  0  0  0
  5 66  1  0  0  0  0
  6  8  1  0  0  0  0
  6 67  1  6  0  0  0
  7 31  2  0  0  0  0
  8 10  2  0  0  0  0
  8 68  1  0  0  0  0
  9 56  1  0  0  0  0
  9 69  1  0  0  0  0
 10 12  1  0  0  0  0
 10 70  1  0  0  0  0
 11 57  1  0  0  0  0
 11 61  1  0  0  0  0
 12 14  1  0  0  0  0
 12 71  1  0  0  0  0
 12 72  1  0  0  0  0
 13 58  1  0  0  0  0
 13 73  1  0  0  0  0
 14 16  1  0  0  0  0
 14 74  1  0  0  0  0
 14 75  1  0  0  0  0
 15 55  1  0  0  0  0
 15 59  1  0  0  0  0
 16 18  1  0  0  0  0
 16 76  1  0  0  0  0
 16 77  1  0  0  0  0
 17 60  1  0  0  0  0
 17 78  1  0  0  0  0
 18 20  1  0  0  0  0
 18 79  1  0  0  0  0
 18 80  1  0  0  0  0
 19 61  1  0  0  0  0
 19 81  1  0  0  0  0
 20 22  1  0  0  0  0
 20 82  1  0  0  0  0
 20 83  1  0  0  0  0
 21 61  1  0  0  0  0
 22 24  1  0  0  0  0
 22 84  1  0  0  0  0
 22 85  1  0  0  0  0
 23 61  1  0  0  0  0
 23 86  1  0  0  0  0
 24 25  1  0  0  0  0
 24 87  1  0  0  0  0
 24 88  1  0  0  0  0
 25 26  1  0  0  0  0
 25 89  1  0  0  0  0
 25 90  1  0  0  0  0
 26 27  1  0  0  0  0
 26 91  1  0  0  0  0
 26 92  1  0  0  0  0
 27 28  1  0  0  0  0
 27 93  1  0  0  0  0
 27 94  1  0  0  0  0
 28 29  1  0  0  0  0
 28 95  1  0  0  0  0
 28 96  1  0  0  0  0
 29 30  1  0  0  0  0
 29 97  1  0  0  0  0
 29 98  1  0  0  0  0
 30 99  1  0  0  0  0
 30100  1  0  0  0  0
 30101  1  0  0  0  0
 31 32  1  0  0  0  0
 32 33  1  0  0  0  0
 32102  1  0  0  0  0
 32103  1  0  0  0  0
 33 34  1  0  0  0  0
 33104  1  0  0  0  0
 33105  1  0  0  0  0
 34 35  1  0  0  0  0
 34106  1  0  0  0  0
 34107  1  0  0  0  0
 35 36  1  0  0  0  0
 35108  1  0  0  0  0
 35109  1  0  0  0  0
 36 37  1  0  0  0  0
 36110  1  0  0  0  0
 36111  1  0  0  0  0
 37 38  1  0  0  0  0
 37112  1  0  0  0  0
 37113  1  0  0  0  0
 38 39  1  0  0  0  0
 38114  1  0  0  0  0
 38115  1  0  0  0  0
 39 40  1  0  0  0  0
 39116  1  0  0  0  0
 39117  1  0  0  0  0
 40 41  1  0  0  0  0
 40118  1  0  0  0  0
 40119  1  0  0  0  0
 41 42  1  0  0  0  0
 41120  1  0  0  0  0
 41121  1  0  0  0  0
 42 43  1  0  0  0  0
 42122  1  0  0  0  0
 42123  1  0  0  0  0
 43 44  1  0  0  0  0
 43124  1  0  0  0  0
 43125  1  0  0  0  0
 44 45  1  0  0  0  0
 44126  1  0  0  0  0
 44127  1  0  0  0  0
 45 46  2  0  0  0  0
 45128  1  0  0  0  0
 46 47  1  0  0  0  0
 46129  1  0  0  0  0
 47 48  1  0  0  0  0
 47130  1  0  0  0  0
 47131  1  0  0  0  0
 48 49  1  0  0  0  0
 48132  1  0  0  0  0
 48133  1  0  0  0  0
 49 50  1  0  0  0  0
 49134  1  0  0  0  0
 49135  1  0  0  0  0
 50 51  1  0  0  0  0
 50136  1  0  0  0  0
 50137  1  0  0  0  0
 51 52  1  0  0  0  0
 51138  1  0  0  0  0
 51139  1  0  0  0  0
 52 53  1  0  0  0  0
 52140  1  0  0  0  0
 52141  1  0  0  0  0
 53 54  1  0  0  0  0
 53142  1  0  0  0  0
 53143  1  0  0  0  0
 54144  1  0  0  0  0
 54145  1  0  0  0  0
 54146  1  0  0  0  0
 55 56  1  0  0  0  0
 55147  1  6  0  0  0
 56 57  1  0  0  0  0
 56148  1  1  0  0  0
 57 58  1  0  0  0  0
 57149  1  6  0  0  0
 58 59  1  0  0  0  0
 58150  1  6  0  0  0
 59 60  1  0  0  0  0
 59151  1  6  0  0  0
 60152  1  0  0  0  0
 60153  1  0  0  0  0
M  CHG  1  21  -1
M  END
$$$$
/media/chris/experiments/cd1a-new-docking/inputs/ligands/7ryn_ligand.pdb
 OpenBabel07032312553D

153153  0  0  1  0  0  0  0  0999 V2000
  -33.0340   65.1330   62.2120 N   0  0  0  0  0  0  0  0  0  0  0  0
  -32.0220   67.3480   62.3220 C   0  0  0  0  0  0  0  0  0  0  0  0
  -31.4051   67.0024   63.5673 O   0  0  0  0  0  0  0  0  0  0  0  0
  -32.1830   66.0840   61.5030 C   0  0  1  0  0  0  0  0  0  0  0  0
  -31.0548   64.2805   60.3587 O   0  0  0  0  0  0  0  0  0  0  0  0
  -30.8310   65.4230   61.1900 C   0  0  2  0  0  0  0  0  0  0  0  0
  -34.8544   66.4555   62.2834 O   0  0  0  0  0  0  0  0  0  0  0  0
  -30.1054   65.0399   62.4433 C   0  0  0  0  0  0  0  0  0  0  0  0
  -31.4046   66.6220   66.3415 O   0  0  0  0  0  0  0  0  0  0  0  0
  -30.5529   64.1934   63.3496 C   0  0  0  0  0  0  0  0  0  0  0  0
  -29.4155   68.1261   67.6954 O   0  0  0  0  0  0  0  0  0  0  0  0
  -29.7980   63.8201   64.5831 C   0  0  0  0  0  0  0  0  0  0  0  0
  -28.1411   69.3260   65.5933 O   0  0  0  0  0  0  0  0  0  0  0  0
  -28.2880   63.9001   64.3495 C   0  0  0  0  0  0  0  0  0  0  0  0
  -30.3909   69.0606   63.8198 O   0  0  0  0  0  0  0  0  0  0  0  0
  -27.7809   62.9967   63.2371 C   0  0  0  0  0  0  0  0  0  0  0  0
  -29.1056   72.3918   64.5510 O   0  0  0  0  0  0  0  0  0  0  0  0
  -26.2795   63.0621   63.0149 C   0  0  0  0  0  0  0  0  0  0  0  0
  -29.0352   66.5764   69.5011 O   0  0  0  0  0  0  0  0  0  0  0  0
  -25.7667   64.4498   62.6583 C   0  0  0  0  0  0  0  0  0  0  0  0
  -30.6879   66.0419   67.6849 O   0  5  0  0  0  0  0  0  0  0  0  0
  -24.2654   64.5037   62.4207 C   0  0  0  0  0  0  0  0  0  0  0  0
  -31.1144   67.7162   69.3133 O   0  0  0  0  0  0  0  0  0  0  0  0
  -23.4404   64.0629   63.6170 C   0  0  0  0  0  0  0  0  0  0  0  0
  -23.6966   62.6317   64.0511 C   0  0  0  0  0  0  0  0  0  0  0  0
  -23.3806   61.5988   62.9830 C   0  0  0  0  0  0  0  0  0  0  0  0
  -24.1861   61.7938   61.7120 C   0  0  0  0  0  0  0  0  0  0  0  0
  -23.9070   60.7682   60.6301 C   0  0  0  0  0  0  0  0  0  0  0  0
  -24.7199   61.0110   59.3736 C   0  0  0  0  0  0  0  0  0  0  0  0
  -26.2120   60.9777   59.6322 C   0  0  0  0  0  0  0  0  0  0  0  0
  -34.3010   65.3918   62.5466 C   0  0  0  0  0  0  0  0  0  0  0  0
  -35.0243   64.2831   63.2697 C   0  0  0  0  0  0  0  0  0  0  0  0
  -36.4662   64.6449   63.6022 C   0  0  0  0  0  0  0  0  0  0  0  0
  -37.1926   63.5358   64.3462 C   0  0  0  0  0  0  0  0  0  0  0  0
  -37.2575   62.2226   63.5842 C   0  0  0  0  0  0  0  0  0  0  0  0
  -37.9994   61.1187   64.3228 C   0  0  0  0  0  0  0  0  0  0  0  0
  -37.3968   60.7654   65.6766 C   0  0  0  0  0  0  0  0  0  0  0  0
  -37.3766   61.9247   66.6644 C   0  0  0  0  0  0  0  0  0  0  0  0
  -38.7535   62.4843   67.0130 C   0  0  0  0  0  0  0  0  0  0  0  0
  -38.7188   63.6575   67.9912 C   0  0  0  0  0  0  0  0  0  0  0  0
  -40.0914   64.2178   68.3630 C   0  0  0  0  0  0  0  0  0  0  0  0
  -40.0248   65.4008   69.3292 C   0  0  0  0  0  0  0  0  0  0  0  0
  -39.2633   66.6196   68.8085 C   0  0  0  0  0  0  0  0  0  0  0  0
  -39.8422   67.2475   67.5378 C   0  0  0  0  0  0  0  0  0  0  0  0
  -39.8902   66.2889   66.3832 C   0  0  0  0  0  0  0  0  0  0  0  0
  -40.7757   66.2952   65.4025 C   0  0  0  0  0  0  0  0  0  0  0  0
  -41.9090   67.2629   65.2439 C   0  0  0  0  0  0  0  0  0  0  0  0
  -41.5465   68.5056   64.4280 C   0  0  0  0  0  0  0  0  0  0  0  0
  -40.4004   69.3079   65.0298 C   0  0  0  0  0  0  0  0  0  0  0  0
  -40.0489   70.5557   64.2276 C   0  0  0  0  0  0  0  0  0  0  0  0
  -39.6328   70.2833   62.7866 C   0  0  0  0  0  0  0  0  0  0  0  0
  -39.2692   71.5384   62.0059 C   0  0  0  0  0  0  0  0  0  0  0  0
  -40.3924   72.5587   61.9096 C   0  0  0  0  0  0  0  0  0  0  0  0
  -40.0052   73.7880   61.1128 C   0  0  0  0  0  0  0  0  0  0  0  0
  -31.2104   68.0828   64.4327 C   0  0  2  0  0  0  0  0  0  0  0  0
  -30.5480   67.5584   65.7001 C   0  0  1  0  0  0  0  0  0  0  0  0
  -30.2364   68.7171   66.6389 C   0  0  2  0  0  0  0  0  0  0  0  0
  -29.4420   69.8007   65.9249 C   0  0  2  0  0  0  0  0  0  0  0  0
  -30.1703   70.2134   64.6482 C   0  0  1  0  0  0  0  0  0  0  0  0
  -29.3950   71.2080   63.8163 C   0  0  0  0  0  0  0  0  0  0  0  0
  -30.0256   66.9384   68.5560 S   0  0  0  0  0  0  0  0  0  0  0  0
  -32.6553   64.2575   62.4556 H   0  0  0  0  0  0  0  0  0  0  0  0
  -31.4053   68.0450   61.7940 H   0  0  0  0  0  0  0  0  0  0  0  0
  -32.9770   67.7979   62.4965 H   0  0  0  0  0  0  0  0  0  0  0  0
  -32.6374   66.3625   60.5752 H   0  0  0  0  0  0  0  0  0  0  0  0
  -31.5249   64.5525   59.5551 H   0  0  0  0  0  0  0  0  0  0  0  0
  -30.2105   66.1253   60.6735 H   0  0  0  0  0  0  0  0  0  0  0  0
  -29.1834   65.4723   62.6104 H   0  0  0  0  0  0  0  0  0  0  0  0
  -31.5955   65.8899   65.7345 H   0  0  0  0  0  0  0  0  0  0  0  0
  -31.4788   63.7637   63.1978 H   0  0  0  0  0  0  0  0  0  0  0  0
  -30.0561   62.8198   64.8615 H   0  0  0  0  0  0  0  0  0  0  0  0
  -30.0585   64.5061   65.3619 H   0  0  0  0  0  0  0  0  0  0  0  0
  -27.6765   69.0633   66.4032 H   0  0  0  0  0  0  0  0  0  0  0  0
  -27.7930   63.6249   65.2573 H   0  0  0  0  0  0  0  0  0  0  0  0
  -28.0760   64.9053   64.0500 H   0  0  0  0  0  0  0  0  0  0  0  0
  -28.2671   63.2803   62.3271 H   0  0  0  0  0  0  0  0  0  0  0  0
  -28.0037   61.9926   63.5320 H   0  0  0  0  0  0  0  0  0  0  0  0
  -28.6087   73.0074   63.9896 H   0  0  0  0  0  0  0  0  0  0  0  0
  -26.0281   62.3952   62.2168 H   0  0  0  0  0  0  0  0  0  0  0  0
  -25.8173   62.7896   63.9406 H   0  0  0  0  0  0  0  0  0  0  0  0
  -28.3292   66.0818   69.0563 H   0  0  0  0  0  0  0  0  0  0  0  0
  -26.0058   65.1151   63.4615 H   0  0  0  0  0  0  0  0  0  0  0  0
  -26.2391   64.7318   61.7406 H   0  0  0  0  0  0  0  0  0  0  0  0
  -23.9979   65.5112   62.1790 H   0  0  0  0  0  0  0  0  0  0  0  0
  -24.0506   63.8214   61.6250 H   0  0  0  0  0  0  0  0  0  0  0  0
  -30.6977   68.3443   69.9238 H   0  0  0  0  0  0  0  0  0  0  0  0
  -23.6676   64.7093   64.4389 H   0  0  0  0  0  0  0  0  0  0  0  0
  -22.4135   64.1171   63.3213 H   0  0  0  0  0  0  0  0  0  0  0  0
  -24.7296   62.5392   64.3141 H   0  0  0  0  0  0  0  0  0  0  0  0
  -23.0436   62.4356   64.8757 H   0  0  0  0  0  0  0  0  0  0  0  0
  -23.5935   60.6264   63.3756 H   0  0  0  0  0  0  0  0  0  0  0  0
  -22.3475   61.7091   62.7271 H   0  0  0  0  0  0  0  0  0  0  0  0
  -23.9624   62.7637   61.3195 H   0  0  0  0  0  0  0  0  0  0  0  0
  -25.2153   61.6805   61.9821 H   0  0  0  0  0  0  0  0  0  0  0  0
  -24.1445   59.7964   61.0095 H   0  0  0  0  0  0  0  0  0  0  0  0
  -22.8727   60.8472   60.3675 H   0  0  0  0  0  0  0  0  0  0  0  0
  -24.4789   60.2535   58.6573 H   0  0  0  0  0  0  0  0  0  0  0  0
  -24.4745   61.9875   59.0114 H   0  0  0  0  0  0  0  0  0  0  0  0
  -26.4893   60.0107   59.9966 H   0  0  0  0  0  0  0  0  0  0  0  0
  -26.7364   61.1796   58.7217 H   0  0  0  0  0  0  0  0  0  0  0  0
  -26.4643   61.7194   60.3611 H   0  0  0  0  0  0  0  0  0  0  0  0
  -34.5048   64.0721   64.1810 H   0  0  0  0  0  0  0  0  0  0  0  0
  -35.0445   63.4320   62.6214 H   0  0  0  0  0  0  0  0  0  0  0  0
  -36.9883   64.8440   62.6897 H   0  0  0  0  0  0  0  0  0  0  0  0
  -36.4451   65.5028   64.2412 H   0  0  0  0  0  0  0  0  0  0  0  0
  -38.1928   63.8610   64.5427 H   0  0  0  0  0  0  0  0  0  0  0  0
  -36.6380   63.3479   65.2418 H   0  0  0  0  0  0  0  0  0  0  0  0
  -36.2573   61.8908   63.3985 H   0  0  0  0  0  0  0  0  0  0  0  0
  -37.8007   62.4129   62.6822 H   0  0  0  0  0  0  0  0  0  0  0  0
  -37.9913   60.2406   63.7115 H   0  0  0  0  0  0  0  0  0  0  0  0
  -38.9884   61.4818   64.5096 H   0  0  0  0  0  0  0  0  0  0  0  0
  -36.3903   60.4368   65.5220 H   0  0  0  0  0  0  0  0  0  0  0  0
  -38.0162   60.0043   66.1033 H   0  0  0  0  0  0  0  0  0  0  0  0
  -36.7925   62.7147   66.2405 H   0  0  0  0  0  0  0  0  0  0  0  0
  -36.9649   61.5415   67.5746 H   0  0  0  0  0  0  0  0  0  0  0  0
  -39.3349   61.6994   67.4496 H   0  0  0  0  0  0  0  0  0  0  0  0
  -39.1769   62.8534   66.1023 H   0  0  0  0  0  0  0  0  0  0  0  0
  -38.1460   64.4449   67.5476 H   0  0  0  0  0  0  0  0  0  0  0  0
  -38.2886   63.2839   68.8969 H   0  0  0  0  0  0  0  0  0  0  0  0
  -40.6630   63.4379   68.8212 H   0  0  0  0  0  0  0  0  0  0  0  0
  -40.5418   64.5735   67.4599 H   0  0  0  0  0  0  0  0  0  0  0  0
  -39.5462   65.0693   70.2269 H   0  0  0  0  0  0  0  0  0  0  0  0
  -41.0347   65.7213   69.4787 H   0  0  0  0  0  0  0  0  0  0  0  0
  -38.2571   66.3196   68.6022 H   0  0  0  0  0  0  0  0  0  0  0  0
  -39.3348   67.3664   69.5714 H   0  0  0  0  0  0  0  0  0  0  0  0
  -39.2342   68.0838   67.2624 H   0  0  0  0  0  0  0  0  0  0  0  0
  -40.8482   67.5412   67.7539 H   0  0  0  0  0  0  0  0  0  0  0  0
  -39.1637   65.5566   66.3528 H   0  0  0  0  0  0  0  0  0  0  0  0
  -40.6778   65.5662   64.6787 H   0  0  0  0  0  0  0  0  0  0  0  0
  -42.2234   67.5776   66.2171 H   0  0  0  0  0  0  0  0  0  0  0  0
  -42.6835   66.7530   64.7101 H   0  0  0  0  0  0  0  0  0  0  0  0
  -42.4086   69.1366   64.3689 H   0  0  0  0  0  0  0  0  0  0  0  0
  -41.2262   68.1695   63.4639 H   0  0  0  0  0  0  0  0  0  0  0  0
  -39.5352   68.6802   65.0774 H   0  0  0  0  0  0  0  0  0  0  0  0
  -40.7172   69.6337   65.9985 H   0  0  0  0  0  0  0  0  0  0  0  0
  -39.2401   71.0534   64.7207 H   0  0  0  0  0  0  0  0  0  0  0  0
  -40.9383   71.1487   64.1810 H   0  0  0  0  0  0  0  0  0  0  0  0
  -40.4450   69.7982   62.2866 H   0  0  0  0  0  0  0  0  0  0  0  0
  -38.7541   69.6740   62.8251 H   0  0  0  0  0  0  0  0  0  0  0  0
  -38.9931   71.2484   61.0136 H   0  0  0  0  0  0  0  0  0  0  0  0
  -38.4692   72.0104   62.5370 H   0  0  0  0  0  0  0  0  0  0  0  0
  -40.6621   72.8640   62.8990 H   0  0  0  0  0  0  0  0  0  0  0  0
  -41.2091   72.0903   61.4011 H   0  0  0  0  0  0  0  0  0  0  0  0
  -39.1880   74.2827   61.5949 H   0  0  0  0  0  0  0  0  0  0  0  0
  -40.8411   74.4535   61.0552 H   0  0  0  0  0  0  0  0  0  0  0  0
  -39.7132   73.4959   60.1258 H   0  0  0  0  0  0  0  0  0  0  0  0
  -32.1486   68.5400   64.6687 H   0  0  0  0  0  0  0  0  0  0  0  0
  -29.6327   67.0681   65.4416 H   0  0  0  0  0  0  0  0  0  0  0  0
  -31.1294   69.1768   67.0080 H   0  0  0  0  0  0  0  0  0  0  0  0
  -29.3488   70.6437   66.5772 H   0  0  0  0  0  0  0  0  0  0  0  0
  -31.0858   70.6667   64.9665 H   0  0  0  0  0  0  0  0  0  0  0  0
  -28.4751   70.7586   63.5055 H   0  0  0  0  0  0  0  0  0  0  0  0
  -29.9937   71.4764   62.9711 H   0  0  0  0  0  0  0  0  0  0  0  0
  1  4  1  0  0  0  0
  1 31  1  0  0  0  0
  1 62  1  0  0  0  0
  2  3  1  0  0  0  0
  2  4  1  0  0  0  0
  2 63  1  0  0  0  0
  2 64  1  0  0  0  0
  3 55  1  0  0  0  0
  4  6  1  0  0  0  0
  4 65  1  6  0  0  0
  5  6  1  0  0  0  0
  5 66  1  0  0  0  0
  6  8  1  0  0  0  0
  6 67  1  6  0  0  0
  7 31  2  0  0  0  0
  8 10  2  0  0  0  0
  8 68  1  0  0  0  0
  9 56  1  0  0  0  0
  9 69  1  0  0  0  0
 10 12  1  0  0  0  0
 10 70  1  0  0  0  0
 11 57  1  0  0  0  0
 11 61  1  0  0  0  0
 12 14  1  0  0  0  0
 12 71  1  0  0  0  0
 12 72  1  0  0  0  0
 13 58  1  0  0  0  0
 13 73  1  0  0  0  0
 14 16  1  0  0  0  0
 14 74  1  0  0  0  0
 14 75  1  0  0  0  0
 15 55  1  0  0  0  0
 15 59  1  0  0  0  0
 16 18  1  0  0  0  0
 16 76  1  0  0  0  0
 16 77  1  0  0  0  0
 17 60  1  0  0  0  0
 17 78  1  0  0  0  0
 18 20  1  0  0  0  0
 18 79  1  0  0  0  0
 18 80  1  0  0  0  0
 19 61  1  0  0  0  0
 19 81  1  0  0  0  0
 20 22  1  0  0  0  0
 20 82  1  0  0  0  0
 20 83  1  0  0  0  0
 21 61  1  0  0  0  0
 22 24  1  0  0  0  0
 22 84  1  0  0  0  0
 22 85  1  0  0  0  0
 23 61  1  0  0  0  0
 23 86  1  0  0  0  0
 24 25  1  0  0  0  0
 24 87  1  0  0  0  0
 24 88  1  0  0  0  0
 25 26  1  0  0  0  0
 25 89  1  0  0  0  0
 25 90  1  0  0  0  0
 26 27  1  0  0  0  0
 26 91  1  0  0  0  0
 26 92  1  0  0  0  0
 27 28  1  0  0  0  0
 27 93  1  0  0  0  0
 27 94  1  0  0  0  0
 28 29  1  0  0  0  0
 28 95  1  0  0  0  0
 28 96  1  0  0  0  0
 29 30  1  0  0  0  0
 29 97  1  0  0  0  0
 29 98  1  0  0  0  0
 30 99  1  0  0  0  0
 30100  1  0  0  0  0
 30101  1  0  0  0  0
 31 32  1  0  0  0  0
 32 33  1  0  0  0  0
 32102  1  0  0  0  0
 32103  1  0  0  0  0
 33 34  1  0  0  0  0
 33104  1  0  0  0  0
 33105  1  0  0  0  0
 34 35  1  0  0  0  0
 34106  1  0  0  0  0
 34107  1  0  0  0  0
 35 36  1  0  0  0  0
 35108  1  0  0  0  0
 35109  1  0  0  0  0
 36 37  1  0  0  0  0
 36110  1  0  0  0  0
 36111  1  0  0  0  0
 37 38  1  0  0  0  0
 37112  1  0  0  0  0
 37113  1  0  0  0  0
 38 39  1  0  0  0  0
 38114  1  0  0  0  0
 38115  1  0  0  0  0
 39 40  1  0  0  0  0
 39116  1  0  0  0  0
 39117  1  0  0  0  0
 40 41  1  0  0  0  0
 40118  1  0  0  0  0
 40119  1  0  0  0  0
 41 42  1  0  0  0  0
 41120  1  0  0  0  0
 41121  1  0  0  0  0
 42 43  1  0  0  0  0
 42122  1  0  0  0  0
 42123  1  0  0  0  0
 43 44  1  0  0  0  0
 43124  1  0  0  0  0
 43125  1  0  0  0  0
 44 45  1  0  0  0  0
 44126  1  0  0  0  0
 44127  1  0  0  0  0
 45 46  2  0  0  0  0
 45128  1  0  0  0  0
 46 47  1  0  0  0  0
 46129  1  0  0  0  0
 47 48  1  0  0  0  0
 47130  1  0  0  0  0
 47131  1  0  0  0  0
 48 49  1  0  0  0  0
 48132  1  0  0  0  0
 48133  1  0  0  0  0
 49 50  1  0  0  0  0
 49134  1  0  0  0  0
 49135  1  0  0  0  0
 50 51  1  0  0  0  0
 50136  1  0  0  0  0
 50137  1  0  0  0  0
 51 52  1  0  0  0  0
 51138  1  0  0  0  0
 51139  1  0  0  0  0
 52 53  1  0  0  0  0
 52140  1  0  0  0  0
 52141  1  0  0  0  0
 53 54  1  0  0  0  0
 53142  1  0  0  0  0
 53143  1  0  0  0  0
 54144  1  0  0  0  0
 54145  1  0  0  0  0
 54146  1  0  0  0  0
 55 56  1  0  0  0  0
 55147  1  1  0  0  0
 56 57  1  0  0  0  0
 56148  1  6  0  0  0
 57 58  1  0  0  0  0
 57149  1  1  0  0  0
 58 59  1  0  0  0  0
 58150  1  1  0  0  0
 59 60  1  0  0  0  0
 59151  1  1  0  0  0
 60152  1  0  0  0  0
 60153  1  0  0  0  0
M  CHG  1  21  -1
M  END
$$$$
/media/chris/experiments/cd1a-new-docking/inputs/ligands/7ryn_ligand.pdb
 OpenBabel07032312553D

153153  0  0  1  0  0  0  0  0999 V2000
  -33.0340   65.1330   62.2120 N   0  0  0  0  0  0  0  0  0  0  0  0
  -32.0220   67.3480   62.3220 C   0  0  0  0  0  0  0  0  0  0  0  0
  -33.3204   67.9104   62.5424 O   0  0  0  0  0  0  0  0  0  0  0  0
  -32.1830   66.0840   61.5030 C   0  0  1  0  0  0  0  0  0  0  0  0
  -29.9992   66.3678   60.5104 O   0  0  0  0  0  0  0  0  0  0  0  0
  -30.8310   65.4230   61.1900 C   0  0  2  0  0  0  0  0  0  0  0  0
  -31.3638   64.0971   63.3098 O   0  0  0  0  0  0  0  0  0  0  0  0
  -31.0055   64.1786   60.3744 C   0  0  0  0  0  0  0  0  0  0  0  0
  -33.0367   70.4384   61.3722 O   0  0  0  0  0  0  0  0  0  0  0  0
  -30.6246   62.9714   60.7426 C   0  0  0  0  0  0  0  0  0  0  0  0
  -32.8814   70.3696   58.5396 O   0  0  0  0  0  0  0  0  0  0  0  0
  -30.8265   61.7465   59.9122 C   0  0  0  0  0  0  0  0  0  0  0  0
  -32.9557   67.6751   58.0737 O   0  0  0  0  0  0  0  0  0  0  0  0
  -29.4892   61.0836   59.5755 C   0  0  0  0  0  0  0  0  0  0  0  0
  -34.2192   67.0740   60.5876 O   0  0  0  0  0  0  0  0  0  0  0  0
  -29.6114   59.8360   58.7157 C   0  0  0  0  0  0  0  0  0  0  0  0
  -35.9633   65.1340   59.5583 O   0  0  0  0  0  0  0  0  0  0  0  0
  -30.2499   60.0732   57.3578 C   0  0  0  0  0  0  0  0  0  0  0  0
  -32.1393   71.6178   56.6165 O   0  0  0  0  0  0  0  0  0  0  0  0
  -31.6598   60.6414   57.4278 C   0  0  0  0  0  0  0  0  0  0  0  0
  -34.5899   71.3907   57.1248 O   0  5  0  0  0  0  0  0  0  0  0  0
  -32.2986   60.8602   56.0650 C   0  0  0  0  0  0  0  0  0  0  0  0
  -33.2989   69.5597   56.3392 O   0  0  0  0  0  0  0  0  0  0  0  0
  -33.6993   61.4431   56.1323 C   0  0  0  0  0  0  0  0  0  0  0  0
  -33.7711   62.8042   56.7990 C   0  0  0  0  0  0  0  0  0  0  0  0
  -33.2675   62.8149   58.2321 C   0  0  0  0  0  0  0  0  0  0  0  0
  -34.0365   61.8716   59.1384 C   0  0  0  0  0  0  0  0  0  0  0  0
  -35.5221   62.1632   59.2298 C   0  0  0  0  0  0  0  0  0  0  0  0
  -36.2471   61.2084   60.1579 C   0  0  0  0  0  0  0  0  0  0  0  0
  -37.7334   61.4903   60.2347 C   0  0  0  0  0  0  0  0  0  0  0  0
  -32.5596   64.2152   63.0586 C   0  0  0  0  0  0  0  0  0  0  0  0
  -33.5934   63.3253   63.7025 C   0  0  0  0  0  0  0  0  0  0  0  0
  -34.8154   63.1137   62.8180 C   0  0  0  0  0  0  0  0  0  0  0  0
  -34.4732   62.4502   61.4937 C   0  0  0  0  0  0  0  0  0  0  0  0
  -33.8532   61.0703   61.6379 C   0  0  0  0  0  0  0  0  0  0  0  0
  -34.7518   60.0623   62.3387 C   0  0  0  0  0  0  0  0  0  0  0  0
  -34.1271   58.6823   62.5003 C   0  0  0  0  0  0  0  0  0  0  0  0
  -33.7392   58.0226   61.1833 C   0  0  0  0  0  0  0  0  0  0  0  0
  -33.1272   56.6316   61.3274 C   0  0  0  0  0  0  0  0  0  0  0  0
  -31.8539   56.5966   62.1710 C   0  0  0  0  0  0  0  0  0  0  0  0
  -30.7154   57.4692   61.6429 C   0  0  0  0  0  0  0  0  0  0  0  0
  -29.4494   57.4011   62.4971 C   0  0  0  0  0  0  0  0  0  0  0  0
  -28.8202   56.0127   62.6122 C   0  0  0  0  0  0  0  0  0  0  0  0
  -28.3711   55.3960   61.2847 C   0  0  0  0  0  0  0  0  0  0  0  0
  -27.3271   56.2164   60.5840 C   0  0  0  0  0  0  0  0  0  0  0  0
  -26.7685   55.9358   59.4199 C   0  0  0  0  0  0  0  0  0  0  0  0
  -27.0670   54.7428   58.5633 C   0  0  0  0  0  0  0  0  0  0  0  0
  -25.8512   53.8493   58.3087 C   0  0  0  0  0  0  0  0  0  0  0  0
  -24.7041   54.5756   57.6188 C   0  0  0  0  0  0  0  0  0  0  0  0
  -24.1619   55.7517   58.4232 C   0  0  0  0  0  0  0  0  0  0  0  0
  -23.5976   55.3759   59.7886 C   0  0  0  0  0  0  0  0  0  0  0  0
  -23.0765   56.5642   60.5845 C   0  0  0  0  0  0  0  0  0  0  0  0
  -22.4960   56.1980   61.9412 C   0  0  0  0  0  0  0  0  0  0  0  0
  -23.4983   55.5085   62.8444 C   0  0  0  0  0  0  0  0  0  0  0  0
  -34.0138   68.2339   61.3725 C   0  0  2  0  0  0  0  0  0  0  0  0
  -33.1864   69.2534   60.6005 C   0  0  1  0  0  0  0  0  0  0  0  0
  -33.8630   69.5708   59.2729 C   0  0  2  0  0  0  0  0  0  0  0  0
  -34.1647   68.2982   58.4952 C   0  0  2  0  0  0  0  0  0  0  0  0
  -34.9504   67.3319   59.3783 C   0  0  1  0  0  0  0  0  0  0  0  0
  -35.1970   65.9935   58.7222 C   0  0  0  0  0  0  0  0  0  0  0  0
  -33.2636   70.9000   57.0917 S   0  0  0  0  0  0  0  0  0  0  0  0
  -34.0058   65.1700   62.0585 H   0  0  0  0  0  0  0  0  0  0  0  0
  -31.5648   67.1148   63.2609 H   0  0  0  0  0  0  0  0  0  0  0  0
  -31.4012   68.0473   61.8019 H   0  0  0  0  0  0  0  0  0  0  0  0
  -32.6374   66.3625   60.5752 H   0  0  0  0  0  0  0  0  0  0  0  0
  -29.9008   67.1635   61.0564 H   0  0  0  0  0  0  0  0  0  0  0  0
  -30.3647   65.1308   62.1077 H   0  0  0  0  0  0  0  0  0  0  0  0
  -31.4592   64.2738   59.4524 H   0  0  0  0  0  0  0  0  0  0  0  0
  -32.6053   70.2237   62.2140 H   0  0  0  0  0  0  0  0  0  0  0  0
  -30.1599   62.8667   61.6581 H   0  0  0  0  0  0  0  0  0  0  0  0
  -31.3208   62.0182   59.0030 H   0  0  0  0  0  0  0  0  0  0  0  0
  -31.4197   61.0519   60.4694 H   0  0  0  0  0  0  0  0  0  0  0  0
  -32.4550   68.2876   57.5124 H   0  0  0  0  0  0  0  0  0  0  0  0
  -29.0083   60.8134   60.4924 H   0  0  0  0  0  0  0  0  0  0  0  0
  -28.9278   61.7951   59.0069 H   0  0  0  0  0  0  0  0  0  0  0  0
  -30.2056   59.1208   59.2451 H   0  0  0  0  0  0  0  0  0  0  0  0
  -28.6150   59.4927   58.5302 H   0  0  0  0  0  0  0  0  0  0  0  0
  -36.1031   64.2860   59.1086 H   0  0  0  0  0  0  0  0  0  0  0  0
  -30.2889   59.1396   56.8365 H   0  0  0  0  0  0  0  0  0  0  0  0
  -29.6474   60.8008   56.8552 H   0  0  0  0  0  0  0  0  0  0  0  0
  -32.0855   72.4727   57.0717 H   0  0  0  0  0  0  0  0  0  0  0  0
  -31.6204   61.5815   57.9374 H   0  0  0  0  0  0  0  0  0  0  0  0
  -32.2616   59.9227   57.9438 H   0  0  0  0  0  0  0  0  0  0  0  0
  -32.3490   59.9179   55.5607 H   0  0  0  0  0  0  0  0  0  0  0  0
  -31.6898   61.5702   55.5453 H   0  0  0  0  0  0  0  0  0  0  0  0
  -32.4032   69.1898   56.2954 H   0  0  0  0  0  0  0  0  0  0  0  0
  -34.3192   60.7662   56.6822 H   0  0  0  0  0  0  0  0  0  0  0  0
  -34.0277   61.5757   55.1226 H   0  0  0  0  0  0  0  0  0  0  0  0
  -34.7914   63.1265   56.7980 H   0  0  0  0  0  0  0  0  0  0  0  0
  -33.1334   63.4575   56.2408 H   0  0  0  0  0  0  0  0  0  0  0  0
  -33.3589   63.8086   58.6182 H   0  0  0  0  0  0  0  0  0  0  0  0
  -32.2500   62.4843   58.2160 H   0  0  0  0  0  0  0  0  0  0  0  0
  -33.6210   61.9395   60.1221 H   0  0  0  0  0  0  0  0  0  0  0  0
  -33.9426   60.8945   58.7126 H   0  0  0  0  0  0  0  0  0  0  0  0
  -35.9484   62.0806   58.2518 H   0  0  0  0  0  0  0  0  0  0  0  0
  -35.6350   63.1502   59.6272 H   0  0  0  0  0  0  0  0  0  0  0  0
  -35.8294   61.2998   61.1387 H   0  0  0  0  0  0  0  0  0  0  0  0
  -36.1236   60.2196   59.7681 H   0  0  0  0  0  0  0  0  0  0  0  0
  -37.8901   62.4753   60.6222 H   0  0  0  0  0  0  0  0  0  0  0  0
  -38.1992   60.7749   60.8799 H   0  0  0  0  0  0  0  0  0  0  0  0
  -38.1609   61.4197   59.2564 H   0  0  0  0  0  0  0  0  0  0  0  0
  -33.9085   63.7748   64.6209 H   0  0  0  0  0  0  0  0  0  0  0  0
  -33.1418   62.3692   63.8662 H   0  0  0  0  0  0  0  0  0  0  0  0
  -35.2627   64.0651   62.6188 H   0  0  0  0  0  0  0  0  0  0  0  0
  -35.4849   62.4637   63.3417 H   0  0  0  0  0  0  0  0  0  0  0  0
  -33.7811   63.0775   60.9716 H   0  0  0  0  0  0  0  0  0  0  0  0
  -35.3936   62.3231   60.9631 H   0  0  0  0  0  0  0  0  0  0  0  0
  -32.9485   61.1644   62.2015 H   0  0  0  0  0  0  0  0  0  0  0  0
  -33.6835   60.7005   60.6483 H   0  0  0  0  0  0  0  0  0  0  0  0
  -35.6512   59.9597   61.7683 H   0  0  0  0  0  0  0  0  0  0  0  0
  -34.9296   60.4389   63.3244 H   0  0  0  0  0  0  0  0  0  0  0  0
  -34.8314   58.0500   62.9994 H   0  0  0  0  0  0  0  0  0  0  0  0
  -33.2245   58.8135   63.0598 H   0  0  0  0  0  0  0  0  0  0  0  0
  -33.0270   58.6517   60.6915 H   0  0  0  0  0  0  0  0  0  0  0  0
  -34.6446   57.9002   60.6263 H   0  0  0  0  0  0  0  0  0  0  0  0
  -32.8934   56.2641   60.3500 H   0  0  0  0  0  0  0  0  0  0  0  0
  -33.8502   56.0265   61.8334 H   0  0  0  0  0  0  0  0  0  0  0  0
  -31.5078   55.5849   62.2108 H   0  0  0  0  0  0  0  0  0  0  0  0
  -32.1159   56.9891   63.1313 H   0  0  0  0  0  0  0  0  0  0  0  0
  -31.0515   58.4847   61.6155 H   0  0  0  0  0  0  0  0  0  0  0  0
  -30.4603   57.1003   60.6714 H   0  0  0  0  0  0  0  0  0  0  0  0
  -29.6959   57.7363   63.4828 H   0  0  0  0  0  0  0  0  0  0  0  0
  -28.7250   58.0174   62.0068 H   0  0  0  0  0  0  0  0  0  0  0  0
  -29.5400   55.3575   63.0564 H   0  0  0  0  0  0  0  0  0  0  0  0
  -27.9353   56.1324   63.2018 H   0  0  0  0  0  0  0  0  0  0  0  0
  -29.2232   55.3075   60.6436 H   0  0  0  0  0  0  0  0  0  0  0  0
  -27.9374   54.4426   61.5036 H   0  0  0  0  0  0  0  0  0  0  0  0
  -27.0169   57.0803   61.0555 H   0  0  0  0  0  0  0  0  0  0  0  0
  -26.0610   56.5996   59.0680 H   0  0  0  0  0  0  0  0  0  0  0  0
  -27.4362   55.0880   57.6201 H   0  0  0  0  0  0  0  0  0  0  0  0
  -27.7855   54.1508   59.0907 H   0  0  0  0  0  0  0  0  0  0  0  0
  -26.1551   53.0302   57.6909 H   0  0  0  0  0  0  0  0  0  0  0  0
  -25.4921   53.5233   59.2624 H   0  0  0  0  0  0  0  0  0  0  0  0
  -25.0526   54.9416   56.6756 H   0  0  0  0  0  0  0  0  0  0  0  0
  -23.9051   53.8724   57.5092 H   0  0  0  0  0  0  0  0  0  0  0  0
  -24.9581   56.4509   58.5713 H   0  0  0  0  0  0  0  0  0  0  0  0
  -23.3486   56.1578   57.8587 H   0  0  0  0  0  0  0  0  0  0  0  0
  -22.7916   54.6875   59.6430 H   0  0  0  0  0  0  0  0  0  0  0  0
  -24.4016   54.9509   60.3524 H   0  0  0  0  0  0  0  0  0  0  0  0
  -23.8864   57.2462   60.7389 H   0  0  0  0  0  0  0  0  0  0  0  0
  -22.2787   56.9913   60.0134 H   0  0  0  0  0  0  0  0  0  0  0  0
  -22.1619   57.0933   62.4226 H   0  0  0  0  0  0  0  0  0  0  0  0
  -21.6915   55.5131   61.7722 H   0  0  0  0  0  0  0  0  0  0  0  0
  -24.3193   56.1677   63.0349 H   0  0  0  0  0  0  0  0  0  0  0  0
  -23.0264   55.2502   63.7693 H   0  0  0  0  0  0  0  0  0  0  0  0
  -23.8571   54.6207   62.3669 H   0  0  0  0  0  0  0  0  0  0  0  0
  -34.9727   68.6430   61.6132 H   0  0  0  0  0  0  0  0  0  0  0  0
  -32.2173   68.8444   60.4048 H   0  0  0  0  0  0  0  0  0  0  0  0
  -34.7946   70.0773   59.4161 H   0  0  0  0  0  0  0  0  0  0  0  0
  -34.7440   68.5528   57.6324 H   0  0  0  0  0  0  0  0  0  0  0  0
  -35.8917   67.8050   59.5651 H   0  0  0  0  0  0  0  0  0  0  0  0
  -35.7263   66.1485   57.8053 H   0  0  0  0  0  0  0  0  0  0  0  0
  -34.2500   65.5290   58.5427 H   0  0  0  0  0  0  0  0  0  0  0  0
  1  4  1  0  0  0  0
  1 31  1  0  0  0  0
  1 62  1  0  0  0  0
  2  3  1  0  0  0  0
  2  4  1  0  0  0  0
  2 63  1  0  0  0  0
  2 64  1  0  0  0  0
  3 55  1  0  0  0  0
  4  6  1  0  0  0  0
  4 65  1  6  0  0  0
  5  6  1  0  0  0  0
  5 66  1  0  0  0  0
  6  8  1  0  0  0  0
  6 67  1  1  0  0  0
  7 31  2  0  0  0  0
  8 10  2  0  0  0  0
  8 68  1  0  0  0  0
  9 56  1  0  0  0  0
  9 69  1  0  0  0  0
 10 12  1  0  0  0  0
 10 70  1  0  0  0  0
 11 57  1  0  0  0  0
 11 61  1  0  0  0  0
 12 14  1  0  0  0  0
 12 71  1  0  0  0  0
 12 72  1  0  0  0  0
 13 58  1  0  0  0  0
 13 73  1  0  0  0  0
 14 16  1  0  0  0  0
 14 74  1  0  0  0  0
 14 75  1  0  0  0  0
 15 55  1  0  0  0  0
 15 59  1  0  0  0  0
 16 18  1  0  0  0  0
 16 76  1  0  0  0  0
 16 77  1  0  0  0  0
 17 60  1  0  0  0  0
 17 78  1  0  0  0  0
 18 20  1  0  0  0  0
 18 79  1  0  0  0  0
 18 80  1  0  0  0  0
 19 61  1  0  0  0  0
 19 81  1  0  0  0  0
 20 22  1  0  0  0  0
 20 82  1  0  0  0  0
 20 83  1  0  0  0  0
 21 61  1  0  0  0  0
 22 24  1  0  0  0  0
 22 84  1  0  0  0  0
 22 85  1  0  0  0  0
 23 61  1  0  0  0  0
 23 86  1  0  0  0  0
 24 25  1  0  0  0  0
 24 87  1  0  0  0  0
 24 88  1  0  0  0  0
 25 26  1  0  0  0  0
 25 89  1  0  0  0  0
 25 90  1  0  0  0  0
 26 27  1  0  0  0  0
 26 91  1  0  0  0  0
 26 92  1  0  0  0  0
 27 28  1  0  0  0  0
 27 93  1  0  0  0  0
 27 94  1  0  0  0  0
 28 29  1  0  0  0  0
 28 95  1  0  0  0  0
 28 96  1  0  0  0  0
 29 30  1  0  0  0  0
 29 97  1  0  0  0  0
 29 98  1  0  0  0  0
 30 99  1  0  0  0  0
 30100  1  0  0  0  0
 30101  1  0  0  0  0
 31 32  1  0  0  0  0
 32 33  1  0  0  0  0
 32102  1  0  0  0  0
 32103  1  0  0  0  0
 33 34  1  0  0  0  0
 33104  1  0  0  0  0
 33105  1  0  0  0  0
 34 35  1  0  0  0  0
 34106  1  0  0  0  0
 34107  1  0  0  0  0
 35 36  1  0  0  0  0
 35108  1  0  0  0  0
 35109  1  0  0  0  0
 36 37  1  0  0  0  0
 36110  1  0  0  0  0
 36111  1  0  0  0  0
 37 38  1  0  0  0  0
 37112  1  0  0  0  0
 37113  1  0  0  0  0
 38 39  1  0  0  0  0
 38114  1  0  0  0  0
 38115  1  0  0  0  0
 39 40  1  0  0  0  0
 39116  1  0  0  0  0
 39117  1  0  0  0  0
 40 41  1  0  0  0  0
 40118  1  0  0  0  0
 40119  1  0  0  0  0
 41 42  1  0  0  0  0
 41120  1  0  0  0  0
 41121  1  0  0  0  0
 42 43  1  0  0  0  0
 42122  1  0  0  0  0
 42123  1  0  0  0  0
 43 44  1  0  0  0  0
 43124  1  0  0  0  0
 43125  1  0  0  0  0
 44 45  1  0  0  0  0
 44126  1  0  0  0  0
 44127  1  0  0  0  0
 45 46  2  0  0  0  0
 45128  1  0  0  0  0
 46 47  1  0  0  0  0
 46129  1  0  0  0  0
 47 48  1  0  0  0  0
 47130  1  0  0  0  0
 47131  1  0  0  0  0
 48 49  1  0  0  0  0
 48132  1  0  0  0  0
 48133  1  0  0  0  0
 49 50  1  0  0  0  0
 49134  1  0  0  0  0
 49135  1  0  0  0  0
 50 51  1  0  0  0  0
 50136  1  0  0  0  0
 50137  1  0  0  0  0
 51 52  1  0  0  0  0
 51138  1  0  0  0  0
 51139  1  0  0  0  0
 52 53  1  0  0  0  0
 52140  1  0  0  0  0
 52141  1  0  0  0  0
 53 54  1  0  0  0  0
 53142  1  0  0  0  0
 53143  1  0  0  0  0
 54144  1  0  0  0  0
 54145  1  0  0  0  0
 54146  1  0  0  0  0
 55 56  1  0  0  0  0
 55147  1  1  0  0  0
 56 57  1  0  0  0  0
 56148  1  6  0  0  0
 57 58  1  0  0  0  0
 57149  1  1  0  0  0
 58 59  1  0  0  0  0
 58150  1  6  0  0  0
 59 60  1  0  0  0  0
 59151  1  1  0  0  0
 60152  1  0  0  0  0
 60153  1  0  0  0  0
M  CHG  1  21  -1
M  END
$$$$
/media/chris/experiments/cd1a-new-docking/inputs/ligands/7ryn_ligand.pdb
 OpenBabel07032312553D

153153  0  0  1  0  0  0  0  0999 V2000
  -33.0340   65.1330   62.2120 N   0  0  0  0  0  0  0  0  0  0  0  0
  -32.0220   67.3480   62.3220 C   0  0  0  0  0  0  0  0  0  0  0  0
  -33.3204   67.9104   62.5424 O   0  0  0  0  0  0  0  0  0  0  0  0
  -32.1830   66.0840   61.5030 C   0  0  1  0  0  0  0  0  0  0  0  0
  -29.9992   66.3678   60.5104 O   0  0  0  0  0  0  0  0  0  0  0  0
  -30.8310   65.4230   61.1900 C   0  0  2  0  0  0  0  0  0  0  0  0
  -34.2576   66.6787   63.2990 O   0  0  0  0  0  0  0  0  0  0  0  0
  -31.0055   64.1786   60.3744 C   0  0  0  0  0  0  0  0  0  0  0  0
  -35.3151   69.8361   62.1498 O   0  0  0  0  0  0  0  0  0  0  0  0
  -30.2096   63.1284   60.4144 C   0  0  0  0  0  0  0  0  0  0  0  0
  -36.2332   71.0293   64.5551 O   0  0  0  0  0  0  0  0  0  0  0  0
  -30.4192   61.8950   59.5986 C   0  0  0  0  0  0  0  0  0  0  0  0
  -34.7894   69.6393   66.4168 O   0  0  0  0  0  0  0  0  0  0  0  0
  -31.6680   62.0196   58.7235 C   0  0  0  0  0  0  0  0  0  0  0  0
  -32.7334   68.8853   64.5507 O   0  0  0  0  0  0  0  0  0  0  0  0
  -31.9583   60.7931   57.8737 C   0  0  0  0  0  0  0  0  0  0  0  0
  -31.8166   70.8306   67.4934 O   0  0  0  0  0  0  0  0  0  0  0  0
  -33.1884   60.9213   56.9915 C   0  0  0  0  0  0  0  0  0  0  0  0
  -38.0793   72.2327   65.5303 O   0  0  0  0  0  0  0  0  0  0  0  0
  -34.4763   61.1808   57.7594 C   0  0  0  0  0  0  0  0  0  0  0  0
  -35.9141   73.4042   65.0253 O   0  5  0  0  0  0  0  0  0  0  0  0
  -34.8164   60.0934   58.7669 C   0  0  0  0  0  0  0  0  0  0  0  0
  -36.1043   71.8317   66.7937 O   0  0  0  0  0  0  0  0  0  0  0  0
  -34.9852   58.7170   58.1479 C   0  0  0  0  0  0  0  0  0  0  0  0
  -35.3413   57.6302   59.1451 C   0  0  0  0  0  0  0  0  0  0  0  0
  -34.3132   57.4460   60.2481 C   0  0  0  0  0  0  0  0  0  0  0  0
  -34.1178   58.6923   61.0913 C   0  0  0  0  0  0  0  0  0  0  0  0
  -35.3660   59.1616   61.8139 C   0  0  0  0  0  0  0  0  0  0  0  0
  -35.9038   58.1250   62.7808 C   0  0  0  0  0  0  0  0  0  0  0  0
  -34.9092   57.7744   63.8681 C   0  0  0  0  0  0  0  0  0  0  0  0
  -34.0033   65.5031   63.0532 C   0  0  0  0  0  0  0  0  0  0  0  0
  -34.7826   64.3775   63.6864 C   0  0  0  0  0  0  0  0  0  0  0  0
  -36.2686   64.4370   63.3565 C   0  0  0  0  0  0  0  0  0  0  0  0
  -36.5428   64.3350   61.8647 C   0  0  0  0  0  0  0  0  0  0  0  0
  -36.0559   63.0401   61.2359 C   0  0  0  0  0  0  0  0  0  0  0  0
  -36.7008   61.7920   61.8197 C   0  0  0  0  0  0  0  0  0  0  0  0
  -38.2142   61.7406   61.6529 C   0  0  0  0  0  0  0  0  0  0  0  0
  -38.9463   62.9083   62.3016 C   0  0  0  0  0  0  0  0  0  0  0  0
  -40.4654   62.8623   62.1578 C   0  0  0  0  0  0  0  0  0  0  0  0
  -40.9532   62.8519   60.7099 C   0  0  0  0  0  0  0  0  0  0  0  0
  -42.4730   62.8231   60.5498 C   0  0  0  0  0  0  0  0  0  0  0  0
  -42.9313   62.7959   59.0915 C   0  0  0  0  0  0  0  0  0  0  0  0
  -42.4577   61.5857   58.2867 C   0  0  0  0  0  0  0  0  0  0  0  0
  -42.9317   60.2310   58.8198 C   0  0  0  0  0  0  0  0  0  0  0  0
  -44.4274   60.1010   58.8346 C   0  0  0  0  0  0  0  0  0  0  0  0
  -45.1380   59.3838   59.6870 C   0  0  0  0  0  0  0  0  0  0  0  0
  -44.5936   58.5578   60.8128 C   0  0  0  0  0  0  0  0  0  0  0  0
  -43.2832   59.0955   61.3917 C   0  0  0  0  0  0  0  0  0  0  0  0
  -42.7292   58.2403   62.5235 C   0  0  0  0  0  0  0  0  0  0  0  0
  -41.4325   58.7835   63.1132 C   0  0  0  0  0  0  0  0  0  0  0  0
  -40.8468   57.9368   64.2374 C   0  0  0  0  0  0  0  0  0  0  0  0
  -40.4916   56.5182   63.8150 C   0  0  0  0  0  0  0  0  0  0  0  0
  -39.9223   55.6599   64.9335 C   0  0  0  0  0  0  0  0  0  0  0  0
  -40.8853   55.4843   66.0901 C   0  0  0  0  0  0  0  0  0  0  0  0
  -33.3156   69.0988   63.2783 C   0  0  2  0  0  0  0  0  0  0  0  0
  -34.7576   69.5657   63.4297 C   0  0  1  0  0  0  0  0  0  0  0  0
  -34.8089   70.8140   64.3015 C   0  0  2  0  0  0  0  0  0  0  0  0
  -34.0866   70.5888   65.6217 C   0  0  2  0  0  0  0  0  0  0  0  0
  -32.6741   70.0760   65.3523 C   0  0  1  0  0  0  0  0  0  0  0  0
  -31.9211   69.7182   66.6122 C   0  0  0  0  0  0  0  0  0  0  0  0
  -36.6672   72.2789   65.4347 S   0  0  0  0  0  0  0  0  0  0  0  0
  -32.8861   64.1712   62.0627 H   0  0  0  0  0  0  0  0  0  0  0  0
  -31.5648   67.1148   63.2609 H   0  0  0  0  0  0  0  0  0  0  0  0
  -31.4012   68.0473   61.8019 H   0  0  0  0  0  0  0  0  0  0  0  0
  -32.6374   66.3625   60.5752 H   0  0  0  0  0  0  0  0  0  0  0  0
  -29.9008   67.1635   61.0564 H   0  0  0  0  0  0  0  0  0  0  0  0
  -30.3647   65.1308   62.1077 H   0  0  0  0  0  0  0  0  0  0  0  0
  -31.8115   64.1406   59.7311 H   0  0  0  0  0  0  0  0  0  0  0  0
  -35.2768   69.0347   61.6046 H   0  0  0  0  0  0  0  0  0  0  0  0
  -29.3943   63.1604   61.0462 H   0  0  0  0  0  0  0  0  0  0  0  0
  -30.5341   61.0574   60.2545 H   0  0  0  0  0  0  0  0  0  0  0  0
  -29.5698   61.7599   58.9620 H   0  0  0  0  0  0  0  0  0  0  0  0
  -35.6873   69.9632   66.5891 H   0  0  0  0  0  0  0  0  0  0  0  0
  -31.5379   62.8571   58.0704 H   0  0  0  0  0  0  0  0  0  0  0  0
  -32.4986   62.1370   59.3878 H   0  0  0  0  0  0  0  0  0  0  0  0
  -32.1004   59.9582   58.5277 H   0  0  0  0  0  0  0  0  0  0  0  0
  -31.1220   60.6696   57.2178 H   0  0  0  0  0  0  0  0  0  0  0  0
  -31.3292   70.5677   68.2897 H   0  0  0  0  0  0  0  0  0  0  0  0
  -33.3030   60.0117   56.4398 H   0  0  0  0  0  0  0  0  0  0  0  0
  -33.0287   61.7694   56.3589 H   0  0  0  0  0  0  0  0  0  0  0  0
  -38.4697   72.5099   64.6867 H   0  0  0  0  0  0  0  0  0  0  0  0
  -35.2799   61.2537   57.0566 H   0  0  0  0  0  0  0  0  0  0  0  0
  -34.3342   62.0860   58.3119 H   0  0  0  0  0  0  0  0  0  0  0  0
  -35.7313   60.3589   59.2541 H   0  0  0  0  0  0  0  0  0  0  0  0
  -33.9936   60.0305   59.4480 H   0  0  0  0  0  0  0  0  0  0  0  0
  -36.5974   71.0582   67.1092 H   0  0  0  0  0  0  0  0  0  0  0  0
  -34.0660   58.4477   57.6711 H   0  0  0  0  0  0  0  0  0  0  0  0
  -35.8021   58.7853   57.4603 H   0  0  0  0  0  0  0  0  0  0  0  0
  -35.4368   56.7053   58.6157 H   0  0  0  0  0  0  0  0  0  0  0  0
  -36.2536   57.9290   59.6176 H   0  0  0  0  0  0  0  0  0  0  0  0
  -33.3763   57.1867   59.8009 H   0  0  0  0  0  0  0  0  0  0  0  0
  -34.6739   56.6748   60.8960 H   0  0  0  0  0  0  0  0  0  0  0  0
  -33.7856   59.4817   60.4500 H   0  0  0  0  0  0  0  0  0  0  0  0
  -33.4035   58.4408   61.8473 H   0  0  0  0  0  0  0  0  0  0  0  0
  -36.1216   59.3777   61.0877 H   0  0  0  0  0  0  0  0  0  0  0  0
  -35.1048   60.0301   62.3817 H   0  0  0  0  0  0  0  0  0  0  0  0
  -36.1418   57.2366   62.2340 H   0  0  0  0  0  0  0  0  0  0  0  0
  -36.7694   58.5399   63.2536 H   0  0  0  0  0  0  0  0  0  0  0  0
  -34.0296   57.3558   63.4254 H   0  0  0  0  0  0  0  0  0  0  0  0
  -35.3467   57.0613   64.5352 H   0  0  0  0  0  0  0  0  0  0  0  0
  -34.6487   58.6584   64.4118 H   0  0  0  0  0  0  0  0  0  0  0  0
  -34.6646   64.4337   64.7484 H   0  0  0  0  0  0  0  0  0  0  0  0
  -34.4000   63.4579   63.2955 H   0  0  0  0  0  0  0  0  0  0  0  0
  -36.6617   65.3656   63.7142 H   0  0  0  0  0  0  0  0  0  0  0  0
  -36.7385   63.6001   63.8295 H   0  0  0  0  0  0  0  0  0  0  0  0
  -36.0538   65.1516   61.3758 H   0  0  0  0  0  0  0  0  0  0  0  0
  -37.6054   64.3593   61.7420 H   0  0  0  0  0  0  0  0  0  0  0  0
  -34.9979   62.9720   61.3806 H   0  0  0  0  0  0  0  0  0  0  0  0
  -36.3269   63.0754   60.2014 H   0  0  0  0  0  0  0  0  0  0  0  0
  -36.4761   61.7548   62.8651 H   0  0  0  0  0  0  0  0  0  0  0  0
  -36.3017   60.9572   61.2824 H   0  0  0  0  0  0  0  0  0  0  0  0
  -38.5710   60.8329   62.0930 H   0  0  0  0  0  0  0  0  0  0  0  0
  -38.4131   61.7938   60.6029 H   0  0  0  0  0  0  0  0  0  0  0  0
  -38.5955   63.8137   61.8521 H   0  0  0  0  0  0  0  0  0  0  0  0
  -38.7383   62.8531   63.3497 H   0  0  0  0  0  0  0  0  0  0  0  0
  -40.8755   63.7224   62.6447 H   0  0  0  0  0  0  0  0  0  0  0  0
  -40.7903   61.9439   62.6002 H   0  0  0  0  0  0  0  0  0  0  0  0
  -40.5506   61.9853   60.2285 H   0  0  0  0  0  0  0  0  0  0  0  0
  -40.6198   63.7692   60.2714 H   0  0  0  0  0  0  0  0  0  0  0  0
  -42.8796   63.6959   61.0165 H   0  0  0  0  0  0  0  0  0  0  0  0
  -42.8209   61.9200   61.0063 H   0  0  0  0  0  0  0  0  0  0  0  0
  -42.5627   63.6783   58.6115 H   0  0  0  0  0  0  0  0  0  0  0  0
  -43.9995   62.7391   59.1153 H   0  0  0  0  0  0  0  0  0  0  0  0
  -41.3877   61.5861   58.2846 H   0  0  0  0  0  0  0  0  0  0  0  0
  -42.8835   61.6895   57.3106 H   0  0  0  0  0  0  0  0  0  0  0  0
  -42.5685   60.1111   59.8191 H   0  0  0  0  0  0  0  0  0  0  0  0
  -42.5498   59.4762   58.1646 H   0  0  0  0  0  0  0  0  0  0  0  0
  -44.9492   60.6203   58.1114 H   0  0  0  0  0  0  0  0  0  0  0  0
  -46.1629   59.3933   59.5663 H   0  0  0  0  0  0  0  0  0  0  0  0
  -44.4214   57.5656   60.4514 H   0  0  0  0  0  0  0  0  0  0  0  0
  -45.3180   58.5854   61.5999 H   0  0  0  0  0  0  0  0  0  0  0  0
  -43.4569   60.0828   61.7657 H   0  0  0  0  0  0  0  0  0  0  0  0
  -42.5602   59.0847   60.6030 H   0  0  0  0  0  0  0  0  0  0  0  0
  -42.5442   57.2564   62.1460 H   0  0  0  0  0  0  0  0  0  0  0  0
  -43.4579   58.2422   63.3070 H   0  0  0  0  0  0  0  0  0  0  0  0
  -41.6247   59.7633   63.4979 H   0  0  0  0  0  0  0  0  0  0  0  0
  -40.7125   58.7792   62.3217 H   0  0  0  0  0  0  0  0  0  0  0  0
  -41.5646   57.8836   65.0291 H   0  0  0  0  0  0  0  0  0  0  0  0
  -39.9363   58.4091   64.5422 H   0  0  0  0  0  0  0  0  0  0  0  0
  -39.7653   56.5732   63.0311 H   0  0  0  0  0  0  0  0  0  0  0  0
  -41.4030   56.0525   63.5031 H   0  0  0  0  0  0  0  0  0  0  0  0
  -39.0301   56.1237   65.2994 H   0  0  0  0  0  0  0  0  0  0  0  0
  -39.7283   54.6895   64.5268 H   0  0  0  0  0  0  0  0  0  0  0  0
  -41.1019   56.4390   66.5219 H   0  0  0  0  0  0  0  0  0  0  0  0
  -40.4427   54.8504   66.8297 H   0  0  0  0  0  0  0  0  0  0  0  0
  -41.7915   55.0395   65.7352 H   0  0  0  0  0  0  0  0  0  0  0  0
  -32.7377   69.8438   62.7723 H   0  0  0  0  0  0  0  0  0  0  0  0
  -35.3300   68.7932   63.8992 H   0  0  0  0  0  0  0  0  0  0  0  0
  -34.3360   71.6474   63.8253 H   0  0  0  0  0  0  0  0  0  0  0  0
  -34.0399   71.5181   66.1499 H   0  0  0  0  0  0  0  0  0  0  0  0
  -32.1619   70.8745   64.8573 H   0  0  0  0  0  0  0  0  0  0  0  0
  -32.4378   68.9261   67.1126 H   0  0  0  0  0  0  0  0  0  0  0  0
  -30.9325   69.4152   66.3368 H   0  0  0  0  0  0  0  0  0  0  0  0
  1  4  1  0  0  0  0
  1 31  1  0  0  0  0
  1 62  1  0  0  0  0
  2  3  1  0  0  0  0
  2  4  1  0  0  0  0
  2 63  1  0  0  0  0
  2 64  1  0  0  0  0
  3 55  1  0  0  0  0
  4  6  1  0  0  0  0
  4 65  1  6  0  0  0
  5  6  1  0  0  0  0
  5 66  1  0  0  0  0
  6  8  1  0  0  0  0
  6 67  1  1  0  0  0
  7 31  2  0  0  0  0
  8 10  2  0  0  0  0
  8 68  1  0  0  0  0
  9 56  1  0  0  0  0
  9 69  1  0  0  0  0
 10 12  1  0  0  0  0
 10 70  1  0  0  0  0
 11 57  1  0  0  0  0
 11 61  1  0  0  0  0
 12 14  1  0  0  0  0
 12 71  1  0  0  0  0
 12 72  1  0  0  0  0
 13 58  1  0  0  0  0
 13 73  1  0  0  0  0
 14 16  1  0  0  0  0
 14 74  1  0  0  0  0
 14 75  1  0  0  0  0
 15 55  1  0  0  0  0
 15 59  1  0  0  0  0
 16 18  1  0  0  0  0
 16 76  1  0  0  0  0
 16 77  1  0  0  0  0
 17 60  1  0  0  0  0
 17 78  1  0  0  0  0
 18 20  1  0  0  0  0
 18 79  1  0  0  0  0
 18 80  1  0  0  0  0
 19 61  1  0  0  0  0
 19 81  1  0  0  0  0
 20 22  1  0  0  0  0
 20 82  1  0  0  0  0
 20 83  1  0  0  0  0
 21 61  1  0  0  0  0
 22 24  1  0  0  0  0
 22 84  1  0  0  0  0
 22 85  1  0  0  0  0
 23 61  1  0  0  0  0
 23 86  1  0  0  0  0
 24 25  1  0  0  0  0
 24 87  1  0  0  0  0
 24 88  1  0  0  0  0
 25 26  1  0  0  0  0
 25 89  1  0  0  0  0
 25 90  1  0  0  0  0
 26 27  1  0  0  0  0
 26 91  1  0  0  0  0
 26 92  1  0  0  0  0
 27 28  1  0  0  0  0
 27 93  1  0  0  0  0
 27 94  1  0  0  0  0
 28 29  1  0  0  0  0
 28 95  1  0  0  0  0
 28 96  1  0  0  0  0
 29 30  1  0  0  0  0
 29 97  1  0  0  0  0
 29 98  1  0  0  0  0
 30 99  1  0  0  0  0
 30100  1  0  0  0  0
 30101  1  0  0  0  0
 31 32  1  0  0  0  0
 32 33  1  0  0  0  0
 32102  1  0  0  0  0
 32103  1  0  0  0  0
 33 34  1  0  0  0  0
 33104  1  0  0  0  0
 33105  1  0  0  0  0
 34 35  1  0  0  0  0
 34106  1  0  0  0  0
 34107  1  0  0  0  0
 35 36  1  0  0  0  0
 35108  1  0  0  0  0
 35109  1  0  0  0  0
 36 37  1  0  0  0  0
 36110  1  0  0  0  0
 36111  1  0  0  0  0
 37 38  1  0  0  0  0
 37112  1  0  0  0  0
 37113  1  0  0  0  0
 38 39  1  0  0  0  0
 38114  1  0  0  0  0
 38115  1  0  0  0  0
 39 40  1  0  0  0  0
 39116  1  0  0  0  0
 39117  1  0  0  0  0
 40 41  1  0  0  0  0
 40118  1  0  0  0  0
 40119  1  0  0  0  0
 41 42  1  0  0  0  0
 41120  1  0  0  0  0
 41121  1  0  0  0  0
 42 43  1  0  0  0  0
 42122  1  0  0  0  0
 42123  1  0  0  0  0
 43 44  1  0  0  0  0
 43124  1  0  0  0  0
 43125  1  0  0  0  0
 44 45  1  0  0  0  0
 44126  1  0  0  0  0
 44127  1  0  0  0  0
 45 46  2  0  0  0  0
 45128  1  0  0  0  0
 46 47  1  0  0  0  0
 46129  1  0  0  0  0
 47 48  1  0  0  0  0
 47130  1  0  0  0  0
 47131  1  0  0  0  0
 48 49  1  0  0  0  0
 48132  1  0  0  0  0
 48133  1  0  0  0  0
 49 50  1  0  0  0  0
 49134  1  0  0  0  0
 49135  1  0  0  0  0
 50 51  1  0  0  0  0
 50136  1  0  0  0  0
 50137  1  0  0  0  0
 51 52  1  0  0  0  0
 51138  1  0  0  0  0
 51139  1  0  0  0  0
 52 53  1  0  0  0  0
 52140  1  0  0  0  0
 52141  1  0  0  0  0
 53 54  1  0  0  0  0
 53142  1  0  0  0  0
 53143  1  0  0  0  0
 54144  1  0  0  0  0
 54145  1  0  0  0  0
 54146  1  0  0  0  0
 55 56  1  0  0  0  0
 55147  1  6  0  0  0
 56 57  1  0  0  0  0
 56148  1  1  0  0  0
 57 58  1  0  0  0  0
 57149  1  6  0  0  0
 58 59  1  0  0  0  0
 58150  1  1  0  0  0
 59 60  1  0  0  0  0
 59151  1  6  0  0  0
 60152  1  0  0  0  0
 60153  1  0  0  0  0
M  CHG  1  21  -1
M  END
$$$$
/media/chris/experiments/cd1a-new-docking/inputs/ligands/7ryn_ligand.pdb
 OpenBabel07032312553D

153153  0  0  1  0  0  0  0  0999 V2000
  -33.0340   65.1330   62.2120 N   0  0  0  0  0  0  0  0  0  0  0  0
  -32.0220   67.3480   62.3220 C   0  0  0  0  0  0  0  0  0  0  0  0
  -31.4051   67.0024   63.5673 O   0  0  0  0  0  0  0  0  0  0  0  0
  -32.1830   66.0840   61.5030 C   0  0  1  0  0  0  0  0  0  0  0  0
  -31.0548   64.2805   60.3587 O   0  0  0  0  0  0  0  0  0  0  0  0
  -30.8310   65.4230   61.1900 C   0  0  2  0  0  0  0  0  0  0  0  0
  -31.4954   63.4950   62.3441 O   0  0  0  0  0  0  0  0  0  0  0  0
  -30.1054   65.0399   62.4433 C   0  0  0  0  0  0  0  0  0  0  0  0
  -31.4046   66.6220   66.3415 O   0  0  0  0  0  0  0  0  0  0  0  0
  -28.9184   64.4680   62.4873 C   0  0  0  0  0  0  0  0  0  0  0  0
  -29.4155   68.1261   67.6954 O   0  0  0  0  0  0  0  0  0  0  0  0
  -28.2138   64.1114   63.7550 C   0  0  0  0  0  0  0  0  0  0  0  0
  -28.1411   69.3260   65.5933 O   0  0  0  0  0  0  0  0  0  0  0  0
  -29.0503   64.4971   64.9767 C   0  0  0  0  0  0  0  0  0  0  0  0
  -30.3909   69.0606   63.8198 O   0  0  0  0  0  0  0  0  0  0  0  0
  -28.3904   64.1801   66.3089 C   0  0  0  0  0  0  0  0  0  0  0  0
  -28.1534   70.6686   63.3778 O   0  0  0  0  0  0  0  0  0  0  0  0
  -27.0679   64.8924   66.5361 C   0  0  0  0  0  0  0  0  0  0  0  0
  -29.0352   66.5764   69.5011 O   0  0  0  0  0  0  0  0  0  0  0  0
  -26.4049   64.5573   67.8642 C   0  0  0  0  0  0  0  0  0  0  0  0
  -30.6879   66.0419   67.6849 O   0  5  0  0  0  0  0  0  0  0  0  0
  -26.0681   63.0828   68.0239 C   0  0  0  0  0  0  0  0  0  0  0  0
  -31.1144   67.7162   69.3133 O   0  0  0  0  0  0  0  0  0  0  0  0
  -27.2753   62.1660   67.9321 C   0  0  0  0  0  0  0  0  0  0  0  0
  -26.9488   60.6946   68.1074 C   0  0  0  0  0  0  0  0  0  0  0  0
  -25.9632   60.1567   67.0843 C   0  0  0  0  0  0  0  0  0  0  0  0
  -26.4524   60.3023   65.6553 C   0  0  0  0  0  0  0  0  0  0  0  0
  -27.7620   59.5938   65.3665 C   0  0  0  0  0  0  0  0  0  0  0  0
  -28.2039   59.7512   63.9248 C   0  0  0  0  0  0  0  0  0  0  0  0
  -29.5204   59.0574   63.6423 C   0  0  0  0  0  0  0  0  0  0  0  0
  -32.6252   63.9148   62.5768 C   0  0  0  0  0  0  0  0  0  0  0  0
  -33.6441   63.0766   63.3080 C   0  0  0  0  0  0  0  0  0  0  0  0
  -33.4627   61.5850   63.0573 C   0  0  0  0  0  0  0  0  0  0  0  0
  -33.5729   61.2200   61.5856 C   0  0  0  0  0  0  0  0  0  0  0  0
  -34.9065   61.5890   60.9574 C   0  0  0  0  0  0  0  0  0  0  0  0
  -35.0214   61.2077   59.4891 C   0  0  0  0  0  0  0  0  0  0  0  0
  -34.8862   59.7137   59.2243 C   0  0  0  0  0  0  0  0  0  0  0  0
  -34.9847   59.3367   57.7517 C   0  0  0  0  0  0  0  0  0  0  0  0
  -36.2970   59.7361   57.0818 C   0  0  0  0  0  0  0  0  0  0  0  0
  -36.5674   61.2398   57.0905 C   0  0  0  0  0  0  0  0  0  0  0  0
  -37.8863   61.6538   56.4381 C   0  0  0  0  0  0  0  0  0  0  0  0
  -38.1218   63.1643   56.4462 C   0  0  0  0  0  0  0  0  0  0  0  0
  -37.0724   63.9871   55.6989 C   0  0  0  0  0  0  0  0  0  0  0  0
  -37.3021   65.5006   55.7233 C   0  0  0  0  0  0  0  0  0  0  0  0
  -36.2552   66.2617   54.9625 C   0  0  0  0  0  0  0  0  0  0  0  0
  -36.3052   66.5868   53.6828 C   0  0  0  0  0  0  0  0  0  0  0  0
  -37.4191   66.2634   52.7337 C   0  0  0  0  0  0  0  0  0  0  0  0
  -36.9822   65.4096   51.5414 C   0  0  0  0  0  0  0  0  0  0  0  0
  -38.1171   65.1006   50.5740 C   0  0  0  0  0  0  0  0  0  0  0  0
  -38.7394   66.3465   49.9539 C   0  0  0  0  0  0  0  0  0  0  0  0
  -39.8899   66.0664   48.9938 C   0  0  0  0  0  0  0  0  0  0  0  0
  -40.4879   67.3202   48.3713 C   0  0  0  0  0  0  0  0  0  0  0  0
  -41.0446   68.3114   49.3809 C   0  0  0  0  0  0  0  0  0  0  0  0
  -42.1408   67.7205   50.2442 C   0  0  0  0  0  0  0  0  0  0  0  0
  -31.2104   68.0828   64.4327 C   0  0  2  0  0  0  0  0  0  0  0  0
  -30.5480   67.5584   65.7001 C   0  0  1  0  0  0  0  0  0  0  0  0
  -30.2364   68.7171   66.6389 C   0  0  2  0  0  0  0  0  0  0  0  0
  -29.4420   69.8007   65.9249 C   0  0  2  0  0  0  0  0  0  0  0  0
  -30.1703   70.2134   64.6482 C   0  0  1  0  0  0  0  0  0  0  0  0
  -29.3950   71.2080   63.8163 C   0  0  0  0  0  0  0  0  0  0  0  0
  -30.0256   66.9384   68.5560 S   0  0  0  0  0  0  0  0  0  0  0  0
  -33.9548   65.4029   62.4321 H   0  0  0  0  0  0  0  0  0  0  0  0
  -31.4053   68.0450   61.7940 H   0  0  0  0  0  0  0  0  0  0  0  0
  -32.9770   67.7979   62.4965 H   0  0  0  0  0  0  0  0  0  0  0  0
  -32.6374   66.3625   60.5752 H   0  0  0  0  0  0  0  0  0  0  0  0
  -31.5249   64.5525   59.5551 H   0  0  0  0  0  0  0  0  0  0  0  0
  -30.2105   66.1253   60.6735 H   0  0  0  0  0  0  0  0  0  0  0  0
  -30.5711   65.2392   63.3425 H   0  0  0  0  0  0  0  0  0  0  0  0
  -31.5955   65.8899   65.7345 H   0  0  0  0  0  0  0  0  0  0  0  0
  -28.4487   64.2543   61.5936 H   0  0  0  0  0  0  0  0  0  0  0  0
  -27.2790   64.6306   63.7933 H   0  0  0  0  0  0  0  0  0  0  0  0
  -28.0568   63.0531   63.7707 H   0  0  0  0  0  0  0  0  0  0  0  0
  -27.6765   69.0633   66.4032 H   0  0  0  0  0  0  0  0  0  0  0  0
  -29.9791   63.9682   64.9280 H   0  0  0  0  0  0  0  0  0  0  0  0
  -29.1756   65.5592   64.9407 H   0  0  0  0  0  0  0  0  0  0  0  0
  -28.2151   63.1255   66.3536 H   0  0  0  0  0  0  0  0  0  0  0  0
  -29.0583   64.5231   67.0712 H   0  0  0  0  0  0  0  0  0  0  0  0
  -27.6822   71.3306   62.8482 H   0  0  0  0  0  0  0  0  0  0  0  0
  -27.2442   65.9473   66.5047 H   0  0  0  0  0  0  0  0  0  0  0  0
  -26.4024   64.5629   65.7659 H   0  0  0  0  0  0  0  0  0  0  0  0
  -28.3292   66.0818   69.0563 H   0  0  0  0  0  0  0  0  0  0  0  0
  -27.0690   64.8398   68.6542 H   0  0  0  0  0  0  0  0  0  0  0  0
  -25.4802   65.0948   67.8968 H   0  0  0  0  0  0  0  0  0  0  0  0
  -25.6100   62.9429   68.9807 H   0  0  0  0  0  0  0  0  0  0  0  0
  -25.4162   62.8223   67.2163 H   0  0  0  0  0  0  0  0  0  0  0  0
  -30.6977   68.3443   69.9238 H   0  0  0  0  0  0  0  0  0  0  0  0
  -27.7256   62.2983   66.9706 H   0  0  0  0  0  0  0  0  0  0  0  0
  -27.9296   62.4353   68.7347 H   0  0  0  0  0  0  0  0  0  0  0  0
  -27.8577   60.1358   68.0259 H   0  0  0  0  0  0  0  0  0  0  0  0
  -26.4876   60.5910   69.0674 H   0  0  0  0  0  0  0  0  0  0  0  0
  -25.7974   59.1186   67.2837 H   0  0  0  0  0  0  0  0  0  0  0  0
  -25.0641   60.7297   67.1744 H   0  0  0  0  0  0  0  0  0  0  0  0
  -25.7045   59.9022   65.0031 H   0  0  0  0  0  0  0  0  0  0  0  0
  -26.6284   61.3458   65.4975 H   0  0  0  0  0  0  0  0  0  0  0  0
  -28.5195   60.0003   66.0036 H   0  0  0  0  0  0  0  0  0  0  0  0
  -27.6127   58.5498   65.5478 H   0  0  0  0  0  0  0  0  0  0  0  0
  -27.4523   59.3335   63.2880 H   0  0  0  0  0  0  0  0  0  0  0  0
  -28.3407   60.7961   63.7391 H   0  0  0  0  0  0  0  0  0  0  0  0
  -29.4154   58.0074   63.8195 H   0  0  0  0  0  0  0  0  0  0  0  0
  -29.7980   59.2209   62.6219 H   0  0  0  0  0  0  0  0  0  0  0  0
  -30.2778   59.4538   64.2858 H   0  0  0  0  0  0  0  0  0  0  0  0
  -34.6219   63.3629   62.9810 H   0  0  0  0  0  0  0  0  0  0  0  0
  -33.5131   63.2478   64.3561 H   0  0  0  0  0  0  0  0  0  0  0  0
  -34.2162   61.0527   63.5994 H   0  0  0  0  0  0  0  0  0  0  0  0
  -32.4788   61.3197   63.3834 H   0  0  0  0  0  0  0  0  0  0  0  0
  -33.4363   60.1631   61.4896 H   0  0  0  0  0  0  0  0  0  0  0  0
  -32.8212   61.7800   61.0698 H   0  0  0  0  0  0  0  0  0  0  0  0
  -35.0376   62.6476   61.0421 H   0  0  0  0  0  0  0  0  0  0  0  0
  -35.6600   61.0391   61.4815 H   0  0  0  0  0  0  0  0  0  0  0  0
  -34.2510   61.7164   58.9482 H   0  0  0  0  0  0  0  0  0  0  0  0
  -36.0034   61.4906   59.1719 H   0  0  0  0  0  0  0  0  0  0  0  0
  -35.6641   59.2056   59.7550 H   0  0  0  0  0  0  0  0  0  0  0  0
  -33.9094   59.4269   59.5538 H   0  0  0  0  0  0  0  0  0  0  0  0
  -34.8778   58.2752   57.6707 H   0  0  0  0  0  0  0  0  0  0  0  0
  -34.2097   59.8753   57.2475 H   0  0  0  0  0  0  0  0  0  0  0  0
  -37.0988   59.2472   57.5946 H   0  0  0  0  0  0  0  0  0  0  0  0
  -36.2229   59.4411   56.0560 H   0  0  0  0  0  0  0  0  0  0  0  0
  -35.7699   61.7252   56.5678 H   0  0  0  0  0  0  0  0  0  0  0  0
  -36.6338   61.5297   58.1183 H   0  0  0  0  0  0  0  0  0  0  0  0
  -38.6884   61.1829   56.9670 H   0  0  0  0  0  0  0  0  0  0  0  0
  -37.8410   61.3474   55.4139 H   0  0  0  0  0  0  0  0  0  0  0  0
  -38.1369   63.4923   57.4646 H   0  0  0  0  0  0  0  0  0  0  0  0
  -39.0473   63.3249   55.9338 H   0  0  0  0  0  0  0  0  0  0  0  0
  -37.0658   63.6684   54.6775 H   0  0  0  0  0  0  0  0  0  0  0  0
  -36.1436   63.8165   56.2021 H   0  0  0  0  0  0  0  0  0  0  0  0
  -37.2927   65.8312   56.7409 H   0  0  0  0  0  0  0  0  0  0  0  0
  -38.2438   65.6905   55.2521 H   0  0  0  0  0  0  0  0  0  0  0  0
  -35.4183   66.5588   55.4881 H   0  0  0  0  0  0  0  0  0  0  0  0
  -35.5029   67.1121   53.3014 H   0  0  0  0  0  0  0  0  0  0  0  0
  -37.8234   67.1816   52.3617 H   0  0  0  0  0  0  0  0  0  0  0  0
  -38.1400   65.6920   53.2803 H   0  0  0  0  0  0  0  0  0  0  0  0
  -36.5899   64.4853   51.9111 H   0  0  0  0  0  0  0  0  0  0  0  0
  -36.2491   65.9712   51.0010 H   0  0  0  0  0  0  0  0  0  0  0  0
  -38.8792   64.5685   51.1040 H   0  0  0  0  0  0  0  0  0  0  0  0
  -37.7024   64.5230   49.7744 H   0  0  0  0  0  0  0  0  0  0  0  0
  -37.9760   66.8699   49.4172 H   0  0  0  0  0  0  0  0  0  0  0  0
  -39.1485   66.9169   50.7615 H   0  0  0  0  0  0  0  0  0  0  0  0
  -40.6613   65.5554   49.5312 H   0  0  0  0  0  0  0  0  0  0  0  0
  -39.4921   65.4793   48.1926 H   0  0  0  0  0  0  0  0  0  0  0  0
  -41.2820   67.0247   47.7179 H   0  0  0  0  0  0  0  0  0  0  0  0
  -39.6924   67.8182   47.8574 H   0  0  0  0  0  0  0  0  0  0  0  0
  -41.4428   69.1514   48.8510 H   0  0  0  0  0  0  0  0  0  0  0  0
  -40.2421   68.5941   50.0297 H   0  0  0  0  0  0  0  0  0  0  0  0
  -42.9623   67.4257   49.6253 H   0  0  0  0  0  0  0  0  0  0  0  0
  -42.4715   68.4523   50.9513 H   0  0  0  0  0  0  0  0  0  0  0  0
  -41.7625   66.8661   50.7656 H   0  0  0  0  0  0  0  0  0  0  0  0
  -32.1486   68.5400   64.6687 H   0  0  0  0  0  0  0  0  0  0  0  0
  -29.6327   67.0681   65.4416 H   0  0  0  0  0  0  0  0  0  0  0  0
  -31.1294   69.1768   67.0080 H   0  0  0  0  0  0  0  0  0  0  0  0
  -29.3488   70.6437   66.5772 H   0  0  0  0  0  0  0  0  0  0  0  0
  -31.0858   70.6667   64.9665 H   0  0  0  0  0  0  0  0  0  0  0  0
  -29.9792   71.4753   62.9606 H   0  0  0  0  0  0  0  0  0  0  0  0
  -29.1918   72.0657   64.4231 H   0  0  0  0  0  0  0  0  0  0  0  0
  1  4  1  0  0  0  0
  1 31  1  0  0  0  0
  1 62  1  0  0  0  0
  2  3  1  0  0  0  0
  2  4  1  0  0  0  0
  2 63  1  0  0  0  0
  2 64  1  0  0  0  0
  3 55  1  0  0  0  0
  4  6  1  0  0  0  0
  4 65  1  6  0  0  0
  5  6  1  0  0  0  0
  5 66  1  0  0  0  0
  6  8  1  0  0  0  0
  6 67  1  6  0  0  0
  7 31  2  0  0  0  0
  8 10  2  0  0  0  0
  8 68  1  0  0  0  0
  9 56  1  0  0  0  0
  9 69  1  0  0  0  0
 10 12  1  0  0  0  0
 10 70  1  0  0  0  0
 11 57  1  0  0  0  0
 11 61  1  0  0  0  0
 12 14  1  0  0  0  0
 12 71  1  0  0  0  0
 12 72  1  0  0  0  0
 13 58  1  0  0  0  0
 13 73  1  0  0  0  0
 14 16  1  0  0  0  0
 14 74  1  0  0  0  0
 14 75  1  0  0  0  0
 15 55  1  0  0  0  0
 15 59  1  0  0  0  0
 16 18  1  0  0  0  0
 16 76  1  0  0  0  0
 16 77  1  0  0  0  0
 17 60  1  0  0  0  0
 17 78  1  0  0  0  0
 18 20  1  0  0  0  0
 18 79  1  0  0  0  0
 18 80  1  0  0  0  0
 19 61  1  0  0  0  0
 19 81  1  0  0  0  0
 20 22  1  0  0  0  0
 20 82  1  0  0  0  0
 20 83  1  0  0  0  0
 21 61  1  0  0  0  0
 22 24  1  0  0  0  0
 22 84  1  0  0  0  0
 22 85  1  0  0  0  0
 23 61  1  0  0  0  0
 23 86  1  0  0  0  0
 24 25  1  0  0  0  0
 24 87  1  0  0  0  0
 24 88  1  0  0  0  0
 25 26  1  0  0  0  0
 25 89  1  0  0  0  0
 25 90  1  0  0  0  0
 26 27  1  0  0  0  0
 26 91  1  0  0  0  0
 26 92  1  0  0  0  0
 27 28  1  0  0  0  0
 27 93  1  0  0  0  0
 27 94  1  0  0  0  0
 28 29  1  0  0  0  0
 28 95  1  0  0  0  0
 28 96  1  0  0  0  0
 29 30  1  0  0  0  0
 29 97  1  0  0  0  0
 29 98  1  0  0  0  0
 30 99  1  0  0  0  0
 30100  1  0  0  0  0
 30101  1  0  0  0  0
 31 32  1  0  0  0  0
 32 33  1  0  0  0  0
 32102  1  0  0  0  0
 32103  1  0  0  0  0
 33 34  1  0  0  0  0
 33104  1  0  0  0  0
 33105  1  0  0  0  0
 34 35  1  0  0  0  0
 34106  1  0  0  0  0
 34107  1  0  0  0  0
 35 36  1  0  0  0  0
 35108  1  0  0  0  0
 35109  1  0  0  0  0
 36 37  1  0  0  0  0
 36110  1  0  0  0  0
 36111  1  0  0  0  0
 37 38  1  0  0  0  0
 37112  1  0  0  0  0
 37113  1  0  0  0  0
 38 39  1  0  0  0  0
 38114  1  0  0  0  0
 38115  1  0  0  0  0
 39 40  1  0  0  0  0
 39116  1  0  0  0  0
 39117  1  0  0  0  0
 40 41  1  0  0  0  0
 40118  1  0  0  0  0
 40119  1  0  0  0  0
 41 42  1  0  0  0  0
 41120  1  0  0  0  0
 41121  1  0  0  0  0
 42 43  1  0  0  0  0
 42122  1  0  0  0  0
 42123  1  0  0  0  0
 43 44  1  0  0  0  0
 43124  1  0  0  0  0
 43125  1  0  0  0  0
 44 45  1  0  0  0  0
 44126  1  0  0  0  0
 44127  1  0  0  0  0
 45 46  2  0  0  0  0
 45128  1  0  0  0  0
 46 47  1  0  0  0  0
 46129  1  0  0  0  0
 47 48  1  0  0  0  0
 47130  1  0  0  0  0
 47131  1  0  0  0  0
 48 49  1  0  0  0  0
 48132  1  0  0  0  0
 48133  1  0  0  0  0
 49 50  1  0  0  0  0
 49134  1  0  0  0  0
 49135  1  0  0  0  0
 50 51  1  0  0  0  0
 50136  1  0  0  0  0
 50137  1  0  0  0  0
 51 52  1  0  0  0  0
 51138  1  0  0  0  0
 51139  1  0  0  0  0
 52 53  1  0  0  0  0
 52140  1  0  0  0  0
 52141  1  0  0  0  0
 53 54  1  0  0  0  0
 53142  1  0  0  0  0
 53143  1  0  0  0  0
 54144  1  0  0  0  0
 54145  1  0  0  0  0
 54146  1  0  0  0  0
 55 56  1  0  0  0  0
 55147  1  1  0  0  0
 56 57  1  0  0  0  0
 56148  1  6  0  0  0
 57 58  1  0  0  0  0
 57149  1  1  0  0  0
 58 59  1  0  0  0  0
 58150  1  1  0  0  0
 59 60  1  0  0  0  0
 59151  1  1  0  0  0
 60152  1  0  0  0  0
 60153  1  0  0  0  0
M  CHG  1  21  -1
M  END
$$$$
/media/chris/experiments/cd1a-new-docking/inputs/ligands/7ryn_ligand.pdb
 OpenBabel07032312553D

153153  0  0  1  0  0  0  0  0999 V2000
  -33.0340   65.1330   62.2120 N   0  0  0  0  0  0  0  0  0  0  0  0
  -32.0220   67.3480   62.3220 C   0  0  0  0  0  0  0  0  0  0  0  0
  -31.4051   67.0024   63.5673 O   0  0  0  0  0  0  0  0  0  0  0  0
  -32.1830   66.0840   61.5030 C   0  0  1  0  0  0  0  0  0  0  0  0
  -30.2154   65.0225   62.4176 O   0  0  0  0  0  0  0  0  0  0  0  0
  -30.8310   65.4230   61.1900 C   0  0  2  0  0  0  0  0  0  0  0  0
  -31.7322   64.9724   64.0416 O   0  0  0  0  0  0  0  0  0  0  0  0
  -29.9369   66.3439   60.4177 C   0  0  0  0  0  0  0  0  0  0  0  0
  -31.4046   66.6220   66.3415 O   0  0  0  0  0  0  0  0  0  0  0  0
  -30.3493   67.2791   59.5850 C   0  0  0  0  0  0  0  0  0  0  0  0
  -29.4155   68.1261   67.6954 O   0  0  0  0  0  0  0  0  0  0  0  0
  -29.4320   68.1925   58.8402 C   0  0  0  0  0  0  0  0  0  0  0  0
  -28.1411   69.3260   65.5933 O   0  0  0  0  0  0  0  0  0  0  0  0
  -30.0369   68.6037   57.4962 C   0  0  0  0  0  0  0  0  0  0  0  0
  -30.3909   69.0606   63.8198 O   0  0  0  0  0  0  0  0  0  0  0  0
  -29.1521   69.5229   56.6698 C   0  0  0  0  0  0  0  0  0  0  0  0
  -28.1534   70.6686   63.3778 O   0  0  0  0  0  0  0  0  0  0  0  0
  -27.8078   68.9235   56.2936 C   0  0  0  0  0  0  0  0  0  0  0  0
  -29.0352   66.5764   69.5011 O   0  0  0  0  0  0  0  0  0  0  0  0
  -26.9206   69.8553   55.4809 C   0  0  0  0  0  0  0  0  0  0  0  0
  -30.6879   66.0419   67.6849 O   0  5  0  0  0  0  0  0  0  0  0  0
  -27.5438   70.3001   54.1668 C   0  0  0  0  0  0  0  0  0  0  0  0
  -31.1144   67.7162   69.3133 O   0  0  0  0  0  0  0  0  0  0  0  0
  -27.8873   69.1527   53.2332 C   0  0  0  0  0  0  0  0  0  0  0  0
  -28.4940   69.5903   51.9130 C   0  0  0  0  0  0  0  0  0  0  0  0
  -29.7822   70.3817   52.0600 C   0  0  0  0  0  0  0  0  0  0  0  0
  -29.6025   71.6676   52.8453 C   0  0  0  0  0  0  0  0  0  0  0  0
  -30.8741   72.4744   53.0253 C   0  0  0  0  0  0  0  0  0  0  0  0
  -31.9461   71.7118   53.7788 C   0  0  0  0  0  0  0  0  0  0  0  0
  -33.2213   72.5126   53.9428 C   0  0  0  0  0  0  0  0  0  0  0  0
  -32.7434   64.6519   63.4237 C   0  0  0  0  0  0  0  0  0  0  0  0
  -33.7473   63.6846   63.9996 C   0  0  0  0  0  0  0  0  0  0  0  0
  -35.1647   63.9518   63.5095 C   0  0  0  0  0  0  0  0  0  0  0  0
  -36.1814   62.9890   64.1016 C   0  0  0  0  0  0  0  0  0  0  0  0
  -37.6033   63.2201   63.6178 C   0  0  0  0  0  0  0  0  0  0  0  0
  -38.1404   64.6094   63.9275 C   0  0  0  0  0  0  0  0  0  0  0  0
  -38.1640   64.9480   65.4126 C   0  0  0  0  0  0  0  0  0  0  0  0
  -38.7181   66.3330   65.7210 C   0  0  0  0  0  0  0  0  0  0  0  0
  -38.7326   66.6939   67.2042 C   0  0  0  0  0  0  0  0  0  0  0  0
  -39.3061   68.0784   67.5019 C   0  0  0  0  0  0  0  0  0  0  0  0
  -40.7588   68.2730   67.0683 C   0  0  0  0  0  0  0  0  0  0  0  0
  -41.3001   69.6721   67.3631 C   0  0  0  0  0  0  0  0  0  0  0  0
  -42.7564   69.9010   66.9590 C   0  0  0  0  0  0  0  0  0  0  0  0
  -43.7699   68.9882   67.6545 C   0  0  0  0  0  0  0  0  0  0  0  0
  -43.7722   69.1498   69.1472 C   0  0  0  0  0  0  0  0  0  0  0  0
  -44.0590   68.2107   70.0314 C   0  0  0  0  0  0  0  0  0  0  0  0
  -44.4371   66.7939   69.7218 C   0  0  0  0  0  0  0  0  0  0  0  0
  -43.3559   66.0210   68.9635 C   0  0  0  0  0  0  0  0  0  0  0  0
  -42.0447   65.9108   69.7303 C   0  0  0  0  0  0  0  0  0  0  0  0
  -42.1825   65.1826   71.0626 C   0  0  0  0  0  0  0  0  0  0  0  0
  -42.6691   63.7426   70.9475 C   0  0  0  0  0  0  0  0  0  0  0  0
  -44.0315   63.6074   70.2820 C   0  0  0  0  0  0  0  0  0  0  0  0
  -44.5337   62.1761   70.1776 C   0  0  0  0  0  0  0  0  0  0  0  0
  -44.7006   61.5100   71.5283 C   0  0  0  0  0  0  0  0  0  0  0  0
  -31.2104   68.0828   64.4327 C   0  0  2  0  0  0  0  0  0  0  0  0
  -30.5480   67.5584   65.7001 C   0  0  1  0  0  0  0  0  0  0  0  0
  -30.2364   68.7171   66.6389 C   0  0  2  0  0  0  0  0  0  0  0  0
  -29.4420   69.8007   65.9249 C   0  0  2  0  0  0  0  0  0  0  0  0
  -30.1703   70.2134   64.6482 C   0  0  1  0  0  0  0  0  0  0  0  0
  -29.3950   71.2080   63.8163 C   0  0  0  0  0  0  0  0  0  0  0  0
  -30.0256   66.9384   68.5560 S   0  0  0  0  0  0  0  0  0  0  0  0
  -33.8632   64.8313   61.7754 H   0  0  0  0  0  0  0  0  0  0  0  0
  -31.4053   68.0450   61.7940 H   0  0  0  0  0  0  0  0  0  0  0  0
  -32.9770   67.7979   62.4965 H   0  0  0  0  0  0  0  0  0  0  0  0
  -32.6374   66.3625   60.5752 H   0  0  0  0  0  0  0  0  0  0  0  0
  -30.8116   64.4280   62.8994 H   0  0  0  0  0  0  0  0  0  0  0  0
  -30.9971   64.5628   60.5757 H   0  0  0  0  0  0  0  0  0  0  0  0
  -28.9186   66.2380   60.5475 H   0  0  0  0  0  0  0  0  0  0  0  0
  -31.5955   65.8899   65.7345 H   0  0  0  0  0  0  0  0  0  0  0  0
  -31.3654   67.3862   59.4394 H   0  0  0  0  0  0  0  0  0  0  0  0
  -28.5035   67.6900   58.6665 H   0  0  0  0  0  0  0  0  0  0  0  0
  -29.2784   69.0735   59.4278 H   0  0  0  0  0  0  0  0  0  0  0  0
  -27.6765   69.0633   66.4032 H   0  0  0  0  0  0  0  0  0  0  0  0
  -30.9615   69.1083   57.6847 H   0  0  0  0  0  0  0  0  0  0  0  0
  -30.1630   67.7058   56.9281 H   0  0  0  0  0  0  0  0  0  0  0  0
  -28.9753   70.4145   57.2343 H   0  0  0  0  0  0  0  0  0  0  0  0
  -29.6728   69.7074   55.7535 H   0  0  0  0  0  0  0  0  0  0  0  0
  -27.6822   71.3306   62.8482 H   0  0  0  0  0  0  0  0  0  0  0  0
  -27.9831   68.0388   55.7179 H   0  0  0  0  0  0  0  0  0  0  0  0
  -27.2908   68.7237   57.2088 H   0  0  0  0  0  0  0  0  0  0  0  0
  -28.3292   66.0818   69.0563 H   0  0  0  0  0  0  0  0  0  0  0  0
  -26.0043   69.3466   55.2653 H   0  0  0  0  0  0  0  0  0  0  0  0
  -26.7695   70.7360   56.0696 H   0  0  0  0  0  0  0  0  0  0  0  0
  -26.8528   70.9465   53.6672 H   0  0  0  0  0  0  0  0  0  0  0  0
  -28.4629   70.7921   54.4079 H   0  0  0  0  0  0  0  0  0  0  0  0
  -30.6977   68.3443   69.9238 H   0  0  0  0  0  0  0  0  0  0  0  0
  -28.5873   68.5134   53.7294 H   0  0  0  0  0  0  0  0  0  0  0  0
  -26.9679   68.6568   53.0016 H   0  0  0  0  0  0  0  0  0  0  0  0
  -28.6999   68.7166   51.3308 H   0  0  0  0  0  0  0  0  0  0  0  0
  -27.7832   70.2383   51.4441 H   0  0  0  0  0  0  0  0  0  0  0  0
  -30.5014   69.7714   52.5652 H   0  0  0  0  0  0  0  0  0  0  0  0
  -30.1065   70.6504   51.0764 H   0  0  0  0  0  0  0  0  0  0  0  0
  -28.8894   72.2771   52.3308 H   0  0  0  0  0  0  0  0  0  0  0  0
  -29.2791   71.3844   53.8252 H   0  0  0  0  0  0  0  0  0  0  0  0
  -31.2539   72.7356   52.0597 H   0  0  0  0  0  0  0  0  0  0  0  0
  -30.6287   73.3425   53.6007 H   0  0  0  0  0  0  0  0  0  0  0  0
  -31.5711   71.4613   54.7492 H   0  0  0  0  0  0  0  0  0  0  0  0
  -32.1828   70.8367   53.2104 H   0  0  0  0  0  0  0  0  0  0  0  0
  -33.0167   73.3971   54.5091 H   0  0  0  0  0  0  0  0  0  0  0  0
  -33.9504   71.9212   54.4561 H   0  0  0  0  0  0  0  0  0  0  0  0
  -33.5977   72.7853   52.9790 H   0  0  0  0  0  0  0  0  0  0  0  0
  -33.7318   63.7687   65.0661 H   0  0  0  0  0  0  0  0  0  0  0  0
  -33.4726   62.7018   63.6777 H   0  0  0  0  0  0  0  0  0  0  0  0
  -35.1823   63.8557   62.4439 H   0  0  0  0  0  0  0  0  0  0  0  0
  -35.4341   64.9390   63.8221 H   0  0  0  0  0  0  0  0  0  0  0  0
  -36.1662   63.0959   65.1661 H   0  0  0  0  0  0  0  0  0  0  0  0
  -35.9009   62.0068   63.7831 H   0  0  0  0  0  0  0  0  0  0  0  0
  -38.2404   62.5000   64.0874 H   0  0  0  0  0  0  0  0  0  0  0  0
  -37.5892   63.1225   62.5524 H   0  0  0  0  0  0  0  0  0  0  0  0
  -39.1400   64.6752   63.5516 H   0  0  0  0  0  0  0  0  0  0  0  0
  -37.4779   65.3084   63.4613 H   0  0  0  0  0  0  0  0  0  0  0  0
  -37.1628   64.8947   65.7863 H   0  0  0  0  0  0  0  0  0  0  0  0
  -38.8157   64.2410   65.8822 H   0  0  0  0  0  0  0  0  0  0  0  0
  -39.7228   66.3797   65.3559 H   0  0  0  0  0  0  0  0  0  0  0  0
  -38.0661   67.0344   65.2437 H   0  0  0  0  0  0  0  0  0  0  0  0
  -37.7269   66.6611   67.5682 H   0  0  0  0  0  0  0  0  0  0  0  0
  -39.3700   65.9843   67.6890 H   0  0  0  0  0  0  0  0  0  0  0  0
  -38.7062   68.8043   66.9938 H   0  0  0  0  0  0  0  0  0  0  0  0
  -39.2900   68.1905   68.5659 H   0  0  0  0  0  0  0  0  0  0  0  0
  -41.3653   67.5591   67.5854 H   0  0  0  0  0  0  0  0  0  0  0  0
  -40.7915   68.1396   66.0071 H   0  0  0  0  0  0  0  0  0  0  0  0
  -40.6946   70.3798   66.8364 H   0  0  0  0  0  0  0  0  0  0  0  0
  -41.2634   69.7884   68.4261 H   0  0  0  0  0  0  0  0  0  0  0  0
  -42.8371   69.7439   65.9037 H   0  0  0  0  0  0  0  0  0  0  0  0
  -42.9973   70.8996   67.2584 H   0  0  0  0  0  0  0  0  0  0  0  0
  -43.5306   67.9718   67.4213 H   0  0  0  0  0  0  0  0  0  0  0  0
  -44.7426   69.2591   67.3003 H   0  0  0  0  0  0  0  0  0  0  0  0
  -43.5269   70.0814   69.5172 H   0  0  0  0  0  0  0  0  0  0  0  0
  -44.0190   68.4777   71.0274 H   0  0  0  0  0  0  0  0  0  0  0  0
  -45.3259   66.8038   69.1262 H   0  0  0  0  0  0  0  0  0  0  0  0
  -44.5790   66.2962   70.6582 H   0  0  0  0  0  0  0  0  0  0  0  0
  -43.1666   66.5221   68.0372 H   0  0  0  0  0  0  0  0  0  0  0  0
  -43.7216   65.0263   68.8162 H   0  0  0  0  0  0  0  0  0  0  0  0
  -41.6784   66.8982   69.9196 H   0  0  0  0  0  0  0  0  0  0  0  0
  -41.3720   65.3392   69.1257 H   0  0  0  0  0  0  0  0  0  0  0  0
  -42.8788   65.7235   71.6688 H   0  0  0  0  0  0  0  0  0  0  0  0
  -41.2021   65.1398   71.4892 H   0  0  0  0  0  0  0  0  0  0  0  0
  -42.7315   63.3276   71.9318 H   0  0  0  0  0  0  0  0  0  0  0  0
  -41.9667   63.2241   70.3290 H   0  0  0  0  0  0  0  0  0  0  0  0
  -43.9642   64.0125   69.2940 H   0  0  0  0  0  0  0  0  0  0  0  0
  -44.7292   64.1342   70.8990 H   0  0  0  0  0  0  0  0  0  0  0  0
  -43.8324   61.6092   69.6017 H   0  0  0  0  0  0  0  0  0  0  0  0
  -45.4973   62.2068   69.7134 H   0  0  0  0  0  0  0  0  0  0  0  0
  -43.7525   61.4624   72.0221 H   0  0  0  0  0  0  0  0  0  0  0  0
  -45.0823   60.5196   71.3929 H   0  0  0  0  0  0  0  0  0  0  0  0
  -45.3847   62.0776   72.1238 H   0  0  0  0  0  0  0  0  0  0  0  0
  -32.1486   68.5400   64.6687 H   0  0  0  0  0  0  0  0  0  0  0  0
  -29.6327   67.0681   65.4416 H   0  0  0  0  0  0  0  0  0  0  0  0
  -31.1294   69.1768   67.0080 H   0  0  0  0  0  0  0  0  0  0  0  0
  -29.3488   70.6437   66.5772 H   0  0  0  0  0  0  0  0  0  0  0  0
  -31.0858   70.6667   64.9665 H   0  0  0  0  0  0  0  0  0  0  0  0
  -29.9792   71.4753   62.9606 H   0  0  0  0  0  0  0  0  0  0  0  0
  -29.1918   72.0657   64.4231 H   0  0  0  0  0  0  0  0  0  0  0  0
  1  4  1  0  0  0  0
  1 31  1  0  0  0  0
  1 62  1  0  0  0  0
  2  3  1  0  0  0  0
  2  4  1  0  0  0  0
  2 63  1  0  0  0  0
  2 64  1  0  0  0  0
  3 55  1  0  0  0  0
  4  6  1  0  0  0  0
  4 65  1  6  0  0  0
  5  6  1  0  0  0  0
  5 66  1  0  0  0  0
  6  8  1  0  0  0  0
  6 67  1  6  0  0  0
  7 31  2  0  0  0  0
  8 10  2  0  0  0  0
  8 68  1  0  0  0  0
  9 56  1  0  0  0  0
  9 69  1  0  0  0  0
 10 12  1  0  0  0  0
 10 70  1  0  0  0  0
 11 57  1  0  0  0  0
 11 61  1  0  0  0  0
 12 14  1  0  0  0  0
 12 71  1  0  0  0  0
 12 72  1  0  0  0  0
 13 58  1  0  0  0  0
 13 73  1  0  0  0  0
 14 16  1  0  0  0  0
 14 74  1  0  0  0  0
 14 75  1  0  0  0  0
 15 55  1  0  0  0  0
 15 59  1  0  0  0  0
 16 18  1  0  0  0  0
 16 76  1  0  0  0  0
 16 77  1  0  0  0  0
 17 60  1  0  0  0  0
 17 78  1  0  0  0  0
 18 20  1  0  0  0  0
 18 79  1  0  0  0  0
 18 80  1  0  0  0  0
 19 61  1  0  0  0  0
 19 81  1  0  0  0  0
 20 22  1  0  0  0  0
 20 82  1  0  0  0  0
 20 83  1  0  0  0  0
 21 61  1  0  0  0  0
 22 24  1  0  0  0  0
 22 84  1  0  0  0  0
 22 85  1  0  0  0  0
 23 61  1  0  0  0  0
 23 86  1  0  0  0  0
 24 25  1  0  0  0  0
 24 87  1  0  0  0  0
 24 88  1  0  0  0  0
 25 26  1  0  0  0  0
 25 89  1  0  0  0  0
 25 90  1  0  0  0  0
 26 27  1  0  0  0  0
 26 91  1  0  0  0  0
 26 92  1  0  0  0  0
 27 28  1  0  0  0  0
 27 93  1  0  0  0  0
 27 94  1  0  0  0  0
 28 29  1  0  0  0  0
 28 95  1  0  0  0  0
 28 96  1  0  0  0  0
 29 30  1  0  0  0  0
 29 97  1  0  0  0  0
 29 98  1  0  0  0  0
 30 99  1  0  0  0  0
 30100  1  0  0  0  0
 30101  1  0  0  0  0
 31 32  1  0  0  0  0
 32 33  1  0  0  0  0
 32102  1  0  0  0  0
 32103  1  0  0  0  0
 33 34  1  0  0  0  0
 33104  1  0  0  0  0
 33105  1  0  0  0  0
 34 35  1  0  0  0  0
 34106  1  0  0  0  0
 34107  1  0  0  0  0
 35 36  1  0  0  0  0
 35108  1  0  0  0  0
 35109  1  0  0  0  0
 36 37  1  0  0  0  0
 36110  1  0  0  0  0
 36111  1  0  0  0  0
 37 38  1  0  0  0  0
 37112  1  0  0  0  0
 37113  1  0  0  0  0
 38 39  1  0  0  0  0
 38114  1  0  0  0  0
 38115  1  0  0  0  0
 39 40  1  0  0  0  0
 39116  1  0  0  0  0
 39117  1  0  0  0  0
 40 41  1  0  0  0  0
 40118  1  0  0  0  0
 40119  1  0  0  0  0
 41 42  1  0  0  0  0
 41120  1  0  0  0  0
 41121  1  0  0  0  0
 42 43  1  0  0  0  0
 42122  1  0  0  0  0
 42123  1  0  0  0  0
 43 44  1  0  0  0  0
 43124  1  0  0  0  0
 43125  1  0  0  0  0
 44 45  1  0  0  0  0
 44126  1  0  0  0  0
 44127  1  0  0  0  0
 45 46  2  0  0  0  0
 45128  1  0  0  0  0
 46 47  1  0  0  0  0
 46129  1  0  0  0  0
 47 48  1  0  0  0  0
 47130  1  0  0  0  0
 47131  1  0  0  0  0
 48 49  1  0  0  0  0
 48132  1  0  0  0  0
 48133  1  0  0  0  0
 49 50  1  0  0  0  0
 49134  1  0  0  0  0
 49135  1  0  0  0  0
 50 51  1  0  0  0  0
 50136  1  0  0  0  0
 50137  1  0  0  0  0
 51 52  1  0  0  0  0
 51138  1  0  0  0  0
 51139  1  0  0  0  0
 52 53  1  0  0  0  0
 52140  1  0  0  0  0
 52141  1  0  0  0  0
 53 54  1  0  0  0  0
 53142  1  0  0  0  0
 53143  1  0  0  0  0
 54144  1  0  0  0  0
 54145  1  0  0  0  0
 54146  1  0  0  0  0
 55 56  1  0  0  0  0
 55147  1  1  0  0  0
 56 57  1  0  0  0  0
 56148  1  6  0  0  0
 57 58  1  0  0  0  0
 57149  1  1  0  0  0
 58 59  1  0  0  0  0
 58150  1  1  0  0  0
 59 60  1  0  0  0  0
 59151  1  1  0  0  0
 60152  1  0  0  0  0
 60153  1  0  0  0  0
M  CHG  1  21  -1
M  END
$$$$
/media/chris/experiments/cd1a-new-docking/inputs/ligands/7ryn_ligand.pdb
 OpenBabel07032312553D

153153  0  0  1  0  0  0  0  0999 V2000
  -33.0340   65.1330   62.2120 N   0  0  0  0  0  0  0  0  0  0  0  0
  -32.0220   67.3480   62.3220 C   0  0  0  0  0  0  0  0  0  0  0  0
  -31.1969   68.2589   61.5870 O   0  0  0  0  0  0  0  0  0  0  0  0
  -32.1830   66.0840   61.5030 C   0  0  1  0  0  0  0  0  0  0  0  0
  -30.2154   65.0225   62.4176 O   0  0  0  0  0  0  0  0  0  0  0  0
  -30.8310   65.4230   61.1900 C   0  0  2  0  0  0  0  0  0  0  0  0
  -34.9746   65.8457   61.3210 O   0  0  0  0  0  0  0  0  0  0  0  0
  -29.9369   66.3439   60.4177 C   0  0  0  0  0  0  0  0  0  0  0  0
  -32.9308   70.4319   61.2513 O   0  0  0  0  0  0  0  0  0  0  0  0
  -29.0262   65.9607   59.5448 C   0  0  0  0  0  0  0  0  0  0  0  0
  -33.4310   71.8685   63.6467 O   0  0  0  0  0  0  0  0  0  0  0  0
  -28.1594   66.9053   58.7787 C   0  0  0  0  0  0  0  0  0  0  0  0
  -32.0199   70.3807   65.4572 O   0  0  0  0  0  0  0  0  0  0  0  0
  -29.0018   67.8617   57.9320 C   0  0  0  0  0  0  0  0  0  0  0  0
  -30.2839   69.2401   63.4665 O   0  0  0  0  0  0  0  0  0  0  0  0
  -29.9488   68.7369   58.7369 C   0  0  0  0  0  0  0  0  0  0  0  0
  -27.9496   69.4112   65.0113 O   0  0  0  0  0  0  0  0  0  0  0  0
  -30.7983   69.6752   57.8968 C   0  0  0  0  0  0  0  0  0  0  0  0
  -32.8754   73.0302   65.6835 O   0  0  0  0  0  0  0  0  0  0  0  0
  -31.7316   70.5602   58.7102 C   0  0  0  0  0  0  0  0  0  0  0  0
  -34.9434   73.6356   64.3904 O   0  5  0  0  0  0  0  0  0  0  0  0
  -32.5908   71.4846   57.8613 C   0  0  0  0  0  0  0  0  0  0  0  0
  -32.7693   74.1557   63.5908 O   0  0  0  0  0  0  0  0  0  0  0  0
  -33.5090   70.7532   56.8979 C   0  0  0  0  0  0  0  0  0  0  0  0
  -34.3569   71.6698   56.0358 C   0  0  0  0  0  0  0  0  0  0  0  0
  -35.2670   72.5923   56.8285 C   0  0  0  0  0  0  0  0  0  0  0  0
  -36.2431   71.8433   57.7167 C   0  0  0  0  0  0  0  0  0  0  0  0
  -37.1707   70.9016   56.9731 C   0  0  0  0  0  0  0  0  0  0  0  0
  -36.4216   69.8157   56.2259 C   0  0  0  0  0  0  0  0  0  0  0  0
  -37.3485   68.8862   55.4699 C   0  0  0  0  0  0  0  0  0  0  0  0
  -34.3610   65.0876   62.0665 C   0  0  0  0  0  0  0  0  0  0  0  0
  -35.0703   64.0312   62.8766 C   0  0  0  0  0  0  0  0  0  0  0  0
  -34.1128   63.2023   63.7231 C   0  0  0  0  0  0  0  0  0  0  0  0
  -33.3436   64.0417   64.7305 C   0  0  0  0  0  0  0  0  0  0  0  0
  -32.3670   63.2443   65.5789 C   0  0  0  0  0  0  0  0  0  0  0  0
  -33.0208   62.1394   66.3951 C   0  0  0  0  0  0  0  0  0  0  0  0
  -32.0473   61.3488   67.2600 C   0  0  0  0  0  0  0  0  0  0  0  0
  -31.3165   62.1933   68.2960 C   0  0  0  0  0  0  0  0  0  0  0  0
  -30.4855   63.3331   67.7124 C   0  0  0  0  0  0  0  0  0  0  0  0
  -29.3964   62.8761   66.7432 C   0  0  0  0  0  0  0  0  0  0  0  0
  -28.5447   64.0052   66.1635 C   0  0  0  0  0  0  0  0  0  0  0  0
  -29.3559   65.0434   65.3882 C   0  0  0  0  0  0  0  0  0  0  0  0
  -30.4212   65.7743   66.2053 C   0  0  0  0  0  0  0  0  0  0  0  0
  -29.8847   66.5767   67.3937 C   0  0  0  0  0  0  0  0  0  0  0  0
  -28.9290   67.6593   66.9827 C   0  0  0  0  0  0  0  0  0  0  0  0
  -28.3040   68.4948   67.7932 C   0  0  0  0  0  0  0  0  0  0  0  0
  -28.4212   68.5280   69.2869 C   0  0  0  0  0  0  0  0  0  0  0  0
  -27.1529   69.0130   69.9923 C   0  0  0  0  0  0  0  0  0  0  0  0
  -25.9317   68.1535   69.6936 C   0  0  0  0  0  0  0  0  0  0  0  0
  -24.6706   68.6249   70.4090 C   0  0  0  0  0  0  0  0  0  0  0  0
  -23.4287   67.7916   70.1140 C   0  0  0  0  0  0  0  0  0  0  0  0
  -23.5710   66.3241   70.4926 C   0  0  0  0  0  0  0  0  0  0  0  0
  -22.3315   65.4875   70.2180 C   0  0  0  0  0  0  0  0  0  0  0  0
  -21.1163   65.9644   70.9873 C   0  0  0  0  0  0  0  0  0  0  0  0
  -30.9530   69.4703   62.2406 C   0  0  2  0  0  0  0  0  0  0  0  0
  -32.2933   70.1495   62.4906 C   0  0  1  0  0  0  0  0  0  0  0  0
  -32.0829   71.4352   63.2803 C   0  0  2  0  0  0  0  0  0  0  0  0
  -31.2728   71.1754   64.5419 C   0  0  2  0  0  0  0  0  0  0  0  0
  -29.9796   70.4491   64.1802 C   0  0  1  0  0  0  0  0  0  0  0  0
  -29.1637   70.0508   65.3877 C   0  0  0  0  0  0  0  0  0  0  0  0
  -33.5968   73.2117   64.4786 S   0  0  0  0  0  0  0  0  0  0  0  0
  -32.6087   64.4935   62.8279 H   0  0  0  0  0  0  0  0  0  0  0  0
  -32.9806   67.7896   62.4978 H   0  0  0  0  0  0  0  0  0  0  0  0
  -31.5704   67.1208   63.2650 H   0  0  0  0  0  0  0  0  0  0  0  0
  -32.6374   66.3625   60.5752 H   0  0  0  0  0  0  0  0  0  0  0  0
  -30.8116   64.4280   62.8994 H   0  0  0  0  0  0  0  0  0  0  0  0
  -30.9971   64.5628   60.5757 H   0  0  0  0  0  0  0  0  0  0  0  0
  -30.0419   67.3574   60.5817 H   0  0  0  0  0  0  0  0  0  0  0  0
  -33.0591   69.6065   60.7582 H   0  0  0  0  0  0  0  0  0  0  0  0
  -28.9053   64.9489   59.3813 H   0  0  0  0  0  0  0  0  0  0  0  0
  -27.5145   66.3442   58.1350 H   0  0  0  0  0  0  0  0  0  0  0  0
  -27.5866   67.4819   59.4747 H   0  0  0  0  0  0  0  0  0  0  0  0
  -32.8421   70.8405   65.6883 H   0  0  0  0  0  0  0  0  0  0  0  0
  -29.5828   67.2803   57.2469 H   0  0  0  0  0  0  0  0  0  0  0  0
  -28.3175   68.5207   57.4399 H   0  0  0  0  0  0  0  0  0  0  0  0
  -29.3665   69.3270   59.4134 H   0  0  0  0  0  0  0  0  0  0  0  0
  -30.6254   68.0765   59.2379 H   0  0  0  0  0  0  0  0  0  0  0  0
  -27.4513   69.1691   65.8075 H   0  0  0  0  0  0  0  0  0  0  0  0
  -31.3908   69.0856   57.2289 H   0  0  0  0  0  0  0  0  0  0  0  0
  -30.1234   70.3271   57.3826 H   0  0  0  0  0  0  0  0  0  0  0  0
  -33.3703   72.4373   66.2704 H   0  0  0  0  0  0  0  0  0  0  0  0
  -31.1394   71.1599   59.3694 H   0  0  0  0  0  0  0  0  0  0  0  0
  -32.3981   69.9104   59.2379 H   0  0  0  0  0  0  0  0  0  0  0  0
  -31.9436   72.1204   57.2940 H   0  0  0  0  0  0  0  0  0  0  0  0
  -33.2169   72.0333   58.5334 H   0  0  0  0  0  0  0  0  0  0  0  0
  -31.8354   73.8960   63.6252 H   0  0  0  0  0  0  0  0  0  0  0  0
  -34.1633   70.1266   57.4672 H   0  0  0  0  0  0  0  0  0  0  0  0
  -32.8806   70.1978   56.2334 H   0  0  0  0  0  0  0  0  0  0  0  0
  -34.9650   71.0641   55.3969 H   0  0  0  0  0  0  0  0  0  0  0  0
  -33.6817   72.2943   55.4890 H   0  0  0  0  0  0  0  0  0  0  0  0
  -35.8241   73.1943   56.1415 H   0  0  0  0  0  0  0  0  0  0  0  0
  -34.6447   73.1851   57.4659 H   0  0  0  0  0  0  0  0  0  0  0  0
  -36.8419   72.5619   58.2363 H   0  0  0  0  0  0  0  0  0  0  0  0
  -35.6550   71.2373   58.3738 H   0  0  0  0  0  0  0  0  0  0  0  0
  -37.7434   71.4691   56.2697 H   0  0  0  0  0  0  0  0  0  0  0  0
  -37.7968   70.4240   57.6975 H   0  0  0  0  0  0  0  0  0  0  0  0
  -35.8586   69.2401   56.9306 H   0  0  0  0  0  0  0  0  0  0  0  0
  -35.7855   70.2932   55.5101 H   0  0  0  0  0  0  0  0  0  0  0  0
  -37.9994   68.3922   56.1607 H   0  0  0  0  0  0  0  0  0  0  0  0
  -36.7698   68.1576   54.9416 H   0  0  0  0  0  0  0  0  0  0  0  0
  -37.9310   69.4524   54.7734 H   0  0  0  0  0  0  0  0  0  0  0  0
  -35.5902   63.3777   62.2076 H   0  0  0  0  0  0  0  0  0  0  0  0
  -35.7431   64.5303   63.5424 H   0  0  0  0  0  0  0  0  0  0  0  0
  -33.4125   62.7194   63.0740 H   0  0  0  0  0  0  0  0  0  0  0  0
  -34.6972   62.4936   64.2719 H   0  0  0  0  0  0  0  0  0  0  0  0
  -34.0479   64.5147   65.3825 H   0  0  0  0  0  0  0  0  0  0  0  0
  -32.7648   64.7460   64.1702 H   0  0  0  0  0  0  0  0  0  0  0  0
  -31.8784   63.9170   66.2525 H   0  0  0  0  0  0  0  0  0  0  0  0
  -31.6841   62.7707   64.9050 H   0  0  0  0  0  0  0  0  0  0  0  0
  -33.4989   61.4606   65.7203 H   0  0  0  0  0  0  0  0  0  0  0  0
  -33.7113   62.6137   67.0608 H   0  0  0  0  0  0  0  0  0  0  0  0
  -31.3191   60.8961   66.6199 H   0  0  0  0  0  0  0  0  0  0  0  0
  -32.6255   60.6276   67.7989 H   0  0  0  0  0  0  0  0  0  0  0  0
  -30.6622   61.5518   68.8486 H   0  0  0  0  0  0  0  0  0  0  0  0
  -32.0703   62.6473   68.9047 H   0  0  0  0  0  0  0  0  0  0  0  0
  -30.0186   63.8568   68.5203 H   0  0  0  0  0  0  0  0  0  0  0  0
  -31.1571   63.9511   67.1539 H   0  0  0  0  0  0  0  0  0  0  0  0
  -29.8669   62.3623   65.9310 H   0  0  0  0  0  0  0  0  0  0  0  0
  -28.7322   62.2537   67.3056 H   0  0  0  0  0  0  0  0  0  0  0  0
  -27.8206   63.5778   65.5016 H   0  0  0  0  0  0  0  0  0  0  0  0
  -28.0901   64.5125   66.9886 H   0  0  0  0  0  0  0  0  0  0  0  0
  -29.8442   64.5447   64.5771 H   0  0  0  0  0  0  0  0  0  0  0  0
  -28.6588   65.7904   65.0705 H   0  0  0  0  0  0  0  0  0  0  0  0
  -31.1102   65.0463   66.5798 H   0  0  0  0  0  0  0  0  0  0  0  0
  -30.8724   66.4837   65.5435 H   0  0  0  0  0  0  0  0  0  0  0  0
  -29.3779   65.9073   68.0570 H   0  0  0  0  0  0  0  0  0  0  0  0
  -30.7206   67.0483   67.8668 H   0  0  0  0  0  0  0  0  0  0  0  0
  -28.7429   67.7602   65.9726 H   0  0  0  0  0  0  0  0  0  0  0  0
  -27.6769   69.1890   67.3573 H   0  0  0  0  0  0  0  0  0  0  0  0
  -28.6419   67.5390   69.6306 H   0  0  0  0  0  0  0  0  0  0  0  0
  -29.1974   69.2252   69.5245 H   0  0  0  0  0  0  0  0  0  0  0  0
  -27.3261   69.0018   71.0482 H   0  0  0  0  0  0  0  0  0  0  0  0
  -26.9444   69.9974   69.6284 H   0  0  0  0  0  0  0  0  0  0  0  0
  -25.7516   68.1747   68.6391 H   0  0  0  0  0  0  0  0  0  0  0  0
  -26.1456   67.1665   70.0473 H   0  0  0  0  0  0  0  0  0  0  0  0
  -24.8523   68.5927   71.4630 H   0  0  0  0  0  0  0  0  0  0  0  0
  -24.4675   69.6121   70.0498 H   0  0  0  0  0  0  0  0  0  0  0  0
  -22.6075   68.2037   70.6625 H   0  0  0  0  0  0  0  0  0  0  0  0
  -23.2727   67.8274   69.0560 H   0  0  0  0  0  0  0  0  0  0  0  0
  -24.3853   65.9109   69.9348 H   0  0  0  0  0  0  0  0  0  0  0  0
  -23.7353   66.2934   71.5495 H   0  0  0  0  0  0  0  0  0  0  0  0
  -22.1131   65.5341   69.1716 H   0  0  0  0  0  0  0  0  0  0  0  0
  -22.5415   64.4879   70.5367 H   0  0  0  0  0  0  0  0  0  0  0  0
  -20.8773   66.9647   70.6922 H   0  0  0  0  0  0  0  0  0  0  0  0
  -20.2865   65.3225   70.7769 H   0  0  0  0  0  0  0  0  0  0  0  0
  -21.3270   65.9426   72.0361 H   0  0  0  0  0  0  0  0  0  0  0  0
  -30.3291   70.0960   61.6371 H   0  0  0  0  0  0  0  0  0  0  0  0
  -32.9193   69.4938   63.0591 H   0  0  0  0  0  0  0  0  0  0  0  0
  -31.5471   72.1651   62.7102 H   0  0  0  0  0  0  0  0  0  0  0  0
  -31.0444   72.1140   65.0021 H   0  0  0  0  0  0  0  0  0  0  0  0
  -29.4118   71.1378   63.5901 H   0  0  0  0  0  0  0  0  0  0  0  0
  -28.9326   70.9278   65.9555 H   0  0  0  0  0  0  0  0  0  0  0  0
  -29.7397   69.3608   65.9683 H   0  0  0  0  0  0  0  0  0  0  0  0
  1  4  1  0  0  0  0
  1 31  1  0  0  0  0
  1 62  1  0  0  0  0
  2  3  1  0  0  0  0
  2  4  1  0  0  0  0
  2 63  1  0  0  0  0
  2 64  1  0  0  0  0
  3 55  1  0  0  0  0
  4  6  1  0  0  0  0
  4 65  1  6  0  0  0
  5  6  1  0  0  0  0
  5 66  1  0  0  0  0
  6  8  1  0  0  0  0
  6 67  1  6  0  0  0
  7 31  2  0  0  0  0
  8 10  2  0  0  0  0
  8 68  1  0  0  0  0
  9 56  1  0  0  0  0
  9 69  1  0  0  0  0
 10 12  1  0  0  0  0
 10 70  1  0  0  0  0
 11 57  1  0  0  0  0
 11 61  1  0  0  0  0
 12 14  1  0  0  0  0
 12 71  1  0  0  0  0
 12 72  1  0  0  0  0
 13 58  1  0  0  0  0
 13 73  1  0  0  0  0
 14 16  1  0  0  0  0
 14 74  1  0  0  0  0
 14 75  1  0  0  0  0
 15 55  1  0  0  0  0
 15 59  1  0  0  0  0
 16 18  1  0  0  0  0
 16 76  1  0  0  0  0
 16 77  1  0  0  0  0
 17 60  1  0  0  0  0
 17 78  1  0  0  0  0
 18 20  1  0  0  0  0
 18 79  1  0  0  0  0
 18 80  1  0  0  0  0
 19 61  1  0  0  0  0
 19 81  1  0  0  0  0
 20 22  1  0  0  0  0
 20 82  1  0  0  0  0
 20 83  1  0  0  0  0
 21 61  1  0  0  0  0
 22 24  1  0  0  0  0
 22 84  1  0  0  0  0
 22 85  1  0  0  0  0
 23 61  1  0  0  0  0
 23 86  1  0  0  0  0
 24 25  1  0  0  0  0
 24 87  1  0  0  0  0
 24 88  1  0  0  0  0
 25 26  1  0  0  0  0
 25 89  1  0  0  0  0
 25 90  1  0  0  0  0
 26 27  1  0  0  0  0
 26 91  1  0  0  0  0
 26 92  1  0  0  0  0
 27 28  1  0  0  0  0
 27 93  1  0  0  0  0
 27 94  1  0  0  0  0
 28 29  1  0  0  0  0
 28 95  1  0  0  0  0
 28 96  1  0  0  0  0
 29 30  1  0  0  0  0
 29 97  1  0  0  0  0
 29 98  1  0  0  0  0
 30 99  1  0  0  0  0
 30100  1  0  0  0  0
 30101  1  0  0  0  0
 31 32  1  0  0  0  0
 32 33  1  0  0  0  0
 32102  1  0  0  0  0
 32103  1  0  0  0  0
 33 34  1  0  0  0  0
 33104  1  0  0  0  0
 33105  1  0  0  0  0
 34 35  1  0  0  0  0
 34106  1  0  0  0  0
 34107  1  0  0  0  0
 35 36  1  0  0  0  0
 35108  1  0  0  0  0
 35109  1  0  0  0  0
 36 37  1  0  0  0  0
 36110  1  0  0  0  0
 36111  1  0  0  0  0
 37 38  1  0  0  0  0
 37112  1  0  0  0  0
 37113  1  0  0  0  0
 38 39  1  0  0  0  0
 38114  1  0  0  0  0
 38115  1  0  0  0  0
 39 40  1  0  0  0  0
 39116  1  0  0  0  0
 39117  1  0  0  0  0
 40 41  1  0  0  0  0
 40118  1  0  0  0  0
 40119  1  0  0  0  0
 41 42  1  0  0  0  0
 41120  1  0  0  0  0
 41121  1  0  0  0  0
 42 43  1  0  0  0  0
 42122  1  0  0  0  0
 42123  1  0  0  0  0
 43 44  1  0  0  0  0
 43124  1  0  0  0  0
 43125  1  0  0  0  0
 44 45  1  0  0  0  0
 44126  1  0  0  0  0
 44127  1  0  0  0  0
 45 46  2  0  0  0  0
 45128  1  0  0  0  0
 46 47  1  0  0  0  0
 46129  1  0  0  0  0
 47 48  1  0  0  0  0
 47130  1  0  0  0  0
 47131  1  0  0  0  0
 48 49  1  0  0  0  0
 48132  1  0  0  0  0
 48133  1  0  0  0  0
 49 50  1  0  0  0  0
 49134  1  0  0  0  0
 49135  1  0  0  0  0
 50 51  1  0  0  0  0
 50136  1  0  0  0  0
 50137  1  0  0  0  0
 51 52  1  0  0  0  0
 51138  1  0  0  0  0
 51139  1  0  0  0  0
 52 53  1  0  0  0  0
 52140  1  0  0  0  0
 52141  1  0  0  0  0
 53 54  1  0  0  0  0
 53142  1  0  0  0  0
 53143  1  0  0  0  0
 54144  1  0  0  0  0
 54145  1  0  0  0  0
 54146  1  0  0  0  0
 55 56  1  0  0  0  0
 55147  1  6  0  0  0
 56 57  1  0  0  0  0
 56148  1  1  0  0  0
 57 58  1  0  0  0  0
 57149  1  6  0  0  0
 58 59  1  0  0  0  0
 58150  1  1  0  0  0
 59 60  1  0  0  0  0
 59151  1  6  0  0  0
 60152  1  0  0  0  0
 60153  1  0  0  0  0
M  CHG  1  21  -1
M  END
$$$$
/media/chris/experiments/cd1a-new-docking/inputs/ligands/7ryn_ligand.pdb
 OpenBabel07032312553D

153153  0  0  1  0  0  0  0  0999 V2000
  -33.0340   65.1330   62.2120 N   0  0  0  0  0  0  0  0  0  0  0  0
  -32.0220   67.3480   62.3220 C   0  0  0  0  0  0  0  0  0  0  0  0
  -33.3204   67.9104   62.5424 O   0  0  0  0  0  0  0  0  0  0  0  0
  -32.1830   66.0840   61.5030 C   0  0  1  0  0  0  0  0  0  0  0  0
  -30.2154   65.0225   62.4176 O   0  0  0  0  0  0  0  0  0  0  0  0
  -30.8310   65.4230   61.1900 C   0  0  2  0  0  0  0  0  0  0  0  0
  -32.4714   65.8137   64.2827 O   0  0  0  0  0  0  0  0  0  0  0  0
  -29.9369   66.3439   60.4177 C   0  0  0  0  0  0  0  0  0  0  0  0
  -35.3151   69.8361   62.1498 O   0  0  0  0  0  0  0  0  0  0  0  0
  -28.6200   66.3494   60.4787 C   0  0  0  0  0  0  0  0  0  0  0  0
  -36.2332   71.0293   64.5551 O   0  0  0  0  0  0  0  0  0  0  0  0
  -27.7547   67.2714   59.6837 C   0  0  0  0  0  0  0  0  0  0  0  0
  -34.7894   69.6393   66.4168 O   0  0  0  0  0  0  0  0  0  0  0  0
  -26.4595   67.5927   60.4323 C   0  0  0  0  0  0  0  0  0  0  0  0
  -32.7334   68.8853   64.5507 O   0  0  0  0  0  0  0  0  0  0  0  0
  -25.5312   68.5419   59.6922 C   0  0  0  0  0  0  0  0  0  0  0  0
  -32.5661   68.6711   67.3280 O   0  0  0  0  0  0  0  0  0  0  0  0
  -24.2371   68.8490   60.4262 C   0  0  0  0  0  0  0  0  0  0  0  0
  -36.0388   72.1223   66.6939 O   0  0  0  0  0  0  0  0  0  0  0  0
  -23.3203   69.8130   59.6873 C   0  0  0  0  0  0  0  0  0  0  0  0
  -38.0478   72.5148   65.2361 O   0  5  0  0  0  0  0  0  0  0  0  0
  -22.8949   69.3193   58.3130 C   0  0  0  0  0  0  0  0  0  0  0  0
  -35.9096   73.3854   64.6826 O   0  0  0  0  0  0  0  0  0  0  0  0
  -21.9664   70.2722   57.5810 C   0  0  0  0  0  0  0  0  0  0  0  0
  -22.5560   71.6502   57.3445 C   0  0  0  0  0  0  0  0  0  0  0  0
  -22.9169   72.3923   58.6199 C   0  0  0  0  0  0  0  0  0  0  0  0
  -21.7223   72.6353   59.5234 C   0  0  0  0  0  0  0  0  0  0  0  0
  -20.6239   73.4732   58.8975 C   0  0  0  0  0  0  0  0  0  0  0  0
  -21.0986   74.8596   58.5088 C   0  0  0  0  0  0  0  0  0  0  0  0
  -21.5951   75.6573   59.6968 C   0  0  0  0  0  0  0  0  0  0  0  0
  -33.1122   65.0716   63.5440 C   0  0  0  0  0  0  0  0  0  0  0  0
  -34.0520   64.0283   64.0950 C   0  0  0  0  0  0  0  0  0  0  0  0
  -35.2217   63.7435   63.1616 C   0  0  0  0  0  0  0  0  0  0  0  0
  -36.0602   64.9795   62.8779 C   0  0  0  0  0  0  0  0  0  0  0  0
  -37.2456   64.7230   61.9623 C   0  0  0  0  0  0  0  0  0  0  0  0
  -38.0738   65.9642   61.6657 C   0  0  0  0  0  0  0  0  0  0  0  0
  -38.6623   66.6272   62.9046 C   0  0  0  0  0  0  0  0  0  0  0  0
  -39.5802   65.7192   63.7130 C   0  0  0  0  0  0  0  0  0  0  0  0
  -40.1915   66.3745   64.9489 C   0  0  0  0  0  0  0  0  0  0  0  0
  -41.0964   65.4488   65.7605 C   0  0  0  0  0  0  0  0  0  0  0  0
  -40.4020   64.2058   66.3165 C   0  0  0  0  0  0  0  0  0  0  0  0
  -41.3351   63.2903   67.1091 C   0  0  0  0  0  0  0  0  0  0  0  0
  -42.5137   62.7247   66.3168 C   0  0  0  0  0  0  0  0  0  0  0  0
  -42.1267   61.8604   65.1137 C   0  0  0  0  0  0  0  0  0  0  0  0
  -41.2933   62.6006   64.1078 C   0  0  0  0  0  0  0  0  0  0  0  0
  -41.6079   62.8141   62.8424 C   0  0  0  0  0  0  0  0  0  0  0  0
  -42.8620   62.3625   62.1572 C   0  0  0  0  0  0  0  0  0  0  0  0
  -42.9278   62.7498   60.6783 C   0  0  0  0  0  0  0  0  0  0  0  0
  -41.7993   62.1522   59.8486 C   0  0  0  0  0  0  0  0  0  0  0  0
  -41.8533   62.5507   58.3780 C   0  0  0  0  0  0  0  0  0  0  0  0
  -40.7440   61.9521   57.5206 C   0  0  0  0  0  0  0  0  0  0  0  0
  -40.8035   62.3740   56.0593 C   0  0  0  0  0  0  0  0  0  0  0  0
  -40.6749   63.8728   55.8385 C   0  0  0  0  0  0  0  0  0  0  0  0
  -40.7549   64.2621   54.3763 C   0  0  0  0  0  0  0  0  0  0  0  0
  -33.3156   69.0988   63.2783 C   0  0  2  0  0  0  0  0  0  0  0  0
  -34.7576   69.5657   63.4297 C   0  0  1  0  0  0  0  0  0  0  0  0
  -34.8089   70.8140   64.3015 C   0  0  2  0  0  0  0  0  0  0  0  0
  -34.0866   70.5888   65.6217 C   0  0  2  0  0  0  0  0  0  0  0  0
  -32.6741   70.0760   65.3523 C   0  0  1  0  0  0  0  0  0  0  0  0
  -31.9211   69.7182   66.6122 C   0  0  0  0  0  0  0  0  0  0  0  0
  -36.6672   72.2789   65.4347 S   0  0  0  0  0  0  0  0  0  0  0  0
  -33.5772   64.5058   61.6821 H   0  0  0  0  0  0  0  0  0  0  0  0
  -31.5648   67.1148   63.2609 H   0  0  0  0  0  0  0  0  0  0  0  0
  -31.4012   68.0473   61.8019 H   0  0  0  0  0  0  0  0  0  0  0  0
  -32.6374   66.3625   60.5752 H   0  0  0  0  0  0  0  0  0  0  0  0
  -30.8116   64.4280   62.8994 H   0  0  0  0  0  0  0  0  0  0  0  0
  -30.9971   64.5628   60.5757 H   0  0  0  0  0  0  0  0  0  0  0  0
  -30.3869   67.0273   59.7888 H   0  0  0  0  0  0  0  0  0  0  0  0
  -35.2768   69.0347   61.6046 H   0  0  0  0  0  0  0  0  0  0  0  0
  -28.1601   65.6775   61.1128 H   0  0  0  0  0  0  0  0  0  0  0  0
  -28.2879   68.1809   59.5014 H   0  0  0  0  0  0  0  0  0  0  0  0
  -27.5040   66.7913   58.7609 H   0  0  0  0  0  0  0  0  0  0  0  0
  -35.6873   69.9632   66.5891 H   0  0  0  0  0  0  0  0  0  0  0  0
  -25.9349   66.6761   60.6040 H   0  0  0  0  0  0  0  0  0  0  0  0
  -26.7426   68.0845   61.3395 H   0  0  0  0  0  0  0  0  0  0  0  0
  -26.0519   69.4627   59.5315 H   0  0  0  0  0  0  0  0  0  0  0  0
  -25.2579   68.0543   58.7798 H   0  0  0  0  0  0  0  0  0  0  0  0
  -32.0585   68.4665   68.1288 H   0  0  0  0  0  0  0  0  0  0  0  0
  -23.7090   67.9305   60.5760 H   0  0  0  0  0  0  0  0  0  0  0  0
  -24.5080   69.3231   61.3464 H   0  0  0  0  0  0  0  0  0  0  0  0
  -36.4928   71.4289   67.1978 H   0  0  0  0  0  0  0  0  0  0  0  0
  -22.4417   69.9643   60.2789 H   0  0  0  0  0  0  0  0  0  0  0  0
  -23.8723   70.7174   59.5379 H   0  0  0  0  0  0  0  0  0  0  0  0
  -23.7731   69.1797   57.7178 H   0  0  0  0  0  0  0  0  0  0  0  0
  -22.3531   68.4088   58.4624 H   0  0  0  0  0  0  0  0  0  0  0  0
  -34.9547   73.2575   64.7954 H   0  0  0  0  0  0  0  0  0  0  0  0
  -21.7242   69.8426   56.6314 H   0  0  0  0  0  0  0  0  0  0  0  0
  -21.1071   70.4064   58.2043 H   0  0  0  0  0  0  0  0  0  0  0  0
  -23.4428   71.5407   56.7559 H   0  0  0  0  0  0  0  0  0  0  0  0
  -21.8039   72.2292   56.8504 H   0  0  0  0  0  0  0  0  0  0  0  0
  -23.6391   71.8144   59.1578 H   0  0  0  0  0  0  0  0  0  0  0  0
  -23.3023   73.3490   58.3351 H   0  0  0  0  0  0  0  0  0  0  0  0
  -21.3074   71.6863   59.7922 H   0  0  0  0  0  0  0  0  0  0  0  0
  -22.0839   73.1861   60.3665 H   0  0  0  0  0  0  0  0  0  0  0  0
  -20.2695   72.9737   58.0202 H   0  0  0  0  0  0  0  0  0  0  0  0
  -19.8488   73.5883   59.6261 H   0  0  0  0  0  0  0  0  0  0  0  0
  -21.8966   74.7634   57.8024 H   0  0  0  0  0  0  0  0  0  0  0  0
  -20.2644   75.3835   58.0912 H   0  0  0  0  0  0  0  0  0  0  0  0
  -22.4321   75.1573   60.1376 H   0  0  0  0  0  0  0  0  0  0  0  0
  -21.8926   76.6326   59.3724 H   0  0  0  0  0  0  0  0  0  0  0  0
  -20.8112   75.7457   60.4198 H   0  0  0  0  0  0  0  0  0  0  0  0
  -34.4370   64.3740   65.0315 H   0  0  0  0  0  0  0  0  0  0  0  0
  -33.4981   63.1198   64.2077 H   0  0  0  0  0  0  0  0  0  0  0  0
  -35.8470   63.0017   63.6129 H   0  0  0  0  0  0  0  0  0  0  0  0
  -34.8173   63.4064   62.2300 H   0  0  0  0  0  0  0  0  0  0  0  0
  -35.4324   65.7141   62.4184 H   0  0  0  0  0  0  0  0  0  0  0  0
  -36.4575   65.3070   63.8158 H   0  0  0  0  0  0  0  0  0  0  0  0
  -37.8799   63.9976   62.4273 H   0  0  0  0  0  0  0  0  0  0  0  0
  -36.8494   64.3829   61.0283 H   0  0  0  0  0  0  0  0  0  0  0  0
  -38.8791   65.6847   61.0191 H   0  0  0  0  0  0  0  0  0  0  0  0
  -37.4136   66.6770   61.2174 H   0  0  0  0  0  0  0  0  0  0  0  0
  -39.2238   67.4834   62.5940 H   0  0  0  0  0  0  0  0  0  0  0  0
  -37.8404   66.8834   63.5400 H   0  0  0  0  0  0  0  0  0  0  0  0
  -39.0134   64.8693   64.0314 H   0  0  0  0  0  0  0  0  0  0  0  0
  -40.3960   65.4617   63.0704 H   0  0  0  0  0  0  0  0  0  0  0  0
  -40.7700   67.2169   64.6315 H   0  0  0  0  0  0  0  0  0  0  0  0
  -39.3782   66.6497   65.5874 H   0  0  0  0  0  0  0  0  0  0  0  0
  -41.8984   65.1284   65.1288 H   0  0  0  0  0  0  0  0  0  0  0  0
  -41.4279   66.0144   66.6061 H   0  0  0  0  0  0  0  0  0  0  0  0
  -39.6084   64.5210   66.9613 H   0  0  0  0  0  0  0  0  0  0  0  0
  -40.0449   63.6433   65.4793 H   0  0  0  0  0  0  0  0  0  0  0  0
  -41.7271   63.8492   67.9331 H   0  0  0  0  0  0  0  0  0  0  0  0
  -40.7451   62.4491   67.4079 H   0  0  0  0  0  0  0  0  0  0  0  0
  -43.0997   63.5462   65.9610 H   0  0  0  0  0  0  0  0  0  0  0  0
  -43.0461   62.0835   66.9878 H   0  0  0  0  0  0  0  0  0  0  0  0
  -43.0214   61.5227   64.6338 H   0  0  0  0  0  0  0  0  0  0  0  0
  -41.5394   61.0444   65.4798 H   0  0  0  0  0  0  0  0  0  0  0  0
  -40.3903   62.9778   64.4354 H   0  0  0  0  0  0  0  0  0  0  0  0
  -40.9269   63.3405   62.2731 H   0  0  0  0  0  0  0  0  0  0  0  0
  -43.6983   62.8022   62.6593 H   0  0  0  0  0  0  0  0  0  0  0  0
  -42.8753   61.2935   62.2017 H   0  0  0  0  0  0  0  0  0  0  0  0
  -42.8765   63.8160   60.6038 H   0  0  0  0  0  0  0  0  0  0  0  0
  -43.8465   62.3624   60.2898 H   0  0  0  0  0  0  0  0  0  0  0  0
  -41.8584   61.0858   59.9135 H   0  0  0  0  0  0  0  0  0  0  0  0
  -40.8805   62.5310   60.2452 H   0  0  0  0  0  0  0  0  0  0  0  0
  -41.7842   63.6167   58.3177 H   0  0  0  0  0  0  0  0  0  0  0  0
  -42.7757   62.1692   57.9926 H   0  0  0  0  0  0  0  0  0  0  0  0
  -40.8192   60.8858   57.5676 H   0  0  0  0  0  0  0  0  0  0  0  0
  -39.8166   62.3142   57.9127 H   0  0  0  0  0  0  0  0  0  0  0  0
  -41.7415   62.0545   55.6555 H   0  0  0  0  0  0  0  0  0  0  0  0
  -39.9665   61.9182   55.5729 H   0  0  0  0  0  0  0  0  0  0  0  0
  -39.7314   64.1954   56.2266 H   0  0  0  0  0  0  0  0  0  0  0  0
  -41.4940   64.3431   56.3414 H   0  0  0  0  0  0  0  0  0  0  0  0
  -39.9474   63.8074   53.8415 H   0  0  0  0  0  0  0  0  0  0  0  0
  -40.6879   65.3263   54.2864 H   0  0  0  0  0  0  0  0  0  0  0  0
  -41.6859   63.9277   53.9686 H   0  0  0  0  0  0  0  0  0  0  0  0
  -32.7377   69.8438   62.7723 H   0  0  0  0  0  0  0  0  0  0  0  0
  -35.3300   68.7932   63.8992 H   0  0  0  0  0  0  0  0  0  0  0  0
  -34.3360   71.6474   63.8253 H   0  0  0  0  0  0  0  0  0  0  0  0
  -34.0399   71.5181   66.1499 H   0  0  0  0  0  0  0  0  0  0  0  0
  -32.1619   70.8745   64.8573 H   0  0  0  0  0  0  0  0  0  0  0  0
  -30.9335   69.4016   66.3486 H   0  0  0  0  0  0  0  0  0  0  0  0
  -31.8897   70.5836   67.2407 H   0  0  0  0  0  0  0  0  0  0  0  0
  1  4  1  0  0  0  0
  1 31  1  0  0  0  0
  1 62  1  0  0  0  0
  2  3  1  0  0  0  0
  2  4  1  0  0  0  0
  2 63  1  0  0  0  0
  2 64  1  0  0  0  0
  3 55  1  0  0  0  0
  4  6  1  0  0  0  0
  4 65  1  6  0  0  0
  5  6  1  0  0  0  0
  5 66  1  0  0  0  0
  6  8  1  0  0  0  0
  6 67  1  6  0  0  0
  7 31  2  0  0  0  0
  8 10  2  0  0  0  0
  8 68  1  0  0  0  0
  9 56  1  0  0  0  0
  9 69  1  0  0  0  0
 10 12  1  0  0  0  0
 10 70  1  0  0  0  0
 11 57  1  0  0  0  0
 11 61  1  0  0  0  0
 12 14  1  0  0  0  0
 12 71  1  0  0  0  0
 12 72  1  0  0  0  0
 13 58  1  0  0  0  0
 13 73  1  0  0  0  0
 14 16  1  0  0  0  0
 14 74  1  0  0  0  0
 14 75  1  0  0  0  0
 15 55  1  0  0  0  0
 15 59  1  0  0  0  0
 16 18  1  0  0  0  0
 16 76  1  0  0  0  0
 16 77  1  0  0  0  0
 17 60  1  0  0  0  0
 17 78  1  0  0  0  0
 18 20  1  0  0  0  0
 18 79  1  0  0  0  0
 18 80  1  0  0  0  0
 19 61  1  0  0  0  0
 19 81  1  0  0  0  0
 20 22  1  0  0  0  0
 20 82  1  0  0  0  0
 20 83  1  0  0  0  0
 21 61  1  0  0  0  0
 22 24  1  0  0  0  0
 22 84  1  0  0  0  0
 22 85  1  0  0  0  0
 23 61  1  0  0  0  0
 23 86  1  0  0  0  0
 24 25  1  0  0  0  0
 24 87  1  0  0  0  0
 24 88  1  0  0  0  0
 25 26  1  0  0  0  0
 25 89  1  0  0  0  0
 25 90  1  0  0  0  0
 26 27  1  0  0  0  0
 26 91  1  0  0  0  0
 26 92  1  0  0  0  0
 27 28  1  0  0  0  0
 27 93  1  0  0  0  0
 27 94  1  0  0  0  0
 28 29  1  0  0  0  0
 28 95  1  0  0  0  0
 28 96  1  0  0  0  0
 29 30  1  0  0  0  0
 29 97  1  0  0  0  0
 29 98  1  0  0  0  0
 30 99  1  0  0  0  0
 30100  1  0  0  0  0
 30101  1  0  0  0  0
 31 32  1  0  0  0  0
 32 33  1  0  0  0  0
 32102  1  0  0  0  0
 32103  1  0  0  0  0
 33 34  1  0  0  0  0
 33104  1  0  0  0  0
 33105  1  0  0  0  0
 34 35  1  0  0  0  0
 34106  1  0  0  0  0
 34107  1  0  0  0  0
 35 36  1  0  0  0  0
 35108  1  0  0  0  0
 35109  1  0  0  0  0
 36 37  1  0  0  0  0
 36110  1  0  0  0  0
 36111  1  0  0  0  0
 37 38  1  0  0  0  0
 37112  1  0  0  0  0
 37113  1  0  0  0  0
 38 39  1  0  0  0  0
 38114  1  0  0  0  0
 38115  1  0  0  0  0
 39 40  1  0  0  0  0
 39116  1  0  0  0  0
 39117  1  0  0  0  0
 40 41  1  0  0  0  0
 40118  1  0  0  0  0
 40119  1  0  0  0  0
 41 42  1  0  0  0  0
 41120  1  0  0  0  0
 41121  1  0  0  0  0
 42 43  1  0  0  0  0
 42122  1  0  0  0  0
 42123  1  0  0  0  0
 43 44  1  0  0  0  0
 43124  1  0  0  0  0
 43125  1  0  0  0  0
 44 45  1  0  0  0  0
 44126  1  0  0  0  0
 44127  1  0  0  0  0
 45 46  2  0  0  0  0
 45128  1  0  0  0  0
 46 47  1  0  0  0  0
 46129  1  0  0  0  0
 47 48  1  0  0  0  0
 47130  1  0  0  0  0
 47131  1  0  0  0  0
 48 49  1  0  0  0  0
 48132  1  0  0  0  0
 48133  1  0  0  0  0
 49 50  1  0  0  0  0
 49134  1  0  0  0  0
 49135  1  0  0  0  0
 50 51  1  0  0  0  0
 50136  1  0  0  0  0
 50137  1  0  0  0  0
 51 52  1  0  0  0  0
 51138  1  0  0  0  0
 51139  1  0  0  0  0
 52 53  1  0  0  0  0
 52140  1  0  0  0  0
 52141  1  0  0  0  0
 53 54  1  0  0  0  0
 53142  1  0  0  0  0
 53143  1  0  0  0  0
 54144  1  0  0  0  0
 54145  1  0  0  0  0
 54146  1  0  0  0  0
 55 56  1  0  0  0  0
 55147  1  6  0  0  0
 56 57  1  0  0  0  0
 56148  1  1  0  0  0
 57 58  1  0  0  0  0
 57149  1  6  0  0  0
 58 59  1  0  0  0  0
 58150  1  1  0  0  0
 59 60  1  0  0  0  0
 59151  1  6  0  0  0
 60152  1  0  0  0  0
 60153  1  0  0  0  0
M  CHG  1  21  -1
M  END
$$$$
/media/chris/experiments/cd1a-new-docking/inputs/ligands/7ryn_ligand.pdb
 OpenBabel07032312553D

153153  0  0  1  0  0  0  0  0999 V2000
  -33.0340   65.1330   62.2120 N   0  0  0  0  0  0  0  0  0  0  0  0
  -32.0220   67.3480   62.3220 C   0  0  0  0  0  0  0  0  0  0  0  0
  -33.3204   67.9104   62.5424 O   0  0  0  0  0  0  0  0  0  0  0  0
  -32.1830   66.0840   61.5030 C   0  0  1  0  0  0  0  0  0  0  0  0
  -30.2154   65.0225   62.4176 O   0  0  0  0  0  0  0  0  0  0  0  0
  -30.8310   65.4230   61.1900 C   0  0  2  0  0  0  0  0  0  0  0  0
  -32.9252   63.5132   60.6524 O   0  0  0  0  0  0  0  0  0  0  0  0
  -29.9369   66.3439   60.4177 C   0  0  0  0  0  0  0  0  0  0  0  0
  -35.3151   69.8361   62.1498 O   0  0  0  0  0  0  0  0  0  0  0  0
  -29.0262   65.9607   59.5448 C   0  0  0  0  0  0  0  0  0  0  0  0
  -36.2332   71.0293   64.5551 O   0  0  0  0  0  0  0  0  0  0  0  0
  -28.1594   66.9053   58.7787 C   0  0  0  0  0  0  0  0  0  0  0  0
  -34.7894   69.6393   66.4168 O   0  0  0  0  0  0  0  0  0  0  0  0
  -26.8602   67.1950   59.5332 C   0  0  0  0  0  0  0  0  0  0  0  0
  -32.7334   68.8853   64.5507 O   0  0  0  0  0  0  0  0  0  0  0  0
  -27.0624   67.8069   60.9099 C   0  0  0  0  0  0  0  0  0  0  0  0
  -31.8166   70.8306   67.4934 O   0  0  0  0  0  0  0  0  0  0  0  0
  -27.8108   69.1289   60.9022 C   0  0  0  0  0  0  0  0  0  0  0  0
  -38.4981   71.4463   63.8454 O   0  0  0  0  0  0  0  0  0  0  0  0
  -27.9947   69.7439   62.2819 C   0  0  0  0  0  0  0  0  0  0  0  0
  -36.8651   70.3129   62.3077 O   0  5  0  0  0  0  0  0  0  0  0  0
  -28.7595   71.0585   62.2677 C   0  0  0  0  0  0  0  0  0  0  0  0
  -36.6888   72.6195   62.8416 O   0  0  0  0  0  0  0  0  0  0  0  0
  -28.1024   72.1395   61.4276 C   0  0  0  0  0  0  0  0  0  0  0  0
  -28.8513   73.4592   61.4225 C   0  0  0  0  0  0  0  0  0  0  0  0
  -30.2732   73.3579   60.8976 C   0  0  0  0  0  0  0  0  0  0  0  0
  -31.1439   72.4251   61.7188 C   0  0  0  0  0  0  0  0  0  0  0  0
  -31.3059   72.8350   63.1700 C   0  0  0  0  0  0  0  0  0  0  0  0
  -31.9543   74.1971   63.3216 C   0  0  0  0  0  0  0  0  0  0  0  0
  -32.0998   74.6124   64.7710 C   0  0  0  0  0  0  0  0  0  0  0  0
  -33.3385   63.9239   61.7329 C   0  0  0  0  0  0  0  0  0  0  0  0
  -34.2258   63.0783   62.6121 C   0  0  0  0  0  0  0  0  0  0  0  0
  -34.0432   63.3836   64.0933 C   0  0  0  0  0  0  0  0  0  0  0  0
  -34.9238   62.5207   64.9829 C   0  0  0  0  0  0  0  0  0  0  0  0
  -34.6549   61.0304   64.8565 C   0  0  0  0  0  0  0  0  0  0  0  0
  -33.2369   60.6271   65.2318 C   0  0  0  0  0  0  0  0  0  0  0  0
  -32.8605   60.9522   66.6717 C   0  0  0  0  0  0  0  0  0  0  0  0
  -33.7317   60.2560   67.7093 C   0  0  0  0  0  0  0  0  0  0  0  0
  -33.3779   60.5850   69.1574 C   0  0  0  0  0  0  0  0  0  0  0  0
  -34.2475   59.8676   70.1886 C   0  0  0  0  0  0  0  0  0  0  0  0
  -35.7430   60.1633   70.0772 C   0  0  0  0  0  0  0  0  0  0  0  0
  -36.5858   59.4457   71.1317 C   0  0  0  0  0  0  0  0  0  0  0  0
  -36.4865   57.9205   71.1116 C   0  0  0  0  0  0  0  0  0  0  0  0
  -35.0822   57.3623   71.3577 C   0  0  0  0  0  0  0  0  0  0  0  0
  -34.5271   57.7497   72.6978 C   0  0  0  0  0  0  0  0  0  0  0  0
  -33.2511   57.9303   72.9892 C   0  0  0  0  0  0  0  0  0  0  0  0
  -32.1009   57.7875   72.0391 C   0  0  0  0  0  0  0  0  0  0  0  0
  -30.9177   58.7016   72.3646 C   0  0  0  0  0  0  0  0  0  0  0  0
  -29.7610   58.5616   71.3839 C   0  0  0  0  0  0  0  0  0  0  0  0
  -30.1392   58.9099   69.9487 C   0  0  0  0  0  0  0  0  0  0  0  0
  -30.6224   60.3423   69.7530 C   0  0  0  0  0  0  0  0  0  0  0  0
  -29.5873   61.3946   70.1251 C   0  0  0  0  0  0  0  0  0  0  0  0
  -30.0654   62.8272   69.9496 C   0  0  0  0  0  0  0  0  0  0  0  0
  -31.2699   63.1559   70.8082 C   0  0  0  0  0  0  0  0  0  0  0  0
  -33.3156   69.0988   63.2783 C   0  0  2  0  0  0  0  0  0  0  0  0
  -34.7576   69.5657   63.4297 C   0  0  1  0  0  0  0  0  0  0  0  0
  -34.8089   70.8140   64.3015 C   0  0  2  0  0  0  0  0  0  0  0  0
  -34.0866   70.5888   65.6217 C   0  0  2  0  0  0  0  0  0  0  0  0
  -32.6741   70.0760   65.3523 C   0  0  1  0  0  0  0  0  0  0  0  0
  -31.9211   69.7182   66.6122 C   0  0  0  0  0  0  0  0  0  0  0  0
  -37.2005   71.2487   63.3141 S   0  0  0  0  0  0  0  0  0  0  0  0
  -33.4017   65.3959   63.0866 H   0  0  0  0  0  0  0  0  0  0  0  0
  -31.5648   67.1148   63.2609 H   0  0  0  0  0  0  0  0  0  0  0  0
  -31.4012   68.0473   61.8019 H   0  0  0  0  0  0  0  0  0  0  0  0
  -32.6374   66.3625   60.5752 H   0  0  0  0  0  0  0  0  0  0  0  0
  -30.8116   64.4280   62.8994 H   0  0  0  0  0  0  0  0  0  0  0  0
  -30.9971   64.5628   60.5757 H   0  0  0  0  0  0  0  0  0  0  0  0
  -30.0419   67.3574   60.5817 H   0  0  0  0  0  0  0  0  0  0  0  0
  -35.2768   69.0347   61.6046 H   0  0  0  0  0  0  0  0  0  0  0  0
  -28.9053   64.9489   59.3813 H   0  0  0  0  0  0  0  0  0  0  0  0
  -28.6890   67.8230   58.6294 H   0  0  0  0  0  0  0  0  0  0  0  0
  -27.9141   66.4559   57.8391 H   0  0  0  0  0  0  0  0  0  0  0  0
  -35.6873   69.9632   66.5891 H   0  0  0  0  0  0  0  0  0  0  0  0
  -26.2759   67.8732   58.9471 H   0  0  0  0  0  0  0  0  0  0  0  0
  -26.3753   66.2531   59.6835 H   0  0  0  0  0  0  0  0  0  0  0  0
  -26.1004   67.9689   61.3493 H   0  0  0  0  0  0  0  0  0  0  0  0
  -27.6628   67.1179   61.4665 H   0  0  0  0  0  0  0  0  0  0  0  0
  -31.3292   70.5677   68.2897 H   0  0  0  0  0  0  0  0  0  0  0  0
  -28.7781   68.9655   60.4749 H   0  0  0  0  0  0  0  0  0  0  0  0
  -27.2199   69.8159   60.3332 H   0  0  0  0  0  0  0  0  0  0  0  0
  -38.8534   70.5983   64.1546 H   0  0  0  0  0  0  0  0  0  0  0  0
  -27.0278   69.9200   62.7050 H   0  0  0  0  0  0  0  0  0  0  0  0
  -28.5724   69.0520   62.8585 H   0  0  0  0  0  0  0  0  0  0  0  0
  -28.8382   71.4141   63.2738 H   0  0  0  0  0  0  0  0  0  0  0  0
  -29.7146   70.8592   61.8284 H   0  0  0  0  0  0  0  0  0  0  0  0
  -36.9009   73.2912   63.5085 H   0  0  0  0  0  0  0  0  0  0  0  0
  -28.0349   71.7874   60.4195 H   0  0  0  0  0  0  0  0  0  0  0  0
  -27.1438   72.3298   61.8633 H   0  0  0  0  0  0  0  0  0  0  0  0
  -28.3133   74.1495   60.8070 H   0  0  0  0  0  0  0  0  0  0  0  0
  -28.9182   73.7823   62.4404 H   0  0  0  0  0  0  0  0  0  0  0  0
  -30.2401   72.9957   59.8914 H   0  0  0  0  0  0  0  0  0  0  0  0
  -30.7063   74.3345   60.9569 H   0  0  0  0  0  0  0  0  0  0  0  0
  -30.7056   71.4493   61.6935 H   0  0  0  0  0  0  0  0  0  0  0  0
  -32.1202   72.4550   61.2820 H   0  0  0  0  0  0  0  0  0  0  0  0
  -30.3395   72.8625   63.6284 H   0  0  0  0  0  0  0  0  0  0  0  0
  -31.9453   72.1174   63.6402 H   0  0  0  0  0  0  0  0  0  0  0  0
  -32.9258   74.1663   62.8743 H   0  0  0  0  0  0  0  0  0  0  0  0
  -31.3219   74.9135   62.8402 H   0  0  0  0  0  0  0  0  0  0  0  0
  -32.7290   73.9131   65.2810 H   0  0  0  0  0  0  0  0  0  0  0  0
  -32.5372   75.5877   64.8204 H   0  0  0  0  0  0  0  0  0  0  0  0
  -31.1361   74.6298   65.2355 H   0  0  0  0  0  0  0  0  0  0  0  0
  -33.9935   62.0475   62.4433 H   0  0  0  0  0  0  0  0  0  0  0  0
  -35.2411   63.3003   62.3578 H   0  0  0  0  0  0  0  0  0  0  0  0
  -34.2872   64.4114   64.2637 H   0  0  0  0  0  0  0  0  0  0  0  0
  -33.0247   63.1720   64.3439 H   0  0  0  0  0  0  0  0  0  0  0  0
  -35.9457   62.7019   64.7226 H   0  0  0  0  0  0  0  0  0  0  0  0
  -34.7031   62.7913   65.9943 H   0  0  0  0  0  0  0  0  0  0  0  0
  -34.8302   60.7412   63.8414 H   0  0  0  0  0  0  0  0  0  0  0  0
  -35.3107   60.5367   65.5428 H   0  0  0  0  0  0  0  0  0  0  0  0
  -32.5583   61.1399   64.5827 H   0  0  0  0  0  0  0  0  0  0  0  0
  -33.1804   59.5634   65.1298 H   0  0  0  0  0  0  0  0  0  0  0  0
  -32.9484   62.0093   66.8124 H   0  0  0  0  0  0  0  0  0  0  0  0
  -31.8608   60.6001   66.8186 H   0  0  0  0  0  0  0  0  0  0  0  0
  -33.6335   59.1992   67.5732 H   0  0  0  0  0  0  0  0  0  0  0  0
  -34.7302   60.6073   67.5530 H   0  0  0  0  0  0  0  0  0  0  0  0
  -33.4886   61.6397   69.2994 H   0  0  0  0  0  0  0  0  0  0  0  0
  -32.3734   60.2511   69.3139 H   0  0  0  0  0  0  0  0  0  0  0  0
  -33.9208   60.1629   71.1638 H   0  0  0  0  0  0  0  0  0  0  0  0
  -34.1315   58.8197   70.0061 H   0  0  0  0  0  0  0  0  0  0  0  0
  -36.0780   59.8555   69.1088 H   0  0  0  0  0  0  0  0  0  0  0  0
  -35.8690   61.2141   70.2347 H   0  0  0  0  0  0  0  0  0  0  0  0
  -37.6100   59.7135   70.9762 H   0  0  0  0  0  0  0  0  0  0  0  0
  -36.2041   59.7572   72.0816 H   0  0  0  0  0  0  0  0  0  0  0  0
  -36.8167   57.5786   70.1530 H   0  0  0  0  0  0  0  0  0  0  0  0
  -37.0944   57.5697   71.9192 H   0  0  0  0  0  0  0  0  0  0  0  0
  -34.4285   57.7343   70.5967 H   0  0  0  0  0  0  0  0  0  0  0  0
  -35.1521   56.2948   71.3350 H   0  0  0  0  0  0  0  0  0  0  0  0
  -35.2057   57.8879   73.4630 H   0  0  0  0  0  0  0  0  0  0  0  0
  -33.0255   58.1942   73.9610 H   0  0  0  0  0  0  0  0  0  0  0  0
  -32.4461   58.0197   71.0532 H   0  0  0  0  0  0  0  0  0  0  0  0
  -31.7499   56.7801   72.1217 H   0  0  0  0  0  0  0  0  0  0  0  0
  -30.5627   58.4616   73.3450 H   0  0  0  0  0  0  0  0  0  0  0  0
  -31.2688   59.7102   72.2987 H   0  0  0  0  0  0  0  0  0  0  0  0
  -29.4166   57.5489   71.4078 H   0  0  0  0  0  0  0  0  0  0  0  0
  -29.0034   59.2534   71.6879 H   0  0  0  0  0  0  0  0  0  0  0  0
  -30.9209   58.2481   69.6389 H   0  0  0  0  0  0  0  0  0  0  0  0
  -29.2483   58.8064   69.3651 H   0  0  0  0  0  0  0  0  0  0  0  0
  -31.4898   60.4921   70.3614 H   0  0  0  0  0  0  0  0  0  0  0  0
  -30.8289   60.4626   68.7100 H   0  0  0  0  0  0  0  0  0  0  0  0
  -28.7252   61.2504   69.5080 H   0  0  0  0  0  0  0  0  0  0  0  0
  -29.3775   61.2654   71.1663 H   0  0  0  0  0  0  0  0  0  0  0  0
  -30.3270   62.9765   68.9229 H   0  0  0  0  0  0  0  0  0  0  0  0
  -29.2677   63.4717   70.2549 H   0  0  0  0  0  0  0  0  0  0  0  0
  -32.0894   62.5273   70.5286 H   0  0  0  0  0  0  0  0  0  0  0  0
  -31.5413   64.1809   70.6645 H   0  0  0  0  0  0  0  0  0  0  0  0
  -31.0295   62.9916   71.8378 H   0  0  0  0  0  0  0  0  0  0  0  0
  -32.7377   69.8438   62.7723 H   0  0  0  0  0  0  0  0  0  0  0  0
  -35.3300   68.7932   63.8992 H   0  0  0  0  0  0  0  0  0  0  0  0
  -34.3360   71.6474   63.8253 H   0  0  0  0  0  0  0  0  0  0  0  0
  -34.0399   71.5181   66.1499 H   0  0  0  0  0  0  0  0  0  0  0  0
  -32.1619   70.8745   64.8573 H   0  0  0  0  0  0  0  0  0  0  0  0
  -32.4378   68.9261   67.1126 H   0  0  0  0  0  0  0  0  0  0  0  0
  -30.9325   69.4152   66.3368 H   0  0  0  0  0  0  0  0  0  0  0  0
  1  4  1  0  0  0  0
  1 31  1  0  0  0  0
  1 62  1  0  0  0  0
  2  3  1  0  0  0  0
  2  4  1  0  0  0  0
  2 63  1  0  0  0  0
  2 64  1  0  0  0  0
  3 55  1  0  0  0  0
  4  6  1  0  0  0  0
  4 65  1  6  0  0  0
  5  6  1  0  0  0  0
  5 66  1  0  0  0  0
  6  8  1  0  0  0  0
  6 67  1  6  0  0  0
  7 31  2  0  0  0  0
  8 10  2  0  0  0  0
  8 68  1  0  0  0  0
  9 56  1  0  0  0  0
  9 69  1  0  0  0  0
 10 12  1  0  0  0  0
 10 70  1  0  0  0  0
 11 57  1  0  0  0  0
 11 61  1  0  0  0  0
 12 14  1  0  0  0  0
 12 71  1  0  0  0  0
 12 72  1  0  0  0  0
 13 58  1  0  0  0  0
 13 73  1  0  0  0  0
 14 16  1  0  0  0  0
 14 74  1  0  0  0  0
 14 75  1  0  0  0  0
 15 55  1  0  0  0  0
 15 59  1  0  0  0  0
 16 18  1  0  0  0  0
 16 76  1  0  0  0  0
 16 77  1  0  0  0  0
 17 60  1  0  0  0  0
 17 78  1  0  0  0  0
 18 20  1  0  0  0  0
 18 79  1  0  0  0  0
 18 80  1  0  0  0  0
 19 61  1  0  0  0  0
 19 81  1  0  0  0  0
 20 22  1  0  0  0  0
 20 82  1  0  0  0  0
 20 83  1  0  0  0  0
 21 61  1  0  0  0  0
 22 24  1  0  0  0  0
 22 84  1  0  0  0  0
 22 85  1  0  0  0  0
 23 61  1  0  0  0  0
 23 86  1  0  0  0  0
 24 25  1  0  0  0  0
 24 87  1  0  0  0  0
 24 88  1  0  0  0  0
 25 26  1  0  0  0  0
 25 89  1  0  0  0  0
 25 90  1  0  0  0  0
 26 27  1  0  0  0  0
 26 91  1  0  0  0  0
 26 92  1  0  0  0  0
 27 28  1  0  0  0  0
 27 93  1  0  0  0  0
 27 94  1  0  0  0  0
 28 29  1  0  0  0  0
 28 95  1  0  0  0  0
 28 96  1  0  0  0  0
 29 30  1  0  0  0  0
 29 97  1  0  0  0  0
 29 98  1  0  0  0  0
 30 99  1  0  0  0  0
 30100  1  0  0  0  0
 30101  1  0  0  0  0
 31 32  1  0  0  0  0
 32 33  1  0  0  0  0
 32102  1  0  0  0  0
 32103  1  0  0  0  0
 33 34  1  0  0  0  0
 33104  1  0  0  0  0
 33105  1  0  0  0  0
 34 35  1  0  0  0  0
 34106  1  0  0  0  0
 34107  1  0  0  0  0
 35 36  1  0  0  0  0
 35108  1  0  0  0  0
 35109  1  0  0  0  0
 36 37  1  0  0  0  0
 36110  1  0  0  0  0
 36111  1  0  0  0  0
 37 38  1  0  0  0  0
 37112  1  0  0  0  0
 37113  1  0  0  0  0
 38 39  1  0  0  0  0
 38114  1  0  0  0  0
 38115  1  0  0  0  0
 39 40  1  0  0  0  0
 39116  1  0  0  0  0
 39117  1  0  0  0  0
 40 41  1  0  0  0  0
 40118  1  0  0  0  0
 40119  1  0  0  0  0
 41 42  1  0  0  0  0
 41120  1  0  0  0  0
 41121  1  0  0  0  0
 42 43  1  0  0  0  0
 42122  1  0  0  0  0
 42123  1  0  0  0  0
 43 44  1  0  0  0  0
 43124  1  0  0  0  0
 43125  1  0  0  0  0
 44 45  1  0  0  0  0
 44126  1  0  0  0  0
 44127  1  0  0  0  0
 45 46  2  0  0  0  0
 45128  1  0  0  0  0
 46 47  1  0  0  0  0
 46129  1  0  0  0  0
 47 48  1  0  0  0  0
 47130  1  0  0  0  0
 47131  1  0  0  0  0
 48 49  1  0  0  0  0
 48132  1  0  0  0  0
 48133  1  0  0  0  0
 49 50  1  0  0  0  0
 49134  1  0  0  0  0
 49135  1  0  0  0  0
 50 51  1  0  0  0  0
 50136  1  0  0  0  0
 50137  1  0  0  0  0
 51 52  1  0  0  0  0
 51138  1  0  0  0  0
 51139  1  0  0  0  0
 52 53  1  0  0  0  0
 52140  1  0  0  0  0
 52141  1  0  0  0  0
 53 54  1  0  0  0  0
 53142  1  0  0  0  0
 53143  1  0  0  0  0
 54144  1  0  0  0  0
 54145  1  0  0  0  0
 54146  1  0  0  0  0
 55 56  1  0  0  0  0
 55147  1  6  0  0  0
 56 57  1  0  0  0  0
 56148  1  1  0  0  0
 57 58  1  0  0  0  0
 57149  1  6  0  0  0
 58 59  1  0  0  0  0
 58150  1  1  0  0  0
 59 60  1  0  0  0  0
 59151  1  6  0  0  0
 60152  1  0  0  0  0
 60153  1  0  0  0  0
M  CHG  1  21  -1
M  END
$$$$
/media/chris/experiments/cd1a-new-docking/inputs/ligands/7ryn_ligand.pdb
 OpenBabel07032312553D

153153  0  0  1  0  0  0  0  0999 V2000
  -33.0340   65.1330   62.2120 N   0  0  0  0  0  0  0  0  0  0  0  0
  -32.0220   67.3480   62.3220 C   0  0  0  0  0  0  0  0  0  0  0  0
  -33.3204   67.9104   62.5424 O   0  0  0  0  0  0  0  0  0  0  0  0
  -32.1830   66.0840   61.5030 C   0  0  1  0  0  0  0  0  0  0  0  0
  -29.9992   66.3678   60.5104 O   0  0  0  0  0  0  0  0  0  0  0  0
  -30.8310   65.4230   61.1900 C   0  0  2  0  0  0  0  0  0  0  0  0
  -31.3638   64.0971   63.3098 O   0  0  0  0  0  0  0  0  0  0  0  0
  -31.0055   64.1786   60.3744 C   0  0  0  0  0  0  0  0  0  0  0  0
  -36.1193   67.8488   62.4832 O   0  0  0  0  0  0  0  0  0  0  0  0
  -32.0597   63.3881   60.4139 C   0  0  0  0  0  0  0  0  0  0  0  0
  -37.2741   70.0030   61.0417 O   0  0  0  0  0  0  0  0  0  0  0  0
  -32.2106   62.1609   59.5761 C   0  0  0  0  0  0  0  0  0  0  0  0
  -35.0443   71.4283   60.3491 O   0  0  0  0  0  0  0  0  0  0  0  0
  -33.4423   62.2587   58.6736 C   0  0  0  0  0  0  0  0  0  0  0  0
  -33.2780   69.1723   60.6099 O   0  0  0  0  0  0  0  0  0  0  0  0
  -33.4063   63.4206   57.6942 C   0  0  0  0  0  0  0  0  0  0  0  0
  -31.7443   69.7638   58.3378 O   0  0  0  0  0  0  0  0  0  0  0  0
  -32.2440   63.3782   56.7170 C   0  0  0  0  0  0  0  0  0  0  0  0
  -39.3030   71.2740   60.7671 O   0  0  0  0  0  0  0  0  0  0  0  0
  -32.2314   62.1463   55.8236 C   0  0  0  0  0  0  0  0  0  0  0  0
  -38.5637   69.6490   58.9984 O   0  5  0  0  0  0  0  0  0  0  0  0
  -31.0556   62.1027   54.8598 C   0  0  0  0  0  0  0  0  0  0  0  0
  -37.4222   71.6966   59.3737 O   0  0  0  0  0  0  0  0  0  0  0  0
  -31.0505   60.8826   53.9557 C   0  0  0  0  0  0  0  0  0  0  0  0
  -32.2698   60.7723   53.0593 C   0  0  0  0  0  0  0  0  0  0  0  0
  -33.5852   60.7003   53.8157 C   0  0  0  0  0  0  0  0  0  0  0  0
  -34.7894   60.5734   52.9012 C   0  0  0  0  0  0  0  0  0  0  0  0
  -34.9513   61.7156   51.9166 C   0  0  0  0  0  0  0  0  0  0  0  0
  -36.1749   61.5564   51.0358 C   0  0  0  0  0  0  0  0  0  0  0  0
  -36.3257   62.6892   50.0415 C   0  0  0  0  0  0  0  0  0  0  0  0
  -32.5596   64.2152   63.0586 C   0  0  0  0  0  0  0  0  0  0  0  0
  -33.5934   63.3253   63.7025 C   0  0  0  0  0  0  0  0  0  0  0  0
  -34.8154   63.1137   62.8180 C   0  0  0  0  0  0  0  0  0  0  0  0
  -34.4732   62.4502   61.4937 C   0  0  0  0  0  0  0  0  0  0  0  0
  -33.8532   61.0703   61.6379 C   0  0  0  0  0  0  0  0  0  0  0  0
  -34.7518   60.0623   62.3387 C   0  0  0  0  0  0  0  0  0  0  0  0
  -34.1271   58.6823   62.5003 C   0  0  0  0  0  0  0  0  0  0  0  0
  -33.7392   58.0226   61.1833 C   0  0  0  0  0  0  0  0  0  0  0  0
  -33.1272   56.6316   61.3274 C   0  0  0  0  0  0  0  0  0  0  0  0
  -31.8539   56.5966   62.1710 C   0  0  0  0  0  0  0  0  0  0  0  0
  -31.2197   55.2128   62.3104 C   0  0  0  0  0  0  0  0  0  0  0  0
  -30.7959   54.5999   60.9755 C   0  0  0  0  0  0  0  0  0  0  0  0
  -29.7525   55.4014   60.1975 C   0  0  0  0  0  0  0  0  0  0  0  0
  -28.4185   55.5987   60.9225 C   0  0  0  0  0  0  0  0  0  0  0  0
  -27.4349   56.4053   60.1250 C   0  0  0  0  0  0  0  0  0  0  0  0
  -26.2057   56.7199   60.4938 C   0  0  0  0  0  0  0  0  0  0  0  0
  -25.5449   56.3321   61.7818 C   0  0  0  0  0  0  0  0  0  0  0  0
  -25.1082   57.5267   62.6325 C   0  0  0  0  0  0  0  0  0  0  0  0
  -24.1207   58.4429   61.9221 C   0  0  0  0  0  0  0  0  0  0  0  0
  -24.6785   59.0581   60.6435 C   0  0  0  0  0  0  0  0  0  0  0  0
  -25.9134   59.9281   60.8481 C   0  0  0  0  0  0  0  0  0  0  0  0
  -26.4664   60.5201   59.5594 C   0  0  0  0  0  0  0  0  0  0  0  0
  -25.4812   61.3988   58.8052 C   0  0  0  0  0  0  0  0  0  0  0  0
  -24.9981   62.5791   59.6233 C   0  0  0  0  0  0  0  0  0  0  0  0
  -34.0138   68.2339   61.3725 C   0  0  2  0  0  0  0  0  0  0  0  0
  -35.3627   68.8190   61.7702 C   0  0  1  0  0  0  0  0  0  0  0  0
  -36.1194   69.2678   60.5264 C   0  0  2  0  0  0  0  0  0  0  0  0
  -35.2668   70.1951   59.6728 C   0  0  2  0  0  0  0  0  0  0  0  0
  -33.9243   69.5307   59.3780 C   0  0  1  0  0  0  0  0  0  0  0  0
  -32.9686   70.4285   58.6276 C   0  0  0  0  0  0  0  0  0  0  0  0
  -38.3112   70.6118   60.0036 S   0  0  0  0  0  0  0  0  0  0  0  0
  -34.0058   65.1700   62.0585 H   0  0  0  0  0  0  0  0  0  0  0  0
  -31.5648   67.1148   63.2609 H   0  0  0  0  0  0  0  0  0  0  0  0
  -31.4012   68.0473   61.8019 H   0  0  0  0  0  0  0  0  0  0  0  0
  -32.6374   66.3625   60.5752 H   0  0  0  0  0  0  0  0  0  0  0  0
  -29.9008   67.1635   61.0564 H   0  0  0  0  0  0  0  0  0  0  0  0
  -30.3647   65.1308   62.1077 H   0  0  0  0  0  0  0  0  0  0  0  0
  -30.2407   63.9200   59.7315 H   0  0  0  0  0  0  0  0  0  0  0  0
  -35.6277   67.5712   63.2720 H   0  0  0  0  0  0  0  0  0  0  0  0
  -32.8255   63.6315   61.0615 H   0  0  0  0  0  0  0  0  0  0  0  0
  -32.3136   61.3105   60.2172 H   0  0  0  0  0  0  0  0  0  0  0  0
  -31.3429   62.0624   58.9578 H   0  0  0  0  0  0  0  0  0  0  0  0
  -35.8963   71.8521   60.5374 H   0  0  0  0  0  0  0  0  0  0  0  0
  -34.3058   62.3705   59.2954 H   0  0  0  0  0  0  0  0  0  0  0  0
  -33.4662   61.3635   58.0880 H   0  0  0  0  0  0  0  0  0  0  0  0
  -33.3399   64.3296   58.2548 H   0  0  0  0  0  0  0  0  0  0  0  0
  -34.3005   63.3570   57.1100 H   0  0  0  0  0  0  0  0  0  0  0  0
  -31.1553   70.3661   57.8571 H   0  0  0  0  0  0  0  0  0  0  0  0
  -31.3326   63.3969   57.2771 H   0  0  0  0  0  0  0  0  0  0  0  0
  -32.3494   64.2264   56.0733 H   0  0  0  0  0  0  0  0  0  0  0  0
  -39.8846   70.6172   61.1810 H   0  0  0  0  0  0  0  0  0  0  0  0
  -33.1366   62.1334   55.2531 H   0  0  0  0  0  0  0  0  0  0  0  0
  -32.1416   61.2950   56.4655 H   0  0  0  0  0  0  0  0  0  0  0  0
  -30.1508   62.1034   55.4310 H   0  0  0  0  0  0  0  0  0  0  0  0
  -31.1397   62.9606   54.2259 H   0  0  0  0  0  0  0  0  0  0  0  0
  -37.2263   72.3784   60.0353 H   0  0  0  0  0  0  0  0  0  0  0  0
  -31.0053   60.0084   54.5709 H   0  0  0  0  0  0  0  0  0  0  0  0
  -30.2012   60.9785   53.3119 H   0  0  0  0  0  0  0  0  0  0  0  0
  -32.1732   59.8868   52.4665 H   0  0  0  0  0  0  0  0  0  0  0  0
  -32.3008   61.6624   52.4662 H   0  0  0  0  0  0  0  0  0  0  0  0
  -33.6924   61.5911   54.3987 H   0  0  0  0  0  0  0  0  0  0  0  0
  -33.5546   59.8233   54.4278 H   0  0  0  0  0  0  0  0  0  0  0  0
  -35.6685   60.5289   53.5097 H   0  0  0  0  0  0  0  0  0  0  0  0
  -34.6395   59.6878   52.3198 H   0  0  0  0  0  0  0  0  0  0  0  0
  -34.0828   61.7561   51.2929 H   0  0  0  0  0  0  0  0  0  0  0  0
  -35.0734   62.6160   52.4817 H   0  0  0  0  0  0  0  0  0  0  0  0
  -37.0446   61.5284   51.6585 H   0  0  0  0  0  0  0  0  0  0  0  0
  -36.0595   60.6494   50.4800 H   0  0  0  0  0  0  0  0  0  0  0  0
  -36.4434   63.6129   50.5685 H   0  0  0  0  0  0  0  0  0  0  0  0
  -37.1864   62.5151   49.4303 H   0  0  0  0  0  0  0  0  0  0  0  0
  -35.4536   62.7397   49.4235 H   0  0  0  0  0  0  0  0  0  0  0  0
  -33.9085   63.7748   64.6209 H   0  0  0  0  0  0  0  0  0  0  0  0
  -33.1418   62.3692   63.8662 H   0  0  0  0  0  0  0  0  0  0  0  0
  -35.2627   64.0651   62.6188 H   0  0  0  0  0  0  0  0  0  0  0  0
  -35.4849   62.4637   63.3417 H   0  0  0  0  0  0  0  0  0  0  0  0
  -33.7811   63.0775   60.9716 H   0  0  0  0  0  0  0  0  0  0  0  0
  -35.3936   62.3231   60.9631 H   0  0  0  0  0  0  0  0  0  0  0  0
  -32.9485   61.1644   62.2015 H   0  0  0  0  0  0  0  0  0  0  0  0
  -33.6835   60.7005   60.6483 H   0  0  0  0  0  0  0  0  0  0  0  0
  -35.6512   59.9597   61.7683 H   0  0  0  0  0  0  0  0  0  0  0  0
  -34.9296   60.4389   63.3244 H   0  0  0  0  0  0  0  0  0  0  0  0
  -34.8314   58.0500   62.9994 H   0  0  0  0  0  0  0  0  0  0  0  0
  -33.2245   58.8135   63.0598 H   0  0  0  0  0  0  0  0  0  0  0  0
  -33.0270   58.6517   60.6915 H   0  0  0  0  0  0  0  0  0  0  0  0
  -34.6446   57.9002   60.6263 H   0  0  0  0  0  0  0  0  0  0  0  0
  -32.8934   56.2641   60.3500 H   0  0  0  0  0  0  0  0  0  0  0  0
  -33.8502   56.0265   61.8334 H   0  0  0  0  0  0  0  0  0  0  0  0
  -32.0929   56.9542   63.1507 H   0  0  0  0  0  0  0  0  0  0  0  0
  -31.1375   57.2083   61.6636 H   0  0  0  0  0  0  0  0  0  0  0  0
  -31.9300   54.5596   62.7729 H   0  0  0  0  0  0  0  0  0  0  0  0
  -30.3337   55.3300   62.8988 H   0  0  0  0  0  0  0  0  0  0  0  0
  -31.6675   54.5064   60.3619 H   0  0  0  0  0  0  0  0  0  0  0  0
  -30.3379   53.6617   61.2098 H   0  0  0  0  0  0  0  0  0  0  0  0
  -30.1632   56.3672   59.9887 H   0  0  0  0  0  0  0  0  0  0  0  0
  -29.5342   54.8344   59.3168 H   0  0  0  0  0  0  0  0  0  0  0  0
  -27.9917   54.6376   61.1200 H   0  0  0  0  0  0  0  0  0  0  0  0
  -28.6196   56.1375   61.8248 H   0  0  0  0  0  0  0  0  0  0  0  0
  -27.7481   56.7458   59.2026 H   0  0  0  0  0  0  0  0  0  0  0  0
  -25.6491   57.2851   59.8336 H   0  0  0  0  0  0  0  0  0  0  0  0
  -24.6798   55.7449   61.5544 H   0  0  0  0  0  0  0  0  0  0  0  0
  -26.2681   55.7887   62.3533 H   0  0  0  0  0  0  0  0  0  0  0  0
  -24.6476   57.1577   63.5251 H   0  0  0  0  0  0  0  0  0  0  0  0
  -25.9841   58.1050   62.8404 H   0  0  0  0  0  0  0  0  0  0  0  0
  -23.2492   57.8743   61.6729 H   0  0  0  0  0  0  0  0  0  0  0  0
  -23.9000   59.2487   62.5905 H   0  0  0  0  0  0  0  0  0  0  0  0
  -24.9363   58.2634   59.9750 H   0  0  0  0  0  0  0  0  0  0  0  0
  -23.9148   59.6993   60.2556 H   0  0  0  0  0  0  0  0  0  0  0  0
  -25.6548   60.7320   61.5052 H   0  0  0  0  0  0  0  0  0  0  0  0
  -26.6760   59.2971   61.2545 H   0  0  0  0  0  0  0  0  0  0  0  0
  -27.3250   61.1105   59.8025 H   0  0  0  0  0  0  0  0  0  0  0  0
  -26.6987   59.6964   58.9171 H   0  0  0  0  0  0  0  0  0  0  0  0
  -25.9596   61.7682   57.9223 H   0  0  0  0  0  0  0  0  0  0  0  0
  -24.6270   60.7977   58.5731 H   0  0  0  0  0  0  0  0  0  0  0  0
  -25.8300   63.2038   59.8738 H   0  0  0  0  0  0  0  0  0  0  0  0
  -24.2885   63.1417   59.0533 H   0  0  0  0  0  0  0  0  0  0  0  0
  -24.5348   62.2254   60.5206 H   0  0  0  0  0  0  0  0  0  0  0  0
  -34.1535   67.3589   60.7727 H   0  0  0  0  0  0  0  0  0  0  0  0
  -35.2053   69.6672   62.4032 H   0  0  0  0  0  0  0  0  0  0  0  0
  -36.3912   68.4373   59.9090 H   0  0  0  0  0  0  0  0  0  0  0  0
  -35.7838   70.3893   58.7563 H   0  0  0  0  0  0  0  0  0  0  0  0
  -34.1465   68.6773   58.7719 H   0  0  0  0  0  0  0  0  0  0  0  0
  -33.4255   70.7312   57.7086 H   0  0  0  0  0  0  0  0  0  0  0  0
  -32.7518   71.2760   59.2436 H   0  0  0  0  0  0  0  0  0  0  0  0
  1  4  1  0  0  0  0
  1 31  1  0  0  0  0
  1 62  1  0  0  0  0
  2  3  1  0  0  0  0
  2  4  1  0  0  0  0
  2 63  1  0  0  0  0
  2 64  1  0  0  0  0
  3 55  1  0  0  0  0
  4  6  1  0  0  0  0
  4 65  1  6  0  0  0
  5  6  1  0  0  0  0
  5 66  1  0  0  0  0
  6  8  1  0  0  0  0
  6 67  1  1  0  0  0
  7 31  2  0  0  0  0
  8 10  2  0  0  0  0
  8 68  1  0  0  0  0
  9 56  1  0  0  0  0
  9 69  1  0  0  0  0
 10 12  1  0  0  0  0
 10 70  1  0  0  0  0
 11 57  1  0  0  0  0
 11 61  1  0  0  0  0
 12 14  1  0  0  0  0
 12 71  1  0  0  0  0
 12 72  1  0  0  0  0
 13 58  1  0  0  0  0
 13 73  1  0  0  0  0
 14 16  1  0  0  0  0
 14 74  1  0  0  0  0
 14 75  1  0  0  0  0
 15 55  1  0  0  0  0
 15 59  1  0  0  0  0
 16 18  1  0  0  0  0
 16 76  1  0  0  0  0
 16 77  1  0  0  0  0
 17 60  1  0  0  0  0
 17 78  1  0  0  0  0
 18 20  1  0  0  0  0
 18 79  1  0  0  0  0
 18 80  1  0  0  0  0
 19 61  1  0  0  0  0
 19 81  1  0  0  0  0
 20 22  1  0  0  0  0
 20 82  1  0  0  0  0
 20 83  1  0  0  0  0
 21 61  1  0  0  0  0
 22 24  1  0  0  0  0
 22 84  1  0  0  0  0
 22 85  1  0  0  0  0
 23 61  1  0  0  0  0
 23 86  1  0  0  0  0
 24 25  1  0  0  0  0
 24 87  1  0  0  0  0
 24 88  1  0  0  0  0
 25 26  1  0  0  0  0
 25 89  1  0  0  0  0
 25 90  1  0  0  0  0
 26 27  1  0  0  0  0
 26 91  1  0  0  0  0
 26 92  1  0  0  0  0
 27 28  1  0  0  0  0
 27 93  1  0  0  0  0
 27 94  1  0  0  0  0
 28 29  1  0  0  0  0
 28 95  1  0  0  0  0
 28 96  1  0  0  0  0
 29 30  1  0  0  0  0
 29 97  1  0  0  0  0
 29 98  1  0  0  0  0
 30 99  1  0  0  0  0
 30100  1  0  0  0  0
 30101  1  0  0  0  0
 31 32  1  0  0  0  0
 32 33  1  0  0  0  0
 32102  1  0  0  0  0
 32103  1  0  0  0  0
 33 34  1  0  0  0  0
 33104  1  0  0  0  0
 33105  1  0  0  0  0
 34 35  1  0  0  0  0
 34106  1  0  0  0  0
 34107  1  0  0  0  0
 35 36  1  0  0  0  0
 35108  1  0  0  0  0
 35109  1  0  0  0  0
 36 37  1  0  0  0  0
 36110  1  0  0  0  0
 36111  1  0  0  0  0
 37 38  1  0  0  0  0
 37112  1  0  0  0  0
 37113  1  0  0  0  0
 38 39  1  0  0  0  0
 38114  1  0  0  0  0
 38115  1  0  0  0  0
 39 40  1  0  0  0  0
 39116  1  0  0  0  0
 39117  1  0  0  0  0
 40 41  1  0  0  0  0
 40118  1  0  0  0  0
 40119  1  0  0  0  0
 41 42  1  0  0  0  0
 41120  1  0  0  0  0
 41121  1  0  0  0  0
 42 43  1  0  0  0  0
 42122  1  0  0  0  0
 42123  1  0  0  0  0
 43 44  1  0  0  0  0
 43124  1  0  0  0  0
 43125  1  0  0  0  0
 44 45  1  0  0  0  0
 44126  1  0  0  0  0
 44127  1  0  0  0  0
 45 46  2  0  0  0  0
 45128  1  0  0  0  0
 46 47  1  0  0  0  0
 46129  1  0  0  0  0
 47 48  1  0  0  0  0
 47130  1  0  0  0  0
 47131  1  0  0  0  0
 48 49  1  0  0  0  0
 48132  1  0  0  0  0
 48133  1  0  0  0  0
 49 50  1  0  0  0  0
 49134  1  0  0  0  0
 49135  1  0  0  0  0
 50 51  1  0  0  0  0
 50136  1  0  0  0  0
 50137  1  0  0  0  0
 51 52  1  0  0  0  0
 51138  1  0  0  0  0
 51139  1  0  0  0  0
 52 53  1  0  0  0  0
 52140  1  0  0  0  0
 52141  1  0  0  0  0
 53 54  1  0  0  0  0
 53142  1  0  0  0  0
 53143  1  0  0  0  0
 54144  1  0  0  0  0
 54145  1  0  0  0  0
 54146  1  0  0  0  0
 55 56  1  0  0  0  0
 55147  1  6  0  0  0
 56 57  1  0  0  0  0
 56148  1  1  0  0  0
 57 58  1  0  0  0  0
 57149  1  6  0  0  0
 58 59  1  0  0  0  0
 58150  1  6  0  0  0
 59 60  1  0  0  0  0
 59151  1  6  0  0  0
 60152  1  0  0  0  0
 60153  1  0  0  0  0
M  CHG  1  21  -1
M  END
$$$$
/media/chris/experiments/cd1a-new-docking/inputs/ligands/7ryn_ligand.pdb
 OpenBabel07032312553D

153153  0  0  1  0  0  0  0  0999 V2000
  -33.0340   65.1330   62.2120 N   0  0  0  0  0  0  0  0  0  0  0  0
  -32.0220   67.3480   62.3220 C   0  0  0  0  0  0  0  0  0  0  0  0
  -31.1969   68.2589   61.5870 O   0  0  0  0  0  0  0  0  0  0  0  0
  -32.1830   66.0840   61.5030 C   0  0  1  0  0  0  0  0  0  0  0  0
  -29.9992   66.3678   60.5104 O   0  0  0  0  0  0  0  0  0  0  0  0
  -30.8310   65.4230   61.1900 C   0  0  2  0  0  0  0  0  0  0  0  0
  -35.0054   64.5907   63.1540 O   0  0  0  0  0  0  0  0  0  0  0  0
  -31.0055   64.1786   60.3744 C   0  0  0  0  0  0  0  0  0  0  0  0
  -32.9308   70.4319   61.2513 O   0  0  0  0  0  0  0  0  0  0  0  0
  -32.0597   63.3881   60.4139 C   0  0  0  0  0  0  0  0  0  0  0  0
  -33.4310   71.8685   63.6467 O   0  0  0  0  0  0  0  0  0  0  0  0
  -32.2106   62.1609   59.5761 C   0  0  0  0  0  0  0  0  0  0  0  0
  -32.0199   70.3807   65.4572 O   0  0  0  0  0  0  0  0  0  0  0  0
  -32.3678   60.9144   60.4494 C   0  0  0  0  0  0  0  0  0  0  0  0
  -30.2839   69.2401   63.4665 O   0  0  0  0  0  0  0  0  0  0  0  0
  -31.2002   60.6607   61.3891 C   0  0  0  0  0  0  0  0  0  0  0  0
  -29.8754   69.1472   66.2254 O   0  0  0  0  0  0  0  0  0  0  0  0
  -30.9509   61.7753   62.3908 C   0  0  0  0  0  0  0  0  0  0  0  0
  -34.9849   73.3767   64.7040 O   0  0  0  0  0  0  0  0  0  0  0  0
  -29.7703   61.5223   63.3170 C   0  0  0  0  0  0  0  0  0  0  0  0
  -32.7374   74.1926   63.9306 O   0  5  0  0  0  0  0  0  0  0  0  0
  -29.9077   60.2572   64.1501 C   0  0  0  0  0  0  0  0  0  0  0  0
  -32.9709   72.7578   65.8076 O   0  0  0  0  0  0  0  0  0  0  0  0
  -31.1341   60.2446   65.0456 C   0  0  0  0  0  0  0  0  0  0  0  0
  -31.1824   61.3863   66.0438 C   0  0  0  0  0  0  0  0  0  0  0  0
  -29.9975   61.4239   66.9937 C   0  0  0  0  0  0  0  0  0  0  0  0
  -29.8600   60.1594   67.8212 C   0  0  0  0  0  0  0  0  0  0  0  0
  -29.6503   58.8975   67.0063 C   0  0  0  0  0  0  0  0  0  0  0  0
  -29.5352   57.6578   67.8715 C   0  0  0  0  0  0  0  0  0  0  0  0
  -30.7802   57.4091   68.6976 C   0  0  0  0  0  0  0  0  0  0  0  0
  -34.3010   65.3918   62.5466 C   0  0  0  0  0  0  0  0  0  0  0  0
  -34.8204   66.7470   62.1356 C   0  0  0  0  0  0  0  0  0  0  0  0
  -36.2638   66.9752   62.5659 C   0  0  0  0  0  0  0  0  0  0  0  0
  -36.7956   68.3337   62.1381 C   0  0  0  0  0  0  0  0  0  0  0  0
  -36.7993   68.5479   60.6336 C   0  0  0  0  0  0  0  0  0  0  0  0
  -37.3158   69.9141   60.2080 C   0  0  0  0  0  0  0  0  0  0  0  0
  -36.4993   71.0813   60.7481 C   0  0  0  0  0  0  0  0  0  0  0  0
  -35.0443   71.0772   60.2972 C   0  0  0  0  0  0  0  0  0  0  0  0
  -34.2082   72.2316   60.8439 C   0  0  0  0  0  0  0  0  0  0  0  0
  -34.7315   73.6148   60.4604 C   0  0  0  0  0  0  0  0  0  0  0  0
  -34.8112   73.8713   58.9557 C   0  0  0  0  0  0  0  0  0  0  0  0
  -35.3217   75.2684   58.6024 C   0  0  0  0  0  0  0  0  0  0  0  0
  -36.7175   75.6001   59.1298 C   0  0  0  0  0  0  0  0  0  0  0  0
  -36.8575   75.5597   60.6539 C   0  0  0  0  0  0  0  0  0  0  0  0
  -35.9586   76.5415   61.3484 C   0  0  0  0  0  0  0  0  0  0  0  0
  -36.2048   77.1439   62.4983 C   0  0  0  0  0  0  0  0  0  0  0  0
  -37.4303   76.9659   63.3424 C   0  0  0  0  0  0  0  0  0  0  0  0
  -38.6856   76.6211   62.5383 C   0  0  0  0  0  0  0  0  0  0  0  0
  -39.9289   76.4590   63.4028 C   0  0  0  0  0  0  0  0  0  0  0  0
  -41.1773   76.0987   62.6054 C   0  0  0  0  0  0  0  0  0  0  0  0
  -42.4406   75.9470   63.4450 C   0  0  0  0  0  0  0  0  0  0  0  0
  -43.6733   75.5706   62.6351 C   0  0  0  0  0  0  0  0  0  0  0  0
  -44.9425   75.4334   63.4610 C   0  0  0  0  0  0  0  0  0  0  0  0
  -46.1472   75.0417   62.6296 C   0  0  0  0  0  0  0  0  0  0  0  0
  -30.9530   69.4703   62.2406 C   0  0  2  0  0  0  0  0  0  0  0  0
  -32.2933   70.1495   62.4906 C   0  0  1  0  0  0  0  0  0  0  0  0
  -32.0829   71.4352   63.2803 C   0  0  2  0  0  0  0  0  0  0  0  0
  -31.2728   71.1754   64.5419 C   0  0  2  0  0  0  0  0  0  0  0  0
  -29.9796   70.4491   64.1802 C   0  0  1  0  0  0  0  0  0  0  0  0
  -29.1637   70.0508   65.3877 C   0  0  0  0  0  0  0  0  0  0  0  0
  -33.5968   73.2117   64.4786 S   0  0  0  0  0  0  0  0  0  0  0  0
  -32.6553   64.2575   62.4556 H   0  0  0  0  0  0  0  0  0  0  0  0
  -32.9806   67.7896   62.4978 H   0  0  0  0  0  0  0  0  0  0  0  0
  -31.5704   67.1208   63.2650 H   0  0  0  0  0  0  0  0  0  0  0  0
  -32.6374   66.3625   60.5752 H   0  0  0  0  0  0  0  0  0  0  0  0
  -29.9008   67.1635   61.0564 H   0  0  0  0  0  0  0  0  0  0  0  0
  -30.3647   65.1308   62.1077 H   0  0  0  0  0  0  0  0  0  0  0  0
  -30.2407   63.9200   59.7315 H   0  0  0  0  0  0  0  0  0  0  0  0
  -33.0591   69.6065   60.7582 H   0  0  0  0  0  0  0  0  0  0  0  0
  -32.8255   63.6315   61.0615 H   0  0  0  0  0  0  0  0  0  0  0  0
  -31.3426   62.0491   58.9604 H   0  0  0  0  0  0  0  0  0  0  0  0
  -33.0881   62.2665   58.9730 H   0  0  0  0  0  0  0  0  0  0  0  0
  -32.8421   70.8405   65.6883 H   0  0  0  0  0  0  0  0  0  0  0  0
  -32.4718   60.0653   59.8067 H   0  0  0  0  0  0  0  0  0  0  0  0
  -33.2281   61.0765   61.0646 H   0  0  0  0  0  0  0  0  0  0  0  0
  -30.3162   60.5361   60.7993 H   0  0  0  0  0  0  0  0  0  0  0  0
  -31.4475   59.7880   61.9568 H   0  0  0  0  0  0  0  0  0  0  0  0
  -29.3250   68.9123   66.9889 H   0  0  0  0  0  0  0  0  0  0  0  0
  -31.8297   61.8920   62.9900 H   0  0  0  0  0  0  0  0  0  0  0  0
  -30.7183   62.6534   61.8254 H   0  0  0  0  0  0  0  0  0  0  0  0
  -35.4139   73.6640   63.8828 H   0  0  0  0  0  0  0  0  0  0  0  0
  -29.6772   62.3559   63.9813 H   0  0  0  0  0  0  0  0  0  0  0  0
  -28.9074   61.3964   62.6969 H   0  0  0  0  0  0  0  0  0  0  0  0
  -29.0384   60.1631   64.7668 H   0  0  0  0  0  0  0  0  0  0  0  0
  -30.0133   59.4422   63.4648 H   0  0  0  0  0  0  0  0  0  0  0  0
  -33.5340   72.0818   66.2160 H   0  0  0  0  0  0  0  0  0  0  0  0
  -31.1445   59.3226   65.5885 H   0  0  0  0  0  0  0  0  0  0  0  0
  -31.9848   60.3566   64.4064 H   0  0  0  0  0  0  0  0  0  0  0  0
  -32.0763   61.2892   66.6238 H   0  0  0  0  0  0  0  0  0  0  0  0
  -31.1562   62.2944   65.4785 H   0  0  0  0  0  0  0  0  0  0  0  0
  -30.1191   62.2541   67.6577 H   0  0  0  0  0  0  0  0  0  0  0  0
  -29.1131   61.5143   66.3984 H   0  0  0  0  0  0  0  0  0  0  0  0
  -30.7518   60.0396   68.4001 H   0  0  0  0  0  0  0  0  0  0  0  0
  -28.9848   60.2826   68.4242 H   0  0  0  0  0  0  0  0  0  0  0  0
  -28.7505   59.0028   66.4369 H   0  0  0  0  0  0  0  0  0  0  0  0
  -30.5048   58.7737   66.3744 H   0  0  0  0  0  0  0  0  0  0  0  0
  -28.7027   57.7771   68.5330 H   0  0  0  0  0  0  0  0  0  0  0  0
  -29.4038   56.8185   67.2209 H   0  0  0  0  0  0  0  0  0  0  0  0
  -30.9391   58.2338   69.3605 H   0  0  0  0  0  0  0  0  0  0  0  0
  -30.6567   56.5120   69.2676 H   0  0  0  0  0  0  0  0  0  0  0  0
  -31.6244   57.3057   68.0483 H   0  0  0  0  0  0  0  0  0  0  0  0
  -34.7635   66.8274   61.0701 H   0  0  0  0  0  0  0  0  0  0  0  0
  -34.2169   67.4862   62.6195 H   0  0  0  0  0  0  0  0  0  0  0  0
  -36.3181   66.9067   63.6323 H   0  0  0  0  0  0  0  0  0  0  0  0
  -36.8648   66.2284   62.0904 H   0  0  0  0  0  0  0  0  0  0  0  0
  -36.1849   69.0903   62.5846 H   0  0  0  0  0  0  0  0  0  0  0  0
  -37.8144   68.3840   62.4613 H   0  0  0  0  0  0  0  0  0  0  0  0
  -37.4201   67.7990   60.1879 H   0  0  0  0  0  0  0  0  0  0  0  0
  -35.7820   68.4846   60.3079 H   0  0  0  0  0  0  0  0  0  0  0  0
  -38.3219   70.0172   60.5574 H   0  0  0  0  0  0  0  0  0  0  0  0
  -37.2439   69.9536   59.1411 H   0  0  0  0  0  0  0  0  0  0  0  0
  -36.5208   71.0415   61.8171 H   0  0  0  0  0  0  0  0  0  0  0  0
  -36.9419   71.9754   60.3614 H   0  0  0  0  0  0  0  0  0  0  0  0
  -35.0255   71.1279   59.2285 H   0  0  0  0  0  0  0  0  0  0  0  0
  -34.6094   70.1782   60.6814 H   0  0  0  0  0  0  0  0  0  0  0  0
  -33.2115   72.1328   60.4674 H   0  0  0  0  0  0  0  0  0  0  0  0
  -34.2541   72.1684   61.9110 H   0  0  0  0  0  0  0  0  0  0  0  0
  -34.0814   74.3482   60.8899 H   0  0  0  0  0  0  0  0  0  0  0  0
  -35.7336   73.6730   60.8311 H   0  0  0  0  0  0  0  0  0  0  0  0
  -35.4724   73.1496   58.5235 H   0  0  0  0  0  0  0  0  0  0  0  0
  -33.8165   73.7923   58.5694 H   0  0  0  0  0  0  0  0  0  0  0  0
  -35.3409   75.3547   57.5360 H   0  0  0  0  0  0  0  0  0  0  0  0
  -34.6529   75.9584   59.0731 H   0  0  0  0  0  0  0  0  0  0  0  0
  -37.4062   74.8946   58.7140 H   0  0  0  0  0  0  0  0  0  0  0  0
  -36.9167   76.6098   58.8370 H   0  0  0  0  0  0  0  0  0  0  0  0
  -36.6144   74.5746   60.9933 H   0  0  0  0  0  0  0  0  0  0  0  0
  -37.8668   75.8243   60.8911 H   0  0  0  0  0  0  0  0  0  0  0  0
  -35.0649   76.7668   60.8842 H   0  0  0  0  0  0  0  0  0  0  0  0
  -35.4866   77.7975   62.8476 H   0  0  0  0  0  0  0  0  0  0  0  0
  -37.6094   77.8769   63.8744 H   0  0  0  0  0  0  0  0  0  0  0  0
  -37.2420   76.1411   63.9976 H   0  0  0  0  0  0  0  0  0  0  0  0
  -38.5131   75.7033   62.0161 H   0  0  0  0  0  0  0  0  0  0  0  0
  -38.8682   77.4368   61.8702 H   0  0  0  0  0  0  0  0  0  0  0  0
  -40.1081   77.3809   63.9155 H   0  0  0  0  0  0  0  0  0  0  0  0
  -39.7410   75.6508   64.0783 H   0  0  0  0  0  0  0  0  0  0  0  0
  -40.9968   75.1717   62.1025 H   0  0  0  0  0  0  0  0  0  0  0  0
  -41.3544   76.9117   61.9327 H   0  0  0  0  0  0  0  0  0  0  0  0
  -42.6318   76.8770   63.9384 H   0  0  0  0  0  0  0  0  0  0  0  0
  -42.2636   75.1477   64.1339 H   0  0  0  0  0  0  0  0  0  0  0  0
  -43.4846   74.6349   62.1517 H   0  0  0  0  0  0  0  0  0  0  0  0
  -43.8417   76.3682   61.9421 H   0  0  0  0  0  0  0  0  0  0  0  0
  -45.1448   76.3713   63.9346 H   0  0  0  0  0  0  0  0  0  0  0  0
  -44.7782   74.6540   64.1754 H   0  0  0  0  0  0  0  0  0  0  0  0
  -46.3408   75.8020   61.9019 H   0  0  0  0  0  0  0  0  0  0  0  0
  -46.9999   74.9324   63.2666 H   0  0  0  0  0  0  0  0  0  0  0  0
  -45.9516   74.1143   62.1330 H   0  0  0  0  0  0  0  0  0  0  0  0
  -30.3291   70.0960   61.6371 H   0  0  0  0  0  0  0  0  0  0  0  0
  -32.9193   69.4938   63.0591 H   0  0  0  0  0  0  0  0  0  0  0  0
  -31.5471   72.1651   62.7102 H   0  0  0  0  0  0  0  0  0  0  0  0
  -31.0444   72.1140   65.0021 H   0  0  0  0  0  0  0  0  0  0  0  0
  -29.4118   71.1378   63.5901 H   0  0  0  0  0  0  0  0  0  0  0  0
  -28.2611   69.5805   65.0573 H   0  0  0  0  0  0  0  0  0  0  0  0
  -28.9495   70.9336   65.9532 H   0  0  0  0  0  0  0  0  0  0  0  0
  1  4  1  0  0  0  0
  1 31  1  0  0  0  0
  1 62  1  0  0  0  0
  2  3  1  0  0  0  0
  2  4  1  0  0  0  0
  2 63  1  0  0  0  0
  2 64  1  0  0  0  0
  3 55  1  0  0  0  0
  4  6  1  0  0  0  0
  4 65  1  6  0  0  0
  5  6  1  0  0  0  0
  5 66  1  0  0  0  0
  6  8  1  0  0  0  0
  6 67  1  1  0  0  0
  7 31  2  0  0  0  0
  8 10  2  0  0  0  0
  8 68  1  0  0  0  0
  9 56  1  0  0  0  0
  9 69  1  0  0  0  0
 10 12  1  0  0  0  0
 10 70  1  0  0  0  0
 11 57  1  0  0  0  0
 11 61  1  0  0  0  0
 12 14  1  0  0  0  0
 12 71  1  0  0  0  0
 12 72  1  0  0  0  0
 13 58  1  0  0  0  0
 13 73  1  0  0  0  0
 14 16  1  0  0  0  0
 14 74  1  0  0  0  0
 14 75  1  0  0  0  0
 15 55  1  0  0  0  0
 15 59  1  0  0  0  0
 16 18  1  0  0  0  0
 16 76  1  0  0  0  0
 16 77  1  0  0  0  0
 17 60  1  0  0  0  0
 17 78  1  0  0  0  0
 18 20  1  0  0  0  0
 18 79  1  0  0  0  0
 18 80  1  0  0  0  0
 19 61  1  0  0  0  0
 19 81  1  0  0  0  0
 20 22  1  0  0  0  0
 20 82  1  0  0  0  0
 20 83  1  0  0  0  0
 21 61  1  0  0  0  0
 22 24  1  0  0  0  0
 22 84  1  0  0  0  0
 22 85  1  0  0  0  0
 23 61  1  0  0  0  0
 23 86  1  0  0  0  0
 24 25  1  0  0  0  0
 24 87  1  0  0  0  0
 24 88  1  0  0  0  0
 25 26  1  0  0  0  0
 25 89  1  0  0  0  0
 25 90  1  0  0  0  0
 26 27  1  0  0  0  0
 26 91  1  0  0  0  0
 26 92  1  0  0  0  0
 27 28  1  0  0  0  0
 27 93  1  0  0  0  0
 27 94  1  0  0  0  0
 28 29  1  0  0  0  0
 28 95  1  0  0  0  0
 28 96  1  0  0  0  0
 29 30  1  0  0  0  0
 29 97  1  0  0  0  0
 29 98  1  0  0  0  0
 30 99  1  0  0  0  0
 30100  1  0  0  0  0
 30101  1  0  0  0  0
 31 32  1  0  0  0  0
 32 33  1  0  0  0  0
 32102  1  0  0  0  0
 32103  1  0  0  0  0
 33 34  1  0  0  0  0
 33104  1  0  0  0  0
 33105  1  0  0  0  0
 34 35  1  0  0  0  0
 34106  1  0  0  0  0
 34107  1  0  0  0  0
 35 36  1  0  0  0  0
 35108  1  0  0  0  0
 35109  1  0  0  0  0
 36 37  1  0  0  0  0
 36110  1  0  0  0  0
 36111  1  0  0  0  0
 37 38  1  0  0  0  0
 37112  1  0  0  0  0
 37113  1  0  0  0  0
 38 39  1  0  0  0  0
 38114  1  0  0  0  0
 38115  1  0  0  0  0
 39 40  1  0  0  0  0
 39116  1  0  0  0  0
 39117  1  0  0  0  0
 40 41  1  0  0  0  0
 40118  1  0  0  0  0
 40119  1  0  0  0  0
 41 42  1  0  0  0  0
 41120  1  0  0  0  0
 41121  1  0  0  0  0
 42 43  1  0  0  0  0
 42122  1  0  0  0  0
 42123  1  0  0  0  0
 43 44  1  0  0  0  0
 43124  1  0  0  0  0
 43125  1  0  0  0  0
 44 45  1  0  0  0  0
 44126  1  0  0  0  0
 44127  1  0  0  0  0
 45 46  2  0  0  0  0
 45128  1  0  0  0  0
 46 47  1  0  0  0  0
 46129  1  0  0  0  0
 47 48  1  0  0  0  0
 47130  1  0  0  0  0
 47131  1  0  0  0  0
 48 49  1  0  0  0  0
 48132  1  0  0  0  0
 48133  1  0  0  0  0
 49 50  1  0  0  0  0
 49134  1  0  0  0  0
 49135  1  0  0  0  0
 50 51  1  0  0  0  0
 50136  1  0  0  0  0
 50137  1  0  0  0  0
 51 52  1  0  0  0  0
 51138  1  0  0  0  0
 51139  1  0  0  0  0
 52 53  1  0  0  0  0
 52140  1  0  0  0  0
 52141  1  0  0  0  0
 53 54  1  0  0  0  0
 53142  1  0  0  0  0
 53143  1  0  0  0  0
 54144  1  0  0  0  0
 54145  1  0  0  0  0
 54146  1  0  0  0  0
 55 56  1  0  0  0  0
 55147  1  6  0  0  0
 56 57  1  0  0  0  0
 56148  1  1  0  0  0
 57 58  1  0  0  0  0
 57149  1  6  0  0  0
 58 59  1  0  0  0  0
 58150  1  1  0  0  0
 59 60  1  0  0  0  0
 59151  1  6  0  0  0
 60152  1  0  0  0  0
 60153  1  0  0  0  0
M  CHG  1  21  -1
M  END
$$$$
/media/chris/experiments/cd1a-new-docking/inputs/ligands/7ryn_ligand.pdb
 OpenBabel07032312553D

153153  0  0  1  0  0  0  0  0999 V2000
  -33.0340   65.1330   62.2120 N   0  0  0  0  0  0  0  0  0  0  0  0
  -32.0220   67.3480   62.3220 C   0  0  0  0  0  0  0  0  0  0  0  0
  -33.3204   67.9104   62.5424 O   0  0  0  0  0  0  0  0  0  0  0  0
  -32.1830   66.0840   61.5030 C   0  0  1  0  0  0  0  0  0  0  0  0
  -29.9992   66.3678   60.5104 O   0  0  0  0  0  0  0  0  0  0  0  0
  -30.8310   65.4230   61.1900 C   0  0  2  0  0  0  0  0  0  0  0  0
  -31.3638   64.0971   63.3098 O   0  0  0  0  0  0  0  0  0  0  0  0
  -31.0055   64.1786   60.3744 C   0  0  0  0  0  0  0  0  0  0  0  0
  -33.0367   70.4384   61.3722 O   0  0  0  0  0  0  0  0  0  0  0  0
  -30.6246   62.9714   60.7426 C   0  0  0  0  0  0  0  0  0  0  0  0
  -32.8814   70.3696   58.5396 O   0  0  0  0  0  0  0  0  0  0  0  0
  -30.8265   61.7465   59.9122 C   0  0  0  0  0  0  0  0  0  0  0  0
  -32.9557   67.6751   58.0737 O   0  0  0  0  0  0  0  0  0  0  0  0
  -29.4892   61.0836   59.5755 C   0  0  0  0  0  0  0  0  0  0  0  0
  -34.2192   67.0740   60.5876 O   0  0  0  0  0  0  0  0  0  0  0  0
  -29.6114   59.8360   58.7157 C   0  0  0  0  0  0  0  0  0  0  0  0
  -35.9633   65.1340   59.5583 O   0  0  0  0  0  0  0  0  0  0  0  0
  -30.2499   60.0732   57.3578 C   0  0  0  0  0  0  0  0  0  0  0  0
  -32.1393   71.6178   56.6165 O   0  0  0  0  0  0  0  0  0  0  0  0
  -31.6598   60.6414   57.4278 C   0  0  0  0  0  0  0  0  0  0  0  0
  -34.5899   71.3907   57.1248 O   0  5  0  0  0  0  0  0  0  0  0  0
  -32.2986   60.8602   56.0650 C   0  0  0  0  0  0  0  0  0  0  0  0
  -33.2989   69.5597   56.3392 O   0  0  0  0  0  0  0  0  0  0  0  0
  -33.6993   61.4431   56.1323 C   0  0  0  0  0  0  0  0  0  0  0  0
  -33.7711   62.8042   56.7990 C   0  0  0  0  0  0  0  0  0  0  0  0
  -32.9572   63.8774   56.0964 C   0  0  0  0  0  0  0  0  0  0  0  0
  -33.4079   64.1245   54.6687 C   0  0  0  0  0  0  0  0  0  0  0  0
  -33.3330   62.9062   53.7686 C   0  0  0  0  0  0  0  0  0  0  0  0
  -33.7759   63.2025   52.3492 C   0  0  0  0  0  0  0  0  0  0  0  0
  -33.7167   61.9807   51.4558 C   0  0  0  0  0  0  0  0  0  0  0  0
  -32.5596   64.2152   63.0586 C   0  0  0  0  0  0  0  0  0  0  0  0
  -33.5934   63.3253   63.7025 C   0  0  0  0  0  0  0  0  0  0  0  0
  -34.8154   63.1137   62.8180 C   0  0  0  0  0  0  0  0  0  0  0  0
  -34.4732   62.4502   61.4937 C   0  0  0  0  0  0  0  0  0  0  0  0
  -33.8532   61.0703   61.6379 C   0  0  0  0  0  0  0  0  0  0  0  0
  -34.7518   60.0623   62.3387 C   0  0  0  0  0  0  0  0  0  0  0  0
  -35.1555   60.4682   63.7505 C   0  0  0  0  0  0  0  0  0  0  0  0
  -36.0412   59.4492   64.4559 C   0  0  0  0  0  0  0  0  0  0  0  0
  -36.4684   59.8493   65.8658 C   0  0  0  0  0  0  0  0  0  0  0  0
  -35.3031   60.0841   66.8257 C   0  0  0  0  0  0  0  0  0  0  0  0
  -34.3884   58.8759   67.0250 C   0  0  0  0  0  0  0  0  0  0  0  0
  -33.2421   59.1347   68.0030 C   0  0  0  0  0  0  0  0  0  0  0  0
  -33.6732   59.5026   69.4226 C   0  0  0  0  0  0  0  0  0  0  0  0
  -34.5025   58.4355   70.1419 C   0  0  0  0  0  0  0  0  0  0  0  0
  -35.7740   58.0988   69.4178 C   0  0  0  0  0  0  0  0  0  0  0  0
  -36.6859   57.2270   69.8104 C   0  0  0  0  0  0  0  0  0  0  0  0
  -36.6358   56.4007   71.0598 C   0  0  0  0  0  0  0  0  0  0  0  0
  -36.6508   54.8927   70.8002 C   0  0  0  0  0  0  0  0  0  0  0  0
  -37.8875   54.4239   70.0452 C   0  0  0  0  0  0  0  0  0  0  0  0
  -38.0310   55.0582   68.6663 C   0  0  0  0  0  0  0  0  0  0  0  0
  -36.8784   54.7638   67.7130 C   0  0  0  0  0  0  0  0  0  0  0  0
  -37.0301   55.4186   66.3472 C   0  0  0  0  0  0  0  0  0  0  0  0
  -35.8937   55.1173   65.3830 C   0  0  0  0  0  0  0  0  0  0  0  0
  -34.5437   55.5663   65.9044 C   0  0  0  0  0  0  0  0  0  0  0  0
  -34.0138   68.2339   61.3725 C   0  0  2  0  0  0  0  0  0  0  0  0
  -33.1864   69.2534   60.6005 C   0  0  1  0  0  0  0  0  0  0  0  0
  -33.8630   69.5708   59.2729 C   0  0  2  0  0  0  0  0  0  0  0  0
  -34.1647   68.2982   58.4952 C   0  0  2  0  0  0  0  0  0  0  0  0
  -34.9504   67.3319   59.3783 C   0  0  1  0  0  0  0  0  0  0  0  0
  -35.1970   65.9935   58.7222 C   0  0  0  0  0  0  0  0  0  0  0  0
  -33.2636   70.9000   57.0917 S   0  0  0  0  0  0  0  0  0  0  0  0
  -34.0058   65.1700   62.0585 H   0  0  0  0  0  0  0  0  0  0  0  0
  -31.5648   67.1148   63.2609 H   0  0  0  0  0  0  0  0  0  0  0  0
  -31.4012   68.0473   61.8019 H   0  0  0  0  0  0  0  0  0  0  0  0
  -32.6374   66.3625   60.5752 H   0  0  0  0  0  0  0  0  0  0  0  0
  -29.9008   67.1635   61.0564 H   0  0  0  0  0  0  0  0  0  0  0  0
  -30.3647   65.1308   62.1077 H   0  0  0  0  0  0  0  0  0  0  0  0
  -31.4592   64.2738   59.4524 H   0  0  0  0  0  0  0  0  0  0  0  0
  -32.6053   70.2237   62.2140 H   0  0  0  0  0  0  0  0  0  0  0  0
  -30.1599   62.8667   61.6581 H   0  0  0  0  0  0  0  0  0  0  0  0
  -31.3208   62.0182   59.0030 H   0  0  0  0  0  0  0  0  0  0  0  0
  -31.4197   61.0519   60.4694 H   0  0  0  0  0  0  0  0  0  0  0  0
  -32.4550   68.2876   57.5124 H   0  0  0  0  0  0  0  0  0  0  0  0
  -29.0083   60.8134   60.4924 H   0  0  0  0  0  0  0  0  0  0  0  0
  -28.9278   61.7951   59.0069 H   0  0  0  0  0  0  0  0  0  0  0  0
  -30.2056   59.1208   59.2451 H   0  0  0  0  0  0  0  0  0  0  0  0
  -28.6150   59.4927   58.5302 H   0  0  0  0  0  0  0  0  0  0  0  0
  -36.1031   64.2860   59.1086 H   0  0  0  0  0  0  0  0  0  0  0  0
  -30.2889   59.1396   56.8365 H   0  0  0  0  0  0  0  0  0  0  0  0
  -29.6474   60.8008   56.8552 H   0  0  0  0  0  0  0  0  0  0  0  0
  -32.0855   72.4727   57.0717 H   0  0  0  0  0  0  0  0  0  0  0  0
  -31.6204   61.5815   57.9374 H   0  0  0  0  0  0  0  0  0  0  0  0
  -32.2616   59.9227   57.9438 H   0  0  0  0  0  0  0  0  0  0  0  0
  -32.3490   59.9179   55.5607 H   0  0  0  0  0  0  0  0  0  0  0  0
  -31.6898   61.5702   55.5453 H   0  0  0  0  0  0  0  0  0  0  0  0
  -32.4032   69.1898   56.2954 H   0  0  0  0  0  0  0  0  0  0  0  0
  -34.3192   60.7662   56.6822 H   0  0  0  0  0  0  0  0  0  0  0  0
  -34.0277   61.5757   55.1226 H   0  0  0  0  0  0  0  0  0  0  0  0
  -33.4082   62.7081   57.8010 H   0  0  0  0  0  0  0  0  0  0  0  0
  -34.7941   63.1153   56.7607 H   0  0  0  0  0  0  0  0  0  0  0  0
  -31.9316   63.5727   56.0822 H   0  0  0  0  0  0  0  0  0  0  0  0
  -33.0958   64.7897   56.6380 H   0  0  0  0  0  0  0  0  0  0  0  0
  -32.7877   64.8890   54.2495 H   0  0  0  0  0  0  0  0  0  0  0  0
  -34.4394   64.4049   54.7182 H   0  0  0  0  0  0  0  0  0  0  0  0
  -33.9644   62.1424   54.1722 H   0  0  0  0  0  0  0  0  0  0  0  0
  -32.3105   62.5934   53.7306 H   0  0  0  0  0  0  0  0  0  0  0  0
  -33.1369   63.9573   51.9409 H   0  0  0  0  0  0  0  0  0  0  0  0
  -34.7945   63.5278   52.3878 H   0  0  0  0  0  0  0  0  0  0  0  0
  -32.7074   61.6304   51.3969 H   0  0  0  0  0  0  0  0  0  0  0  0
  -34.0627   62.2378   50.4765 H   0  0  0  0  0  0  0  0  0  0  0  0
  -34.3383   61.2107   51.8629 H   0  0  0  0  0  0  0  0  0  0  0  0
  -33.9085   63.7748   64.6209 H   0  0  0  0  0  0  0  0  0  0  0  0
  -33.1418   62.3692   63.8662 H   0  0  0  0  0  0  0  0  0  0  0  0
  -35.2627   64.0651   62.6188 H   0  0  0  0  0  0  0  0  0  0  0  0
  -35.4849   62.4637   63.3417 H   0  0  0  0  0  0  0  0  0  0  0  0
  -33.7811   63.0775   60.9716 H   0  0  0  0  0  0  0  0  0  0  0  0
  -35.3936   62.3231   60.9631 H   0  0  0  0  0  0  0  0  0  0  0  0
  -32.9485   61.1644   62.2015 H   0  0  0  0  0  0  0  0  0  0  0  0
  -33.6835   60.7005   60.6483 H   0  0  0  0  0  0  0  0  0  0  0  0
  -34.2319   59.1287   62.3928 H   0  0  0  0  0  0  0  0  0  0  0  0
  -35.6529   59.9997   61.7651 H   0  0  0  0  0  0  0  0  0  0  0  0
  -35.6865   61.3955   63.6956 H   0  0  0  0  0  0  0  0  0  0  0  0
  -34.2539   60.5444   64.3216 H   0  0  0  0  0  0  0  0  0  0  0  0
  -35.5036   58.5262   64.5189 H   0  0  0  0  0  0  0  0  0  0  0  0
  -36.9376   59.3730   63.8767 H   0  0  0  0  0  0  0  0  0  0  0  0
  -37.0815   59.0689   66.2656 H   0  0  0  0  0  0  0  0  0  0  0  0
  -36.9897   60.7797   65.7787 H   0  0  0  0  0  0  0  0  0  0  0  0
  -35.7058   60.3584   67.7784 H   0  0  0  0  0  0  0  0  0  0  0  0
  -34.6999   60.8518   66.3878 H   0  0  0  0  0  0  0  0  0  0  0  0
  -33.9709   58.6070   66.0772 H   0  0  0  0  0  0  0  0  0  0  0  0
  -34.9869   58.0927   67.4412 H   0  0  0  0  0  0  0  0  0  0  0  0
  -32.6517   59.9391   67.6166 H   0  0  0  0  0  0  0  0  0  0  0  0
  -32.7047   58.2130   68.0836 H   0  0  0  0  0  0  0  0  0  0  0  0
  -34.2566   60.3981   69.3712 H   0  0  0  0  0  0  0  0  0  0  0  0
  -32.7728   59.6154   69.9897 H   0  0  0  0  0  0  0  0  0  0  0  0
  -34.7507   58.7963   71.1182 H   0  0  0  0  0  0  0  0  0  0  0  0
  -33.9117   57.5444   70.1855 H   0  0  0  0  0  0  0  0  0  0  0  0
  -35.9523   58.5946   68.5305 H   0  0  0  0  0  0  0  0  0  0  0  0
  -37.5090   57.1037   69.2003 H   0  0  0  0  0  0  0  0  0  0  0  0
  -37.4842   56.6482   71.6629 H   0  0  0  0  0  0  0  0  0  0  0  0
  -35.7097   56.6252   71.5465 H   0  0  0  0  0  0  0  0  0  0  0  0
  -36.6151   54.3856   71.7418 H   0  0  0  0  0  0  0  0  0  0  0  0
  -35.8019   54.6678   70.1889 H   0  0  0  0  0  0  0  0  0  0  0  0
  -38.7526   54.6715   70.6242 H   0  0  0  0  0  0  0  0  0  0  0  0
  -37.7874   53.3687   69.8989 H   0  0  0  0  0  0  0  0  0  0  0  0
  -38.0988   56.1187   68.7915 H   0  0  0  0  0  0  0  0  0  0  0  0
  -38.9078   54.6325   68.2249 H   0  0  0  0  0  0  0  0  0  0  0  0
  -36.8169   53.7046   67.5746 H   0  0  0  0  0  0  0  0  0  0  0  0
  -35.9939   55.1700   68.1576 H   0  0  0  0  0  0  0  0  0  0  0  0
  -37.0800   56.4783   66.4867 H   0  0  0  0  0  0  0  0  0  0  0  0
  -37.9198   55.0162   65.9099 H   0  0  0  0  0  0  0  0  0  0  0  0
  -36.0875   55.6207   64.4589 H   0  0  0  0  0  0  0  0  0  0  0  0
  -35.8525   54.0556   65.2569 H   0  0  0  0  0  0  0  0  0  0  0  0
  -34.5496   56.6273   66.0426 H   0  0  0  0  0  0  0  0  0  0  0  0
  -33.7834   55.3027   65.1992 H   0  0  0  0  0  0  0  0  0  0  0  0
  -34.3449   55.0860   66.8396 H   0  0  0  0  0  0  0  0  0  0  0  0
  -34.9727   68.6430   61.6132 H   0  0  0  0  0  0  0  0  0  0  0  0
  -32.2173   68.8444   60.4048 H   0  0  0  0  0  0  0  0  0  0  0  0
  -34.7946   70.0773   59.4161 H   0  0  0  0  0  0  0  0  0  0  0  0
  -34.7440   68.5528   57.6324 H   0  0  0  0  0  0  0  0  0  0  0  0
  -35.8917   67.8050   59.5651 H   0  0  0  0  0  0  0  0  0  0  0  0
  -35.7263   66.1485   57.8053 H   0  0  0  0  0  0  0  0  0  0  0  0
  -34.2500   65.5290   58.5427 H   0  0  0  0  0  0  0  0  0  0  0  0
  1  4  1  0  0  0  0
  1 31  1  0  0  0  0
  1 62  1  0  0  0  0
  2  3  1  0  0  0  0
  2  4  1  0  0  0  0
  2 63  1  0  0  0  0
  2 64  1  0  0  0  0
  3 55  1  0  0  0  0
  4  6  1  0  0  0  0
  4 65  1  6  0  0  0
  5  6  1  0  0  0  0
  5 66  1  0  0  0  0
  6  8  1  0  0  0  0
  6 67  1  1  0  0  0
  7 31  2  0  0  0  0
  8 10  2  0  0  0  0
  8 68  1  0  0  0  0
  9 56  1  0  0  0  0
  9 69  1  0  0  0  0
 10 12  1  0  0  0  0
 10 70  1  0  0  0  0
 11 57  1  0  0  0  0
 11 61  1  0  0  0  0
 12 14  1  0  0  0  0
 12 71  1  0  0  0  0
 12 72  1  0  0  0  0
 13 58  1  0  0  0  0
 13 73  1  0  0  0  0
 14 16  1  0  0  0  0
 14 74  1  0  0  0  0
 14 75  1  0  0  0  0
 15 55  1  0  0  0  0
 15 59  1  0  0  0  0
 16 18  1  0  0  0  0
 16 76  1  0  0  0  0
 16 77  1  0  0  0  0
 17 60  1  0  0  0  0
 17 78  1  0  0  0  0
 18 20  1  0  0  0  0
 18 79  1  0  0  0  0
 18 80  1  0  0  0  0
 19 61  1  0  0  0  0
 19 81  1  0  0  0  0
 20 22  1  0  0  0  0
 20 82  1  0  0  0  0
 20 83  1  0  0  0  0
 21 61  1  0  0  0  0
 22 24  1  0  0  0  0
 22 84  1  0  0  0  0
 22 85  1  0  0  0  0
 23 61  1  0  0  0  0
 23 86  1  0  0  0  0
 24 25  1  0  0  0  0
 24 87  1  0  0  0  0
 24 88  1  0  0  0  0
 25 26  1  0  0  0  0
 25 89  1  0  0  0  0
 25 90  1  0  0  0  0
 26 27  1  0  0  0  0
 26 91  1  0  0  0  0
 26 92  1  0  0  0  0
 27 28  1  0  0  0  0
 27 93  1  0  0  0  0
 27 94  1  0  0  0  0
 28 29  1  0  0  0  0
 28 95  1  0  0  0  0
 28 96  1  0  0  0  0
 29 30  1  0  0  0  0
 29 97  1  0  0  0  0
 29 98  1  0  0  0  0
 30 99  1  0  0  0  0
 30100  1  0  0  0  0
 30101  1  0  0  0  0
 31 32  1  0  0  0  0
 32 33  1  0  0  0  0
 32102  1  0  0  0  0
 32103  1  0  0  0  0
 33 34  1  0  0  0  0
 33104  1  0  0  0  0
 33105  1  0  0  0  0
 34 35  1  0  0  0  0
 34106  1  0  0  0  0
 34107  1  0  0  0  0
 35 36  1  0  0  0  0
 35108  1  0  0  0  0
 35109  1  0  0  0  0
 36 37  1  0  0  0  0
 36110  1  0  0  0  0
 36111  1  0  0  0  0
 37 38  1  0  0  0  0
 37112  1  0  0  0  0
 37113  1  0  0  0  0
 38 39  1  0  0  0  0
 38114  1  0  0  0  0
 38115  1  0  0  0  0
 39 40  1  0  0  0  0
 39116  1  0  0  0  0
 39117  1  0  0  0  0
 40 41  1  0  0  0  0
 40118  1  0  0  0  0
 40119  1  0  0  0  0
 41 42  1  0  0  0  0
 41120  1  0  0  0  0
 41121  1  0  0  0  0
 42 43  1  0  0  0  0
 42122  1  0  0  0  0
 42123  1  0  0  0  0
 43 44  1  0  0  0  0
 43124  1  0  0  0  0
 43125  1  0  0  0  0
 44 45  1  0  0  0  0
 44126  1  0  0  0  0
 44127  1  0  0  0  0
 45 46  2  0  0  0  0
 45128  1  0  0  0  0
 46 47  1  0  0  0  0
 46129  1  0  0  0  0
 47 48  1  0  0  0  0
 47130  1  0  0  0  0
 47131  1  0  0  0  0
 48 49  1  0  0  0  0
 48132  1  0  0  0  0
 48133  1  0  0  0  0
 49 50  1  0  0  0  0
 49134  1  0  0  0  0
 49135  1  0  0  0  0
 50 51  1  0  0  0  0
 50136  1  0  0  0  0
 50137  1  0  0  0  0
 51 52  1  0  0  0  0
 51138  1  0  0  0  0
 51139  1  0  0  0  0
 52 53  1  0  0  0  0
 52140  1  0  0  0  0
 52141  1  0  0  0  0
 53 54  1  0  0  0  0
 53142  1  0  0  0  0
 53143  1  0  0  0  0
 54144  1  0  0  0  0
 54145  1  0  0  0  0
 54146  1  0  0  0  0
 55 56  1  0  0  0  0
 55147  1  1  0  0  0
 56 57  1  0  0  0  0
 56148  1  6  0  0  0
 57 58  1  0  0  0  0
 57149  1  1  0  0  0
 58 59  1  0  0  0  0
 58150  1  6  0  0  0
 59 60  1  0  0  0  0
 59151  1  1  0  0  0
 60152  1  0  0  0  0
 60153  1  0  0  0  0
M  CHG  1  21  -1
M  END
$$$$
/media/chris/experiments/cd1a-new-docking/inputs/ligands/7ryn_ligand.pdb
 OpenBabel07032312553D

153153  0  0  1  0  0  0  0  0999 V2000
  -33.0340   65.1330   62.2120 N   0  0  0  0  0  0  0  0  0  0  0  0
  -32.0220   67.3480   62.3220 C   0  0  0  0  0  0  0  0  0  0  0  0
  -33.3204   67.9104   62.5424 O   0  0  0  0  0  0  0  0  0  0  0  0
  -32.1830   66.0840   61.5030 C   0  0  1  0  0  0  0  0  0  0  0  0
  -29.9992   66.3678   60.5104 O   0  0  0  0  0  0  0  0  0  0  0  0
  -30.8310   65.4230   61.1900 C   0  0  2  0  0  0  0  0  0  0  0  0
  -31.3638   64.0971   63.3098 O   0  0  0  0  0  0  0  0  0  0  0  0
  -31.0055   64.1786   60.3744 C   0  0  0  0  0  0  0  0  0  0  0  0
  -36.1193   67.8488   62.4832 O   0  0  0  0  0  0  0  0  0  0  0  0
  -30.6246   62.9714   60.7426 C   0  0  0  0  0  0  0  0  0  0  0  0
  -37.2741   70.0030   61.0417 O   0  0  0  0  0  0  0  0  0  0  0  0
  -30.8265   61.7465   59.9122 C   0  0  0  0  0  0  0  0  0  0  0  0
  -35.0443   71.4283   60.3491 O   0  0  0  0  0  0  0  0  0  0  0  0
  -29.4892   61.0836   59.5755 C   0  0  0  0  0  0  0  0  0  0  0  0
  -33.2780   69.1723   60.6099 O   0  0  0  0  0  0  0  0  0  0  0  0
  -29.6114   59.8360   58.7157 C   0  0  0  0  0  0  0  0  0  0  0  0
  -31.7443   69.7638   58.3378 O   0  0  0  0  0  0  0  0  0  0  0  0
  -30.2499   60.0732   57.3578 C   0  0  0  0  0  0  0  0  0  0  0  0
  -38.8374   69.5190   59.2728 O   0  0  0  0  0  0  0  0  0  0  0  0
  -29.4857   61.0510   56.4770 C   0  0  0  0  0  0  0  0  0  0  0  0
  -37.7499   71.7788   59.4344 O   0  5  0  0  0  0  0  0  0  0  0  0
  -30.1401   61.2962   55.1261 C   0  0  0  0  0  0  0  0  0  0  0  0
  -39.4024   71.0704   60.9849 O   0  0  0  0  0  0  0  0  0  0  0  0
  -31.5363   61.8858   55.2207 C   0  0  0  0  0  0  0  0  0  0  0  0
  -31.5918   63.2360   55.9110 C   0  0  0  0  0  0  0  0  0  0  0  0
  -32.9921   63.8149   56.0188 C   0  0  0  0  0  0  0  0  0  0  0  0
  -33.6572   64.0148   54.6697 C   0  0  0  0  0  0  0  0  0  0  0  0
  -32.9072   64.9425   53.7331 C   0  0  0  0  0  0  0  0  0  0  0  0
  -33.6153   65.1266   52.4052 C   0  0  0  0  0  0  0  0  0  0  0  0
  -32.8565   66.0398   51.4646 C   0  0  0  0  0  0  0  0  0  0  0  0
  -32.5596   64.2152   63.0586 C   0  0  0  0  0  0  0  0  0  0  0  0
  -33.5934   63.3253   63.7025 C   0  0  0  0  0  0  0  0  0  0  0  0
  -34.8154   63.1137   62.8180 C   0  0  0  0  0  0  0  0  0  0  0  0
  -34.4732   62.4502   61.4937 C   0  0  0  0  0  0  0  0  0  0  0  0
  -33.8532   61.0703   61.6379 C   0  0  0  0  0  0  0  0  0  0  0  0
  -33.4957   60.4148   60.3125 C   0  0  0  0  0  0  0  0  0  0  0  0
  -32.8896   59.0242   60.4523 C   0  0  0  0  0  0  0  0  0  0  0  0
  -31.6066   58.9901   61.2728 C   0  0  0  0  0  0  0  0  0  0  0  0
  -30.9775   57.6057   61.4080 C   0  0  0  0  0  0  0  0  0  0  0  0
  -29.7009   57.5818   62.2471 C   0  0  0  0  0  0  0  0  0  0  0  0
  -28.5748   58.4706   61.7194 C   0  0  0  0  0  0  0  0  0  0  0  0
  -27.3051   58.4134   62.5689 C   0  0  0  0  0  0  0  0  0  0  0  0
  -26.6590   57.0322   62.6751 C   0  0  0  0  0  0  0  0  0  0  0  0
  -26.2072   56.4273   61.3431 C   0  0  0  0  0  0  0  0  0  0  0  0
  -25.5953   55.0652   61.4988 C   0  0  0  0  0  0  0  0  0  0  0  0
  -25.1077   54.3150   60.5264 C   0  0  0  0  0  0  0  0  0  0  0  0
  -25.0650   54.6747   59.0722 C   0  0  0  0  0  0  0  0  0  0  0  0
  -25.8341   53.7020   58.1757 C   0  0  0  0  0  0  0  0  0  0  0  0
  -25.3218   52.2704   58.2616 C   0  0  0  0  0  0  0  0  0  0  0  0
  -25.4239   51.6744   59.6611 C   0  0  0  0  0  0  0  0  0  0  0  0
  -26.8432   51.5961   60.2119 C   0  0  0  0  0  0  0  0  0  0  0  0
  -26.9244   51.0144   61.6162 C   0  0  0  0  0  0  0  0  0  0  0  0
  -28.3377   50.9162   62.1683 C   0  0  0  0  0  0  0  0  0  0  0  0
  -29.0368   52.2586   62.2404 C   0  0  0  0  0  0  0  0  0  0  0  0
  -34.0138   68.2339   61.3725 C   0  0  2  0  0  0  0  0  0  0  0  0
  -35.3627   68.8190   61.7702 C   0  0  1  0  0  0  0  0  0  0  0  0
  -36.1194   69.2678   60.5264 C   0  0  2  0  0  0  0  0  0  0  0  0
  -35.2668   70.1951   59.6728 C   0  0  2  0  0  0  0  0  0  0  0  0
  -33.9243   69.5307   59.3780 C   0  0  1  0  0  0  0  0  0  0  0  0
  -32.9686   70.4285   58.6276 C   0  0  0  0  0  0  0  0  0  0  0  0
  -38.3112   70.6118   60.0036 S   0  0  0  0  0  0  0  0  0  0  0  0
  -34.0058   65.1700   62.0585 H   0  0  0  0  0  0  0  0  0  0  0  0
  -31.5648   67.1148   63.2609 H   0  0  0  0  0  0  0  0  0  0  0  0
  -31.4012   68.0473   61.8019 H   0  0  0  0  0  0  0  0  0  0  0  0
  -32.6374   66.3625   60.5752 H   0  0  0  0  0  0  0  0  0  0  0  0
  -29.9008   67.1635   61.0564 H   0  0  0  0  0  0  0  0  0  0  0  0
  -30.3647   65.1308   62.1077 H   0  0  0  0  0  0  0  0  0  0  0  0
  -31.4592   64.2738   59.4524 H   0  0  0  0  0  0  0  0  0  0  0  0
  -35.6277   67.5712   63.2720 H   0  0  0  0  0  0  0  0  0  0  0  0
  -30.1599   62.8667   61.6581 H   0  0  0  0  0  0  0  0  0  0  0  0
  -31.3208   62.0182   59.0030 H   0  0  0  0  0  0  0  0  0  0  0  0
  -31.4197   61.0519   60.4694 H   0  0  0  0  0  0  0  0  0  0  0  0
  -35.8963   71.8521   60.5374 H   0  0  0  0  0  0  0  0  0  0  0  0
  -29.0083   60.8134   60.4924 H   0  0  0  0  0  0  0  0  0  0  0  0
  -28.9278   61.7951   59.0069 H   0  0  0  0  0  0  0  0  0  0  0  0
  -30.2056   59.1208   59.2451 H   0  0  0  0  0  0  0  0  0  0  0  0
  -28.6150   59.4927   58.5302 H   0  0  0  0  0  0  0  0  0  0  0  0
  -31.1553   70.3661   57.8571 H   0  0  0  0  0  0  0  0  0  0  0  0
  -31.2358   60.4593   57.5124 H   0  0  0  0  0  0  0  0  0  0  0  0
  -30.2511   59.1327   56.8476 H   0  0  0  0  0  0  0  0  0  0  0  0
  -38.1728   69.2025   58.6411 H   0  0  0  0  0  0  0  0  0  0  0  0
  -28.5038   60.6597   56.3108 H   0  0  0  0  0  0  0  0  0  0  0  0
  -29.4693   61.9889   56.9917 H   0  0  0  0  0  0  0  0  0  0  0  0
  -30.2023   60.3628   54.6068 H   0  0  0  0  0  0  0  0  0  0  0  0
  -29.5335   62.0114   54.6108 H   0  0  0  0  0  0  0  0  0  0  0  0
  -39.8129   70.2945   61.3977 H   0  0  0  0  0  0  0  0  0  0  0  0
  -32.1533   61.2033   55.7670 H   0  0  0  0  0  0  0  0  0  0  0  0
  -31.8765   62.0373   54.2176 H   0  0  0  0  0  0  0  0  0  0  0  0
  -30.9851   63.9223   55.3579 H   0  0  0  0  0  0  0  0  0  0  0  0
  -31.2387   63.0887   56.9102 H   0  0  0  0  0  0  0  0  0  0  0  0
  -32.9322   64.7621   56.5130 H   0  0  0  0  0  0  0  0  0  0  0  0
  -33.5863   63.1145   56.5677 H   0  0  0  0  0  0  0  0  0  0  0  0
  -34.6326   64.4226   54.8346 H   0  0  0  0  0  0  0  0  0  0  0  0
  -33.6808   63.0559   54.1956 H   0  0  0  0  0  0  0  0  0  0  0  0
  -31.9360   64.5327   53.5498 H   0  0  0  0  0  0  0  0  0  0  0  0
  -32.8482   65.9011   54.2048 H   0  0  0  0  0  0  0  0  0  0  0  0
  -34.5817   65.5481   52.5873 H   0  0  0  0  0  0  0  0  0  0  0  0
  -33.6863   64.1662   51.9388 H   0  0  0  0  0  0  0  0  0  0  0  0
  -32.7686   67.0113   51.9043 H   0  0  0  0  0  0  0  0  0  0  0  0
  -33.3844   66.1146   50.5369 H   0  0  0  0  0  0  0  0  0  0  0  0
  -31.8803   65.6386   51.2882 H   0  0  0  0  0  0  0  0  0  0  0  0
  -33.9085   63.7748   64.6209 H   0  0  0  0  0  0  0  0  0  0  0  0
  -33.1418   62.3692   63.8662 H   0  0  0  0  0  0  0  0  0  0  0  0
  -35.2627   64.0651   62.6188 H   0  0  0  0  0  0  0  0  0  0  0  0
  -35.4849   62.4637   63.3417 H   0  0  0  0  0  0  0  0  0  0  0  0
  -33.7811   63.0775   60.9716 H   0  0  0  0  0  0  0  0  0  0  0  0
  -35.3936   62.3231   60.9631 H   0  0  0  0  0  0  0  0  0  0  0  0
  -34.5502   60.4394   62.1489 H   0  0  0  0  0  0  0  0  0  0  0  0
  -32.9391   61.1950   62.1799 H   0  0  0  0  0  0  0  0  0  0  0  0
  -32.7896   61.0403   59.8074 H   0  0  0  0  0  0  0  0  0  0  0  0
  -34.4093   60.3008   59.7672 H   0  0  0  0  0  0  0  0  0  0  0  0
  -32.6733   58.6508   59.4731 H   0  0  0  0  0  0  0  0  0  0  0  0
  -33.6067   58.4235   60.9717 H   0  0  0  0  0  0  0  0  0  0  0  0
  -31.8281   59.3537   62.2544 H   0  0  0  0  0  0  0  0  0  0  0  0
  -30.8962   59.5973   60.7517 H   0  0  0  0  0  0  0  0  0  0  0  0
  -30.7427   57.2459   60.4281 H   0  0  0  0  0  0  0  0  0  0  0  0
  -31.6915   56.9896   61.9134 H   0  0  0  0  0  0  0  0  0  0  0  0
  -29.3427   56.5742   62.2808 H   0  0  0  0  0  0  0  0  0  0  0  0
  -29.9643   57.9665   63.2102 H   0  0  0  0  0  0  0  0  0  0  0  0
  -28.9231   59.4821   61.6982 H   0  0  0  0  0  0  0  0  0  0  0  0
  -28.3187   58.1096   60.7452 H   0  0  0  0  0  0  0  0  0  0  0  0
  -27.5522   58.7408   63.5572 H   0  0  0  0  0  0  0  0  0  0  0  0
  -26.5898   59.0407   62.0793 H   0  0  0  0  0  0  0  0  0  0  0  0
  -27.3694   56.3662   63.1185 H   0  0  0  0  0  0  0  0  0  0  0  0
  -25.7736   57.1596   63.2622 H   0  0  0  0  0  0  0  0  0  0  0  0
  -25.4829   57.0786   60.9004 H   0  0  0  0  0  0  0  0  0  0  0  0
  -27.0757   56.3211   60.7272 H   0  0  0  0  0  0  0  0  0  0  0  0
  -25.5513   54.6786   62.4546 H   0  0  0  0  0  0  0  0  0  0  0  0
  -24.7205   53.3964   60.7931 H   0  0  0  0  0  0  0  0  0  0  0  0
  -24.0424   54.6879   58.7573 H   0  0  0  0  0  0  0  0  0  0  0  0
  -25.5350   55.6307   58.9723 H   0  0  0  0  0  0  0  0  0  0  0  0
  -25.7475   54.0335   57.1620 H   0  0  0  0  0  0  0  0  0  0  0  0
  -26.8497   53.6960   58.5124 H   0  0  0  0  0  0  0  0  0  0  0  0
  -24.2946   52.2591   57.9621 H   0  0  0  0  0  0  0  0  0  0  0  0
  -25.9367   51.6755   57.6190 H   0  0  0  0  0  0  0  0  0  0  0  0
  -24.8405   52.2777   60.3248 H   0  0  0  0  0  0  0  0  0  0  0  0
  -25.0686   50.6676   59.5902 H   0  0  0  0  0  0  0  0  0  0  0  0
  -27.4257   50.9816   59.5577 H   0  0  0  0  0  0  0  0  0  0  0  0
  -27.2124   52.5988   60.2674 H   0  0  0  0  0  0  0  0  0  0  0  0
  -26.3506   51.6364   62.2710 H   0  0  0  0  0  0  0  0  0  0  0  0
  -26.5465   50.0150   61.5579 H   0  0  0  0  0  0  0  0  0  0  0  0
  -28.2913   50.5020   63.1538 H   0  0  0  0  0  0  0  0  0  0  0  0
  -28.9005   50.2962   61.5021 H   0  0  0  0  0  0  0  0  0  0  0  0
  -28.4986   52.9060   62.9007 H   0  0  0  0  0  0  0  0  0  0  0  0
  -30.0327   52.1228   62.6072 H   0  0  0  0  0  0  0  0  0  0  0  0
  -29.0728   52.6948   61.2640 H   0  0  0  0  0  0  0  0  0  0  0  0
  -34.1535   67.3589   60.7727 H   0  0  0  0  0  0  0  0  0  0  0  0
  -35.2053   69.6672   62.4032 H   0  0  0  0  0  0  0  0  0  0  0  0
  -36.3912   68.4373   59.9090 H   0  0  0  0  0  0  0  0  0  0  0  0
  -35.7838   70.3893   58.7563 H   0  0  0  0  0  0  0  0  0  0  0  0
  -34.1465   68.6773   58.7719 H   0  0  0  0  0  0  0  0  0  0  0  0
  -33.4255   70.7312   57.7086 H   0  0  0  0  0  0  0  0  0  0  0  0
  -32.7518   71.2760   59.2436 H   0  0  0  0  0  0  0  0  0  0  0  0
  1  4  1  0  0  0  0
  1 31  1  0  0  0  0
  1 62  1  0  0  0  0
  2  3  1  0  0  0  0
  2  4  1  0  0  0  0
  2 63  1  0  0  0  0
  2 64  1  0  0  0  0
  3 55  1  0  0  0  0
  4  6  1  0  0  0  0
  4 65  1  6  0  0  0
  5  6  1  0  0  0  0
  5 66  1  0  0  0  0
  6  8  1  0  0  0  0
  6 67  1  1  0  0  0
  7 31  2  0  0  0  0
  8 10  2  0  0  0  0
  8 68  1  0  0  0  0
  9 56  1  0  0  0  0
  9 69  1  0  0  0  0
 10 12  1  0  0  0  0
 10 70  1  0  0  0  0
 11 57  1  0  0  0  0
 11 61  1  0  0  0  0
 12 14  1  0  0  0  0
 12 71  1  0  0  0  0
 12 72  1  0  0  0  0
 13 58  1  0  0  0  0
 13 73  1  0  0  0  0
 14 16  1  0  0  0  0
 14 74  1  0  0  0  0
 14 75  1  0  0  0  0
 15 55  1  0  0  0  0
 15 59  1  0  0  0  0
 16 18  1  0  0  0  0
 16 76  1  0  0  0  0
 16 77  1  0  0  0  0
 17 60  1  0  0  0  0
 17 78  1  0  0  0  0
 18 20  1  0  0  0  0
 18 79  1  0  0  0  0
 18 80  1  0  0  0  0
 19 61  1  0  0  0  0
 19 81  1  0  0  0  0
 20 22  1  0  0  0  0
 20 82  1  0  0  0  0
 20 83  1  0  0  0  0
 21 61  1  0  0  0  0
 22 24  1  0  0  0  0
 22 84  1  0  0  0  0
 22 85  1  0  0  0  0
 23 61  1  0  0  0  0
 23 86  1  0  0  0  0
 24 25  1  0  0  0  0
 24 87  1  0  0  0  0
 24 88  1  0  0  0  0
 25 26  1  0  0  0  0
 25 89  1  0  0  0  0
 25 90  1  0  0  0  0
 26 27  1  0  0  0  0
 26 91  1  0  0  0  0
 26 92  1  0  0  0  0
 27 28  1  0  0  0  0
 27 93  1  0  0  0  0
 27 94  1  0  0  0  0
 28 29  1  0  0  0  0
 28 95  1  0  0  0  0
 28 96  1  0  0  0  0
 29 30  1  0  0  0  0
 29 97  1  0  0  0  0
 29 98  1  0  0  0  0
 30 99  1  0  0  0  0
 30100  1  0  0  0  0
 30101  1  0  0  0  0
 31 32  1  0  0  0  0
 32 33  1  0  0  0  0
 32102  1  0  0  0  0
 32103  1  0  0  0  0
 33 34  1  0  0  0  0
 33104  1  0  0  0  0
 33105  1  0  0  0  0
 34 35  1  0  0  0  0
 34106  1  0  0  0  0
 34107  1  0  0  0  0
 35 36  1  0  0  0  0
 35108  1  0  0  0  0
 35109  1  0  0  0  0
 36 37  1  0  0  0  0
 36110  1  0  0  0  0
 36111  1  0  0  0  0
 37 38  1  0  0  0  0
 37112  1  0  0  0  0
 37113  1  0  0  0  0
 38 39  1  0  0  0  0
 38114  1  0  0  0  0
 38115  1  0  0  0  0
 39 40  1  0  0  0  0
 39116  1  0  0  0  0
 39117  1  0  0  0  0
 40 41  1  0  0  0  0
 40118  1  0  0  0  0
 40119  1  0  0  0  0
 41 42  1  0  0  0  0
 41120  1  0  0  0  0
 41121  1  0  0  0  0
 42 43  1  0  0  0  0
 42122  1  0  0  0  0
 42123  1  0  0  0  0
 43 44  1  0  0  0  0
 43124  1  0  0  0  0
 43125  1  0  0  0  0
 44 45  1  0  0  0  0
 44126  1  0  0  0  0
 44127  1  0  0  0  0
 45 46  2  0  0  0  0
 45128  1  0  0  0  0
 46 47  1  0  0  0  0
 46129  1  0  0  0  0
 47 48  1  0  0  0  0
 47130  1  0  0  0  0
 47131  1  0  0  0  0
 48 49  1  0  0  0  0
 48132  1  0  0  0  0
 48133  1  0  0  0  0
 49 50  1  0  0  0  0
 49134  1  0  0  0  0
 49135  1  0  0  0  0
 50 51  1  0  0  0  0
 50136  1  0  0  0  0
 50137  1  0  0  0  0
 51 52  1  0  0  0  0
 51138  1  0  0  0  0
 51139  1  0  0  0  0
 52 53  1  0  0  0  0
 52140  1  0  0  0  0
 52141  1  0  0  0  0
 53 54  1  0  0  0  0
 53142  1  0  0  0  0
 53143  1  0  0  0  0
 54144  1  0  0  0  0
 54145  1  0  0  0  0
 54146  1  0  0  0  0
 55 56  1  0  0  0  0
 55147  1  6  0  0  0
 56 57  1  0  0  0  0
 56148  1  1  0  0  0
 57 58  1  0  0  0  0
 57149  1  6  0  0  0
 58 59  1  0  0  0  0
 58150  1  6  0  0  0
 59 60  1  0  0  0  0
 59151  1  6  0  0  0
 60152  1  0  0  0  0
 60153  1  0  0  0  0
M  CHG  1  21  -1
M  END
$$$$
/media/chris/experiments/cd1a-new-docking/inputs/ligands/7ryn_ligand.pdb
 OpenBabel07032312553D

153153  0  0  1  0  0  0  0  0999 V2000
  -33.0340   65.1330   62.2120 N   0  0  0  0  0  0  0  0  0  0  0  0
  -32.0220   67.3480   62.3220 C   0  0  0  0  0  0  0  0  0  0  0  0
  -31.4051   67.0024   63.5673 O   0  0  0  0  0  0  0  0  0  0  0  0
  -32.1830   66.0840   61.5030 C   0  0  1  0  0  0  0  0  0  0  0  0
  -31.0548   64.2805   60.3587 O   0  0  0  0  0  0  0  0  0  0  0  0
  -30.8310   65.4230   61.1900 C   0  0  2  0  0  0  0  0  0  0  0  0
  -34.5420   63.4616   62.1958 O   0  0  0  0  0  0  0  0  0  0  0  0
  -30.1054   65.0399   62.4433 C   0  0  0  0  0  0  0  0  0  0  0  0
  -31.4046   66.6220   66.3415 O   0  0  0  0  0  0  0  0  0  0  0  0
  -29.2770   64.0208   62.5582 C   0  0  0  0  0  0  0  0  0  0  0  0
  -29.4155   68.1261   67.6954 O   0  0  0  0  0  0  0  0  0  0  0  0
  -28.5564   63.6732   63.8194 C   0  0  0  0  0  0  0  0  0  0  0  0
  -28.1411   69.3260   65.5933 O   0  0  0  0  0  0  0  0  0  0  0  0
  -29.3740   62.6987   64.6696 C   0  0  0  0  0  0  0  0  0  0  0  0
  -30.3909   69.0606   63.8198 O   0  0  0  0  0  0  0  0  0  0  0  0
  -28.7120   62.3095   65.9814 C   0  0  0  0  0  0  0  0  0  0  0  0
  -29.1056   72.3918   64.5510 O   0  0  0  0  0  0  0  0  0  0  0  0
  -27.3555   61.6442   65.8234 C   0  0  0  0  0  0  0  0  0  0  0  0
  -29.0352   66.5764   69.5011 O   0  0  0  0  0  0  0  0  0  0  0  0
  -26.7064   61.2421   67.1397 C   0  0  0  0  0  0  0  0  0  0  0  0
  -30.6879   66.0419   67.6849 O   0  5  0  0  0  0  0  0  0  0  0  0
  -26.4733   62.4087   68.0873 C   0  0  0  0  0  0  0  0  0  0  0  0
  -31.1144   67.7162   69.3133 O   0  0  0  0  0  0  0  0  0  0  0  0
  -25.8102   62.0120   69.3946 C   0  0  0  0  0  0  0  0  0  0  0  0
  -24.4366   61.3894   69.2270 C   0  0  0  0  0  0  0  0  0  0  0  0
  -24.4318   60.1279   68.3807 C   0  0  0  0  0  0  0  0  0  0  0  0
  -25.3148   59.0309   68.9458 C   0  0  0  0  0  0  0  0  0  0  0  0
  -25.3198   57.7502   68.1333 C   0  0  0  0  0  0  0  0  0  0  0  0
  -26.2271   56.6890   68.7242 C   0  0  0  0  0  0  0  0  0  0  0  0
  -25.8324   56.3087   70.1363 C   0  0  0  0  0  0  0  0  0  0  0  0
  -33.8200   64.2493   61.5913 C   0  0  0  0  0  0  0  0  0  0  0  0
  -33.7740   64.2810   60.0839 C   0  0  0  0  0  0  0  0  0  0  0  0
  -34.7076   63.2586   59.4486 C   0  0  0  0  0  0  0  0  0  0  0  0
  -36.1648   63.4860   59.8177 C   0  0  0  0  0  0  0  0  0  0  0  0
  -36.7083   64.8354   59.3783 C   0  0  0  0  0  0  0  0  0  0  0  0
  -38.1616   65.0683   59.7633 C   0  0  0  0  0  0  0  0  0  0  0  0
  -38.4181   65.0347   61.2645 C   0  0  0  0  0  0  0  0  0  0  0  0
  -39.8768   65.2513   61.6461 C   0  0  0  0  0  0  0  0  0  0  0  0
  -40.8397   64.2063   61.0881 C   0  0  0  0  0  0  0  0  0  0  0  0
  -40.5499   62.7809   61.5557 C   0  0  0  0  0  0  0  0  0  0  0  0
  -40.6326   62.5774   63.0684 C   0  0  0  0  0  0  0  0  0  0  0  0
  -40.3214   61.1467   63.5082 C   0  0  0  0  0  0  0  0  0  0  0  0
  -41.2380   60.0746   62.9190 C   0  0  0  0  0  0  0  0  0  0  0  0
  -42.7240   60.2462   63.2451 C   0  0  0  0  0  0  0  0  0  0  0  0
  -43.0023   60.2364   64.7204 C   0  0  0  0  0  0  0  0  0  0  0  0
  -43.0239   61.2915   65.5155 C   0  0  0  0  0  0  0  0  0  0  0  0
  -42.7775   62.7112   65.1036 C   0  0  0  0  0  0  0  0  0  0  0  0
  -41.3094   63.1323   65.1971 C   0  0  0  0  0  0  0  0  0  0  0  0
  -40.7347   63.0049   66.6016 C   0  0  0  0  0  0  0  0  0  0  0  0
  -39.2769   63.4401   66.7005 C   0  0  0  0  0  0  0  0  0  0  0  0
  -38.3225   62.6580   65.8054 C   0  0  0  0  0  0  0  0  0  0  0  0
  -36.8695   63.0943   65.9296 C   0  0  0  0  0  0  0  0  0  0  0  0
  -35.9115   62.3317   65.0283 C   0  0  0  0  0  0  0  0  0  0  0  0
  -34.4720   62.7770   65.1873 C   0  0  0  0  0  0  0  0  0  0  0  0
  -31.2104   68.0828   64.4327 C   0  0  2  0  0  0  0  0  0  0  0  0
  -30.5480   67.5584   65.7001 C   0  0  1  0  0  0  0  0  0  0  0  0
  -30.2364   68.7171   66.6389 C   0  0  2  0  0  0  0  0  0  0  0  0
  -29.4420   69.8007   65.9249 C   0  0  2  0  0  0  0  0  0  0  0  0
  -30.1703   70.2134   64.6482 C   0  0  1  0  0  0  0  0  0  0  0  0
  -29.3950   71.2080   63.8163 C   0  0  0  0  0  0  0  0  0  0  0  0
  -30.0256   66.9384   68.5560 S   0  0  0  0  0  0  0  0  0  0  0  0
  -33.0282   65.1436   63.1964 H   0  0  0  0  0  0  0  0  0  0  0  0
  -31.4053   68.0450   61.7940 H   0  0  0  0  0  0  0  0  0  0  0  0
  -32.9770   67.7979   62.4965 H   0  0  0  0  0  0  0  0  0  0  0  0
  -32.6374   66.3625   60.5752 H   0  0  0  0  0  0  0  0  0  0  0  0
  -31.5249   64.5525   59.5551 H   0  0  0  0  0  0  0  0  0  0  0  0
  -30.2105   66.1253   60.6735 H   0  0  0  0  0  0  0  0  0  0  0  0
  -30.2667   65.6189   63.2823 H   0  0  0  0  0  0  0  0  0  0  0  0
  -31.5955   65.8899   65.7345 H   0  0  0  0  0  0  0  0  0  0  0  0
  -29.1171   63.4287   61.7282 H   0  0  0  0  0  0  0  0  0  0  0  0
  -28.3838   64.5674   64.3812 H   0  0  0  0  0  0  0  0  0  0  0  0
  -27.6288   63.2054   63.5632 H   0  0  0  0  0  0  0  0  0  0  0  0
  -27.6765   69.0633   66.4032 H   0  0  0  0  0  0  0  0  0  0  0  0
  -29.5353   61.8086   64.0981 H   0  0  0  0  0  0  0  0  0  0  0  0
  -30.2850   63.2002   64.9218 H   0  0  0  0  0  0  0  0  0  0  0  0
  -29.3602   61.6311   66.4957 H   0  0  0  0  0  0  0  0  0  0  0  0
  -28.5469   63.2176   66.5228 H   0  0  0  0  0  0  0  0  0  0  0  0
  -28.6087   73.0074   63.9896 H   0  0  0  0  0  0  0  0  0  0  0  0
  -26.7024   62.3267   65.3208 H   0  0  0  0  0  0  0  0  0  0  0  0
  -27.5153   60.7431   65.2689 H   0  0  0  0  0  0  0  0  0  0  0  0
  -28.3292   66.0818   69.0563 H   0  0  0  0  0  0  0  0  0  0  0  0
  -25.7621   60.7868   66.9256 H   0  0  0  0  0  0  0  0  0  0  0  0
  -27.3811   60.5712   67.6293 H   0  0  0  0  0  0  0  0  0  0  0  0
  -27.4192   62.8562   68.3107 H   0  0  0  0  0  0  0  0  0  0  0  0
  -25.8078   63.0847   67.5922 H   0  0  0  0  0  0  0  0  0  0  0  0
  -30.6977   68.3443   69.9238 H   0  0  0  0  0  0  0  0  0  0  0  0
  -26.4416   61.3051   69.8910 H   0  0  0  0  0  0  0  0  0  0  0  0
  -25.6752   62.9116   69.9581 H   0  0  0  0  0  0  0  0  0  0  0  0
  -24.0565   61.1458   70.1971 H   0  0  0  0  0  0  0  0  0  0  0  0
  -23.8300   62.1081   68.7167 H   0  0  0  0  0  0  0  0  0  0  0  0
  -23.4284   59.7612   68.3213 H   0  0  0  0  0  0  0  0  0  0  0  0
  -24.8204   60.3871   67.4181 H   0  0  0  0  0  0  0  0  0  0  0  0
  -26.3178   59.4003   68.9945 H   0  0  0  0  0  0  0  0  0  0  0  0
  -24.9152   58.7816   69.9066 H   0  0  0  0  0  0  0  0  0  0  0  0
  -24.3222   57.3652   68.0942 H   0  0  0  0  0  0  0  0  0  0  0  0
  -25.6898   57.9866   67.1576 H   0  0  0  0  0  0  0  0  0  0  0  0
  -26.1802   55.8156   68.1079 H   0  0  0  0  0  0  0  0  0  0  0  0
  -27.2176   57.0920   68.7610 H   0  0  0  0  0  0  0  0  0  0  0  0
  -24.8431   55.9010   70.1326 H   0  0  0  0  0  0  0  0  0  0  0  0
  -26.5176   55.5786   70.5138 H   0  0  0  0  0  0  0  0  0  0  0  0
  -25.8578   57.1777   70.7600 H   0  0  0  0  0  0  0  0  0  0  0  0
  -32.7730   64.0747   59.7671 H   0  0  0  0  0  0  0  0  0  0  0  0
  -34.0946   65.2523   59.7699 H   0  0  0  0  0  0  0  0  0  0  0  0
  -34.4198   62.2817   59.7768 H   0  0  0  0  0  0  0  0  0  0  0  0
  -34.6235   63.3599   58.3867 H   0  0  0  0  0  0  0  0  0  0  0  0
  -36.2578   63.4155   60.8813 H   0  0  0  0  0  0  0  0  0  0  0  0
  -36.7350   62.7398   59.3048 H   0  0  0  0  0  0  0  0  0  0  0  0
  -36.6269   64.9011   58.3135 H   0  0  0  0  0  0  0  0  0  0  0  0
  -36.1298   65.5823   59.8808 H   0  0  0  0  0  0  0  0  0  0  0  0
  -38.7575   64.3081   59.3030 H   0  0  0  0  0  0  0  0  0  0  0  0
  -38.4169   66.0517   59.4276 H   0  0  0  0  0  0  0  0  0  0  0  0
  -37.8320   65.8031   61.7238 H   0  0  0  0  0  0  0  0  0  0  0  0
  -38.1503   64.0559   61.6037 H   0  0  0  0  0  0  0  0  0  0  0  0
  -40.1783   66.2113   61.2823 H   0  0  0  0  0  0  0  0  0  0  0  0
  -39.9272   65.1727   62.7120 H   0  0  0  0  0  0  0  0  0  0  0  0
  -40.7785   64.2289   60.0201 H   0  0  0  0  0  0  0  0  0  0  0  0
  -41.8142   64.4587   61.4507 H   0  0  0  0  0  0  0  0  0  0  0  0
  -39.5623   62.5197   61.2374 H   0  0  0  0  0  0  0  0  0  0  0  0
  -41.3080   62.1608   61.1248 H   0  0  0  0  0  0  0  0  0  0  0  0
  -41.6232   62.8228   63.3897 H   0  0  0  0  0  0  0  0  0  0  0  0
  -39.8937   63.2113   63.5124 H   0  0  0  0  0  0  0  0  0  0  0  0
  -40.4018   61.1025   64.5743 H   0  0  0  0  0  0  0  0  0  0  0  0
  -39.3379   60.9304   63.1463 H   0  0  0  0  0  0  0  0  0  0  0  0
  -40.9226   59.1241   63.2959 H   0  0  0  0  0  0  0  0  0  0  0  0
  -41.1526   60.1584   61.8557 H   0  0  0  0  0  0  0  0  0  0  0  0
  -43.2683   59.4455   62.7894 H   0  0  0  0  0  0  0  0  0  0  0  0
  -43.0282   61.1997   62.8668 H   0  0  0  0  0  0  0  0  0  0  0  0
  -43.1948   59.3199   65.1540 H   0  0  0  0  0  0  0  0  0  0  0  0
  -43.2294   61.1222   66.5126 H   0  0  0  0  0  0  0  0  0  0  0  0
  -43.3539   63.3519   65.7378 H   0  0  0  0  0  0  0  0  0  0  0  0
  -43.0615   62.7925   64.0752 H   0  0  0  0  0  0  0  0  0  0  0  0
  -41.2287   64.1537   64.8885 H   0  0  0  0  0  0  0  0  0  0  0  0
  -40.7501   62.4748   64.5648 H   0  0  0  0  0  0  0  0  0  0  0  0
  -40.8045   61.9812   66.9052 H   0  0  0  0  0  0  0  0  0  0  0  0
  -41.3020   63.6540   67.2355 H   0  0  0  0  0  0  0  0  0  0  0  0
  -38.9596   63.3179   67.7151 H   0  0  0  0  0  0  0  0  0  0  0  0
  -39.2395   64.4573   66.3705 H   0  0  0  0  0  0  0  0  0  0  0  0
  -38.6289   62.7897   64.7887 H   0  0  0  0  0  0  0  0  0  0  0  0
  -38.3693   61.6355   66.1172 H   0  0  0  0  0  0  0  0  0  0  0  0
  -36.5615   62.9512   66.9443 H   0  0  0  0  0  0  0  0  0  0  0  0
  -36.8287   64.1192   65.6251 H   0  0  0  0  0  0  0  0  0  0  0  0
  -36.2056   62.4840   64.0108 H   0  0  0  0  0  0  0  0  0  0  0  0
  -35.9612   61.2997   65.3067 H   0  0  0  0  0  0  0  0  0  0  0  0
  -34.3857   63.8085   64.9162 H   0  0  0  0  0  0  0  0  0  0  0  0
  -33.8440   62.1876   64.5524 H   0  0  0  0  0  0  0  0  0  0  0  0
  -34.1696   62.6495   66.2058 H   0  0  0  0  0  0  0  0  0  0  0  0
  -32.1486   68.5400   64.6687 H   0  0  0  0  0  0  0  0  0  0  0  0
  -29.6327   67.0681   65.4416 H   0  0  0  0  0  0  0  0  0  0  0  0
  -31.1294   69.1768   67.0080 H   0  0  0  0  0  0  0  0  0  0  0  0
  -29.3488   70.6437   66.5772 H   0  0  0  0  0  0  0  0  0  0  0  0
  -31.0858   70.6667   64.9665 H   0  0  0  0  0  0  0  0  0  0  0  0
  -28.4751   70.7586   63.5055 H   0  0  0  0  0  0  0  0  0  0  0  0
  -29.9937   71.4764   62.9711 H   0  0  0  0  0  0  0  0  0  0  0  0
  1  4  1  0  0  0  0
  1 31  1  0  0  0  0
  1 62  1  0  0  0  0
  2  3  1  0  0  0  0
  2  4  1  0  0  0  0
  2 63  1  0  0  0  0
  2 64  1  0  0  0  0
  3 55  1  0  0  0  0
  4  6  1  0  0  0  0
  4 65  1  6  0  0  0
  5  6  1  0  0  0  0
  5 66  1  0  0  0  0
  6  8  1  0  0  0  0
  6 67  1  6  0  0  0
  7 31  2  0  0  0  0
  8 10  2  0  0  0  0
  8 68  1  0  0  0  0
  9 56  1  0  0  0  0
  9 69  1  0  0  0  0
 10 12  1  0  0  0  0
 10 70  1  0  0  0  0
 11 57  1  0  0  0  0
 11 61  1  0  0  0  0
 12 14  1  0  0  0  0
 12 71  1  0  0  0  0
 12 72  1  0  0  0  0
 13 58  1  0  0  0  0
 13 73  1  0  0  0  0
 14 16  1  0  0  0  0
 14 74  1  0  0  0  0
 14 75  1  0  0  0  0
 15 55  1  0  0  0  0
 15 59  1  0  0  0  0
 16 18  1  0  0  0  0
 16 76  1  0  0  0  0
 16 77  1  0  0  0  0
 17 60  1  0  0  0  0
 17 78  1  0  0  0  0
 18 20  1  0  0  0  0
 18 79  1  0  0  0  0
 18 80  1  0  0  0  0
 19 61  1  0  0  0  0
 19 81  1  0  0  0  0
 20 22  1  0  0  0  0
 20 82  1  0  0  0  0
 20 83  1  0  0  0  0
 21 61  1  0  0  0  0
 22 24  1  0  0  0  0
 22 84  1  0  0  0  0
 22 85  1  0  0  0  0
 23 61  1  0  0  0  0
 23 86  1  0  0  0  0
 24 25  1  0  0  0  0
 24 87  1  0  0  0  0
 24 88  1  0  0  0  0
 25 26  1  0  0  0  0
 25 89  1  0  0  0  0
 25 90  1  0  0  0  0
 26 27  1  0  0  0  0
 26 91  1  0  0  0  0
 26 92  1  0  0  0  0
 27 28  1  0  0  0  0
 27 93  1  0  0  0  0
 27 94  1  0  0  0  0
 28 29  1  0  0  0  0
 28 95  1  0  0  0  0
 28 96  1  0  0  0  0
 29 30  1  0  0  0  0
 29 97  1  0  0  0  0
 29 98  1  0  0  0  0
 30 99  1  0  0  0  0
 30100  1  0  0  0  0
 30101  1  0  0  0  0
 31 32  1  0  0  0  0
 32 33  1  0  0  0  0
 32102  1  0  0  0  0
 32103  1  0  0  0  0
 33 34  1  0  0  0  0
 33104  1  0  0  0  0
 33105  1  0  0  0  0
 34 35  1  0  0  0  0
 34106  1  0  0  0  0
 34107  1  0  0  0  0
 35 36  1  0  0  0  0
 35108  1  0  0  0  0
 35109  1  0  0  0  0
 36 37  1  0  0  0  0
 36110  1  0  0  0  0
 36111  1  0  0  0  0
 37 38  1  0  0  0  0
 37112  1  0  0  0  0
 37113  1  0  0  0  0
 38 39  1  0  0  0  0
 38114  1  0  0  0  0
 38115  1  0  0  0  0
 39 40  1  0  0  0  0
 39116  1  0  0  0  0
 39117  1  0  0  0  0
 40 41  1  0  0  0  0
 40118  1  0  0  0  0
 40119  1  0  0  0  0
 41 42  1  0  0  0  0
 41120  1  0  0  0  0
 41121  1  0  0  0  0
 42 43  1  0  0  0  0
 42122  1  0  0  0  0
 42123  1  0  0  0  0
 43 44  1  0  0  0  0
 43124  1  0  0  0  0
 43125  1  0  0  0  0
 44 45  1  0  0  0  0
 44126  1  0  0  0  0
 44127  1  0  0  0  0
 45 46  2  0  0  0  0
 45128  1  0  0  0  0
 46 47  1  0  0  0  0
 46129  1  0  0  0  0
 47 48  1  0  0  0  0
 47130  1  0  0  0  0
 47131  1  0  0  0  0
 48 49  1  0  0  0  0
 48132  1  0  0  0  0
 48133  1  0  0  0  0
 49 50  1  0  0  0  0
 49134  1  0  0  0  0
 49135  1  0  0  0  0
 50 51  1  0  0  0  0
 50136  1  0  0  0  0
 50137  1  0  0  0  0
 51 52  1  0  0  0  0
 51138  1  0  0  0  0
 51139  1  0  0  0  0
 52 53  1  0  0  0  0
 52140  1  0  0  0  0
 52141  1  0  0  0  0
 53 54  1  0  0  0  0
 53142  1  0  0  0  0
 53143  1  0  0  0  0
 54144  1  0  0  0  0
 54145  1  0  0  0  0
 54146  1  0  0  0  0
 55 56  1  0  0  0  0
 55147  1  1  0  0  0
 56 57  1  0  0  0  0
 56148  1  6  0  0  0
 57 58  1  0  0  0  0
 57149  1  1  0  0  0
 58 59  1  0  0  0  0
 58150  1  1  0  0  0
 59 60  1  0  0  0  0
 59151  1  1  0  0  0
 60152  1  0  0  0  0
 60153  1  0  0  0  0
M  CHG  1  21  -1
M  END
$$$$
/media/chris/experiments/cd1a-new-docking/inputs/ligands/7ryn_ligand.pdb
 OpenBabel07032312553D

153153  0  0  1  0  0  0  0  0999 V2000
  -33.0340   65.1330   62.2120 N   0  0  0  0  0  0  0  0  0  0  0  0
  -32.0220   67.3480   62.3220 C   0  0  0  0  0  0  0  0  0  0  0  0
  -33.3204   67.9104   62.5424 O   0  0  0  0  0  0  0  0  0  0  0  0
  -32.1830   66.0840   61.5030 C   0  0  1  0  0  0  0  0  0  0  0  0
  -31.0548   64.2805   60.3587 O   0  0  0  0  0  0  0  0  0  0  0  0
  -30.8310   65.4230   61.1900 C   0  0  2  0  0  0  0  0  0  0  0  0
  -34.9746   65.8457   61.3210 O   0  0  0  0  0  0  0  0  0  0  0  0
  -30.1054   65.0399   62.4433 C   0  0  0  0  0  0  0  0  0  0  0  0
  -35.3151   69.8361   62.1498 O   0  0  0  0  0  0  0  0  0  0  0  0
  -28.9184   64.4680   62.4873 C   0  0  0  0  0  0  0  0  0  0  0  0
  -36.2332   71.0293   64.5551 O   0  0  0  0  0  0  0  0  0  0  0  0
  -28.2138   64.1114   63.7550 C   0  0  0  0  0  0  0  0  0  0  0  0
  -34.7894   69.6393   66.4168 O   0  0  0  0  0  0  0  0  0  0  0  0
  -27.9816   65.3501   64.6226 C   0  0  0  0  0  0  0  0  0  0  0  0
  -32.7334   68.8853   64.5507 O   0  0  0  0  0  0  0  0  0  0  0  0
  -27.1527   66.4338   63.9524 C   0  0  0  0  0  0  0  0  0  0  0  0
  -32.5661   68.6711   67.3280 O   0  0  0  0  0  0  0  0  0  0  0  0
  -26.9068   67.6575   64.8184 C   0  0  0  0  0  0  0  0  0  0  0  0
  -38.4981   71.4463   63.8454 O   0  0  0  0  0  0  0  0  0  0  0  0
  -28.1781   68.3598   65.2725 C   0  0  0  0  0  0  0  0  0  0  0  0
  -36.8651   70.3129   62.3077 O   0  5  0  0  0  0  0  0  0  0  0  0
  -29.0491   68.8484   64.1253 C   0  0  0  0  0  0  0  0  0  0  0  0
  -36.6888   72.6195   62.8416 O   0  0  0  0  0  0  0  0  0  0  0  0
  -28.3509   69.8324   63.2031 C   0  0  0  0  0  0  0  0  0  0  0  0
  -29.2196   70.3369   62.0659 C   0  0  0  0  0  0  0  0  0  0  0  0
  -30.4638   71.0783   62.5240 C   0  0  0  0  0  0  0  0  0  0  0  0
  -30.1492   72.3149   63.3452 C   0  0  0  0  0  0  0  0  0  0  0  0
  -29.3531   72.0429   64.6071 C   0  0  0  0  0  0  0  0  0  0  0  0
  -29.0764   73.3025   65.4042 C   0  0  0  0  0  0  0  0  0  0  0  0
  -30.3461   73.9903   65.8618 C   0  0  0  0  0  0  0  0  0  0  0  0
  -34.3610   65.0876   62.0665 C   0  0  0  0  0  0  0  0  0  0  0  0
  -35.0703   64.0312   62.8766 C   0  0  0  0  0  0  0  0  0  0  0  0
  -34.1128   63.2023   63.7231 C   0  0  0  0  0  0  0  0  0  0  0  0
  -33.0657   62.4820   62.8888 C   0  0  0  0  0  0  0  0  0  0  0  0
  -32.1055   61.6325   63.7046 C   0  0  0  0  0  0  0  0  0  0  0  0
  -31.0478   60.9259   62.8700 C   0  0  0  0  0  0  0  0  0  0  0  0
  -30.0937   60.0598   63.6826 C   0  0  0  0  0  0  0  0  0  0  0  0
  -30.7800   58.9330   64.4440 C   0  0  0  0  0  0  0  0  0  0  0  0
  -29.8392   58.0661   65.2769 C   0  0  0  0  0  0  0  0  0  0  0  0
  -29.0858   58.8320   66.3632 C   0  0  0  0  0  0  0  0  0  0  0  0
  -28.1269   57.9804   67.1948 C   0  0  0  0  0  0  0  0  0  0  0  0
  -27.4003   58.7693   68.2843 C   0  0  0  0  0  0  0  0  0  0  0  0
  -28.3088   59.4185   69.3282 C   0  0  0  0  0  0  0  0  0  0  0  0
  -27.5791   60.2219   70.4081 C   0  0  0  0  0  0  0  0  0  0  0  0
  -26.7859   61.3667   69.8474 C   0  0  0  0  0  0  0  0  0  0  0  0
  -27.2228   62.5999   69.6626 C   0  0  0  0  0  0  0  0  0  0  0  0
  -28.5981   63.1047   69.9785 C   0  0  0  0  0  0  0  0  0  0  0  0
  -28.7372   63.6629   71.3964 C   0  0  0  0  0  0  0  0  0  0  0  0
  -30.1421   64.1576   71.7137 C   0  0  0  0  0  0  0  0  0  0  0  0
  -31.2034   63.0672   71.6181 C   0  0  0  0  0  0  0  0  0  0  0  0
  -31.3110   62.4095   70.2471 C   0  0  0  0  0  0  0  0  0  0  0  0
  -32.3867   61.3355   70.1653 C   0  0  0  0  0  0  0  0  0  0  0  0
  -32.1953   60.1873   71.1434 C   0  0  0  0  0  0  0  0  0  0  0  0
  -33.2716   59.1273   71.0257 C   0  0  0  0  0  0  0  0  0  0  0  0
  -33.3156   69.0988   63.2783 C   0  0  2  0  0  0  0  0  0  0  0  0
  -34.7576   69.5657   63.4297 C   0  0  1  0  0  0  0  0  0  0  0  0
  -34.8089   70.8140   64.3015 C   0  0  2  0  0  0  0  0  0  0  0  0
  -34.0866   70.5888   65.6217 C   0  0  2  0  0  0  0  0  0  0  0  0
  -32.6741   70.0760   65.3523 C   0  0  1  0  0  0  0  0  0  0  0  0
  -31.9211   69.7182   66.6122 C   0  0  0  0  0  0  0  0  0  0  0  0
  -37.2005   71.2487   63.3141 S   0  0  0  0  0  0  0  0  0  0  0  0
  -32.6087   64.4935   62.8279 H   0  0  0  0  0  0  0  0  0  0  0  0
  -31.5648   67.1148   63.2609 H   0  0  0  0  0  0  0  0  0  0  0  0
  -31.4012   68.0473   61.8019 H   0  0  0  0  0  0  0  0  0  0  0  0
  -32.6374   66.3625   60.5752 H   0  0  0  0  0  0  0  0  0  0  0  0
  -31.5249   64.5525   59.5551 H   0  0  0  0  0  0  0  0  0  0  0  0
  -30.2105   66.1253   60.6735 H   0  0  0  0  0  0  0  0  0  0  0  0
  -30.5711   65.2392   63.3425 H   0  0  0  0  0  0  0  0  0  0  0  0
  -35.2768   69.0347   61.6046 H   0  0  0  0  0  0  0  0  0  0  0  0
  -28.4487   64.2543   61.5936 H   0  0  0  0  0  0  0  0  0  0  0  0
  -27.2690   63.6690   63.5172 H   0  0  0  0  0  0  0  0  0  0  0  0
  -28.8242   63.4230   64.3013 H   0  0  0  0  0  0  0  0  0  0  0  0
  -35.6873   69.9632   66.5891 H   0  0  0  0  0  0  0  0  0  0  0  0
  -27.4762   65.0448   65.5150 H   0  0  0  0  0  0  0  0  0  0  0  0
  -28.9444   65.7749   64.8161 H   0  0  0  0  0  0  0  0  0  0  0  0
  -27.6644   66.7475   63.0666 H   0  0  0  0  0  0  0  0  0  0  0  0
  -26.1940   66.0046   63.7487 H   0  0  0  0  0  0  0  0  0  0  0  0
  -32.0585   68.4665   68.1288 H   0  0  0  0  0  0  0  0  0  0  0  0
  -26.3195   68.3541   64.2575 H   0  0  0  0  0  0  0  0  0  0  0  0
  -26.4089   67.3165   65.7020 H   0  0  0  0  0  0  0  0  0  0  0  0
  -38.8534   70.5983   64.1546 H   0  0  0  0  0  0  0  0  0  0  0  0
  -27.9030   69.2032   65.8707 H   0  0  0  0  0  0  0  0  0  0  0  0
  -28.7539   67.6424   65.8190 H   0  0  0  0  0  0  0  0  0  0  0  0
  -29.9130   69.3266   64.5373 H   0  0  0  0  0  0  0  0  0  0  0  0
  -29.2983   67.9910   63.5356 H   0  0  0  0  0  0  0  0  0  0  0  0
  -36.9009   73.2912   63.5085 H   0  0  0  0  0  0  0  0  0  0  0  0
  -27.4938   69.3492   62.7827 H   0  0  0  0  0  0  0  0  0  0  0  0
  -28.0942   70.6843   63.7975 H   0  0  0  0  0  0  0  0  0  0  0  0
  -29.5252   69.4973   61.4773 H   0  0  0  0  0  0  0  0  0  0  0  0
  -28.6290   71.0350   61.5101 H   0  0  0  0  0  0  0  0  0  0  0  0
  -31.0557   70.4151   63.1197 H   0  0  0  0  0  0  0  0  0  0  0  0
  -30.9850   71.4008   61.6470 H   0  0  0  0  0  0  0  0  0  0  0  0
  -31.0738   72.7748   63.6253 H   0  0  0  0  0  0  0  0  0  0  0  0
  -29.5405   72.9437   62.7295 H   0  0  0  0  0  0  0  0  0  0  0  0
  -28.4190   71.5981   64.3339 H   0  0  0  0  0  0  0  0  0  0  0  0
  -29.9354   71.3904   65.2235 H   0  0  0  0  0  0  0  0  0  0  0  0
  -28.5204   73.9810   64.7916 H   0  0  0  0  0  0  0  0  0  0  0  0
  -28.5268   73.0202   66.2778 H   0  0  0  0  0  0  0  0  0  0  0  0
  -30.9194   74.2856   65.0080 H   0  0  0  0  0  0  0  0  0  0  0  0
  -30.0949   74.8553   66.4393 H   0  0  0  0  0  0  0  0  0  0  0  0
  -30.9209   73.3157   66.4614 H   0  0  0  0  0  0  0  0  0  0  0  0
  -35.5902   63.3777   62.2076 H   0  0  0  0  0  0  0  0  0  0  0  0
  -35.7431   64.5303   63.5424 H   0  0  0  0  0  0  0  0  0  0  0  0
  -34.6784   62.4739   64.2657 H   0  0  0  0  0  0  0  0  0  0  0  0
  -33.5982   63.8727   64.3793 H   0  0  0  0  0  0  0  0  0  0  0  0
  -32.4972   63.2151   62.3556 H   0  0  0  0  0  0  0  0  0  0  0  0
  -33.5921   61.8164   62.2370 H   0  0  0  0  0  0  0  0  0  0  0  0
  -32.6725   60.8913   64.2281 H   0  0  0  0  0  0  0  0  0  0  0  0
  -31.5880   62.2958   64.3658 H   0  0  0  0  0  0  0  0  0  0  0  0
  -30.4735   61.6682   62.3561 H   0  0  0  0  0  0  0  0  0  0  0  0
  -31.5673   60.2712   62.2019 H   0  0  0  0  0  0  0  0  0  0  0  0
  -29.5894   60.6855   64.3890 H   0  0  0  0  0  0  0  0  0  0  0  0
  -29.4221   59.6010   62.9874 H   0  0  0  0  0  0  0  0  0  0  0  0
  -31.2744   58.3030   63.7344 H   0  0  0  0  0  0  0  0  0  0  0  0
  -31.4544   59.3980   65.1324 H   0  0  0  0  0  0  0  0  0  0  0  0
  -29.1215   57.6214   64.6197 H   0  0  0  0  0  0  0  0  0  0  0  0
  -30.4473   57.3404   65.7753 H   0  0  0  0  0  0  0  0  0  0  0  0
  -29.8055   59.2666   67.0251 H   0  0  0  0  0  0  0  0  0  0  0  0
  -28.4850   59.5600   65.8593 H   0  0  0  0  0  0  0  0  0  0  0  0
  -27.3956   57.5556   66.5393 H   0  0  0  0  0  0  0  0  0  0  0  0
  -28.7143   57.2328   67.6857 H   0  0  0  0  0  0  0  0  0  0  0  0
  -26.8331   59.5433   67.8109 H   0  0  0  0  0  0  0  0  0  0  0  0
  -26.7964   58.0617   68.8128 H   0  0  0  0  0  0  0  0  0  0  0  0
  -28.8671   58.6437   69.8108 H   0  0  0  0  0  0  0  0  0  0  0  0
  -28.9230   60.1166   68.7987 H   0  0  0  0  0  0  0  0  0  0  0  0
  -26.9123   59.5670   70.9290 H   0  0  0  0  0  0  0  0  0  0  0  0
  -28.3216   60.6337   71.0593 H   0  0  0  0  0  0  0  0  0  0  0  0
  -25.8079   61.1722   69.5814 H   0  0  0  0  0  0  0  0  0  0  0  0
  -26.5552   63.2783   69.2637 H   0  0  0  0  0  0  0  0  0  0  0  0
  -29.2894   62.2961   69.8643 H   0  0  0  0  0  0  0  0  0  0  0  0
  -28.7981   63.9108   69.3039 H   0  0  0  0  0  0  0  0  0  0  0  0
  -28.0559   64.4804   71.5081 H   0  0  0  0  0  0  0  0  0  0  0  0
  -28.5220   62.8634   72.0743 H   0  0  0  0  0  0  0  0  0  0  0  0
  -30.3919   64.9356   71.0229 H   0  0  0  0  0  0  0  0  0  0  0  0
  -30.1344   64.5033   72.7262 H   0  0  0  0  0  0  0  0  0  0  0  0
  -32.1518   63.5019   71.8559 H   0  0  0  0  0  0  0  0  0  0  0  0
  -30.9127   62.2982   72.3030 H   0  0  0  0  0  0  0  0  0  0  0  0
  -30.3681   61.9615   70.0126 H   0  0  0  0  0  0  0  0  0  0  0  0
  -31.5828   63.1772   69.5530 H   0  0  0  0  0  0  0  0  0  0  0  0
  -32.3863   60.9350   69.1731 H   0  0  0  0  0  0  0  0  0  0  0  0
  -33.3125   61.8069   70.4212 H   0  0  0  0  0  0  0  0  0  0  0  0
  -32.2104   60.5803   72.1385 H   0  0  0  0  0  0  0  0  0  0  0  0
  -31.2596   59.7220   70.9134 H   0  0  0  0  0  0  0  0  0  0  0  0
  -34.2242   59.5599   71.2500 H   0  0  0  0  0  0  0  0  0  0  0  0
  -33.0685   58.3347   71.7153 H   0  0  0  0  0  0  0  0  0  0  0  0
  -33.2821   58.7388   70.0288 H   0  0  0  0  0  0  0  0  0  0  0  0
  -32.7377   69.8438   62.7723 H   0  0  0  0  0  0  0  0  0  0  0  0
  -35.3300   68.7932   63.8992 H   0  0  0  0  0  0  0  0  0  0  0  0
  -34.3360   71.6474   63.8253 H   0  0  0  0  0  0  0  0  0  0  0  0
  -34.0399   71.5181   66.1499 H   0  0  0  0  0  0  0  0  0  0  0  0
  -32.1619   70.8745   64.8573 H   0  0  0  0  0  0  0  0  0  0  0  0
  -30.9335   69.4016   66.3486 H   0  0  0  0  0  0  0  0  0  0  0  0
  -31.8897   70.5836   67.2407 H   0  0  0  0  0  0  0  0  0  0  0  0
  1  4  1  0  0  0  0
  1 31  1  0  0  0  0
  1 62  1  0  0  0  0
  2  3  1  0  0  0  0
  2  4  1  0  0  0  0
  2 63  1  0  0  0  0
  2 64  1  0  0  0  0
  3 55  1  0  0  0  0
  4  6  1  0  0  0  0
  4 65  1  6  0  0  0
  5  6  1  0  0  0  0
  5 66  1  0  0  0  0
  6  8  1  0  0  0  0
  6 67  1  6  0  0  0
  7 31  2  0  0  0  0
  8 10  2  0  0  0  0
  8 68  1  0  0  0  0
  9 56  1  0  0  0  0
  9 69  1  0  0  0  0
 10 12  1  0  0  0  0
 10 70  1  0  0  0  0
 11 57  1  0  0  0  0
 11 61  1  0  0  0  0
 12 14  1  0  0  0  0
 12 71  1  0  0  0  0
 12 72  1  0  0  0  0
 13 58  1  0  0  0  0
 13 73  1  0  0  0  0
 14 16  1  0  0  0  0
 14 74  1  0  0  0  0
 14 75  1  0  0  0  0
 15 55  1  0  0  0  0
 15 59  1  0  0  0  0
 16 18  1  0  0  0  0
 16 76  1  0  0  0  0
 16 77  1  0  0  0  0
 17 60  1  0  0  0  0
 17 78  1  0  0  0  0
 18 20  1  0  0  0  0
 18 79  1  0  0  0  0
 18 80  1  0  0  0  0
 19 61  1  0  0  0  0
 19 81  1  0  0  0  0
 20 22  1  0  0  0  0
 20 82  1  0  0  0  0
 20 83  1  0  0  0  0
 21 61  1  0  0  0  0
 22 24  1  0  0  0  0
 22 84  1  0  0  0  0
 22 85  1  0  0  0  0
 23 61  1  0  0  0  0
 23 86  1  0  0  0  0
 24 25  1  0  0  0  0
 24 87  1  0  0  0  0
 24 88  1  0  0  0  0
 25 26  1  0  0  0  0
 25 89  1  0  0  0  0
 25 90  1  0  0  0  0
 26 27  1  0  0  0  0
 26 91  1  0  0  0  0
 26 92  1  0  0  0  0
 27 28  1  0  0  0  0
 27 93  1  0  0  0  0
 27 94  1  0  0  0  0
 28 29  1  0  0  0  0
 28 95  1  0  0  0  0
 28 96  1  0  0  0  0
 29 30  1  0  0  0  0
 29 97  1  0  0  0  0
 29 98  1  0  0  0  0
 30 99  1  0  0  0  0
 30100  1  0  0  0  0
 30101  1  0  0  0  0
 31 32  1  0  0  0  0
 32 33  1  0  0  0  0
 32102  1  0  0  0  0
 32103  1  0  0  0  0
 33 34  1  0  0  0  0
 33104  1  0  0  0  0
 33105  1  0  0  0  0
 34 35  1  0  0  0  0
 34106  1  0  0  0  0
 34107  1  0  0  0  0
 35 36  1  0  0  0  0
 35108  1  0  0  0  0
 35109  1  0  0  0  0
 36 37  1  0  0  0  0
 36110  1  0  0  0  0
 36111  1  0  0  0  0
 37 38  1  0  0  0  0
 37112  1  0  0  0  0
 37113  1  0  0  0  0
 38 39  1  0  0  0  0
 38114  1  0  0  0  0
 38115  1  0  0  0  0
 39 40  1  0  0  0  0
 39116  1  0  0  0  0
 39117  1  0  0  0  0
 40 41  1  0  0  0  0
 40118  1  0  0  0  0
 40119  1  0  0  0  0
 41 42  1  0  0  0  0
 41120  1  0  0  0  0
 41121  1  0  0  0  0
 42 43  1  0  0  0  0
 42122  1  0  0  0  0
 42123  1  0  0  0  0
 43 44  1  0  0  0  0
 43124  1  0  0  0  0
 43125  1  0  0  0  0
 44 45  1  0  0  0  0
 44126  1  0  0  0  0
 44127  1  0  0  0  0
 45 46  2  0  0  0  0
 45128  1  0  0  0  0
 46 47  1  0  0  0  0
 46129  1  0  0  0  0
 47 48  1  0  0  0  0
 47130  1  0  0  0  0
 47131  1  0  0  0  0
 48 49  1  0  0  0  0
 48132  1  0  0  0  0
 48133  1  0  0  0  0
 49 50  1  0  0  0  0
 49134  1  0  0  0  0
 49135  1  0  0  0  0
 50 51  1  0  0  0  0
 50136  1  0  0  0  0
 50137  1  0  0  0  0
 51 52  1  0  0  0  0
 51138  1  0  0  0  0
 51139  1  0  0  0  0
 52 53  1  0  0  0  0
 52140  1  0  0  0  0
 52141  1  0  0  0  0
 53 54  1  0  0  0  0
 53142  1  0  0  0  0
 53143  1  0  0  0  0
 54144  1  0  0  0  0
 54145  1  0  0  0  0
 54146  1  0  0  0  0
 55 56  1  0  0  0  0
 55147  1  6  0  0  0
 56 57  1  0  0  0  0
 56148  1  1  0  0  0
 57 58  1  0  0  0  0
 57149  1  6  0  0  0
 58 59  1  0  0  0  0
 58150  1  1  0  0  0
 59 60  1  0  0  0  0
 59151  1  6  0  0  0
 60152  1  0  0  0  0
 60153  1  0  0  0  0
M  CHG  1  21  -1
M  END
$$$$
/media/chris/experiments/cd1a-new-docking/inputs/ligands/7ryn_ligand.pdb
 OpenBabel07032312553D

153153  0  0  1  0  0  0  0  0999 V2000
  -33.0340   65.1330   62.2120 N   0  0  0  0  0  0  0  0  0  0  0  0
  -32.0220   67.3480   62.3220 C   0  0  0  0  0  0  0  0  0  0  0  0
  -33.3204   67.9104   62.5424 O   0  0  0  0  0  0  0  0  0  0  0  0
  -32.1830   66.0840   61.5030 C   0  0  1  0  0  0  0  0  0  0  0  0
  -31.0548   64.2805   60.3587 O   0  0  0  0  0  0  0  0  0  0  0  0
  -30.8310   65.4230   61.1900 C   0  0  2  0  0  0  0  0  0  0  0  0
  -34.9746   65.8457   61.3210 O   0  0  0  0  0  0  0  0  0  0  0  0
  -30.1054   65.0399   62.4433 C   0  0  0  0  0  0  0  0  0  0  0  0
  -35.3151   69.8361   62.1498 O   0  0  0  0  0  0  0  0  0  0  0  0
  -28.9184   64.4680   62.4873 C   0  0  0  0  0  0  0  0  0  0  0  0
  -36.2332   71.0293   64.5551 O   0  0  0  0  0  0  0  0  0  0  0  0
  -28.2138   64.1114   63.7550 C   0  0  0  0  0  0  0  0  0  0  0  0
  -34.7894   69.6393   66.4168 O   0  0  0  0  0  0  0  0  0  0  0  0
  -27.9816   65.3501   64.6226 C   0  0  0  0  0  0  0  0  0  0  0  0
  -32.7334   68.8853   64.5507 O   0  0  0  0  0  0  0  0  0  0  0  0
  -27.1527   66.4338   63.9524 C   0  0  0  0  0  0  0  0  0  0  0  0
  -32.5661   68.6711   67.3280 O   0  0  0  0  0  0  0  0  0  0  0  0
  -26.9068   67.6575   64.8184 C   0  0  0  0  0  0  0  0  0  0  0  0
  -38.4981   71.4463   63.8454 O   0  0  0  0  0  0  0  0  0  0  0  0
  -26.0908   68.7452   64.1351 C   0  0  0  0  0  0  0  0  0  0  0  0
  -36.8651   70.3129   62.3077 O   0  5  0  0  0  0  0  0  0  0  0  0
  -24.7114   68.2850   63.6894 C   0  0  0  0  0  0  0  0  0  0  0  0
  -36.6888   72.6195   62.8416 O   0  0  0  0  0  0  0  0  0  0  0  0
  -23.8391   67.7781   64.8244 C   0  0  0  0  0  0  0  0  0  0  0  0
  -22.4553   67.3331   64.3893 C   0  0  0  0  0  0  0  0  0  0  0  0
  -21.6273   68.4346   63.7500 C   0  0  0  0  0  0  0  0  0  0  0  0
  -21.3789   69.6067   64.6810 C   0  0  0  0  0  0  0  0  0  0  0  0
  -22.6388   70.2868   65.1816 C   0  0  0  0  0  0  0  0  0  0  0  0
  -22.3437   71.4613   66.0938 C   0  0  0  0  0  0  0  0  0  0  0  0
  -21.5406   72.5445   65.4039 C   0  0  0  0  0  0  0  0  0  0  0  0
  -34.3610   65.0876   62.0665 C   0  0  0  0  0  0  0  0  0  0  0  0
  -35.0703   64.0312   62.8766 C   0  0  0  0  0  0  0  0  0  0  0  0
  -35.8339   63.0413   62.0062 C   0  0  0  0  0  0  0  0  0  0  0  0
  -34.9289   62.2826   61.0488 C   0  0  0  0  0  0  0  0  0  0  0  0
  -35.6649   61.2987   60.1545 C   0  0  0  0  0  0  0  0  0  0  0  0
  -34.7559   60.5280   59.2088 C   0  0  0  0  0  0  0  0  0  0  0  0
  -35.4921   59.5530   58.2988 C   0  0  0  0  0  0  0  0  0  0  0  0
  -36.5093   60.2157   57.3788 C   0  0  0  0  0  0  0  0  0  0  0  0
  -37.2677   59.2495   56.4723 C   0  0  0  0  0  0  0  0  0  0  0  0
  -38.0873   58.2031   57.2256 C   0  0  0  0  0  0  0  0  0  0  0  0
  -38.8391   57.2176   56.3312 C   0  0  0  0  0  0  0  0  0  0  0  0
  -39.8308   57.8910   55.3823 C   0  0  0  0  0  0  0  0  0  0  0  0
  -39.2120   58.8798   54.3944 C   0  0  0  0  0  0  0  0  0  0  0  0
  -40.2100   59.5649   53.4570 C   0  0  0  0  0  0  0  0  0  0  0  0
  -41.2394   60.3740   54.1917 C   0  0  0  0  0  0  0  0  0  0  0  0
  -41.1399   61.6512   54.5154 C   0  0  0  0  0  0  0  0  0  0  0  0
  -39.9799   62.5501   54.2115 C   0  0  0  0  0  0  0  0  0  0  0  0
  -40.1027   63.2804   52.8725 C   0  0  0  0  0  0  0  0  0  0  0  0
  -38.9116   64.1781   52.5647 C   0  0  0  0  0  0  0  0  0  0  0  0
  -38.6848   65.2625   53.6121 C   0  0  0  0  0  0  0  0  0  0  0  0
  -39.8622   66.2118   53.8030 C   0  0  0  0  0  0  0  0  0  0  0  0
  -39.6120   67.2978   54.8398 C   0  0  0  0  0  0  0  0  0  0  0  0
  -39.2970   66.7699   56.2304 C   0  0  0  0  0  0  0  0  0  0  0  0
  -39.0700   67.8744   57.2426 C   0  0  0  0  0  0  0  0  0  0  0  0
  -33.3156   69.0988   63.2783 C   0  0  2  0  0  0  0  0  0  0  0  0
  -34.7576   69.5657   63.4297 C   0  0  1  0  0  0  0  0  0  0  0  0
  -34.8089   70.8140   64.3015 C   0  0  2  0  0  0  0  0  0  0  0  0
  -34.0866   70.5888   65.6217 C   0  0  2  0  0  0  0  0  0  0  0  0
  -32.6741   70.0760   65.3523 C   0  0  1  0  0  0  0  0  0  0  0  0
  -31.9211   69.7182   66.6122 C   0  0  0  0  0  0  0  0  0  0  0  0
  -37.2005   71.2487   63.3141 S   0  0  0  0  0  0  0  0  0  0  0  0
  -32.6087   64.4935   62.8279 H   0  0  0  0  0  0  0  0  0  0  0  0
  -31.5648   67.1148   63.2609 H   0  0  0  0  0  0  0  0  0  0  0  0
  -31.4012   68.0473   61.8019 H   0  0  0  0  0  0  0  0  0  0  0  0
  -32.6374   66.3625   60.5752 H   0  0  0  0  0  0  0  0  0  0  0  0
  -31.5249   64.5525   59.5551 H   0  0  0  0  0  0  0  0  0  0  0  0
  -30.2105   66.1253   60.6735 H   0  0  0  0  0  0  0  0  0  0  0  0
  -30.5711   65.2392   63.3425 H   0  0  0  0  0  0  0  0  0  0  0  0
  -35.2768   69.0347   61.6046 H   0  0  0  0  0  0  0  0  0  0  0  0
  -28.4487   64.2543   61.5936 H   0  0  0  0  0  0  0  0  0  0  0  0
  -27.2690   63.6690   63.5172 H   0  0  0  0  0  0  0  0  0  0  0  0
  -28.8242   63.4230   64.3013 H   0  0  0  0  0  0  0  0  0  0  0  0
  -35.6873   69.9632   66.5891 H   0  0  0  0  0  0  0  0  0  0  0  0
  -27.4762   65.0448   65.5150 H   0  0  0  0  0  0  0  0  0  0  0  0
  -28.9444   65.7749   64.8161 H   0  0  0  0  0  0  0  0  0  0  0  0
  -27.6644   66.7475   63.0666 H   0  0  0  0  0  0  0  0  0  0  0  0
  -26.1940   66.0046   63.7487 H   0  0  0  0  0  0  0  0  0  0  0  0
  -32.0585   68.4665   68.1288 H   0  0  0  0  0  0  0  0  0  0  0  0
  -26.3835   67.3471   65.6986 H   0  0  0  0  0  0  0  0  0  0  0  0
  -27.8652   68.0802   65.0365 H   0  0  0  0  0  0  0  0  0  0  0  0
  -38.8534   70.5983   64.1546 H   0  0  0  0  0  0  0  0  0  0  0  0
  -25.9708   69.5583   64.8202 H   0  0  0  0  0  0  0  0  0  0  0  0
  -26.6257   69.0303   63.2533 H   0  0  0  0  0  0  0  0  0  0  0  0
  -24.2142   69.1104   63.2242 H   0  0  0  0  0  0  0  0  0  0  0  0
  -24.8579   67.4648   63.0181 H   0  0  0  0  0  0  0  0  0  0  0  0
  -36.9009   73.2912   63.5085 H   0  0  0  0  0  0  0  0  0  0  0  0
  -24.3320   66.9455   65.2812 H   0  0  0  0  0  0  0  0  0  0  0  0
  -23.7025   68.5975   65.4989 H   0  0  0  0  0  0  0  0  0  0  0  0
  -22.5642   66.5389   63.6805 H   0  0  0  0  0  0  0  0  0  0  0  0
  -21.9354   67.0267   65.2729 H   0  0  0  0  0  0  0  0  0  0  0  0
  -22.1447   68.7909   62.8839 H   0  0  0  0  0  0  0  0  0  0  0  0
  -20.6745   68.0155   63.5022 H   0  0  0  0  0  0  0  0  0  0  0  0
  -20.7927   70.3322   64.1568 H   0  0  0  0  0  0  0  0  0  0  0  0
  -20.8817   69.2125   65.5426 H   0  0  0  0  0  0  0  0  0  0  0  0
  -23.2230   69.5715   65.7218 H   0  0  0  0  0  0  0  0  0  0  0  0
  -23.1650   70.6626   64.3290 H   0  0  0  0  0  0  0  0  0  0  0  0
  -21.7896   71.1088   66.9386 H   0  0  0  0  0  0  0  0  0  0  0  0
  -23.2800   71.8880   66.3874 H   0  0  0  0  0  0  0  0  0  0  0  0
  -20.5955   72.1473   65.0973 H   0  0  0  0  0  0  0  0  0  0  0  0
  -21.3830   73.3577   66.0811 H   0  0  0  0  0  0  0  0  0  0  0  0
  -22.0760   72.8937   64.5458 H   0  0  0  0  0  0  0  0  0  0  0  0
  -35.7619   64.5121   63.5364 H   0  0  0  0  0  0  0  0  0  0  0  0
  -34.3269   63.4826   63.4163 H   0  0  0  0  0  0  0  0  0  0  0  0
  -36.5626   63.5782   61.4356 H   0  0  0  0  0  0  0  0  0  0  0  0
  -36.2903   62.3243   62.6563 H   0  0  0  0  0  0  0  0  0  0  0  0
  -34.2083   61.7404   61.6246 H   0  0  0  0  0  0  0  0  0  0  0  0
  -34.4784   63.0095   60.4057 H   0  0  0  0  0  0  0  0  0  0  0  0
  -36.3769   61.8424   59.5694 H   0  0  0  0  0  0  0  0  0  0  0  0
  -36.1266   60.5790   60.7977 H   0  0  0  0  0  0  0  0  0  0  0  0
  -34.0518   59.9752   59.7949 H   0  0  0  0  0  0  0  0  0  0  0  0
  -34.2867   61.2500   58.5736 H   0  0  0  0  0  0  0  0  0  0  0  0
  -36.0053   58.8418   58.9119 H   0  0  0  0  0  0  0  0  0  0  0  0
  -34.7553   59.0975   57.6706 H   0  0  0  0  0  0  0  0  0  0  0  0
  -35.9918   60.9183   56.7596 H   0  0  0  0  0  0  0  0  0  0  0  0
  -37.2392   60.6742   58.0127 H   0  0  0  0  0  0  0  0  0  0  0  0
  -36.5577   58.7400   55.8549 H   0  0  0  0  0  0  0  0  0  0  0  0
  -37.9606   59.8361   55.9060 H   0  0  0  0  0  0  0  0  0  0  0  0
  -38.8036   58.7149   57.8338 H   0  0  0  0  0  0  0  0  0  0  0  0
  -37.3900   57.6244   57.7947 H   0  0  0  0  0  0  0  0  0  0  0  0
  -39.3773   56.5357   56.9558 H   0  0  0  0  0  0  0  0  0  0  0  0
  -38.1095   56.7225   55.7250 H   0  0  0  0  0  0  0  0  0  0  0  0
  -40.5495   58.4188   55.9737 H   0  0  0  0  0  0  0  0  0  0  0  0
  -40.2583   57.1075   54.7922 H   0  0  0  0  0  0  0  0  0  0  0  0
  -38.5024   58.3497   53.7942 H   0  0  0  0  0  0  0  0  0  0  0  0
  -38.7720   59.6569   54.9838 H   0  0  0  0  0  0  0  0  0  0  0  0
  -40.7115   58.8134   52.8838 H   0  0  0  0  0  0  0  0  0  0  0  0
  -39.6571   60.2370   52.8345 H   0  0  0  0  0  0  0  0  0  0  0  0
  -42.1057   59.8871   54.4699 H   0  0  0  0  0  0  0  0  0  0  0  0
  -41.9346   62.0684   55.0248 H   0  0  0  0  0  0  0  0  0  0  0  0
  -39.0891   61.9577   54.1928 H   0  0  0  0  0  0  0  0  0  0  0  0
  -39.9558   63.2990   54.9753 H   0  0  0  0  0  0  0  0  0  0  0  0
  -40.9861   63.8838   52.8944 H   0  0  0  0  0  0  0  0  0  0  0  0
  -40.1433   62.5340   52.1068 H   0  0  0  0  0  0  0  0  0  0  0  0
  -39.0776   64.6496   51.6186 H   0  0  0  0  0  0  0  0  0  0  0  0
  -38.0405   63.5567   52.5593 H   0  0  0  0  0  0  0  0  0  0  0  0
  -37.8341   65.8402   53.3164 H   0  0  0  0  0  0  0  0  0  0  0  0
  -38.5444   64.7595   54.5460 H   0  0  0  0  0  0  0  0  0  0  0  0
  -40.7112   65.6387   54.1125 H   0  0  0  0  0  0  0  0  0  0  0  0
  -40.0210   66.7046   52.8666 H   0  0  0  0  0  0  0  0  0  0  0  0
  -40.4876   67.9095   54.9033 H   0  0  0  0  0  0  0  0  0  0  0  0
  -38.7498   67.8415   54.5143 H   0  0  0  0  0  0  0  0  0  0  0  0
  -38.4128   66.1698   56.1757 H   0  0  0  0  0  0  0  0  0  0  0  0
  -40.1432   66.2029   56.5581 H   0  0  0  0  0  0  0  0  0  0  0  0
  -38.2277   68.4634   56.9449 H   0  0  0  0  0  0  0  0  0  0  0  0
  -38.8823   67.4440   58.2041 H   0  0  0  0  0  0  0  0  0  0  0  0
  -39.9396   68.4958   57.2936 H   0  0  0  0  0  0  0  0  0  0  0  0
  -32.7377   69.8438   62.7723 H   0  0  0  0  0  0  0  0  0  0  0  0
  -35.3300   68.7932   63.8992 H   0  0  0  0  0  0  0  0  0  0  0  0
  -34.3360   71.6474   63.8253 H   0  0  0  0  0  0  0  0  0  0  0  0
  -34.0399   71.5181   66.1499 H   0  0  0  0  0  0  0  0  0  0  0  0
  -32.1619   70.8745   64.8573 H   0  0  0  0  0  0  0  0  0  0  0  0
  -30.9335   69.4016   66.3486 H   0  0  0  0  0  0  0  0  0  0  0  0
  -31.8897   70.5836   67.2407 H   0  0  0  0  0  0  0  0  0  0  0  0
  1  4  1  0  0  0  0
  1 31  1  0  0  0  0
  1 62  1  0  0  0  0
  2  3  1  0  0  0  0
  2  4  1  0  0  0  0
  2 63  1  0  0  0  0
  2 64  1  0  0  0  0
  3 55  1  0  0  0  0
  4  6  1  0  0  0  0
  4 65  1  6  0  0  0
  5  6  1  0  0  0  0
  5 66  1  0  0  0  0
  6  8  1  0  0  0  0
  6 67  1  6  0  0  0
  7 31  2  0  0  0  0
  8 10  2  0  0  0  0
  8 68  1  0  0  0  0
  9 56  1  0  0  0  0
  9 69  1  0  0  0  0
 10 12  1  0  0  0  0
 10 70  1  0  0  0  0
 11 57  1  0  0  0  0
 11 61  1  0  0  0  0
 12 14  1  0  0  0  0
 12 71  1  0  0  0  0
 12 72  1  0  0  0  0
 13 58  1  0  0  0  0
 13 73  1  0  0  0  0
 14 16  1  0  0  0  0
 14 74  1  0  0  0  0
 14 75  1  0  0  0  0
 15 55  1  0  0  0  0
 15 59  1  0  0  0  0
 16 18  1  0  0  0  0
 16 76  1  0  0  0  0
 16 77  1  0  0  0  0
 17 60  1  0  0  0  0
 17 78  1  0  0  0  0
 18 20  1  0  0  0  0
 18 79  1  0  0  0  0
 18 80  1  0  0  0  0
 19 61  1  0  0  0  0
 19 81  1  0  0  0  0
 20 22  1  0  0  0  0
 20 82  1  0  0  0  0
 20 83  1  0  0  0  0
 21 61  1  0  0  0  0
 22 24  1  0  0  0  0
 22 84  1  0  0  0  0
 22 85  1  0  0  0  0
 23 61  1  0  0  0  0
 23 86  1  0  0  0  0
 24 25  1  0  0  0  0
 24 87  1  0  0  0  0
 24 88  1  0  0  0  0
 25 26  1  0  0  0  0
 25 89  1  0  0  0  0
 25 90  1  0  0  0  0
 26 27  1  0  0  0  0
 26 91  1  0  0  0  0
 26 92  1  0  0  0  0
 27 28  1  0  0  0  0
 27 93  1  0  0  0  0
 27 94  1  0  0  0  0
 28 29  1  0  0  0  0
 28 95  1  0  0  0  0
 28 96  1  0  0  0  0
 29 30  1  0  0  0  0
 29 97  1  0  0  0  0
 29 98  1  0  0  0  0
 30 99  1  0  0  0  0
 30100  1  0  0  0  0
 30101  1  0  0  0  0
 31 32  1  0  0  0  0
 32 33  1  0  0  0  0
 32102  1  0  0  0  0
 32103  1  0  0  0  0
 33 34  1  0  0  0  0
 33104  1  0  0  0  0
 33105  1  0  0  0  0
 34 35  1  0  0  0  0
 34106  1  0  0  0  0
 34107  1  0  0  0  0
 35 36  1  0  0  0  0
 35108  1  0  0  0  0
 35109  1  0  0  0  0
 36 37  1  0  0  0  0
 36110  1  0  0  0  0
 36111  1  0  0  0  0
 37 38  1  0  0  0  0
 37112  1  0  0  0  0
 37113  1  0  0  0  0
 38 39  1  0  0  0  0
 38114  1  0  0  0  0
 38115  1  0  0  0  0
 39 40  1  0  0  0  0
 39116  1  0  0  0  0
 39117  1  0  0  0  0
 40 41  1  0  0  0  0
 40118  1  0  0  0  0
 40119  1  0  0  0  0
 41 42  1  0  0  0  0
 41120  1  0  0  0  0
 41121  1  0  0  0  0
 42 43  1  0  0  0  0
 42122  1  0  0  0  0
 42123  1  0  0  0  0
 43 44  1  0  0  0  0
 43124  1  0  0  0  0
 43125  1  0  0  0  0
 44 45  1  0  0  0  0
 44126  1  0  0  0  0
 44127  1  0  0  0  0
 45 46  2  0  0  0  0
 45128  1  0  0  0  0
 46 47  1  0  0  0  0
 46129  1  0  0  0  0
 47 48  1  0  0  0  0
 47130  1  0  0  0  0
 47131  1  0  0  0  0
 48 49  1  0  0  0  0
 48132  1  0  0  0  0
 48133  1  0  0  0  0
 49 50  1  0  0  0  0
 49134  1  0  0  0  0
 49135  1  0  0  0  0
 50 51  1  0  0  0  0
 50136  1  0  0  0  0
 50137  1  0  0  0  0
 51 52  1  0  0  0  0
 51138  1  0  0  0  0
 51139  1  0  0  0  0
 52 53  1  0  0  0  0
 52140  1  0  0  0  0
 52141  1  0  0  0  0
 53 54  1  0  0  0  0
 53142  1  0  0  0  0
 53143  1  0  0  0  0
 54144  1  0  0  0  0
 54145  1  0  0  0  0
 54146  1  0  0  0  0
 55 56  1  0  0  0  0
 55147  1  6  0  0  0
 56 57  1  0  0  0  0
 56148  1  1  0  0  0
 57 58  1  0  0  0  0
 57149  1  6  0  0  0
 58 59  1  0  0  0  0
 58150  1  1  0  0  0
 59 60  1  0  0  0  0
 59151  1  6  0  0  0
 60152  1  0  0  0  0
 60153  1  0  0  0  0
M  CHG  1  21  -1
M  END
$$$$
/media/chris/experiments/cd1a-new-docking/inputs/ligands/7ryn_ligand.pdb
 OpenBabel07032312553D

153153  0  0  1  0  0  0  0  0999 V2000
  -33.0340   65.1330   62.2120 N   0  0  0  0  0  0  0  0  0  0  0  0
  -32.0220   67.3480   62.3220 C   0  0  0  0  0  0  0  0  0  0  0  0
  -33.3204   67.9104   62.5424 O   0  0  0  0  0  0  0  0  0  0  0  0
  -32.1830   66.0840   61.5030 C   0  0  1  0  0  0  0  0  0  0  0  0
  -31.0548   64.2805   60.3587 O   0  0  0  0  0  0  0  0  0  0  0  0
  -30.8310   65.4230   61.1900 C   0  0  2  0  0  0  0  0  0  0  0  0
  -34.9746   65.8457   61.3210 O   0  0  0  0  0  0  0  0  0  0  0  0
  -30.1054   65.0399   62.4433 C   0  0  0  0  0  0  0  0  0  0  0  0
  -35.3151   69.8361   62.1498 O   0  0  0  0  0  0  0  0  0  0  0  0
  -28.9184   64.4680   62.4873 C   0  0  0  0  0  0  0  0  0  0  0  0
  -36.2332   71.0293   64.5551 O   0  0  0  0  0  0  0  0  0  0  0  0
  -28.2138   64.1114   63.7550 C   0  0  0  0  0  0  0  0  0  0  0  0
  -34.7894   69.6393   66.4168 O   0  0  0  0  0  0  0  0  0  0  0  0
  -27.9816   65.3501   64.6226 C   0  0  0  0  0  0  0  0  0  0  0  0
  -32.7334   68.8853   64.5507 O   0  0  0  0  0  0  0  0  0  0  0  0
  -27.1527   66.4338   63.9524 C   0  0  0  0  0  0  0  0  0  0  0  0
  -32.5661   68.6711   67.3280 O   0  0  0  0  0  0  0  0  0  0  0  0
  -26.9068   67.6575   64.8184 C   0  0  0  0  0  0  0  0  0  0  0  0
  -38.4981   71.4463   63.8454 O   0  0  0  0  0  0  0  0  0  0  0  0
  -28.1781   68.3598   65.2725 C   0  0  0  0  0  0  0  0  0  0  0  0
  -36.8651   70.3129   62.3077 O   0  5  0  0  0  0  0  0  0  0  0  0
  -27.9233   69.5935   66.1248 C   0  0  0  0  0  0  0  0  0  0  0  0
  -36.6888   72.6195   62.8416 O   0  0  0  0  0  0  0  0  0  0  0  0
  -27.1429   69.3084   67.3959 C   0  0  0  0  0  0  0  0  0  0  0  0
  -26.8997   70.5321   68.2595 C   0  0  0  0  0  0  0  0  0  0  0  0
  -28.1719   71.2026   68.7491 C   0  0  0  0  0  0  0  0  0  0  0  0
  -29.0307   70.2917   69.6064 C   0  0  0  0  0  0  0  0  0  0  0  0
  -29.4845   69.0223   68.9115 C   0  0  0  0  0  0  0  0  0  0  0  0
  -30.3529   68.1514   69.7981 C   0  0  0  0  0  0  0  0  0  0  0  0
  -31.6214   68.8531   70.2373 C   0  0  0  0  0  0  0  0  0  0  0  0
  -34.3610   65.0876   62.0665 C   0  0  0  0  0  0  0  0  0  0  0  0
  -35.0703   64.0312   62.8766 C   0  0  0  0  0  0  0  0  0  0  0  0
  -34.1128   63.2023   63.7231 C   0  0  0  0  0  0  0  0  0  0  0  0
  -34.8231   62.1256   64.5277 C   0  0  0  0  0  0  0  0  0  0  0  0
  -33.8952   61.2923   65.3959 C   0  0  0  0  0  0  0  0  0  0  0  0
  -34.6053   60.2043   66.1875 C   0  0  0  0  0  0  0  0  0  0  0  0
  -33.6806   59.3777   67.0721 C   0  0  0  0  0  0  0  0  0  0  0  0
  -32.9506   60.1921   68.1323 C   0  0  0  0  0  0  0  0  0  0  0  0
  -32.0069   59.3806   69.0163 C   0  0  0  0  0  0  0  0  0  0  0  0
  -30.8804   58.6874   68.2516 C   0  0  0  0  0  0  0  0  0  0  0  0
  -31.3492   57.7047   67.1788 C   0  0  0  0  0  0  0  0  0  0  0  0
  -30.2013   57.0140   66.4423 C   0  0  0  0  0  0  0  0  0  0  0  0
  -29.2775   56.1751   67.3253 C   0  0  0  0  0  0  0  0  0  0  0  0
  -28.1192   55.4985   66.5873 C   0  0  0  0  0  0  0  0  0  0  0  0
  -28.5821   54.5680   65.5039 C   0  0  0  0  0  0  0  0  0  0  0  0
  -28.7925   54.8888   64.2395 C   0  0  0  0  0  0  0  0  0  0  0  0
  -28.6084   56.2463   63.6318 C   0  0  0  0  0  0  0  0  0  0  0  0
  -27.2037   56.4843   63.0733 C   0  0  0  0  0  0  0  0  0  0  0  0
  -27.0214   57.8722   62.4734 C   0  0  0  0  0  0  0  0  0  0  0  0
  -27.2374   58.9985   63.4779 C   0  0  0  0  0  0  0  0  0  0  0  0
  -26.2818   58.9772   64.6654 C   0  0  0  0  0  0  0  0  0  0  0  0
  -24.8164   59.1097   64.2753 C   0  0  0  0  0  0  0  0  0  0  0  0
  -23.8535   59.0726   65.4514 C   0  0  0  0  0  0  0  0  0  0  0  0
  -22.4052   59.2238   65.0323 C   0  0  0  0  0  0  0  0  0  0  0  0
  -33.3156   69.0988   63.2783 C   0  0  2  0  0  0  0  0  0  0  0  0
  -34.7576   69.5657   63.4297 C   0  0  1  0  0  0  0  0  0  0  0  0
  -34.8089   70.8140   64.3015 C   0  0  2  0  0  0  0  0  0  0  0  0
  -34.0866   70.5888   65.6217 C   0  0  2  0  0  0  0  0  0  0  0  0
  -32.6741   70.0760   65.3523 C   0  0  1  0  0  0  0  0  0  0  0  0
  -31.9211   69.7182   66.6122 C   0  0  0  0  0  0  0  0  0  0  0  0
  -37.2005   71.2487   63.3141 S   0  0  0  0  0  0  0  0  0  0  0  0
  -32.6087   64.4935   62.8279 H   0  0  0  0  0  0  0  0  0  0  0  0
  -31.5648   67.1148   63.2609 H   0  0  0  0  0  0  0  0  0  0  0  0
  -31.4012   68.0473   61.8019 H   0  0  0  0  0  0  0  0  0  0  0  0
  -32.6374   66.3625   60.5752 H   0  0  0  0  0  0  0  0  0  0  0  0
  -31.5249   64.5525   59.5551 H   0  0  0  0  0  0  0  0  0  0  0  0
  -30.2105   66.1253   60.6735 H   0  0  0  0  0  0  0  0  0  0  0  0
  -30.5711   65.2392   63.3425 H   0  0  0  0  0  0  0  0  0  0  0  0
  -35.2768   69.0347   61.6046 H   0  0  0  0  0  0  0  0  0  0  0  0
  -28.4487   64.2543   61.5936 H   0  0  0  0  0  0  0  0  0  0  0  0
  -27.2690   63.6690   63.5172 H   0  0  0  0  0  0  0  0  0  0  0  0
  -28.8242   63.4230   64.3013 H   0  0  0  0  0  0  0  0  0  0  0  0
  -35.6873   69.9632   66.5891 H   0  0  0  0  0  0  0  0  0  0  0  0
  -27.4762   65.0448   65.5150 H   0  0  0  0  0  0  0  0  0  0  0  0
  -28.9444   65.7749   64.8161 H   0  0  0  0  0  0  0  0  0  0  0  0
  -27.6644   66.7475   63.0666 H   0  0  0  0  0  0  0  0  0  0  0  0
  -26.1940   66.0046   63.7487 H   0  0  0  0  0  0  0  0  0  0  0  0
  -32.0585   68.4665   68.1288 H   0  0  0  0  0  0  0  0  0  0  0  0
  -26.3195   68.3541   64.2575 H   0  0  0  0  0  0  0  0  0  0  0  0
  -26.4089   67.3165   65.7020 H   0  0  0  0  0  0  0  0  0  0  0  0
  -38.8534   70.5983   64.1546 H   0  0  0  0  0  0  0  0  0  0  0  0
  -28.7603   67.6681   65.8447 H   0  0  0  0  0  0  0  0  0  0  0  0
  -28.6862   68.6886   64.3901 H   0  0  0  0  0  0  0  0  0  0  0  0
  -28.8676   70.0171   66.3962 H   0  0  0  0  0  0  0  0  0  0  0  0
  -27.3292   70.2616   65.5370 H   0  0  0  0  0  0  0  0  0  0  0  0
  -36.9009   73.2912   63.5085 H   0  0  0  0  0  0  0  0  0  0  0  0
  -26.1943   68.8957   67.1227 H   0  0  0  0  0  0  0  0  0  0  0  0
  -27.7349   68.6326   67.9771 H   0  0  0  0  0  0  0  0  0  0  0  0
  -26.3429   71.2437   67.6864 H   0  0  0  0  0  0  0  0  0  0  0  0
  -26.3702   70.1993   69.1277 H   0  0  0  0  0  0  0  0  0  0  0  0
  -28.7442   71.5097   67.8987 H   0  0  0  0  0  0  0  0  0  0  0  0
  -27.8817   72.0339   69.3570 H   0  0  0  0  0  0  0  0  0  0  0  0
  -29.9003   70.8376   69.9076 H   0  0  0  0  0  0  0  0  0  0  0  0
  -28.4227   69.9871   70.4325 H   0  0  0  0  0  0  0  0  0  0  0  0
  -28.6200   68.4622   68.6220 H   0  0  0  0  0  0  0  0  0  0  0  0
  -30.0711   69.3086   68.0637 H   0  0  0  0  0  0  0  0  0  0  0  0
  -29.7920   67.8803   70.6680 H   0  0  0  0  0  0  0  0  0  0  0  0
  -30.6377   67.2908   69.2295 H   0  0  0  0  0  0  0  0  0  0  0  0
  -31.3689   69.7209   70.8101 H   0  0  0  0  0  0  0  0  0  0  0  0
  -32.2076   68.1882   70.8367 H   0  0  0  0  0  0  0  0  0  0  0  0
  -32.1838   69.1458   69.3754 H   0  0  0  0  0  0  0  0  0  0  0  0
  -35.5902   63.3777   62.2076 H   0  0  0  0  0  0  0  0  0  0  0  0
  -35.7431   64.5303   63.5424 H   0  0  0  0  0  0  0  0  0  0  0  0
  -33.6019   63.8546   64.4001 H   0  0  0  0  0  0  0  0  0  0  0  0
  -33.4335   62.7127   63.0569 H   0  0  0  0  0  0  0  0  0  0  0  0
  -35.3244   61.4710   63.8457 H   0  0  0  0  0  0  0  0  0  0  0  0
  -35.4993   62.6270   65.1882 H   0  0  0  0  0  0  0  0  0  0  0  0
  -33.4032   61.9449   66.0865 H   0  0  0  0  0  0  0  0  0  0  0  0
  -33.2104   60.8008   64.7368 H   0  0  0  0  0  0  0  0  0  0  0  0
  -35.0871   59.5452   65.4959 H   0  0  0  0  0  0  0  0  0  0  0  0
  -35.2975   60.6967   66.8381 H   0  0  0  0  0  0  0  0  0  0  0  0
  -32.9508   58.9055   66.4482 H   0  0  0  0  0  0  0  0  0  0  0  0
  -34.2956   58.6724   67.5910 H   0  0  0  0  0  0  0  0  0  0  0  0
  -33.6825   60.6545   68.7612 H   0  0  0  0  0  0  0  0  0  0  0  0
  -32.3427   60.8992   67.6075 H   0  0  0  0  0  0  0  0  0  0  0  0
  -32.5803   58.6322   69.5221 H   0  0  0  0  0  0  0  0  0  0  0  0
  -31.5441   60.0710   69.6902 H   0  0  0  0  0  0  0  0  0  0  0  0
  -30.2800   58.1508   68.9561 H   0  0  0  0  0  0  0  0  0  0  0  0
  -30.3415   59.4583   67.7415 H   0  0  0  0  0  0  0  0  0  0  0  0
  -31.9378   58.2397   66.4631 H   0  0  0  0  0  0  0  0  0  0  0  0
  -31.9103   56.9406   67.6750 H   0  0  0  0  0  0  0  0  0  0  0  0
  -29.6104   57.7688   65.9669 H   0  0  0  0  0  0  0  0  0  0  0  0
  -30.6556   56.3327   65.7536 H   0  0  0  0  0  0  0  0  0  0  0  0
  -29.8656   55.4122   67.7911 H   0  0  0  0  0  0  0  0  0  0  0  0
  -28.8330   56.8532   68.0236 H   0  0  0  0  0  0  0  0  0  0  0  0
  -27.5435   54.9393   67.2950 H   0  0  0  0  0  0  0  0  0  0  0  0
  -27.5397   56.2691   66.1234 H   0  0  0  0  0  0  0  0  0  0  0  0
  -28.7519   53.5859   65.7717 H   0  0  0  0  0  0  0  0  0  0  0  0
  -29.1133   54.1347   63.6123 H   0  0  0  0  0  0  0  0  0  0  0  0
  -28.8021   56.9823   64.3839 H   0  0  0  0  0  0  0  0  0  0  0  0
  -29.2883   56.3155   62.8085 H   0  0  0  0  0  0  0  0  0  0  0  0
  -27.0134   55.7573   62.3116 H   0  0  0  0  0  0  0  0  0  0  0  0
  -26.5189   56.3999   63.8911 H   0  0  0  0  0  0  0  0  0  0  0  0
  -27.7228   57.9912   61.6742 H   0  0  0  0  0  0  0  0  0  0  0  0
  -26.0084   57.9399   62.1356 H   0  0  0  0  0  0  0  0  0  0  0  0
  -28.2372   58.9257   63.8521 H   0  0  0  0  0  0  0  0  0  0  0  0
  -27.0526   59.9132   62.9545 H   0  0  0  0  0  0  0  0  0  0  0  0
  -26.4102   58.0510   65.1856 H   0  0  0  0  0  0  0  0  0  0  0  0
  -26.5208   59.8243   65.2738 H   0  0  0  0  0  0  0  0  0  0  0  0
  -24.6877   60.0415   63.7653 H   0  0  0  0  0  0  0  0  0  0  0  0
  -24.5839   58.2655   63.6603 H   0  0  0  0  0  0  0  0  0  0  0  0
  -23.9669   58.1359   65.9561 H   0  0  0  0  0  0  0  0  0  0  0  0
  -24.0917   59.8991   66.0878 H   0  0  0  0  0  0  0  0  0  0  0  0
  -22.1323   58.4107   64.3924 H   0  0  0  0  0  0  0  0  0  0  0  0
  -21.7803   59.2194   65.9008 H   0  0  0  0  0  0  0  0  0  0  0  0
  -22.2803   60.1479   64.5077 H   0  0  0  0  0  0  0  0  0  0  0  0
  -32.7377   69.8438   62.7723 H   0  0  0  0  0  0  0  0  0  0  0  0
  -35.3300   68.7932   63.8992 H   0  0  0  0  0  0  0  0  0  0  0  0
  -34.3360   71.6474   63.8253 H   0  0  0  0  0  0  0  0  0  0  0  0
  -34.0399   71.5181   66.1499 H   0  0  0  0  0  0  0  0  0  0  0  0
  -32.1619   70.8745   64.8573 H   0  0  0  0  0  0  0  0  0  0  0  0
  -30.9335   69.4016   66.3486 H   0  0  0  0  0  0  0  0  0  0  0  0
  -31.8897   70.5836   67.2407 H   0  0  0  0  0  0  0  0  0  0  0  0
  1  4  1  0  0  0  0
  1 31  1  0  0  0  0
  1 62  1  0  0  0  0
  2  3  1  0  0  0  0
  2  4  1  0  0  0  0
  2 63  1  0  0  0  0
  2 64  1  0  0  0  0
  3 55  1  0  0  0  0
  4  6  1  0  0  0  0
  4 65  1  6  0  0  0
  5  6  1  0  0  0  0
  5 66  1  0  0  0  0
  6  8  1  0  0  0  0
  6 67  1  6  0  0  0
  7 31  2  0  0  0  0
  8 10  2  0  0  0  0
  8 68  1  0  0  0  0
  9 56  1  0  0  0  0
  9 69  1  0  0  0  0
 10 12  1  0  0  0  0
 10 70  1  0  0  0  0
 11 57  1  0  0  0  0
 11 61  1  0  0  0  0
 12 14  1  0  0  0  0
 12 71  1  0  0  0  0
 12 72  1  0  0  0  0
 13 58  1  0  0  0  0
 13 73  1  0  0  0  0
 14 16  1  0  0  0  0
 14 74  1  0  0  0  0
 14 75  1  0  0  0  0
 15 55  1  0  0  0  0
 15 59  1  0  0  0  0
 16 18  1  0  0  0  0
 16 76  1  0  0  0  0
 16 77  1  0  0  0  0
 17 60  1  0  0  0  0
 17 78  1  0  0  0  0
 18 20  1  0  0  0  0
 18 79  1  0  0  0  0
 18 80  1  0  0  0  0
 19 61  1  0  0  0  0
 19 81  1  0  0  0  0
 20 22  1  0  0  0  0
 20 82  1  0  0  0  0
 20 83  1  0  0  0  0
 21 61  1  0  0  0  0
 22 24  1  0  0  0  0
 22 84  1  0  0  0  0
 22 85  1  0  0  0  0
 23 61  1  0  0  0  0
 23 86  1  0  0  0  0
 24 25  1  0  0  0  0
 24 87  1  0  0  0  0
 24 88  1  0  0  0  0
 25 26  1  0  0  0  0
 25 89  1  0  0  0  0
 25 90  1  0  0  0  0
 26 27  1  0  0  0  0
 26 91  1  0  0  0  0
 26 92  1  0  0  0  0
 27 28  1  0  0  0  0
 27 93  1  0  0  0  0
 27 94  1  0  0  0  0
 28 29  1  0  0  0  0
 28 95  1  0  0  0  0
 28 96  1  0  0  0  0
 29 30  1  0  0  0  0
 29 97  1  0  0  0  0
 29 98  1  0  0  0  0
 30 99  1  0  0  0  0
 30100  1  0  0  0  0
 30101  1  0  0  0  0
 31 32  1  0  0  0  0
 32 33  1  0  0  0  0
 32102  1  0  0  0  0
 32103  1  0  0  0  0
 33 34  1  0  0  0  0
 33104  1  0  0  0  0
 33105  1  0  0  0  0
 34 35  1  0  0  0  0
 34106  1  0  0  0  0
 34107  1  0  0  0  0
 35 36  1  0  0  0  0
 35108  1  0  0  0  0
 35109  1  0  0  0  0
 36 37  1  0  0  0  0
 36110  1  0  0  0  0
 36111  1  0  0  0  0
 37 38  1  0  0  0  0
 37112  1  0  0  0  0
 37113  1  0  0  0  0
 38 39  1  0  0  0  0
 38114  1  0  0  0  0
 38115  1  0  0  0  0
 39 40  1  0  0  0  0
 39116  1  0  0  0  0
 39117  1  0  0  0  0
 40 41  1  0  0  0  0
 40118  1  0  0  0  0
 40119  1  0  0  0  0
 41 42  1  0  0  0  0
 41120  1  0  0  0  0
 41121  1  0  0  0  0
 42 43  1  0  0  0  0
 42122  1  0  0  0  0
 42123  1  0  0  0  0
 43 44  1  0  0  0  0
 43124  1  0  0  0  0
 43125  1  0  0  0  0
 44 45  1  0  0  0  0
 44126  1  0  0  0  0
 44127  1  0  0  0  0
 45 46  2  0  0  0  0
 45128  1  0  0  0  0
 46 47  1  0  0  0  0
 46129  1  0  0  0  0
 47 48  1  0  0  0  0
 47130  1  0  0  0  0
 47131  1  0  0  0  0
 48 49  1  0  0  0  0
 48132  1  0  0  0  0
 48133  1  0  0  0  0
 49 50  1  0  0  0  0
 49134  1  0  0  0  0
 49135  1  0  0  0  0
 50 51  1  0  0  0  0
 50136  1  0  0  0  0
 50137  1  0  0  0  0
 51 52  1  0  0  0  0
 51138  1  0  0  0  0
 51139  1  0  0  0  0
 52 53  1  0  0  0  0
 52140  1  0  0  0  0
 52141  1  0  0  0  0
 53 54  1  0  0  0  0
 53142  1  0  0  0  0
 53143  1  0  0  0  0
 54144  1  0  0  0  0
 54145  1  0  0  0  0
 54146  1  0  0  0  0
 55 56  1  0  0  0  0
 55147  1  6  0  0  0
 56 57  1  0  0  0  0
 56148  1  1  0  0  0
 57 58  1  0  0  0  0
 57149  1  6  0  0  0
 58 59  1  0  0  0  0
 58150  1  1  0  0  0
 59 60  1  0  0  0  0
 59151  1  6  0  0  0
 60152  1  0  0  0  0
 60153  1  0  0  0  0
M  CHG  1  21  -1
M  END
$$$$
/media/chris/experiments/cd1a-new-docking/inputs/ligands/7ryn_ligand.pdb
 OpenBabel07032312553D

153153  0  0  1  0  0  0  0  0999 V2000
  -33.0340   65.1330   62.2120 N   0  0  0  0  0  0  0  0  0  0  0  0
  -32.0220   67.3480   62.3220 C   0  0  0  0  0  0  0  0  0  0  0  0
  -31.1969   68.2589   61.5870 O   0  0  0  0  0  0  0  0  0  0  0  0
  -32.1830   66.0840   61.5030 C   0  0  1  0  0  0  0  0  0  0  0  0
  -30.2154   65.0225   62.4176 O   0  0  0  0  0  0  0  0  0  0  0  0
  -30.8310   65.4230   61.1900 C   0  0  2  0  0  0  0  0  0  0  0  0
  -34.9746   65.8457   61.3210 O   0  0  0  0  0  0  0  0  0  0  0  0
  -29.9369   66.3439   60.4177 C   0  0  0  0  0  0  0  0  0  0  0  0
  -32.9308   70.4319   61.2513 O   0  0  0  0  0  0  0  0  0  0  0  0
  -29.0777   67.1898   60.9508 C   0  0  0  0  0  0  0  0  0  0  0  0
  -33.4310   71.8685   63.6467 O   0  0  0  0  0  0  0  0  0  0  0  0
  -28.1882   68.0854   60.1524 C   0  0  0  0  0  0  0  0  0  0  0  0
  -32.0199   70.3807   65.4572 O   0  0  0  0  0  0  0  0  0  0  0  0
  -27.2763   67.2744   59.2294 C   0  0  0  0  0  0  0  0  0  0  0  0
  -30.2839   69.2401   63.4665 O   0  0  0  0  0  0  0  0  0  0  0  0
  -28.0180   66.4222   58.2124 C   0  0  0  0  0  0  0  0  0  0  0  0
  -29.8754   69.1472   66.2254 O   0  0  0  0  0  0  0  0  0  0  0  0
  -27.1147   65.6033   57.3062 C   0  0  0  0  0  0  0  0  0  0  0  0
  -32.8754   73.0302   65.6835 O   0  0  0  0  0  0  0  0  0  0  0  0
  -27.8633   64.7658   56.2796 C   0  0  0  0  0  0  0  0  0  0  0  0
  -34.9434   73.6356   64.3904 O   0  5  0  0  0  0  0  0  0  0  0  0
  -26.9531   63.9359   55.3874 C   0  0  0  0  0  0  0  0  0  0  0  0
  -32.7693   74.1557   63.5908 O   0  0  0  0  0  0  0  0  0  0  0  0
  -26.1030   62.9317   56.1458 C   0  0  0  0  0  0  0  0  0  0  0  0
  -25.1801   62.1119   55.2635 C   0  0  0  0  0  0  0  0  0  0  0  0
  -25.9035   61.2992   54.2034 C   0  0  0  0  0  0  0  0  0  0  0  0
  -26.8977   60.3129   54.7876 C   0  0  0  0  0  0  0  0  0  0  0  0
  -26.2883   59.2944   55.7318 C   0  0  0  0  0  0  0  0  0  0  0  0
  -25.6326   59.9375   56.9380 C   0  0  0  0  0  0  0  0  0  0  0  0
  -25.0097   58.9199   57.8713 C   0  0  0  0  0  0  0  0  0  0  0  0
  -34.3610   65.0876   62.0665 C   0  0  0  0  0  0  0  0  0  0  0  0
  -35.0703   64.0312   62.8766 C   0  0  0  0  0  0  0  0  0  0  0  0
  -34.1128   63.2023   63.7231 C   0  0  0  0  0  0  0  0  0  0  0  0
  -33.3436   64.0417   64.7305 C   0  0  0  0  0  0  0  0  0  0  0  0
  -34.2275   64.7619   65.7351 C   0  0  0  0  0  0  0  0  0  0  0  0
  -33.4573   65.6149   66.7319 C   0  0  0  0  0  0  0  0  0  0  0  0
  -34.3389   66.3252   67.7512 C   0  0  0  0  0  0  0  0  0  0  0  0
  -35.1566   65.3814   68.6236 C   0  0  0  0  0  0  0  0  0  0  0  0
  -36.0584   66.0786   69.6391 C   0  0  0  0  0  0  0  0  0  0  0  0
  -35.3089   66.9716   70.6266 C   0  0  0  0  0  0  0  0  0  0  0  0
  -36.1969   67.6634   71.6607 C   0  0  0  0  0  0  0  0  0  0  0  0
  -37.2643   68.5654   71.0407 C   0  0  0  0  0  0  0  0  0  0  0  0
  -38.1625   69.2889   72.0439 C   0  0  0  0  0  0  0  0  0  0  0  0
  -39.2411   70.1782   71.4195 C   0  0  0  0  0  0  0  0  0  0  0  0
  -40.1989   69.4124   70.5532 C   0  0  0  0  0  0  0  0  0  0  0  0
  -41.2169   69.9199   69.8809 C   0  0  0  0  0  0  0  0  0  0  0  0
  -41.6185   71.3633   69.8456 C   0  0  0  0  0  0  0  0  0  0  0  0
  -42.2783   71.7857   68.5312 C   0  0  0  0  0  0  0  0  0  0  0  0
  -41.3860   71.5761   67.3150 C   0  0  0  0  0  0  0  0  0  0  0  0
  -42.0350   72.0122   66.0062 C   0  0  0  0  0  0  0  0  0  0  0  0
  -42.4052   73.4898   65.9468 C   0  0  0  0  0  0  0  0  0  0  0  0
  -41.2145   74.4264   66.0956 C   0  0  0  0  0  0  0  0  0  0  0  0
  -41.5753   75.9029   66.0546 C   0  0  0  0  0  0  0  0  0  0  0  0
  -42.5222   76.3092   67.1656 C   0  0  0  0  0  0  0  0  0  0  0  0
  -30.9530   69.4703   62.2406 C   0  0  2  0  0  0  0  0  0  0  0  0
  -32.2933   70.1495   62.4906 C   0  0  1  0  0  0  0  0  0  0  0  0
  -32.0829   71.4352   63.2803 C   0  0  2  0  0  0  0  0  0  0  0  0
  -31.2728   71.1754   64.5419 C   0  0  2  0  0  0  0  0  0  0  0  0
  -29.9796   70.4491   64.1802 C   0  0  1  0  0  0  0  0  0  0  0  0
  -29.1637   70.0508   65.3877 C   0  0  0  0  0  0  0  0  0  0  0  0
  -33.5968   73.2117   64.4786 S   0  0  0  0  0  0  0  0  0  0  0  0
  -32.6087   64.4935   62.8279 H   0  0  0  0  0  0  0  0  0  0  0  0
  -32.9806   67.7896   62.4978 H   0  0  0  0  0  0  0  0  0  0  0  0
  -31.5704   67.1208   63.2650 H   0  0  0  0  0  0  0  0  0  0  0  0
  -32.6374   66.3625   60.5752 H   0  0  0  0  0  0  0  0  0  0  0  0
  -30.8116   64.4280   62.8994 H   0  0  0  0  0  0  0  0  0  0  0  0
  -30.9971   64.5628   60.5757 H   0  0  0  0  0  0  0  0  0  0  0  0
  -29.9982   66.3137   59.3879 H   0  0  0  0  0  0  0  0  0  0  0  0
  -33.0591   69.6065   60.7582 H   0  0  0  0  0  0  0  0  0  0  0  0
  -29.0162   67.2360   61.9799 H   0  0  0  0  0  0  0  0  0  0  0  0
  -27.5846   68.6640   60.8199 H   0  0  0  0  0  0  0  0  0  0  0  0
  -28.8004   68.7238   59.5503 H   0  0  0  0  0  0  0  0  0  0  0  0
  -32.8421   70.8405   65.6883 H   0  0  0  0  0  0  0  0  0  0  0  0
  -26.6757   66.6279   59.8346 H   0  0  0  0  0  0  0  0  0  0  0  0
  -26.6951   67.9803   58.6737 H   0  0  0  0  0  0  0  0  0  0  0  0
  -28.6091   67.0702   57.5995 H   0  0  0  0  0  0  0  0  0  0  0  0
  -28.6079   65.7244   58.7691 H   0  0  0  0  0  0  0  0  0  0  0  0
  -29.3250   68.9123   66.9889 H   0  0  0  0  0  0  0  0  0  0  0  0
  -26.5324   64.9455   57.9170 H   0  0  0  0  0  0  0  0  0  0  0  0
  -26.5126   66.2983   56.7591 H   0  0  0  0  0  0  0  0  0  0  0  0
  -33.3703   72.4373   66.2704 H   0  0  0  0  0  0  0  0  0  0  0  0
  -28.4359   65.4236   55.6596 H   0  0  0  0  0  0  0  0  0  0  0  0
  -28.4783   64.0798   56.8238 H   0  0  0  0  0  0  0  0  0  0  0  0
  -26.3008   64.6000   54.8597 H   0  0  0  0  0  0  0  0  0  0  0  0
  -27.5857   63.3763   54.7305 H   0  0  0  0  0  0  0  0  0  0  0  0
  -31.8354   73.8960   63.6252 H   0  0  0  0  0  0  0  0  0  0  0  0
  -26.7565   62.2611   56.6636 H   0  0  0  0  0  0  0  0  0  0  0  0
  -25.4786   63.4934   56.8087 H   0  0  0  0  0  0  0  0  0  0  0  0
  -24.6289   61.4386   55.8863 H   0  0  0  0  0  0  0  0  0  0  0  0
  -24.5484   62.8040   54.7469 H   0  0  0  0  0  0  0  0  0  0  0  0
  -25.1772   60.7555   53.6361 H   0  0  0  0  0  0  0  0  0  0  0  0
  -26.4540   61.9856   53.5946 H   0  0  0  0  0  0  0  0  0  0  0  0
  -27.3602   59.7855   53.9795 H   0  0  0  0  0  0  0  0  0  0  0  0
  -27.5936   60.8858   55.3640 H   0  0  0  0  0  0  0  0  0  0  0  0
  -25.5499   58.7321   55.1993 H   0  0  0  0  0  0  0  0  0  0  0  0
  -27.0796   58.6683   56.0880 H   0  0  0  0  0  0  0  0  0  0  0  0
  -26.3736   60.4895   57.4776 H   0  0  0  0  0  0  0  0  0  0  0  0
  -24.8497   60.5738   56.5817 H   0  0  0  0  0  0  0  0  0  0  0  0
  -25.7701   58.2667   58.2455 H   0  0  0  0  0  0  0  0  0  0  0  0
  -24.5403   59.4261   58.6888 H   0  0  0  0  0  0  0  0  0  0  0  0
  -24.2786   58.3481   57.3388 H   0  0  0  0  0  0  0  0  0  0  0  0
  -35.5902   63.3777   62.2076 H   0  0  0  0  0  0  0  0  0  0  0  0
  -35.7431   64.5303   63.5424 H   0  0  0  0  0  0  0  0  0  0  0  0
  -33.4125   62.7194   63.0740 H   0  0  0  0  0  0  0  0  0  0  0  0
  -34.6972   62.4936   64.2719 H   0  0  0  0  0  0  0  0  0  0  0  0
  -32.7760   64.7740   64.1953 H   0  0  0  0  0  0  0  0  0  0  0  0
  -32.7252   63.3690   65.2873 H   0  0  0  0  0  0  0  0  0  0  0  0
  -34.7859   64.0291   66.2791 H   0  0  0  0  0  0  0  0  0  0  0  0
  -34.8552   65.4253   65.1776 H   0  0  0  0  0  0  0  0  0  0  0  0
  -32.9086   66.3551   66.1880 H   0  0  0  0  0  0  0  0  0  0  0  0
  -32.8221   64.9517   67.2810 H   0  0  0  0  0  0  0  0  0  0  0  0
  -35.0139   66.9666   67.2241 H   0  0  0  0  0  0  0  0  0  0  0  0
  -33.6857   66.8647   68.4047 H   0  0  0  0  0  0  0  0  0  0  0  0
  -34.4789   64.7486   69.1576 H   0  0  0  0  0  0  0  0  0  0  0  0
  -35.8028   64.8408   67.9639 H   0  0  0  0  0  0  0  0  0  0  0  0
  -36.5822   65.3287   70.1943 H   0  0  0  0  0  0  0  0  0  0  0  0
  -36.7154   66.7148   69.0838 H   0  0  0  0  0  0  0  0  0  0  0  0
  -34.7949   67.7268   70.0696 H   0  0  0  0  0  0  0  0  0  0  0  0
  -34.6493   66.3310   71.1739 H   0  0  0  0  0  0  0  0  0  0  0  0
  -35.5758   68.2603   72.2955 H   0  0  0  0  0  0  0  0  0  0  0  0
  -36.7089   66.8948   72.2010 H   0  0  0  0  0  0  0  0  0  0  0  0
  -37.8864   67.9609   70.4143 H   0  0  0  0  0  0  0  0  0  0  0  0
  -36.7370   69.3286   70.5074 H   0  0  0  0  0  0  0  0  0  0  0  0
  -37.5422   69.9035   72.6624 H   0  0  0  0  0  0  0  0  0  0  0  0
  -38.6801   68.5264   72.5874 H   0  0  0  0  0  0  0  0  0  0  0  0
  -38.7634   70.9263   70.8220 H   0  0  0  0  0  0  0  0  0  0  0  0
  -39.8056   70.6090   72.2199 H   0  0  0  0  0  0  0  0  0  0  0  0
  -40.0480   68.3945   70.4757 H   0  0  0  0  0  0  0  0  0  0  0  0
  -41.7883   69.2613   69.3289 H   0  0  0  0  0  0  0  0  0  0  0  0
  -40.7433   71.9613   69.9918 H   0  0  0  0  0  0  0  0  0  0  0  0
  -42.3436   71.5054   70.6195 H   0  0  0  0  0  0  0  0  0  0  0  0
  -42.5276   72.8243   68.5946 H   0  0  0  0  0  0  0  0  0  0  0  0
  -43.1439   71.1707   68.3990 H   0  0  0  0  0  0  0  0  0  0  0  0
  -41.1468   70.5356   67.2449 H   0  0  0  0  0  0  0  0  0  0  0  0
  -40.5153   72.1825   67.4534 H   0  0  0  0  0  0  0  0  0  0  0  0
  -42.9274   71.4381   65.8679 H   0  0  0  0  0  0  0  0  0  0  0  0
  -41.3095   71.8487   65.2369 H   0  0  0  0  0  0  0  0  0  0  0  0
  -43.0979   73.6963   66.7357 H   0  0  0  0  0  0  0  0  0  0  0  0
  -42.8237   73.6681   64.9783 H   0  0  0  0  0  0  0  0  0  0  0  0
  -40.5284   74.2263   65.2993 H   0  0  0  0  0  0  0  0  0  0  0  0
  -40.7941   74.2389   67.0615 H   0  0  0  0  0  0  0  0  0  0  0  0
  -42.0407   76.1147   65.1147 H   0  0  0  0  0  0  0  0  0  0  0  0
  -40.6701   76.4584   66.1847 H   0  0  0  0  0  0  0  0  0  0  0  0
  -43.4413   75.7706   67.0657 H   0  0  0  0  0  0  0  0  0  0  0  0
  -42.7157   77.3597   67.1029 H   0  0  0  0  0  0  0  0  0  0  0  0
  -42.0781   76.0843   68.1128 H   0  0  0  0  0  0  0  0  0  0  0  0
  -30.3291   70.0960   61.6371 H   0  0  0  0  0  0  0  0  0  0  0  0
  -32.9193   69.4938   63.0591 H   0  0  0  0  0  0  0  0  0  0  0  0
  -31.5471   72.1651   62.7102 H   0  0  0  0  0  0  0  0  0  0  0  0
  -31.0444   72.1140   65.0021 H   0  0  0  0  0  0  0  0  0  0  0  0
  -29.4118   71.1378   63.5901 H   0  0  0  0  0  0  0  0  0  0  0  0
  -28.2611   69.5805   65.0573 H   0  0  0  0  0  0  0  0  0  0  0  0
  -28.9495   70.9336   65.9532 H   0  0  0  0  0  0  0  0  0  0  0  0
  1  4  1  0  0  0  0
  1 31  1  0  0  0  0
  1 62  1  0  0  0  0
  2  3  1  0  0  0  0
  2  4  1  0  0  0  0
  2 63  1  0  0  0  0
  2 64  1  0  0  0  0
  3 55  1  0  0  0  0
  4  6  1  0  0  0  0
  4 65  1  6  0  0  0
  5  6  1  0  0  0  0
  5 66  1  0  0  0  0
  6  8  1  0  0  0  0
  6 67  1  6  0  0  0
  7 31  2  0  0  0  0
  8 10  2  0  0  0  0
  8 68  1  0  0  0  0
  9 56  1  0  0  0  0
  9 69  1  0  0  0  0
 10 12  1  0  0  0  0
 10 70  1  0  0  0  0
 11 57  1  0  0  0  0
 11 61  1  0  0  0  0
 12 14  1  0  0  0  0
 12 71  1  0  0  0  0
 12 72  1  0  0  0  0
 13 58  1  0  0  0  0
 13 73  1  0  0  0  0
 14 16  1  0  0  0  0
 14 74  1  0  0  0  0
 14 75  1  0  0  0  0
 15 55  1  0  0  0  0
 15 59  1  0  0  0  0
 16 18  1  0  0  0  0
 16 76  1  0  0  0  0
 16 77  1  0  0  0  0
 17 60  1  0  0  0  0
 17 78  1  0  0  0  0
 18 20  1  0  0  0  0
 18 79  1  0  0  0  0
 18 80  1  0  0  0  0
 19 61  1  0  0  0  0
 19 81  1  0  0  0  0
 20 22  1  0  0  0  0
 20 82  1  0  0  0  0
 20 83  1  0  0  0  0
 21 61  1  0  0  0  0
 22 24  1  0  0  0  0
 22 84  1  0  0  0  0
 22 85  1  0  0  0  0
 23 61  1  0  0  0  0
 23 86  1  0  0  0  0
 24 25  1  0  0  0  0
 24 87  1  0  0  0  0
 24 88  1  0  0  0  0
 25 26  1  0  0  0  0
 25 89  1  0  0  0  0
 25 90  1  0  0  0  0
 26 27  1  0  0  0  0
 26 91  1  0  0  0  0
 26 92  1  0  0  0  0
 27 28  1  0  0  0  0
 27 93  1  0  0  0  0
 27 94  1  0  0  0  0
 28 29  1  0  0  0  0
 28 95  1  0  0  0  0
 28 96  1  0  0  0  0
 29 30  1  0  0  0  0
 29 97  1  0  0  0  0
 29 98  1  0  0  0  0
 30 99  1  0  0  0  0
 30100  1  0  0  0  0
 30101  1  0  0  0  0
 31 32  1  0  0  0  0
 32 33  1  0  0  0  0
 32102  1  0  0  0  0
 32103  1  0  0  0  0
 33 34  1  0  0  0  0
 33104  1  0  0  0  0
 33105  1  0  0  0  0
 34 35  1  0  0  0  0
 34106  1  0  0  0  0
 34107  1  0  0  0  0
 35 36  1  0  0  0  0
 35108  1  0  0  0  0
 35109  1  0  0  0  0
 36 37  1  0  0  0  0
 36110  1  0  0  0  0
 36111  1  0  0  0  0
 37 38  1  0  0  0  0
 37112  1  0  0  0  0
 37113  1  0  0  0  0
 38 39  1  0  0  0  0
 38114  1  0  0  0  0
 38115  1  0  0  0  0
 39 40  1  0  0  0  0
 39116  1  0  0  0  0
 39117  1  0  0  0  0
 40 41  1  0  0  0  0
 40118  1  0  0  0  0
 40119  1  0  0  0  0
 41 42  1  0  0  0  0
 41120  1  0  0  0  0
 41121  1  0  0  0  0
 42 43  1  0  0  0  0
 42122  1  0  0  0  0
 42123  1  0  0  0  0
 43 44  1  0  0  0  0
 43124  1  0  0  0  0
 43125  1  0  0  0  0
 44 45  1  0  0  0  0
 44126  1  0  0  0  0
 44127  1  0  0  0  0
 45 46  2  0  0  0  0
 45128  1  0  0  0  0
 46 47  1  0  0  0  0
 46129  1  0  0  0  0
 47 48  1  0  0  0  0
 47130  1  0  0  0  0
 47131  1  0  0  0  0
 48 49  1  0  0  0  0
 48132  1  0  0  0  0
 48133  1  0  0  0  0
 49 50  1  0  0  0  0
 49134  1  0  0  0  0
 49135  1  0  0  0  0
 50 51  1  0  0  0  0
 50136  1  0  0  0  0
 50137  1  0  0  0  0
 51 52  1  0  0  0  0
 51138  1  0  0  0  0
 51139  1  0  0  0  0
 52 53  1  0  0  0  0
 52140  1  0  0  0  0
 52141  1  0  0  0  0
 53 54  1  0  0  0  0
 53142  1  0  0  0  0
 53143  1  0  0  0  0
 54144  1  0  0  0  0
 54145  1  0  0  0  0
 54146  1  0  0  0  0
 55 56  1  0  0  0  0
 55147  1  6  0  0  0
 56 57  1  0  0  0  0
 56148  1  1  0  0  0
 57 58  1  0  0  0  0
 57149  1  6  0  0  0
 58 59  1  0  0  0  0
 58150  1  1  0  0  0
 59 60  1  0  0  0  0
 59151  1  6  0  0  0
 60152  1  0  0  0  0
 60153  1  0  0  0  0
M  CHG  1  21  -1
M  END
$$$$
