/media/chris/experiments/cd1a-new-docking/inputs/ligands/7ryn_ligand.pdb
 OpenBabel07032312553D

153153  0  0  1  0  0  0  0  0999 V2000
  -33.0340   65.1330   62.2120 N   0  0  0  0  0  0  0  0  0  0  0  0
  -32.0220   67.3480   62.3220 C   0  0  0  0  0  0  0  0  0  0  0  0
  -31.1969   68.2589   61.5870 O   0  0  0  0  0  0  0  0  0  0  0  0
  -32.1830   66.0840   61.5030 C   0  0  1  0  0  0  0  0  0  0  0  0
  -29.9992   66.3678   60.5104 O   0  0  0  0  0  0  0  0  0  0  0  0
  -30.8310   65.4230   61.1900 C   0  0  2  0  0  0  0  0  0  0  0  0
  -35.0701   64.2925   62.6764 O   0  0  0  0  0  0  0  0  0  0  0  0
  -31.0055   64.1786   60.3744 C   0  0  0  0  0  0  0  0  0  0  0  0
  -32.9308   70.4319   61.2513 O   0  0  0  0  0  0  0  0  0  0  0  0
  -30.0261   63.3955   59.9676 C   0  0  0  0  0  0  0  0  0  0  0  0
  -33.4310   71.8685   63.6467 O   0  0  0  0  0  0  0  0  0  0  0  0
  -30.2340   62.1517   59.1673 C   0  0  0  0  0  0  0  0  0  0  0  0
  -32.0199   70.3807   65.4572 O   0  0  0  0  0  0  0  0  0  0  0  0
  -28.9021   61.4599   58.8696 C   0  0  0  0  0  0  0  0  0  0  0  0
  -30.2839   69.2401   63.4665 O   0  0  0  0  0  0  0  0  0  0  0  0
  -28.1350   61.0259   60.1080 C   0  0  0  0  0  0  0  0  0  0  0  0
  -27.9496   69.4112   65.0113 O   0  0  0  0  0  0  0  0  0  0  0  0
  -26.8044   60.3539   59.8151 C   0  0  0  0  0  0  0  0  0  0  0  0
  -33.0558   74.2487   63.6804 O   0  0  0  0  0  0  0  0  0  0  0  0
  -26.0499   59.9069   61.0587 C   0  0  0  0  0  0  0  0  0  0  0  0
  -33.2511   72.9552   65.8262 O   0  5  0  0  0  0  0  0  0  0  0  0
  -24.7113   59.2505   60.7581 C   0  0  0  0  0  0  0  0  0  0  0  0
  -35.1273   73.3479   64.4253 O   0  0  0  0  0  0  0  0  0  0  0  0
  -23.7348   60.1576   60.0303 C   0  0  0  0  0  0  0  0  0  0  0  0
  -23.3683   61.4140   60.7981 C   0  0  0  0  0  0  0  0  0  0  0  0
  -22.4045   62.3272   60.0599 C   0  0  0  0  0  0  0  0  0  0  0  0
  -22.0384   63.5684   60.8523 C   0  0  0  0  0  0  0  0  0  0  0  0
  -23.2192   64.4439   61.2257 C   0  0  0  0  0  0  0  0  0  0  0  0
  -23.9822   64.9410   60.0135 C   0  0  0  0  0  0  0  0  0  0  0  0
  -25.1509   65.8291   60.3874 C   0  0  0  0  0  0  0  0  0  0  0  0
  -34.3610   65.0876   62.0665 C   0  0  0  0  0  0  0  0  0  0  0  0
  -34.9461   66.0885   61.1016 C   0  0  0  0  0  0  0  0  0  0  0  0
  -35.3277   67.3990   61.7781 C   0  0  0  0  0  0  0  0  0  0  0  0
  -35.9335   68.4036   60.8112 C   0  0  0  0  0  0  0  0  0  0  0  0
  -36.3091   69.7283   61.4541 C   0  0  0  0  0  0  0  0  0  0  0  0
  -37.3208   69.5994   62.5830 C   0  0  0  0  0  0  0  0  0  0  0  0
  -38.6430   68.9711   62.1615 C   0  0  0  0  0  0  0  0  0  0  0  0
  -39.3676   69.7375   61.0624 C   0  0  0  0  0  0  0  0  0  0  0  0
  -39.7156   71.1803   61.4196 C   0  0  0  0  0  0  0  0  0  0  0  0
  -40.4569   71.9329   60.3158 C   0  0  0  0  0  0  0  0  0  0  0  0
  -41.8022   71.3235   59.9218 C   0  0  0  0  0  0  0  0  0  0  0  0
  -42.8072   71.2705   61.0727 C   0  0  0  0  0  0  0  0  0  0  0  0
  -43.1829   72.6279   61.6668 C   0  0  0  0  0  0  0  0  0  0  0  0
  -44.1765   72.5701   62.8302 C   0  0  0  0  0  0  0  0  0  0  0  0
  -44.5258   73.9280   63.3670 C   0  0  0  0  0  0  0  0  0  0  0  0
  -45.3441   74.1805   64.3732 C   0  0  0  0  0  0  0  0  0  0  0  0
  -46.0862   73.1612   65.1833 C   0  0  0  0  0  0  0  0  0  0  0  0
  -47.4706   72.8228   64.6264 C   0  0  0  0  0  0  0  0  0  0  0  0
  -48.3948   74.0299   64.5359 C   0  0  0  0  0  0  0  0  0  0  0  0
  -49.7804   73.6919   63.9972 C   0  0  0  0  0  0  0  0  0  0  0  0
  -50.7207   74.8860   63.8803 C   0  0  0  0  0  0  0  0  0  0  0  0
  -50.9748   75.5977   65.2017 C   0  0  0  0  0  0  0  0  0  0  0  0
  -51.9250   76.7802   65.0990 C   0  0  0  0  0  0  0  0  0  0  0  0
  -51.4332   77.8504   64.1458 C   0  0  0  0  0  0  0  0  0  0  0  0
  -30.9530   69.4703   62.2406 C   0  0  2  0  0  0  0  0  0  0  0  0
  -32.2933   70.1495   62.4906 C   0  0  1  0  0  0  0  0  0  0  0  0
  -32.0829   71.4352   63.2803 C   0  0  2  0  0  0  0  0  0  0  0  0
  -31.2728   71.1754   64.5419 C   0  0  2  0  0  0  0  0  0  0  0  0
  -29.9796   70.4491   64.1802 C   0  0  1  0  0  0  0  0  0  0  0  0
  -29.1637   70.0508   65.3877 C   0  0  0  0  0  0  0  0  0  0  0  0
  -33.5968   73.2117   64.4786 S   0  0  0  0  0  0  0  0  0  0  0  0
  -32.6087   64.4935   62.8279 H   0  0  0  0  0  0  0  0  0  0  0  0
  -32.9806   67.7896   62.4978 H   0  0  0  0  0  0  0  0  0  0  0  0
  -31.5704   67.1208   63.2650 H   0  0  0  0  0  0  0  0  0  0  0  0
  -32.6374   66.3625   60.5752 H   0  0  0  0  0  0  0  0  0  0  0  0
  -29.9008   67.1635   61.0564 H   0  0  0  0  0  0  0  0  0  0  0  0
  -30.3647   65.1308   62.1077 H   0  0  0  0  0  0  0  0  0  0  0  0
  -31.9673   63.9138   60.1104 H   0  0  0  0  0  0  0  0  0  0  0  0
  -33.0591   69.6065   60.7582 H   0  0  0  0  0  0  0  0  0  0  0  0
  -29.0594   63.6571   60.2167 H   0  0  0  0  0  0  0  0  0  0  0  0
  -30.7100   62.4060   58.2433 H   0  0  0  0  0  0  0  0  0  0  0  0
  -30.8464   61.4814   59.7334 H   0  0  0  0  0  0  0  0  0  0  0  0
  -32.8421   70.8405   65.6883 H   0  0  0  0  0  0  0  0  0  0  0  0
  -28.2880   62.1385   58.3152 H   0  0  0  0  0  0  0  0  0  0  0  0
  -29.1335   60.5694   58.3234 H   0  0  0  0  0  0  0  0  0  0  0  0
  -28.7445   60.3379   60.6559 H   0  0  0  0  0  0  0  0  0  0  0  0
  -27.9142   61.9158   60.6595 H   0  0  0  0  0  0  0  0  0  0  0  0
  -27.4513   69.1691   65.8075 H   0  0  0  0  0  0  0  0  0  0  0  0
  -26.1890   61.0456   59.2786 H   0  0  0  0  0  0  0  0  0  0  0  0
  -27.0209   59.4713   59.2503 H   0  0  0  0  0  0  0  0  0  0  0  0
  -32.0874   74.1932   63.6910 H   0  0  0  0  0  0  0  0  0  0  0  0
  -26.6588   59.2050   61.5894 H   0  0  0  0  0  0  0  0  0  0  0  0
  -25.8453   60.7859   61.6335 H   0  0  0  0  0  0  0  0  0  0  0  0
  -24.8874   58.3875   60.1505 H   0  0  0  0  0  0  0  0  0  0  0  0
  -24.2661   59.0040   61.6994 H   0  0  0  0  0  0  0  0  0  0  0  0
  -35.4045   73.5252   63.5129 H   0  0  0  0  0  0  0  0  0  0  0  0
  -24.1757   60.4487   59.0998 H   0  0  0  0  0  0  0  0  0  0  0  0
  -22.8311   59.5992   59.9018 H   0  0  0  0  0  0  0  0  0  0  0  0
  -22.9157   61.1235   61.7231 H   0  0  0  0  0  0  0  0  0  0  0  0
  -24.2735   61.9668   60.9394 H   0  0  0  0  0  0  0  0  0  0  0  0
  -22.8597   62.6315   59.1407 H   0  0  0  0  0  0  0  0  0  0  0  0
  -21.5028   61.7750   59.8959 H   0  0  0  0  0  0  0  0  0  0  0  0
  -21.3610   64.1526   60.2651 H   0  0  0  0  0  0  0  0  0  0  0  0
  -21.6076   63.2284   61.7708 H   0  0  0  0  0  0  0  0  0  0  0  0
  -22.8593   65.2891   61.7744 H   0  0  0  0  0  0  0  0  0  0  0  0
  -23.8906   63.8507   61.8106 H   0  0  0  0  0  0  0  0  0  0  0  0
  -24.3529   64.0963   59.4713 H   0  0  0  0  0  0  0  0  0  0  0  0
  -23.3077   65.5236   59.4214 H   0  0  0  0  0  0  0  0  0  0  0  0
  -25.8454   65.2732   60.9820 H   0  0  0  0  0  0  0  0  0  0  0  0
  -25.6372   66.1719   59.4981 H   0  0  0  0  0  0  0  0  0  0  0  0
  -24.7957   66.6696   60.9463 H   0  0  0  0  0  0  0  0  0  0  0  0
  -35.8221   65.6645   60.6569 H   0  0  0  0  0  0  0  0  0  0  0  0
  -34.1984   66.3077   60.3682 H   0  0  0  0  0  0  0  0  0  0  0  0
  -34.4491   67.8286   62.2123 H   0  0  0  0  0  0  0  0  0  0  0  0
  -36.0671   67.1770   62.5190 H   0  0  0  0  0  0  0  0  0  0  0  0
  -36.8163   67.9727   60.3871 H   0  0  0  0  0  0  0  0  0  0  0  0
  -35.1859   68.6164   60.0758 H   0  0  0  0  0  0  0  0  0  0  0  0
  -36.7247   70.3633   60.6998 H   0  0  0  0  0  0  0  0  0  0  0  0
  -35.4149   70.1309   61.8822 H   0  0  0  0  0  0  0  0  0  0  0  0
  -37.5207   70.5772   62.9688 H   0  0  0  0  0  0  0  0  0  0  0  0
  -36.8879   68.9486   63.3137 H   0  0  0  0  0  0  0  0  0  0  0  0
  -39.2825   68.9254   63.0182 H   0  0  0  0  0  0  0  0  0  0  0  0
  -38.4152   68.0030   61.7669 H   0  0  0  0  0  0  0  0  0  0  0  0
  -40.2770   69.2201   60.8382 H   0  0  0  0  0  0  0  0  0  0  0  0
  -38.6961   69.7837   60.2306 H   0  0  0  0  0  0  0  0  0  0  0  0
  -38.8063   71.7032   61.6310 H   0  0  0  0  0  0  0  0  0  0  0  0
  -40.3737   71.1401   62.2624 H   0  0  0  0  0  0  0  0  0  0  0  0
  -39.8322   71.9519   59.4474 H   0  0  0  0  0  0  0  0  0  0  0  0
  -40.6679   72.9078   60.7030 H   0  0  0  0  0  0  0  0  0  0  0  0
  -41.6333   70.3260   59.5734 H   0  0  0  0  0  0  0  0  0  0  0  0
  -42.2230   71.9515   59.1646 H   0  0  0  0  0  0  0  0  0  0  0  0
  -42.3863   70.6718   61.8533 H   0  0  0  0  0  0  0  0  0  0  0  0
  -43.7084   70.8640   60.6635 H   0  0  0  0  0  0  0  0  0  0  0  0
  -43.6155   73.2226   60.8896 H   0  0  0  0  0  0  0  0  0  0  0  0
  -42.2796   73.0417   62.0641 H   0  0  0  0  0  0  0  0  0  0  0  0
  -43.7446   71.9914   63.6198 H   0  0  0  0  0  0  0  0  0  0  0  0
  -45.0785   72.1285   62.4610 H   0  0  0  0  0  0  0  0  0  0  0  0
  -44.0856   74.7402   62.9070 H   0  0  0  0  0  0  0  0  0  0  0  0
  -45.4853   75.1714   64.6245 H   0  0  0  0  0  0  0  0  0  0  0  0
  -46.2051   73.5405   66.1768 H   0  0  0  0  0  0  0  0  0  0  0  0
  -45.5095   72.2602   65.1569 H   0  0  0  0  0  0  0  0  0  0  0  0
  -47.9250   72.0943   65.2650 H   0  0  0  0  0  0  0  0  0  0  0  0
  -47.3309   72.4553   63.6312 H   0  0  0  0  0  0  0  0  0  0  0  0
  -47.9458   74.7531   63.8876 H   0  0  0  0  0  0  0  0  0  0  0  0
  -48.5247   74.4038   65.5300 H   0  0  0  0  0  0  0  0  0  0  0  0
  -50.2289   72.9760   64.6538 H   0  0  0  0  0  0  0  0  0  0  0  0
  -49.6385   73.3176   63.0049 H   0  0  0  0  0  0  0  0  0  0  0  0
  -51.6583   74.5412   63.4969 H   0  0  0  0  0  0  0  0  0  0  0  0
  -50.2485   75.5930   63.2306 H   0  0  0  0  0  0  0  0  0  0  0  0
  -50.0378   75.9517   65.5780 H   0  0  0  0  0  0  0  0  0  0  0  0
  -51.4391   74.8851   65.8510 H   0  0  0  0  0  0  0  0  0  0  0  0
  -52.0369   77.2137   66.0709 H   0  0  0  0  0  0  0  0  0  0  0  0
  -52.8548   76.4129   64.7176 H   0  0  0  0  0  0  0  0  0  0  0  0
  -50.5015   78.2411   64.4982 H   0  0  0  0  0  0  0  0  0  0  0  0
  -52.1538   78.6396   64.0931 H   0  0  0  0  0  0  0  0  0  0  0  0
  -51.2970   77.4263   63.1730 H   0  0  0  0  0  0  0  0  0  0  0  0
  -30.3291   70.0960   61.6371 H   0  0  0  0  0  0  0  0  0  0  0  0
  -32.9193   69.4938   63.0591 H   0  0  0  0  0  0  0  0  0  0  0  0
  -31.5471   72.1651   62.7102 H   0  0  0  0  0  0  0  0  0  0  0  0
  -31.0444   72.1140   65.0021 H   0  0  0  0  0  0  0  0  0  0  0  0
  -29.4118   71.1378   63.5901 H   0  0  0  0  0  0  0  0  0  0  0  0
  -28.9326   70.9278   65.9555 H   0  0  0  0  0  0  0  0  0  0  0  0
  -29.7397   69.3608   65.9683 H   0  0  0  0  0  0  0  0  0  0  0  0
  1  4  1  0  0  0  0
  1 31  1  0  0  0  0
  1 62  1  0  0  0  0
  2  3  1  0  0  0  0
  2  4  1  0  0  0  0
  2 63  1  0  0  0  0
  2 64  1  0  0  0  0
  3 55  1  0  0  0  0
  4  6  1  0  0  0  0
  4 65  1  6  0  0  0
  5  6  1  0  0  0  0
  5 66  1  0  0  0  0
  6  8  1  0  0  0  0
  6 67  1  1  0  0  0
  7 31  2  0  0  0  0
  8 10  2  0  0  0  0
  8 68  1  0  0  0  0
  9 56  1  0  0  0  0
  9 69  1  0  0  0  0
 10 12  1  0  0  0  0
 10 70  1  0  0  0  0
 11 57  1  0  0  0  0
 11 61  1  0  0  0  0
 12 14  1  0  0  0  0
 12 71  1  0  0  0  0
 12 72  1  0  0  0  0
 13 58  1  0  0  0  0
 13 73  1  0  0  0  0
 14 16  1  0  0  0  0
 14 74  1  0  0  0  0
 14 75  1  0  0  0  0
 15 55  1  0  0  0  0
 15 59  1  0  0  0  0
 16 18  1  0  0  0  0
 16 76  1  0  0  0  0
 16 77  1  0  0  0  0
 17 60  1  0  0  0  0
 17 78  1  0  0  0  0
 18 20  1  0  0  0  0
 18 79  1  0  0  0  0
 18 80  1  0  0  0  0
 19 61  1  0  0  0  0
 19 81  1  0  0  0  0
 20 22  1  0  0  0  0
 20 82  1  0  0  0  0
 20 83  1  0  0  0  0
 21 61  1  0  0  0  0
 22 24  1  0  0  0  0
 22 84  1  0  0  0  0
 22 85  1  0  0  0  0
 23 61  1  0  0  0  0
 23 86  1  0  0  0  0
 24 25  1  0  0  0  0
 24 87  1  0  0  0  0
 24 88  1  0  0  0  0
 25 26  1  0  0  0  0
 25 89  1  0  0  0  0
 25 90  1  0  0  0  0
 26 27  1  0  0  0  0
 26 91  1  0  0  0  0
 26 92  1  0  0  0  0
 27 28  1  0  0  0  0
 27 93  1  0  0  0  0
 27 94  1  0  0  0  0
 28 29  1  0  0  0  0
 28 95  1  0  0  0  0
 28 96  1  0  0  0  0
 29 30  1  0  0  0  0
 29 97  1  0  0  0  0
 29 98  1  0  0  0  0
 30 99  1  0  0  0  0
 30100  1  0  0  0  0
 30101  1  0  0  0  0
 31 32  1  0  0  0  0
 32 33  1  0  0  0  0
 32102  1  0  0  0  0
 32103  1  0  0  0  0
 33 34  1  0  0  0  0
 33104  1  0  0  0  0
 33105  1  0  0  0  0
 34 35  1  0  0  0  0
 34106  1  0  0  0  0
 34107  1  0  0  0  0
 35 36  1  0  0  0  0
 35108  1  0  0  0  0
 35109  1  0  0  0  0
 36 37  1  0  0  0  0
 36110  1  0  0  0  0
 36111  1  0  0  0  0
 37 38  1  0  0  0  0
 37112  1  0  0  0  0
 37113  1  0  0  0  0
 38 39  1  0  0  0  0
 38114  1  0  0  0  0
 38115  1  0  0  0  0
 39 40  1  0  0  0  0
 39116  1  0  0  0  0
 39117  1  0  0  0  0
 40 41  1  0  0  0  0
 40118  1  0  0  0  0
 40119  1  0  0  0  0
 41 42  1  0  0  0  0
 41120  1  0  0  0  0
 41121  1  0  0  0  0
 42 43  1  0  0  0  0
 42122  1  0  0  0  0
 42123  1  0  0  0  0
 43 44  1  0  0  0  0
 43124  1  0  0  0  0
 43125  1  0  0  0  0
 44 45  1  0  0  0  0
 44126  1  0  0  0  0
 44127  1  0  0  0  0
 45 46  2  0  0  0  0
 45128  1  0  0  0  0
 46 47  1  0  0  0  0
 46129  1  0  0  0  0
 47 48  1  0  0  0  0
 47130  1  0  0  0  0
 47131  1  0  0  0  0
 48 49  1  0  0  0  0
 48132  1  0  0  0  0
 48133  1  0  0  0  0
 49 50  1  0  0  0  0
 49134  1  0  0  0  0
 49135  1  0  0  0  0
 50 51  1  0  0  0  0
 50136  1  0  0  0  0
 50137  1  0  0  0  0
 51 52  1  0  0  0  0
 51138  1  0  0  0  0
 51139  1  0  0  0  0
 52 53  1  0  0  0  0
 52140  1  0  0  0  0
 52141  1  0  0  0  0
 53 54  1  0  0  0  0
 53142  1  0  0  0  0
 53143  1  0  0  0  0
 54144  1  0  0  0  0
 54145  1  0  0  0  0
 54146  1  0  0  0  0
 55 56  1  0  0  0  0
 55147  1  6  0  0  0
 56 57  1  0  0  0  0
 56148  1  1  0  0  0
 57 58  1  0  0  0  0
 57149  1  6  0  0  0
 58 59  1  0  0  0  0
 58150  1  1  0  0  0
 59 60  1  0  0  0  0
 59151  1  6  0  0  0
 60152  1  0  0  0  0
 60153  1  0  0  0  0
M  CHG  1  21  -1
M  END
$$$$