/media/chris/experiments/cd1a-new-docking/inputs/ligands/7ryn_ligand.pdb
 OpenBabel07032312553D

153153  0  0  1  0  0  0  0  0999 V2000
  -33.0340   65.1330   62.2120 N   0  0  0  0  0  0  0  0  0  0  0  0
  -32.0220   67.3480   62.3220 C   0  0  0  0  0  0  0  0  0  0  0  0
  -31.4051   67.0024   63.5673 O   0  0  0  0  0  0  0  0  0  0  0  0
  -32.1830   66.0840   61.5030 C   0  0  1  0  0  0  0  0  0  0  0  0
  -30.2154   65.0225   62.4176 O   0  0  0  0  0  0  0  0  0  0  0  0
  -30.8310   65.4230   61.1900 C   0  0  2  0  0  0  0  0  0  0  0  0
  -34.2576   66.6787   63.2990 O   0  0  0  0  0  0  0  0  0  0  0  0
  -29.9369   66.3439   60.4177 C   0  0  0  0  0  0  0  0  0  0  0  0
  -29.0472   68.5087   63.4560 O   0  0  0  0  0  0  0  0  0  0  0  0
  -30.3493   67.2791   59.5850 C   0  0  0  0  0  0  0  0  0  0  0  0
  -29.4663   71.3004   63.7442 O   0  0  0  0  0  0  0  0  0  0  0  0
  -29.4320   68.1925   58.8402 C   0  0  0  0  0  0  0  0  0  0  0  0
  -32.1950   71.4092   63.9043 O   0  0  0  0  0  0  0  0  0  0  0  0
  -28.0884   67.5157   58.5614 C   0  0  0  0  0  0  0  0  0  0  0  0
  -32.4523   68.6756   64.7639 O   0  0  0  0  0  0  0  0  0  0  0  0
  -27.0919   68.3911   57.8191 C   0  0  0  0  0  0  0  0  0  0  0  0
  -34.4615   70.6093   64.8705 O   0  0  0  0  0  0  0  0  0  0  0  0
  -25.7632   67.7152   57.5264 C   0  0  0  0  0  0  0  0  0  0  0  0
  -27.6225   72.0302   62.3750 O   0  0  0  0  0  0  0  0  0  0  0  0
  -24.7646   68.6030   56.7982 C   0  0  0  0  0  0  0  0  0  0  0  0
  -28.0944   69.5812   62.6834 O   0  5  0  0  0  0  0  0  0  0  0  0
  -23.4433   67.9139   56.4938 C   0  0  0  0  0  0  0  0  0  0  0  0
  -27.2205   70.9190   64.4392 O   0  0  0  0  0  0  0  0  0  0  0  0
  -23.5815   66.6920   55.6027 C   0  0  0  0  0  0  0  0  0  0  0  0
  -24.1701   66.9872   54.2357 C   0  0  0  0  0  0  0  0  0  0  0  0
  -23.3459   67.9578   53.4073 C   0  0  0  0  0  0  0  0  0  0  0  0
  -23.1665   69.3069   54.0782 C   0  0  0  0  0  0  0  0  0  0  0  0
  -22.3618   70.3064   53.2696 C   0  0  0  0  0  0  0  0  0  0  0  0
  -22.1932   71.6328   53.9842 C   0  0  0  0  0  0  0  0  0  0  0  0
  -21.4039   72.6355   53.1681 C   0  0  0  0  0  0  0  0  0  0  0  0
  -34.0033   65.5031   63.0532 C   0  0  0  0  0  0  0  0  0  0  0  0
  -34.7826   64.3775   63.6864 C   0  0  0  0  0  0  0  0  0  0  0  0
  -35.8794   64.8771   64.6180 C   0  0  0  0  0  0  0  0  0  0  0  0
  -36.9102   65.7359   63.9029 C   0  0  0  0  0  0  0  0  0  0  0  0
  -36.3285   66.9745   63.2420 C   0  0  0  0  0  0  0  0  0  0  0  0
  -37.3637   67.8417   62.5414 C   0  0  0  0  0  0  0  0  0  0  0  0
  -36.7819   69.0755   61.8631 C   0  0  0  0  0  0  0  0  0  0  0  0
  -35.7642   68.7591   60.7748 C   0  0  0  0  0  0  0  0  0  0  0  0
  -35.1593   69.9858   60.0969 C   0  0  0  0  0  0  0  0  0  0  0  0
  -34.1530   69.6553   58.9958 C   0  0  0  0  0  0  0  0  0  0  0  0
  -33.5258   70.8739   58.3191 C   0  0  0  0  0  0  0  0  0  0  0  0
  -32.5365   70.5130   57.2108 C   0  0  0  0  0  0  0  0  0  0  0  0
  -31.8746   71.7055   56.5205 C   0  0  0  0  0  0  0  0  0  0  0  0
  -30.8973   71.3411   55.3997 C   0  0  0  0  0  0  0  0  0  0  0  0
  -29.7628   70.4789   55.8726 C   0  0  0  0  0  0  0  0  0  0  0  0
  -29.1198   69.5754   55.1543 C   0  0  0  0  0  0  0  0  0  0  0  0
  -29.3921   69.2315   53.7212 C   0  0  0  0  0  0  0  0  0  0  0  0
  -28.5804   70.0622   52.7249 C   0  0  0  0  0  0  0  0  0  0  0  0
  -28.8764   69.7174   51.2714 C   0  0  0  0  0  0  0  0  0  0  0  0
  -28.0563   70.5320   50.2774 C   0  0  0  0  0  0  0  0  0  0  0  0
  -26.5482   70.3496   50.4040 C   0  0  0  0  0  0  0  0  0  0  0  0
  -26.0827   68.9181   50.1774 C   0  0  0  0  0  0  0  0  0  0  0  0
  -24.5816   68.7221   50.3182 C   0  0  0  0  0  0  0  0  0  0  0  0
  -24.1482   67.2915   50.0703 C   0  0  0  0  0  0  0  0  0  0  0  0
  -31.2104   68.0828   64.4327 C   0  0  2  0  0  0  0  0  0  0  0  0
  -30.3138   69.0941   63.7304 C   0  0  1  0  0  0  0  0  0  0  0  0
  -30.1449   70.3308   64.6038 C   0  0  2  0  0  0  0  0  0  0  0  0
  -31.4954   70.8877   65.0296 C   0  0  2  0  0  0  0  0  0  0  0  0
  -32.3266   69.7807   65.6732 C   0  0  1  0  0  0  0  0  0  0  0  0
  -33.7288   70.2187   66.0260 C   0  0  0  0  0  0  0  0  0  0  0  0
  -28.0466   70.9183   63.1425 S   0  0  0  0  0  0  0  0  0  0  0  0
  -32.8861   64.1712   62.0627 H   0  0  0  0  0  0  0  0  0  0  0  0
  -31.4053   68.0450   61.7940 H   0  0  0  0  0  0  0  0  0  0  0  0
  -32.9770   67.7979   62.4965 H   0  0  0  0  0  0  0  0  0  0  0  0
  -32.6374   66.3625   60.5752 H   0  0  0  0  0  0  0  0  0  0  0  0
  -30.8116   64.4280   62.8994 H   0  0  0  0  0  0  0  0  0  0  0  0
  -30.9971   64.5628   60.5757 H   0  0  0  0  0  0  0  0  0  0  0  0
  -28.9186   66.2380   60.5475 H   0  0  0  0  0  0  0  0  0  0  0  0
  -29.1677   67.7231   62.8999 H   0  0  0  0  0  0  0  0  0  0  0  0
  -31.3654   67.3862   59.4394 H   0  0  0  0  0  0  0  0  0  0  0  0
  -29.2652   69.0732   59.4246 H   0  0  0  0  0  0  0  0  0  0  0  0
  -29.8872   68.4430   57.9048 H   0  0  0  0  0  0  0  0  0  0  0  0
  -31.6684   72.1129   63.4939 H   0  0  0  0  0  0  0  0  0  0  0  0
  -28.2693   66.6403   57.9733 H   0  0  0  0  0  0  0  0  0  0  0  0
  -27.6530   67.2931   59.5131 H   0  0  0  0  0  0  0  0  0  0  0  0
  -26.9020   69.2606   58.4131 H   0  0  0  0  0  0  0  0  0  0  0  0
  -27.5331   68.6229   56.8722 H   0  0  0  0  0  0  0  0  0  0  0  0
  -35.3545   70.8838   65.1313 H   0  0  0  0  0  0  0  0  0  0  0  0
  -25.9505   66.8528   56.9214 H   0  0  0  0  0  0  0  0  0  0  0  0
  -25.3265   67.4685   58.4716 H   0  0  0  0  0  0  0  0  0  0  0  0
  -28.1249   72.0612   61.5458 H   0  0  0  0  0  0  0  0  0  0  0  0
  -24.5663   69.4595   57.4081 H   0  0  0  0  0  0  0  0  0  0  0  0
  -25.2050   68.8642   55.8587 H   0  0  0  0  0  0  0  0  0  0  0  0
  -23.0008   67.6087   57.4189 H   0  0  0  0  0  0  0  0  0  0  0  0
  -22.8380   68.6196   55.9641 H   0  0  0  0  0  0  0  0  0  0  0  0
  -27.1647   71.8230   64.7865 H   0  0  0  0  0  0  0  0  0  0  0  0
  -24.2157   65.9857   56.0965 H   0  0  0  0  0  0  0  0  0  0  0  0
  -22.5934   66.3154   55.4391 H   0  0  0  0  0  0  0  0  0  0  0  0
  -25.1458   67.4048   54.3720 H   0  0  0  0  0  0  0  0  0  0  0  0
  -24.1908   66.0613   53.6999 H   0  0  0  0  0  0  0  0  0  0  0  0
  -23.8368   68.1066   52.4682 H   0  0  0  0  0  0  0  0  0  0  0  0
  -22.3731   67.5289   53.2863 H   0  0  0  0  0  0  0  0  0  0  0  0
  -22.6674   69.1527   55.0120 H   0  0  0  0  0  0  0  0  0  0  0  0
  -24.1453   69.7239   54.1924 H   0  0  0  0  0  0  0  0  0  0  0  0
  -22.8636   70.4789   52.3404 H   0  0  0  0  0  0  0  0  0  0  0  0
  -21.3865   69.8923   53.1201 H   0  0  0  0  0  0  0  0  0  0  0  0
  -21.6802   71.4623   54.9076 H   0  0  0  0  0  0  0  0  0  0  0  0
  -23.1689   72.0413   54.1456 H   0  0  0  0  0  0  0  0  0  0  0  0
  -20.4201   72.2544   52.9894 H   0  0  0  0  0  0  0  0  0  0  0  0
  -21.3368   73.5585   53.7050 H   0  0  0  0  0  0  0  0  0  0  0  0
  -21.8971   72.8017   52.2332 H   0  0  0  0  0  0  0  0  0  0  0  0
  -34.1073   63.7667   64.2484 H   0  0  0  0  0  0  0  0  0  0  0  0
  -35.2520   63.8250   62.8995 H   0  0  0  0  0  0  0  0  0  0  0  0
  -35.4296   65.4585   65.3956 H   0  0  0  0  0  0  0  0  0  0  0  0
  -36.3874   64.0201   65.0082 H   0  0  0  0  0  0  0  0  0  0  0  0
  -37.6428   66.0480   64.6176 H   0  0  0  0  0  0  0  0  0  0  0  0
  -37.3275   65.1346   63.1224 H   0  0  0  0  0  0  0  0  0  0  0  0
  -35.6049   66.6622   62.5184 H   0  0  0  0  0  0  0  0  0  0  0  0
  -35.8994   67.5700   64.0206 H   0  0  0  0  0  0  0  0  0  0  0  0
  -38.0802   68.1635   63.2679 H   0  0  0  0  0  0  0  0  0  0  0  0
  -37.7996   67.2413   61.7704 H   0  0  0  0  0  0  0  0  0  0  0  0
  -36.3027   69.6752   62.6085 H   0  0  0  0  0  0  0  0  0  0  0  0
  -37.5962   69.5825   61.3892 H   0  0  0  0  0  0  0  0  0  0  0  0
  -36.2489   68.1685   60.0257 H   0  0  0  0  0  0  0  0  0  0  0  0
  -34.9561   68.2469   61.2538 H   0  0  0  0  0  0  0  0  0  0  0  0
  -34.6622   70.5711   60.8422 H   0  0  0  0  0  0  0  0  0  0  0  0
  -35.9665   70.5112   59.6307 H   0  0  0  0  0  0  0  0  0  0  0  0
  -34.6552   69.0794   58.2468 H   0  0  0  0  0  0  0  0  0  0  0  0
  -33.3520   69.1247   59.4668 H   0  0  0  0  0  0  0  0  0  0  0  0
  -33.0091   71.4454   59.0616 H   0  0  0  0  0  0  0  0  0  0  0  0
  -34.3214   71.4258   57.8638 H   0  0  0  0  0  0  0  0  0  0  0  0
  -33.0615   69.9494   56.4681 H   0  0  0  0  0  0  0  0  0  0  0  0
  -31.7473   69.9651   57.6818 H   0  0  0  0  0  0  0  0  0  0  0  0
  -31.3389   72.2625   57.2605 H   0  0  0  0  0  0  0  0  0  0  0  0
  -32.6643   72.2620   56.0606 H   0  0  0  0  0  0  0  0  0  0  0  0
  -30.4931   72.2440   54.9919 H   0  0  0  0  0  0  0  0  0  0  0  0
  -31.4418   70.7827   54.6672 H   0  0  0  0  0  0  0  0  0  0  0  0
  -29.4565   70.6036   56.8502 H   0  0  0  0  0  0  0  0  0  0  0  0
  -28.3597   69.0586   55.6235 H   0  0  0  0  0  0  0  0  0  0  0  0
  -30.4320   69.3921   53.5269 H   0  0  0  0  0  0  0  0  0  0  0  0
  -29.1045   68.2100   53.5844 H   0  0  0  0  0  0  0  0  0  0  0  0
  -27.5401   69.8924   52.9092 H   0  0  0  0  0  0  0  0  0  0  0  0
  -28.8535   71.0866   52.8697 H   0  0  0  0  0  0  0  0  0  0  0  0
  -29.9142   69.8989   51.0842 H   0  0  0  0  0  0  0  0  0  0  0  0
  -28.6140   68.6897   51.1305 H   0  0  0  0  0  0  0  0  0  0  0  0
  -28.2816   71.5672   50.4270 H   0  0  0  0  0  0  0  0  0  0  0  0
  -28.3247   70.1826   49.3023 H   0  0  0  0  0  0  0  0  0  0  0  0
  -26.2534   70.6486   51.3882 H   0  0  0  0  0  0  0  0  0  0  0  0
  -26.0960   70.9493   49.6419 H   0  0  0  0  0  0  0  0  0  0  0  0
  -26.3684   68.6247   49.1888 H   0  0  0  0  0  0  0  0  0  0  0  0
  -26.5437   68.3207   50.9361 H   0  0  0  0  0  0  0  0  0  0  0  0
  -24.2926   68.9994   51.3104 H   0  0  0  0  0  0  0  0  0  0  0  0
  -24.1071   69.3341   49.5797 H   0  0  0  0  0  0  0  0  0  0  0  0
  -24.6060   66.6497   50.7937 H   0  0  0  0  0  0  0  0  0  0  0  0
  -23.0838   67.2216   50.1543 H   0  0  0  0  0  0  0  0  0  0  0  0
  -24.4488   66.9930   49.0877 H   0  0  0  0  0  0  0  0  0  0  0  0
  -30.7515   67.7503   65.3403 H   0  0  0  0  0  0  0  0  0  0  0  0
  -30.7674   69.3839   62.8057 H   0  0  0  0  0  0  0  0  0  0  0  0
  -29.6019   70.1103   65.4990 H   0  0  0  0  0  0  0  0  0  0  0  0
  -31.3342   71.6761   65.7349 H   0  0  0  0  0  0  0  0  0  0  0  0
  -31.8112   69.5117   66.5715 H   0  0  0  0  0  0  0  0  0  0  0  0
  -34.2372   69.4060   66.5014 H   0  0  0  0  0  0  0  0  0  0  0  0
  -33.6613   71.0623   66.6807 H   0  0  0  0  0  0  0  0  0  0  0  0
  1  4  1  0  0  0  0
  1 31  1  0  0  0  0
  1 62  1  0  0  0  0
  2  3  1  0  0  0  0
  2  4  1  0  0  0  0
  2 63  1  0  0  0  0
  2 64  1  0  0  0  0
  3 55  1  0  0  0  0
  4  6  1  0  0  0  0
  4 65  1  6  0  0  0
  5  6  1  0  0  0  0
  5 66  1  0  0  0  0
  6  8  1  0  0  0  0
  6 67  1  6  0  0  0
  7 31  2  0  0  0  0
  8 10  2  0  0  0  0
  8 68  1  0  0  0  0
  9 56  1  0  0  0  0
  9 69  1  0  0  0  0
 10 12  1  0  0  0  0
 10 70  1  0  0  0  0
 11 57  1  0  0  0  0
 11 61  1  0  0  0  0
 12 14  1  0  0  0  0
 12 71  1  0  0  0  0
 12 72  1  0  0  0  0
 13 58  1  0  0  0  0
 13 73  1  0  0  0  0
 14 16  1  0  0  0  0
 14 74  1  0  0  0  0
 14 75  1  0  0  0  0
 15 55  1  0  0  0  0
 15 59  1  0  0  0  0
 16 18  1  0  0  0  0
 16 76  1  0  0  0  0
 16 77  1  0  0  0  0
 17 60  1  0  0  0  0
 17 78  1  0  0  0  0
 18 20  1  0  0  0  0
 18 79  1  0  0  0  0
 18 80  1  0  0  0  0
 19 61  1  0  0  0  0
 19 81  1  0  0  0  0
 20 22  1  0  0  0  0
 20 82  1  0  0  0  0
 20 83  1  0  0  0  0
 21 61  1  0  0  0  0
 22 24  1  0  0  0  0
 22 84  1  0  0  0  0
 22 85  1  0  0  0  0
 23 61  1  0  0  0  0
 23 86  1  0  0  0  0
 24 25  1  0  0  0  0
 24 87  1  0  0  0  0
 24 88  1  0  0  0  0
 25 26  1  0  0  0  0
 25 89  1  0  0  0  0
 25 90  1  0  0  0  0
 26 27  1  0  0  0  0
 26 91  1  0  0  0  0
 26 92  1  0  0  0  0
 27 28  1  0  0  0  0
 27 93  1  0  0  0  0
 27 94  1  0  0  0  0
 28 29  1  0  0  0  0
 28 95  1  0  0  0  0
 28 96  1  0  0  0  0
 29 30  1  0  0  0  0
 29 97  1  0  0  0  0
 29 98  1  0  0  0  0
 30 99  1  0  0  0  0
 30100  1  0  0  0  0
 30101  1  0  0  0  0
 31 32  1  0  0  0  0
 32 33  1  0  0  0  0
 32102  1  0  0  0  0
 32103  1  0  0  0  0
 33 34  1  0  0  0  0
 33104  1  0  0  0  0
 33105  1  0  0  0  0
 34 35  1  0  0  0  0
 34106  1  0  0  0  0
 34107  1  0  0  0  0
 35 36  1  0  0  0  0
 35108  1  0  0  0  0
 35109  1  0  0  0  0
 36 37  1  0  0  0  0
 36110  1  0  0  0  0
 36111  1  0  0  0  0
 37 38  1  0  0  0  0
 37112  1  0  0  0  0
 37113  1  0  0  0  0
 38 39  1  0  0  0  0
 38114  1  0  0  0  0
 38115  1  0  0  0  0
 39 40  1  0  0  0  0
 39116  1  0  0  0  0
 39117  1  0  0  0  0
 40 41  1  0  0  0  0
 40118  1  0  0  0  0
 40119  1  0  0  0  0
 41 42  1  0  0  0  0
 41120  1  0  0  0  0
 41121  1  0  0  0  0
 42 43  1  0  0  0  0
 42122  1  0  0  0  0
 42123  1  0  0  0  0
 43 44  1  0  0  0  0
 43124  1  0  0  0  0
 43125  1  0  0  0  0
 44 45  1  0  0  0  0
 44126  1  0  0  0  0
 44127  1  0  0  0  0
 45 46  2  0  0  0  0
 45128  1  0  0  0  0
 46 47  1  0  0  0  0
 46129  1  0  0  0  0
 47 48  1  0  0  0  0
 47130  1  0  0  0  0
 47131  1  0  0  0  0
 48 49  1  0  0  0  0
 48132  1  0  0  0  0
 48133  1  0  0  0  0
 49 50  1  0  0  0  0
 49134  1  0  0  0  0
 49135  1  0  0  0  0
 50 51  1  0  0  0  0
 50136  1  0  0  0  0
 50137  1  0  0  0  0
 51 52  1  0  0  0  0
 51138  1  0  0  0  0
 51139  1  0  0  0  0
 52 53  1  0  0  0  0
 52140  1  0  0  0  0
 52141  1  0  0  0  0
 53 54  1  0  0  0  0
 53142  1  0  0  0  0
 53143  1  0  0  0  0
 54144  1  0  0  0  0
 54145  1  0  0  0  0
 54146  1  0  0  0  0
 55 56  1  0  0  0  0
 55147  1  1  0  0  0
 56 57  1  0  0  0  0
 56148  1  6  0  0  0
 57 58  1  0  0  0  0
 57149  1  1  0  0  0
 58 59  1  0  0  0  0
 58150  1  1  0  0  0
 59 60  1  0  0  0  0
 59151  1  1  0  0  0
 60152  1  0  0  0  0
 60153  1  0  0  0  0
M  CHG  1  21  -1
M  END
$$$$