/media/chris/experiments/cd1a-new-docking/inputs/ligands/7ryn_ligand.pdb
 OpenBabel07032312553D

153153  0  0  1  0  0  0  0  0999 V2000
  -33.0340   65.1330   62.2120 N   0  0  0  0  0  0  0  0  0  0  0  0
  -32.0220   67.3480   62.3220 C   0  0  0  0  0  0  0  0  0  0  0  0
  -33.3204   67.9104   62.5424 O   0  0  0  0  0  0  0  0  0  0  0  0
  -32.1830   66.0840   61.5030 C   0  0  1  0  0  0  0  0  0  0  0  0
  -30.2154   65.0225   62.4176 O   0  0  0  0  0  0  0  0  0  0  0  0
  -30.8310   65.4230   61.1900 C   0  0  2  0  0  0  0  0  0  0  0  0
  -32.4714   65.8137   64.2827 O   0  0  0  0  0  0  0  0  0  0  0  0
  -29.9369   66.3439   60.4177 C   0  0  0  0  0  0  0  0  0  0  0  0
  -35.3151   69.8361   62.1498 O   0  0  0  0  0  0  0  0  0  0  0  0
  -28.6200   66.3494   60.4787 C   0  0  0  0  0  0  0  0  0  0  0  0
  -36.2332   71.0293   64.5551 O   0  0  0  0  0  0  0  0  0  0  0  0
  -27.7547   67.2714   59.6837 C   0  0  0  0  0  0  0  0  0  0  0  0
  -34.7894   69.6393   66.4168 O   0  0  0  0  0  0  0  0  0  0  0  0
  -26.4595   67.5927   60.4323 C   0  0  0  0  0  0  0  0  0  0  0  0
  -32.7334   68.8853   64.5507 O   0  0  0  0  0  0  0  0  0  0  0  0
  -25.5312   68.5419   59.6922 C   0  0  0  0  0  0  0  0  0  0  0  0
  -32.5661   68.6711   67.3280 O   0  0  0  0  0  0  0  0  0  0  0  0
  -24.2371   68.8490   60.4262 C   0  0  0  0  0  0  0  0  0  0  0  0
  -36.0388   72.1223   66.6939 O   0  0  0  0  0  0  0  0  0  0  0  0
  -23.3203   69.8130   59.6873 C   0  0  0  0  0  0  0  0  0  0  0  0
  -38.0478   72.5148   65.2361 O   0  5  0  0  0  0  0  0  0  0  0  0
  -22.8949   69.3193   58.3130 C   0  0  0  0  0  0  0  0  0  0  0  0
  -35.9096   73.3854   64.6826 O   0  0  0  0  0  0  0  0  0  0  0  0
  -21.9664   70.2722   57.5810 C   0  0  0  0  0  0  0  0  0  0  0  0
  -22.5560   71.6502   57.3445 C   0  0  0  0  0  0  0  0  0  0  0  0
  -22.9169   72.3923   58.6199 C   0  0  0  0  0  0  0  0  0  0  0  0
  -21.7223   72.6353   59.5234 C   0  0  0  0  0  0  0  0  0  0  0  0
  -20.6239   73.4732   58.8975 C   0  0  0  0  0  0  0  0  0  0  0  0
  -21.0986   74.8596   58.5088 C   0  0  0  0  0  0  0  0  0  0  0  0
  -21.5951   75.6573   59.6968 C   0  0  0  0  0  0  0  0  0  0  0  0
  -33.1122   65.0716   63.5440 C   0  0  0  0  0  0  0  0  0  0  0  0
  -34.0520   64.0283   64.0950 C   0  0  0  0  0  0  0  0  0  0  0  0
  -35.2217   63.7435   63.1616 C   0  0  0  0  0  0  0  0  0  0  0  0
  -36.0602   64.9795   62.8779 C   0  0  0  0  0  0  0  0  0  0  0  0
  -37.2456   64.7230   61.9623 C   0  0  0  0  0  0  0  0  0  0  0  0
  -38.0738   65.9642   61.6657 C   0  0  0  0  0  0  0  0  0  0  0  0
  -38.6623   66.6272   62.9046 C   0  0  0  0  0  0  0  0  0  0  0  0
  -39.5802   65.7192   63.7130 C   0  0  0  0  0  0  0  0  0  0  0  0
  -40.1915   66.3745   64.9489 C   0  0  0  0  0  0  0  0  0  0  0  0
  -41.0964   65.4488   65.7605 C   0  0  0  0  0  0  0  0  0  0  0  0
  -40.4020   64.2058   66.3165 C   0  0  0  0  0  0  0  0  0  0  0  0
  -41.3351   63.2903   67.1091 C   0  0  0  0  0  0  0  0  0  0  0  0
  -42.5137   62.7247   66.3168 C   0  0  0  0  0  0  0  0  0  0  0  0
  -42.1267   61.8604   65.1137 C   0  0  0  0  0  0  0  0  0  0  0  0
  -41.2933   62.6006   64.1078 C   0  0  0  0  0  0  0  0  0  0  0  0
  -41.6079   62.8141   62.8424 C   0  0  0  0  0  0  0  0  0  0  0  0
  -42.8620   62.3625   62.1572 C   0  0  0  0  0  0  0  0  0  0  0  0
  -42.9278   62.7498   60.6783 C   0  0  0  0  0  0  0  0  0  0  0  0
  -41.7993   62.1522   59.8486 C   0  0  0  0  0  0  0  0  0  0  0  0
  -41.8533   62.5507   58.3780 C   0  0  0  0  0  0  0  0  0  0  0  0
  -40.7440   61.9521   57.5206 C   0  0  0  0  0  0  0  0  0  0  0  0
  -40.8035   62.3740   56.0593 C   0  0  0  0  0  0  0  0  0  0  0  0
  -40.6749   63.8728   55.8385 C   0  0  0  0  0  0  0  0  0  0  0  0
  -40.7549   64.2621   54.3763 C   0  0  0  0  0  0  0  0  0  0  0  0
  -33.3156   69.0988   63.2783 C   0  0  2  0  0  0  0  0  0  0  0  0
  -34.7576   69.5657   63.4297 C   0  0  1  0  0  0  0  0  0  0  0  0
  -34.8089   70.8140   64.3015 C   0  0  2  0  0  0  0  0  0  0  0  0
  -34.0866   70.5888   65.6217 C   0  0  2  0  0  0  0  0  0  0  0  0
  -32.6741   70.0760   65.3523 C   0  0  1  0  0  0  0  0  0  0  0  0
  -31.9211   69.7182   66.6122 C   0  0  0  0  0  0  0  0  0  0  0  0
  -36.6672   72.2789   65.4347 S   0  0  0  0  0  0  0  0  0  0  0  0
  -33.5772   64.5058   61.6821 H   0  0  0  0  0  0  0  0  0  0  0  0
  -31.5648   67.1148   63.2609 H   0  0  0  0  0  0  0  0  0  0  0  0
  -31.4012   68.0473   61.8019 H   0  0  0  0  0  0  0  0  0  0  0  0
  -32.6374   66.3625   60.5752 H   0  0  0  0  0  0  0  0  0  0  0  0
  -30.8116   64.4280   62.8994 H   0  0  0  0  0  0  0  0  0  0  0  0
  -30.9971   64.5628   60.5757 H   0  0  0  0  0  0  0  0  0  0  0  0
  -30.3869   67.0273   59.7888 H   0  0  0  0  0  0  0  0  0  0  0  0
  -35.2768   69.0347   61.6046 H   0  0  0  0  0  0  0  0  0  0  0  0
  -28.1601   65.6775   61.1128 H   0  0  0  0  0  0  0  0  0  0  0  0
  -28.2879   68.1809   59.5014 H   0  0  0  0  0  0  0  0  0  0  0  0
  -27.5040   66.7913   58.7609 H   0  0  0  0  0  0  0  0  0  0  0  0
  -35.6873   69.9632   66.5891 H   0  0  0  0  0  0  0  0  0  0  0  0
  -25.9349   66.6761   60.6040 H   0  0  0  0  0  0  0  0  0  0  0  0
  -26.7426   68.0845   61.3395 H   0  0  0  0  0  0  0  0  0  0  0  0
  -26.0519   69.4627   59.5315 H   0  0  0  0  0  0  0  0  0  0  0  0
  -25.2579   68.0543   58.7798 H   0  0  0  0  0  0  0  0  0  0  0  0
  -32.0585   68.4665   68.1288 H   0  0  0  0  0  0  0  0  0  0  0  0
  -23.7090   67.9305   60.5760 H   0  0  0  0  0  0  0  0  0  0  0  0
  -24.5080   69.3231   61.3464 H   0  0  0  0  0  0  0  0  0  0  0  0
  -36.4928   71.4289   67.1978 H   0  0  0  0  0  0  0  0  0  0  0  0
  -22.4417   69.9643   60.2789 H   0  0  0  0  0  0  0  0  0  0  0  0
  -23.8723   70.7174   59.5379 H   0  0  0  0  0  0  0  0  0  0  0  0
  -23.7731   69.1797   57.7178 H   0  0  0  0  0  0  0  0  0  0  0  0
  -22.3531   68.4088   58.4624 H   0  0  0  0  0  0  0  0  0  0  0  0
  -34.9547   73.2575   64.7954 H   0  0  0  0  0  0  0  0  0  0  0  0
  -21.7242   69.8426   56.6314 H   0  0  0  0  0  0  0  0  0  0  0  0
  -21.1071   70.4064   58.2043 H   0  0  0  0  0  0  0  0  0  0  0  0
  -23.4428   71.5407   56.7559 H   0  0  0  0  0  0  0  0  0  0  0  0
  -21.8039   72.2292   56.8504 H   0  0  0  0  0  0  0  0  0  0  0  0
  -23.6391   71.8144   59.1578 H   0  0  0  0  0  0  0  0  0  0  0  0
  -23.3023   73.3490   58.3351 H   0  0  0  0  0  0  0  0  0  0  0  0
  -21.3074   71.6863   59.7922 H   0  0  0  0  0  0  0  0  0  0  0  0
  -22.0839   73.1861   60.3665 H   0  0  0  0  0  0  0  0  0  0  0  0
  -20.2695   72.9737   58.0202 H   0  0  0  0  0  0  0  0  0  0  0  0
  -19.8488   73.5883   59.6261 H   0  0  0  0  0  0  0  0  0  0  0  0
  -21.8966   74.7634   57.8024 H   0  0  0  0  0  0  0  0  0  0  0  0
  -20.2644   75.3835   58.0912 H   0  0  0  0  0  0  0  0  0  0  0  0
  -22.4321   75.1573   60.1376 H   0  0  0  0  0  0  0  0  0  0  0  0
  -21.8926   76.6326   59.3724 H   0  0  0  0  0  0  0  0  0  0  0  0
  -20.8112   75.7457   60.4198 H   0  0  0  0  0  0  0  0  0  0  0  0
  -34.4370   64.3740   65.0315 H   0  0  0  0  0  0  0  0  0  0  0  0
  -33.4981   63.1198   64.2077 H   0  0  0  0  0  0  0  0  0  0  0  0
  -35.8470   63.0017   63.6129 H   0  0  0  0  0  0  0  0  0  0  0  0
  -34.8173   63.4064   62.2300 H   0  0  0  0  0  0  0  0  0  0  0  0
  -35.4324   65.7141   62.4184 H   0  0  0  0  0  0  0  0  0  0  0  0
  -36.4575   65.3070   63.8158 H   0  0  0  0  0  0  0  0  0  0  0  0
  -37.8799   63.9976   62.4273 H   0  0  0  0  0  0  0  0  0  0  0  0
  -36.8494   64.3829   61.0283 H   0  0  0  0  0  0  0  0  0  0  0  0
  -38.8791   65.6847   61.0191 H   0  0  0  0  0  0  0  0  0  0  0  0
  -37.4136   66.6770   61.2174 H   0  0  0  0  0  0  0  0  0  0  0  0
  -39.2238   67.4834   62.5940 H   0  0  0  0  0  0  0  0  0  0  0  0
  -37.8404   66.8834   63.5400 H   0  0  0  0  0  0  0  0  0  0  0  0
  -39.0134   64.8693   64.0314 H   0  0  0  0  0  0  0  0  0  0  0  0
  -40.3960   65.4617   63.0704 H   0  0  0  0  0  0  0  0  0  0  0  0
  -40.7700   67.2169   64.6315 H   0  0  0  0  0  0  0  0  0  0  0  0
  -39.3782   66.6497   65.5874 H   0  0  0  0  0  0  0  0  0  0  0  0
  -41.8984   65.1284   65.1288 H   0  0  0  0  0  0  0  0  0  0  0  0
  -41.4279   66.0144   66.6061 H   0  0  0  0  0  0  0  0  0  0  0  0
  -39.6084   64.5210   66.9613 H   0  0  0  0  0  0  0  0  0  0  0  0
  -40.0449   63.6433   65.4793 H   0  0  0  0  0  0  0  0  0  0  0  0
  -41.7271   63.8492   67.9331 H   0  0  0  0  0  0  0  0  0  0  0  0
  -40.7451   62.4491   67.4079 H   0  0  0  0  0  0  0  0  0  0  0  0
  -43.0997   63.5462   65.9610 H   0  0  0  0  0  0  0  0  0  0  0  0
  -43.0461   62.0835   66.9878 H   0  0  0  0  0  0  0  0  0  0  0  0
  -43.0214   61.5227   64.6338 H   0  0  0  0  0  0  0  0  0  0  0  0
  -41.5394   61.0444   65.4798 H   0  0  0  0  0  0  0  0  0  0  0  0
  -40.3903   62.9778   64.4354 H   0  0  0  0  0  0  0  0  0  0  0  0
  -40.9269   63.3405   62.2731 H   0  0  0  0  0  0  0  0  0  0  0  0
  -43.6983   62.8022   62.6593 H   0  0  0  0  0  0  0  0  0  0  0  0
  -42.8753   61.2935   62.2017 H   0  0  0  0  0  0  0  0  0  0  0  0
  -42.8765   63.8160   60.6038 H   0  0  0  0  0  0  0  0  0  0  0  0
  -43.8465   62.3624   60.2898 H   0  0  0  0  0  0  0  0  0  0  0  0
  -41.8584   61.0858   59.9135 H   0  0  0  0  0  0  0  0  0  0  0  0
  -40.8805   62.5310   60.2452 H   0  0  0  0  0  0  0  0  0  0  0  0
  -41.7842   63.6167   58.3177 H   0  0  0  0  0  0  0  0  0  0  0  0
  -42.7757   62.1692   57.9926 H   0  0  0  0  0  0  0  0  0  0  0  0
  -40.8192   60.8858   57.5676 H   0  0  0  0  0  0  0  0  0  0  0  0
  -39.8166   62.3142   57.9127 H   0  0  0  0  0  0  0  0  0  0  0  0
  -41.7415   62.0545   55.6555 H   0  0  0  0  0  0  0  0  0  0  0  0
  -39.9665   61.9182   55.5729 H   0  0  0  0  0  0  0  0  0  0  0  0
  -39.7314   64.1954   56.2266 H   0  0  0  0  0  0  0  0  0  0  0  0
  -41.4940   64.3431   56.3414 H   0  0  0  0  0  0  0  0  0  0  0  0
  -39.9474   63.8074   53.8415 H   0  0  0  0  0  0  0  0  0  0  0  0
  -40.6879   65.3263   54.2864 H   0  0  0  0  0  0  0  0  0  0  0  0
  -41.6859   63.9277   53.9686 H   0  0  0  0  0  0  0  0  0  0  0  0
  -32.7377   69.8438   62.7723 H   0  0  0  0  0  0  0  0  0  0  0  0
  -35.3300   68.7932   63.8992 H   0  0  0  0  0  0  0  0  0  0  0  0
  -34.3360   71.6474   63.8253 H   0  0  0  0  0  0  0  0  0  0  0  0
  -34.0399   71.5181   66.1499 H   0  0  0  0  0  0  0  0  0  0  0  0
  -32.1619   70.8745   64.8573 H   0  0  0  0  0  0  0  0  0  0  0  0
  -30.9335   69.4016   66.3486 H   0  0  0  0  0  0  0  0  0  0  0  0
  -31.8897   70.5836   67.2407 H   0  0  0  0  0  0  0  0  0  0  0  0
  1  4  1  0  0  0  0
  1 31  1  0  0  0  0
  1 62  1  0  0  0  0
  2  3  1  0  0  0  0
  2  4  1  0  0  0  0
  2 63  1  0  0  0  0
  2 64  1  0  0  0  0
  3 55  1  0  0  0  0
  4  6  1  0  0  0  0
  4 65  1  6  0  0  0
  5  6  1  0  0  0  0
  5 66  1  0  0  0  0
  6  8  1  0  0  0  0
  6 67  1  6  0  0  0
  7 31  2  0  0  0  0
  8 10  2  0  0  0  0
  8 68  1  0  0  0  0
  9 56  1  0  0  0  0
  9 69  1  0  0  0  0
 10 12  1  0  0  0  0
 10 70  1  0  0  0  0
 11 57  1  0  0  0  0
 11 61  1  0  0  0  0
 12 14  1  0  0  0  0
 12 71  1  0  0  0  0
 12 72  1  0  0  0  0
 13 58  1  0  0  0  0
 13 73  1  0  0  0  0
 14 16  1  0  0  0  0
 14 74  1  0  0  0  0
 14 75  1  0  0  0  0
 15 55  1  0  0  0  0
 15 59  1  0  0  0  0
 16 18  1  0  0  0  0
 16 76  1  0  0  0  0
 16 77  1  0  0  0  0
 17 60  1  0  0  0  0
 17 78  1  0  0  0  0
 18 20  1  0  0  0  0
 18 79  1  0  0  0  0
 18 80  1  0  0  0  0
 19 61  1  0  0  0  0
 19 81  1  0  0  0  0
 20 22  1  0  0  0  0
 20 82  1  0  0  0  0
 20 83  1  0  0  0  0
 21 61  1  0  0  0  0
 22 24  1  0  0  0  0
 22 84  1  0  0  0  0
 22 85  1  0  0  0  0
 23 61  1  0  0  0  0
 23 86  1  0  0  0  0
 24 25  1  0  0  0  0
 24 87  1  0  0  0  0
 24 88  1  0  0  0  0
 25 26  1  0  0  0  0
 25 89  1  0  0  0  0
 25 90  1  0  0  0  0
 26 27  1  0  0  0  0
 26 91  1  0  0  0  0
 26 92  1  0  0  0  0
 27 28  1  0  0  0  0
 27 93  1  0  0  0  0
 27 94  1  0  0  0  0
 28 29  1  0  0  0  0
 28 95  1  0  0  0  0
 28 96  1  0  0  0  0
 29 30  1  0  0  0  0
 29 97  1  0  0  0  0
 29 98  1  0  0  0  0
 30 99  1  0  0  0  0
 30100  1  0  0  0  0
 30101  1  0  0  0  0
 31 32  1  0  0  0  0
 32 33  1  0  0  0  0
 32102  1  0  0  0  0
 32103  1  0  0  0  0
 33 34  1  0  0  0  0
 33104  1  0  0  0  0
 33105  1  0  0  0  0
 34 35  1  0  0  0  0
 34106  1  0  0  0  0
 34107  1  0  0  0  0
 35 36  1  0  0  0  0
 35108  1  0  0  0  0
 35109  1  0  0  0  0
 36 37  1  0  0  0  0
 36110  1  0  0  0  0
 36111  1  0  0  0  0
 37 38  1  0  0  0  0
 37112  1  0  0  0  0
 37113  1  0  0  0  0
 38 39  1  0  0  0  0
 38114  1  0  0  0  0
 38115  1  0  0  0  0
 39 40  1  0  0  0  0
 39116  1  0  0  0  0
 39117  1  0  0  0  0
 40 41  1  0  0  0  0
 40118  1  0  0  0  0
 40119  1  0  0  0  0
 41 42  1  0  0  0  0
 41120  1  0  0  0  0
 41121  1  0  0  0  0
 42 43  1  0  0  0  0
 42122  1  0  0  0  0
 42123  1  0  0  0  0
 43 44  1  0  0  0  0
 43124  1  0  0  0  0
 43125  1  0  0  0  0
 44 45  1  0  0  0  0
 44126  1  0  0  0  0
 44127  1  0  0  0  0
 45 46  2  0  0  0  0
 45128  1  0  0  0  0
 46 47  1  0  0  0  0
 46129  1  0  0  0  0
 47 48  1  0  0  0  0
 47130  1  0  0  0  0
 47131  1  0  0  0  0
 48 49  1  0  0  0  0
 48132  1  0  0  0  0
 48133  1  0  0  0  0
 49 50  1  0  0  0  0
 49134  1  0  0  0  0
 49135  1  0  0  0  0
 50 51  1  0  0  0  0
 50136  1  0  0  0  0
 50137  1  0  0  0  0
 51 52  1  0  0  0  0
 51138  1  0  0  0  0
 51139  1  0  0  0  0
 52 53  1  0  0  0  0
 52140  1  0  0  0  0
 52141  1  0  0  0  0
 53 54  1  0  0  0  0
 53142  1  0  0  0  0
 53143  1  0  0  0  0
 54144  1  0  0  0  0
 54145  1  0  0  0  0
 54146  1  0  0  0  0
 55 56  1  0  0  0  0
 55147  1  6  0  0  0
 56 57  1  0  0  0  0
 56148  1  1  0  0  0
 57 58  1  0  0  0  0
 57149  1  6  0  0  0
 58 59  1  0  0  0  0
 58150  1  1  0  0  0
 59 60  1  0  0  0  0
 59151  1  6  0  0  0
 60152  1  0  0  0  0
 60153  1  0  0  0  0
M  CHG  1  21  -1
M  END
$$$$