/media/chris/experiments/cd1a-new-docking/inputs/ligands/7ryn_ligand.pdb
 OpenBabel07032312553D

153153  0  0  1  0  0  0  0  0999 V2000
  -33.0340   65.1330   62.2120 N   0  0  0  0  0  0  0  0  0  0  0  0
  -32.0220   67.3480   62.3220 C   0  0  0  0  0  0  0  0  0  0  0  0
  -31.1969   68.2589   61.5870 O   0  0  0  0  0  0  0  0  0  0  0  0
  -32.1830   66.0840   61.5030 C   0  0  1  0  0  0  0  0  0  0  0  0
  -30.2154   65.0225   62.4176 O   0  0  0  0  0  0  0  0  0  0  0  0
  -30.8310   65.4230   61.1900 C   0  0  2  0  0  0  0  0  0  0  0  0
  -33.8904   64.1653   60.3686 O   0  0  0  0  0  0  0  0  0  0  0  0
  -29.9369   66.3439   60.4177 C   0  0  0  0  0  0  0  0  0  0  0  0
  -32.9308   70.4319   61.2513 O   0  0  0  0  0  0  0  0  0  0  0  0
  -29.4494   66.0973   59.2179 C   0  0  0  0  0  0  0  0  0  0  0  0
  -33.4310   71.8685   63.6467 O   0  0  0  0  0  0  0  0  0  0  0  0
  -28.5714   67.0436   58.4666 C   0  0  0  0  0  0  0  0  0  0  0  0
  -32.0199   70.3807   65.4572 O   0  0  0  0  0  0  0  0  0  0  0  0
  -29.4001   67.9862   57.5915 C   0  0  0  0  0  0  0  0  0  0  0  0
  -30.2839   69.2401   63.4665 O   0  0  0  0  0  0  0  0  0  0  0  0
  -30.3745   68.8593   58.3654 C   0  0  0  0  0  0  0  0  0  0  0  0
  -29.8754   69.1472   66.2254 O   0  0  0  0  0  0  0  0  0  0  0  0
  -31.2103   69.7840   57.4969 C   0  0  0  0  0  0  0  0  0  0  0  0
  -34.9849   73.3767   64.7040 O   0  0  0  0  0  0  0  0  0  0  0  0
  -32.1714   70.6669   58.2796 C   0  0  0  0  0  0  0  0  0  0  0  0
  -32.7374   74.1926   63.9306 O   0  5  0  0  0  0  0  0  0  0  0  0
  -31.4809   71.5996   59.2628 C   0  0  0  0  0  0  0  0  0  0  0  0
  -32.9709   72.7578   65.8076 O   0  0  0  0  0  0  0  0  0  0  0  0
  -32.4393   72.4696   60.0570 C   0  0  0  0  0  0  0  0  0  0  0  0
  -31.7563   73.4147   61.0279 C   0  0  0  0  0  0  0  0  0  0  0  0
  -32.7186   74.2713   61.8328 C   0  0  0  0  0  0  0  0  0  0  0  0
  -33.6053   75.1439   60.9640 C   0  0  0  0  0  0  0  0  0  0  0  0
  -34.5673   76.0253   61.7373 C   0  0  0  0  0  0  0  0  0  0  0  0
  -35.4442   76.8663   60.8304 C   0  0  0  0  0  0  0  0  0  0  0  0
  -34.6394   77.7821   59.9314 C   0  0  0  0  0  0  0  0  0  0  0  0
  -33.8200   64.2493   61.5913 C   0  0  0  0  0  0  0  0  0  0  0  0
  -34.6214   63.3431   62.4924 C   0  0  0  0  0  0  0  0  0  0  0  0
  -33.8835   62.0543   62.8317 C   0  0  0  0  0  0  0  0  0  0  0  0
  -34.6957   61.1314   63.7260 C   0  0  0  0  0  0  0  0  0  0  0  0
  -33.9785   59.8438   64.0959 C   0  0  0  0  0  0  0  0  0  0  0  0
  -34.7991   58.9137   64.9769 C   0  0  0  0  0  0  0  0  0  0  0  0
  -36.1008   58.4447   64.3396 C   0  0  0  0  0  0  0  0  0  0  0  0
  -36.9284   57.5272   65.2305 C   0  0  0  0  0  0  0  0  0  0  0  0
  -36.2163   56.2456   65.6556 C   0  0  0  0  0  0  0  0  0  0  0  0
  -37.0625   55.3260   66.5347 C   0  0  0  0  0  0  0  0  0  0  0  0
  -36.3569   54.0462   66.9826 C   0  0  0  0  0  0  0  0  0  0  0  0
  -35.8930   53.1680   65.8203 C   0  0  0  0  0  0  0  0  0  0  0  0
  -34.8886   53.8248   64.8735 C   0  0  0  0  0  0  0  0  0  0  0  0
  -33.5715   54.2527   65.5263 C   0  0  0  0  0  0  0  0  0  0  0  0
  -32.8155   53.1013   66.1238 C   0  0  0  0  0  0  0  0  0  0  0  0
  -32.3577   52.0479   65.4708 C   0  0  0  0  0  0  0  0  0  0  0  0
  -32.4984   51.7919   64.0009 C   0  0  0  0  0  0  0  0  0  0  0  0
  -31.8748   50.4712   63.5446 C   0  0  0  0  0  0  0  0  0  0  0  0
  -32.4966   49.2503   64.2092 C   0  0  0  0  0  0  0  0  0  0  0  0
  -32.3797   49.2636   65.7292 C   0  0  0  0  0  0  0  0  0  0  0  0
  -32.9795   48.0439   66.4193 C   0  0  0  0  0  0  0  0  0  0  0  0
  -32.8690   48.0821   67.9370 C   0  0  0  0  0  0  0  0  0  0  0  0
  -31.4423   48.1707   68.4550 C   0  0  0  0  0  0  0  0  0  0  0  0
  -31.3648   48.1898   69.9681 C   0  0  0  0  0  0  0  0  0  0  0  0
  -30.9530   69.4703   62.2406 C   0  0  2  0  0  0  0  0  0  0  0  0
  -32.2933   70.1495   62.4906 C   0  0  1  0  0  0  0  0  0  0  0  0
  -32.0829   71.4352   63.2803 C   0  0  2  0  0  0  0  0  0  0  0  0
  -31.2728   71.1754   64.5419 C   0  0  2  0  0  0  0  0  0  0  0  0
  -29.9796   70.4491   64.1802 C   0  0  1  0  0  0  0  0  0  0  0  0
  -29.1637   70.0508   65.3877 C   0  0  0  0  0  0  0  0  0  0  0  0
  -33.5968   73.2117   64.4786 S   0  0  0  0  0  0  0  0  0  0  0  0
  -33.0282   65.1436   63.1964 H   0  0  0  0  0  0  0  0  0  0  0  0
  -32.9806   67.7896   62.4978 H   0  0  0  0  0  0  0  0  0  0  0  0
  -31.5704   67.1208   63.2650 H   0  0  0  0  0  0  0  0  0  0  0  0
  -32.6374   66.3625   60.5752 H   0  0  0  0  0  0  0  0  0  0  0  0
  -30.8116   64.4280   62.8994 H   0  0  0  0  0  0  0  0  0  0  0  0
  -30.9971   64.5628   60.5757 H   0  0  0  0  0  0  0  0  0  0  0  0
  -29.6826   67.2413   60.8593 H   0  0  0  0  0  0  0  0  0  0  0  0
  -33.0591   69.6065   60.7582 H   0  0  0  0  0  0  0  0  0  0  0  0
  -29.6884   65.1980   58.7717 H   0  0  0  0  0  0  0  0  0  0  0  0
  -27.9058   66.4832   57.8438 H   0  0  0  0  0  0  0  0  0  0  0  0
  -28.0213   67.6303   59.1723 H   0  0  0  0  0  0  0  0  0  0  0  0
  -32.8421   70.8405   65.6883 H   0  0  0  0  0  0  0  0  0  0  0  0
  -29.9587   67.3947   56.8965 H   0  0  0  0  0  0  0  0  0  0  0  0
  -28.7091   68.6474   57.1117 H   0  0  0  0  0  0  0  0  0  0  0  0
  -29.8146   69.4595   59.0518 H   0  0  0  0  0  0  0  0  0  0  0  0
  -31.0580   68.1969   58.8543 H   0  0  0  0  0  0  0  0  0  0  0  0
  -29.3250   68.9123   66.9889 H   0  0  0  0  0  0  0  0  0  0  0  0
  -31.7808   69.1843   56.8188 H   0  0  0  0  0  0  0  0  0  0  0  0
  -30.5282   70.4378   56.9949 H   0  0  0  0  0  0  0  0  0  0  0  0
  -35.4139   73.6640   63.8828 H   0  0  0  0  0  0  0  0  0  0  0  0
  -32.8413   70.0362   58.8257 H   0  0  0  0  0  0  0  0  0  0  0  0
  -32.6801   71.2833   57.5681 H   0  0  0  0  0  0  0  0  0  0  0  0
  -30.8201   72.2384   58.7150 H   0  0  0  0  0  0  0  0  0  0  0  0
  -30.9629   70.9826   59.9670 H   0  0  0  0  0  0  0  0  0  0  0  0
  -33.5340   72.0818   66.2160 H   0  0  0  0  0  0  0  0  0  0  0  0
  -33.0919   71.8297   60.6134 H   0  0  0  0  0  0  0  0  0  0  0  0
  -32.9628   73.0783   59.3496 H   0  0  0  0  0  0  0  0  0  0  0  0
  -31.1131   74.0633   60.4707 H   0  0  0  0  0  0  0  0  0  0  0  0
  -31.2211   72.8076   61.7278 H   0  0  0  0  0  0  0  0  0  0  0  0
  -32.1504   74.9033   62.4829 H   0  0  0  0  0  0  0  0  0  0  0  0
  -33.3577   73.6085   62.3778 H   0  0  0  0  0  0  0  0  0  0  0  0
  -34.1772   74.5063   60.3227 H   0  0  0  0  0  0  0  0  0  0  0  0
  -32.9543   75.8009   60.4259 H   0  0  0  0  0  0  0  0  0  0  0  0
  -34.0019   76.6781   62.3690 H   0  0  0  0  0  0  0  0  0  0  0  0
  -35.2088   75.3846   62.3055 H   0  0  0  0  0  0  0  0  0  0  0  0
  -36.0919   77.4638   61.4373 H   0  0  0  0  0  0  0  0  0  0  0  0
  -35.9973   76.1990   60.2030 H   0  0  0  0  0  0  0  0  0  0  0  0
  -34.0734   78.4637   60.5314 H   0  0  0  0  0  0  0  0  0  0  0  0
  -35.3027   78.3317   59.2967 H   0  0  0  0  0  0  0  0  0  0  0  0
  -33.9738   77.1978   59.3311 H   0  0  0  0  0  0  0  0  0  0  0  0
  -35.5383   63.0939   62.0003 H   0  0  0  0  0  0  0  0  0  0  0  0
  -34.7957   63.8680   63.4084 H   0  0  0  0  0  0  0  0  0  0  0  0
  -32.9725   62.3037   63.3345 H   0  0  0  0  0  0  0  0  0  0  0  0
  -33.6997   61.5358   61.9140 H   0  0  0  0  0  0  0  0  0  0  0  0
  -35.6009   60.8779   63.2148 H   0  0  0  0  0  0  0  0  0  0  0  0
  -34.8736   61.6609   64.6386 H   0  0  0  0  0  0  0  0  0  0  0  0
  -33.0795   60.0967   64.6182 H   0  0  0  0  0  0  0  0  0  0  0  0
  -33.7887   59.3199   63.1824 H   0  0  0  0  0  0  0  0  0  0  0  0
  -35.0355   59.4306   65.8834 H   0  0  0  0  0  0  0  0  0  0  0  0
  -34.2039   58.0403   65.1437 H   0  0  0  0  0  0  0  0  0  0  0  0
  -35.8642   57.9166   63.4395 H   0  0  0  0  0  0  0  0  0  0  0  0
  -36.6913   59.3186   64.1598 H   0  0  0  0  0  0  0  0  0  0  0  0
  -37.8156   57.2554   64.6977 H   0  0  0  0  0  0  0  0  0  0  0  0
  -37.1298   58.0749   66.1273 H   0  0  0  0  0  0  0  0  0  0  0  0
  -35.3357   56.5150   66.2005 H   0  0  0  0  0  0  0  0  0  0  0  0
  -35.9971   55.7020   64.7604 H   0  0  0  0  0  0  0  0  0  0  0  0
  -37.9369   55.0495   65.9835 H   0  0  0  0  0  0  0  0  0  0  0  0
  -37.2837   55.8772   67.4247 H   0  0  0  0  0  0  0  0  0  0  0  0
  -37.0344   53.4793   67.5863 H   0  0  0  0  0  0  0  0  0  0  0  0
  -35.4820   54.3414   67.5232 H   0  0  0  0  0  0  0  0  0  0  0  0
  -36.7546   52.8908   65.2496 H   0  0  0  0  0  0  0  0  0  0  0  0
  -35.3874   52.3337   66.2599 H   0  0  0  0  0  0  0  0  0  0  0  0
  -35.3485   54.6942   64.4522 H   0  0  0  0  0  0  0  0  0  0  0  0
  -34.6351   53.0839   64.1443 H   0  0  0  0  0  0  0  0  0  0  0  0
  -33.7876   54.9584   66.3010 H   0  0  0  0  0  0  0  0  0  0  0  0
  -32.9567   54.6783   64.7609 H   0  0  0  0  0  0  0  0  0  0  0  0
  -32.6369   53.1360   67.1397 H   0  0  0  0  0  0  0  0  0  0  0  0
  -31.8567   51.3353   66.0243 H   0  0  0  0  0  0  0  0  0  0  0  0
  -32.0227   52.5910   63.4717 H   0  0  0  0  0  0  0  0  0  0  0  0
  -33.5463   51.7316   63.7927 H   0  0  0  0  0  0  0  0  0  0  0  0
  -30.8307   50.4901   63.7779 H   0  0  0  0  0  0  0  0  0  0  0  0
  -32.0512   50.3840   62.4928 H   0  0  0  0  0  0  0  0  0  0  0  0
  -32.0050   48.3750   63.8388 H   0  0  0  0  0  0  0  0  0  0  0  0
  -33.5401   49.2585   63.9724 H   0  0  0  0  0  0  0  0  0  0  0  0
  -32.8809   50.1352   66.0955 H   0  0  0  0  0  0  0  0  0  0  0  0
  -31.3337   49.2574   65.9544 H   0  0  0  0  0  0  0  0  0  0  0  0
  -32.4707   47.1716   66.0656 H   0  0  0  0  0  0  0  0  0  0  0  0
  -34.0229   48.0327   66.1823 H   0  0  0  0  0  0  0  0  0  0  0  0
  -33.3136   47.1911   68.3285 H   0  0  0  0  0  0  0  0  0  0  0  0
  -33.3695   48.9710   68.2598 H   0  0  0  0  0  0  0  0  0  0  0  0
  -30.9976   49.0684   68.0789 H   0  0  0  0  0  0  0  0  0  0  0  0
  -30.9233   47.2979   68.1178 H   0  0  0  0  0  0  0  0  0  0  0  0
  -31.8758   49.0530   70.3405 H   0  0  0  0  0  0  0  0  0  0  0  0
  -30.3395   48.2234   70.2724 H   0  0  0  0  0  0  0  0  0  0  0  0
  -31.8244   47.3066   70.3600 H   0  0  0  0  0  0  0  0  0  0  0  0
  -30.3291   70.0960   61.6371 H   0  0  0  0  0  0  0  0  0  0  0  0
  -32.9193   69.4938   63.0591 H   0  0  0  0  0  0  0  0  0  0  0  0
  -31.5471   72.1651   62.7102 H   0  0  0  0  0  0  0  0  0  0  0  0
  -31.0444   72.1140   65.0021 H   0  0  0  0  0  0  0  0  0  0  0  0
  -29.4118   71.1378   63.5901 H   0  0  0  0  0  0  0  0  0  0  0  0
  -28.2611   69.5805   65.0573 H   0  0  0  0  0  0  0  0  0  0  0  0
  -28.9495   70.9336   65.9532 H   0  0  0  0  0  0  0  0  0  0  0  0
  1  4  1  0  0  0  0
  1 31  1  0  0  0  0
  1 62  1  0  0  0  0
  2  3  1  0  0  0  0
  2  4  1  0  0  0  0
  2 63  1  0  0  0  0
  2 64  1  0  0  0  0
  3 55  1  0  0  0  0
  4  6  1  0  0  0  0
  4 65  1  6  0  0  0
  5  6  1  0  0  0  0
  5 66  1  0  0  0  0
  6  8  1  0  0  0  0
  6 67  1  6  0  0  0
  7 31  2  0  0  0  0
  8 10  2  0  0  0  0
  8 68  1  0  0  0  0
  9 56  1  0  0  0  0
  9 69  1  0  0  0  0
 10 12  1  0  0  0  0
 10 70  1  0  0  0  0
 11 57  1  0  0  0  0
 11 61  1  0  0  0  0
 12 14  1  0  0  0  0
 12 71  1  0  0  0  0
 12 72  1  0  0  0  0
 13 58  1  0  0  0  0
 13 73  1  0  0  0  0
 14 16  1  0  0  0  0
 14 74  1  0  0  0  0
 14 75  1  0  0  0  0
 15 55  1  0  0  0  0
 15 59  1  0  0  0  0
 16 18  1  0  0  0  0
 16 76  1  0  0  0  0
 16 77  1  0  0  0  0
 17 60  1  0  0  0  0
 17 78  1  0  0  0  0
 18 20  1  0  0  0  0
 18 79  1  0  0  0  0
 18 80  1  0  0  0  0
 19 61  1  0  0  0  0
 19 81  1  0  0  0  0
 20 22  1  0  0  0  0
 20 82  1  0  0  0  0
 20 83  1  0  0  0  0
 21 61  1  0  0  0  0
 22 24  1  0  0  0  0
 22 84  1  0  0  0  0
 22 85  1  0  0  0  0
 23 61  1  0  0  0  0
 23 86  1  0  0  0  0
 24 25  1  0  0  0  0
 24 87  1  0  0  0  0
 24 88  1  0  0  0  0
 25 26  1  0  0  0  0
 25 89  1  0  0  0  0
 25 90  1  0  0  0  0
 26 27  1  0  0  0  0
 26 91  1  0  0  0  0
 26 92  1  0  0  0  0
 27 28  1  0  0  0  0
 27 93  1  0  0  0  0
 27 94  1  0  0  0  0
 28 29  1  0  0  0  0
 28 95  1  0  0  0  0
 28 96  1  0  0  0  0
 29 30  1  0  0  0  0
 29 97  1  0  0  0  0
 29 98  1  0  0  0  0
 30 99  1  0  0  0  0
 30100  1  0  0  0  0
 30101  1  0  0  0  0
 31 32  1  0  0  0  0
 32 33  1  0  0  0  0
 32102  1  0  0  0  0
 32103  1  0  0  0  0
 33 34  1  0  0  0  0
 33104  1  0  0  0  0
 33105  1  0  0  0  0
 34 35  1  0  0  0  0
 34106  1  0  0  0  0
 34107  1  0  0  0  0
 35 36  1  0  0  0  0
 35108  1  0  0  0  0
 35109  1  0  0  0  0
 36 37  1  0  0  0  0
 36110  1  0  0  0  0
 36111  1  0  0  0  0
 37 38  1  0  0  0  0
 37112  1  0  0  0  0
 37113  1  0  0  0  0
 38 39  1  0  0  0  0
 38114  1  0  0  0  0
 38115  1  0  0  0  0
 39 40  1  0  0  0  0
 39116  1  0  0  0  0
 39117  1  0  0  0  0
 40 41  1  0  0  0  0
 40118  1  0  0  0  0
 40119  1  0  0  0  0
 41 42  1  0  0  0  0
 41120  1  0  0  0  0
 41121  1  0  0  0  0
 42 43  1  0  0  0  0
 42122  1  0  0  0  0
 42123  1  0  0  0  0
 43 44  1  0  0  0  0
 43124  1  0  0  0  0
 43125  1  0  0  0  0
 44 45  1  0  0  0  0
 44126  1  0  0  0  0
 44127  1  0  0  0  0
 45 46  2  0  0  0  0
 45128  1  0  0  0  0
 46 47  1  0  0  0  0
 46129  1  0  0  0  0
 47 48  1  0  0  0  0
 47130  1  0  0  0  0
 47131  1  0  0  0  0
 48 49  1  0  0  0  0
 48132  1  0  0  0  0
 48133  1  0  0  0  0
 49 50  1  0  0  0  0
 49134  1  0  0  0  0
 49135  1  0  0  0  0
 50 51  1  0  0  0  0
 50136  1  0  0  0  0
 50137  1  0  0  0  0
 51 52  1  0  0  0  0
 51138  1  0  0  0  0
 51139  1  0  0  0  0
 52 53  1  0  0  0  0
 52140  1  0  0  0  0
 52141  1  0  0  0  0
 53 54  1  0  0  0  0
 53142  1  0  0  0  0
 53143  1  0  0  0  0
 54144  1  0  0  0  0
 54145  1  0  0  0  0
 54146  1  0  0  0  0
 55 56  1  0  0  0  0
 55147  1  6  0  0  0
 56 57  1  0  0  0  0
 56148  1  1  0  0  0
 57 58  1  0  0  0  0
 57149  1  6  0  0  0
 58 59  1  0  0  0  0
 58150  1  1  0  0  0
 59 60  1  0  0  0  0
 59151  1  6  0  0  0
 60152  1  0  0  0  0
 60153  1  0  0  0  0
M  CHG  1  21  -1
M  END
$$$$