/media/chris/experiments/cd1a-new-docking/inputs/ligands/7ryn_ligand.pdb
 OpenBabel07032312553D

153153  0  0  1  0  0  0  0  0999 V2000
  -33.0340   65.1330   62.2120 N   0  0  0  0  0  0  0  0  0  0  0  0
  -32.0220   67.3480   62.3220 C   0  0  0  0  0  0  0  0  0  0  0  0
  -31.4051   67.0024   63.5673 O   0  0  0  0  0  0  0  0  0  0  0  0
  -32.1830   66.0840   61.5030 C   0  0  1  0  0  0  0  0  0  0  0  0
  -31.0548   64.2805   60.3587 O   0  0  0  0  0  0  0  0  0  0  0  0
  -30.8310   65.4230   61.1900 C   0  0  2  0  0  0  0  0  0  0  0  0
  -34.8544   66.4555   62.2834 O   0  0  0  0  0  0  0  0  0  0  0  0
  -30.1054   65.0399   62.4433 C   0  0  0  0  0  0  0  0  0  0  0  0
  -31.4046   66.6220   66.3415 O   0  0  0  0  0  0  0  0  0  0  0  0
  -30.5529   64.1934   63.3496 C   0  0  0  0  0  0  0  0  0  0  0  0
  -29.4155   68.1261   67.6954 O   0  0  0  0  0  0  0  0  0  0  0  0
  -29.7980   63.8201   64.5831 C   0  0  0  0  0  0  0  0  0  0  0  0
  -28.1411   69.3260   65.5933 O   0  0  0  0  0  0  0  0  0  0  0  0
  -28.2880   63.9001   64.3495 C   0  0  0  0  0  0  0  0  0  0  0  0
  -30.3909   69.0606   63.8198 O   0  0  0  0  0  0  0  0  0  0  0  0
  -27.7809   62.9967   63.2371 C   0  0  0  0  0  0  0  0  0  0  0  0
  -29.1056   72.3918   64.5510 O   0  0  0  0  0  0  0  0  0  0  0  0
  -26.2795   63.0621   63.0149 C   0  0  0  0  0  0  0  0  0  0  0  0
  -29.0352   66.5764   69.5011 O   0  0  0  0  0  0  0  0  0  0  0  0
  -25.7667   64.4498   62.6583 C   0  0  0  0  0  0  0  0  0  0  0  0
  -30.6879   66.0419   67.6849 O   0  5  0  0  0  0  0  0  0  0  0  0
  -24.2654   64.5037   62.4207 C   0  0  0  0  0  0  0  0  0  0  0  0
  -31.1144   67.7162   69.3133 O   0  0  0  0  0  0  0  0  0  0  0  0
  -23.4404   64.0629   63.6170 C   0  0  0  0  0  0  0  0  0  0  0  0
  -23.6966   62.6317   64.0511 C   0  0  0  0  0  0  0  0  0  0  0  0
  -23.3806   61.5988   62.9830 C   0  0  0  0  0  0  0  0  0  0  0  0
  -24.1861   61.7938   61.7120 C   0  0  0  0  0  0  0  0  0  0  0  0
  -23.9070   60.7682   60.6301 C   0  0  0  0  0  0  0  0  0  0  0  0
  -24.7199   61.0110   59.3736 C   0  0  0  0  0  0  0  0  0  0  0  0
  -26.2120   60.9777   59.6322 C   0  0  0  0  0  0  0  0  0  0  0  0
  -34.3010   65.3918   62.5466 C   0  0  0  0  0  0  0  0  0  0  0  0
  -35.0243   64.2831   63.2697 C   0  0  0  0  0  0  0  0  0  0  0  0
  -36.4662   64.6449   63.6022 C   0  0  0  0  0  0  0  0  0  0  0  0
  -37.1926   63.5358   64.3462 C   0  0  0  0  0  0  0  0  0  0  0  0
  -37.2575   62.2226   63.5842 C   0  0  0  0  0  0  0  0  0  0  0  0
  -37.9994   61.1187   64.3228 C   0  0  0  0  0  0  0  0  0  0  0  0
  -37.3968   60.7654   65.6766 C   0  0  0  0  0  0  0  0  0  0  0  0
  -37.3766   61.9247   66.6644 C   0  0  0  0  0  0  0  0  0  0  0  0
  -38.7535   62.4843   67.0130 C   0  0  0  0  0  0  0  0  0  0  0  0
  -38.7188   63.6575   67.9912 C   0  0  0  0  0  0  0  0  0  0  0  0
  -40.0914   64.2178   68.3630 C   0  0  0  0  0  0  0  0  0  0  0  0
  -40.0248   65.4008   69.3292 C   0  0  0  0  0  0  0  0  0  0  0  0
  -39.2633   66.6196   68.8085 C   0  0  0  0  0  0  0  0  0  0  0  0
  -39.8422   67.2475   67.5378 C   0  0  0  0  0  0  0  0  0  0  0  0
  -39.8902   66.2889   66.3832 C   0  0  0  0  0  0  0  0  0  0  0  0
  -40.7757   66.2952   65.4025 C   0  0  0  0  0  0  0  0  0  0  0  0
  -41.9090   67.2629   65.2439 C   0  0  0  0  0  0  0  0  0  0  0  0
  -41.5465   68.5056   64.4280 C   0  0  0  0  0  0  0  0  0  0  0  0
  -40.4004   69.3079   65.0298 C   0  0  0  0  0  0  0  0  0  0  0  0
  -40.0489   70.5557   64.2276 C   0  0  0  0  0  0  0  0  0  0  0  0
  -39.6328   70.2833   62.7866 C   0  0  0  0  0  0  0  0  0  0  0  0
  -39.2692   71.5384   62.0059 C   0  0  0  0  0  0  0  0  0  0  0  0
  -40.3924   72.5587   61.9096 C   0  0  0  0  0  0  0  0  0  0  0  0
  -40.0052   73.7880   61.1128 C   0  0  0  0  0  0  0  0  0  0  0  0
  -31.2104   68.0828   64.4327 C   0  0  2  0  0  0  0  0  0  0  0  0
  -30.5480   67.5584   65.7001 C   0  0  1  0  0  0  0  0  0  0  0  0
  -30.2364   68.7171   66.6389 C   0  0  2  0  0  0  0  0  0  0  0  0
  -29.4420   69.8007   65.9249 C   0  0  2  0  0  0  0  0  0  0  0  0
  -30.1703   70.2134   64.6482 C   0  0  1  0  0  0  0  0  0  0  0  0
  -29.3950   71.2080   63.8163 C   0  0  0  0  0  0  0  0  0  0  0  0
  -30.0256   66.9384   68.5560 S   0  0  0  0  0  0  0  0  0  0  0  0
  -32.6553   64.2575   62.4556 H   0  0  0  0  0  0  0  0  0  0  0  0
  -31.4053   68.0450   61.7940 H   0  0  0  0  0  0  0  0  0  0  0  0
  -32.9770   67.7979   62.4965 H   0  0  0  0  0  0  0  0  0  0  0  0
  -32.6374   66.3625   60.5752 H   0  0  0  0  0  0  0  0  0  0  0  0
  -31.5249   64.5525   59.5551 H   0  0  0  0  0  0  0  0  0  0  0  0
  -30.2105   66.1253   60.6735 H   0  0  0  0  0  0  0  0  0  0  0  0
  -29.1834   65.4723   62.6104 H   0  0  0  0  0  0  0  0  0  0  0  0
  -31.5955   65.8899   65.7345 H   0  0  0  0  0  0  0  0  0  0  0  0
  -31.4788   63.7637   63.1978 H   0  0  0  0  0  0  0  0  0  0  0  0
  -30.0561   62.8198   64.8615 H   0  0  0  0  0  0  0  0  0  0  0  0
  -30.0585   64.5061   65.3619 H   0  0  0  0  0  0  0  0  0  0  0  0
  -27.6765   69.0633   66.4032 H   0  0  0  0  0  0  0  0  0  0  0  0
  -27.7930   63.6249   65.2573 H   0  0  0  0  0  0  0  0  0  0  0  0
  -28.0760   64.9053   64.0500 H   0  0  0  0  0  0  0  0  0  0  0  0
  -28.2671   63.2803   62.3271 H   0  0  0  0  0  0  0  0  0  0  0  0
  -28.0037   61.9926   63.5320 H   0  0  0  0  0  0  0  0  0  0  0  0
  -28.6087   73.0074   63.9896 H   0  0  0  0  0  0  0  0  0  0  0  0
  -26.0281   62.3952   62.2168 H   0  0  0  0  0  0  0  0  0  0  0  0
  -25.8173   62.7896   63.9406 H   0  0  0  0  0  0  0  0  0  0  0  0
  -28.3292   66.0818   69.0563 H   0  0  0  0  0  0  0  0  0  0  0  0
  -26.0058   65.1151   63.4615 H   0  0  0  0  0  0  0  0  0  0  0  0
  -26.2391   64.7318   61.7406 H   0  0  0  0  0  0  0  0  0  0  0  0
  -23.9979   65.5112   62.1790 H   0  0  0  0  0  0  0  0  0  0  0  0
  -24.0506   63.8214   61.6250 H   0  0  0  0  0  0  0  0  0  0  0  0
  -30.6977   68.3443   69.9238 H   0  0  0  0  0  0  0  0  0  0  0  0
  -23.6676   64.7093   64.4389 H   0  0  0  0  0  0  0  0  0  0  0  0
  -22.4135   64.1171   63.3213 H   0  0  0  0  0  0  0  0  0  0  0  0
  -24.7296   62.5392   64.3141 H   0  0  0  0  0  0  0  0  0  0  0  0
  -23.0436   62.4356   64.8757 H   0  0  0  0  0  0  0  0  0  0  0  0
  -23.5935   60.6264   63.3756 H   0  0  0  0  0  0  0  0  0  0  0  0
  -22.3475   61.7091   62.7271 H   0  0  0  0  0  0  0  0  0  0  0  0
  -23.9624   62.7637   61.3195 H   0  0  0  0  0  0  0  0  0  0  0  0
  -25.2153   61.6805   61.9821 H   0  0  0  0  0  0  0  0  0  0  0  0
  -24.1445   59.7964   61.0095 H   0  0  0  0  0  0  0  0  0  0  0  0
  -22.8727   60.8472   60.3675 H   0  0  0  0  0  0  0  0  0  0  0  0
  -24.4789   60.2535   58.6573 H   0  0  0  0  0  0  0  0  0  0  0  0
  -24.4745   61.9875   59.0114 H   0  0  0  0  0  0  0  0  0  0  0  0
  -26.4893   60.0107   59.9966 H   0  0  0  0  0  0  0  0  0  0  0  0
  -26.7364   61.1796   58.7217 H   0  0  0  0  0  0  0  0  0  0  0  0
  -26.4643   61.7194   60.3611 H   0  0  0  0  0  0  0  0  0  0  0  0
  -34.5048   64.0721   64.1810 H   0  0  0  0  0  0  0  0  0  0  0  0
  -35.0445   63.4320   62.6214 H   0  0  0  0  0  0  0  0  0  0  0  0
  -36.9883   64.8440   62.6897 H   0  0  0  0  0  0  0  0  0  0  0  0
  -36.4451   65.5028   64.2412 H   0  0  0  0  0  0  0  0  0  0  0  0
  -38.1928   63.8610   64.5427 H   0  0  0  0  0  0  0  0  0  0  0  0
  -36.6380   63.3479   65.2418 H   0  0  0  0  0  0  0  0  0  0  0  0
  -36.2573   61.8908   63.3985 H   0  0  0  0  0  0  0  0  0  0  0  0
  -37.8007   62.4129   62.6822 H   0  0  0  0  0  0  0  0  0  0  0  0
  -37.9913   60.2406   63.7115 H   0  0  0  0  0  0  0  0  0  0  0  0
  -38.9884   61.4818   64.5096 H   0  0  0  0  0  0  0  0  0  0  0  0
  -36.3903   60.4368   65.5220 H   0  0  0  0  0  0  0  0  0  0  0  0
  -38.0162   60.0043   66.1033 H   0  0  0  0  0  0  0  0  0  0  0  0
  -36.7925   62.7147   66.2405 H   0  0  0  0  0  0  0  0  0  0  0  0
  -36.9649   61.5415   67.5746 H   0  0  0  0  0  0  0  0  0  0  0  0
  -39.3349   61.6994   67.4496 H   0  0  0  0  0  0  0  0  0  0  0  0
  -39.1769   62.8534   66.1023 H   0  0  0  0  0  0  0  0  0  0  0  0
  -38.1460   64.4449   67.5476 H   0  0  0  0  0  0  0  0  0  0  0  0
  -38.2886   63.2839   68.8969 H   0  0  0  0  0  0  0  0  0  0  0  0
  -40.6630   63.4379   68.8212 H   0  0  0  0  0  0  0  0  0  0  0  0
  -40.5418   64.5735   67.4599 H   0  0  0  0  0  0  0  0  0  0  0  0
  -39.5462   65.0693   70.2269 H   0  0  0  0  0  0  0  0  0  0  0  0
  -41.0347   65.7213   69.4787 H   0  0  0  0  0  0  0  0  0  0  0  0
  -38.2571   66.3196   68.6022 H   0  0  0  0  0  0  0  0  0  0  0  0
  -39.3348   67.3664   69.5714 H   0  0  0  0  0  0  0  0  0  0  0  0
  -39.2342   68.0838   67.2624 H   0  0  0  0  0  0  0  0  0  0  0  0
  -40.8482   67.5412   67.7539 H   0  0  0  0  0  0  0  0  0  0  0  0
  -39.1637   65.5566   66.3528 H   0  0  0  0  0  0  0  0  0  0  0  0
  -40.6778   65.5662   64.6787 H   0  0  0  0  0  0  0  0  0  0  0  0
  -42.2234   67.5776   66.2171 H   0  0  0  0  0  0  0  0  0  0  0  0
  -42.6835   66.7530   64.7101 H   0  0  0  0  0  0  0  0  0  0  0  0
  -42.4086   69.1366   64.3689 H   0  0  0  0  0  0  0  0  0  0  0  0
  -41.2262   68.1695   63.4639 H   0  0  0  0  0  0  0  0  0  0  0  0
  -39.5352   68.6802   65.0774 H   0  0  0  0  0  0  0  0  0  0  0  0
  -40.7172   69.6337   65.9985 H   0  0  0  0  0  0  0  0  0  0  0  0
  -39.2401   71.0534   64.7207 H   0  0  0  0  0  0  0  0  0  0  0  0
  -40.9383   71.1487   64.1810 H   0  0  0  0  0  0  0  0  0  0  0  0
  -40.4450   69.7982   62.2866 H   0  0  0  0  0  0  0  0  0  0  0  0
  -38.7541   69.6740   62.8251 H   0  0  0  0  0  0  0  0  0  0  0  0
  -38.9931   71.2484   61.0136 H   0  0  0  0  0  0  0  0  0  0  0  0
  -38.4692   72.0104   62.5370 H   0  0  0  0  0  0  0  0  0  0  0  0
  -40.6621   72.8640   62.8990 H   0  0  0  0  0  0  0  0  0  0  0  0
  -41.2091   72.0903   61.4011 H   0  0  0  0  0  0  0  0  0  0  0  0
  -39.1880   74.2827   61.5949 H   0  0  0  0  0  0  0  0  0  0  0  0
  -40.8411   74.4535   61.0552 H   0  0  0  0  0  0  0  0  0  0  0  0
  -39.7132   73.4959   60.1258 H   0  0  0  0  0  0  0  0  0  0  0  0
  -32.1486   68.5400   64.6687 H   0  0  0  0  0  0  0  0  0  0  0  0
  -29.6327   67.0681   65.4416 H   0  0  0  0  0  0  0  0  0  0  0  0
  -31.1294   69.1768   67.0080 H   0  0  0  0  0  0  0  0  0  0  0  0
  -29.3488   70.6437   66.5772 H   0  0  0  0  0  0  0  0  0  0  0  0
  -31.0858   70.6667   64.9665 H   0  0  0  0  0  0  0  0  0  0  0  0
  -28.4751   70.7586   63.5055 H   0  0  0  0  0  0  0  0  0  0  0  0
  -29.9937   71.4764   62.9711 H   0  0  0  0  0  0  0  0  0  0  0  0
  1  4  1  0  0  0  0
  1 31  1  0  0  0  0
  1 62  1  0  0  0  0
  2  3  1  0  0  0  0
  2  4  1  0  0  0  0
  2 63  1  0  0  0  0
  2 64  1  0  0  0  0
  3 55  1  0  0  0  0
  4  6  1  0  0  0  0
  4 65  1  6  0  0  0
  5  6  1  0  0  0  0
  5 66  1  0  0  0  0
  6  8  1  0  0  0  0
  6 67  1  6  0  0  0
  7 31  2  0  0  0  0
  8 10  2  0  0  0  0
  8 68  1  0  0  0  0
  9 56  1  0  0  0  0
  9 69  1  0  0  0  0
 10 12  1  0  0  0  0
 10 70  1  0  0  0  0
 11 57  1  0  0  0  0
 11 61  1  0  0  0  0
 12 14  1  0  0  0  0
 12 71  1  0  0  0  0
 12 72  1  0  0  0  0
 13 58  1  0  0  0  0
 13 73  1  0  0  0  0
 14 16  1  0  0  0  0
 14 74  1  0  0  0  0
 14 75  1  0  0  0  0
 15 55  1  0  0  0  0
 15 59  1  0  0  0  0
 16 18  1  0  0  0  0
 16 76  1  0  0  0  0
 16 77  1  0  0  0  0
 17 60  1  0  0  0  0
 17 78  1  0  0  0  0
 18 20  1  0  0  0  0
 18 79  1  0  0  0  0
 18 80  1  0  0  0  0
 19 61  1  0  0  0  0
 19 81  1  0  0  0  0
 20 22  1  0  0  0  0
 20 82  1  0  0  0  0
 20 83  1  0  0  0  0
 21 61  1  0  0  0  0
 22 24  1  0  0  0  0
 22 84  1  0  0  0  0
 22 85  1  0  0  0  0
 23 61  1  0  0  0  0
 23 86  1  0  0  0  0
 24 25  1  0  0  0  0
 24 87  1  0  0  0  0
 24 88  1  0  0  0  0
 25 26  1  0  0  0  0
 25 89  1  0  0  0  0
 25 90  1  0  0  0  0
 26 27  1  0  0  0  0
 26 91  1  0  0  0  0
 26 92  1  0  0  0  0
 27 28  1  0  0  0  0
 27 93  1  0  0  0  0
 27 94  1  0  0  0  0
 28 29  1  0  0  0  0
 28 95  1  0  0  0  0
 28 96  1  0  0  0  0
 29 30  1  0  0  0  0
 29 97  1  0  0  0  0
 29 98  1  0  0  0  0
 30 99  1  0  0  0  0
 30100  1  0  0  0  0
 30101  1  0  0  0  0
 31 32  1  0  0  0  0
 32 33  1  0  0  0  0
 32102  1  0  0  0  0
 32103  1  0  0  0  0
 33 34  1  0  0  0  0
 33104  1  0  0  0  0
 33105  1  0  0  0  0
 34 35  1  0  0  0  0
 34106  1  0  0  0  0
 34107  1  0  0  0  0
 35 36  1  0  0  0  0
 35108  1  0  0  0  0
 35109  1  0  0  0  0
 36 37  1  0  0  0  0
 36110  1  0  0  0  0
 36111  1  0  0  0  0
 37 38  1  0  0  0  0
 37112  1  0  0  0  0
 37113  1  0  0  0  0
 38 39  1  0  0  0  0
 38114  1  0  0  0  0
 38115  1  0  0  0  0
 39 40  1  0  0  0  0
 39116  1  0  0  0  0
 39117  1  0  0  0  0
 40 41  1  0  0  0  0
 40118  1  0  0  0  0
 40119  1  0  0  0  0
 41 42  1  0  0  0  0
 41120  1  0  0  0  0
 41121  1  0  0  0  0
 42 43  1  0  0  0  0
 42122  1  0  0  0  0
 42123  1  0  0  0  0
 43 44  1  0  0  0  0
 43124  1  0  0  0  0
 43125  1  0  0  0  0
 44 45  1  0  0  0  0
 44126  1  0  0  0  0
 44127  1  0  0  0  0
 45 46  2  0  0  0  0
 45128  1  0  0  0  0
 46 47  1  0  0  0  0
 46129  1  0  0  0  0
 47 48  1  0  0  0  0
 47130  1  0  0  0  0
 47131  1  0  0  0  0
 48 49  1  0  0  0  0
 48132  1  0  0  0  0
 48133  1  0  0  0  0
 49 50  1  0  0  0  0
 49134  1  0  0  0  0
 49135  1  0  0  0  0
 50 51  1  0  0  0  0
 50136  1  0  0  0  0
 50137  1  0  0  0  0
 51 52  1  0  0  0  0
 51138  1  0  0  0  0
 51139  1  0  0  0  0
 52 53  1  0  0  0  0
 52140  1  0  0  0  0
 52141  1  0  0  0  0
 53 54  1  0  0  0  0
 53142  1  0  0  0  0
 53143  1  0  0  0  0
 54144  1  0  0  0  0
 54145  1  0  0  0  0
 54146  1  0  0  0  0
 55 56  1  0  0  0  0
 55147  1  1  0  0  0
 56 57  1  0  0  0  0
 56148  1  6  0  0  0
 57 58  1  0  0  0  0
 57149  1  1  0  0  0
 58 59  1  0  0  0  0
 58150  1  1  0  0  0
 59 60  1  0  0  0  0
 59151  1  1  0  0  0
 60152  1  0  0  0  0
 60153  1  0  0  0  0
M  CHG  1  21  -1
M  END
$$$$