/media/chris/experiments/cd1a-new-docking/inputs/ligands/7ryn_ligand.pdb
 OpenBabel07032312553D

153153  0  0  1  0  0  0  0  0999 V2000
  -33.0340   65.1330   62.2120 N   0  0  0  0  0  0  0  0  0  0  0  0
  -32.0220   67.3480   62.3220 C   0  0  0  0  0  0  0  0  0  0  0  0
  -31.1969   68.2589   61.5870 O   0  0  0  0  0  0  0  0  0  0  0  0
  -32.1830   66.0840   61.5030 C   0  0  1  0  0  0  0  0  0  0  0  0
  -31.0548   64.2805   60.3587 O   0  0  0  0  0  0  0  0  0  0  0  0
  -30.8310   65.4230   61.1900 C   0  0  2  0  0  0  0  0  0  0  0  0
  -31.4954   63.4950   62.3441 O   0  0  0  0  0  0  0  0  0  0  0  0
  -30.1054   65.0399   62.4433 C   0  0  0  0  0  0  0  0  0  0  0  0
  -28.8256   69.6743   61.1237 O   0  0  0  0  0  0  0  0  0  0  0  0
  -28.9184   64.4680   62.4873 C   0  0  0  0  0  0  0  0  0  0  0  0
  -29.1955   72.4811   60.9310 O   0  0  0  0  0  0  0  0  0  0  0  0
  -28.2138   64.1114   63.7550 C   0  0  0  0  0  0  0  0  0  0  0  0
  -31.9137   72.6716   61.1716 O   0  0  0  0  0  0  0  0  0  0  0  0
  -29.0503   64.4971   64.9767 C   0  0  0  0  0  0  0  0  0  0  0  0
  -32.1725   70.1372   62.5085 O   0  0  0  0  0  0  0  0  0  0  0  0
  -28.3904   64.1801   66.3089 C   0  0  0  0  0  0  0  0  0  0  0  0
  -34.1498   72.0997   62.3478 O   0  0  0  0  0  0  0  0  0  0  0  0
  -27.0679   64.8924   66.5361 C   0  0  0  0  0  0  0  0  0  0  0  0
  -28.2009   74.5050   60.0814 O   0  0  0  0  0  0  0  0  0  0  0  0
  -26.4049   64.5573   67.8642 C   0  0  0  0  0  0  0  0  0  0  0  0
  -28.2208   74.0289   62.5489 O   0  5  0  0  0  0  0  0  0  0  0  0
  -26.0681   63.0828   68.0239 C   0  0  0  0  0  0  0  0  0  0  0  0
  -30.2001   74.5960   61.3668 O   0  0  0  0  0  0  0  0  0  0  0  0
  -27.2753   62.1660   67.9321 C   0  0  0  0  0  0  0  0  0  0  0  0
  -26.9488   60.6946   68.1074 C   0  0  0  0  0  0  0  0  0  0  0  0
  -25.9632   60.1567   67.0843 C   0  0  0  0  0  0  0  0  0  0  0  0
  -26.4524   60.3023   65.6553 C   0  0  0  0  0  0  0  0  0  0  0  0
  -27.7620   59.5938   65.3665 C   0  0  0  0  0  0  0  0  0  0  0  0
  -28.2039   59.7512   63.9248 C   0  0  0  0  0  0  0  0  0  0  0  0
  -29.5204   59.0574   63.6423 C   0  0  0  0  0  0  0  0  0  0  0  0
  -32.6252   63.9148   62.5768 C   0  0  0  0  0  0  0  0  0  0  0  0
  -33.6441   63.0766   63.3080 C   0  0  0  0  0  0  0  0  0  0  0  0
  -33.4627   61.5850   63.0573 C   0  0  0  0  0  0  0  0  0  0  0  0
  -33.5729   61.2200   61.5856 C   0  0  0  0  0  0  0  0  0  0  0  0
  -34.9065   61.5890   60.9574 C   0  0  0  0  0  0  0  0  0  0  0  0
  -35.0214   61.2077   59.4891 C   0  0  0  0  0  0  0  0  0  0  0  0
  -34.8862   59.7137   59.2243 C   0  0  0  0  0  0  0  0  0  0  0  0
  -34.9847   59.3367   57.7517 C   0  0  0  0  0  0  0  0  0  0  0  0
  -33.9121   59.9630   56.8642 C   0  0  0  0  0  0  0  0  0  0  0  0
  -32.4846   59.5727   57.2440 C   0  0  0  0  0  0  0  0  0  0  0  0
  -31.3983   60.2057   56.3747 C   0  0  0  0  0  0  0  0  0  0  0  0
  -29.9820   59.7840   56.7668 C   0  0  0  0  0  0  0  0  0  0  0  0
  -29.7016   58.2848   56.6653 C   0  0  0  0  0  0  0  0  0  0  0  0
  -30.6030   57.4000   57.5304 C   0  0  0  0  0  0  0  0  0  0  0  0
  -30.2771   55.9395   57.4084 C   0  0  0  0  0  0  0  0  0  0  0  0
  -29.4217   55.2675   58.1584 C   0  0  0  0  0  0  0  0  0  0  0  0
  -28.6065   55.8279   59.2843 C   0  0  0  0  0  0  0  0  0  0  0  0
  -27.0965   55.6930   59.0763 C   0  0  0  0  0  0  0  0  0  0  0  0
  -26.2772   56.2497   60.2330 C   0  0  0  0  0  0  0  0  0  0  0  0
  -26.5518   55.5514   61.5601 C   0  0  0  0  0  0  0  0  0  0  0  0
  -25.7567   56.1008   62.7390 C   0  0  0  0  0  0  0  0  0  0  0  0
  -24.2482   56.0156   62.5538 C   0  0  0  0  0  0  0  0  0  0  0  0
  -23.7257   54.6031   62.3453 C   0  0  0  0  0  0  0  0  0  0  0  0
  -24.0489   53.6785   63.5014 C   0  0  0  0  0  0  0  0  0  0  0  0
  -30.9530   69.4703   62.2406 C   0  0  2  0  0  0  0  0  0  0  0  0
  -30.0721   70.3242   61.3379 C   0  0  1  0  0  0  0  0  0  0  0  0
  -29.8516   71.6915   61.9728 C   0  0  2  0  0  0  0  0  0  0  0  0
  -31.1762   72.3417   62.3441 C   0  0  2  0  0  0  0  0  0  0  0  0
  -31.9954   71.3819   63.2035 C   0  0  1  0  0  0  0  0  0  0  0  0
  -33.3762   71.9033   63.5259 C   0  0  0  0  0  0  0  0  0  0  0  0
  -28.7943   73.9833   61.2565 S   0  0  0  0  0  0  0  0  0  0  0  0
  -33.9548   65.4029   62.4321 H   0  0  0  0  0  0  0  0  0  0  0  0
  -32.9806   67.7896   62.4978 H   0  0  0  0  0  0  0  0  0  0  0  0
  -31.5704   67.1208   63.2650 H   0  0  0  0  0  0  0  0  0  0  0  0
  -32.6374   66.3625   60.5752 H   0  0  0  0  0  0  0  0  0  0  0  0
  -31.5249   64.5525   59.5551 H   0  0  0  0  0  0  0  0  0  0  0  0
  -30.2105   66.1253   60.6735 H   0  0  0  0  0  0  0  0  0  0  0  0
  -30.5711   65.2392   63.3425 H   0  0  0  0  0  0  0  0  0  0  0  0
  -28.9790   68.8059   60.7197 H   0  0  0  0  0  0  0  0  0  0  0  0
  -28.4487   64.2543   61.5936 H   0  0  0  0  0  0  0  0  0  0  0  0
  -27.2790   64.6306   63.7933 H   0  0  0  0  0  0  0  0  0  0  0  0
  -28.0568   63.0531   63.7707 H   0  0  0  0  0  0  0  0  0  0  0  0
  -31.3948   73.2814   60.6241 H   0  0  0  0  0  0  0  0  0  0  0  0
  -29.9791   63.9682   64.9280 H   0  0  0  0  0  0  0  0  0  0  0  0
  -29.1756   65.5592   64.9407 H   0  0  0  0  0  0  0  0  0  0  0  0
  -28.2151   63.1255   66.3536 H   0  0  0  0  0  0  0  0  0  0  0  0
  -29.0583   64.5231   67.0712 H   0  0  0  0  0  0  0  0  0  0  0  0
  -35.0277   72.4338   62.5896 H   0  0  0  0  0  0  0  0  0  0  0  0
  -27.2442   65.9473   66.5047 H   0  0  0  0  0  0  0  0  0  0  0  0
  -26.4024   64.5629   65.7659 H   0  0  0  0  0  0  0  0  0  0  0  0
  -27.3087   74.1382   59.9795 H   0  0  0  0  0  0  0  0  0  0  0  0
  -27.0690   64.8398   68.6542 H   0  0  0  0  0  0  0  0  0  0  0  0
  -25.4802   65.0948   67.8968 H   0  0  0  0  0  0  0  0  0  0  0  0
  -25.6100   62.9429   68.9807 H   0  0  0  0  0  0  0  0  0  0  0  0
  -25.4162   62.8223   67.2163 H   0  0  0  0  0  0  0  0  0  0  0  0
  -30.6278   74.5827   60.4963 H   0  0  0  0  0  0  0  0  0  0  0  0
  -27.7256   62.2983   66.9706 H   0  0  0  0  0  0  0  0  0  0  0  0
  -27.9296   62.4353   68.7347 H   0  0  0  0  0  0  0  0  0  0  0  0
  -27.8577   60.1358   68.0259 H   0  0  0  0  0  0  0  0  0  0  0  0
  -26.4876   60.5910   69.0674 H   0  0  0  0  0  0  0  0  0  0  0  0
  -25.7974   59.1186   67.2837 H   0  0  0  0  0  0  0  0  0  0  0  0
  -25.0641   60.7297   67.1744 H   0  0  0  0  0  0  0  0  0  0  0  0
  -25.7045   59.9022   65.0031 H   0  0  0  0  0  0  0  0  0  0  0  0
  -26.6284   61.3458   65.4975 H   0  0  0  0  0  0  0  0  0  0  0  0
  -28.5195   60.0003   66.0036 H   0  0  0  0  0  0  0  0  0  0  0  0
  -27.6127   58.5498   65.5478 H   0  0  0  0  0  0  0  0  0  0  0  0
  -27.4523   59.3335   63.2880 H   0  0  0  0  0  0  0  0  0  0  0  0
  -28.3407   60.7961   63.7391 H   0  0  0  0  0  0  0  0  0  0  0  0
  -29.4154   58.0074   63.8195 H   0  0  0  0  0  0  0  0  0  0  0  0
  -29.7980   59.2209   62.6219 H   0  0  0  0  0  0  0  0  0  0  0  0
  -30.2778   59.4538   64.2858 H   0  0  0  0  0  0  0  0  0  0  0  0
  -34.6219   63.3629   62.9810 H   0  0  0  0  0  0  0  0  0  0  0  0
  -33.5131   63.2478   64.3561 H   0  0  0  0  0  0  0  0  0  0  0  0
  -34.2162   61.0527   63.5994 H   0  0  0  0  0  0  0  0  0  0  0  0
  -32.4788   61.3197   63.3834 H   0  0  0  0  0  0  0  0  0  0  0  0
  -33.4363   60.1631   61.4896 H   0  0  0  0  0  0  0  0  0  0  0  0
  -32.8212   61.7800   61.0698 H   0  0  0  0  0  0  0  0  0  0  0  0
  -35.0376   62.6476   61.0421 H   0  0  0  0  0  0  0  0  0  0  0  0
  -35.6600   61.0391   61.4815 H   0  0  0  0  0  0  0  0  0  0  0  0
  -34.2510   61.7164   58.9482 H   0  0  0  0  0  0  0  0  0  0  0  0
  -36.0034   61.4906   59.1719 H   0  0  0  0  0  0  0  0  0  0  0  0
  -35.6641   59.2056   59.7550 H   0  0  0  0  0  0  0  0  0  0  0  0
  -33.9094   59.4269   59.5538 H   0  0  0  0  0  0  0  0  0  0  0  0
  -35.9420   59.6495   57.3901 H   0  0  0  0  0  0  0  0  0  0  0  0
  -34.8427   58.2775   57.6988 H   0  0  0  0  0  0  0  0  0  0  0  0
  -33.9990   61.0273   56.9316 H   0  0  0  0  0  0  0  0  0  0  0  0
  -34.0791   59.5976   55.8725 H   0  0  0  0  0  0  0  0  0  0  0  0
  -32.3973   58.5092   57.1653 H   0  0  0  0  0  0  0  0  0  0  0  0
  -32.3260   59.9349   58.2383 H   0  0  0  0  0  0  0  0  0  0  0  0
  -31.4715   61.2696   56.4619 H   0  0  0  0  0  0  0  0  0  0  0  0
  -31.5611   59.8690   55.3721 H   0  0  0  0  0  0  0  0  0  0  0  0
  -29.8149   60.0849   57.7799 H   0  0  0  0  0  0  0  0  0  0  0  0
  -29.3251   60.2586   56.0681 H   0  0  0  0  0  0  0  0  0  0  0  0
  -28.6873   58.1158   56.9612 H   0  0  0  0  0  0  0  0  0  0  0  0
  -29.8980   58.0110   55.6497 H   0  0  0  0  0  0  0  0  0  0  0  0
  -31.6189   57.5495   57.2293 H   0  0  0  0  0  0  0  0  0  0  0  0
  -30.4452   57.6805   58.5508 H   0  0  0  0  0  0  0  0  0  0  0  0
  -30.7670   55.4110   56.6697 H   0  0  0  0  0  0  0  0  0  0  0  0
  -29.3039   54.2637   57.9496 H   0  0  0  0  0  0  0  0  0  0  0  0
  -28.8713   55.3112   60.1830 H   0  0  0  0  0  0  0  0  0  0  0  0
  -28.8229   56.8745   59.3365 H   0  0  0  0  0  0  0  0  0  0  0  0
  -26.8280   56.2205   58.1849 H   0  0  0  0  0  0  0  0  0  0  0  0
  -26.8782   54.6477   59.0074 H   0  0  0  0  0  0  0  0  0  0  0  0
  -26.5074   57.2889   60.3425 H   0  0  0  0  0  0  0  0  0  0  0  0
  -25.2463   56.0868   59.9974 H   0  0  0  0  0  0  0  0  0  0  0  0
  -26.3111   54.5148   61.4485 H   0  0  0  0  0  0  0  0  0  0  0  0
  -27.5845   55.7188   61.7846 H   0  0  0  0  0  0  0  0  0  0  0  0
  -26.0215   55.5442   63.6136 H   0  0  0  0  0  0  0  0  0  0  0  0
  -26.0026   57.1387   62.8249 H   0  0  0  0  0  0  0  0  0  0  0  0
  -23.7795   56.4217   63.4258 H   0  0  0  0  0  0  0  0  0  0  0  0
  -24.0156   56.5643   61.6651 H   0  0  0  0  0  0  0  0  0  0  0  0
  -22.6629   54.6458   62.2291 H   0  0  0  0  0  0  0  0  0  0  0  0
  -24.2057   54.2083   61.4743 H   0  0  0  0  0  0  0  0  0  0  0  0
  -23.5828   54.0448   64.3921 H   0  0  0  0  0  0  0  0  0  0  0  0
  -23.6834   52.6963   63.2856 H   0  0  0  0  0  0  0  0  0  0  0  0
  -25.1089   53.6414   63.6429 H   0  0  0  0  0  0  0  0  0  0  0  0
  -30.4622   69.2932   63.1747 H   0  0  0  0  0  0  0  0  0  0  0  0
  -30.5589   70.4564   60.3943 H   0  0  0  0  0  0  0  0  0  0  0  0
  -29.2758   71.6206   62.8719 H   0  0  0  0  0  0  0  0  0  0  0  0
  -30.9761   73.2382   62.8929 H   0  0  0  0  0  0  0  0  0  0  0  0
  -31.4476   71.2644   64.1151 H   0  0  0  0  0  0  0  0  0  0  0  0
  -33.8757   71.1972   64.1558 H   0  0  0  0  0  0  0  0  0  0  0  0
  -33.2710   72.8473   64.0187 H   0  0  0  0  0  0  0  0  0  0  0  0
  1  4  1  0  0  0  0
  1 31  1  0  0  0  0
  1 62  1  0  0  0  0
  2  3  1  0  0  0  0
  2  4  1  0  0  0  0
  2 63  1  0  0  0  0
  2 64  1  0  0  0  0
  3 55  1  0  0  0  0
  4  6  1  0  0  0  0
  4 65  1  6  0  0  0
  5  6  1  0  0  0  0
  5 66  1  0  0  0  0
  6  8  1  0  0  0  0
  6 67  1  6  0  0  0
  7 31  2  0  0  0  0
  8 10  2  0  0  0  0
  8 68  1  0  0  0  0
  9 56  1  0  0  0  0
  9 69  1  0  0  0  0
 10 12  1  0  0  0  0
 10 70  1  0  0  0  0
 11 57  1  0  0  0  0
 11 61  1  0  0  0  0
 12 14  1  0  0  0  0
 12 71  1  0  0  0  0
 12 72  1  0  0  0  0
 13 58  1  0  0  0  0
 13 73  1  0  0  0  0
 14 16  1  0  0  0  0
 14 74  1  0  0  0  0
 14 75  1  0  0  0  0
 15 55  1  0  0  0  0
 15 59  1  0  0  0  0
 16 18  1  0  0  0  0
 16 76  1  0  0  0  0
 16 77  1  0  0  0  0
 17 60  1  0  0  0  0
 17 78  1  0  0  0  0
 18 20  1  0  0  0  0
 18 79  1  0  0  0  0
 18 80  1  0  0  0  0
 19 61  1  0  0  0  0
 19 81  1  0  0  0  0
 20 22  1  0  0  0  0
 20 82  1  0  0  0  0
 20 83  1  0  0  0  0
 21 61  1  0  0  0  0
 22 24  1  0  0  0  0
 22 84  1  0  0  0  0
 22 85  1  0  0  0  0
 23 61  1  0  0  0  0
 23 86  1  0  0  0  0
 24 25  1  0  0  0  0
 24 87  1  0  0  0  0
 24 88  1  0  0  0  0
 25 26  1  0  0  0  0
 25 89  1  0  0  0  0
 25 90  1  0  0  0  0
 26 27  1  0  0  0  0
 26 91  1  0  0  0  0
 26 92  1  0  0  0  0
 27 28  1  0  0  0  0
 27 93  1  0  0  0  0
 27 94  1  0  0  0  0
 28 29  1  0  0  0  0
 28 95  1  0  0  0  0
 28 96  1  0  0  0  0
 29 30  1  0  0  0  0
 29 97  1  0  0  0  0
 29 98  1  0  0  0  0
 30 99  1  0  0  0  0
 30100  1  0  0  0  0
 30101  1  0  0  0  0
 31 32  1  0  0  0  0
 32 33  1  0  0  0  0
 32102  1  0  0  0  0
 32103  1  0  0  0  0
 33 34  1  0  0  0  0
 33104  1  0  0  0  0
 33105  1  0  0  0  0
 34 35  1  0  0  0  0
 34106  1  0  0  0  0
 34107  1  0  0  0  0
 35 36  1  0  0  0  0
 35108  1  0  0  0  0
 35109  1  0  0  0  0
 36 37  1  0  0  0  0
 36110  1  0  0  0  0
 36111  1  0  0  0  0
 37 38  1  0  0  0  0
 37112  1  0  0  0  0
 37113  1  0  0  0  0
 38 39  1  0  0  0  0
 38114  1  0  0  0  0
 38115  1  0  0  0  0
 39 40  1  0  0  0  0
 39116  1  0  0  0  0
 39117  1  0  0  0  0
 40 41  1  0  0  0  0
 40118  1  0  0  0  0
 40119  1  0  0  0  0
 41 42  1  0  0  0  0
 41120  1  0  0  0  0
 41121  1  0  0  0  0
 42 43  1  0  0  0  0
 42122  1  0  0  0  0
 42123  1  0  0  0  0
 43 44  1  0  0  0  0
 43124  1  0  0  0  0
 43125  1  0  0  0  0
 44 45  1  0  0  0  0
 44126  1  0  0  0  0
 44127  1  0  0  0  0
 45 46  2  0  0  0  0
 45128  1  0  0  0  0
 46 47  1  0  0  0  0
 46129  1  0  0  0  0
 47 48  1  0  0  0  0
 47130  1  0  0  0  0
 47131  1  0  0  0  0
 48 49  1  0  0  0  0
 48132  1  0  0  0  0
 48133  1  0  0  0  0
 49 50  1  0  0  0  0
 49134  1  0  0  0  0
 49135  1  0  0  0  0
 50 51  1  0  0  0  0
 50136  1  0  0  0  0
 50137  1  0  0  0  0
 51 52  1  0  0  0  0
 51138  1  0  0  0  0
 51139  1  0  0  0  0
 52 53  1  0  0  0  0
 52140  1  0  0  0  0
 52141  1  0  0  0  0
 53 54  1  0  0  0  0
 53142  1  0  0  0  0
 53143  1  0  0  0  0
 54144  1  0  0  0  0
 54145  1  0  0  0  0
 54146  1  0  0  0  0
 55 56  1  0  0  0  0
 55147  1  1  0  0  0
 56 57  1  0  0  0  0
 56148  1  6  0  0  0
 57 58  1  0  0  0  0
 57149  1  1  0  0  0
 58 59  1  0  0  0  0
 58150  1  1  0  0  0
 59 60  1  0  0  0  0
 59151  1  1  0  0  0
 60152  1  0  0  0  0
 60153  1  0  0  0  0
M  CHG  1  21  -1
M  END
$$$$