/media/chris/experiments/cd1a-new-docking/inputs/ligands/7ryn_ligand.pdb
 OpenBabel07032312553D

153153  0  0  1  0  0  0  0  0999 V2000
  -33.0340   65.1330   62.2120 N   0  0  0  0  0  0  0  0  0  0  0  0
  -32.0220   67.3480   62.3220 C   0  0  0  0  0  0  0  0  0  0  0  0
  -31.4051   67.0024   63.5673 O   0  0  0  0  0  0  0  0  0  0  0  0
  -32.1830   66.0840   61.5030 C   0  0  1  0  0  0  0  0  0  0  0  0
  -31.0548   64.2805   60.3587 O   0  0  0  0  0  0  0  0  0  0  0  0
  -30.8310   65.4230   61.1900 C   0  0  2  0  0  0  0  0  0  0  0  0
  -31.4954   63.4950   62.3441 O   0  0  0  0  0  0  0  0  0  0  0  0
  -30.1054   65.0399   62.4433 C   0  0  0  0  0  0  0  0  0  0  0  0
  -31.4046   66.6220   66.3415 O   0  0  0  0  0  0  0  0  0  0  0  0
  -28.9184   64.4680   62.4873 C   0  0  0  0  0  0  0  0  0  0  0  0
  -29.4155   68.1261   67.6954 O   0  0  0  0  0  0  0  0  0  0  0  0
  -28.2138   64.1114   63.7550 C   0  0  0  0  0  0  0  0  0  0  0  0
  -28.1411   69.3260   65.5933 O   0  0  0  0  0  0  0  0  0  0  0  0
  -29.0503   64.4971   64.9767 C   0  0  0  0  0  0  0  0  0  0  0  0
  -30.3909   69.0606   63.8198 O   0  0  0  0  0  0  0  0  0  0  0  0
  -28.3904   64.1801   66.3089 C   0  0  0  0  0  0  0  0  0  0  0  0
  -28.1534   70.6686   63.3778 O   0  0  0  0  0  0  0  0  0  0  0  0
  -27.0679   64.8924   66.5361 C   0  0  0  0  0  0  0  0  0  0  0  0
  -29.0352   66.5764   69.5011 O   0  0  0  0  0  0  0  0  0  0  0  0
  -26.4049   64.5573   67.8642 C   0  0  0  0  0  0  0  0  0  0  0  0
  -30.6879   66.0419   67.6849 O   0  5  0  0  0  0  0  0  0  0  0  0
  -26.0681   63.0828   68.0239 C   0  0  0  0  0  0  0  0  0  0  0  0
  -31.1144   67.7162   69.3133 O   0  0  0  0  0  0  0  0  0  0  0  0
  -27.2753   62.1660   67.9321 C   0  0  0  0  0  0  0  0  0  0  0  0
  -26.9488   60.6946   68.1074 C   0  0  0  0  0  0  0  0  0  0  0  0
  -25.9632   60.1567   67.0843 C   0  0  0  0  0  0  0  0  0  0  0  0
  -26.4524   60.3023   65.6553 C   0  0  0  0  0  0  0  0  0  0  0  0
  -27.7620   59.5938   65.3665 C   0  0  0  0  0  0  0  0  0  0  0  0
  -28.2039   59.7512   63.9248 C   0  0  0  0  0  0  0  0  0  0  0  0
  -28.3961   61.2014   63.5319 C   0  0  0  0  0  0  0  0  0  0  0  0
  -32.6252   63.9148   62.5768 C   0  0  0  0  0  0  0  0  0  0  0  0
  -33.6441   63.0766   63.3080 C   0  0  0  0  0  0  0  0  0  0  0  0
  -33.4627   61.5850   63.0573 C   0  0  0  0  0  0  0  0  0  0  0  0
  -33.5729   61.2200   61.5856 C   0  0  0  0  0  0  0  0  0  0  0  0
  -34.9065   61.5890   60.9574 C   0  0  0  0  0  0  0  0  0  0  0  0
  -35.0214   61.2077   59.4891 C   0  0  0  0  0  0  0  0  0  0  0  0
  -34.8862   59.7137   59.2243 C   0  0  0  0  0  0  0  0  0  0  0  0
  -34.9847   59.3367   57.7517 C   0  0  0  0  0  0  0  0  0  0  0  0
  -33.9121   59.9630   56.8642 C   0  0  0  0  0  0  0  0  0  0  0  0
  -32.4846   59.5727   57.2440 C   0  0  0  0  0  0  0  0  0  0  0  0
  -31.3983   60.2057   56.3747 C   0  0  0  0  0  0  0  0  0  0  0  0
  -29.9820   59.7840   56.7668 C   0  0  0  0  0  0  0  0  0  0  0  0
  -29.7016   58.2848   56.6653 C   0  0  0  0  0  0  0  0  0  0  0  0
  -28.2876   57.8640   57.0748 C   0  0  0  0  0  0  0  0  0  0  0  0
  -27.2208   58.5222   56.2485 C   0  0  0  0  0  0  0  0  0  0  0  0
  -26.6236   59.6694   56.5189 C   0  0  0  0  0  0  0  0  0  0  0  0
  -26.8893   60.5432   57.7071 C   0  0  0  0  0  0  0  0  0  0  0  0
  -27.3703   61.9489   57.3409 C   0  0  0  0  0  0  0  0  0  0  0  0
  -27.6212   62.8346   58.5541 C   0  0  0  0  0  0  0  0  0  0  0  0
  -26.3777   63.0581   59.4074 C   0  0  0  0  0  0  0  0  0  0  0  0
  -26.6049   63.9280   60.6385 C   0  0  0  0  0  0  0  0  0  0  0  0
  -25.3496   64.1545   61.4692 C   0  0  0  0  0  0  0  0  0  0  0  0
  -24.7133   62.8780   61.9959 C   0  0  0  0  0  0  0  0  0  0  0  0
  -25.6475   62.0740   62.8772 C   0  0  0  0  0  0  0  0  0  0  0  0
  -31.2104   68.0828   64.4327 C   0  0  2  0  0  0  0  0  0  0  0  0
  -30.5480   67.5584   65.7001 C   0  0  1  0  0  0  0  0  0  0  0  0
  -30.2364   68.7171   66.6389 C   0  0  2  0  0  0  0  0  0  0  0  0
  -29.4420   69.8007   65.9249 C   0  0  2  0  0  0  0  0  0  0  0  0
  -30.1703   70.2134   64.6482 C   0  0  1  0  0  0  0  0  0  0  0  0
  -29.3950   71.2080   63.8163 C   0  0  0  0  0  0  0  0  0  0  0  0
  -30.0256   66.9384   68.5560 S   0  0  0  0  0  0  0  0  0  0  0  0
  -33.9548   65.4029   62.4321 H   0  0  0  0  0  0  0  0  0  0  0  0
  -31.4053   68.0450   61.7940 H   0  0  0  0  0  0  0  0  0  0  0  0
  -32.9770   67.7979   62.4965 H   0  0  0  0  0  0  0  0  0  0  0  0
  -32.6374   66.3625   60.5752 H   0  0  0  0  0  0  0  0  0  0  0  0
  -31.5249   64.5525   59.5551 H   0  0  0  0  0  0  0  0  0  0  0  0
  -30.2105   66.1253   60.6735 H   0  0  0  0  0  0  0  0  0  0  0  0
  -30.5711   65.2392   63.3425 H   0  0  0  0  0  0  0  0  0  0  0  0
  -31.5955   65.8899   65.7345 H   0  0  0  0  0  0  0  0  0  0  0  0
  -28.4487   64.2543   61.5936 H   0  0  0  0  0  0  0  0  0  0  0  0
  -27.2790   64.6306   63.7933 H   0  0  0  0  0  0  0  0  0  0  0  0
  -28.0568   63.0531   63.7707 H   0  0  0  0  0  0  0  0  0  0  0  0
  -27.6765   69.0633   66.4032 H   0  0  0  0  0  0  0  0  0  0  0  0
  -29.9791   63.9682   64.9280 H   0  0  0  0  0  0  0  0  0  0  0  0
  -29.1756   65.5592   64.9407 H   0  0  0  0  0  0  0  0  0  0  0  0
  -28.2151   63.1255   66.3536 H   0  0  0  0  0  0  0  0  0  0  0  0
  -29.0583   64.5231   67.0712 H   0  0  0  0  0  0  0  0  0  0  0  0
  -27.6822   71.3306   62.8482 H   0  0  0  0  0  0  0  0  0  0  0  0
  -27.2442   65.9473   66.5047 H   0  0  0  0  0  0  0  0  0  0  0  0
  -26.4024   64.5629   65.7659 H   0  0  0  0  0  0  0  0  0  0  0  0
  -28.3292   66.0818   69.0563 H   0  0  0  0  0  0  0  0  0  0  0  0
  -27.0690   64.8398   68.6542 H   0  0  0  0  0  0  0  0  0  0  0  0
  -25.4802   65.0948   67.8968 H   0  0  0  0  0  0  0  0  0  0  0  0
  -25.6100   62.9429   68.9807 H   0  0  0  0  0  0  0  0  0  0  0  0
  -25.4162   62.8223   67.2163 H   0  0  0  0  0  0  0  0  0  0  0  0
  -30.6977   68.3443   69.9238 H   0  0  0  0  0  0  0  0  0  0  0  0
  -27.7256   62.2983   66.9706 H   0  0  0  0  0  0  0  0  0  0  0  0
  -27.9296   62.4353   68.7347 H   0  0  0  0  0  0  0  0  0  0  0  0
  -27.8577   60.1358   68.0259 H   0  0  0  0  0  0  0  0  0  0  0  0
  -26.4876   60.5910   69.0674 H   0  0  0  0  0  0  0  0  0  0  0  0
  -25.7974   59.1186   67.2837 H   0  0  0  0  0  0  0  0  0  0  0  0
  -25.0641   60.7297   67.1744 H   0  0  0  0  0  0  0  0  0  0  0  0
  -25.7045   59.9022   65.0031 H   0  0  0  0  0  0  0  0  0  0  0  0
  -26.6284   61.3458   65.4975 H   0  0  0  0  0  0  0  0  0  0  0  0
  -28.5195   60.0003   66.0036 H   0  0  0  0  0  0  0  0  0  0  0  0
  -27.6127   58.5498   65.5478 H   0  0  0  0  0  0  0  0  0  0  0  0
  -29.1310   59.2339   63.7917 H   0  0  0  0  0  0  0  0  0  0  0  0
  -27.4338   59.3453   63.3027 H   0  0  0  0  0  0  0  0  0  0  0  0
  -29.1626   61.6367   64.1384 H   0  0  0  0  0  0  0  0  0  0  0  0
  -28.6815   61.2571   62.5021 H   0  0  0  0  0  0  0  0  0  0  0  0
  -27.4801   61.7349   63.6775 H   0  0  0  0  0  0  0  0  0  0  0  0
  -34.6219   63.3629   62.9810 H   0  0  0  0  0  0  0  0  0  0  0  0
  -33.5131   63.2478   64.3561 H   0  0  0  0  0  0  0  0  0  0  0  0
  -34.2162   61.0527   63.5994 H   0  0  0  0  0  0  0  0  0  0  0  0
  -32.4788   61.3197   63.3834 H   0  0  0  0  0  0  0  0  0  0  0  0
  -33.4363   60.1631   61.4896 H   0  0  0  0  0  0  0  0  0  0  0  0
  -32.8212   61.7800   61.0698 H   0  0  0  0  0  0  0  0  0  0  0  0
  -35.0376   62.6476   61.0421 H   0  0  0  0  0  0  0  0  0  0  0  0
  -35.6600   61.0391   61.4815 H   0  0  0  0  0  0  0  0  0  0  0  0
  -34.2510   61.7164   58.9482 H   0  0  0  0  0  0  0  0  0  0  0  0
  -36.0034   61.4906   59.1719 H   0  0  0  0  0  0  0  0  0  0  0  0
  -35.6641   59.2056   59.7550 H   0  0  0  0  0  0  0  0  0  0  0  0
  -33.9094   59.4269   59.5538 H   0  0  0  0  0  0  0  0  0  0  0  0
  -35.9420   59.6495   57.3901 H   0  0  0  0  0  0  0  0  0  0  0  0
  -34.8427   58.2775   57.6988 H   0  0  0  0  0  0  0  0  0  0  0  0
  -33.9990   61.0273   56.9316 H   0  0  0  0  0  0  0  0  0  0  0  0
  -34.0791   59.5976   55.8725 H   0  0  0  0  0  0  0  0  0  0  0  0
  -32.3973   58.5092   57.1653 H   0  0  0  0  0  0  0  0  0  0  0  0
  -32.3260   59.9349   58.2383 H   0  0  0  0  0  0  0  0  0  0  0  0
  -31.4715   61.2696   56.4619 H   0  0  0  0  0  0  0  0  0  0  0  0
  -31.5611   59.8690   55.3721 H   0  0  0  0  0  0  0  0  0  0  0  0
  -29.8149   60.0849   57.7799 H   0  0  0  0  0  0  0  0  0  0  0  0
  -29.3251   60.2586   56.0681 H   0  0  0  0  0  0  0  0  0  0  0  0
  -29.8562   57.9859   55.6496 H   0  0  0  0  0  0  0  0  0  0  0  0
  -30.3676   57.8079   57.3536 H   0  0  0  0  0  0  0  0  0  0  0  0
  -28.2009   56.8034   56.9626 H   0  0  0  0  0  0  0  0  0  0  0  0
  -28.1425   58.1697   58.0899 H   0  0  0  0  0  0  0  0  0  0  0  0
  -26.9264   58.0328   55.3890 H   0  0  0  0  0  0  0  0  0  0  0  0
  -25.9079   59.9937   55.8499 H   0  0  0  0  0  0  0  0  0  0  0  0
  -25.9840   60.6320   58.2705 H   0  0  0  0  0  0  0  0  0  0  0  0
  -27.6745   60.0798   58.2671 H   0  0  0  0  0  0  0  0  0  0  0  0
  -28.2828   61.8626   56.7889 H   0  0  0  0  0  0  0  0  0  0  0  0
  -26.5940   62.4101   56.7669 H   0  0  0  0  0  0  0  0  0  0  0  0
  -28.3712   62.3731   59.1619 H   0  0  0  0  0  0  0  0  0  0  0  0
  -27.9298   63.7917   58.1885 H   0  0  0  0  0  0  0  0  0  0  0  0
  -25.6343   63.5284   58.7983 H   0  0  0  0  0  0  0  0  0  0  0  0
  -26.0770   62.0958   59.7656 H   0  0  0  0  0  0  0  0  0  0  0  0
  -27.3378   63.4532   61.2568 H   0  0  0  0  0  0  0  0  0  0  0  0
  -26.9249   64.8871   60.2884 H   0  0  0  0  0  0  0  0  0  0  0  0
  -25.6067   64.7711   62.3050 H   0  0  0  0  0  0  0  0  0  0  0  0
  -24.6308   64.6125   60.8223 H   0  0  0  0  0  0  0  0  0  0  0  0
  -23.8461   63.1388   62.5660 H   0  0  0  0  0  0  0  0  0  0  0  0
  -24.4660   62.2699   61.1509 H   0  0  0  0  0  0  0  0  0  0  0  0
  -25.9160   62.6542   63.7352 H   0  0  0  0  0  0  0  0  0  0  0  0
  -25.1566   61.1771   63.1926 H   0  0  0  0  0  0  0  0  0  0  0  0
  -26.5297   61.8229   62.3262 H   0  0  0  0  0  0  0  0  0  0  0  0
  -32.1486   68.5400   64.6687 H   0  0  0  0  0  0  0  0  0  0  0  0
  -29.6327   67.0681   65.4416 H   0  0  0  0  0  0  0  0  0  0  0  0
  -31.1294   69.1768   67.0080 H   0  0  0  0  0  0  0  0  0  0  0  0
  -29.3488   70.6437   66.5772 H   0  0  0  0  0  0  0  0  0  0  0  0
  -31.0858   70.6667   64.9665 H   0  0  0  0  0  0  0  0  0  0  0  0
  -29.9792   71.4753   62.9606 H   0  0  0  0  0  0  0  0  0  0  0  0
  -29.1918   72.0657   64.4231 H   0  0  0  0  0  0  0  0  0  0  0  0
  1  4  1  0  0  0  0
  1 31  1  0  0  0  0
  1 62  1  0  0  0  0
  2  3  1  0  0  0  0
  2  4  1  0  0  0  0
  2 63  1  0  0  0  0
  2 64  1  0  0  0  0
  3 55  1  0  0  0  0
  4  6  1  0  0  0  0
  4 65  1  6  0  0  0
  5  6  1  0  0  0  0
  5 66  1  0  0  0  0
  6  8  1  0  0  0  0
  6 67  1  6  0  0  0
  7 31  2  0  0  0  0
  8 10  2  0  0  0  0
  8 68  1  0  0  0  0
  9 56  1  0  0  0  0
  9 69  1  0  0  0  0
 10 12  1  0  0  0  0
 10 70  1  0  0  0  0
 11 57  1  0  0  0  0
 11 61  1  0  0  0  0
 12 14  1  0  0  0  0
 12 71  1  0  0  0  0
 12 72  1  0  0  0  0
 13 58  1  0  0  0  0
 13 73  1  0  0  0  0
 14 16  1  0  0  0  0
 14 74  1  0  0  0  0
 14 75  1  0  0  0  0
 15 55  1  0  0  0  0
 15 59  1  0  0  0  0
 16 18  1  0  0  0  0
 16 76  1  0  0  0  0
 16 77  1  0  0  0  0
 17 60  1  0  0  0  0
 17 78  1  0  0  0  0
 18 20  1  0  0  0  0
 18 79  1  0  0  0  0
 18 80  1  0  0  0  0
 19 61  1  0  0  0  0
 19 81  1  0  0  0  0
 20 22  1  0  0  0  0
 20 82  1  0  0  0  0
 20 83  1  0  0  0  0
 21 61  1  0  0  0  0
 22 24  1  0  0  0  0
 22 84  1  0  0  0  0
 22 85  1  0  0  0  0
 23 61  1  0  0  0  0
 23 86  1  0  0  0  0
 24 25  1  0  0  0  0
 24 87  1  0  0  0  0
 24 88  1  0  0  0  0
 25 26  1  0  0  0  0
 25 89  1  0  0  0  0
 25 90  1  0  0  0  0
 26 27  1  0  0  0  0
 26 91  1  0  0  0  0
 26 92  1  0  0  0  0
 27 28  1  0  0  0  0
 27 93  1  0  0  0  0
 27 94  1  0  0  0  0
 28 29  1  0  0  0  0
 28 95  1  0  0  0  0
 28 96  1  0  0  0  0
 29 30  1  0  0  0  0
 29 97  1  0  0  0  0
 29 98  1  0  0  0  0
 30 99  1  0  0  0  0
 30100  1  0  0  0  0
 30101  1  0  0  0  0
 31 32  1  0  0  0  0
 32 33  1  0  0  0  0
 32102  1  0  0  0  0
 32103  1  0  0  0  0
 33 34  1  0  0  0  0
 33104  1  0  0  0  0
 33105  1  0  0  0  0
 34 35  1  0  0  0  0
 34106  1  0  0  0  0
 34107  1  0  0  0  0
 35 36  1  0  0  0  0
 35108  1  0  0  0  0
 35109  1  0  0  0  0
 36 37  1  0  0  0  0
 36110  1  0  0  0  0
 36111  1  0  0  0  0
 37 38  1  0  0  0  0
 37112  1  0  0  0  0
 37113  1  0  0  0  0
 38 39  1  0  0  0  0
 38114  1  0  0  0  0
 38115  1  0  0  0  0
 39 40  1  0  0  0  0
 39116  1  0  0  0  0
 39117  1  0  0  0  0
 40 41  1  0  0  0  0
 40118  1  0  0  0  0
 40119  1  0  0  0  0
 41 42  1  0  0  0  0
 41120  1  0  0  0  0
 41121  1  0  0  0  0
 42 43  1  0  0  0  0
 42122  1  0  0  0  0
 42123  1  0  0  0  0
 43 44  1  0  0  0  0
 43124  1  0  0  0  0
 43125  1  0  0  0  0
 44 45  1  0  0  0  0
 44126  1  0  0  0  0
 44127  1  0  0  0  0
 45 46  2  0  0  0  0
 45128  1  0  0  0  0
 46 47  1  0  0  0  0
 46129  1  0  0  0  0
 47 48  1  0  0  0  0
 47130  1  0  0  0  0
 47131  1  0  0  0  0
 48 49  1  0  0  0  0
 48132  1  0  0  0  0
 48133  1  0  0  0  0
 49 50  1  0  0  0  0
 49134  1  0  0  0  0
 49135  1  0  0  0  0
 50 51  1  0  0  0  0
 50136  1  0  0  0  0
 50137  1  0  0  0  0
 51 52  1  0  0  0  0
 51138  1  0  0  0  0
 51139  1  0  0  0  0
 52 53  1  0  0  0  0
 52140  1  0  0  0  0
 52141  1  0  0  0  0
 53 54  1  0  0  0  0
 53142  1  0  0  0  0
 53143  1  0  0  0  0
 54144  1  0  0  0  0
 54145  1  0  0  0  0
 54146  1  0  0  0  0
 55 56  1  0  0  0  0
 55147  1  1  0  0  0
 56 57  1  0  0  0  0
 56148  1  6  0  0  0
 57 58  1  0  0  0  0
 57149  1  1  0  0  0
 58 59  1  0  0  0  0
 58150  1  1  0  0  0
 59 60  1  0  0  0  0
 59151  1  1  0  0  0
 60152  1  0  0  0  0
 60153  1  0  0  0  0
M  CHG  1  21  -1
M  END
$$$$