/media/chris/experiments/cd1a-new-docking/inputs/ligands/7ryn_ligand.pdb
 OpenBabel07032312553D

153153  0  0  1  0  0  0  0  0999 V2000
  -33.0340   65.1330   62.2120 N   0  0  0  0  0  0  0  0  0  0  0  0
  -32.0220   67.3480   62.3220 C   0  0  0  0  0  0  0  0  0  0  0  0
  -31.1969   68.2589   61.5870 O   0  0  0  0  0  0  0  0  0  0  0  0
  -32.1830   66.0840   61.5030 C   0  0  1  0  0  0  0  0  0  0  0  0
  -30.2154   65.0225   62.4176 O   0  0  0  0  0  0  0  0  0  0  0  0
  -30.8310   65.4230   61.1900 C   0  0  2  0  0  0  0  0  0  0  0  0
  -34.5420   63.4616   62.1958 O   0  0  0  0  0  0  0  0  0  0  0  0
  -29.9369   66.3439   60.4177 C   0  0  0  0  0  0  0  0  0  0  0  0
  -32.9308   70.4319   61.2513 O   0  0  0  0  0  0  0  0  0  0  0  0
  -28.7231   66.0464   59.9980 C   0  0  0  0  0  0  0  0  0  0  0  0
  -33.4310   71.8685   63.6467 O   0  0  0  0  0  0  0  0  0  0  0  0
  -27.8610   66.9824   59.2161 C   0  0  0  0  0  0  0  0  0  0  0  0
  -32.0199   70.3807   65.4572 O   0  0  0  0  0  0  0  0  0  0  0  0
  -27.5713   68.2574   60.0107 C   0  0  0  0  0  0  0  0  0  0  0  0
  -30.2839   69.2401   63.4665 O   0  0  0  0  0  0  0  0  0  0  0  0
  -26.7108   69.2698   59.2723 C   0  0  0  0  0  0  0  0  0  0  0  0
  -29.8754   69.1472   66.2254 O   0  0  0  0  0  0  0  0  0  0  0  0
  -27.3194   69.7807   57.9775 C   0  0  0  0  0  0  0  0  0  0  0  0
  -34.9849   73.3767   64.7040 O   0  0  0  0  0  0  0  0  0  0  0  0
  -28.6505   70.4955   58.1593 C   0  0  0  0  0  0  0  0  0  0  0  0
  -32.7374   74.1926   63.9306 O   0  5  0  0  0  0  0  0  0  0  0  0
  -28.5654   71.7289   59.0451 C   0  0  0  0  0  0  0  0  0  0  0  0
  -32.9709   72.7578   65.8076 O   0  0  0  0  0  0  0  0  0  0  0  0
  -27.6310   72.8012   58.5129 C   0  0  0  0  0  0  0  0  0  0  0  0
  -28.0268   73.3468   57.1534 C   0  0  0  0  0  0  0  0  0  0  0  0
  -29.3962   74.0040   57.1290 C   0  0  0  0  0  0  0  0  0  0  0  0
  -30.5140   73.0619   57.5357 C   0  0  0  0  0  0  0  0  0  0  0  0
  -31.8977   73.6821   57.5057 C   0  0  0  0  0  0  0  0  0  0  0  0
  -32.0181   74.8824   58.4241 C   0  0  0  0  0  0  0  0  0  0  0  0
  -31.7248   74.5386   59.8699 C   0  0  0  0  0  0  0  0  0  0  0  0
  -33.8200   64.2493   61.5913 C   0  0  0  0  0  0  0  0  0  0  0  0
  -33.7740   64.2810   60.0839 C   0  0  0  0  0  0  0  0  0  0  0  0
  -34.8086   65.2264   59.4870 C   0  0  0  0  0  0  0  0  0  0  0  0
  -36.2321   64.8569   59.8721 C   0  0  0  0  0  0  0  0  0  0  0  0
  -37.2888   65.7727   59.2772 C   0  0  0  0  0  0  0  0  0  0  0  0
  -38.7116   65.4118   59.6772 C   0  0  0  0  0  0  0  0  0  0  0  0
  -39.1306   64.0038   59.2739 C   0  0  0  0  0  0  0  0  0  0  0  0
  -40.5612   63.6513   59.6607 C   0  0  0  0  0  0  0  0  0  0  0  0
  -40.9909   62.2372   59.2783 C   0  0  0  0  0  0  0  0  0  0  0  0
  -42.4327   61.9016   59.6561 C   0  0  0  0  0  0  0  0  0  0  0  0
  -43.4874   62.7905   58.9974 C   0  0  0  0  0  0  0  0  0  0  0  0
  -43.3255   64.2744   59.3277 C   0  0  0  0  0  0  0  0  0  0  0  0
  -44.3724   65.1949   58.7006 C   0  0  0  0  0  0  0  0  0  0  0  0
  -44.4279   65.1610   57.1710 C   0  0  0  0  0  0  0  0  0  0  0  0
  -44.7618   63.8011   56.6294 C   0  0  0  0  0  0  0  0  0  0  0  0
  -44.0058   63.0772   55.8230 C   0  0  0  0  0  0  0  0  0  0  0  0
  -42.6610   63.4671   55.2889 C   0  0  0  0  0  0  0  0  0  0  0  0
  -42.7226   64.2153   53.9555 C   0  0  0  0  0  0  0  0  0  0  0  0
  -41.3506   64.5922   53.4126 C   0  0  0  0  0  0  0  0  0  0  0  0
  -40.4552   63.3882   53.1428 C   0  0  0  0  0  0  0  0  0  0  0  0
  -39.0688   63.7384   52.6143 C   0  0  0  0  0  0  0  0  0  0  0  0
  -38.1947   62.5239   52.3347 C   0  0  0  0  0  0  0  0  0  0  0  0
  -37.9468   61.6428   53.5487 C   0  0  0  0  0  0  0  0  0  0  0  0
  -37.0603   60.4528   53.2421 C   0  0  0  0  0  0  0  0  0  0  0  0
  -30.9530   69.4703   62.2406 C   0  0  2  0  0  0  0  0  0  0  0  0
  -32.2933   70.1495   62.4906 C   0  0  1  0  0  0  0  0  0  0  0  0
  -32.0829   71.4352   63.2803 C   0  0  2  0  0  0  0  0  0  0  0  0
  -31.2728   71.1754   64.5419 C   0  0  2  0  0  0  0  0  0  0  0  0
  -29.9796   70.4491   64.1802 C   0  0  1  0  0  0  0  0  0  0  0  0
  -29.1637   70.0508   65.3877 C   0  0  0  0  0  0  0  0  0  0  0  0
  -33.5968   73.2117   64.4786 S   0  0  0  0  0  0  0  0  0  0  0  0
  -33.0282   65.1436   63.1964 H   0  0  0  0  0  0  0  0  0  0  0  0
  -32.9806   67.7896   62.4978 H   0  0  0  0  0  0  0  0  0  0  0  0
  -31.5704   67.1208   63.2650 H   0  0  0  0  0  0  0  0  0  0  0  0
  -32.6374   66.3625   60.5752 H   0  0  0  0  0  0  0  0  0  0  0  0
  -30.8116   64.4280   62.8994 H   0  0  0  0  0  0  0  0  0  0  0  0
  -30.9971   64.5628   60.5757 H   0  0  0  0  0  0  0  0  0  0  0  0
  -30.2993   67.2846   60.1969 H   0  0  0  0  0  0  0  0  0  0  0  0
  -33.0591   69.6065   60.7582 H   0  0  0  0  0  0  0  0  0  0  0  0
  -28.3466   65.1122   60.2228 H   0  0  0  0  0  0  0  0  0  0  0  0
  -28.3625   67.2431   58.3075 H   0  0  0  0  0  0  0  0  0  0  0  0
  -26.9323   66.4942   59.0059 H   0  0  0  0  0  0  0  0  0  0  0  0
  -32.8421   70.8405   65.6883 H   0  0  0  0  0  0  0  0  0  0  0  0
  -27.0665   67.9828   60.9133 H   0  0  0  0  0  0  0  0  0  0  0  0
  -28.5149   68.7288   60.1904 H   0  0  0  0  0  0  0  0  0  0  0  0
  -25.7730   68.8086   59.0428 H   0  0  0  0  0  0  0  0  0  0  0  0
  -26.6103   70.1164   59.9189 H   0  0  0  0  0  0  0  0  0  0  0  0
  -29.3250   68.9123   66.9889 H   0  0  0  0  0  0  0  0  0  0  0  0
  -27.4719   68.9463   57.3252 H   0  0  0  0  0  0  0  0  0  0  0  0
  -26.6349   70.4981   57.5756 H   0  0  0  0  0  0  0  0  0  0  0  0
  -35.4139   73.6640   63.8828 H   0  0  0  0  0  0  0  0  0  0  0  0
  -29.3446   69.8105   58.5996 H   0  0  0  0  0  0  0  0  0  0  0  0
  -28.9626   70.8267   57.1909 H   0  0  0  0  0  0  0  0  0  0  0  0
  -28.2177   71.4274   60.0111 H   0  0  0  0  0  0  0  0  0  0  0  0
  -29.5453   72.1574   59.0786 H   0  0  0  0  0  0  0  0  0  0  0  0
  -33.5340   72.0818   66.2160 H   0  0  0  0  0  0  0  0  0  0  0  0
  -26.6492   72.3831   58.4345 H   0  0  0  0  0  0  0  0  0  0  0  0
  -27.6771   73.6202   59.2000 H   0  0  0  0  0  0  0  0  0  0  0  0
  -28.0289   72.5377   56.4533 H   0  0  0  0  0  0  0  0  0  0  0  0
  -27.3141   74.1046   56.9033 H   0  0  0  0  0  0  0  0  0  0  0  0
  -29.5890   74.3531   56.1361 H   0  0  0  0  0  0  0  0  0  0  0  0
  -29.3792   74.8051   57.8381 H   0  0  0  0  0  0  0  0  0  0  0  0
  -30.3204   72.7233   58.5320 H   0  0  0  0  0  0  0  0  0  0  0  0
  -30.5198   72.2673   56.8190 H   0  0  0  0  0  0  0  0  0  0  0  0
  -32.6106   72.9446   57.8104 H   0  0  0  0  0  0  0  0  0  0  0  0
  -32.0807   74.0186   56.5066 H   0  0  0  0  0  0  0  0  0  0  0  0
  -33.0146   75.2663   58.3581 H   0  0  0  0  0  0  0  0  0  0  0  0
  -31.2957   75.6063   58.1092 H   0  0  0  0  0  0  0  0  0  0  0  0
  -32.4328   73.8144   60.2150 H   0  0  0  0  0  0  0  0  0  0  0  0
  -31.7981   75.4224   60.4686 H   0  0  0  0  0  0  0  0  0  0  0  0
  -30.7364   74.1363   59.9474 H   0  0  0  0  0  0  0  0  0  0  0  0
  -33.9580   63.2938   59.7144 H   0  0  0  0  0  0  0  0  0  0  0  0
  -32.8063   64.6355   59.7963 H   0  0  0  0  0  0  0  0  0  0  0  0
  -34.7240   65.1974   58.4207 H   0  0  0  0  0  0  0  0  0  0  0  0
  -34.6130   66.2050   59.8729 H   0  0  0  0  0  0  0  0  0  0  0  0
  -36.3137   64.8964   60.9383 H   0  0  0  0  0  0  0  0  0  0  0  0
  -36.4149   63.8774   59.4820 H   0  0  0  0  0  0  0  0  0  0  0  0
  -37.2158   65.7236   58.2108 H   0  0  0  0  0  0  0  0  0  0  0  0
  -37.0986   66.7549   59.6567 H   0  0  0  0  0  0  0  0  0  0  0  0
  -39.3785   66.1075   59.2123 H   0  0  0  0  0  0  0  0  0  0  0  0
  -38.7525   65.4528   60.7457 H   0  0  0  0  0  0  0  0  0  0  0  0
  -38.4718   63.3071   59.7487 H   0  0  0  0  0  0  0  0  0  0  0  0
  -39.0770   63.9575   58.2062 H   0  0  0  0  0  0  0  0  0  0  0  0
  -41.2184   64.3427   59.1759 H   0  0  0  0  0  0  0  0  0  0  0  0
  -40.6097   63.7056   60.7282 H   0  0  0  0  0  0  0  0  0  0  0  0
  -40.3434   61.5436   59.7729 H   0  0  0  0  0  0  0  0  0  0  0  0
  -40.9274   62.1724   58.2121 H   0  0  0  0  0  0  0  0  0  0  0  0
  -42.5306   61.9982   60.7173 H   0  0  0  0  0  0  0  0  0  0  0  0
  -42.6137   60.9067   59.3063 H   0  0  0  0  0  0  0  0  0  0  0  0
  -44.4537   62.4728   59.3296 H   0  0  0  0  0  0  0  0  0  0  0  0
  -43.3690   62.6885   57.9389 H   0  0  0  0  0  0  0  0  0  0  0  0
  -42.3612   64.5871   58.9853 H   0  0  0  0  0  0  0  0  0  0  0  0
  -43.4492   64.3596   60.3871 H   0  0  0  0  0  0  0  0  0  0  0  0
  -44.1565   66.1983   59.0032 H   0  0  0  0  0  0  0  0  0  0  0  0
  -45.3236   64.8444   59.0431 H   0  0  0  0  0  0  0  0  0  0  0  0
  -43.4735   65.4564   56.7879 H   0  0  0  0  0  0  0  0  0  0  0  0
  -45.2044   65.8295   56.8625 H   0  0  0  0  0  0  0  0  0  0  0  0
  -45.6664   63.3937   56.9136 H   0  0  0  0  0  0  0  0  0  0  0  0
  -44.3758   62.1581   55.5343 H   0  0  0  0  0  0  0  0  0  0  0  0
  -42.0814   62.5783   55.1512 H   0  0  0  0  0  0  0  0  0  0  0  0
  -42.2224   64.1337   56.0018 H   0  0  0  0  0  0  0  0  0  0  0  0
  -43.2907   65.1113   54.0948 H   0  0  0  0  0  0  0  0  0  0  0  0
  -43.1756   63.5574   53.2435 H   0  0  0  0  0  0  0  0  0  0  0  0
  -40.8646   65.2232   54.1271 H   0  0  0  0  0  0  0  0  0  0  0  0
  -41.5060   65.0866   52.4764 H   0  0  0  0  0  0  0  0  0  0  0  0
  -40.9408   62.7654   52.4209 H   0  0  0  0  0  0  0  0  0  0  0  0
  -40.3083   62.9008   54.0840 H   0  0  0  0  0  0  0  0  0  0  0  0
  -38.5751   64.3497   53.3405 H   0  0  0  0  0  0  0  0  0  0  0  0
  -39.2087   64.2438   51.6816 H   0  0  0  0  0  0  0  0  0  0  0  0
  -37.2491   62.8675   51.9705 H   0  0  0  0  0  0  0  0  0  0  0  0
  -38.7201   61.9241   51.6211 H   0  0  0  0  0  0  0  0  0  0  0  0
  -38.8885   61.2835   53.9079 H   0  0  0  0  0  0  0  0  0  0  0  0
  -37.4427   62.2388   54.2806 H   0  0  0  0  0  0  0  0  0  0  0  0
  -37.5356   59.8330   52.5108 H   0  0  0  0  0  0  0  0  0  0  0  0
  -36.8984   59.8887   54.1368 H   0  0  0  0  0  0  0  0  0  0  0  0
  -36.1209   60.7964   52.8622 H   0  0  0  0  0  0  0  0  0  0  0  0
  -30.3291   70.0960   61.6371 H   0  0  0  0  0  0  0  0  0  0  0  0
  -32.9193   69.4938   63.0591 H   0  0  0  0  0  0  0  0  0  0  0  0
  -31.5471   72.1651   62.7102 H   0  0  0  0  0  0  0  0  0  0  0  0
  -31.0444   72.1140   65.0021 H   0  0  0  0  0  0  0  0  0  0  0  0
  -29.4118   71.1378   63.5901 H   0  0  0  0  0  0  0  0  0  0  0  0
  -28.2611   69.5805   65.0573 H   0  0  0  0  0  0  0  0  0  0  0  0
  -28.9495   70.9336   65.9532 H   0  0  0  0  0  0  0  0  0  0  0  0
  1  4  1  0  0  0  0
  1 31  1  0  0  0  0
  1 62  1  0  0  0  0
  2  3  1  0  0  0  0
  2  4  1  0  0  0  0
  2 63  1  0  0  0  0
  2 64  1  0  0  0  0
  3 55  1  0  0  0  0
  4  6  1  0  0  0  0
  4 65  1  6  0  0  0
  5  6  1  0  0  0  0
  5 66  1  0  0  0  0
  6  8  1  0  0  0  0
  6 67  1  6  0  0  0
  7 31  2  0  0  0  0
  8 10  2  0  0  0  0
  8 68  1  0  0  0  0
  9 56  1  0  0  0  0
  9 69  1  0  0  0  0
 10 12  1  0  0  0  0
 10 70  1  0  0  0  0
 11 57  1  0  0  0  0
 11 61  1  0  0  0  0
 12 14  1  0  0  0  0
 12 71  1  0  0  0  0
 12 72  1  0  0  0  0
 13 58  1  0  0  0  0
 13 73  1  0  0  0  0
 14 16  1  0  0  0  0
 14 74  1  0  0  0  0
 14 75  1  0  0  0  0
 15 55  1  0  0  0  0
 15 59  1  0  0  0  0
 16 18  1  0  0  0  0
 16 76  1  0  0  0  0
 16 77  1  0  0  0  0
 17 60  1  0  0  0  0
 17 78  1  0  0  0  0
 18 20  1  0  0  0  0
 18 79  1  0  0  0  0
 18 80  1  0  0  0  0
 19 61  1  0  0  0  0
 19 81  1  0  0  0  0
 20 22  1  0  0  0  0
 20 82  1  0  0  0  0
 20 83  1  0  0  0  0
 21 61  1  0  0  0  0
 22 24  1  0  0  0  0
 22 84  1  0  0  0  0
 22 85  1  0  0  0  0
 23 61  1  0  0  0  0
 23 86  1  0  0  0  0
 24 25  1  0  0  0  0
 24 87  1  0  0  0  0
 24 88  1  0  0  0  0
 25 26  1  0  0  0  0
 25 89  1  0  0  0  0
 25 90  1  0  0  0  0
 26 27  1  0  0  0  0
 26 91  1  0  0  0  0
 26 92  1  0  0  0  0
 27 28  1  0  0  0  0
 27 93  1  0  0  0  0
 27 94  1  0  0  0  0
 28 29  1  0  0  0  0
 28 95  1  0  0  0  0
 28 96  1  0  0  0  0
 29 30  1  0  0  0  0
 29 97  1  0  0  0  0
 29 98  1  0  0  0  0
 30 99  1  0  0  0  0
 30100  1  0  0  0  0
 30101  1  0  0  0  0
 31 32  1  0  0  0  0
 32 33  1  0  0  0  0
 32102  1  0  0  0  0
 32103  1  0  0  0  0
 33 34  1  0  0  0  0
 33104  1  0  0  0  0
 33105  1  0  0  0  0
 34 35  1  0  0  0  0
 34106  1  0  0  0  0
 34107  1  0  0  0  0
 35 36  1  0  0  0  0
 35108  1  0  0  0  0
 35109  1  0  0  0  0
 36 37  1  0  0  0  0
 36110  1  0  0  0  0
 36111  1  0  0  0  0
 37 38  1  0  0  0  0
 37112  1  0  0  0  0
 37113  1  0  0  0  0
 38 39  1  0  0  0  0
 38114  1  0  0  0  0
 38115  1  0  0  0  0
 39 40  1  0  0  0  0
 39116  1  0  0  0  0
 39117  1  0  0  0  0
 40 41  1  0  0  0  0
 40118  1  0  0  0  0
 40119  1  0  0  0  0
 41 42  1  0  0  0  0
 41120  1  0  0  0  0
 41121  1  0  0  0  0
 42 43  1  0  0  0  0
 42122  1  0  0  0  0
 42123  1  0  0  0  0
 43 44  1  0  0  0  0
 43124  1  0  0  0  0
 43125  1  0  0  0  0
 44 45  1  0  0  0  0
 44126  1  0  0  0  0
 44127  1  0  0  0  0
 45 46  2  0  0  0  0
 45128  1  0  0  0  0
 46 47  1  0  0  0  0
 46129  1  0  0  0  0
 47 48  1  0  0  0  0
 47130  1  0  0  0  0
 47131  1  0  0  0  0
 48 49  1  0  0  0  0
 48132  1  0  0  0  0
 48133  1  0  0  0  0
 49 50  1  0  0  0  0
 49134  1  0  0  0  0
 49135  1  0  0  0  0
 50 51  1  0  0  0  0
 50136  1  0  0  0  0
 50137  1  0  0  0  0
 51 52  1  0  0  0  0
 51138  1  0  0  0  0
 51139  1  0  0  0  0
 52 53  1  0  0  0  0
 52140  1  0  0  0  0
 52141  1  0  0  0  0
 53 54  1  0  0  0  0
 53142  1  0  0  0  0
 53143  1  0  0  0  0
 54144  1  0  0  0  0
 54145  1  0  0  0  0
 54146  1  0  0  0  0
 55 56  1  0  0  0  0
 55147  1  6  0  0  0
 56 57  1  0  0  0  0
 56148  1  1  0  0  0
 57 58  1  0  0  0  0
 57149  1  6  0  0  0
 58 59  1  0  0  0  0
 58150  1  1  0  0  0
 59 60  1  0  0  0  0
 59151  1  6  0  0  0
 60152  1  0  0  0  0
 60153  1  0  0  0  0
M  CHG  1  21  -1
M  END
$$$$