/media/chris/experiments/cd1a-new-docking/inputs/ligands/7ryn_ligand.pdb
 OpenBabel07032312553D

153153  0  0  1  0  0  0  0  0999 V2000
  -33.0340   65.1330   62.2120 N   0  0  0  0  0  0  0  0  0  0  0  0
  -32.0220   67.3480   62.3220 C   0  0  0  0  0  0  0  0  0  0  0  0
  -33.3204   67.9104   62.5424 O   0  0  0  0  0  0  0  0  0  0  0  0
  -32.1830   66.0840   61.5030 C   0  0  1  0  0  0  0  0  0  0  0  0
  -30.2154   65.0225   62.4176 O   0  0  0  0  0  0  0  0  0  0  0  0
  -30.8310   65.4230   61.1900 C   0  0  2  0  0  0  0  0  0  0  0  0
  -32.9252   63.5132   60.6524 O   0  0  0  0  0  0  0  0  0  0  0  0
  -29.9369   66.3439   60.4177 C   0  0  0  0  0  0  0  0  0  0  0  0
  -35.3151   69.8361   62.1498 O   0  0  0  0  0  0  0  0  0  0  0  0
  -29.0262   65.9607   59.5448 C   0  0  0  0  0  0  0  0  0  0  0  0
  -36.2332   71.0293   64.5551 O   0  0  0  0  0  0  0  0  0  0  0  0
  -28.1594   66.9053   58.7787 C   0  0  0  0  0  0  0  0  0  0  0  0
  -34.7894   69.6393   66.4168 O   0  0  0  0  0  0  0  0  0  0  0  0
  -26.8602   67.1950   59.5332 C   0  0  0  0  0  0  0  0  0  0  0  0
  -32.7334   68.8853   64.5507 O   0  0  0  0  0  0  0  0  0  0  0  0
  -27.0624   67.8069   60.9099 C   0  0  0  0  0  0  0  0  0  0  0  0
  -31.8166   70.8306   67.4934 O   0  0  0  0  0  0  0  0  0  0  0  0
  -27.8108   69.1289   60.9022 C   0  0  0  0  0  0  0  0  0  0  0  0
  -38.0793   72.2327   65.5303 O   0  0  0  0  0  0  0  0  0  0  0  0
  -27.9947   69.7439   62.2819 C   0  0  0  0  0  0  0  0  0  0  0  0
  -35.9141   73.4042   65.0253 O   0  5  0  0  0  0  0  0  0  0  0  0
  -28.7595   71.0585   62.2677 C   0  0  0  0  0  0  0  0  0  0  0  0
  -36.1043   71.8317   66.7937 O   0  0  0  0  0  0  0  0  0  0  0  0
  -28.1024   72.1395   61.4276 C   0  0  0  0  0  0  0  0  0  0  0  0
  -28.8513   73.4592   61.4225 C   0  0  0  0  0  0  0  0  0  0  0  0
  -30.2732   73.3579   60.8976 C   0  0  0  0  0  0  0  0  0  0  0  0
  -31.1439   72.4251   61.7188 C   0  0  0  0  0  0  0  0  0  0  0  0
  -31.3059   72.8350   63.1700 C   0  0  0  0  0  0  0  0  0  0  0  0
  -31.9543   74.1971   63.3216 C   0  0  0  0  0  0  0  0  0  0  0  0
  -32.0998   74.6124   64.7710 C   0  0  0  0  0  0  0  0  0  0  0  0
  -33.3385   63.9239   61.7329 C   0  0  0  0  0  0  0  0  0  0  0  0
  -34.2258   63.0783   62.6121 C   0  0  0  0  0  0  0  0  0  0  0  0
  -34.0432   63.3836   64.0933 C   0  0  0  0  0  0  0  0  0  0  0  0
  -34.9238   62.5207   64.9829 C   0  0  0  0  0  0  0  0  0  0  0  0
  -34.6549   61.0304   64.8565 C   0  0  0  0  0  0  0  0  0  0  0  0
  -33.2369   60.6271   65.2318 C   0  0  0  0  0  0  0  0  0  0  0  0
  -32.8605   60.9522   66.6717 C   0  0  0  0  0  0  0  0  0  0  0  0
  -32.9580   62.4330   67.0155 C   0  0  0  0  0  0  0  0  0  0  0  0
  -32.5676   62.7774   68.4505 C   0  0  0  0  0  0  0  0  0  0  0  0
  -32.6858   64.2628   68.7880 C   0  0  0  0  0  0  0  0  0  0  0  0
  -32.2821   64.6257   70.2168 C   0  0  0  0  0  0  0  0  0  0  0  0
  -32.4267   66.1149   70.5308 C   0  0  0  0  0  0  0  0  0  0  0  0
  -33.8456   66.6687   70.4020 C   0  0  0  0  0  0  0  0  0  0  0  0
  -34.8773   66.0215   71.3297 C   0  0  0  0  0  0  0  0  0  0  0  0
  -34.5448   66.1953   72.7834 C   0  0  0  0  0  0  0  0  0  0  0  0
  -34.8514   65.3572   73.7578 C   0  0  0  0  0  0  0  0  0  0  0  0
  -35.5908   64.0623   73.6070 C   0  0  0  0  0  0  0  0  0  0  0  0
  -35.1931   63.0039   74.6381 C   0  0  0  0  0  0  0  0  0  0  0  0
  -35.9371   61.6863   74.4662 C   0  0  0  0  0  0  0  0  0  0  0  0
  -35.6921   61.0251   73.1146 C   0  0  0  0  0  0  0  0  0  0  0  0
  -36.4389   59.7121   72.9095 C   0  0  0  0  0  0  0  0  0  0  0  0
  -37.9531   59.8506   72.9809 C   0  0  0  0  0  0  0  0  0  0  0  0
  -38.7071   58.5435   72.7945 C   0  0  0  0  0  0  0  0  0  0  0  0
  -38.3677   57.5115   73.8508 C   0  0  0  0  0  0  0  0  0  0  0  0
  -33.3156   69.0988   63.2783 C   0  0  2  0  0  0  0  0  0  0  0  0
  -34.7576   69.5657   63.4297 C   0  0  1  0  0  0  0  0  0  0  0  0
  -34.8089   70.8140   64.3015 C   0  0  2  0  0  0  0  0  0  0  0  0
  -34.0866   70.5888   65.6217 C   0  0  2  0  0  0  0  0  0  0  0  0
  -32.6741   70.0760   65.3523 C   0  0  1  0  0  0  0  0  0  0  0  0
  -31.9211   69.7182   66.6122 C   0  0  0  0  0  0  0  0  0  0  0  0
  -36.6672   72.2789   65.4347 S   0  0  0  0  0  0  0  0  0  0  0  0
  -33.4017   65.3959   63.0866 H   0  0  0  0  0  0  0  0  0  0  0  0
  -31.5648   67.1148   63.2609 H   0  0  0  0  0  0  0  0  0  0  0  0
  -31.4012   68.0473   61.8019 H   0  0  0  0  0  0  0  0  0  0  0  0
  -32.6374   66.3625   60.5752 H   0  0  0  0  0  0  0  0  0  0  0  0
  -30.8116   64.4280   62.8994 H   0  0  0  0  0  0  0  0  0  0  0  0
  -30.9971   64.5628   60.5757 H   0  0  0  0  0  0  0  0  0  0  0  0
  -30.0419   67.3574   60.5817 H   0  0  0  0  0  0  0  0  0  0  0  0
  -35.2768   69.0347   61.6046 H   0  0  0  0  0  0  0  0  0  0  0  0
  -28.9053   64.9489   59.3813 H   0  0  0  0  0  0  0  0  0  0  0  0
  -28.6890   67.8230   58.6294 H   0  0  0  0  0  0  0  0  0  0  0  0
  -27.9141   66.4559   57.8391 H   0  0  0  0  0  0  0  0  0  0  0  0
  -35.6873   69.9632   66.5891 H   0  0  0  0  0  0  0  0  0  0  0  0
  -26.2759   67.8732   58.9471 H   0  0  0  0  0  0  0  0  0  0  0  0
  -26.3753   66.2531   59.6835 H   0  0  0  0  0  0  0  0  0  0  0  0
  -26.1004   67.9689   61.3493 H   0  0  0  0  0  0  0  0  0  0  0  0
  -27.6628   67.1179   61.4665 H   0  0  0  0  0  0  0  0  0  0  0  0
  -31.3292   70.5677   68.2897 H   0  0  0  0  0  0  0  0  0  0  0  0
  -28.7781   68.9655   60.4749 H   0  0  0  0  0  0  0  0  0  0  0  0
  -27.2199   69.8159   60.3332 H   0  0  0  0  0  0  0  0  0  0  0  0
  -38.4697   72.5099   64.6867 H   0  0  0  0  0  0  0  0  0  0  0  0
  -27.0278   69.9200   62.7050 H   0  0  0  0  0  0  0  0  0  0  0  0
  -28.5724   69.0520   62.8585 H   0  0  0  0  0  0  0  0  0  0  0  0
  -28.8382   71.4141   63.2738 H   0  0  0  0  0  0  0  0  0  0  0  0
  -29.7146   70.8592   61.8284 H   0  0  0  0  0  0  0  0  0  0  0  0
  -36.5974   71.0582   67.1092 H   0  0  0  0  0  0  0  0  0  0  0  0
  -28.0349   71.7874   60.4195 H   0  0  0  0  0  0  0  0  0  0  0  0
  -27.1438   72.3298   61.8633 H   0  0  0  0  0  0  0  0  0  0  0  0
  -28.3133   74.1495   60.8070 H   0  0  0  0  0  0  0  0  0  0  0  0
  -28.9182   73.7823   62.4404 H   0  0  0  0  0  0  0  0  0  0  0  0
  -30.2401   72.9957   59.8914 H   0  0  0  0  0  0  0  0  0  0  0  0
  -30.7063   74.3345   60.9569 H   0  0  0  0  0  0  0  0  0  0  0  0
  -30.7056   71.4493   61.6935 H   0  0  0  0  0  0  0  0  0  0  0  0
  -32.1202   72.4550   61.2820 H   0  0  0  0  0  0  0  0  0  0  0  0
  -30.3395   72.8625   63.6284 H   0  0  0  0  0  0  0  0  0  0  0  0
  -31.9453   72.1174   63.6402 H   0  0  0  0  0  0  0  0  0  0  0  0
  -32.9258   74.1663   62.8743 H   0  0  0  0  0  0  0  0  0  0  0  0
  -31.3219   74.9135   62.8402 H   0  0  0  0  0  0  0  0  0  0  0  0
  -32.7290   73.9131   65.2810 H   0  0  0  0  0  0  0  0  0  0  0  0
  -32.5372   75.5877   64.8204 H   0  0  0  0  0  0  0  0  0  0  0  0
  -31.1361   74.6298   65.2355 H   0  0  0  0  0  0  0  0  0  0  0  0
  -33.9935   62.0475   62.4433 H   0  0  0  0  0  0  0  0  0  0  0  0
  -35.2411   63.3003   62.3578 H   0  0  0  0  0  0  0  0  0  0  0  0
  -34.2872   64.4114   64.2637 H   0  0  0  0  0  0  0  0  0  0  0  0
  -33.0247   63.1720   64.3439 H   0  0  0  0  0  0  0  0  0  0  0  0
  -35.9457   62.7019   64.7226 H   0  0  0  0  0  0  0  0  0  0  0  0
  -34.7031   62.7913   65.9943 H   0  0  0  0  0  0  0  0  0  0  0  0
  -34.8302   60.7412   63.8414 H   0  0  0  0  0  0  0  0  0  0  0  0
  -35.3107   60.5367   65.5428 H   0  0  0  0  0  0  0  0  0  0  0  0
  -32.5583   61.1399   64.5827 H   0  0  0  0  0  0  0  0  0  0  0  0
  -33.1804   59.5634   65.1298 H   0  0  0  0  0  0  0  0  0  0  0  0
  -31.8524   60.6337   66.8366 H   0  0  0  0  0  0  0  0  0  0  0  0
  -33.5606   60.4409   67.2988 H   0  0  0  0  0  0  0  0  0  0  0  0
  -33.9692   62.7462   66.8600 H   0  0  0  0  0  0  0  0  0  0  0  0
  -32.2607   62.9390   66.3809 H   0  0  0  0  0  0  0  0  0  0  0  0
  -31.5521   62.4773   68.6041 H   0  0  0  0  0  0  0  0  0  0  0  0
  -33.2518   62.2596   69.0899 H   0  0  0  0  0  0  0  0  0  0  0  0
  -33.7043   64.5576   68.6440 H   0  0  0  0  0  0  0  0  0  0  0  0
  -32.0047   64.7754   68.1413 H   0  0  0  0  0  0  0  0  0  0  0  0
  -31.2592   64.3468   70.3611 H   0  0  0  0  0  0  0  0  0  0  0  0
  -32.9423   64.0995   70.8741 H   0  0  0  0  0  0  0  0  0  0  0  0
  -31.7962   66.6584   69.8585 H   0  0  0  0  0  0  0  0  0  0  0  0
  -32.1530   66.2312   71.5587 H   0  0  0  0  0  0  0  0  0  0  0  0
  -34.1688   66.5230   69.3925 H   0  0  0  0  0  0  0  0  0  0  0  0
  -33.7922   67.6992   70.6854 H   0  0  0  0  0  0  0  0  0  0  0  0
  -34.9229   64.9747   71.1125 H   0  0  0  0  0  0  0  0  0  0  0  0
  -35.8155   66.5052   71.1544 H   0  0  0  0  0  0  0  0  0  0  0  0
  -34.0284   67.0493   73.0463 H   0  0  0  0  0  0  0  0  0  0  0  0
  -34.5543   65.6185   74.7109 H   0  0  0  0  0  0  0  0  0  0  0  0
  -35.3943   63.6728   72.6300 H   0  0  0  0  0  0  0  0  0  0  0  0
  -36.6282   64.2745   73.7606 H   0  0  0  0  0  0  0  0  0  0  0  0
  -35.4013   63.3866   75.6154 H   0  0  0  0  0  0  0  0  0  0  0  0
  -34.1519   62.8006   74.4983 H   0  0  0  0  0  0  0  0  0  0  0  0
  -36.9858   61.8732   74.5674 H   0  0  0  0  0  0  0  0  0  0  0  0
  -35.5717   61.0167   75.2166 H   0  0  0  0  0  0  0  0  0  0  0  0
  -34.6438   60.8315   73.0222 H   0  0  0  0  0  0  0  0  0  0  0  0
  -36.0588   61.7033   72.3726 H   0  0  0  0  0  0  0  0  0  0  0  0
  -36.1267   59.0242   73.6673 H   0  0  0  0  0  0  0  0  0  0  0  0
  -36.2029   59.3692   71.9238 H   0  0  0  0  0  0  0  0  0  0  0  0
  -38.2646   60.5300   72.2152 H   0  0  0  0  0  0  0  0  0  0  0  0
  -38.1841   60.2016   73.9650 H   0  0  0  0  0  0  0  0  0  0  0  0
  -38.4618   58.1419   71.8335 H   0  0  0  0  0  0  0  0  0  0  0  0
  -39.7514   58.7599   72.8807 H   0  0  0  0  0  0  0  0  0  0  0  0
  -37.3267   57.2709   73.7929 H   0  0  0  0  0  0  0  0  0  0  0  0
  -38.9477   56.6277   73.6854 H   0  0  0  0  0  0  0  0  0  0  0  0
  -38.5889   57.9072   74.8200 H   0  0  0  0  0  0  0  0  0  0  0  0
  -32.7377   69.8438   62.7723 H   0  0  0  0  0  0  0  0  0  0  0  0
  -35.3300   68.7932   63.8992 H   0  0  0  0  0  0  0  0  0  0  0  0
  -34.3360   71.6474   63.8253 H   0  0  0  0  0  0  0  0  0  0  0  0
  -34.0399   71.5181   66.1499 H   0  0  0  0  0  0  0  0  0  0  0  0
  -32.1619   70.8745   64.8573 H   0  0  0  0  0  0  0  0  0  0  0  0
  -32.4378   68.9261   67.1126 H   0  0  0  0  0  0  0  0  0  0  0  0
  -30.9325   69.4152   66.3368 H   0  0  0  0  0  0  0  0  0  0  0  0
  1  4  1  0  0  0  0
  1 31  1  0  0  0  0
  1 62  1  0  0  0  0
  2  3  1  0  0  0  0
  2  4  1  0  0  0  0
  2 63  1  0  0  0  0
  2 64  1  0  0  0  0
  3 55  1  0  0  0  0
  4  6  1  0  0  0  0
  4 65  1  6  0  0  0
  5  6  1  0  0  0  0
  5 66  1  0  0  0  0
  6  8  1  0  0  0  0
  6 67  1  6  0  0  0
  7 31  2  0  0  0  0
  8 10  2  0  0  0  0
  8 68  1  0  0  0  0
  9 56  1  0  0  0  0
  9 69  1  0  0  0  0
 10 12  1  0  0  0  0
 10 70  1  0  0  0  0
 11 57  1  0  0  0  0
 11 61  1  0  0  0  0
 12 14  1  0  0  0  0
 12 71  1  0  0  0  0
 12 72  1  0  0  0  0
 13 58  1  0  0  0  0
 13 73  1  0  0  0  0
 14 16  1  0  0  0  0
 14 74  1  0  0  0  0
 14 75  1  0  0  0  0
 15 55  1  0  0  0  0
 15 59  1  0  0  0  0
 16 18  1  0  0  0  0
 16 76  1  0  0  0  0
 16 77  1  0  0  0  0
 17 60  1  0  0  0  0
 17 78  1  0  0  0  0
 18 20  1  0  0  0  0
 18 79  1  0  0  0  0
 18 80  1  0  0  0  0
 19 61  1  0  0  0  0
 19 81  1  0  0  0  0
 20 22  1  0  0  0  0
 20 82  1  0  0  0  0
 20 83  1  0  0  0  0
 21 61  1  0  0  0  0
 22 24  1  0  0  0  0
 22 84  1  0  0  0  0
 22 85  1  0  0  0  0
 23 61  1  0  0  0  0
 23 86  1  0  0  0  0
 24 25  1  0  0  0  0
 24 87  1  0  0  0  0
 24 88  1  0  0  0  0
 25 26  1  0  0  0  0
 25 89  1  0  0  0  0
 25 90  1  0  0  0  0
 26 27  1  0  0  0  0
 26 91  1  0  0  0  0
 26 92  1  0  0  0  0
 27 28  1  0  0  0  0
 27 93  1  0  0  0  0
 27 94  1  0  0  0  0
 28 29  1  0  0  0  0
 28 95  1  0  0  0  0
 28 96  1  0  0  0  0
 29 30  1  0  0  0  0
 29 97  1  0  0  0  0
 29 98  1  0  0  0  0
 30 99  1  0  0  0  0
 30100  1  0  0  0  0
 30101  1  0  0  0  0
 31 32  1  0  0  0  0
 32 33  1  0  0  0  0
 32102  1  0  0  0  0
 32103  1  0  0  0  0
 33 34  1  0  0  0  0
 33104  1  0  0  0  0
 33105  1  0  0  0  0
 34 35  1  0  0  0  0
 34106  1  0  0  0  0
 34107  1  0  0  0  0
 35 36  1  0  0  0  0
 35108  1  0  0  0  0
 35109  1  0  0  0  0
 36 37  1  0  0  0  0
 36110  1  0  0  0  0
 36111  1  0  0  0  0
 37 38  1  0  0  0  0
 37112  1  0  0  0  0
 37113  1  0  0  0  0
 38 39  1  0  0  0  0
 38114  1  0  0  0  0
 38115  1  0  0  0  0
 39 40  1  0  0  0  0
 39116  1  0  0  0  0
 39117  1  0  0  0  0
 40 41  1  0  0  0  0
 40118  1  0  0  0  0
 40119  1  0  0  0  0
 41 42  1  0  0  0  0
 41120  1  0  0  0  0
 41121  1  0  0  0  0
 42 43  1  0  0  0  0
 42122  1  0  0  0  0
 42123  1  0  0  0  0
 43 44  1  0  0  0  0
 43124  1  0  0  0  0
 43125  1  0  0  0  0
 44 45  1  0  0  0  0
 44126  1  0  0  0  0
 44127  1  0  0  0  0
 45 46  2  0  0  0  0
 45128  1  0  0  0  0
 46 47  1  0  0  0  0
 46129  1  0  0  0  0
 47 48  1  0  0  0  0
 47130  1  0  0  0  0
 47131  1  0  0  0  0
 48 49  1  0  0  0  0
 48132  1  0  0  0  0
 48133  1  0  0  0  0
 49 50  1  0  0  0  0
 49134  1  0  0  0  0
 49135  1  0  0  0  0
 50 51  1  0  0  0  0
 50136  1  0  0  0  0
 50137  1  0  0  0  0
 51 52  1  0  0  0  0
 51138  1  0  0  0  0
 51139  1  0  0  0  0
 52 53  1  0  0  0  0
 52140  1  0  0  0  0
 52141  1  0  0  0  0
 53 54  1  0  0  0  0
 53142  1  0  0  0  0
 53143  1  0  0  0  0
 54144  1  0  0  0  0
 54145  1  0  0  0  0
 54146  1  0  0  0  0
 55 56  1  0  0  0  0
 55147  1  6  0  0  0
 56 57  1  0  0  0  0
 56148  1  1  0  0  0
 57 58  1  0  0  0  0
 57149  1  6  0  0  0
 58 59  1  0  0  0  0
 58150  1  1  0  0  0
 59 60  1  0  0  0  0
 59151  1  6  0  0  0
 60152  1  0  0  0  0
 60153  1  0  0  0  0
M  CHG  1  21  -1
M  END
$$$$