/media/chris/experiments/cd1a-new-docking/inputs/ligands/7ryn_ligand.pdb
 OpenBabel07032312553D

153153  0  0  1  0  0  0  0  0999 V2000
  -33.0340   65.1330   62.2120 N   0  0  0  0  0  0  0  0  0  0  0  0
  -32.0220   67.3480   62.3220 C   0  0  0  0  0  0  0  0  0  0  0  0
  -31.1969   68.2589   61.5870 O   0  0  0  0  0  0  0  0  0  0  0  0
  -32.1830   66.0840   61.5030 C   0  0  1  0  0  0  0  0  0  0  0  0
  -30.2154   65.0225   62.4176 O   0  0  0  0  0  0  0  0  0  0  0  0
  -30.8310   65.4230   61.1900 C   0  0  2  0  0  0  0  0  0  0  0  0
  -35.0054   64.5907   63.1540 O   0  0  0  0  0  0  0  0  0  0  0  0
  -29.9369   66.3439   60.4177 C   0  0  0  0  0  0  0  0  0  0  0  0
  -32.9308   70.4319   61.2513 O   0  0  0  0  0  0  0  0  0  0  0  0
  -30.3493   67.2791   59.5850 C   0  0  0  0  0  0  0  0  0  0  0  0
  -33.4310   71.8685   63.6467 O   0  0  0  0  0  0  0  0  0  0  0  0
  -29.4320   68.1925   58.8402 C   0  0  0  0  0  0  0  0  0  0  0  0
  -32.0199   70.3807   65.4572 O   0  0  0  0  0  0  0  0  0  0  0  0
  -29.6083   68.0365   57.3283 C   0  0  0  0  0  0  0  0  0  0  0  0
  -30.2839   69.2401   63.4665 O   0  0  0  0  0  0  0  0  0  0  0  0
  -29.3405   66.6323   56.8115 C   0  0  0  0  0  0  0  0  0  0  0  0
  -29.8754   69.1472   66.2254 O   0  0  0  0  0  0  0  0  0  0  0  0
  -30.2537   65.5673   57.3942 C   0  0  0  0  0  0  0  0  0  0  0  0
  -34.9849   73.3767   64.7040 O   0  0  0  0  0  0  0  0  0  0  0  0
  -29.9688   64.1618   56.8852 C   0  0  0  0  0  0  0  0  0  0  0  0
  -32.7374   74.1926   63.9306 O   0  5  0  0  0  0  0  0  0  0  0  0
  -30.0990   64.0205   55.3765 C   0  0  0  0  0  0  0  0  0  0  0  0
  -32.9709   72.7578   65.8076 O   0  0  0  0  0  0  0  0  0  0  0  0
  -31.4781   64.3707   54.8459 C   0  0  0  0  0  0  0  0  0  0  0  0
  -32.5963   63.5233   55.4235 C   0  0  0  0  0  0  0  0  0  0  0  0
  -33.9722   63.8650   54.8779 C   0  0  0  0  0  0  0  0  0  0  0  0
  -34.3721   65.3057   55.1365 C   0  0  0  0  0  0  0  0  0  0  0  0
  -33.4512   66.3338   54.5079 C   0  0  0  0  0  0  0  0  0  0  0  0
  -33.8781   67.7577   54.8056 C   0  0  0  0  0  0  0  0  0  0  0  0
  -33.8816   68.0644   56.2890 C   0  0  0  0  0  0  0  0  0  0  0  0
  -34.3010   65.3918   62.5466 C   0  0  0  0  0  0  0  0  0  0  0  0
  -34.8204   66.7470   62.1356 C   0  0  0  0  0  0  0  0  0  0  0  0
  -36.2638   66.9752   62.5659 C   0  0  0  0  0  0  0  0  0  0  0  0
  -36.7956   68.3337   62.1381 C   0  0  0  0  0  0  0  0  0  0  0  0
  -36.7993   68.5479   60.6336 C   0  0  0  0  0  0  0  0  0  0  0  0
  -37.3158   69.9141   60.2080 C   0  0  0  0  0  0  0  0  0  0  0  0
  -36.4993   71.0813   60.7481 C   0  0  0  0  0  0  0  0  0  0  0  0
  -35.0443   71.0772   60.2972 C   0  0  0  0  0  0  0  0  0  0  0  0
  -34.2082   72.2316   60.8439 C   0  0  0  0  0  0  0  0  0  0  0  0
  -34.7315   73.6148   60.4604 C   0  0  0  0  0  0  0  0  0  0  0  0
  -34.8112   73.8713   58.9557 C   0  0  0  0  0  0  0  0  0  0  0  0
  -35.3217   75.2684   58.6024 C   0  0  0  0  0  0  0  0  0  0  0  0
  -36.7175   75.6001   59.1298 C   0  0  0  0  0  0  0  0  0  0  0  0
  -36.8575   75.5597   60.6539 C   0  0  0  0  0  0  0  0  0  0  0  0
  -35.9586   76.5415   61.3484 C   0  0  0  0  0  0  0  0  0  0  0  0
  -36.2048   77.1439   62.4983 C   0  0  0  0  0  0  0  0  0  0  0  0
  -37.4303   76.9659   63.3424 C   0  0  0  0  0  0  0  0  0  0  0  0
  -38.6856   76.6211   62.5383 C   0  0  0  0  0  0  0  0  0  0  0  0
  -39.9289   76.4590   63.4028 C   0  0  0  0  0  0  0  0  0  0  0  0
  -41.1773   76.0987   62.6054 C   0  0  0  0  0  0  0  0  0  0  0  0
  -41.0805   74.7831   61.8414 C   0  0  0  0  0  0  0  0  0  0  0  0
  -42.3290   74.4477   61.0378 C   0  0  0  0  0  0  0  0  0  0  0  0
  -42.2491   73.1289   60.2854 C   0  0  0  0  0  0  0  0  0  0  0  0
  -43.4993   72.8320   59.4823 C   0  0  0  0  0  0  0  0  0  0  0  0
  -30.9530   69.4703   62.2406 C   0  0  2  0  0  0  0  0  0  0  0  0
  -32.2933   70.1495   62.4906 C   0  0  1  0  0  0  0  0  0  0  0  0
  -32.0829   71.4352   63.2803 C   0  0  2  0  0  0  0  0  0  0  0  0
  -31.2728   71.1754   64.5419 C   0  0  2  0  0  0  0  0  0  0  0  0
  -29.9796   70.4491   64.1802 C   0  0  1  0  0  0  0  0  0  0  0  0
  -29.1637   70.0508   65.3877 C   0  0  0  0  0  0  0  0  0  0  0  0
  -33.5968   73.2117   64.4786 S   0  0  0  0  0  0  0  0  0  0  0  0
  -32.6553   64.2575   62.4556 H   0  0  0  0  0  0  0  0  0  0  0  0
  -32.9806   67.7896   62.4978 H   0  0  0  0  0  0  0  0  0  0  0  0
  -31.5704   67.1208   63.2650 H   0  0  0  0  0  0  0  0  0  0  0  0
  -32.6374   66.3625   60.5752 H   0  0  0  0  0  0  0  0  0  0  0  0
  -30.8116   64.4280   62.8994 H   0  0  0  0  0  0  0  0  0  0  0  0
  -30.9971   64.5628   60.5757 H   0  0  0  0  0  0  0  0  0  0  0  0
  -28.9186   66.2380   60.5475 H   0  0  0  0  0  0  0  0  0  0  0  0
  -33.0591   69.6065   60.7582 H   0  0  0  0  0  0  0  0  0  0  0  0
  -31.3654   67.3862   59.4394 H   0  0  0  0  0  0  0  0  0  0  0  0
  -28.4204   67.9601   59.1000 H   0  0  0  0  0  0  0  0  0  0  0  0
  -29.6663   69.2018   59.1075 H   0  0  0  0  0  0  0  0  0  0  0  0
  -32.8421   70.8405   65.6883 H   0  0  0  0  0  0  0  0  0  0  0  0
  -28.9330   68.7080   56.8406 H   0  0  0  0  0  0  0  0  0  0  0  0
  -30.6343   68.2523   57.1145 H   0  0  0  0  0  0  0  0  0  0  0  0
  -28.3298   66.3743   57.0502 H   0  0  0  0  0  0  0  0  0  0  0  0
  -29.5264   66.6526   55.7580 H   0  0  0  0  0  0  0  0  0  0  0  0
  -29.3250   68.9123   66.9889 H   0  0  0  0  0  0  0  0  0  0  0  0
  -31.2639   65.8172   57.1450 H   0  0  0  0  0  0  0  0  0  0  0  0
  -30.0810   65.5552   58.4501 H   0  0  0  0  0  0  0  0  0  0  0  0
  -35.4139   73.6640   63.8828 H   0  0  0  0  0  0  0  0  0  0  0  0
  -30.6592   63.4882   57.3485 H   0  0  0  0  0  0  0  0  0  0  0  0
  -28.9522   63.9390   57.1339 H   0  0  0  0  0  0  0  0  0  0  0  0
  -29.8834   63.0062   55.1126 H   0  0  0  0  0  0  0  0  0  0  0  0
  -29.4108   64.7123   54.9377 H   0  0  0  0  0  0  0  0  0  0  0  0
  -33.5340   72.0818   66.2160 H   0  0  0  0  0  0  0  0  0  0  0  0
  -31.4725   64.2415   53.7837 H   0  0  0  0  0  0  0  0  0  0  0  0
  -31.6740   65.3814   55.1375 H   0  0  0  0  0  0  0  0  0  0  0  0
  -32.6106   63.6619   56.4844 H   0  0  0  0  0  0  0  0  0  0  0  0
  -32.3943   62.5103   55.1443 H   0  0  0  0  0  0  0  0  0  0  0  0
  -34.6918   63.2230   55.3416 H   0  0  0  0  0  0  0  0  0  0  0  0
  -33.9388   63.7278   53.8173 H   0  0  0  0  0  0  0  0  0  0  0  0
  -34.3803   65.4661   56.1944 H   0  0  0  0  0  0  0  0  0  0  0  0
  -35.3335   65.4413   54.6869 H   0  0  0  0  0  0  0  0  0  0  0  0
  -33.4508   66.1907   53.4475 H   0  0  0  0  0  0  0  0  0  0  0  0
  -32.4759   66.1937   54.9252 H   0  0  0  0  0  0  0  0  0  0  0  0
  -34.8658   67.9071   54.4221 H   0  0  0  0  0  0  0  0  0  0  0  0
  -33.1719   68.4129   54.3399 H   0  0  0  0  0  0  0  0  0  0  0  0
  -34.5805   67.4232   56.7841 H   0  0  0  0  0  0  0  0  0  0  0  0
  -34.1640   69.0851   56.4415 H   0  0  0  0  0  0  0  0  0  0  0  0
  -32.9027   67.9015   56.6891 H   0  0  0  0  0  0  0  0  0  0  0  0
  -34.7635   66.8274   61.0701 H   0  0  0  0  0  0  0  0  0  0  0  0
  -34.2169   67.4862   62.6195 H   0  0  0  0  0  0  0  0  0  0  0  0
  -36.3181   66.9067   63.6323 H   0  0  0  0  0  0  0  0  0  0  0  0
  -36.8648   66.2284   62.0904 H   0  0  0  0  0  0  0  0  0  0  0  0
  -36.1849   69.0903   62.5846 H   0  0  0  0  0  0  0  0  0  0  0  0
  -37.8144   68.3840   62.4613 H   0  0  0  0  0  0  0  0  0  0  0  0
  -37.4201   67.7990   60.1879 H   0  0  0  0  0  0  0  0  0  0  0  0
  -35.7820   68.4846   60.3079 H   0  0  0  0  0  0  0  0  0  0  0  0
  -38.3219   70.0172   60.5574 H   0  0  0  0  0  0  0  0  0  0  0  0
  -37.2439   69.9536   59.1411 H   0  0  0  0  0  0  0  0  0  0  0  0
  -36.5208   71.0415   61.8171 H   0  0  0  0  0  0  0  0  0  0  0  0
  -36.9419   71.9754   60.3614 H   0  0  0  0  0  0  0  0  0  0  0  0
  -35.0255   71.1279   59.2285 H   0  0  0  0  0  0  0  0  0  0  0  0
  -34.6094   70.1782   60.6814 H   0  0  0  0  0  0  0  0  0  0  0  0
  -33.2115   72.1328   60.4674 H   0  0  0  0  0  0  0  0  0  0  0  0
  -34.2541   72.1684   61.9110 H   0  0  0  0  0  0  0  0  0  0  0  0
  -34.0814   74.3482   60.8899 H   0  0  0  0  0  0  0  0  0  0  0  0
  -35.7336   73.6730   60.8311 H   0  0  0  0  0  0  0  0  0  0  0  0
  -35.4724   73.1496   58.5235 H   0  0  0  0  0  0  0  0  0  0  0  0
  -33.8165   73.7923   58.5694 H   0  0  0  0  0  0  0  0  0  0  0  0
  -35.3409   75.3547   57.5360 H   0  0  0  0  0  0  0  0  0  0  0  0
  -34.6529   75.9584   59.0731 H   0  0  0  0  0  0  0  0  0  0  0  0
  -37.4062   74.8946   58.7140 H   0  0  0  0  0  0  0  0  0  0  0  0
  -36.9167   76.6098   58.8370 H   0  0  0  0  0  0  0  0  0  0  0  0
  -36.6144   74.5746   60.9933 H   0  0  0  0  0  0  0  0  0  0  0  0
  -37.8668   75.8243   60.8911 H   0  0  0  0  0  0  0  0  0  0  0  0
  -35.0649   76.7668   60.8842 H   0  0  0  0  0  0  0  0  0  0  0  0
  -35.4866   77.7975   62.8476 H   0  0  0  0  0  0  0  0  0  0  0  0
  -37.6094   77.8769   63.8744 H   0  0  0  0  0  0  0  0  0  0  0  0
  -37.2420   76.1411   63.9976 H   0  0  0  0  0  0  0  0  0  0  0  0
  -38.5131   75.7033   62.0161 H   0  0  0  0  0  0  0  0  0  0  0  0
  -38.8682   77.4368   61.8702 H   0  0  0  0  0  0  0  0  0  0  0  0
  -40.1081   77.3809   63.9155 H   0  0  0  0  0  0  0  0  0  0  0  0
  -39.7410   75.6508   64.0783 H   0  0  0  0  0  0  0  0  0  0  0  0
  -41.3614   76.8821   61.9003 H   0  0  0  0  0  0  0  0  0  0  0  0
  -41.9690   75.9811   63.3156 H   0  0  0  0  0  0  0  0  0  0  0  0
  -40.9105   73.9955   62.5455 H   0  0  0  0  0  0  0  0  0  0  0  0
  -40.2774   74.8866   61.1420 H   0  0  0  0  0  0  0  0  0  0  0  0
  -42.4909   75.2307   60.3267 H   0  0  0  0  0  0  0  0  0  0  0  0
  -43.1310   74.3536   61.7398 H   0  0  0  0  0  0  0  0  0  0  0  0
  -42.1028   72.3401   60.9934 H   0  0  0  0  0  0  0  0  0  0  0  0
  -41.4341   73.2013   59.5959 H   0  0  0  0  0  0  0  0  0  0  0  0
  -44.3372   72.7528   60.1429 H   0  0  0  0  0  0  0  0  0  0  0  0
  -43.3732   71.9100   58.9540 H   0  0  0  0  0  0  0  0  0  0  0  0
  -43.6702   73.6234   58.7827 H   0  0  0  0  0  0  0  0  0  0  0  0
  -30.3291   70.0960   61.6371 H   0  0  0  0  0  0  0  0  0  0  0  0
  -32.9193   69.4938   63.0591 H   0  0  0  0  0  0  0  0  0  0  0  0
  -31.5471   72.1651   62.7102 H   0  0  0  0  0  0  0  0  0  0  0  0
  -31.0444   72.1140   65.0021 H   0  0  0  0  0  0  0  0  0  0  0  0
  -29.4118   71.1378   63.5901 H   0  0  0  0  0  0  0  0  0  0  0  0
  -28.2611   69.5805   65.0573 H   0  0  0  0  0  0  0  0  0  0  0  0
  -28.9495   70.9336   65.9532 H   0  0  0  0  0  0  0  0  0  0  0  0
  1  4  1  0  0  0  0
  1 31  1  0  0  0  0
  1 62  1  0  0  0  0
  2  3  1  0  0  0  0
  2  4  1  0  0  0  0
  2 63  1  0  0  0  0
  2 64  1  0  0  0  0
  3 55  1  0  0  0  0
  4  6  1  0  0  0  0
  4 65  1  6  0  0  0
  5  6  1  0  0  0  0
  5 66  1  0  0  0  0
  6  8  1  0  0  0  0
  6 67  1  6  0  0  0
  7 31  2  0  0  0  0
  8 10  2  0  0  0  0
  8 68  1  0  0  0  0
  9 56  1  0  0  0  0
  9 69  1  0  0  0  0
 10 12  1  0  0  0  0
 10 70  1  0  0  0  0
 11 57  1  0  0  0  0
 11 61  1  0  0  0  0
 12 14  1  0  0  0  0
 12 71  1  0  0  0  0
 12 72  1  0  0  0  0
 13 58  1  0  0  0  0
 13 73  1  0  0  0  0
 14 16  1  0  0  0  0
 14 74  1  0  0  0  0
 14 75  1  0  0  0  0
 15 55  1  0  0  0  0
 15 59  1  0  0  0  0
 16 18  1  0  0  0  0
 16 76  1  0  0  0  0
 16 77  1  0  0  0  0
 17 60  1  0  0  0  0
 17 78  1  0  0  0  0
 18 20  1  0  0  0  0
 18 79  1  0  0  0  0
 18 80  1  0  0  0  0
 19 61  1  0  0  0  0
 19 81  1  0  0  0  0
 20 22  1  0  0  0  0
 20 82  1  0  0  0  0
 20 83  1  0  0  0  0
 21 61  1  0  0  0  0
 22 24  1  0  0  0  0
 22 84  1  0  0  0  0
 22 85  1  0  0  0  0
 23 61  1  0  0  0  0
 23 86  1  0  0  0  0
 24 25  1  0  0  0  0
 24 87  1  0  0  0  0
 24 88  1  0  0  0  0
 25 26  1  0  0  0  0
 25 89  1  0  0  0  0
 25 90  1  0  0  0  0
 26 27  1  0  0  0  0
 26 91  1  0  0  0  0
 26 92  1  0  0  0  0
 27 28  1  0  0  0  0
 27 93  1  0  0  0  0
 27 94  1  0  0  0  0
 28 29  1  0  0  0  0
 28 95  1  0  0  0  0
 28 96  1  0  0  0  0
 29 30  1  0  0  0  0
 29 97  1  0  0  0  0
 29 98  1  0  0  0  0
 30 99  1  0  0  0  0
 30100  1  0  0  0  0
 30101  1  0  0  0  0
 31 32  1  0  0  0  0
 32 33  1  0  0  0  0
 32102  1  0  0  0  0
 32103  1  0  0  0  0
 33 34  1  0  0  0  0
 33104  1  0  0  0  0
 33105  1  0  0  0  0
 34 35  1  0  0  0  0
 34106  1  0  0  0  0
 34107  1  0  0  0  0
 35 36  1  0  0  0  0
 35108  1  0  0  0  0
 35109  1  0  0  0  0
 36 37  1  0  0  0  0
 36110  1  0  0  0  0
 36111  1  0  0  0  0
 37 38  1  0  0  0  0
 37112  1  0  0  0  0
 37113  1  0  0  0  0
 38 39  1  0  0  0  0
 38114  1  0  0  0  0
 38115  1  0  0  0  0
 39 40  1  0  0  0  0
 39116  1  0  0  0  0
 39117  1  0  0  0  0
 40 41  1  0  0  0  0
 40118  1  0  0  0  0
 40119  1  0  0  0  0
 41 42  1  0  0  0  0
 41120  1  0  0  0  0
 41121  1  0  0  0  0
 42 43  1  0  0  0  0
 42122  1  0  0  0  0
 42123  1  0  0  0  0
 43 44  1  0  0  0  0
 43124  1  0  0  0  0
 43125  1  0  0  0  0
 44 45  1  0  0  0  0
 44126  1  0  0  0  0
 44127  1  0  0  0  0
 45 46  2  0  0  0  0
 45128  1  0  0  0  0
 46 47  1  0  0  0  0
 46129  1  0  0  0  0
 47 48  1  0  0  0  0
 47130  1  0  0  0  0
 47131  1  0  0  0  0
 48 49  1  0  0  0  0
 48132  1  0  0  0  0
 48133  1  0  0  0  0
 49 50  1  0  0  0  0
 49134  1  0  0  0  0
 49135  1  0  0  0  0
 50 51  1  0  0  0  0
 50136  1  0  0  0  0
 50137  1  0  0  0  0
 51 52  1  0  0  0  0
 51138  1  0  0  0  0
 51139  1  0  0  0  0
 52 53  1  0  0  0  0
 52140  1  0  0  0  0
 52141  1  0  0  0  0
 53 54  1  0  0  0  0
 53142  1  0  0  0  0
 53143  1  0  0  0  0
 54144  1  0  0  0  0
 54145  1  0  0  0  0
 54146  1  0  0  0  0
 55 56  1  0  0  0  0
 55147  1  6  0  0  0
 56 57  1  0  0  0  0
 56148  1  1  0  0  0
 57 58  1  0  0  0  0
 57149  1  6  0  0  0
 58 59  1  0  0  0  0
 58150  1  1  0  0  0
 59 60  1  0  0  0  0
 59151  1  6  0  0  0
 60152  1  0  0  0  0
 60153  1  0  0  0  0
M  CHG  1  21  -1
M  END
$$$$