/media/chris/experiments/cd1a-new-docking/inputs/ligands/7ryn_ligand.pdb
 OpenBabel07032312553D

153153  0  0  1  0  0  0  0  0999 V2000
  -33.0340   65.1330   62.2120 N   0  0  0  0  0  0  0  0  0  0  0  0
  -32.0220   67.3480   62.3220 C   0  0  0  0  0  0  0  0  0  0  0  0
  -31.4051   67.0024   63.5673 O   0  0  0  0  0  0  0  0  0  0  0  0
  -32.1830   66.0840   61.5030 C   0  0  1  0  0  0  0  0  0  0  0  0
  -30.2154   65.0225   62.4176 O   0  0  0  0  0  0  0  0  0  0  0  0
  -30.8310   65.4230   61.1900 C   0  0  2  0  0  0  0  0  0  0  0  0
  -32.4714   65.8137   64.2827 O   0  0  0  0  0  0  0  0  0  0  0  0
  -29.9369   66.3439   60.4177 C   0  0  0  0  0  0  0  0  0  0  0  0
  -31.4046   66.6220   66.3415 O   0  0  0  0  0  0  0  0  0  0  0  0
  -28.6200   66.3494   60.4787 C   0  0  0  0  0  0  0  0  0  0  0  0
  -29.4155   68.1261   67.6954 O   0  0  0  0  0  0  0  0  0  0  0  0
  -27.7547   67.2714   59.6837 C   0  0  0  0  0  0  0  0  0  0  0  0
  -28.1411   69.3260   65.5933 O   0  0  0  0  0  0  0  0  0  0  0  0
  -26.4595   67.5927   60.4323 C   0  0  0  0  0  0  0  0  0  0  0  0
  -30.3909   69.0606   63.8198 O   0  0  0  0  0  0  0  0  0  0  0  0
  -25.5312   68.5419   59.6922 C   0  0  0  0  0  0  0  0  0  0  0  0
  -28.1534   70.6686   63.3778 O   0  0  0  0  0  0  0  0  0  0  0  0
  -24.2371   68.8490   60.4262 C   0  0  0  0  0  0  0  0  0  0  0  0
  -28.1457   70.0889   68.2805 O   0  0  0  0  0  0  0  0  0  0  0  0
  -23.3203   69.8130   59.6873 C   0  0  0  0  0  0  0  0  0  0  0  0
  -28.4860   68.2421   69.9506 O   0  5  0  0  0  0  0  0  0  0  0  0
  -22.8949   69.3193   58.3130 C   0  0  0  0  0  0  0  0  0  0  0  0
  -30.2585   69.6783   69.2930 O   0  0  0  0  0  0  0  0  0  0  0  0
  -21.9664   70.2722   57.5810 C   0  0  0  0  0  0  0  0  0  0  0  0
  -22.5560   71.6502   57.3445 C   0  0  0  0  0  0  0  0  0  0  0  0
  -22.9169   72.3923   58.6199 C   0  0  0  0  0  0  0  0  0  0  0  0
  -21.7223   72.6353   59.5234 C   0  0  0  0  0  0  0  0  0  0  0  0
  -20.6239   73.4732   58.8975 C   0  0  0  0  0  0  0  0  0  0  0  0
  -21.0986   74.8596   58.5088 C   0  0  0  0  0  0  0  0  0  0  0  0
  -21.5951   75.6573   59.6968 C   0  0  0  0  0  0  0  0  0  0  0  0
  -33.1122   65.0716   63.5440 C   0  0  0  0  0  0  0  0  0  0  0  0
  -34.0520   64.0283   64.0950 C   0  0  0  0  0  0  0  0  0  0  0  0
  -35.2217   63.7435   63.1616 C   0  0  0  0  0  0  0  0  0  0  0  0
  -36.0602   64.9795   62.8779 C   0  0  0  0  0  0  0  0  0  0  0  0
  -35.2911   66.1048   62.2061 C   0  0  0  0  0  0  0  0  0  0  0  0
  -36.1272   67.3473   61.9383 C   0  0  0  0  0  0  0  0  0  0  0  0
  -37.3356   67.1002   61.0441 C   0  0  0  0  0  0  0  0  0  0  0  0
  -36.9824   66.5529   59.6671 C   0  0  0  0  0  0  0  0  0  0  0  0
  -38.1817   66.3158   58.7528 C   0  0  0  0  0  0  0  0  0  0  0  0
  -37.8161   65.7510   57.3811 C   0  0  0  0  0  0  0  0  0  0  0  0
  -37.1152   64.3931   57.4174 C   0  0  0  0  0  0  0  0  0  0  0  0
  -36.7464   63.8610   56.0324 C   0  0  0  0  0  0  0  0  0  0  0  0
  -35.7875   64.7440   55.2341 C   0  0  0  0  0  0  0  0  0  0  0  0
  -34.4221   64.9698   55.8888 C   0  0  0  0  0  0  0  0  0  0  0  0
  -34.5230   65.6171   57.2398 C   0  0  0  0  0  0  0  0  0  0  0  0
  -33.9917   66.7751   57.5898 C   0  0  0  0  0  0  0  0  0  0  0  0
  -33.1835   67.6772   56.7070 C   0  0  0  0  0  0  0  0  0  0  0  0
  -32.6907   68.9441   57.4095 C   0  0  0  0  0  0  0  0  0  0  0  0
  -31.7854   68.6589   58.6005 C   0  0  0  0  0  0  0  0  0  0  0  0
  -31.3070   69.9194   59.3122 C   0  0  0  0  0  0  0  0  0  0  0  0
  -30.3849   69.6629   60.4987 C   0  0  0  0  0  0  0  0  0  0  0  0
  -29.9309   70.9312   61.2075 C   0  0  0  0  0  0  0  0  0  0  0  0
  -29.1733   71.9041   60.3179 C   0  0  0  0  0  0  0  0  0  0  0  0
  -28.7206   73.1475   61.0560 C   0  0  0  0  0  0  0  0  0  0  0  0
  -31.2104   68.0828   64.4327 C   0  0  2  0  0  0  0  0  0  0  0  0
  -30.5480   67.5584   65.7001 C   0  0  1  0  0  0  0  0  0  0  0  0
  -30.2364   68.7171   66.6389 C   0  0  2  0  0  0  0  0  0  0  0  0
  -29.4420   69.8007   65.9249 C   0  0  2  0  0  0  0  0  0  0  0  0
  -30.1703   70.2134   64.6482 C   0  0  1  0  0  0  0  0  0  0  0  0
  -29.3950   71.2080   63.8163 C   0  0  0  0  0  0  0  0  0  0  0  0
  -28.9132   69.0600   68.8784 S   0  0  0  0  0  0  0  0  0  0  0  0
  -33.5772   64.5058   61.6821 H   0  0  0  0  0  0  0  0  0  0  0  0
  -31.4053   68.0450   61.7940 H   0  0  0  0  0  0  0  0  0  0  0  0
  -32.9770   67.7979   62.4965 H   0  0  0  0  0  0  0  0  0  0  0  0
  -32.6374   66.3625   60.5752 H   0  0  0  0  0  0  0  0  0  0  0  0
  -30.8116   64.4280   62.8994 H   0  0  0  0  0  0  0  0  0  0  0  0
  -30.9971   64.5628   60.5757 H   0  0  0  0  0  0  0  0  0  0  0  0
  -30.3869   67.0273   59.7888 H   0  0  0  0  0  0  0  0  0  0  0  0
  -31.5955   65.8899   65.7345 H   0  0  0  0  0  0  0  0  0  0  0  0
  -28.1601   65.6775   61.1128 H   0  0  0  0  0  0  0  0  0  0  0  0
  -28.2879   68.1809   59.5014 H   0  0  0  0  0  0  0  0  0  0  0  0
  -27.5040   66.7913   58.7609 H   0  0  0  0  0  0  0  0  0  0  0  0
  -27.6765   69.0633   66.4032 H   0  0  0  0  0  0  0  0  0  0  0  0
  -25.9349   66.6761   60.6040 H   0  0  0  0  0  0  0  0  0  0  0  0
  -26.7426   68.0845   61.3395 H   0  0  0  0  0  0  0  0  0  0  0  0
  -26.0519   69.4627   59.5315 H   0  0  0  0  0  0  0  0  0  0  0  0
  -25.2579   68.0543   58.7798 H   0  0  0  0  0  0  0  0  0  0  0  0
  -27.6822   71.3306   62.8482 H   0  0  0  0  0  0  0  0  0  0  0  0
  -23.7090   67.9305   60.5760 H   0  0  0  0  0  0  0  0  0  0  0  0
  -24.5080   69.3231   61.3464 H   0  0  0  0  0  0  0  0  0  0  0  0
  -27.2864   69.7330   68.0054 H   0  0  0  0  0  0  0  0  0  0  0  0
  -22.4417   69.9643   60.2789 H   0  0  0  0  0  0  0  0  0  0  0  0
  -23.8723   70.7174   59.5379 H   0  0  0  0  0  0  0  0  0  0  0  0
  -23.7731   69.1797   57.7178 H   0  0  0  0  0  0  0  0  0  0  0  0
  -22.3531   68.4088   58.4624 H   0  0  0  0  0  0  0  0  0  0  0  0
  -30.5856   70.2488   68.5800 H   0  0  0  0  0  0  0  0  0  0  0  0
  -21.7242   69.8426   56.6314 H   0  0  0  0  0  0  0  0  0  0  0  0
  -21.1071   70.4064   58.2043 H   0  0  0  0  0  0  0  0  0  0  0  0
  -23.4428   71.5407   56.7559 H   0  0  0  0  0  0  0  0  0  0  0  0
  -21.8039   72.2292   56.8504 H   0  0  0  0  0  0  0  0  0  0  0  0
  -23.6391   71.8144   59.1578 H   0  0  0  0  0  0  0  0  0  0  0  0
  -23.3023   73.3490   58.3351 H   0  0  0  0  0  0  0  0  0  0  0  0
  -21.3074   71.6863   59.7922 H   0  0  0  0  0  0  0  0  0  0  0  0
  -22.0839   73.1861   60.3665 H   0  0  0  0  0  0  0  0  0  0  0  0
  -20.2695   72.9737   58.0202 H   0  0  0  0  0  0  0  0  0  0  0  0
  -19.8488   73.5883   59.6261 H   0  0  0  0  0  0  0  0  0  0  0  0
  -21.8966   74.7634   57.8024 H   0  0  0  0  0  0  0  0  0  0  0  0
  -20.2644   75.3835   58.0912 H   0  0  0  0  0  0  0  0  0  0  0  0
  -22.4321   75.1573   60.1376 H   0  0  0  0  0  0  0  0  0  0  0  0
  -21.8926   76.6326   59.3724 H   0  0  0  0  0  0  0  0  0  0  0  0
  -20.8112   75.7457   60.4198 H   0  0  0  0  0  0  0  0  0  0  0  0
  -34.4370   64.3740   65.0315 H   0  0  0  0  0  0  0  0  0  0  0  0
  -33.4981   63.1198   64.2077 H   0  0  0  0  0  0  0  0  0  0  0  0
  -35.8470   63.0017   63.6129 H   0  0  0  0  0  0  0  0  0  0  0  0
  -34.8173   63.4064   62.2300 H   0  0  0  0  0  0  0  0  0  0  0  0
  -36.4479   65.3438   63.8062 H   0  0  0  0  0  0  0  0  0  0  0  0
  -36.8316   64.6821   62.1987 H   0  0  0  0  0  0  0  0  0  0  0  0
  -34.9138   65.7446   61.2719 H   0  0  0  0  0  0  0  0  0  0  0  0
  -34.5112   66.3939   62.8794 H   0  0  0  0  0  0  0  0  0  0  0  0
  -35.5033   68.0774   61.4666 H   0  0  0  0  0  0  0  0  0  0  0  0
  -36.5042   67.6764   62.8840 H   0  0  0  0  0  0  0  0  0  0  0  0
  -37.8546   68.0270   60.9154 H   0  0  0  0  0  0  0  0  0  0  0  0
  -37.9345   66.3580   61.5292 H   0  0  0  0  0  0  0  0  0  0  0  0
  -36.4732   65.6210   59.7985 H   0  0  0  0  0  0  0  0  0  0  0  0
  -36.3787   67.2964   59.1901 H   0  0  0  0  0  0  0  0  0  0  0  0
  -38.6847   67.2492   58.6090 H   0  0  0  0  0  0  0  0  0  0  0  0
  -38.7978   65.5852   59.2339 H   0  0  0  0  0  0  0  0  0  0  0  0
  -37.1665   66.4488   56.8953 H   0  0  0  0  0  0  0  0  0  0  0  0
  -38.7383   65.6020   56.8593 H   0  0  0  0  0  0  0  0  0  0  0  0
  -37.7673   63.6877   57.8888 H   0  0  0  0  0  0  0  0  0  0  0  0
  -36.2013   64.5245   57.9581 H   0  0  0  0  0  0  0  0  0  0  0  0
  -37.6485   63.7549   55.4668 H   0  0  0  0  0  0  0  0  0  0  0  0
  -36.2348   62.9354   56.1948 H   0  0  0  0  0  0  0  0  0  0  0  0
  -36.2516   65.6981   55.0957 H   0  0  0  0  0  0  0  0  0  0  0  0
  -35.5982   64.2277   54.3162 H   0  0  0  0  0  0  0  0  0  0  0  0
  -33.8374   65.5994   55.2512 H   0  0  0  0  0  0  0  0  0  0  0  0
  -33.9682   64.0105   56.0251 H   0  0  0  0  0  0  0  0  0  0  0  0
  -35.0572   65.1101   57.9626 H   0  0  0  0  0  0  0  0  0  0  0  0
  -34.1477   67.0874   58.5609 H   0  0  0  0  0  0  0  0  0  0  0  0
  -33.7897   67.9667   55.8742 H   0  0  0  0  0  0  0  0  0  0  0  0
  -32.3156   67.1273   56.4083 H   0  0  0  0  0  0  0  0  0  0  0  0
  -33.5414   69.4945   57.7537 H   0  0  0  0  0  0  0  0  0  0  0  0
  -32.1138   69.4971   56.6980 H   0  0  0  0  0  0  0  0  0  0  0  0
  -30.9290   68.1191   58.2540 H   0  0  0  0  0  0  0  0  0  0  0  0
  -32.3596   68.0959   59.3063 H   0  0  0  0  0  0  0  0  0  0  0  0
  -32.1662   70.4506   59.6652 H   0  0  0  0  0  0  0  0  0  0  0  0
  -30.7366   70.4750   58.5975 H   0  0  0  0  0  0  0  0  0  0  0  0
  -29.5179   69.1441   60.1465 H   0  0  0  0  0  0  0  0  0  0  0  0
  -30.9430   69.0905   61.2099 H   0  0  0  0  0  0  0  0  0  0  0  0
  -29.2925   70.6519   62.0195 H   0  0  0  0  0  0  0  0  0  0  0  0
  -30.8165   71.4365   61.5320 H   0  0  0  0  0  0  0  0  0  0  0  0
  -29.8128   72.1990   59.5123 H   0  0  0  0  0  0  0  0  0  0  0  0
  -28.2963   71.4018   59.9665 H   0  0  0  0  0  0  0  0  0  0  0  0
  -29.5757   73.6760   61.4223 H   0  0  0  0  0  0  0  0  0  0  0  0
  -28.1705   73.7778   60.3889 H   0  0  0  0  0  0  0  0  0  0  0  0
  -28.0957   72.8667   61.8779 H   0  0  0  0  0  0  0  0  0  0  0  0
  -32.1486   68.5400   64.6687 H   0  0  0  0  0  0  0  0  0  0  0  0
  -29.6327   67.0681   65.4416 H   0  0  0  0  0  0  0  0  0  0  0  0
  -31.1294   69.1768   67.0080 H   0  0  0  0  0  0  0  0  0  0  0  0
  -29.3488   70.6437   66.5772 H   0  0  0  0  0  0  0  0  0  0  0  0
  -31.0858   70.6667   64.9665 H   0  0  0  0  0  0  0  0  0  0  0  0
  -29.9792   71.4753   62.9606 H   0  0  0  0  0  0  0  0  0  0  0  0
  -29.1918   72.0657   64.4231 H   0  0  0  0  0  0  0  0  0  0  0  0
  1  4  1  0  0  0  0
  1 31  1  0  0  0  0
  1 62  1  0  0  0  0
  2  3  1  0  0  0  0
  2  4  1  0  0  0  0
  2 63  1  0  0  0  0
  2 64  1  0  0  0  0
  3 55  1  0  0  0  0
  4  6  1  0  0  0  0
  4 65  1  6  0  0  0
  5  6  1  0  0  0  0
  5 66  1  0  0  0  0
  6  8  1  0  0  0  0
  6 67  1  6  0  0  0
  7 31  2  0  0  0  0
  8 10  2  0  0  0  0
  8 68  1  0  0  0  0
  9 56  1  0  0  0  0
  9 69  1  0  0  0  0
 10 12  1  0  0  0  0
 10 70  1  0  0  0  0
 11 57  1  0  0  0  0
 11 61  1  0  0  0  0
 12 14  1  0  0  0  0
 12 71  1  0  0  0  0
 12 72  1  0  0  0  0
 13 58  1  0  0  0  0
 13 73  1  0  0  0  0
 14 16  1  0  0  0  0
 14 74  1  0  0  0  0
 14 75  1  0  0  0  0
 15 55  1  0  0  0  0
 15 59  1  0  0  0  0
 16 18  1  0  0  0  0
 16 76  1  0  0  0  0
 16 77  1  0  0  0  0
 17 60  1  0  0  0  0
 17 78  1  0  0  0  0
 18 20  1  0  0  0  0
 18 79  1  0  0  0  0
 18 80  1  0  0  0  0
 19 61  1  0  0  0  0
 19 81  1  0  0  0  0
 20 22  1  0  0  0  0
 20 82  1  0  0  0  0
 20 83  1  0  0  0  0
 21 61  1  0  0  0  0
 22 24  1  0  0  0  0
 22 84  1  0  0  0  0
 22 85  1  0  0  0  0
 23 61  1  0  0  0  0
 23 86  1  0  0  0  0
 24 25  1  0  0  0  0
 24 87  1  0  0  0  0
 24 88  1  0  0  0  0
 25 26  1  0  0  0  0
 25 89  1  0  0  0  0
 25 90  1  0  0  0  0
 26 27  1  0  0  0  0
 26 91  1  0  0  0  0
 26 92  1  0  0  0  0
 27 28  1  0  0  0  0
 27 93  1  0  0  0  0
 27 94  1  0  0  0  0
 28 29  1  0  0  0  0
 28 95  1  0  0  0  0
 28 96  1  0  0  0  0
 29 30  1  0  0  0  0
 29 97  1  0  0  0  0
 29 98  1  0  0  0  0
 30 99  1  0  0  0  0
 30100  1  0  0  0  0
 30101  1  0  0  0  0
 31 32  1  0  0  0  0
 32 33  1  0  0  0  0
 32102  1  0  0  0  0
 32103  1  0  0  0  0
 33 34  1  0  0  0  0
 33104  1  0  0  0  0
 33105  1  0  0  0  0
 34 35  1  0  0  0  0
 34106  1  0  0  0  0
 34107  1  0  0  0  0
 35 36  1  0  0  0  0
 35108  1  0  0  0  0
 35109  1  0  0  0  0
 36 37  1  0  0  0  0
 36110  1  0  0  0  0
 36111  1  0  0  0  0
 37 38  1  0  0  0  0
 37112  1  0  0  0  0
 37113  1  0  0  0  0
 38 39  1  0  0  0  0
 38114  1  0  0  0  0
 38115  1  0  0  0  0
 39 40  1  0  0  0  0
 39116  1  0  0  0  0
 39117  1  0  0  0  0
 40 41  1  0  0  0  0
 40118  1  0  0  0  0
 40119  1  0  0  0  0
 41 42  1  0  0  0  0
 41120  1  0  0  0  0
 41121  1  0  0  0  0
 42 43  1  0  0  0  0
 42122  1  0  0  0  0
 42123  1  0  0  0  0
 43 44  1  0  0  0  0
 43124  1  0  0  0  0
 43125  1  0  0  0  0
 44 45  1  0  0  0  0
 44126  1  0  0  0  0
 44127  1  0  0  0  0
 45 46  2  0  0  0  0
 45128  1  0  0  0  0
 46 47  1  0  0  0  0
 46129  1  0  0  0  0
 47 48  1  0  0  0  0
 47130  1  0  0  0  0
 47131  1  0  0  0  0
 48 49  1  0  0  0  0
 48132  1  0  0  0  0
 48133  1  0  0  0  0
 49 50  1  0  0  0  0
 49134  1  0  0  0  0
 49135  1  0  0  0  0
 50 51  1  0  0  0  0
 50136  1  0  0  0  0
 50137  1  0  0  0  0
 51 52  1  0  0  0  0
 51138  1  0  0  0  0
 51139  1  0  0  0  0
 52 53  1  0  0  0  0
 52140  1  0  0  0  0
 52141  1  0  0  0  0
 53 54  1  0  0  0  0
 53142  1  0  0  0  0
 53143  1  0  0  0  0
 54144  1  0  0  0  0
 54145  1  0  0  0  0
 54146  1  0  0  0  0
 55 56  1  0  0  0  0
 55147  1  1  0  0  0
 56 57  1  0  0  0  0
 56148  1  6  0  0  0
 57 58  1  0  0  0  0
 57149  1  1  0  0  0
 58 59  1  0  0  0  0
 58150  1  1  0  0  0
 59 60  1  0  0  0  0
 59151  1  1  0  0  0
 60152  1  0  0  0  0
 60153  1  0  0  0  0
M  CHG  1  21  -1
M  END
$$$$