/media/chris/experiments/cd1a-new-docking/inputs/ligands/7ryn_ligand.pdb
 OpenBabel07032312553D

153153  0  0  1  0  0  0  0  0999 V2000
  -33.0340   65.1330   62.2120 N   0  0  0  0  0  0  0  0  0  0  0  0
  -32.0220   67.3480   62.3220 C   0  0  0  0  0  0  0  0  0  0  0  0
  -31.4051   67.0024   63.5673 O   0  0  0  0  0  0  0  0  0  0  0  0
  -32.1830   66.0840   61.5030 C   0  0  1  0  0  0  0  0  0  0  0  0
  -29.9992   66.3678   60.5104 O   0  0  0  0  0  0  0  0  0  0  0  0
  -30.8310   65.4230   61.1900 C   0  0  2  0  0  0  0  0  0  0  0  0
  -33.3937   66.4369   64.0115 O   0  0  0  0  0  0  0  0  0  0  0  0
  -31.0055   64.1786   60.3744 C   0  0  0  0  0  0  0  0  0  0  0  0
  -31.4046   66.6220   66.3415 O   0  0  0  0  0  0  0  0  0  0  0  0
  -30.1335   63.7170   59.5000 C   0  0  0  0  0  0  0  0  0  0  0  0
  -29.4155   68.1261   67.6954 O   0  0  0  0  0  0  0  0  0  0  0  0
  -30.3302   62.4635   58.7122 C   0  0  0  0  0  0  0  0  0  0  0  0
  -28.1411   69.3260   65.5933 O   0  0  0  0  0  0  0  0  0  0  0  0
  -31.0342   62.7525   57.3848 C   0  0  0  0  0  0  0  0  0  0  0  0
  -30.3909   69.0606   63.8198 O   0  0  0  0  0  0  0  0  0  0  0  0
  -31.2858   61.5199   56.5316 C   0  0  0  0  0  0  0  0  0  0  0  0
  -28.1534   70.6686   63.3778 O   0  0  0  0  0  0  0  0  0  0  0  0
  -31.9695   61.8068   55.2057 C   0  0  0  0  0  0  0  0  0  0  0  0
  -29.0352   66.5764   69.5011 O   0  0  0  0  0  0  0  0  0  0  0  0
  -32.2335   60.5665   54.3645 C   0  0  0  0  0  0  0  0  0  0  0  0
  -30.6879   66.0419   67.6849 O   0  5  0  0  0  0  0  0  0  0  0  0
  -32.9027   60.8636   53.0314 C   0  0  0  0  0  0  0  0  0  0  0  0
  -31.1144   67.7162   69.3133 O   0  0  0  0  0  0  0  0  0  0  0  0
  -34.2476   61.5566   53.1630 C   0  0  0  0  0  0  0  0  0  0  0  0
  -35.2734   60.7697   53.9573 C   0  0  0  0  0  0  0  0  0  0  0  0
  -35.5867   59.4026   53.3739 C   0  0  0  0  0  0  0  0  0  0  0  0
  -34.3733   58.4939   53.3065 C   0  0  0  0  0  0  0  0  0  0  0  0
  -34.6480   57.1255   52.7129 C   0  0  0  0  0  0  0  0  0  0  0  0
  -33.4134   56.2460   52.6807 C   0  0  0  0  0  0  0  0  0  0  0  0
  -32.8494   55.9868   54.0624 C   0  0  0  0  0  0  0  0  0  0  0  0
  -33.5723   65.3825   63.4087 C   0  0  0  0  0  0  0  0  0  0  0  0
  -34.4300   64.2814   63.9806 C   0  0  0  0  0  0  0  0  0  0  0  0
  -35.8645   64.7283   64.2323 C   0  0  0  0  0  0  0  0  0  0  0  0
  -36.7270   63.6254   64.8247 C   0  0  0  0  0  0  0  0  0  0  0  0
  -36.2366   63.1148   66.1694 C   0  0  0  0  0  0  0  0  0  0  0  0
  -36.1963   64.1802   67.2546 C   0  0  0  0  0  0  0  0  0  0  0  0
  -37.5526   64.8009   67.5644 C   0  0  0  0  0  0  0  0  0  0  0  0
  -38.5889   63.8018   68.0629 C   0  0  0  0  0  0  0  0  0  0  0  0
  -38.2097   63.0886   69.3583 C   0  0  0  0  0  0  0  0  0  0  0  0
  -38.0072   64.0256   70.5480 C   0  0  0  0  0  0  0  0  0  0  0  0
  -36.9174   65.0791   70.3510 C   0  0  0  0  0  0  0  0  0  0  0  0
  -36.7256   65.9908   71.5632 C   0  0  0  0  0  0  0  0  0  0  0  0
  -37.9646   66.7833   71.9795 C   0  0  0  0  0  0  0  0  0  0  0  0
  -38.5265   67.7148   70.9022 C   0  0  0  0  0  0  0  0  0  0  0  0
  -37.5338   68.7447   70.4459 C   0  0  0  0  0  0  0  0  0  0  0  0
  -37.4686   69.2828   69.2410 C   0  0  0  0  0  0  0  0  0  0  0  0
  -38.3748   68.9753   68.0876 C   0  0  0  0  0  0  0  0  0  0  0  0
  -38.5789   70.1551   67.1348 C   0  0  0  0  0  0  0  0  0  0  0  0
  -39.5145   69.8381   65.9757 C   0  0  0  0  0  0  0  0  0  0  0  0
  -39.0328   68.6802   65.1088 C   0  0  0  0  0  0  0  0  0  0  0  0
  -38.8924   67.3543   65.8477 C   0  0  0  0  0  0  0  0  0  0  0  0
  -40.1957   66.8459   66.4476 C   0  0  0  0  0  0  0  0  0  0  0  0
  -40.0631   65.5322   67.2015 C   0  0  0  0  0  0  0  0  0  0  0  0
  -41.3795   65.0444   67.7717 C   0  0  0  0  0  0  0  0  0  0  0  0
  -31.2104   68.0828   64.4327 C   0  0  2  0  0  0  0  0  0  0  0  0
  -30.5480   67.5584   65.7001 C   0  0  1  0  0  0  0  0  0  0  0  0
  -30.2364   68.7171   66.6389 C   0  0  2  0  0  0  0  0  0  0  0  0
  -29.4420   69.8007   65.9249 C   0  0  2  0  0  0  0  0  0  0  0  0
  -30.1703   70.2134   64.6482 C   0  0  1  0  0  0  0  0  0  0  0  0
  -29.3950   71.2080   63.8163 C   0  0  0  0  0  0  0  0  0  0  0  0
  -30.0256   66.9384   68.5560 S   0  0  0  0  0  0  0  0  0  0  0  0
  -33.2204   64.2647   61.7870 H   0  0  0  0  0  0  0  0  0  0  0  0
  -31.4053   68.0450   61.7940 H   0  0  0  0  0  0  0  0  0  0  0  0
  -32.9770   67.7979   62.4965 H   0  0  0  0  0  0  0  0  0  0  0  0
  -32.6374   66.3625   60.5752 H   0  0  0  0  0  0  0  0  0  0  0  0
  -29.9008   67.1635   61.0564 H   0  0  0  0  0  0  0  0  0  0  0  0
  -30.3647   65.1308   62.1077 H   0  0  0  0  0  0  0  0  0  0  0  0
  -31.8761   63.6408   60.5075 H   0  0  0  0  0  0  0  0  0  0  0  0
  -31.5955   65.8899   65.7345 H   0  0  0  0  0  0  0  0  0  0  0  0
  -29.2644   64.2531   59.3512 H   0  0  0  0  0  0  0  0  0  0  0  0
  -30.9260   61.7819   59.2827 H   0  0  0  0  0  0  0  0  0  0  0  0
  -29.3704   62.0393   58.5028 H   0  0  0  0  0  0  0  0  0  0  0  0
  -27.6765   69.0633   66.4032 H   0  0  0  0  0  0  0  0  0  0  0  0
  -30.4263   63.4309   56.8233 H   0  0  0  0  0  0  0  0  0  0  0  0
  -31.9935   63.1594   57.6278 H   0  0  0  0  0  0  0  0  0  0  0  0
  -31.9037   60.8471   57.0887 H   0  0  0  0  0  0  0  0  0  0  0  0
  -30.3265   61.1070   56.2989 H   0  0  0  0  0  0  0  0  0  0  0  0
  -27.6822   71.3306   62.8482 H   0  0  0  0  0  0  0  0  0  0  0  0
  -31.3463   62.4693   54.6422 H   0  0  0  0  0  0  0  0  0  0  0  0
  -32.9233   62.2341   55.4352 H   0  0  0  0  0  0  0  0  0  0  0  0
  -28.3292   66.0818   69.0563 H   0  0  0  0  0  0  0  0  0  0  0  0
  -32.8675   59.9089   54.9217 H   0  0  0  0  0  0  0  0  0  0  0  0
  -31.2821   60.1281   54.1462 H   0  0  0  0  0  0  0  0  0  0  0  0
  -33.0487   59.9388   52.5135 H   0  0  0  0  0  0  0  0  0  0  0  0
  -32.2577   61.5323   52.5006 H   0  0  0  0  0  0  0  0  0  0  0  0
  -30.6977   68.3443   69.9238 H   0  0  0  0  0  0  0  0  0  0  0  0
  -34.6379   61.7224   52.1806 H   0  0  0  0  0  0  0  0  0  0  0  0
  -34.0751   62.4674   53.6975 H   0  0  0  0  0  0  0  0  0  0  0  0
  -36.1799   61.3370   53.9920 H   0  0  0  0  0  0  0  0  0  0  0  0
  -34.8546   60.6047   54.9280 H   0  0  0  0  0  0  0  0  0  0  0  0
  -35.9694   59.5342   52.3834 H   0  0  0  0  0  0  0  0  0  0  0  0
  -36.3007   58.9354   54.0195 H   0  0  0  0  0  0  0  0  0  0  0  0
  -34.0007   58.3589   54.3004 H   0  0  0  0  0  0  0  0  0  0  0  0
  -33.6690   58.9722   52.6585 H   0  0  0  0  0  0  0  0  0  0  0  0
  -35.0053   57.2514   51.7122 H   0  0  0  0  0  0  0  0  0  0  0  0
  -35.3740   56.6427   53.3331 H   0  0  0  0  0  0  0  0  0  0  0  0
  -32.6637   56.7286   52.0891 H   0  0  0  0  0  0  0  0  0  0  0  0
  -33.6973   55.3026   52.2632 H   0  0  0  0  0  0  0  0  0  0  0  0
  -32.5555   56.9143   54.5075 H   0  0  0  0  0  0  0  0  0  0  0  0
  -31.9985   55.3427   53.9852 H   0  0  0  0  0  0  0  0  0  0  0  0
  -33.5959   55.5201   54.6706 H   0  0  0  0  0  0  0  0  0  0  0  0
  -34.0031   63.9607   64.9079 H   0  0  0  0  0  0  0  0  0  0  0  0
  -34.4586   63.4871   63.2642 H   0  0  0  0  0  0  0  0  0  0  0  0
  -36.2948   65.0375   63.3028 H   0  0  0  0  0  0  0  0  0  0  0  0
  -35.8337   65.5301   64.9402 H   0  0  0  0  0  0  0  0  0  0  0  0
  -36.7429   62.8048   64.1383 H   0  0  0  0  0  0  0  0  0  0  0  0
  -37.6981   64.0442   64.9871 H   0  0  0  0  0  0  0  0  0  0  0  0
  -35.2480   62.7258   66.0421 H   0  0  0  0  0  0  0  0  0  0  0  0
  -36.9327   62.3687   66.4915 H   0  0  0  0  0  0  0  0  0  0  0  0
  -35.5346   64.9589   66.9372 H   0  0  0  0  0  0  0  0  0  0  0  0
  -35.8651   63.6974   68.1502 H   0  0  0  0  0  0  0  0  0  0  0  0
  -37.9264   65.2569   66.6715 H   0  0  0  0  0  0  0  0  0  0  0  0
  -37.3981   65.5077   68.3528 H   0  0  0  0  0  0  0  0  0  0  0  0
  -38.7316   63.0617   67.3035 H   0  0  0  0  0  0  0  0  0  0  0  0
  -39.4755   64.3627   68.2729 H   0  0  0  0  0  0  0  0  0  0  0  0
  -37.2982   62.5531   69.1930 H   0  0  0  0  0  0  0  0  0  0  0  0
  -39.0270   62.4446   69.6074 H   0  0  0  0  0  0  0  0  0  0  0  0
  -37.7475   63.4322   71.3996 H   0  0  0  0  0  0  0  0  0  0  0  0
  -38.9259   64.5598   70.6725 H   0  0  0  0  0  0  0  0  0  0  0  0
  -37.1802   65.6853   69.5094 H   0  0  0  0  0  0  0  0  0  0  0  0
  -35.9963   64.5556   70.2016 H   0  0  0  0  0  0  0  0  0  0  0  0
  -35.9473   66.6883   71.3338 H   0  0  0  0  0  0  0  0  0  0  0  0
  -36.4919   65.3481   72.3861 H   0  0  0  0  0  0  0  0  0  0  0  0
  -37.7082   67.3774   72.8317 H   0  0  0  0  0  0  0  0  0  0  0  0
  -38.7287   66.0617   72.1803 H   0  0  0  0  0  0  0  0  0  0  0  0
  -39.3832   68.2184   71.2990 H   0  0  0  0  0  0  0  0  0  0  0  0
  -38.7769   67.1118   70.0545 H   0  0  0  0  0  0  0  0  0  0  0  0
  -36.8373   69.0619   71.1382 H   0  0  0  0  0  0  0  0  0  0  0  0
  -36.7246   69.9795   69.0790 H   0  0  0  0  0  0  0  0  0  0  0  0
  -39.3289   68.6853   68.4755 H   0  0  0  0  0  0  0  0  0  0  0  0
  -37.9093   68.1943   67.5234 H   0  0  0  0  0  0  0  0  0  0  0  0
  -37.6272   70.4378   66.7356 H   0  0  0  0  0  0  0  0  0  0  0  0
  -39.0297   70.9443   67.6994 H   0  0  0  0  0  0  0  0  0  0  0  0
  -39.6001   70.7096   65.3608 H   0  0  0  0  0  0  0  0  0  0  0  0
  -40.4537   69.5475   66.3979 H   0  0  0  0  0  0  0  0  0  0  0  0
  -38.0770   68.9404   64.7042 H   0  0  0  0  0  0  0  0  0  0  0  0
  -39.7789   68.5321   64.3562 H   0  0  0  0  0  0  0  0  0  0  0  0
  -38.1837   67.4823   66.6391 H   0  0  0  0  0  0  0  0  0  0  0  0
  -38.5754   66.6281   65.1286 H   0  0  0  0  0  0  0  0  0  0  0  0
  -40.8995   66.7077   65.6536 H   0  0  0  0  0  0  0  0  0  0  0  0
  -40.5134   67.5787   67.1597 H   0  0  0  0  0  0  0  0  0  0  0  0
  -39.3719   65.6688   68.0067 H   0  0  0  0  0  0  0  0  0  0  0  0
  -39.7219   64.7951   66.5049 H   0  0  0  0  0  0  0  0  0  0  0  0
  -41.7507   65.7603   68.4749 H   0  0  0  0  0  0  0  0  0  0  0  0
  -41.2293   64.1060   68.2635 H   0  0  0  0  0  0  0  0  0  0  0  0
  -42.0880   64.9224   66.9792 H   0  0  0  0  0  0  0  0  0  0  0  0
  -32.1486   68.5400   64.6687 H   0  0  0  0  0  0  0  0  0  0  0  0
  -29.6327   67.0681   65.4416 H   0  0  0  0  0  0  0  0  0  0  0  0
  -31.1294   69.1768   67.0080 H   0  0  0  0  0  0  0  0  0  0  0  0
  -29.3488   70.6437   66.5772 H   0  0  0  0  0  0  0  0  0  0  0  0
  -31.0858   70.6667   64.9665 H   0  0  0  0  0  0  0  0  0  0  0  0
  -29.9792   71.4753   62.9606 H   0  0  0  0  0  0  0  0  0  0  0  0
  -29.1918   72.0657   64.4231 H   0  0  0  0  0  0  0  0  0  0  0  0
  1  4  1  0  0  0  0
  1 31  1  0  0  0  0
  1 62  1  0  0  0  0
  2  3  1  0  0  0  0
  2  4  1  0  0  0  0
  2 63  1  0  0  0  0
  2 64  1  0  0  0  0
  3 55  1  0  0  0  0
  4  6  1  0  0  0  0
  4 65  1  6  0  0  0
  5  6  1  0  0  0  0
  5 66  1  0  0  0  0
  6  8  1  0  0  0  0
  6 67  1  1  0  0  0
  7 31  2  0  0  0  0
  8 10  2  0  0  0  0
  8 68  1  0  0  0  0
  9 56  1  0  0  0  0
  9 69  1  0  0  0  0
 10 12  1  0  0  0  0
 10 70  1  0  0  0  0
 11 57  1  0  0  0  0
 11 61  1  0  0  0  0
 12 14  1  0  0  0  0
 12 71  1  0  0  0  0
 12 72  1  0  0  0  0
 13 58  1  0  0  0  0
 13 73  1  0  0  0  0
 14 16  1  0  0  0  0
 14 74  1  0  0  0  0
 14 75  1  0  0  0  0
 15 55  1  0  0  0  0
 15 59  1  0  0  0  0
 16 18  1  0  0  0  0
 16 76  1  0  0  0  0
 16 77  1  0  0  0  0
 17 60  1  0  0  0  0
 17 78  1  0  0  0  0
 18 20  1  0  0  0  0
 18 79  1  0  0  0  0
 18 80  1  0  0  0  0
 19 61  1  0  0  0  0
 19 81  1  0  0  0  0
 20 22  1  0  0  0  0
 20 82  1  0  0  0  0
 20 83  1  0  0  0  0
 21 61  1  0  0  0  0
 22 24  1  0  0  0  0
 22 84  1  0  0  0  0
 22 85  1  0  0  0  0
 23 61  1  0  0  0  0
 23 86  1  0  0  0  0
 24 25  1  0  0  0  0
 24 87  1  0  0  0  0
 24 88  1  0  0  0  0
 25 26  1  0  0  0  0
 25 89  1  0  0  0  0
 25 90  1  0  0  0  0
 26 27  1  0  0  0  0
 26 91  1  0  0  0  0
 26 92  1  0  0  0  0
 27 28  1  0  0  0  0
 27 93  1  0  0  0  0
 27 94  1  0  0  0  0
 28 29  1  0  0  0  0
 28 95  1  0  0  0  0
 28 96  1  0  0  0  0
 29 30  1  0  0  0  0
 29 97  1  0  0  0  0
 29 98  1  0  0  0  0
 30 99  1  0  0  0  0
 30100  1  0  0  0  0
 30101  1  0  0  0  0
 31 32  1  0  0  0  0
 32 33  1  0  0  0  0
 32102  1  0  0  0  0
 32103  1  0  0  0  0
 33 34  1  0  0  0  0
 33104  1  0  0  0  0
 33105  1  0  0  0  0
 34 35  1  0  0  0  0
 34106  1  0  0  0  0
 34107  1  0  0  0  0
 35 36  1  0  0  0  0
 35108  1  0  0  0  0
 35109  1  0  0  0  0
 36 37  1  0  0  0  0
 36110  1  0  0  0  0
 36111  1  0  0  0  0
 37 38  1  0  0  0  0
 37112  1  0  0  0  0
 37113  1  0  0  0  0
 38 39  1  0  0  0  0
 38114  1  0  0  0  0
 38115  1  0  0  0  0
 39 40  1  0  0  0  0
 39116  1  0  0  0  0
 39117  1  0  0  0  0
 40 41  1  0  0  0  0
 40118  1  0  0  0  0
 40119  1  0  0  0  0
 41 42  1  0  0  0  0
 41120  1  0  0  0  0
 41121  1  0  0  0  0
 42 43  1  0  0  0  0
 42122  1  0  0  0  0
 42123  1  0  0  0  0
 43 44  1  0  0  0  0
 43124  1  0  0  0  0
 43125  1  0  0  0  0
 44 45  1  0  0  0  0
 44126  1  0  0  0  0
 44127  1  0  0  0  0
 45 46  2  0  0  0  0
 45128  1  0  0  0  0
 46 47  1  0  0  0  0
 46129  1  0  0  0  0
 47 48  1  0  0  0  0
 47130  1  0  0  0  0
 47131  1  0  0  0  0
 48 49  1  0  0  0  0
 48132  1  0  0  0  0
 48133  1  0  0  0  0
 49 50  1  0  0  0  0
 49134  1  0  0  0  0
 49135  1  0  0  0  0
 50 51  1  0  0  0  0
 50136  1  0  0  0  0
 50137  1  0  0  0  0
 51 52  1  0  0  0  0
 51138  1  0  0  0  0
 51139  1  0  0  0  0
 52 53  1  0  0  0  0
 52140  1  0  0  0  0
 52141  1  0  0  0  0
 53 54  1  0  0  0  0
 53142  1  0  0  0  0
 53143  1  0  0  0  0
 54144  1  0  0  0  0
 54145  1  0  0  0  0
 54146  1  0  0  0  0
 55 56  1  0  0  0  0
 55147  1  1  0  0  0
 56 57  1  0  0  0  0
 56148  1  6  0  0  0
 57 58  1  0  0  0  0
 57149  1  1  0  0  0
 58 59  1  0  0  0  0
 58150  1  1  0  0  0
 59 60  1  0  0  0  0
 59151  1  1  0  0  0
 60152  1  0  0  0  0
 60153  1  0  0  0  0
M  CHG  1  21  -1
M  END
$$$$