/media/chris/experiments/cd1a-new-docking/inputs/ligands/7ryn_ligand.pdb
 OpenBabel07032312553D

153153  0  0  1  0  0  0  0  0999 V2000
  -33.0340   65.1330   62.2120 N   0  0  0  0  0  0  0  0  0  0  0  0
  -32.0220   67.3480   62.3220 C   0  0  0  0  0  0  0  0  0  0  0  0
  -31.4051   67.0024   63.5673 O   0  0  0  0  0  0  0  0  0  0  0  0
  -32.1830   66.0840   61.5030 C   0  0  1  0  0  0  0  0  0  0  0  0
  -29.9992   66.3678   60.5104 O   0  0  0  0  0  0  0  0  0  0  0  0
  -30.8310   65.4230   61.1900 C   0  0  2  0  0  0  0  0  0  0  0  0
  -32.0656   63.2817   61.3736 O   0  0  0  0  0  0  0  0  0  0  0  0
  -31.0055   64.1786   60.3744 C   0  0  0  0  0  0  0  0  0  0  0  0
  -29.0472   68.5087   63.4560 O   0  0  0  0  0  0  0  0  0  0  0  0
  -30.0261   63.3955   59.9676 C   0  0  0  0  0  0  0  0  0  0  0  0
  -29.4663   71.3004   63.7442 O   0  0  0  0  0  0  0  0  0  0  0  0
  -30.2340   62.1517   59.1673 C   0  0  0  0  0  0  0  0  0  0  0  0
  -32.1950   71.4092   63.9043 O   0  0  0  0  0  0  0  0  0  0  0  0
  -31.7204   61.9178   58.8901 C   0  0  0  0  0  0  0  0  0  0  0  0
  -32.4523   68.6756   64.7639 O   0  0  0  0  0  0  0  0  0  0  0  0
  -32.3892   63.0299   58.0986 C   0  0  0  0  0  0  0  0  0  0  0  0
  -34.4603   69.1740   66.6572 O   0  0  0  0  0  0  0  0  0  0  0  0
  -31.7955   63.2592   56.7192 C   0  0  0  0  0  0  0  0  0  0  0  0
  -28.4817   73.4554   63.3041 O   0  0  0  0  0  0  0  0  0  0  0  0
  -32.4587   64.3851   55.9394 C   0  0  0  0  0  0  0  0  0  0  0  0
  -28.5846   72.5516   65.6468 O   0  5  0  0  0  0  0  0  0  0  0  0
  -32.3583   65.7414   56.6202 C   0  0  0  0  0  0  0  0  0  0  0  0
  -30.5292   73.2918   64.5035 O   0  0  0  0  0  0  0  0  0  0  0  0
  -32.9880   65.7808   58.0015 C   0  0  0  0  0  0  0  0  0  0  0  0
  -32.9064   67.1356   58.6797 C   0  0  0  0  0  0  0  0  0  0  0  0
  -31.4874   67.6411   58.8759 C   0  0  0  0  0  0  0  0  0  0  0  0
  -31.4282   68.9888   59.5707 C   0  0  0  0  0  0  0  0  0  0  0  0
  -30.0254   69.5309   59.7674 C   0  0  0  0  0  0  0  0  0  0  0  0
  -30.0126   70.8692   60.4796 C   0  0  0  0  0  0  0  0  0  0  0  0
  -30.7906   71.9321   59.7317 C   0  0  0  0  0  0  0  0  0  0  0  0
  -32.9097   63.8084   62.0927 C   0  0  0  0  0  0  0  0  0  0  0  0
  -33.8750   62.9864   62.9098 C   0  0  0  0  0  0  0  0  0  0  0  0
  -33.1693   62.0688   63.9001 C   0  0  0  0  0  0  0  0  0  0  0  0
  -32.2267   61.0878   63.2216 C   0  0  0  0  0  0  0  0  0  0  0  0
  -32.9080   60.1725   62.2180 C   0  0  0  0  0  0  0  0  0  0  0  0
  -34.0130   59.3159   62.8178 C   0  0  0  0  0  0  0  0  0  0  0  0
  -34.6869   58.3846   61.8182 C   0  0  0  0  0  0  0  0  0  0  0  0
  -35.3348   59.1056   60.6431 C   0  0  0  0  0  0  0  0  0  0  0  0
  -36.0293   58.1870   59.6410 C   0  0  0  0  0  0  0  0  0  0  0  0
  -36.6603   58.9203   58.4585 C   0  0  0  0  0  0  0  0  0  0  0  0
  -37.3743   58.0151   57.4549 C   0  0  0  0  0  0  0  0  0  0  0  0
  -38.5347   57.2274   58.0634 C   0  0  0  0  0  0  0  0  0  0  0  0
  -39.2640   56.2970   57.0944 C   0  0  0  0  0  0  0  0  0  0  0  0
  -38.3937   55.2005   56.4746 C   0  0  0  0  0  0  0  0  0  0  0  0
  -37.2316   55.7479   55.6973 C   0  0  0  0  0  0  0  0  0  0  0  0
  -36.6648   55.1852   54.6447 C   0  0  0  0  0  0  0  0  0  0  0  0
  -37.0702   53.8881   54.0130 C   0  0  0  0  0  0  0  0  0  0  0  0
  -35.9613   52.8336   54.0087 C   0  0  0  0  0  0  0  0  0  0  0  0
  -34.7087   53.2800   53.2664 C   0  0  0  0  0  0  0  0  0  0  0  0
  -34.9630   53.6240   51.8031 C   0  0  0  0  0  0  0  0  0  0  0  0
  -33.7219   54.0579   51.0317 C   0  0  0  0  0  0  0  0  0  0  0  0
  -33.9972   54.4137   49.5775 C   0  0  0  0  0  0  0  0  0  0  0  0
  -34.5959   53.2788   48.7618 C   0  0  0  0  0  0  0  0  0  0  0  0
  -33.7096   52.0504   48.7218 C   0  0  0  0  0  0  0  0  0  0  0  0
  -31.2104   68.0828   64.4327 C   0  0  2  0  0  0  0  0  0  0  0  0
  -30.3138   69.0941   63.7304 C   0  0  1  0  0  0  0  0  0  0  0  0
  -30.1449   70.3308   64.6038 C   0  0  2  0  0  0  0  0  0  0  0  0
  -31.4954   70.8877   65.0296 C   0  0  2  0  0  0  0  0  0  0  0  0
  -32.3266   69.7807   65.6732 C   0  0  1  0  0  0  0  0  0  0  0  0
  -33.7288   70.2187   66.0260 C   0  0  0  0  0  0  0  0  0  0  0  0
  -29.1081   72.7269   64.3444 S   0  0  0  0  0  0  0  0  0  0  0  0
  -33.7342   65.4854   62.8076 H   0  0  0  0  0  0  0  0  0  0  0  0
  -31.4053   68.0450   61.7940 H   0  0  0  0  0  0  0  0  0  0  0  0
  -32.9770   67.7979   62.4965 H   0  0  0  0  0  0  0  0  0  0  0  0
  -32.6374   66.3625   60.5752 H   0  0  0  0  0  0  0  0  0  0  0  0
  -29.9008   67.1635   61.0564 H   0  0  0  0  0  0  0  0  0  0  0  0
  -30.3647   65.1308   62.1077 H   0  0  0  0  0  0  0  0  0  0  0  0
  -31.9673   63.9138   60.1104 H   0  0  0  0  0  0  0  0  0  0  0  0
  -29.1677   67.7231   62.8999 H   0  0  0  0  0  0  0  0  0  0  0  0
  -29.0594   63.6571   60.2167 H   0  0  0  0  0  0  0  0  0  0  0  0
  -29.8442   61.3168   59.7112 H   0  0  0  0  0  0  0  0  0  0  0  0
  -29.7266   62.2606   58.2316 H   0  0  0  0  0  0  0  0  0  0  0  0
  -31.6684   72.1129   63.4939 H   0  0  0  0  0  0  0  0  0  0  0  0
  -32.2259   61.8229   59.8284 H   0  0  0  0  0  0  0  0  0  0  0  0
  -31.7862   61.0327   58.2924 H   0  0  0  0  0  0  0  0  0  0  0  0
  -32.3008   63.9385   58.6568 H   0  0  0  0  0  0  0  0  0  0  0  0
  -33.4058   62.7313   57.9491 H   0  0  0  0  0  0  0  0  0  0  0  0
  -35.3533   69.4873   66.8698 H   0  0  0  0  0  0  0  0  0  0  0  0
  -31.8952   62.3552   56.1555 H   0  0  0  0  0  0  0  0  0  0  0  0
  -30.7742   63.5432   56.8650 H   0  0  0  0  0  0  0  0  0  0  0  0
  -27.5791   73.1242   63.1756 H   0  0  0  0  0  0  0  0  0  0  0  0
  -33.4941   64.1455   55.8146 H   0  0  0  0  0  0  0  0  0  0  0  0
  -31.9430   64.4648   55.0052 H   0  0  0  0  0  0  0  0  0  0  0  0
  -32.8497   66.4654   56.0044 H   0  0  0  0  0  0  0  0  0  0  0  0
  -31.3166   65.9510   56.7460 H   0  0  0  0  0  0  0  0  0  0  0  0
  -30.9236   73.4264   63.6276 H   0  0  0  0  0  0  0  0  0  0  0  0
  -32.4880   65.0646   58.6196 H   0  0  0  0  0  0  0  0  0  0  0  0
  -34.0274   65.5612   57.8737 H   0  0  0  0  0  0  0  0  0  0  0  0
  -33.3730   67.0605   59.6397 H   0  0  0  0  0  0  0  0  0  0  0  0
  -33.3991   67.8349   58.0371 H   0  0  0  0  0  0  0  0  0  0  0  0
  -31.0220   67.7315   57.9166 H   0  0  0  0  0  0  0  0  0  0  0  0
  -30.9804   66.9363   59.5013 H   0  0  0  0  0  0  0  0  0  0  0  0
  -31.8867   68.8899   60.5324 H   0  0  0  0  0  0  0  0  0  0  0  0
  -31.9375   69.6827   58.9353 H   0  0  0  0  0  0  0  0  0  0  0  0
  -29.5658   69.6486   58.8084 H   0  0  0  0  0  0  0  0  0  0  0  0
  -29.4909   68.8335   60.3780 H   0  0  0  0  0  0  0  0  0  0  0  0
  -28.9982   71.1942   60.5812 H   0  0  0  0  0  0  0  0  0  0  0  0
  -30.4800   70.7346   61.4327 H   0  0  0  0  0  0  0  0  0  0  0  0
  -30.3461   72.0899   58.7712 H   0  0  0  0  0  0  0  0  0  0  0  0
  -30.7714   72.8459   60.2880 H   0  0  0  0  0  0  0  0  0  0  0  0
  -31.8038   71.6114   59.6074 H   0  0  0  0  0  0  0  0  0  0  0  0
  -34.4625   62.3872   62.2459 H   0  0  0  0  0  0  0  0  0  0  0  0
  -34.4833   63.6639   63.4719 H   0  0  0  0  0  0  0  0  0  0  0  0
  -33.9085   61.5153   64.4406 H   0  0  0  0  0  0  0  0  0  0  0  0
  -32.5826   62.6844   64.5496 H   0  0  0  0  0  0  0  0  0  0  0  0
  -31.7719   60.4809   63.9764 H   0  0  0  0  0  0  0  0  0  0  0  0
  -31.5130   61.6695   62.6766 H   0  0  0  0  0  0  0  0  0  0  0  0
  -32.1686   59.5232   61.7978 H   0  0  0  0  0  0  0  0  0  0  0  0
  -33.3661   60.8019   61.4839 H   0  0  0  0  0  0  0  0  0  0  0  0
  -34.7579   59.9658   63.2272 H   0  0  0  0  0  0  0  0  0  0  0  0
  -33.5553   58.6949   63.5593 H   0  0  0  0  0  0  0  0  0  0  0  0
  -35.4440   57.8298   62.3320 H   0  0  0  0  0  0  0  0  0  0  0  0
  -33.9210   57.7565   61.4134 H   0  0  0  0  0  0  0  0  0  0  0  0
  -34.5738   59.6507   60.1249 H   0  0  0  0  0  0  0  0  0  0  0  0
  -36.0948   59.7362   61.0549 H   0  0  0  0  0  0  0  0  0  0  0  0
  -36.7999   57.6507   60.1542 H   0  0  0  0  0  0  0  0  0  0  0  0
  -35.2760   57.5423   59.2387 H   0  0  0  0  0  0  0  0  0  0  0  0
  -35.8860   59.4468   57.9407 H   0  0  0  0  0  0  0  0  0  0  0  0
  -37.4076   59.5678   58.8675 H   0  0  0  0  0  0  0  0  0  0  0  0
  -36.6632   57.3201   57.0598 H   0  0  0  0  0  0  0  0  0  0  0  0
  -37.7864   58.6483   56.6971 H   0  0  0  0  0  0  0  0  0  0  0  0
  -39.2454   57.9283   58.4487 H   0  0  0  0  0  0  0  0  0  0  0  0
  -38.1064   56.5985   58.8158 H   0  0  0  0  0  0  0  0  0  0  0  0
  -39.6645   56.8920   56.3004 H   0  0  0  0  0  0  0  0  0  0  0  0
  -40.0150   55.7953   57.6683 H   0  0  0  0  0  0  0  0  0  0  0  0
  -38.9999   54.6149   55.8155 H   0  0  0  0  0  0  0  0  0  0  0  0
  -37.9964   54.6137   57.2763 H   0  0  0  0  0  0  0  0  0  0  0  0
  -36.8388   56.6478   56.0149 H   0  0  0  0  0  0  0  0  0  0  0  0
  -35.8692   55.6853   54.2181 H   0  0  0  0  0  0  0  0  0  0  0  0
  -37.3573   54.0806   53.0004 H   0  0  0  0  0  0  0  0  0  0  0  0
  -37.8750   53.4935   54.5973 H   0  0  0  0  0  0  0  0  0  0  0  0
  -36.3366   51.9480   53.5397 H   0  0  0  0  0  0  0  0  0  0  0  0
  -35.6822   52.6629   55.0274 H   0  0  0  0  0  0  0  0  0  0  0  0
  -33.9892   52.4892   53.3089 H   0  0  0  0  0  0  0  0  0  0  0  0
  -34.3587   54.1710   53.7443 H   0  0  0  0  0  0  0  0  0  0  0  0
  -35.6756   54.4214   51.7660 H   0  0  0  0  0  0  0  0  0  0  0  0
  -35.3142   52.7277   51.3359 H   0  0  0  0  0  0  0  0  0  0  0  0
  -33.0127   53.2570   51.0549 H   0  0  0  0  0  0  0  0  0  0  0  0
  -33.3536   54.9438   51.5055 H   0  0  0  0  0  0  0  0  0  0  0  0
  -33.0734   54.7034   49.1220 H   0  0  0  0  0  0  0  0  0  0  0  0
  -34.7204   55.2022   49.5850 H   0  0  0  0  0  0  0  0  0  0  0  0
  -34.7491   53.6221   47.7600 H   0  0  0  0  0  0  0  0  0  0  0  0
  -35.5153   52.9964   49.2308 H   0  0  0  0  0  0  0  0  0  0  0  0
  -32.7780   52.2978   48.2573 H   0  0  0  0  0  0  0  0  0  0  0  0
  -34.1943   51.2790   48.1607 H   0  0  0  0  0  0  0  0  0  0  0  0
  -33.5307   51.7071   49.7193 H   0  0  0  0  0  0  0  0  0  0  0  0
  -30.7515   67.7503   65.3403 H   0  0  0  0  0  0  0  0  0  0  0  0
  -30.7674   69.3839   62.8057 H   0  0  0  0  0  0  0  0  0  0  0  0
  -29.6019   70.1103   65.4990 H   0  0  0  0  0  0  0  0  0  0  0  0
  -31.3342   71.6761   65.7349 H   0  0  0  0  0  0  0  0  0  0  0  0
  -31.8112   69.5117   66.5715 H   0  0  0  0  0  0  0  0  0  0  0  0
  -33.6744   71.0553   66.6909 H   0  0  0  0  0  0  0  0  0  0  0  0
  -34.2350   70.4823   65.1209 H   0  0  0  0  0  0  0  0  0  0  0  0
  1  4  1  0  0  0  0
  1 31  1  0  0  0  0
  1 62  1  0  0  0  0
  2  3  1  0  0  0  0
  2  4  1  0  0  0  0
  2 63  1  0  0  0  0
  2 64  1  0  0  0  0
  3 55  1  0  0  0  0
  4  6  1  0  0  0  0
  4 65  1  6  0  0  0
  5  6  1  0  0  0  0
  5 66  1  0  0  0  0
  6  8  1  0  0  0  0
  6 67  1  1  0  0  0
  7 31  2  0  0  0  0
  8 10  2  0  0  0  0
  8 68  1  0  0  0  0
  9 56  1  0  0  0  0
  9 69  1  0  0  0  0
 10 12  1  0  0  0  0
 10 70  1  0  0  0  0
 11 57  1  0  0  0  0
 11 61  1  0  0  0  0
 12 14  1  0  0  0  0
 12 71  1  0  0  0  0
 12 72  1  0  0  0  0
 13 58  1  0  0  0  0
 13 73  1  0  0  0  0
 14 16  1  0  0  0  0
 14 74  1  0  0  0  0
 14 75  1  0  0  0  0
 15 55  1  0  0  0  0
 15 59  1  0  0  0  0
 16 18  1  0  0  0  0
 16 76  1  0  0  0  0
 16 77  1  0  0  0  0
 17 60  1  0  0  0  0
 17 78  1  0  0  0  0
 18 20  1  0  0  0  0
 18 79  1  0  0  0  0
 18 80  1  0  0  0  0
 19 61  1  0  0  0  0
 19 81  1  0  0  0  0
 20 22  1  0  0  0  0
 20 82  1  0  0  0  0
 20 83  1  0  0  0  0
 21 61  1  0  0  0  0
 22 24  1  0  0  0  0
 22 84  1  0  0  0  0
 22 85  1  0  0  0  0
 23 61  1  0  0  0  0
 23 86  1  0  0  0  0
 24 25  1  0  0  0  0
 24 87  1  0  0  0  0
 24 88  1  0  0  0  0
 25 26  1  0  0  0  0
 25 89  1  0  0  0  0
 25 90  1  0  0  0  0
 26 27  1  0  0  0  0
 26 91  1  0  0  0  0
 26 92  1  0  0  0  0
 27 28  1  0  0  0  0
 27 93  1  0  0  0  0
 27 94  1  0  0  0  0
 28 29  1  0  0  0  0
 28 95  1  0  0  0  0
 28 96  1  0  0  0  0
 29 30  1  0  0  0  0
 29 97  1  0  0  0  0
 29 98  1  0  0  0  0
 30 99  1  0  0  0  0
 30100  1  0  0  0  0
 30101  1  0  0  0  0
 31 32  1  0  0  0  0
 32 33  1  0  0  0  0
 32102  1  0  0  0  0
 32103  1  0  0  0  0
 33 34  1  0  0  0  0
 33104  1  0  0  0  0
 33105  1  0  0  0  0
 34 35  1  0  0  0  0
 34106  1  0  0  0  0
 34107  1  0  0  0  0
 35 36  1  0  0  0  0
 35108  1  0  0  0  0
 35109  1  0  0  0  0
 36 37  1  0  0  0  0
 36110  1  0  0  0  0
 36111  1  0  0  0  0
 37 38  1  0  0  0  0
 37112  1  0  0  0  0
 37113  1  0  0  0  0
 38 39  1  0  0  0  0
 38114  1  0  0  0  0
 38115  1  0  0  0  0
 39 40  1  0  0  0  0
 39116  1  0  0  0  0
 39117  1  0  0  0  0
 40 41  1  0  0  0  0
 40118  1  0  0  0  0
 40119  1  0  0  0  0
 41 42  1  0  0  0  0
 41120  1  0  0  0  0
 41121  1  0  0  0  0
 42 43  1  0  0  0  0
 42122  1  0  0  0  0
 42123  1  0  0  0  0
 43 44  1  0  0  0  0
 43124  1  0  0  0  0
 43125  1  0  0  0  0
 44 45  1  0  0  0  0
 44126  1  0  0  0  0
 44127  1  0  0  0  0
 45 46  2  0  0  0  0
 45128  1  0  0  0  0
 46 47  1  0  0  0  0
 46129  1  0  0  0  0
 47 48  1  0  0  0  0
 47130  1  0  0  0  0
 47131  1  0  0  0  0
 48 49  1  0  0  0  0
 48132  1  0  0  0  0
 48133  1  0  0  0  0
 49 50  1  0  0  0  0
 49134  1  0  0  0  0
 49135  1  0  0  0  0
 50 51  1  0  0  0  0
 50136  1  0  0  0  0
 50137  1  0  0  0  0
 51 52  1  0  0  0  0
 51138  1  0  0  0  0
 51139  1  0  0  0  0
 52 53  1  0  0  0  0
 52140  1  0  0  0  0
 52141  1  0  0  0  0
 53 54  1  0  0  0  0
 53142  1  0  0  0  0
 53143  1  0  0  0  0
 54144  1  0  0  0  0
 54145  1  0  0  0  0
 54146  1  0  0  0  0
 55 56  1  0  0  0  0
 55147  1  1  0  0  0
 56 57  1  0  0  0  0
 56148  1  6  0  0  0
 57 58  1  0  0  0  0
 57149  1  1  0  0  0
 58 59  1  0  0  0  0
 58150  1  1  0  0  0
 59 60  1  0  0  0  0
 59151  1  1  0  0  0
 60152  1  0  0  0  0
 60153  1  0  0  0  0
M  CHG  1  21  -1
M  END
$$$$