/media/chris/experiments/cd1a-new-docking/inputs/ligands/7ryn_ligand.pdb
 OpenBabel07032312553D

153153  0  0  1  0  0  0  0  0999 V2000
  -33.0340   65.1330   62.2120 N   0  0  0  0  0  0  0  0  0  0  0  0
  -32.0220   67.3480   62.3220 C   0  0  0  0  0  0  0  0  0  0  0  0
  -33.3204   67.9104   62.5424 O   0  0  0  0  0  0  0  0  0  0  0  0
  -32.1830   66.0840   61.5030 C   0  0  1  0  0  0  0  0  0  0  0  0
  -31.0548   64.2805   60.3587 O   0  0  0  0  0  0  0  0  0  0  0  0
  -30.8310   65.4230   61.1900 C   0  0  2  0  0  0  0  0  0  0  0  0
  -34.9746   65.8457   61.3210 O   0  0  0  0  0  0  0  0  0  0  0  0
  -30.1054   65.0399   62.4433 C   0  0  0  0  0  0  0  0  0  0  0  0
  -35.3151   69.8361   62.1498 O   0  0  0  0  0  0  0  0  0  0  0  0
  -28.9184   64.4680   62.4873 C   0  0  0  0  0  0  0  0  0  0  0  0
  -36.2332   71.0293   64.5551 O   0  0  0  0  0  0  0  0  0  0  0  0
  -28.2138   64.1114   63.7550 C   0  0  0  0  0  0  0  0  0  0  0  0
  -34.7894   69.6393   66.4168 O   0  0  0  0  0  0  0  0  0  0  0  0
  -27.9816   65.3501   64.6226 C   0  0  0  0  0  0  0  0  0  0  0  0
  -32.7334   68.8853   64.5507 O   0  0  0  0  0  0  0  0  0  0  0  0
  -27.1527   66.4338   63.9524 C   0  0  0  0  0  0  0  0  0  0  0  0
  -32.5661   68.6711   67.3280 O   0  0  0  0  0  0  0  0  0  0  0  0
  -26.9068   67.6575   64.8184 C   0  0  0  0  0  0  0  0  0  0  0  0
  -38.4981   71.4463   63.8454 O   0  0  0  0  0  0  0  0  0  0  0  0
  -28.1781   68.3598   65.2725 C   0  0  0  0  0  0  0  0  0  0  0  0
  -36.8651   70.3129   62.3077 O   0  5  0  0  0  0  0  0  0  0  0  0
  -27.9233   69.5935   66.1248 C   0  0  0  0  0  0  0  0  0  0  0  0
  -36.6888   72.6195   62.8416 O   0  0  0  0  0  0  0  0  0  0  0  0
  -27.1429   69.3084   67.3959 C   0  0  0  0  0  0  0  0  0  0  0  0
  -26.8997   70.5321   68.2595 C   0  0  0  0  0  0  0  0  0  0  0  0
  -28.1719   71.2026   68.7491 C   0  0  0  0  0  0  0  0  0  0  0  0
  -29.0307   70.2917   69.6064 C   0  0  0  0  0  0  0  0  0  0  0  0
  -29.4845   69.0223   68.9115 C   0  0  0  0  0  0  0  0  0  0  0  0
  -30.3529   68.1514   69.7981 C   0  0  0  0  0  0  0  0  0  0  0  0
  -31.6214   68.8531   70.2373 C   0  0  0  0  0  0  0  0  0  0  0  0
  -34.3610   65.0876   62.0665 C   0  0  0  0  0  0  0  0  0  0  0  0
  -35.0703   64.0312   62.8766 C   0  0  0  0  0  0  0  0  0  0  0  0
  -34.1128   63.2023   63.7231 C   0  0  0  0  0  0  0  0  0  0  0  0
  -34.8231   62.1256   64.5277 C   0  0  0  0  0  0  0  0  0  0  0  0
  -33.8952   61.2923   65.3959 C   0  0  0  0  0  0  0  0  0  0  0  0
  -34.6053   60.2043   66.1875 C   0  0  0  0  0  0  0  0  0  0  0  0
  -33.6806   59.3777   67.0721 C   0  0  0  0  0  0  0  0  0  0  0  0
  -32.9506   60.1921   68.1323 C   0  0  0  0  0  0  0  0  0  0  0  0
  -32.0069   59.3806   69.0163 C   0  0  0  0  0  0  0  0  0  0  0  0
  -30.8804   58.6874   68.2516 C   0  0  0  0  0  0  0  0  0  0  0  0
  -31.3492   57.7047   67.1788 C   0  0  0  0  0  0  0  0  0  0  0  0
  -30.2013   57.0140   66.4423 C   0  0  0  0  0  0  0  0  0  0  0  0
  -29.2775   56.1751   67.3253 C   0  0  0  0  0  0  0  0  0  0  0  0
  -28.1192   55.4985   66.5873 C   0  0  0  0  0  0  0  0  0  0  0  0
  -28.5821   54.5680   65.5039 C   0  0  0  0  0  0  0  0  0  0  0  0
  -28.7925   54.8888   64.2395 C   0  0  0  0  0  0  0  0  0  0  0  0
  -28.6084   56.2463   63.6318 C   0  0  0  0  0  0  0  0  0  0  0  0
  -27.2037   56.4843   63.0733 C   0  0  0  0  0  0  0  0  0  0  0  0
  -27.0214   57.8722   62.4734 C   0  0  0  0  0  0  0  0  0  0  0  0
  -27.2374   58.9985   63.4779 C   0  0  0  0  0  0  0  0  0  0  0  0
  -26.2818   58.9772   64.6654 C   0  0  0  0  0  0  0  0  0  0  0  0
  -24.8164   59.1097   64.2753 C   0  0  0  0  0  0  0  0  0  0  0  0
  -23.8535   59.0726   65.4514 C   0  0  0  0  0  0  0  0  0  0  0  0
  -22.4052   59.2238   65.0323 C   0  0  0  0  0  0  0  0  0  0  0  0
  -33.3156   69.0988   63.2783 C   0  0  2  0  0  0  0  0  0  0  0  0
  -34.7576   69.5657   63.4297 C   0  0  1  0  0  0  0  0  0  0  0  0
  -34.8089   70.8140   64.3015 C   0  0  2  0  0  0  0  0  0  0  0  0
  -34.0866   70.5888   65.6217 C   0  0  2  0  0  0  0  0  0  0  0  0
  -32.6741   70.0760   65.3523 C   0  0  1  0  0  0  0  0  0  0  0  0
  -31.9211   69.7182   66.6122 C   0  0  0  0  0  0  0  0  0  0  0  0
  -37.2005   71.2487   63.3141 S   0  0  0  0  0  0  0  0  0  0  0  0
  -32.6087   64.4935   62.8279 H   0  0  0  0  0  0  0  0  0  0  0  0
  -31.5648   67.1148   63.2609 H   0  0  0  0  0  0  0  0  0  0  0  0
  -31.4012   68.0473   61.8019 H   0  0  0  0  0  0  0  0  0  0  0  0
  -32.6374   66.3625   60.5752 H   0  0  0  0  0  0  0  0  0  0  0  0
  -31.5249   64.5525   59.5551 H   0  0  0  0  0  0  0  0  0  0  0  0
  -30.2105   66.1253   60.6735 H   0  0  0  0  0  0  0  0  0  0  0  0
  -30.5711   65.2392   63.3425 H   0  0  0  0  0  0  0  0  0  0  0  0
  -35.2768   69.0347   61.6046 H   0  0  0  0  0  0  0  0  0  0  0  0
  -28.4487   64.2543   61.5936 H   0  0  0  0  0  0  0  0  0  0  0  0
  -27.2690   63.6690   63.5172 H   0  0  0  0  0  0  0  0  0  0  0  0
  -28.8242   63.4230   64.3013 H   0  0  0  0  0  0  0  0  0  0  0  0
  -35.6873   69.9632   66.5891 H   0  0  0  0  0  0  0  0  0  0  0  0
  -27.4762   65.0448   65.5150 H   0  0  0  0  0  0  0  0  0  0  0  0
  -28.9444   65.7749   64.8161 H   0  0  0  0  0  0  0  0  0  0  0  0
  -27.6644   66.7475   63.0666 H   0  0  0  0  0  0  0  0  0  0  0  0
  -26.1940   66.0046   63.7487 H   0  0  0  0  0  0  0  0  0  0  0  0
  -32.0585   68.4665   68.1288 H   0  0  0  0  0  0  0  0  0  0  0  0
  -26.3195   68.3541   64.2575 H   0  0  0  0  0  0  0  0  0  0  0  0
  -26.4089   67.3165   65.7020 H   0  0  0  0  0  0  0  0  0  0  0  0
  -38.8534   70.5983   64.1546 H   0  0  0  0  0  0  0  0  0  0  0  0
  -28.7603   67.6681   65.8447 H   0  0  0  0  0  0  0  0  0  0  0  0
  -28.6862   68.6886   64.3901 H   0  0  0  0  0  0  0  0  0  0  0  0
  -28.8676   70.0171   66.3962 H   0  0  0  0  0  0  0  0  0  0  0  0
  -27.3292   70.2616   65.5370 H   0  0  0  0  0  0  0  0  0  0  0  0
  -36.9009   73.2912   63.5085 H   0  0  0  0  0  0  0  0  0  0  0  0
  -26.1943   68.8957   67.1227 H   0  0  0  0  0  0  0  0  0  0  0  0
  -27.7349   68.6326   67.9771 H   0  0  0  0  0  0  0  0  0  0  0  0
  -26.3429   71.2437   67.6864 H   0  0  0  0  0  0  0  0  0  0  0  0
  -26.3702   70.1993   69.1277 H   0  0  0  0  0  0  0  0  0  0  0  0
  -28.7442   71.5097   67.8987 H   0  0  0  0  0  0  0  0  0  0  0  0
  -27.8817   72.0339   69.3570 H   0  0  0  0  0  0  0  0  0  0  0  0
  -29.9003   70.8376   69.9076 H   0  0  0  0  0  0  0  0  0  0  0  0
  -28.4227   69.9871   70.4325 H   0  0  0  0  0  0  0  0  0  0  0  0
  -28.6200   68.4622   68.6220 H   0  0  0  0  0  0  0  0  0  0  0  0
  -30.0711   69.3086   68.0637 H   0  0  0  0  0  0  0  0  0  0  0  0
  -29.7920   67.8803   70.6680 H   0  0  0  0  0  0  0  0  0  0  0  0
  -30.6377   67.2908   69.2295 H   0  0  0  0  0  0  0  0  0  0  0  0
  -31.3689   69.7209   70.8101 H   0  0  0  0  0  0  0  0  0  0  0  0
  -32.2076   68.1882   70.8367 H   0  0  0  0  0  0  0  0  0  0  0  0
  -32.1838   69.1458   69.3754 H   0  0  0  0  0  0  0  0  0  0  0  0
  -35.5902   63.3777   62.2076 H   0  0  0  0  0  0  0  0  0  0  0  0
  -35.7431   64.5303   63.5424 H   0  0  0  0  0  0  0  0  0  0  0  0
  -33.6019   63.8546   64.4001 H   0  0  0  0  0  0  0  0  0  0  0  0
  -33.4335   62.7127   63.0569 H   0  0  0  0  0  0  0  0  0  0  0  0
  -35.3244   61.4710   63.8457 H   0  0  0  0  0  0  0  0  0  0  0  0
  -35.4993   62.6270   65.1882 H   0  0  0  0  0  0  0  0  0  0  0  0
  -33.4032   61.9449   66.0865 H   0  0  0  0  0  0  0  0  0  0  0  0
  -33.2104   60.8008   64.7368 H   0  0  0  0  0  0  0  0  0  0  0  0
  -35.0871   59.5452   65.4959 H   0  0  0  0  0  0  0  0  0  0  0  0
  -35.2975   60.6967   66.8381 H   0  0  0  0  0  0  0  0  0  0  0  0
  -32.9508   58.9055   66.4482 H   0  0  0  0  0  0  0  0  0  0  0  0
  -34.2956   58.6724   67.5910 H   0  0  0  0  0  0  0  0  0  0  0  0
  -33.6825   60.6545   68.7612 H   0  0  0  0  0  0  0  0  0  0  0  0
  -32.3427   60.8992   67.6075 H   0  0  0  0  0  0  0  0  0  0  0  0
  -32.5803   58.6322   69.5221 H   0  0  0  0  0  0  0  0  0  0  0  0
  -31.5441   60.0710   69.6902 H   0  0  0  0  0  0  0  0  0  0  0  0
  -30.2800   58.1508   68.9561 H   0  0  0  0  0  0  0  0  0  0  0  0
  -30.3415   59.4583   67.7415 H   0  0  0  0  0  0  0  0  0  0  0  0
  -31.9378   58.2397   66.4631 H   0  0  0  0  0  0  0  0  0  0  0  0
  -31.9103   56.9406   67.6750 H   0  0  0  0  0  0  0  0  0  0  0  0
  -29.6104   57.7688   65.9669 H   0  0  0  0  0  0  0  0  0  0  0  0
  -30.6556   56.3327   65.7536 H   0  0  0  0  0  0  0  0  0  0  0  0
  -29.8656   55.4122   67.7911 H   0  0  0  0  0  0  0  0  0  0  0  0
  -28.8330   56.8532   68.0236 H   0  0  0  0  0  0  0  0  0  0  0  0
  -27.5435   54.9393   67.2950 H   0  0  0  0  0  0  0  0  0  0  0  0
  -27.5397   56.2691   66.1234 H   0  0  0  0  0  0  0  0  0  0  0  0
  -28.7519   53.5859   65.7717 H   0  0  0  0  0  0  0  0  0  0  0  0
  -29.1133   54.1347   63.6123 H   0  0  0  0  0  0  0  0  0  0  0  0
  -28.8021   56.9823   64.3839 H   0  0  0  0  0  0  0  0  0  0  0  0
  -29.2883   56.3155   62.8085 H   0  0  0  0  0  0  0  0  0  0  0  0
  -27.0134   55.7573   62.3116 H   0  0  0  0  0  0  0  0  0  0  0  0
  -26.5189   56.3999   63.8911 H   0  0  0  0  0  0  0  0  0  0  0  0
  -27.7228   57.9912   61.6742 H   0  0  0  0  0  0  0  0  0  0  0  0
  -26.0084   57.9399   62.1356 H   0  0  0  0  0  0  0  0  0  0  0  0
  -28.2372   58.9257   63.8521 H   0  0  0  0  0  0  0  0  0  0  0  0
  -27.0526   59.9132   62.9545 H   0  0  0  0  0  0  0  0  0  0  0  0
  -26.4102   58.0510   65.1856 H   0  0  0  0  0  0  0  0  0  0  0  0
  -26.5208   59.8243   65.2738 H   0  0  0  0  0  0  0  0  0  0  0  0
  -24.6877   60.0415   63.7653 H   0  0  0  0  0  0  0  0  0  0  0  0
  -24.5839   58.2655   63.6603 H   0  0  0  0  0  0  0  0  0  0  0  0
  -23.9669   58.1359   65.9561 H   0  0  0  0  0  0  0  0  0  0  0  0
  -24.0917   59.8991   66.0878 H   0  0  0  0  0  0  0  0  0  0  0  0
  -22.1323   58.4107   64.3924 H   0  0  0  0  0  0  0  0  0  0  0  0
  -21.7803   59.2194   65.9008 H   0  0  0  0  0  0  0  0  0  0  0  0
  -22.2803   60.1479   64.5077 H   0  0  0  0  0  0  0  0  0  0  0  0
  -32.7377   69.8438   62.7723 H   0  0  0  0  0  0  0  0  0  0  0  0
  -35.3300   68.7932   63.8992 H   0  0  0  0  0  0  0  0  0  0  0  0
  -34.3360   71.6474   63.8253 H   0  0  0  0  0  0  0  0  0  0  0  0
  -34.0399   71.5181   66.1499 H   0  0  0  0  0  0  0  0  0  0  0  0
  -32.1619   70.8745   64.8573 H   0  0  0  0  0  0  0  0  0  0  0  0
  -30.9335   69.4016   66.3486 H   0  0  0  0  0  0  0  0  0  0  0  0
  -31.8897   70.5836   67.2407 H   0  0  0  0  0  0  0  0  0  0  0  0
  1  4  1  0  0  0  0
  1 31  1  0  0  0  0
  1 62  1  0  0  0  0
  2  3  1  0  0  0  0
  2  4  1  0  0  0  0
  2 63  1  0  0  0  0
  2 64  1  0  0  0  0
  3 55  1  0  0  0  0
  4  6  1  0  0  0  0
  4 65  1  6  0  0  0
  5  6  1  0  0  0  0
  5 66  1  0  0  0  0
  6  8  1  0  0  0  0
  6 67  1  6  0  0  0
  7 31  2  0  0  0  0
  8 10  2  0  0  0  0
  8 68  1  0  0  0  0
  9 56  1  0  0  0  0
  9 69  1  0  0  0  0
 10 12  1  0  0  0  0
 10 70  1  0  0  0  0
 11 57  1  0  0  0  0
 11 61  1  0  0  0  0
 12 14  1  0  0  0  0
 12 71  1  0  0  0  0
 12 72  1  0  0  0  0
 13 58  1  0  0  0  0
 13 73  1  0  0  0  0
 14 16  1  0  0  0  0
 14 74  1  0  0  0  0
 14 75  1  0  0  0  0
 15 55  1  0  0  0  0
 15 59  1  0  0  0  0
 16 18  1  0  0  0  0
 16 76  1  0  0  0  0
 16 77  1  0  0  0  0
 17 60  1  0  0  0  0
 17 78  1  0  0  0  0
 18 20  1  0  0  0  0
 18 79  1  0  0  0  0
 18 80  1  0  0  0  0
 19 61  1  0  0  0  0
 19 81  1  0  0  0  0
 20 22  1  0  0  0  0
 20 82  1  0  0  0  0
 20 83  1  0  0  0  0
 21 61  1  0  0  0  0
 22 24  1  0  0  0  0
 22 84  1  0  0  0  0
 22 85  1  0  0  0  0
 23 61  1  0  0  0  0
 23 86  1  0  0  0  0
 24 25  1  0  0  0  0
 24 87  1  0  0  0  0
 24 88  1  0  0  0  0
 25 26  1  0  0  0  0
 25 89  1  0  0  0  0
 25 90  1  0  0  0  0
 26 27  1  0  0  0  0
 26 91  1  0  0  0  0
 26 92  1  0  0  0  0
 27 28  1  0  0  0  0
 27 93  1  0  0  0  0
 27 94  1  0  0  0  0
 28 29  1  0  0  0  0
 28 95  1  0  0  0  0
 28 96  1  0  0  0  0
 29 30  1  0  0  0  0
 29 97  1  0  0  0  0
 29 98  1  0  0  0  0
 30 99  1  0  0  0  0
 30100  1  0  0  0  0
 30101  1  0  0  0  0
 31 32  1  0  0  0  0
 32 33  1  0  0  0  0
 32102  1  0  0  0  0
 32103  1  0  0  0  0
 33 34  1  0  0  0  0
 33104  1  0  0  0  0
 33105  1  0  0  0  0
 34 35  1  0  0  0  0
 34106  1  0  0  0  0
 34107  1  0  0  0  0
 35 36  1  0  0  0  0
 35108  1  0  0  0  0
 35109  1  0  0  0  0
 36 37  1  0  0  0  0
 36110  1  0  0  0  0
 36111  1  0  0  0  0
 37 38  1  0  0  0  0
 37112  1  0  0  0  0
 37113  1  0  0  0  0
 38 39  1  0  0  0  0
 38114  1  0  0  0  0
 38115  1  0  0  0  0
 39 40  1  0  0  0  0
 39116  1  0  0  0  0
 39117  1  0  0  0  0
 40 41  1  0  0  0  0
 40118  1  0  0  0  0
 40119  1  0  0  0  0
 41 42  1  0  0  0  0
 41120  1  0  0  0  0
 41121  1  0  0  0  0
 42 43  1  0  0  0  0
 42122  1  0  0  0  0
 42123  1  0  0  0  0
 43 44  1  0  0  0  0
 43124  1  0  0  0  0
 43125  1  0  0  0  0
 44 45  1  0  0  0  0
 44126  1  0  0  0  0
 44127  1  0  0  0  0
 45 46  2  0  0  0  0
 45128  1  0  0  0  0
 46 47  1  0  0  0  0
 46129  1  0  0  0  0
 47 48  1  0  0  0  0
 47130  1  0  0  0  0
 47131  1  0  0  0  0
 48 49  1  0  0  0  0
 48132  1  0  0  0  0
 48133  1  0  0  0  0
 49 50  1  0  0  0  0
 49134  1  0  0  0  0
 49135  1  0  0  0  0
 50 51  1  0  0  0  0
 50136  1  0  0  0  0
 50137  1  0  0  0  0
 51 52  1  0  0  0  0
 51138  1  0  0  0  0
 51139  1  0  0  0  0
 52 53  1  0  0  0  0
 52140  1  0  0  0  0
 52141  1  0  0  0  0
 53 54  1  0  0  0  0
 53142  1  0  0  0  0
 53143  1  0  0  0  0
 54144  1  0  0  0  0
 54145  1  0  0  0  0
 54146  1  0  0  0  0
 55 56  1  0  0  0  0
 55147  1  6  0  0  0
 56 57  1  0  0  0  0
 56148  1  1  0  0  0
 57 58  1  0  0  0  0
 57149  1  6  0  0  0
 58 59  1  0  0  0  0
 58150  1  1  0  0  0
 59 60  1  0  0  0  0
 59151  1  6  0  0  0
 60152  1  0  0  0  0
 60153  1  0  0  0  0
M  CHG  1  21  -1
M  END
$$$$