/media/chris/experiments/cd1a-new-docking/inputs/ligands/7ryo_ligand.pdb


 65 67  0  0  0  0  0  0  0  0999 V2000
  -40.4338   59.4112   63.7144 C   0  0  0  0  0  0  0  0  0  0  0  0
  -39.3919   58.7696   62.9300 N   0  0  0  0  0  0  0  0  0  0  0  0
  -38.5467   60.7170   62.1903 O   0  0  0  0  0  0  0  0  0  0  0  0
  -38.5227   59.4957   62.2228 C   0  0  0  0  0  0  0  0  0  0  0  0
  -39.3262   57.7874   62.9200 H   0  0  0  0  0  0  0  0  0  0  0  0
  -36.1264   59.2750   61.6927 N   0  0  0  0  0  0  0  0  0  0  0  0
  -35.9366   57.0482   61.9905 O   0  0  0  0  0  0  0  0  0  0  0  0
  -37.4662   58.7383   61.4017 C   0  0  0  0  0  0  0  0  0  0  0  0
  -37.7656   58.9272   59.9176 C   0  0  0  0  0  0  0  0  0  0  0  0
  -37.3559   57.2524   61.7739 C   0  0  0  0  0  0  0  0  0  0  0  0
  -35.3870   58.2906   61.9989 C   0  0  0  0  0  0  0  0  0  0  0  0
  -34.4929   58.7348   64.6983 O   0  0  0  0  0  0  0  0  0  0  0  0
  -33.9695   58.3549   62.3623 C   0  0  0  0  0  0  0  0  0  0  0  0
  -32.9891   58.0558   61.4154 C   0  0  0  0  0  0  0  0  0  0  0  0
  -31.6720   57.8749   61.8012 C   0  0  0  0  0  0  0  0  0  0  0  0
  -31.3113   57.9882   63.1263 C   0  0  0  0  0  0  0  0  0  0  0  0
  -32.2645   58.2794   64.0851 C   0  0  0  0  0  0  0  0  0  0  0  0
  -33.5937   58.4627   63.7172 C   0  0  0  0  0  0  0  0  0  0  0  0
  -35.3960   58.8634   64.4836 H   0  0  0  0  0  0  0  0  0  0  0  0
  -40.7537   58.3299   65.8520 O   0  0  0  0  0  0  0  0  0  0  0  0
  -40.2191   59.1868   65.2037 C   0  0  0  0  0  0  0  0  0  0  0  0
  -39.3619   60.0963   65.6990 O   0  0  0  0  0  0  0  0  0  0  0  0
  -37.9334   59.9267   65.4154 C   0  0  0  0  0  0  0  0  0  0  0  0
  -37.5155   58.5671   65.9160 C   0  0  0  0  0  0  0  0  0  0  0  0
  -37.2351   61.0527   66.1527 C   0  0  0  0  0  0  0  0  0  0  0  0
  -35.6111   62.8166   65.8465 N   0  0  0  0  0  0  0  0  0  0  0  0
  -35.7470   61.2040   64.2836 O   0  0  0  0  0  0  0  0  0  0  0  0
  -36.1341   61.6965   65.3396 C   0  0  0  0  0  0  0  0  0  0  0  0
  -35.9619   63.1654   66.6978 H   0  0  0  0  0  0  0  0  0  0  0  0
  -32.4060   64.4961   65.8549 N   0  0  0  0  0  0  0  0  0  0  0  0
  -34.0139   64.2550   67.4000 O   0  0  0  0  0  0  0  0  0  0  0  0
  -34.5401   63.5343   65.1777 C   0  0  0  0  0  0  0  0  0  0  0  0
  -35.1196   64.6599   64.3136 C   0  0  0  0  0  0  0  0  0  0  0  0
  -34.1575   65.1669   63.2447 C   0  0  0  0  0  0  0  0  0  0  0  0
  -32.8698   65.7760   63.7631 C   0  0  0  0  0  0  0  0  0  0  0  0
  -31.9729   64.7999   64.4951 C   0  0  0  0  0  0  0  0  0  0  0  0
  -33.6294   64.1273   66.2412 C   0  0  0  0  0  0  0  0  0  0  0  0
  -31.7246   64.5708   66.5615 H   0  0  0  0  0  0  0  0  0  0  0  0
  -41.8232   58.9373   63.2853 C   0  0  0  0  0  0  0  0  0  0  0  0
  -41.8158   57.4977   62.7826 C   0  0  0  0  0  0  0  0  0  0  0  0
  -42.2838   57.3646   61.3453 C   0  0  0  0  0  0  0  0  0  0  0  0
  -41.1812   57.4344   60.3115 C   0  0  0  0  0  0  0  0  0  0  0  0
  -41.7185   57.7386   58.9948 N   0  0  0  0  0  0  0  0  0  0  0  0
  -40.9859   59.8734   59.0006 O   0  0  0  0  0  0  0  0  0  0  0  0
  -41.5810   58.9438   58.4313 C   0  0  0  0  0  0  0  0  0  0  0  0
  -42.1992   57.0346   58.5023 H   0  0  0  0  0  0  0  0  0  0  0  0
  -43.5163   58.7329   56.8875 C   0  0  0  0  0  0  0  0  0  0  0  0
  -42.2611   59.0891   57.1249 C   0  0  0  0  0  0  0  0  0  0  0  0
  -44.5000   58.1443   57.8499 C   0  0  0  0  0  0  0  0  0  0  0  0
  -45.9141   58.1445   57.2820 C   0  0  0  0  0  0  0  0  0  0  0  0
  -46.9202   57.3980   58.1410 C   0  0  0  0  0  0  0  0  0  0  0  0
  -47.8880   58.3105   58.8757 C   0  0  0  0  0  0  0  0  0  0  0  0
  -49.2629   57.7111   59.1036 C   0  0  0  0  0  0  0  0  0  0  0  0
  -49.4117   57.0342   60.4560 C   0  0  0  0  0  0  0  0  0  0  0  0
  -50.6082   57.5220   61.2491 C   0  0  0  0  0  0  0  0  0  0  0  0
  -50.4554   58.9479   61.7393 C   0  0  0  0  0  0  0  0  0  0  0  0
  -51.3653   59.3128   62.8964 C   0  0  0  0  0  0  0  0  0  0  0  0
  -50.5979   59.7043   64.1438 C   0  0  0  0  0  0  0  0  0  0  0  0
  -50.3577   58.5394   65.0899 C   0  0  0  0  0  0  0  0  0  0  0  0
  -48.9246   58.0368   65.1055 C   0  0  0  0  0  0  0  0  0  0  0  0
  -48.2035   58.2477   66.4280 C   0  0  0  0  0  0  0  0  0  0  0  0
  -47.0301   57.3030   66.6488 C   0  0  0  0  0  0  0  0  0  0  0  0
  -45.7594   58.0102   67.0916 C   0  0  0  0  0  0  0  0  0  0  0  0
  -44.9854   57.7262   64.7049 C   0  0  0  0  0  0  0  0  0  0  0  0
  -44.5809   57.8315   66.1518 C   0  0  0  0  0  0  0  0  0  0  0  0
 43 45  1  0  0  0
 43 42  1  0  0  0
 43 46  1  0  0  0
 64 65  1  0  0  0
 44 45  2  0  0  0
 65 63  1  0  0  0
  2  1  1  0  0  0
  2  4  1  0  0  0
  2  5  1  0  0  0
  3  4  2  0  0  0
 63 62  1  0  0  0
  6  8  1  0  0  0
  6 11  2  0  0  0
  7 10  1  0  0  0
  7 11  1  0  0  0
 62 61  1  0  0  0
 26 28  1  0  0  0
 26 32  1  0  0  0
 26 29  1  0  0  0
 12 18  1  0  0  0
 12 19  1  0  0  0
 61 60  1  0  0  0
 30 36  1  0  0  0
 30 37  1  0  0  0
 30 38  1  0  0  0
 20 21  2  0  0  0
 60 59  1  0  0  0
 22 21  1  0  0  0
 22 23  1  0  0  0
 59 58  1  0  0  0
 27 28  2  0  0  0
 58 57  1  0  0  0
 31 37  2  0  0  0
 57 56  1  0  0  0
 56 55  1  0  0  0
 55 54  1  0  0  0
 54 53  1  0  0  0
 53 52  1  0  0  0
 52 51  1  0  0  0
 51 50  1  0  0  0
 50 49  1  0  0  0
 49 47  1  0  0  0
 47 48  2  0  0  0
 48 45  1  0  0  0
 42 41  1  0  0  0
 41 40  1  0  0  0
 40 39  1  0  0  0
 39  1  1  0  0  0
  1 21  1  0  0  0
  8  4  1  0  0  0
  8  9  1  0  0  0
  8 10  1  0  0  0
 11 13  1  0  0  0
 13 14  2  0  0  0
 13 18  1  0  0  0
 14 15  1  0  0  0
 15 16  2  0  0  0
 16 17  1  0  0  0
 17 18  2  0  0  0
 23 24  1  0  0  0
 23 25  1  0  0  0
 25 28  1  0  0  0
 32 33  1  0  0  0
 32 37  1  0  0  0
 33 34  1  0  0  0
 34 35  1  0  0  0
 35 36  1  0  0  0
M  END
> <minimizedAffinity>
-8.15920

> <CNNscore>
0.4160335362

> <CNNaffinity>
7.7634606361

> <CNN_VS>
3.2298600674

> <CNNaffinity_variance>
0.8485800028

$$$$
/media/chris/experiments/cd1a-new-docking/inputs/ligands/7ryo_ligand.pdb


 65 67  0  0  0  0  0  0  0  0999 V2000
  -36.7280   58.4217   62.2856 C   0  0  0  0  0  0  0  0  0  0  0  0
  -38.1018   58.2799   62.7383 N   0  0  0  0  0  0  0  0  0  0  0  0
  -38.3621   56.2617   61.7829 O   0  0  0  0  0  0  0  0  0  0  0  0
  -38.8114   57.1889   62.4399 C   0  0  0  0  0  0  0  0  0  0  0  0
  -38.5144   58.9972   63.2716 H   0  0  0  0  0  0  0  0  0  0  0  0
  -40.3149   57.4346   64.3767 N   0  0  0  0  0  0  0  0  0  0  0  0
  -41.8246   58.8200   63.4360 O   0  0  0  0  0  0  0  0  0  0  0  0
  -40.2650   57.1284   62.9374 C   0  0  0  0  0  0  0  0  0  0  0  0
  -40.8064   55.7202   62.7099 C   0  0  0  0  0  0  0  0  0  0  0  0
  -41.1707   58.1941   62.3031 C   0  0  0  0  0  0  0  0  0  0  0  0
  -41.1765   58.3523   64.5347 C   0  0  0  0  0  0  0  0  0  0  0  0
  -40.3965   61.0255   65.2618 O   0  0  0  0  0  0  0  0  0  0  0  0
  -41.5582   58.9693   65.8072 C   0  0  0  0  0  0  0  0  0  0  0  0
  -42.4483   58.3184   66.6623 C   0  0  0  0  0  0  0  0  0  0  0  0
  -43.0032   58.9873   67.7398 C   0  0  0  0  0  0  0  0  0  0  0  0
  -42.6835   60.3054   67.9825 C   0  0  0  0  0  0  0  0  0  0  0  0
  -41.8075   60.9748   67.1475 C   0  0  0  0  0  0  0  0  0  0  0  0
  -41.2411   60.3202   66.0583 C   0  0  0  0  0  0  0  0  0  0  0  0
  -39.9985   60.6138   64.5201 H   0  0  0  0  0  0  0  0  0  0  0  0
  -36.3901   59.9187   64.1527 O   0  0  0  0  0  0  0  0  0  0  0  0
  -35.9576   59.3984   63.1614 C   0  0  0  0  0  0  0  0  0  0  0  0
  -34.7296   59.6151   62.6590 O   0  0  0  0  0  0  0  0  0  0  0  0
  -33.6967   58.6017   62.8958 C   0  0  0  0  0  0  0  0  0  0  0  0
  -33.3664   58.6056   64.3670 C   0  0  0  0  0  0  0  0  0  0  0  0
  -32.5164   59.0149   62.0383 C   0  0  0  0  0  0  0  0  0  0  0  0
  -32.6245   61.4064   62.3719 N   0  0  0  0  0  0  0  0  0  0  0  0
  -30.7419   60.3271   62.9659 O   0  0  0  0  0  0  0  0  0  0  0  0
  -31.8769   60.3062   62.4980 C   0  0  0  0  0  0  0  0  0  0  0  0
  -33.5283   61.3291   61.9894 H   0  0  0  0  0  0  0  0  0  0  0  0
  -32.4859   64.1651   64.7095 N   0  0  0  0  0  0  0  0  0  0  0  0
  -34.0813   62.6776   64.1872 O   0  0  0  0  0  0  0  0  0  0  0  0
  -32.1418   62.7132   62.7830 C   0  0  0  0  0  0  0  0  0  0  0  0
  -32.2692   63.7098   61.6254 C   0  0  0  0  0  0  0  0  0  0  0  0
  -31.3983   64.9508   61.7889 C   0  0  0  0  0  0  0  0  0  0  0  0
  -31.7065   65.8082   63.0003 C   0  0  0  0  0  0  0  0  0  0  0  0
  -31.4534   65.1219   64.3263 C   0  0  0  0  0  0  0  0  0  0  0  0
  -32.9878   63.1847   63.9552 C   0  0  0  0  0  0  0  0  0  0  0  0
  -32.8507   64.2513   65.6199 H   0  0  0  0  0  0  0  0  0  0  0  0
  -36.6681   58.8414   60.8161 C   0  0  0  0  0  0  0  0  0  0  0  0
  -37.7023   59.9087   60.4747 C   0  0  0  0  0  0  0  0  0  0  0  0
  -38.7585   59.4260   59.4980 C   0  0  0  0  0  0  0  0  0  0  0  0
  -40.1671   59.8792   59.8137 C   0  0  0  0  0  0  0  0  0  0  0  0
  -40.9698   59.9695   58.6044 N   0  0  0  0  0  0  0  0  0  0  0  0
  -41.7368   57.8518   58.7503 O   0  0  0  0  0  0  0  0  0  0  0  0
  -41.7011   58.9426   58.1576 C   0  0  0  0  0  0  0  0  0  0  0  0
  -40.9751   60.8138   58.0982 H   0  0  0  0  0  0  0  0  0  0  0  0
  -43.6306   58.8222   56.5968 C   0  0  0  0  0  0  0  0  0  0  0  0
  -42.3878   59.1951   56.8711 C   0  0  0  0  0  0  0  0  0  0  0  0
  -44.5922   58.1068   57.4934 C   0  0  0  0  0  0  0  0  0  0  0  0
  -46.0391   58.3788   57.1003 C   0  0  0  0  0  0  0  0  0  0  0  0
  -46.9960   58.4286   58.2789 C   0  0  0  0  0  0  0  0  0  0  0  0
  -46.9501   57.1860   59.1524 C   0  0  0  0  0  0  0  0  0  0  0  0
  -48.2955   56.7643   59.7123 C   0  0  0  0  0  0  0  0  0  0  0  0
  -49.4675   57.5140   59.1009 C   0  0  0  0  0  0  0  0  0  0  0  0
  -50.2462   58.3424   60.1040 C   0  0  0  0  0  0  0  0  0  0  0  0
  -49.4142   58.7680   61.2971 C   0  0  0  0  0  0  0  0  0  0  0  0
  -49.9389   58.2773   62.6328 C   0  0  0  0  0  0  0  0  0  0  0  0
  -51.2248   58.9658   63.0455 C   0  0  0  0  0  0  0  0  0  0  0  0
  -50.9958   60.1925   63.9132 C   0  0  0  0  0  0  0  0  0  0  0  0
  -50.9133   59.8952   65.4003 C   0  0  0  0  0  0  0  0  0  0  0  0
  -49.4979   59.6922   65.9187 C   0  0  0  0  0  0  0  0  0  0  0  0
  -49.1500   58.2390   66.2107 C   0  0  0  0  0  0  0  0  0  0  0  0
  -47.6675   58.0099   66.4573 C   0  0  0  0  0  0  0  0  0  0  0  0
  -45.7087   57.8776   64.8693 C   0  0  0  0  0  0  0  0  0  0  0  0
  -46.7497   58.7588   65.5082 C   0  0  0  0  0  0  0  0  0  0  0  0
 43 45  1  0  0  0
 43 42  1  0  0  0
 43 46  1  0  0  0
 64 65  1  0  0  0
 44 45  2  0  0  0
 65 63  1  0  0  0
  2  1  1  0  0  0
  2  4  1  0  0  0
  2  5  1  0  0  0
  3  4  2  0  0  0
 63 62  1  0  0  0
  6  8  1  0  0  0
  6 11  2  0  0  0
  7 10  1  0  0  0
  7 11  1  0  0  0
 62 61  1  0  0  0
 26 28  1  0  0  0
 26 32  1  0  0  0
 26 29  1  0  0  0
 12 18  1  0  0  0
 12 19  1  0  0  0
 61 60  1  0  0  0
 30 36  1  0  0  0
 30 37  1  0  0  0
 30 38  1  0  0  0
 20 21  2  0  0  0
 60 59  1  0  0  0
 22 21  1  0  0  0
 22 23  1  0  0  0
 59 58  1  0  0  0
 27 28  2  0  0  0
 58 57  1  0  0  0
 31 37  2  0  0  0
 57 56  1  0  0  0
 56 55  1  0  0  0
 55 54  1  0  0  0
 54 53  1  0  0  0
 53 52  1  0  0  0
 52 51  1  0  0  0
 51 50  1  0  0  0
 50 49  1  0  0  0
 49 47  1  0  0  0
 47 48  2  0  0  0
 48 45  1  0  0  0
 42 41  1  0  0  0
 41 40  1  0  0  0
 40 39  1  0  0  0
 39  1  1  0  0  0
  1 21  1  0  0  0
  8  4  1  0  0  0
  8  9  1  0  0  0
  8 10  1  0  0  0
 11 13  1  0  0  0
 13 14  2  0  0  0
 13 18  1  0  0  0
 14 15  1  0  0  0
 15 16  2  0  0  0
 16 17  1  0  0  0
 17 18  2  0  0  0
 23 24  1  0  0  0
 23 25  1  0  0  0
 25 28  1  0  0  0
 32 33  1  0  0  0
 32 37  1  0  0  0
 33 34  1  0  0  0
 34 35  1  0  0  0
 35 36  1  0  0  0
M  END
> <minimizedAffinity>
-8.20245

> <CNNscore>
0.3613191247

> <CNNaffinity>
7.5865812302

> <CNN_VS>
2.7411768436

> <CNNaffinity_variance>
0.9999350309

$$$$
/media/chris/experiments/cd1a-new-docking/inputs/ligands/7ryo_ligand.pdb


 65 67  0  0  0  0  0  0  0  0999 V2000
  -38.5540   60.0614   64.9234 C   0  0  0  0  0  0  0  0  0  0  0  0
  -37.8755   59.2332   63.9405 N   0  0  0  0  0  0  0  0  0  0  0  0
  -38.1514   60.7229   62.2796 O   0  0  0  0  0  0  0  0  0  0  0  0
  -37.7318   59.6470   62.6792 C   0  0  0  0  0  0  0  0  0  0  0  0
  -37.5173   58.3561   64.2081 H   0  0  0  0  0  0  0  0  0  0  0  0
  -35.5984   59.0601   61.5946 N   0  0  0  0  0  0  0  0  0  0  0  0
  -35.6076   56.8510   62.0449 O   0  0  0  0  0  0  0  0  0  0  0  0
  -37.0224   58.7003   61.6971 C   0  0  0  0  0  0  0  0  0  0  0  0
  -37.6701   58.8391   60.3226 C   0  0  0  0  0  0  0  0  0  0  0  0
  -36.9994   57.2390   62.1688 C   0  0  0  0  0  0  0  0  0  0  0  0
  -34.9290   58.0021   61.7993 C   0  0  0  0  0  0  0  0  0  0  0  0
  -33.1971   60.1784   62.5390 O   0  0  0  0  0  0  0  0  0  0  0  0
  -33.4687   57.8886   61.7921 C   0  0  0  0  0  0  0  0  0  0  0  0
  -32.8631   56.6535   61.5578 C   0  0  0  0  0  0  0  0  0  0  0  0
  -31.5088   56.4805   61.7871 C   0  0  0  0  0  0  0  0  0  0  0  0
  -30.7404   57.5266   62.2497 C   0  0  0  0  0  0  0  0  0  0  0  0
  -31.3171   58.7595   62.4942 C   0  0  0  0  0  0  0  0  0  0  0  0
  -32.6770   58.9523   62.2718 C   0  0  0  0  0  0  0  0  0  0  0  0
  -34.1094   60.3408   62.4000 H   0  0  0  0  0  0  0  0  0  0  0  0
  -37.7057   61.8778   66.2732 O   0  0  0  0  0  0  0  0  0  0  0  0
  -37.5575   60.7744   65.8251 C   0  0  0  0  0  0  0  0  0  0  0  0
  -36.4755   60.0043   66.0341 O   0  0  0  0  0  0  0  0  0  0  0  0
  -35.2449   60.3282   65.3058 C   0  0  0  0  0  0  0  0  0  0  0  0
  -34.3895   59.0875   65.2580 C   0  0  0  0  0  0  0  0  0  0  0  0
  -34.5912   61.4499   66.0892 C   0  0  0  0  0  0  0  0  0  0  0  0
  -33.3639   62.7871   64.4928 N   0  0  0  0  0  0  0  0  0  0  0  0
  -35.2657   63.6260   65.3539 O   0  0  0  0  0  0  0  0  0  0  0  0
  -34.4389   62.7210   65.2835 C   0  0  0  0  0  0  0  0  0  0  0  0
  -32.7345   62.0302   64.4774 H   0  0  0  0  0  0  0  0  0  0  0  0
  -32.1690   64.3008   61.4310 N   0  0  0  0  0  0  0  0  0  0  0  0
  -31.5894   62.4462   62.5516 O   0  0  0  0  0  0  0  0  0  0  0  0
  -33.0974   63.9436   63.6555 C   0  0  0  0  0  0  0  0  0  0  0  0
  -32.3704   65.0235   64.4647 C   0  0  0  0  0  0  0  0  0  0  0  0
  -32.4474   66.4118   63.8387 C   0  0  0  0  0  0  0  0  0  0  0  0
  -31.8162   66.5439   62.4668 C   0  0  0  0  0  0  0  0  0  0  0  0
  -32.4944   65.7224   61.3906 C   0  0  0  0  0  0  0  0  0  0  0  0
  -32.2189   63.4987   62.4970 C   0  0  0  0  0  0  0  0  0  0  0  0
  -31.8826   63.8899   60.5834 H   0  0  0  0  0  0  0  0  0  0  0  0
  -39.5484   59.2426   65.7481 C   0  0  0  0  0  0  0  0  0  0  0  0
  -40.9850   59.7204   65.5663 C   0  0  0  0  0  0  0  0  0  0  0  0
  -41.1338   60.7638   64.4747 C   0  0  0  0  0  0  0  0  0  0  0  0
  -41.8808   60.2927   63.2462 C   0  0  0  0  0  0  0  0  0  0  0  0
  -41.7510   58.8542   63.0760 N   0  0  0  0  0  0  0  0  0  0  0  0
  -40.7626   59.0102   61.0530 O   0  0  0  0  0  0  0  0  0  0  0  0
  -41.1978   58.3139   61.9848 C   0  0  0  0  0  0  0  0  0  0  0  0
  -42.0811   58.2588   63.7872 H   0  0  0  0  0  0  0  0  0  0  0  0
  -41.4476   56.0650   63.0112 C   0  0  0  0  0  0  0  0  0  0  0  0
  -41.2247   56.8344   61.9543 C   0  0  0  0  0  0  0  0  0  0  0  0
  -41.7306   56.4967   64.4162 C   0  0  0  0  0  0  0  0  0  0  0  0
  -43.1862   56.2565   64.7978 C   0  0  0  0  0  0  0  0  0  0  0  0
  -43.8030   57.3856   65.6052 C   0  0  0  0  0  0  0  0  0  0  0  0
  -44.9314   58.1032   64.8836 C   0  0  0  0  0  0  0  0  0  0  0  0
  -46.2058   58.2409   65.6952 C   0  0  0  0  0  0  0  0  0  0  0  0
  -47.4524   58.4039   64.8415 C   0  0  0  0  0  0  0  0  0  0  0  0
  -48.4559   59.3845   65.4162 C   0  0  0  0  0  0  0  0  0  0  0  0
  -49.8927   58.9342   65.2444 C   0  0  0  0  0  0  0  0  0  0  0  0
  -50.8086   59.9809   64.6398 C   0  0  0  0  0  0  0  0  0  0  0  0
  -51.3638   59.5650   63.2919 C   0  0  0  0  0  0  0  0  0  0  0  0
  -50.3797   58.7567   62.4622 C   0  0  0  0  0  0  0  0  0  0  0  0
  -51.0248   57.6774   61.6103 C   0  0  0  0  0  0  0  0  0  0  0  0
  -50.1604   57.1933   60.4562 C   0  0  0  0  0  0  0  0  0  0  0  0
  -48.7167   57.6722   60.5230 C   0  0  0  0  0  0  0  0  0  0  0  0
  -48.2958   58.4944   59.3157 C   0  0  0  0  0  0  0  0  0  0  0  0
  -47.1739   56.3272   58.6672 C   0  0  0  0  0  0  0  0  0  0  0  0
  -47.2986   57.8046   58.4026 C   0  0  0  0  0  0  0  0  0  0  0  0
 43 45  1  0  0  0
 43 42  1  0  0  0
 43 46  1  0  0  0
 64 65  1  0  0  0
 44 45  2  0  0  0
 65 63  1  0  0  0
  2  1  1  0  0  0
  2  4  1  0  0  0
  2  5  1  0  0  0
  3  4  2  0  0  0
 63 62  1  0  0  0
  6  8  1  0  0  0
  6 11  2  0  0  0
  7 10  1  0  0  0
  7 11  1  0  0  0
 62 61  1  0  0  0
 26 28  1  0  0  0
 26 32  1  0  0  0
 26 29  1  0  0  0
 12 18  1  0  0  0
 12 19  1  0  0  0
 61 60  1  0  0  0
 30 36  1  0  0  0
 30 37  1  0  0  0
 30 38  1  0  0  0
 20 21  2  0  0  0
 60 59  1  0  0  0
 22 21  1  0  0  0
 22 23  1  0  0  0
 59 58  1  0  0  0
 27 28  2  0  0  0
 58 57  1  0  0  0
 31 37  2  0  0  0
 57 56  1  0  0  0
 56 55  1  0  0  0
 55 54  1  0  0  0
 54 53  1  0  0  0
 53 52  1  0  0  0
 52 51  1  0  0  0
 51 50  1  0  0  0
 50 49  1  0  0  0
 49 47  1  0  0  0
 47 48  2  0  0  0
 48 45  1  0  0  0
 42 41  1  0  0  0
 41 40  1  0  0  0
 40 39  1  0  0  0
 39  1  1  0  0  0
  1 21  1  0  0  0
  8  4  1  0  0  0
  8  9  1  0  0  0
  8 10  1  0  0  0
 11 13  1  0  0  0
 13 14  2  0  0  0
 13 18  1  0  0  0
 14 15  1  0  0  0
 15 16  2  0  0  0
 16 17  1  0  0  0
 17 18  2  0  0  0
 23 24  1  0  0  0
 23 25  1  0  0  0
 25 28  1  0  0  0
 32 33  1  0  0  0
 32 37  1  0  0  0
 33 34  1  0  0  0
 34 35  1  0  0  0
 35 36  1  0  0  0
M  END
> <minimizedAffinity>
-10.03349

> <CNNscore>
0.3573439419

> <CNNaffinity>
7.5763077736

> <CNN_VS>
2.7073476315

> <CNNaffinity_variance>
1.9315118790

$$$$
/media/chris/experiments/cd1a-new-docking/inputs/ligands/7ryo_ligand.pdb


 65 67  0  0  0  0  0  0  0  0999 V2000
  -36.4911   58.5178   61.5607 C   0  0  0  0  0  0  0  0  0  0  0  0
  -36.8382   59.1456   62.8248 N   0  0  0  0  0  0  0  0  0  0  0  0
  -38.1213   57.4253   63.4942 O   0  0  0  0  0  0  0  0  0  0  0  0
  -37.6397   58.5299   63.6973 C   0  0  0  0  0  0  0  0  0  0  0  0
  -36.4779   60.0361   63.0403 H   0  0  0  0  0  0  0  0  0  0  0  0
  -36.7427   59.7964   65.6113 N   0  0  0  0  0  0  0  0  0  0  0  0
  -38.1330   61.5679   65.5026 O   0  0  0  0  0  0  0  0  0  0  0  0
  -37.9759   59.2732   65.0006 C   0  0  0  0  0  0  0  0  0  0  0  0
  -38.6348   58.2965   65.9700 C   0  0  0  0  0  0  0  0  0  0  0  0
  -38.8382   60.5252   64.7826 C   0  0  0  0  0  0  0  0  0  0  0  0
  -36.9311   61.0304   65.8375 C   0  0  0  0  0  0  0  0  0  0  0  0
  -34.1345   60.4062   66.1067 O   0  0  0  0  0  0  0  0  0  0  0  0
  -35.9687   61.9549   66.4413 C   0  0  0  0  0  0  0  0  0  0  0  0
  -36.3606   63.2499   66.7829 C   0  0  0  0  0  0  0  0  0  0  0  0
  -35.4159   64.2029   67.1229 C   0  0  0  0  0  0  0  0  0  0  0  0
  -34.0751   63.8851   67.1289 C   0  0  0  0  0  0  0  0  0  0  0  0
  -33.6600   62.6102   66.7899 C   0  0  0  0  0  0  0  0  0  0  0  0
  -34.5944   61.6392   66.4433 C   0  0  0  0  0  0  0  0  0  0  0  0
  -34.7379   59.7301   65.8682 H   0  0  0  0  0  0  0  0  0  0  0  0
  -34.4332   57.8045   60.5134 O   0  0  0  0  0  0  0  0  0  0  0  0
  -34.9832   58.3911   61.4044 C   0  0  0  0  0  0  0  0  0  0  0  0
  -34.3504   59.0104   62.4159 O   0  0  0  0  0  0  0  0  0  0  0  0
  -33.3667   58.2452   63.1882 C   0  0  0  0  0  0  0  0  0  0  0  0
  -34.0835   57.5944   64.3442 C   0  0  0  0  0  0  0  0  0  0  0  0
  -32.3325   59.2554   63.6456 C   0  0  0  0  0  0  0  0  0  0  0  0
  -32.9559   61.5821   63.4442 N   0  0  0  0  0  0  0  0  0  0  0  0
  -31.8790   60.6100   61.7245 O   0  0  0  0  0  0  0  0  0  0  0  0
  -32.3698   60.5399   62.8478 C   0  0  0  0  0  0  0  0  0  0  0  0
  -33.3324   61.4669   64.3466 H   0  0  0  0  0  0  0  0  0  0  0  0
  -31.5537   64.7716   62.4673 N   0  0  0  0  0  0  0  0  0  0  0  0
  -31.1934   63.4090   64.2120 O   0  0  0  0  0  0  0  0  0  0  0  0
  -33.0533   62.8799   62.7995 C   0  0  0  0  0  0  0  0  0  0  0  0
  -34.3428   63.5871   63.2315 C   0  0  0  0  0  0  0  0  0  0  0  0
  -34.7628   64.7165   62.2970 C   0  0  0  0  0  0  0  0  0  0  0  0
  -33.7791   65.8637   62.1779 C   0  0  0  0  0  0  0  0  0  0  0  0
  -32.4507   65.4798   61.5604 C   0  0  0  0  0  0  0  0  0  0  0  0
  -31.8519   63.7110   63.2211 C   0  0  0  0  0  0  0  0  0  0  0  0
  -30.6318   65.1114   62.5298 H   0  0  0  0  0  0  0  0  0  0  0  0
  -37.1013   59.2735   60.3793 C   0  0  0  0  0  0  0  0  0  0  0  0
  -38.5314   59.7251   60.6555 C   0  0  0  0  0  0  0  0  0  0  0  0
  -39.5291   58.5818   60.6555 C   0  0  0  0  0  0  0  0  0  0  0  0
  -40.8576   58.9010   61.3055 C   0  0  0  0  0  0  0  0  0  0  0  0
  -41.0231   58.1602   62.5460 N   0  0  0  0  0  0  0  0  0  0  0  0
  -42.1551   59.8147   63.5830 O   0  0  0  0  0  0  0  0  0  0  0  0
  -41.6640   58.6742   63.6015 C   0  0  0  0  0  0  0  0  0  0  0  0
  -40.6513   57.2510   62.6110 H   0  0  0  0  0  0  0  0  0  0  0  0
  -42.7035   57.0927   65.2113 C   0  0  0  0  0  0  0  0  0  0  0  0
  -41.6636   57.8052   64.7996 C   0  0  0  0  0  0  0  0  0  0  0  0
  -44.0550   56.9915   64.5760 C   0  0  0  0  0  0  0  0  0  0  0  0
  -45.0334   57.9989   65.1677 C   0  0  0  0  0  0  0  0  0  0  0  0
  -46.1973   57.3619   65.9072 C   0  0  0  0  0  0  0  0  0  0  0  0
  -46.6964   58.1871   67.0815 C   0  0  0  0  0  0  0  0  0  0  0  0
  -47.8722   59.0894   66.7578 C   0  0  0  0  0  0  0  0  0  0  0  0
  -48.7755   58.5387   65.6668 C   0  0  0  0  0  0  0  0  0  0  0  0
  -50.2519   58.7518   65.9380 C   0  0  0  0  0  0  0  0  0  0  0  0
  -50.9118   59.6815   64.9396 C   0  0  0  0  0  0  0  0  0  0  0  0
  -50.0506   60.0235   63.7390 C   0  0  0  0  0  0  0  0  0  0  0  0
  -50.6198   59.4902   62.4391 C   0  0  0  0  0  0  0  0  0  0  0  0
  -50.0271   58.1518   62.0300 C   0  0  0  0  0  0  0  0  0  0  0  0
  -50.5933   57.5907   60.7372 C   0  0  0  0  0  0  0  0  0  0  0  0
  -49.7438   57.8756   59.5081 C   0  0  0  0  0  0  0  0  0  0  0  0
  -48.5716   56.9198   59.3328 C   0  0  0  0  0  0  0  0  0  0  0  0
  -47.2387   57.6259   59.1436 C   0  0  0  0  0  0  0  0  0  0  0  0
  -47.5068   57.1868   56.6714 C   0  0  0  0  0  0  0  0  0  0  0  0
  -46.9851   58.1211   57.7313 C   0  0  0  0  0  0  0  0  0  0  0  0
 43 45  1  0  0  0
 43 42  1  0  0  0
 43 46  1  0  0  0
 64 65  1  0  0  0
 44 45  2  0  0  0
 65 63  1  0  0  0
  2  1  1  0  0  0
  2  4  1  0  0  0
  2  5  1  0  0  0
  3  4  2  0  0  0
 63 62  1  0  0  0
  6  8  1  0  0  0
  6 11  2  0  0  0
  7 10  1  0  0  0
  7 11  1  0  0  0
 62 61  1  0  0  0
 26 28  1  0  0  0
 26 32  1  0  0  0
 26 29  1  0  0  0
 12 18  1  0  0  0
 12 19  1  0  0  0
 61 60  1  0  0  0
 30 36  1  0  0  0
 30 37  1  0  0  0
 30 38  1  0  0  0
 20 21  2  0  0  0
 60 59  1  0  0  0
 22 21  1  0  0  0
 22 23  1  0  0  0
 59 58  1  0  0  0
 27 28  2  0  0  0
 58 57  1  0  0  0
 31 37  2  0  0  0
 57 56  1  0  0  0
 56 55  1  0  0  0
 55 54  1  0  0  0
 54 53  1  0  0  0
 53 52  1  0  0  0
 52 51  1  0  0  0
 51 50  1  0  0  0
 50 49  1  0  0  0
 49 47  1  0  0  0
 47 48  2  0  0  0
 48 45  1  0  0  0
 42 41  1  0  0  0
 41 40  1  0  0  0
 40 39  1  0  0  0
 39  1  1  0  0  0
  1 21  1  0  0  0
  8  4  1  0  0  0
  8  9  1  0  0  0
  8 10  1  0  0  0
 11 13  1  0  0  0
 13 14  2  0  0  0
 13 18  1  0  0  0
 14 15  1  0  0  0
 15 16  2  0  0  0
 16 17  1  0  0  0
 17 18  2  0  0  0
 23 24  1  0  0  0
 23 25  1  0  0  0
 25 28  1  0  0  0
 32 33  1  0  0  0
 32 37  1  0  0  0
 33 34  1  0  0  0
 34 35  1  0  0  0
 35 36  1  0  0  0
M  END
> <minimizedAffinity>
-8.47262

> <CNNscore>
0.2719883919

> <CNNaffinity>
7.4426193237

> <CNN_VS>
2.0243060589

> <CNNaffinity_variance>
0.7839285731

$$$$
/media/chris/experiments/cd1a-new-docking/inputs/ligands/7ryo_ligand.pdb


 65 67  0  0  0  0  0  0  0  0999 V2000
  -38.6236   59.4230   65.6698 C   0  0  0  0  0  0  0  0  0  0  0  0
  -39.6975   58.6895   65.0209 N   0  0  0  0  0  0  0  0  0  0  0  0
  -41.1863   59.1470   66.6420 O   0  0  0  0  0  0  0  0  0  0  0  0
  -40.9091   58.6155   65.5771 C   0  0  0  0  0  0  0  0  0  0  0  0
  -39.5295   58.2416   64.1604 H   0  0  0  0  0  0  0  0  0  0  0  0
  -43.1731   57.6494   65.6895 N   0  0  0  0  0  0  0  0  0  0  0  0
  -43.9583   58.4455   63.7317 O   0  0  0  0  0  0  0  0  0  0  0  0
  -41.9823   57.8003   64.8370 C   0  0  0  0  0  0  0  0  0  0  0  0
  -41.4203   56.4179   64.5191 C   0  0  0  0  0  0  0  0  0  0  0  0
  -42.5173   58.4987   63.5782 C   0  0  0  0  0  0  0  0  0  0  0  0
  -44.1736   58.0234   65.0050 C   0  0  0  0  0  0  0  0  0  0  0  0
  -45.0140   56.9076   67.5214 O   0  0  0  0  0  0  0  0  0  0  0  0
  -45.5683   58.0420   65.4524 C   0  0  0  0  0  0  0  0  0  0  0  0
  -46.5293   58.7414   64.7213 C   0  0  0  0  0  0  0  0  0  0  0  0
  -47.7865   58.9714   65.2533 C   0  0  0  0  0  0  0  0  0  0  0  0
  -48.1058   58.5120   66.5126 C   0  0  0  0  0  0  0  0  0  0  0  0
  -47.1699   57.8202   67.2596 C   0  0  0  0  0  0  0  0  0  0  0  0
  -45.9004   57.5810   66.7429 C   0  0  0  0  0  0  0  0  0  0  0  0
  -44.1507   56.7305   67.2027 H   0  0  0  0  0  0  0  0  0  0  0  0
  -38.1220   60.4884   63.5593 O   0  0  0  0  0  0  0  0  0  0  0  0
  -38.0671   60.5063   64.7581 C   0  0  0  0  0  0  0  0  0  0  0  0
  -37.4852   61.4787   65.4814 O   0  0  0  0  0  0  0  0  0  0  0  0
  -36.0961   61.8326   65.1735 C   0  0  0  0  0  0  0  0  0  0  0  0
  -35.2099   61.1980   66.2154 C   0  0  0  0  0  0  0  0  0  0  0  0
  -36.0427   63.3474   65.2157 C   0  0  0  0  0  0  0  0  0  0  0  0
  -34.4764   63.9946   63.4922 N   0  0  0  0  0  0  0  0  0  0  0  0
  -33.8669   64.2502   65.6428 O   0  0  0  0  0  0  0  0  0  0  0  0
  -34.6960   63.9016   64.8069 C   0  0  0  0  0  0  0  0  0  0  0  0
  -35.1784   63.6994   62.8682 H   0  0  0  0  0  0  0  0  0  0  0  0
  -32.3722   66.7320   62.4092 N   0  0  0  0  0  0  0  0  0  0  0  0
  -34.5920   66.4107   62.4047 O   0  0  0  0  0  0  0  0  0  0  0  0
  -33.2319   64.5188   62.9574 C   0  0  0  0  0  0  0  0  0  0  0  0
  -32.8091   63.7147   61.7228 C   0  0  0  0  0  0  0  0  0  0  0  0
  -31.3355   63.8746   61.3646 C   0  0  0  0  0  0  0  0  0  0  0  0
  -30.9005   65.2824   61.0087 C   0  0  0  0  0  0  0  0  0  0  0  0
  -31.0121   66.2727   62.1488 C   0  0  0  0  0  0  0  0  0  0  0  0
  -33.4575   65.9706   62.5658 C   0  0  0  0  0  0  0  0  0  0  0  0
  -32.5034   67.7054   62.4767 H   0  0  0  0  0  0  0  0  0  0  0  0
  -37.5136   58.4819   66.1405 C   0  0  0  0  0  0  0  0  0  0  0  0
  -36.8425   57.7512   64.9825 C   0  0  0  0  0  0  0  0  0  0  0  0
  -35.3319   57.6881   65.1115 C   0  0  0  0  0  0  0  0  0  0  0  0
  -34.5744   58.5048   64.0875 C   0  0  0  0  0  0  0  0  0  0  0  0
  -35.4202   58.8300   62.9500 N   0  0  0  0  0  0  0  0  0  0  0  0
  -34.7595   57.0489   61.7313 O   0  0  0  0  0  0  0  0  0  0  0  0
  -35.4515   58.0736   61.8474 C   0  0  0  0  0  0  0  0  0  0  0  0
  -35.9880   59.6331   62.9929 H   0  0  0  0  0  0  0  0  0  0  0  0
  -37.6167   58.3950   60.6718 C   0  0  0  0  0  0  0  0  0  0  0  0
  -36.3106   58.6049   60.7657 C   0  0  0  0  0  0  0  0  0  0  0  0
  -38.4906   57.6211   61.6086 C   0  0  0  0  0  0  0  0  0  0  0  0
  -39.9649   57.7593   61.2488 C   0  0  0  0  0  0  0  0  0  0  0  0
  -40.3494   59.1446   60.7587 C   0  0  0  0  0  0  0  0  0  0  0  0
  -40.4542   59.2472   59.2462 C   0  0  0  0  0  0  0  0  0  0  0  0
  -41.6169   58.4797   58.6457 C   0  0  0  0  0  0  0  0  0  0  0  0
  -41.8843   58.8266   57.1906 C   0  0  0  0  0  0  0  0  0  0  0  0
  -43.3198   59.2317   56.9185 C   0  0  0  0  0  0  0  0  0  0  0  0
  -44.2893   58.0690   56.9889 C   0  0  0  0  0  0  0  0  0  0  0  0
  -45.6890   58.4474   57.4336 C   0  0  0  0  0  0  0  0  0  0  0  0
  -46.7043   57.3541   57.1652 C   0  0  0  0  0  0  0  0  0  0  0  0
  -48.0467   57.6063   57.8317 C   0  0  0  0  0  0  0  0  0  0  0  0
  -47.9718   57.7629   59.3405 C   0  0  0  0  0  0  0  0  0  0  0  0
  -49.0703   57.0341   60.0991 C   0  0  0  0  0  0  0  0  0  0  0  0
  -50.3449   57.8485   60.2734 C   0  0  0  0  0  0  0  0  0  0  0  0
  -50.9552   57.7270   61.6604 C   0  0  0  0  0  0  0  0  0  0  0  0
  -49.7085   59.8989   61.9838 C   0  0  0  0  0  0  0  0  0  0  0  0
  -50.6656   58.9000   62.5792 C   0  0  0  0  0  0  0  0  0  0  0  0
 43 45  1  0  0  0
 43 42  1  0  0  0
 43 46  1  0  0  0
 64 65  1  0  0  0
 44 45  2  0  0  0
 65 63  1  0  0  0
  2  1  1  0  0  0
  2  4  1  0  0  0
  2  5  1  0  0  0
  3  4  2  0  0  0
 63 62  1  0  0  0
  6  8  1  0  0  0
  6 11  2  0  0  0
  7 10  1  0  0  0
  7 11  1  0  0  0
 62 61  1  0  0  0
 26 28  1  0  0  0
 26 32  1  0  0  0
 26 29  1  0  0  0
 12 18  1  0  0  0
 12 19  1  0  0  0
 61 60  1  0  0  0
 30 36  1  0  0  0
 30 37  1  0  0  0
 30 38  1  0  0  0
 20 21  2  0  0  0
 60 59  1  0  0  0
 22 21  1  0  0  0
 22 23  1  0  0  0
 59 58  1  0  0  0
 27 28  2  0  0  0
 58 57  1  0  0  0
 31 37  2  0  0  0
 57 56  1  0  0  0
 56 55  1  0  0  0
 55 54  1  0  0  0
 54 53  1  0  0  0
 53 52  1  0  0  0
 52 51  1  0  0  0
 51 50  1  0  0  0
 50 49  1  0  0  0
 49 47  1  0  0  0
 47 48  2  0  0  0
 48 45  1  0  0  0
 42 41  1  0  0  0
 41 40  1  0  0  0
 40 39  1  0  0  0
 39  1  1  0  0  0
  1 21  1  0  0  0
  8  4  1  0  0  0
  8  9  1  0  0  0
  8 10  1  0  0  0
 11 13  1  0  0  0
 13 14  2  0  0  0
 13 18  1  0  0  0
 14 15  1  0  0  0
 15 16  2  0  0  0
 16 17  1  0  0  0
 17 18  2  0  0  0
 23 24  1  0  0  0
 23 25  1  0  0  0
 25 28  1  0  0  0
 32 33  1  0  0  0
 32 37  1  0  0  0
 33 34  1  0  0  0
 34 35  1  0  0  0
 35 36  1  0  0  0
M  END
> <minimizedAffinity>
-8.07195

> <CNNscore>
0.2531378865

> <CNNaffinity>
7.5279378891

> <CNN_VS>
1.9056062698

> <CNNaffinity_variance>
1.0782307386

$$$$
/media/chris/experiments/cd1a-new-docking/inputs/ligands/7ryo_ligand.pdb


 65 67  0  0  0  0  0  0  0  0999 V2000
  -37.1525   57.5646   61.8422 C   0  0  0  0  0  0  0  0  0  0  0  0
  -38.5493   57.7717   62.1868 N   0  0  0  0  0  0  0  0  0  0  0  0
  -39.0593   55.5868   62.0462 O   0  0  0  0  0  0  0  0  0  0  0  0
  -39.3961   56.7420   62.2595 C   0  0  0  0  0  0  0  0  0  0  0  0
  -38.8750   58.6827   62.3688 H   0  0  0  0  0  0  0  0  0  0  0  0
  -40.9895   57.3126   64.0504 N   0  0  0  0  0  0  0  0  0  0  0  0
  -41.9767   59.0758   63.0505 O   0  0  0  0  0  0  0  0  0  0  0  0
  -40.8617   57.0502   62.6073 C   0  0  0  0  0  0  0  0  0  0  0  0
  -41.7199   55.8422   62.2440 C   0  0  0  0  0  0  0  0  0  0  0  0
  -41.3856   58.3364   61.9519 C   0  0  0  0  0  0  0  0  0  0  0  0
  -41.5968   58.4191   64.1776 C   0  0  0  0  0  0  0  0  0  0  0  0
  -42.9185   57.0404   66.3307 O   0  0  0  0  0  0  0  0  0  0  0  0
  -41.9443   59.0738   65.4410 C   0  0  0  0  0  0  0  0  0  0  0  0
  -41.5096   60.3744   65.6989 C   0  0  0  0  0  0  0  0  0  0  0  0
  -41.6183   60.9122   66.9699 C   0  0  0  0  0  0  0  0  0  0  0  0
  -42.1578   60.1698   67.9978 C   0  0  0  0  0  0  0  0  0  0  0  0
  -42.5919   58.8767   67.7697 C   0  0  0  0  0  0  0  0  0  0  0  0
  -42.4891   58.3180   66.4995 C   0  0  0  0  0  0  0  0  0  0  0  0
  -42.8629   56.6350   65.4876 H   0  0  0  0  0  0  0  0  0  0  0  0
  -35.0547   57.6897   63.0355 O   0  0  0  0  0  0  0  0  0  0  0  0
  -36.2536   57.7410   63.0567 C   0  0  0  0  0  0  0  0  0  0  0  0
  -36.9899   57.9416   64.1634 O   0  0  0  0  0  0  0  0  0  0  0  0
  -36.7096   59.1305   64.9744 C   0  0  0  0  0  0  0  0  0  0  0  0
  -37.8375   59.3003   65.9607 C   0  0  0  0  0  0  0  0  0  0  0  0
  -36.6235   60.2826   63.9924 C   0  0  0  0  0  0  0  0  0  0  0  0
  -35.4731   62.2456   64.8083 N   0  0  0  0  0  0  0  0  0  0  0  0
  -34.2860   60.6986   63.6861 O   0  0  0  0  0  0  0  0  0  0  0  0
  -35.3551   61.0927   64.1434 C   0  0  0  0  0  0  0  0  0  0  0  0
  -36.3565   62.5107   65.1527 H   0  0  0  0  0  0  0  0  0  0  0  0
  -33.1207   63.9116   66.9956 N   0  0  0  0  0  0  0  0  0  0  0  0
  -35.2583   63.2784   67.2415 O   0  0  0  0  0  0  0  0  0  0  0  0
  -34.3354   63.1189   65.0375 C   0  0  0  0  0  0  0  0  0  0  0  0
  -34.4961   64.4149   64.2349 C   0  0  0  0  0  0  0  0  0  0  0  0
  -33.1915   65.1808   64.0434 C   0  0  0  0  0  0  0  0  0  0  0  0
  -32.5243   65.6600   65.3174 C   0  0  0  0  0  0  0  0  0  0  0  0
  -32.0539   64.5454   66.2281 C   0  0  0  0  0  0  0  0  0  0  0  0
  -34.2777   63.4440   66.5218 C   0  0  0  0  0  0  0  0  0  0  0  0
  -32.9716   63.8191   67.9643 H   0  0  0  0  0  0  0  0  0  0  0  0
  -36.7188   58.4881   60.7028 C   0  0  0  0  0  0  0  0  0  0  0  0
  -37.6736   59.6617   60.5117 C   0  0  0  0  0  0  0  0  0  0  0  0
  -38.7128   59.4166   59.4334 C   0  0  0  0  0  0  0  0  0  0  0  0
  -40.1127   59.8668   59.7896 C   0  0  0  0  0  0  0  0  0  0  0  0
  -40.9495   59.9574   58.6036 N   0  0  0  0  0  0  0  0  0  0  0  0
  -41.6470   57.8142   58.7228 O   0  0  0  0  0  0  0  0  0  0  0  0
  -41.6604   58.9178   58.1534 C   0  0  0  0  0  0  0  0  0  0  0  0
  -40.9940   60.8116   58.1162 H   0  0  0  0  0  0  0  0  0  0  0  0
  -43.6462   58.8232   56.6630 C   0  0  0  0  0  0  0  0  0  0  0  0
  -42.3883   59.1758   56.8907 C   0  0  0  0  0  0  0  0  0  0  0  0
  -44.5874   58.1292   57.5974 C   0  0  0  0  0  0  0  0  0  0  0  0
  -46.0121   58.1169   57.0569 C   0  0  0  0  0  0  0  0  0  0  0  0
  -47.0684   58.4221   58.1049 C   0  0  0  0  0  0  0  0  0  0  0  0
  -47.1581   57.3737   59.2012 C   0  0  0  0  0  0  0  0  0  0  0  0
  -48.5740   56.9689   59.5659 C   0  0  0  0  0  0  0  0  0  0  0  0
  -49.5651   58.1197   59.5135 C   0  0  0  0  0  0  0  0  0  0  0  0
  -49.5872   58.9579   60.7767 C   0  0  0  0  0  0  0  0  0  0  0  0
  -49.6655   58.1260   62.0410 C   0  0  0  0  0  0  0  0  0  0  0  0
  -50.9325   58.3324   62.8485 C   0  0  0  0  0  0  0  0  0  0  0  0
  -51.2847   59.7967   63.0214 C   0  0  0  0  0  0  0  0  0  0  0  0
  -51.2489   60.2546   64.4702 C   0  0  0  0  0  0  0  0  0  0  0  0
  -50.1899   59.5660   65.3135 C   0  0  0  0  0  0  0  0  0  0  0  0
  -48.8790   60.3305   65.4159 C   0  0  0  0  0  0  0  0  0  0  0  0
  -47.7179   59.6647   64.6902 C   0  0  0  0  0  0  0  0  0  0  0  0
  -47.5412   58.1982   65.0495 C   0  0  0  0  0  0  0  0  0  0  0  0
  -46.2448   58.5809   67.1823 C   0  0  0  0  0  0  0  0  0  0  0  0
  -46.2838   57.8929   65.8431 C   0  0  0  0  0  0  0  0  0  0  0  0
 43 45  1  0  0  0
 43 42  1  0  0  0
 43 46  1  0  0  0
 64 65  1  0  0  0
 44 45  2  0  0  0
 65 63  1  0  0  0
  2  1  1  0  0  0
  2  4  1  0  0  0
  2  5  1  0  0  0
  3  4  2  0  0  0
 63 62  1  0  0  0
  6  8  1  0  0  0
  6 11  2  0  0  0
  7 10  1  0  0  0
  7 11  1  0  0  0
 62 61  1  0  0  0
 26 28  1  0  0  0
 26 32  1  0  0  0
 26 29  1  0  0  0
 12 18  1  0  0  0
 12 19  1  0  0  0
 61 60  1  0  0  0
 30 36  1  0  0  0
 30 37  1  0  0  0
 30 38  1  0  0  0
 20 21  2  0  0  0
 60 59  1  0  0  0
 22 21  1  0  0  0
 22 23  1  0  0  0
 59 58  1  0  0  0
 27 28  2  0  0  0
 58 57  1  0  0  0
 31 37  2  0  0  0
 57 56  1  0  0  0
 56 55  1  0  0  0
 55 54  1  0  0  0
 54 53  1  0  0  0
 53 52  1  0  0  0
 52 51  1  0  0  0
 51 50  1  0  0  0
 50 49  1  0  0  0
 49 47  1  0  0  0
 47 48  2  0  0  0
 48 45  1  0  0  0
 42 41  1  0  0  0
 41 40  1  0  0  0
 40 39  1  0  0  0
 39  1  1  0  0  0
  1 21  1  0  0  0
  8  4  1  0  0  0
  8  9  1  0  0  0
  8 10  1  0  0  0
 11 13  1  0  0  0
 13 14  2  0  0  0
 13 18  1  0  0  0
 14 15  1  0  0  0
 15 16  2  0  0  0
 16 17  1  0  0  0
 17 18  2  0  0  0
 23 24  1  0  0  0
 23 25  1  0  0  0
 25 28  1  0  0  0
 32 33  1  0  0  0
 32 37  1  0  0  0
 33 34  1  0  0  0
 34 35  1  0  0  0
 35 36  1  0  0  0
M  END
> <minimizedAffinity>
-8.47714

> <CNNscore>
0.2102326006

> <CNNaffinity>
7.6984977722

> <CNN_VS>
1.6184751987

> <CNNaffinity_variance>
1.3798964024

$$$$
/media/chris/experiments/cd1a-new-docking/inputs/ligands/7ryo_ligand.pdb


 65 67  0  0  0  0  0  0  0  0999 V2000
  -37.9408   58.1346   65.1833 C   0  0  0  0  0  0  0  0  0  0  0  0
  -36.7838   58.3204   64.3234 N   0  0  0  0  0  0  0  0  0  0  0  0
  -35.4751   56.9603   65.5446 O   0  0  0  0  0  0  0  0  0  0  0  0
  -35.6294   57.7032   64.5868 C   0  0  0  0  0  0  0  0  0  0  0  0
  -36.8521   58.9087   63.5370 H   0  0  0  0  0  0  0  0  0  0  0  0
  -34.4928   59.3652   63.1662 N   0  0  0  0  0  0  0  0  0  0  0  0
  -32.4019   59.0913   63.9637 O   0  0  0  0  0  0  0  0  0  0  0  0
  -34.4477   57.9721   63.6405 C   0  0  0  0  0  0  0  0  0  0  0  0
  -34.5528   57.0352   62.4409 C   0  0  0  0  0  0  0  0  0  0  0  0
  -33.0792   57.8620   64.3287 C   0  0  0  0  0  0  0  0  0  0  0  0
  -33.3517   59.8734   63.3878 C   0  0  0  0  0  0  0  0  0  0  0  0
  -34.4993   62.1742   64.6811 O   0  0  0  0  0  0  0  0  0  0  0  0
  -32.9408   61.2441   63.0746 C   0  0  0  0  0  0  0  0  0  0  0  0
  -31.8585   61.4741   62.2244 C   0  0  0  0  0  0  0  0  0  0  0  0
  -31.3095   62.7400   62.1131 C   0  0  0  0  0  0  0  0  0  0  0  0
  -31.8252   63.7905   62.8406 C   0  0  0  0  0  0  0  0  0  0  0  0
  -32.8946   63.5883   63.6938 C   0  0  0  0  0  0  0  0  0  0  0  0
  -33.4587   62.3227   63.8208 C   0  0  0  0  0  0  0  0  0  0  0  0
  -34.9014   61.3348   64.7897 H   0  0  0  0  0  0  0  0  0  0  0  0
  -39.2034   57.6230   63.1871 O   0  0  0  0  0  0  0  0  0  0  0  0
  -39.1530   57.6791   64.3849 C   0  0  0  0  0  0  0  0  0  0  0  0
  -40.1696   57.3674   65.2074 O   0  0  0  0  0  0  0  0  0  0  0  0
  -41.4684   58.0068   64.9747 C   0  0  0  0  0  0  0  0  0  0  0  0
  -41.5147   59.2791   65.7826 C   0  0  0  0  0  0  0  0  0  0  0  0
  -42.5061   56.9980   65.4272 C   0  0  0  0  0  0  0  0  0  0  0  0
  -44.7776   57.3778   66.1608 N   0  0  0  0  0  0  0  0  0  0  0  0
  -44.2535   57.8348   64.0211 O   0  0  0  0  0  0  0  0  0  0  0  0
  -43.9233   57.4385   65.1353 C   0  0  0  0  0  0  0  0  0  0  0  0
  -44.4562   57.0512   67.0322 H   0  0  0  0  0  0  0  0  0  0  0  0
  -47.5845   59.4907   67.0275 N   0  0  0  0  0  0  0  0  0  0  0  0
  -45.7943   58.7743   68.1732 O   0  0  0  0  0  0  0  0  0  0  0  0
  -46.1668   57.7799   66.0268 C   0  0  0  0  0  0  0  0  0  0  0  0
  -47.0800   56.5507   66.0961 C   0  0  0  0  0  0  0  0  0  0  0  0
  -48.4735   56.7917   65.5257 C   0  0  0  0  0  0  0  0  0  0  0  0
  -49.2923   57.8535   66.2327 C   0  0  0  0  0  0  0  0  0  0  0  0
  -48.7136   59.2495   66.1356 C   0  0  0  0  0  0  0  0  0  0  0  0
  -46.4999   58.7256   67.1699 C   0  0  0  0  0  0  0  0  0  0  0  0
  -47.6267   60.3030   67.5822 H   0  0  0  0  0  0  0  0  0  0  0  0
  -38.2541   59.4052   65.9749 C   0  0  0  0  0  0  0  0  0  0  0  0
  -37.6705   60.6540   65.3227 C   0  0  0  0  0  0  0  0  0  0  0  0
  -38.1951   60.8953   63.9194 C   0  0  0  0  0  0  0  0  0  0  0  0
  -37.1354   60.8991   62.8394 C   0  0  0  0  0  0  0  0  0  0  0  0
  -37.7290   60.7128   61.5250 N   0  0  0  0  0  0  0  0  0  0  0  0
  -36.8582   58.6508   61.2352 O   0  0  0  0  0  0  0  0  0  0  0  0
  -37.5461   59.5949   60.8137 C   0  0  0  0  0  0  0  0  0  0  0  0
  -38.2834   61.4328   61.1463 H   0  0  0  0  0  0  0  0  0  0  0  0
  -39.4316   59.3317   59.2172 C   0  0  0  0  0  0  0  0  0  0  0  0
  -38.1615   59.6191   59.4679 C   0  0  0  0  0  0  0  0  0  0  0  0
  -40.4965   58.9513   60.1979 C   0  0  0  0  0  0  0  0  0  0  0  0
  -41.5494   58.0492   59.5657 C   0  0  0  0  0  0  0  0  0  0  0  0
  -41.5880   58.1211   58.0489 C   0  0  0  0  0  0  0  0  0  0  0  0
  -42.4714   59.2365   57.5153 C   0  0  0  0  0  0  0  0  0  0  0  0
  -43.6221   58.7628   56.6475 C   0  0  0  0  0  0  0  0  0  0  0  0
  -44.7399   58.0985   57.4341 C   0  0  0  0  0  0  0  0  0  0  0  0
  -46.0765   58.8012   57.2981 C   0  0  0  0  0  0  0  0  0  0  0  0
  -47.2467   57.9425   57.7339 C   0  0  0  0  0  0  0  0  0  0  0  0
  -46.9977   57.1392   58.9960 C   0  0  0  0  0  0  0  0  0  0  0  0
  -48.2767   56.6141   59.6177 C   0  0  0  0  0  0  0  0  0  0  0  0
  -49.4555   57.5591   59.4520 C   0  0  0  0  0  0  0  0  0  0  0  0
  -50.5216   57.4166   60.5242 C   0  0  0  0  0  0  0  0  0  0  0  0
  -50.0024   57.5716   61.9454 C   0  0  0  0  0  0  0  0  0  0  0  0
  -49.2258   58.8596   62.1819 C   0  0  0  0  0  0  0  0  0  0  0  0
  -50.1169   60.0696   62.4113 C   0  0  0  0  0  0  0  0  0  0  0  0
  -51.3653   60.5365   64.5560 C   0  0  0  0  0  0  0  0  0  0  0  0
  -51.3524   59.7904   63.2478 C   0  0  0  0  0  0  0  0  0  0  0  0
 43 45  1  0  0  0
 43 42  1  0  0  0
 43 46  1  0  0  0
 64 65  1  0  0  0
 44 45  2  0  0  0
 65 63  1  0  0  0
  2  1  1  0  0  0
  2  4  1  0  0  0
  2  5  1  0  0  0
  3  4  2  0  0  0
 63 62  1  0  0  0
  6  8  1  0  0  0
  6 11  2  0  0  0
  7 10  1  0  0  0
  7 11  1  0  0  0
 62 61  1  0  0  0
 26 28  1  0  0  0
 26 32  1  0  0  0
 26 29  1  0  0  0
 12 18  1  0  0  0
 12 19  1  0  0  0
 61 60  1  0  0  0
 30 36  1  0  0  0
 30 37  1  0  0  0
 30 38  1  0  0  0
 20 21  2  0  0  0
 60 59  1  0  0  0
 22 21  1  0  0  0
 22 23  1  0  0  0
 59 58  1  0  0  0
 27 28  2  0  0  0
 58 57  1  0  0  0
 31 37  2  0  0  0
 57 56  1  0  0  0
 56 55  1  0  0  0
 55 54  1  0  0  0
 54 53  1  0  0  0
 53 52  1  0  0  0
 52 51  1  0  0  0
 51 50  1  0  0  0
 50 49  1  0  0  0
 49 47  1  0  0  0
 47 48  2  0  0  0
 48 45  1  0  0  0
 42 41  1  0  0  0
 41 40  1  0  0  0
 40 39  1  0  0  0
 39  1  1  0  0  0
  1 21  1  0  0  0
  8  4  1  0  0  0
  8  9  1  0  0  0
  8 10  1  0  0  0
 11 13  1  0  0  0
 13 14  2  0  0  0
 13 18  1  0  0  0
 14 15  1  0  0  0
 15 16  2  0  0  0
 16 17  1  0  0  0
 17 18  2  0  0  0
 23 24  1  0  0  0
 23 25  1  0  0  0
 25 28  1  0  0  0
 32 33  1  0  0  0
 32 37  1  0  0  0
 33 34  1  0  0  0
 34 35  1  0  0  0
 35 36  1  0  0  0
M  END
> <minimizedAffinity>
-7.81235

> <CNNscore>
0.1912826747

> <CNNaffinity>
7.6156845093

> <CNN_VS>
1.4567484856

> <CNNaffinity_variance>
1.1338819265

$$$$
/media/chris/experiments/cd1a-new-docking/inputs/ligands/7ryo_ligand.pdb


 65 67  0  0  0  0  0  0  0  0999 V2000
  -39.6152   59.6409   65.1260 C   0  0  0  0  0  0  0  0  0  0  0  0
  -40.6463   58.6846   64.7590 N   0  0  0  0  0  0  0  0  0  0  0  0
  -41.8530   59.0504   66.6202 O   0  0  0  0  0  0  0  0  0  0  0  0
  -41.6957   58.4702   65.5562 C   0  0  0  0  0  0  0  0  0  0  0  0
  -40.5700   58.1887   63.9120 H   0  0  0  0  0  0  0  0  0  0  0  0
  -43.9279   57.5061   65.9561 N   0  0  0  0  0  0  0  0  0  0  0  0
  -44.7075   57.6171   63.8435 O   0  0  0  0  0  0  0  0  0  0  0  0
  -42.7291   57.4249   65.1051 C   0  0  0  0  0  0  0  0  0  0  0  0
  -42.1164   56.0343   65.2412 C   0  0  0  0  0  0  0  0  0  0  0  0
  -43.2667   57.6721   63.6880 C   0  0  0  0  0  0  0  0  0  0  0  0
  -44.9291   57.6091   65.1838 C   0  0  0  0  0  0  0  0  0  0  0  0
  -46.6157   59.8061   64.4017 O   0  0  0  0  0  0  0  0  0  0  0  0
  -46.3306   57.7162   65.5959 C   0  0  0  0  0  0  0  0  0  0  0  0
  -46.9431   56.6634   66.2769 C   0  0  0  0  0  0  0  0  0  0  0  0
  -48.3158   56.6467   66.4554 C   0  0  0  0  0  0  0  0  0  0  0  0
  -49.0960   57.6702   65.9629 C   0  0  0  0  0  0  0  0  0  0  0  0
  -48.5142   58.7229   65.2804 C   0  0  0  0  0  0  0  0  0  0  0  0
  -47.1364   58.7566   65.0891 C   0  0  0  0  0  0  0  0  0  0  0  0
  -45.6916   59.8584   64.2557 H   0  0  0  0  0  0  0  0  0  0  0  0
  -39.6600   60.9440   63.0911 O   0  0  0  0  0  0  0  0  0  0  0  0
  -39.0281   60.3170   63.8961 C   0  0  0  0  0  0  0  0  0  0  0  0
  -37.7039   60.0970   63.8237 O   0  0  0  0  0  0  0  0  0  0  0  0
  -36.8091   61.2584   63.8176 C   0  0  0  0  0  0  0  0  0  0  0  0
  -36.5530   61.6439   62.3825 C   0  0  0  0  0  0  0  0  0  0  0  0
  -35.5480   60.8050   64.5270 C   0  0  0  0  0  0  0  0  0  0  0  0
  -34.3548   62.8255   65.1069 N   0  0  0  0  0  0  0  0  0  0  0  0
  -33.5172   61.5179   63.4789 O   0  0  0  0  0  0  0  0  0  0  0  0
  -34.3831   61.7470   64.3187 C   0  0  0  0  0  0  0  0  0  0  0  0
  -35.0770   62.9574   65.7629 H   0  0  0  0  0  0  0  0  0  0  0  0
  -31.8435   64.9436   66.6239 N   0  0  0  0  0  0  0  0  0  0  0  0
  -33.8320   64.1799   67.3264 O   0  0  0  0  0  0  0  0  0  0  0  0
  -33.2891   63.8088   65.0237 C   0  0  0  0  0  0  0  0  0  0  0  0
  -33.7153   64.9725   64.1216 C   0  0  0  0  0  0  0  0  0  0  0  0
  -32.5473   65.8082   63.6093 C   0  0  0  0  0  0  0  0  0  0  0  0
  -31.7237   66.5006   64.6771 C   0  0  0  0  0  0  0  0  0  0  0  0
  -30.9937   65.5548   65.6076 C   0  0  0  0  0  0  0  0  0  0  0  0
  -33.0112   64.3278   66.4257 C   0  0  0  0  0  0  0  0  0  0  0  0
  -31.5220   64.9900   67.5533 H   0  0  0  0  0  0  0  0  0  0  0  0
  -38.5180   58.9809   65.9626 C   0  0  0  0  0  0  0  0  0  0  0  0
  -38.0494   57.6583   65.3655 C   0  0  0  0  0  0  0  0  0  0  0  0
  -36.5982   57.3433   65.6772 C   0  0  0  0  0  0  0  0  0  0  0  0
  -35.7155   57.1584   64.4622 C   0  0  0  0  0  0  0  0  0  0  0  0
  -36.3410   57.7149   63.2731 N   0  0  0  0  0  0  0  0  0  0  0  0
  -34.7130   57.0094   61.8781 O   0  0  0  0  0  0  0  0  0  0  0  0
  -35.7908   57.5993   62.0595 C   0  0  0  0  0  0  0  0  0  0  0  0
  -37.1971   58.1923   63.3643 H   0  0  0  0  0  0  0  0  0  0  0  0
  -37.8443   58.2341   60.8132 C   0  0  0  0  0  0  0  0  0  0  0  0
  -36.5307   58.2964   60.9838 C   0  0  0  0  0  0  0  0  0  0  0  0
  -38.8427   57.4915   61.6450 C   0  0  0  0  0  0  0  0  0  0  0  0
  -40.2702   57.7519   61.1793 C   0  0  0  0  0  0  0  0  0  0  0  0
  -40.4297   59.0317   60.3770 C   0  0  0  0  0  0  0  0  0  0  0  0
  -40.5221   58.8020   58.8777 C   0  0  0  0  0  0  0  0  0  0  0  0
  -41.9123   58.4501   58.3829 C   0  0  0  0  0  0  0  0  0  0  0  0
  -42.3180   59.2066   57.1288 C   0  0  0  0  0  0  0  0  0  0  0  0
  -43.6803   58.8085   56.5955 C   0  0  0  0  0  0  0  0  0  0  0  0
  -44.5747   58.1901   57.6511 C   0  0  0  0  0  0  0  0  0  0  0  0
  -45.9700   57.8466   57.1662 C   0  0  0  0  0  0  0  0  0  0  0  0
  -47.0550   58.3687   58.0872 C   0  0  0  0  0  0  0  0  0  0  0  0
  -47.2269   57.5326   59.3448 C   0  0  0  0  0  0  0  0  0  0  0  0
  -48.0772   56.2889   59.1528 C   0  0  0  0  0  0  0  0  0  0  0  0
  -49.3285   56.2488   60.0165 C   0  0  0  0  0  0  0  0  0  0  0  0
  -49.9524   57.6156   60.2632 C   0  0  0  0  0  0  0  0  0  0  0  0
  -50.9220   57.6354   61.4338 C   0  0  0  0  0  0  0  0  0  0  0  0
  -49.7740   59.8435   61.8607 C   0  0  0  0  0  0  0  0  0  0  0  0
  -50.7530   58.8184   62.3697 C   0  0  0  0  0  0  0  0  0  0  0  0
 43 45  1  0  0  0
 43 42  1  0  0  0
 43 46  1  0  0  0
 64 65  1  0  0  0
 44 45  2  0  0  0
 65 63  1  0  0  0
  2  1  1  0  0  0
  2  4  1  0  0  0
  2  5  1  0  0  0
  3  4  2  0  0  0
 63 62  1  0  0  0
  6  8  1  0  0  0
  6 11  2  0  0  0
  7 10  1  0  0  0
  7 11  1  0  0  0
 62 61  1  0  0  0
 26 28  1  0  0  0
 26 32  1  0  0  0
 26 29  1  0  0  0
 12 18  1  0  0  0
 12 19  1  0  0  0
 61 60  1  0  0  0
 30 36  1  0  0  0
 30 37  1  0  0  0
 30 38  1  0  0  0
 20 21  2  0  0  0
 60 59  1  0  0  0
 22 21  1  0  0  0
 22 23  1  0  0  0
 59 58  1  0  0  0
 27 28  2  0  0  0
 58 57  1  0  0  0
 31 37  2  0  0  0
 57 56  1  0  0  0
 56 55  1  0  0  0
 55 54  1  0  0  0
 54 53  1  0  0  0
 53 52  1  0  0  0
 52 51  1  0  0  0
 51 50  1  0  0  0
 50 49  1  0  0  0
 49 47  1  0  0  0
 47 48  2  0  0  0
 48 45  1  0  0  0
 42 41  1  0  0  0
 41 40  1  0  0  0
 40 39  1  0  0  0
 39  1  1  0  0  0
  1 21  1  0  0  0
  8  4  1  0  0  0
  8  9  1  0  0  0
  8 10  1  0  0  0
 11 13  1  0  0  0
 13 14  2  0  0  0
 13 18  1  0  0  0
 14 15  1  0  0  0
 15 16  2  0  0  0
 16 17  1  0  0  0
 17 18  2  0  0  0
 23 24  1  0  0  0
 23 25  1  0  0  0
 25 28  1  0  0  0
 32 33  1  0  0  0
 32 37  1  0  0  0
 33 34  1  0  0  0
 34 35  1  0  0  0
 35 36  1  0  0  0
M  END
> <minimizedAffinity>
-7.95829

> <CNNscore>
0.1890964657

> <CNNaffinity>
7.5361280441

> <CNN_VS>
1.4250551462

> <CNNaffinity_variance>
0.9404447675

$$$$
/media/chris/experiments/cd1a-new-docking/inputs/ligands/7ryo_ligand.pdb


 65 67  0  0  0  0  0  0  0  0999 V2000
  -38.8059   59.7251   64.7392 C   0  0  0  0  0  0  0  0  0  0  0  0
  -37.9268   59.1051   63.7618 N   0  0  0  0  0  0  0  0  0  0  0  0
  -38.5970   60.4500   62.0897 O   0  0  0  0  0  0  0  0  0  0  0  0
  -37.9005   59.5323   62.4970 C   0  0  0  0  0  0  0  0  0  0  0  0
  -37.3436   58.3608   64.0357 H   0  0  0  0  0  0  0  0  0  0  0  0
  -35.5650   59.1977   61.7861 N   0  0  0  0  0  0  0  0  0  0  0  0
  -35.5473   56.9432   61.7961 O   0  0  0  0  0  0  0  0  0  0  0  0
  -36.9595   58.8068   61.5212 C   0  0  0  0  0  0  0  0  0  0  0  0
  -37.3249   59.2055   60.0945 C   0  0  0  0  0  0  0  0  0  0  0  0
  -36.9543   57.2816   61.7007 C   0  0  0  0  0  0  0  0  0  0  0  0
  -34.8952   58.1286   61.9198 C   0  0  0  0  0  0  0  0  0  0  0  0
  -32.9117   58.1356   59.8344 O   0  0  0  0  0  0  0  0  0  0  0  0
  -33.4591   58.0372   62.1935 C   0  0  0  0  0  0  0  0  0  0  0  0
  -32.9917   58.0876   63.5074 C   0  0  0  0  0  0  0  0  0  0  0  0
  -31.6413   58.2477   63.7668 C   0  0  0  0  0  0  0  0  0  0  0  0
  -30.7403   58.3590   62.7302 C   0  0  0  0  0  0  0  0  0  0  0  0
  -31.1782   58.3168   61.4191 C   0  0  0  0  0  0  0  0  0  0  0  0
  -32.5317   58.1586   61.1383 C   0  0  0  0  0  0  0  0  0  0  0  0
  -33.8158   58.0306   59.6117 H   0  0  0  0  0  0  0  0  0  0  0  0
  -38.4972   61.4651   66.3878 O   0  0  0  0  0  0  0  0  0  0  0  0
  -38.0226   60.5951   65.7108 C   0  0  0  0  0  0  0  0  0  0  0  0
  -36.7187   60.2685   65.6908 O   0  0  0  0  0  0  0  0  0  0  0  0
  -35.7341   61.3544   65.6610 C   0  0  0  0  0  0  0  0  0  0  0  0
  -36.1112   62.3568   66.7224 C   0  0  0  0  0  0  0  0  0  0  0  0
  -35.8122   61.9371   64.2633 C   0  0  0  0  0  0  0  0  0  0  0  0
  -34.7377   63.5056   62.7708 N   0  0  0  0  0  0  0  0  0  0  0  0
  -33.8259   63.1614   64.7986 O   0  0  0  0  0  0  0  0  0  0  0  0
  -34.6998   62.9193   63.9708 C   0  0  0  0  0  0  0  0  0  0  0  0
  -35.4629   63.2722   62.1473 H   0  0  0  0  0  0  0  0  0  0  0  0
  -31.7494   64.4357   60.9545 N   0  0  0  0  0  0  0  0  0  0  0  0
  -32.4282   62.5244   61.9122 O   0  0  0  0  0  0  0  0  0  0  0  0
  -33.7396   64.4775   62.3600 C   0  0  0  0  0  0  0  0  0  0  0  0
  -33.2351   65.2611   63.5770 C   0  0  0  0  0  0  0  0  0  0  0  0
  -32.5489   66.5743   63.2167 C   0  0  0  0  0  0  0  0  0  0  0  0
  -31.3018   66.4455   62.3648 C   0  0  0  0  0  0  0  0  0  0  0  0
  -31.5510   65.8808   60.9820 C   0  0  0  0  0  0  0  0  0  0  0  0
  -32.5808   63.7275   61.7223 C   0  0  0  0  0  0  0  0  0  0  0  0
  -31.2141   63.9297   60.3013 H   0  0  0  0  0  0  0  0  0  0  0  0
  -39.6311   58.6771   65.4876 C   0  0  0  0  0  0  0  0  0  0  0  0
  -41.0030   58.4608   64.8580 C   0  0  0  0  0  0  0  0  0  0  0  0
  -41.6445   57.1461   65.2611 C   0  0  0  0  0  0  0  0  0  0  0  0
  -42.9009   57.2836   66.0929 C   0  0  0  0  0  0  0  0  0  0  0  0
  -43.9689   57.9054   65.3264 N   0  0  0  0  0  0  0  0  0  0  0  0
  -45.3846   58.0339   67.0795 O   0  0  0  0  0  0  0  0  0  0  0  0
  -45.1408   58.2376   65.8789 C   0  0  0  0  0  0  0  0  0  0  0  0
  -43.8247   58.0878   64.3698 H   0  0  0  0  0  0  0  0  0  0  0  0
  -47.3293   58.2619   64.7027 C   0  0  0  0  0  0  0  0  0  0  0  0
  -46.1320   58.7864   64.9266 C   0  0  0  0  0  0  0  0  0  0  0  0
  -47.9371   57.0558   65.3478 C   0  0  0  0  0  0  0  0  0  0  0  0
  -48.9389   57.4394   66.4302 C   0  0  0  0  0  0  0  0  0  0  0  0
  -50.2074   58.0792   65.8929 C   0  0  0  0  0  0  0  0  0  0  0  0
  -50.3469   59.5489   66.2530 C   0  0  0  0  0  0  0  0  0  0  0  0
  -50.1548   60.5001   65.0868 C   0  0  0  0  0  0  0  0  0  0  0  0
  -51.3615   60.5813   64.1668 C   0  0  0  0  0  0  0  0  0  0  0  0
  -51.2656   59.6685   62.9600 C   0  0  0  0  0  0  0  0  0  0  0  0
  -49.8921   59.6721   62.3194 C   0  0  0  0  0  0  0  0  0  0  0  0
  -49.2831   58.2953   62.1366 C   0  0  0  0  0  0  0  0  0  0  0  0
  -50.1037   57.4089   61.2207 C   0  0  0  0  0  0  0  0  0  0  0  0
  -50.3718   58.0359   59.8624 C   0  0  0  0  0  0  0  0  0  0  0  0
  -49.3954   57.6123   58.7789 C   0  0  0  0  0  0  0  0  0  0  0  0
  -47.9971   58.1891   58.9385 C   0  0  0  0  0  0  0  0  0  0  0  0
  -46.9086   57.1356   59.0916 C   0  0  0  0  0  0  0  0  0  0  0  0
  -47.1627   55.8800   58.2732 C   0  0  0  0  0  0  0  0  0  0  0  0
  -47.5188   57.1176   56.1012 C   0  0  0  0  0  0  0  0  0  0  0  0
  -46.7938   56.0013   56.8058 C   0  0  0  0  0  0  0  0  0  0  0  0
 43 45  1  0  0  0
 43 42  1  0  0  0
 43 46  1  0  0  0
 64 65  1  0  0  0
 44 45  2  0  0  0
 65 63  1  0  0  0
  2  1  1  0  0  0
  2  4  1  0  0  0
  2  5  1  0  0  0
  3  4  2  0  0  0
 63 62  1  0  0  0
  6  8  1  0  0  0
  6 11  2  0  0  0
  7 10  1  0  0  0
  7 11  1  0  0  0
 62 61  1  0  0  0
 26 28  1  0  0  0
 26 32  1  0  0  0
 26 29  1  0  0  0
 12 18  1  0  0  0
 12 19  1  0  0  0
 61 60  1  0  0  0
 30 36  1  0  0  0
 30 37  1  0  0  0
 30 38  1  0  0  0
 20 21  2  0  0  0
 60 59  1  0  0  0
 22 21  1  0  0  0
 22 23  1  0  0  0
 59 58  1  0  0  0
 27 28  2  0  0  0
 58 57  1  0  0  0
 31 37  2  0  0  0
 57 56  1  0  0  0
 56 55  1  0  0  0
 55 54  1  0  0  0
 54 53  1  0  0  0
 53 52  1  0  0  0
 52 51  1  0  0  0
 51 50  1  0  0  0
 50 49  1  0  0  0
 49 47  1  0  0  0
 47 48  2  0  0  0
 48 45  1  0  0  0
 42 41  1  0  0  0
 41 40  1  0  0  0
 40 39  1  0  0  0
 39  1  1  0  0  0
  1 21  1  0  0  0
  8  4  1  0  0  0
  8  9  1  0  0  0
  8 10  1  0  0  0
 11 13  1  0  0  0
 13 14  2  0  0  0
 13 18  1  0  0  0
 14 15  1  0  0  0
 15 16  2  0  0  0
 16 17  1  0  0  0
 17 18  2  0  0  0
 23 24  1  0  0  0
 23 25  1  0  0  0
 25 28  1  0  0  0
 32 33  1  0  0  0
 32 37  1  0  0  0
 33 34  1  0  0  0
 34 35  1  0  0  0
 35 36  1  0  0  0
M  END
> <minimizedAffinity>
-9.85773

> <CNNscore>
0.1811917275

> <CNNaffinity>
6.9183225632

> <CNN_VS>
1.2535427809

> <CNNaffinity_variance>
0.8787331581

$$$$
