/media/chris/experiments/cd1a-new-docking/inputs/ligands/7ryo_ligand.pdb


 65 67  0  0  0  0  0  0  0  0999 V2000
  -33.9965   57.9277   62.8371 C   0  0  0  0  0  0  0  0  0  0  0  0
  -34.5977   59.2029   63.1902 N   0  0  0  0  0  0  0  0  0  0  0  0
  -34.7668   58.6853   65.3713 O   0  0  0  0  0  0  0  0  0  0  0  0
  -34.9365   59.4736   64.4531 C   0  0  0  0  0  0  0  0  0  0  0  0
  -34.7573   59.8758   62.4893 H   0  0  0  0  0  0  0  0  0  0  0  0
  -34.6183   61.7292   65.3927 N   0  0  0  0  0  0  0  0  0  0  0  0
  -35.4145   62.9171   63.6497 O   0  0  0  0  0  0  0  0  0  0  0  0
  -35.5886   60.8366   64.7376 C   0  0  0  0  0  0  0  0  0  0  0  0
  -36.7800   60.6292   65.6681 C   0  0  0  0  0  0  0  0  0  0  0  0
  -35.9882   61.5980   63.4651 C   0  0  0  0  0  0  0  0  0  0  0  0
  -34.5996   62.8119   64.7315 C   0  0  0  0  0  0  0  0  0  0  0  0
  -33.3432   63.2348   67.2860 O   0  0  0  0  0  0  0  0  0  0  0  0
  -33.7773   63.9885   65.0236 C   0  0  0  0  0  0  0  0  0  0  0  0
  -33.4553   64.8881   64.0068 C   0  0  0  0  0  0  0  0  0  0  0  0
  -32.4899   65.8596   64.2082 C   0  0  0  0  0  0  0  0  0  0  0  0
  -31.8340   65.9512   65.4165 C   0  0  0  0  0  0  0  0  0  0  0  0
  -32.1312   65.0688   66.4391 C   0  0  0  0  0  0  0  0  0  0  0  0
  -33.0970   64.0843   66.2549 C   0  0  0  0  0  0  0  0  0  0  0  0
  -33.9875   62.5607   67.1942 H   0  0  0  0  0  0  0  0  0  0  0  0
  -32.8314   58.3891   60.7707 O   0  0  0  0  0  0  0  0  0  0  0  0
  -32.7835   58.1204   61.9394 C   0  0  0  0  0  0  0  0  0  0  0  0
  -31.6481   57.9269   62.6327 O   0  0  0  0  0  0  0  0  0  0  0  0
  -30.7397   56.8647   62.1895 C   0  0  0  0  0  0  0  0  0  0  0  0
  -30.0952   56.2605   63.4114 C   0  0  0  0  0  0  0  0  0  0  0  0
  -29.7323   57.5427   61.2814 C   0  0  0  0  0  0  0  0  0  0  0  0
  -30.0333   59.9410   61.2835 N   0  0  0  0  0  0  0  0  0  0  0  0
  -28.4117   59.0649   62.5737 O   0  0  0  0  0  0  0  0  0  0  0  0
  -29.3282   58.9159   61.7703 C   0  0  0  0  0  0  0  0  0  0  0  0
  -30.7577   59.7611   60.6414 H   0  0  0  0  0  0  0  0  0  0  0  0
  -30.6597   62.8571   63.3322 N   0  0  0  0  0  0  0  0  0  0  0  0
  -31.9692   61.1921   62.5950 O   0  0  0  0  0  0  0  0  0  0  0  0
  -29.7619   61.3133   61.6744 C   0  0  0  0  0  0  0  0  0  0  0  0
  -29.6882   62.2099   60.4334 C   0  0  0  0  0  0  0  0  0  0  0  0
  -28.9771   63.5363   60.6791 C   0  0  0  0  0  0  0  0  0  0  0  0
  -29.6266   64.4432   61.7055 C   0  0  0  0  0  0  0  0  0  0  0  0
  -29.6418   63.8786   63.1106 C   0  0  0  0  0  0  0  0  0  0  0  0
  -30.8937   61.7833   62.5746 C   0  0  0  0  0  0  0  0  0  0  0  0
  -31.2343   62.9719   64.1233 H   0  0  0  0  0  0  0  0  0  0  0  0
  -35.0171   56.9946   62.1837 C   0  0  0  0  0  0  0  0  0  0  0  0
  -36.1219   57.7578   61.4610 C   0  0  0  0  0  0  0  0  0  0  0  0
  -37.5153   57.2863   61.8333 C   0  0  0  0  0  0  0  0  0  0  0  0
  -38.0459   57.8454   63.1353 C   0  0  0  0  0  0  0  0  0  0  0  0
  -38.9456   58.9626   62.8955 N   0  0  0  0  0  0  0  0  0  0  0  0
  -40.9636   59.7422   62.2525 O   0  0  0  0  0  0  0  0  0  0  0  0
  -40.2010   58.7863   62.4691 C   0  0  0  0  0  0  0  0  0  0  0  0
  -38.6200   59.8784   63.0519 H   0  0  0  0  0  0  0  0  0  0  0  0
  -41.2817   56.7068   63.2942 C   0  0  0  0  0  0  0  0  0  0  0  0
  -40.6160   57.3700   62.3585 C   0  0  0  0  0  0  0  0  0  0  0  0
  -41.7639   57.2208   64.6148 C   0  0  0  0  0  0  0  0  0  0  0  0
  -43.1251   56.6426   64.9821 C   0  0  0  0  0  0  0  0  0  0  0  0
  -44.2960   57.5087   64.5512 C   0  0  0  0  0  0  0  0  0  0  0  0
  -45.5131   57.3779   65.4518 C   0  0  0  0  0  0  0  0  0  0  0  0
  -46.6300   58.3563   65.1405 C   0  0  0  0  0  0  0  0  0  0  0  0
  -48.0127   57.8239   65.4793 C   0  0  0  0  0  0  0  0  0  0  0  0
  -48.8805   58.8214   66.2214 C   0  0  0  0  0  0  0  0  0  0  0  0
  -50.3192   58.8279   65.7451 C   0  0  0  0  0  0  0  0  0  0  0  0
  -50.9127   60.2119   65.5657 C   0  0  0  0  0  0  0  0  0  0  0  0
  -51.2787   60.5099   64.1251 C   0  0  0  0  0  0  0  0  0  0  0  0
  -51.2854   59.2739   63.2406 C   0  0  0  0  0  0  0  0  0  0  0  0
  -50.3143   59.3388   62.0746 C   0  0  0  0  0  0  0  0  0  0  0  0
  -49.4315   58.1091   61.9284 C   0  0  0  0  0  0  0  0  0  0  0  0
  -49.7787   57.2387   60.7284 C   0  0  0  0  0  0  0  0  0  0  0  0
  -49.5029   57.9113   59.3934 C   0  0  0  0  0  0  0  0  0  0  0  0
  -47.0844   57.8983   58.6674 C   0  0  0  0  0  0  0  0  0  0  0  0
  -48.4317   57.2339   58.5581 C   0  0  0  0  0  0  0  0  0  0  0  0
 43 45  1  0  0  0
 43 42  1  0  0  0
 43 46  1  0  0  0
 64 65  1  0  0  0
 44 45  2  0  0  0
 65 63  1  0  0  0
  2  1  1  0  0  0
  2  4  1  0  0  0
  2  5  1  0  0  0
  3  4  2  0  0  0
 63 62  1  0  0  0
  6  8  1  0  0  0
  6 11  2  0  0  0
  7 10  1  0  0  0
  7 11  1  0  0  0
 62 61  1  0  0  0
 26 28  1  0  0  0
 26 32  1  0  0  0
 26 29  1  0  0  0
 12 18  1  0  0  0
 12 19  1  0  0  0
 61 60  1  0  0  0
 30 36  1  0  0  0
 30 37  1  0  0  0
 30 38  1  0  0  0
 20 21  2  0  0  0
 60 59  1  0  0  0
 22 21  1  0  0  0
 22 23  1  0  0  0
 59 58  1  0  0  0
 27 28  2  0  0  0
 58 57  1  0  0  0
 31 37  2  0  0  0
 57 56  1  0  0  0
 56 55  1  0  0  0
 55 54  1  0  0  0
 54 53  1  0  0  0
 53 52  1  0  0  0
 52 51  1  0  0  0
 51 50  1  0  0  0
 50 49  1  0  0  0
 49 47  1  0  0  0
 47 48  2  0  0  0
 48 45  1  0  0  0
 42 41  1  0  0  0
 41 40  1  0  0  0
 40 39  1  0  0  0
 39  1  1  0  0  0
  1 21  1  0  0  0
  8  4  1  0  0  0
  8  9  1  0  0  0
  8 10  1  0  0  0
 11 13  1  0  0  0
 13 14  2  0  0  0
 13 18  1  0  0  0
 14 15  1  0  0  0
 15 16  2  0  0  0
 16 17  1  0  0  0
 17 18  2  0  0  0
 23 24  1  0  0  0
 23 25  1  0  0  0
 25 28  1  0  0  0
 32 33  1  0  0  0
 32 37  1  0  0  0
 33 34  1  0  0  0
 34 35  1  0  0  0
 35 36  1  0  0  0
M  END
> <minimizedAffinity>
-10.27308

> <CNNscore>
0.4336665869

> <CNNaffinity>
7.3063249588

> <CNN_VS>
3.1685090065

> <CNNaffinity_variance>
0.6449682117

$$$$
/media/chris/experiments/cd1a-new-docking/inputs/ligands/7ryo_ligand.pdb


 65 67  0  0  0  0  0  0  0  0999 V2000
  -38.0592   58.8688   61.4235 C   0  0  0  0  0  0  0  0  0  0  0  0
  -37.9040   59.4074   62.7645 N   0  0  0  0  0  0  0  0  0  0  0  0
  -38.4866   57.4799   63.7640 O   0  0  0  0  0  0  0  0  0  0  0  0
  -38.1366   58.6483   63.8381 C   0  0  0  0  0  0  0  0  0  0  0  0
  -37.6238   60.3438   62.8828 H   0  0  0  0  0  0  0  0  0  0  0  0
  -36.6822   60.0085   65.2894 N   0  0  0  0  0  0  0  0  0  0  0  0
  -38.2129   61.5303   65.9406 O   0  0  0  0  0  0  0  0  0  0  0  0
  -37.9719   59.3020   65.2200 C   0  0  0  0  0  0  0  0  0  0  0  0
  -37.9999   58.2126   66.2879 C   0  0  0  0  0  0  0  0  0  0  0  0
  -39.0083   60.3997   65.5019 C   0  0  0  0  0  0  0  0  0  0  0  0
  -36.9233   61.1907   65.6818 C   0  0  0  0  0  0  0  0  0  0  0  0
  -36.4769   62.4047   68.2529 O   0  0  0  0  0  0  0  0  0  0  0  0
  -35.9332   62.2488   65.8959 C   0  0  0  0  0  0  0  0  0  0  0  0
  -35.0596   62.6090   64.8692 C   0  0  0  0  0  0  0  0  0  0  0  0
  -33.9708   63.4239   65.1271 C   0  0  0  0  0  0  0  0  0  0  0  0
  -33.7353   63.8909   66.4019 C   0  0  0  0  0  0  0  0  0  0  0  0
  -34.5833   63.5449   67.4381 C   0  0  0  0  0  0  0  0  0  0  0  0
  -35.6817   62.7251   67.1991 C   0  0  0  0  0  0  0  0  0  0  0  0
  -37.2246   61.8544   68.1255 H   0  0  0  0  0  0  0  0  0  0  0  0
  -36.3558   58.9869   59.7133 O   0  0  0  0  0  0  0  0  0  0  0  0
  -36.7083   58.5805   60.7860 C   0  0  0  0  0  0  0  0  0  0  0  0
  -35.9702   57.7883   61.5828 O   0  0  0  0  0  0  0  0  0  0  0  0
  -34.5370   58.0729   61.7049 C   0  0  0  0  0  0  0  0  0  0  0  0
  -33.8092   56.7593   61.8402 C   0  0  0  0  0  0  0  0  0  0  0  0
  -34.3977   58.9396   62.9414 C   0  0  0  0  0  0  0  0  0  0  0  0
  -32.9895   60.8510   62.4876 N   0  0  0  0  0  0  0  0  0  0  0  0
  -32.0943   59.0964   63.5747 O   0  0  0  0  0  0  0  0  0  0  0  0
  -33.0552   59.6311   63.0285 C   0  0  0  0  0  0  0  0  0  0  0  0
  -33.7929   61.2296   62.0626 H   0  0  0  0  0  0  0  0  0  0  0  0
  -31.2270   64.0097   62.5852 N   0  0  0  0  0  0  0  0  0  0  0  0
  -33.2072   63.3853   61.7371 O   0  0  0  0  0  0  0  0  0  0  0  0
  -31.7668   61.6347   62.5087 C   0  0  0  0  0  0  0  0  0  0  0  0
  -30.8050   61.1398   61.4227 C   0  0  0  0  0  0  0  0  0  0  0  0
  -29.3588   61.5689   61.6455 C   0  0  0  0  0  0  0  0  0  0  0  0
  -29.1160   63.0651   61.6468 C   0  0  0  0  0  0  0  0  0  0  0  0
  -29.7961   63.8027   62.7811 C   0  0  0  0  0  0  0  0  0  0  0  0
  -32.1293   63.0874   62.2431 C   0  0  0  0  0  0  0  0  0  0  0  0
  -31.5621   64.9256   62.7192 H   0  0  0  0  0  0  0  0  0  0  0  0
  -38.8907   59.8026   60.5428 C   0  0  0  0  0  0  0  0  0  0  0  0
  -40.3365   59.3372   60.4067 C   0  0  0  0  0  0  0  0  0  0  0  0
  -40.5908   57.9840   61.0446 C   0  0  0  0  0  0  0  0  0  0  0  0
  -41.4706   58.0196   62.2750 C   0  0  0  0  0  0  0  0  0  0  0  0
  -41.5211   56.7164   62.9184 N   0  0  0  0  0  0  0  0  0  0  0  0
  -41.7358   55.4667   64.7855 O   0  0  0  0  0  0  0  0  0  0  0  0
  -41.7059   56.5801   64.2361 C   0  0  0  0  0  0  0  0  0  0  0  0
  -41.4158   55.9082   62.3662 H   0  0  0  0  0  0  0  0  0  0  0  0
  -43.1055   58.1969   65.5011 C   0  0  0  0  0  0  0  0  0  0  0  0
  -41.9478   57.8513   64.9543 C   0  0  0  0  0  0  0  0  0  0  0  0
  -44.3763   57.4066   65.5337 C   0  0  0  0  0  0  0  0  0  0  0  0
  -45.4699   58.0623   64.6995 C   0  0  0  0  0  0  0  0  0  0  0  0
  -46.6328   58.5925   65.5203 C   0  0  0  0  0  0  0  0  0  0  0  0
  -47.9936   58.1793   64.9847 C   0  0  0  0  0  0  0  0  0  0  0  0
  -49.0338   57.9139   66.0566 C   0  0  0  0  0  0  0  0  0  0  0  0
  -50.4320   58.3656   65.6680 C   0  0  0  0  0  0  0  0  0  0  0  0
  -50.6412   59.8621   65.7923 C   0  0  0  0  0  0  0  0  0  0  0  0
  -50.9123   60.5370   64.4628 C   0  0  0  0  0  0  0  0  0  0  0  0
  -51.2638   59.5835   63.3370 C   0  0  0  0  0  0  0  0  0  0  0  0
  -50.2656   59.6300   62.1970 C   0  0  0  0  0  0  0  0  0  0  0  0
  -49.7317   58.2600   61.8118 C   0  0  0  0  0  0  0  0  0  0  0  0
  -50.4072   57.6490   60.5964 C   0  0  0  0  0  0  0  0  0  0  0  0
  -49.5966   57.7527   59.3139 C   0  0  0  0  0  0  0  0  0  0  0  0
  -48.0908   57.6807   59.5274 C   0  0  0  0  0  0  0  0  0  0  0  0
  -47.2937   58.4308   58.4725 C   0  0  0  0  0  0  0  0  0  0  0  0
  -47.5116   57.0047   56.3999 C   0  0  0  0  0  0  0  0  0  0  0  0
  -46.5904   57.5396   57.4649 C   0  0  0  0  0  0  0  0  0  0  0  0
 43 45  1  0  0  0
 43 42  1  0  0  0
 43 46  1  0  0  0
 64 65  1  0  0  0
 44 45  2  0  0  0
 65 63  1  0  0  0
  2  1  1  0  0  0
  2  4  1  0  0  0
  2  5  1  0  0  0
  3  4  2  0  0  0
 63 62  1  0  0  0
  6  8  1  0  0  0
  6 11  2  0  0  0
  7 10  1  0  0  0
  7 11  1  0  0  0
 62 61  1  0  0  0
 26 28  1  0  0  0
 26 32  1  0  0  0
 26 29  1  0  0  0
 12 18  1  0  0  0
 12 19  1  0  0  0
 61 60  1  0  0  0
 30 36  1  0  0  0
 30 37  1  0  0  0
 30 38  1  0  0  0
 20 21  2  0  0  0
 60 59  1  0  0  0
 22 21  1  0  0  0
 22 23  1  0  0  0
 59 58  1  0  0  0
 27 28  2  0  0  0
 58 57  1  0  0  0
 31 37  2  0  0  0
 57 56  1  0  0  0
 56 55  1  0  0  0
 55 54  1  0  0  0
 54 53  1  0  0  0
 53 52  1  0  0  0
 52 51  1  0  0  0
 51 50  1  0  0  0
 50 49  1  0  0  0
 49 47  1  0  0  0
 47 48  2  0  0  0
 48 45  1  0  0  0
 42 41  1  0  0  0
 41 40  1  0  0  0
 40 39  1  0  0  0
 39  1  1  0  0  0
  1 21  1  0  0  0
  8  4  1  0  0  0
  8  9  1  0  0  0
  8 10  1  0  0  0
 11 13  1  0  0  0
 13 14  2  0  0  0
 13 18  1  0  0  0
 14 15  1  0  0  0
 15 16  2  0  0  0
 16 17  1  0  0  0
 17 18  2  0  0  0
 23 24  1  0  0  0
 23 25  1  0  0  0
 25 28  1  0  0  0
 32 33  1  0  0  0
 32 37  1  0  0  0
 33 34  1  0  0  0
 34 35  1  0  0  0
 35 36  1  0  0  0
M  END
> <minimizedAffinity>
-10.59247

> <CNNscore>
0.3788381815

> <CNNaffinity>
7.5866212845

> <CNN_VS>
2.8741018772

> <CNNaffinity_variance>
1.1022183895

$$$$
/media/chris/experiments/cd1a-new-docking/inputs/ligands/7ryo_ligand.pdb


 65 67  0  0  0  0  0  0  0  0999 V2000
  -34.8154   58.5878   62.9095 C   0  0  0  0  0  0  0  0  0  0  0  0
  -33.3762   58.4779   62.7396 N   0  0  0  0  0  0  0  0  0  0  0  0
  -33.0687   60.7033   62.6591 O   0  0  0  0  0  0  0  0  0  0  0  0
  -32.6149   59.5692   62.6271 C   0  0  0  0  0  0  0  0  0  0  0  0
  -32.9572   57.5875   62.7070 H   0  0  0  0  0  0  0  0  0  0  0  0
  -30.6325   58.2557   63.2724 N   0  0  0  0  0  0  0  0  0  0  0  0
  -29.8865   57.7643   61.2024 O   0  0  0  0  0  0  0  0  0  0  0  0
  -31.1043   59.3645   62.4266 C   0  0  0  0  0  0  0  0  0  0  0  0
  -30.3752   60.6426   62.8302 C   0  0  0  0  0  0  0  0  0  0  0  0
  -30.7330   58.9247   61.0028 C   0  0  0  0  0  0  0  0  0  0  0  0
  -29.9964   57.4557   62.5208 C   0  0  0  0  0  0  0  0  0  0  0  0
  -28.5177   55.7887   60.6992 O   0  0  0  0  0  0  0  0  0  0  0  0
  -29.3483   56.2098   62.9371 C   0  0  0  0  0  0  0  0  0  0  0  0
  -29.3075   55.8583   64.2869 C   0  0  0  0  0  0  0  0  0  0  0  0
  -28.4970   54.8225   64.7187 C   0  0  0  0  0  0  0  0  0  0  0  0
  -27.7195   54.1241   63.8207 C   0  0  0  0  0  0  0  0  0  0  0  0
  -27.7381   54.4555   62.4781 C   0  0  0  0  0  0  0  0  0  0  0  0
  -28.5447   55.4949   62.0253 C   0  0  0  0  0  0  0  0  0  0  0  0
  -29.0491   56.4830   60.3623 H   0  0  0  0  0  0  0  0  0  0  0  0
  -34.6949   58.2150   65.2943 O   0  0  0  0  0  0  0  0  0  0  0  0
  -35.1826   58.8048   64.3699 C   0  0  0  0  0  0  0  0  0  0  0  0
  -36.1463   59.7356   64.4806 O   0  0  0  0  0  0  0  0  0  0  0  0
  -37.1219   59.5951   65.5661 C   0  0  0  0  0  0  0  0  0  0  0  0
  -38.1541   58.5824   65.1390 C   0  0  0  0  0  0  0  0  0  0  0  0
  -37.7156   60.9767   65.7616 C   0  0  0  0  0  0  0  0  0  0  0  0
  -36.0494   62.5058   64.9084 N   0  0  0  0  0  0  0  0  0  0  0  0
  -36.4152   62.4510   67.1277 O   0  0  0  0  0  0  0  0  0  0  0  0
  -36.6672   62.0409   65.9982 C   0  0  0  0  0  0  0  0  0  0  0  0
  -36.2929   62.1393   64.0277 H   0  0  0  0  0  0  0  0  0  0  0  0
  -34.1168   65.1964   63.4528 N   0  0  0  0  0  0  0  0  0  0  0  0
  -35.0516   63.3450   62.5991 O   0  0  0  0  0  0  0  0  0  0  0  0
  -35.0292   63.5367   64.9860 C   0  0  0  0  0  0  0  0  0  0  0  0
  -33.7513   62.9672   65.6121 C   0  0  0  0  0  0  0  0  0  0  0  0
  -32.8044   64.0358   66.1474 C   0  0  0  0  0  0  0  0  0  0  0  0
  -32.2642   65.0045   65.1142 C   0  0  0  0  0  0  0  0  0  0  0  0
  -33.3213   65.8764   64.4694 C   0  0  0  0  0  0  0  0  0  0  0  0
  -34.7327   64.0185   63.5745 C   0  0  0  0  0  0  0  0  0  0  0  0
  -34.2090   65.6544   62.5862 H   0  0  0  0  0  0  0  0  0  0  0  0
  -35.5367   57.3650   62.3407 C   0  0  0  0  0  0  0  0  0  0  0  0
  -36.8834   57.7221   61.7206 C   0  0  0  0  0  0  0  0  0  0  0  0
  -36.7585   58.5760   60.4725 C   0  0  0  0  0  0  0  0  0  0  0  0
  -37.8108   59.6545   60.3355 C   0  0  0  0  0  0  0  0  0  0  0  0
  -38.7790   59.3113   59.3060 N   0  0  0  0  0  0  0  0  0  0  0  0
  -40.9066   58.8736   58.6934 O   0  0  0  0  0  0  0  0  0  0  0  0
  -40.0832   59.1794   59.5714 C   0  0  0  0  0  0  0  0  0  0  0  0
  -38.4642   59.1713   58.3838 H   0  0  0  0  0  0  0  0  0  0  0  0
  -40.8182   58.6093   61.8753 C   0  0  0  0  0  0  0  0  0  0  0  0
  -40.4595   59.5047   60.9653 C   0  0  0  0  0  0  0  0  0  0  0  0
  -40.9034   57.1234   61.7157 C   0  0  0  0  0  0  0  0  0  0  0  0
  -42.0700   56.5376   62.5016 C   0  0  0  0  0  0  0  0  0  0  0  0
  -41.8335   56.4826   64.0009 C   0  0  0  0  0  0  0  0  0  0  0  0
  -43.1099   56.3387   64.8131 C   0  0  0  0  0  0  0  0  0  0  0  0
  -43.5607   57.6132   65.5016 C   0  0  0  0  0  0  0  0  0  0  0  0
  -45.0491   57.6417   65.8078 C   0  0  0  0  0  0  0  0  0  0  0  0
  -45.8784   58.2964   64.7205 C   0  0  0  0  0  0  0  0  0  0  0  0
  -47.3600   58.3245   65.0383 C   0  0  0  0  0  0  0  0  0  0  0  0
  -48.2522   58.5861   63.8401 C   0  0  0  0  0  0  0  0  0  0  0  0
  -49.7265   58.5645   64.1921 C   0  0  0  0  0  0  0  0  0  0  0  0
  -50.6230   58.9983   63.0439 C   0  0  0  0  0  0  0  0  0  0  0  0
  -49.9576   58.9406   61.6798 C   0  0  0  0  0  0  0  0  0  0  0  0
  -50.3981   57.7663   60.8197 C   0  0  0  0  0  0  0  0  0  0  0  0
  -49.6663   57.6671   59.4883 C   0  0  0  0  0  0  0  0  0  0  0  0
  -48.2052   57.2721   59.6291 C   0  0  0  0  0  0  0  0  0  0  0  0
  -46.6881   58.3702   57.9352 C   0  0  0  0  0  0  0  0  0  0  0  0
  -47.4619   57.1343   58.3128 C   0  0  0  0  0  0  0  0  0  0  0  0
 43 45  1  0  0  0
 43 42  1  0  0  0
 43 46  1  0  0  0
 64 65  1  0  0  0
 44 45  2  0  0  0
 65 63  1  0  0  0
  2  1  1  0  0  0
  2  4  1  0  0  0
  2  5  1  0  0  0
  3  4  2  0  0  0
 63 62  1  0  0  0
  6  8  1  0  0  0
  6 11  2  0  0  0
  7 10  1  0  0  0
  7 11  1  0  0  0
 62 61  1  0  0  0
 26 28  1  0  0  0
 26 32  1  0  0  0
 26 29  1  0  0  0
 12 18  1  0  0  0
 12 19  1  0  0  0
 61 60  1  0  0  0
 30 36  1  0  0  0
 30 37  1  0  0  0
 30 38  1  0  0  0
 20 21  2  0  0  0
 60 59  1  0  0  0
 22 21  1  0  0  0
 22 23  1  0  0  0
 59 58  1  0  0  0
 27 28  2  0  0  0
 58 57  1  0  0  0
 31 37  2  0  0  0
 57 56  1  0  0  0
 56 55  1  0  0  0
 55 54  1  0  0  0
 54 53  1  0  0  0
 53 52  1  0  0  0
 52 51  1  0  0  0
 51 50  1  0  0  0
 50 49  1  0  0  0
 49 47  1  0  0  0
 47 48  2  0  0  0
 48 45  1  0  0  0
 42 41  1  0  0  0
 41 40  1  0  0  0
 40 39  1  0  0  0
 39  1  1  0  0  0
  1 21  1  0  0  0
  8  4  1  0  0  0
  8  9  1  0  0  0
  8 10  1  0  0  0
 11 13  1  0  0  0
 13 14  2  0  0  0
 13 18  1  0  0  0
 14 15  1  0  0  0
 15 16  2  0  0  0
 16 17  1  0  0  0
 17 18  2  0  0  0
 23 24  1  0  0  0
 23 25  1  0  0  0
 25 28  1  0  0  0
 32 33  1  0  0  0
 32 37  1  0  0  0
 33 34  1  0  0  0
 34 35  1  0  0  0
 35 36  1  0  0  0
M  END
> <minimizedAffinity>
-11.54996

> <CNNscore>
0.3245384693

> <CNNaffinity>
7.5681633949

> <CNN_VS>
2.4561600685

> <CNNaffinity_variance>
1.2754434347

$$$$
/media/chris/experiments/cd1a-new-docking/inputs/ligands/7ryo_ligand.pdb


 65 67  0  0  0  0  0  0  0  0999 V2000
  -34.8627   61.9904   63.9027 C   0  0  0  0  0  0  0  0  0  0  0  0
  -35.1435   60.6091   63.5484 N   0  0  0  0  0  0  0  0  0  0  0  0
  -37.0613   61.1170   62.4912 O   0  0  0  0  0  0  0  0  0  0  0  0
  -36.2415   60.2889   62.8594 C   0  0  0  0  0  0  0  0  0  0  0  0
  -34.5162   59.9005   63.8199 H   0  0  0  0  0  0  0  0  0  0  0  0
  -37.8051   58.3919   63.0271 N   0  0  0  0  0  0  0  0  0  0  0  0
  -37.7389   57.7312   60.8726 O   0  0  0  0  0  0  0  0  0  0  0  0
  -36.4756   58.8020   62.5458 C   0  0  0  0  0  0  0  0  0  0  0  0
  -35.4114   57.9736   63.2594 C   0  0  0  0  0  0  0  0  0  0  0  0
  -36.5186   58.4963   61.0414 C   0  0  0  0  0  0  0  0  0  0  0  0
  -38.3990   57.8325   62.0555 C   0  0  0  0  0  0  0  0  0  0  0  0
  -40.4208   58.5554   60.1389 O   0  0  0  0  0  0  0  0  0  0  0  0
  -39.7499   57.2665   62.0790 C   0  0  0  0  0  0  0  0  0  0  0  0
  -40.0611   56.2327   62.9631 C   0  0  0  0  0  0  0  0  0  0  0  0
  -41.2456   55.5287   62.8313 C   0  0  0  0  0  0  0  0  0  0  0  0
  -42.1339   55.8398   61.8249 C   0  0  0  0  0  0  0  0  0  0  0  0
  -41.8472   56.8569   60.9328 C   0  0  0  0  0  0  0  0  0  0  0  0
  -40.6608   57.5745   61.0476 C   0  0  0  0  0  0  0  0  0  0  0  0
  -39.6310   59.0571   60.1886 H   0  0  0  0  0  0  0  0  0  0  0  0
  -33.5095   63.4817   62.5665 O   0  0  0  0  0  0  0  0  0  0  0  0
  -33.5913   62.4843   63.2289 C   0  0  0  0  0  0  0  0  0  0  0  0
  -32.5745   61.6360   63.4607 O   0  0  0  0  0  0  0  0  0  0  0  0
  -31.8097   61.1425   62.3112 C   0  0  0  0  0  0  0  0  0  0  0  0
  -31.7221   59.6410   62.4175 C   0  0  0  0  0  0  0  0  0  0  0  0
  -30.4508   61.8082   62.4098 C   0  0  0  0  0  0  0  0  0  0  0  0
  -29.8579   63.7956   61.1685 N   0  0  0  0  0  0  0  0  0  0  0  0
  -29.8349   61.8178   60.0964 O   0  0  0  0  0  0  0  0  0  0  0  0
  -30.0237   62.4708   61.1189 C   0  0  0  0  0  0  0  0  0  0  0  0
  -30.0240   64.2669   62.0168 H   0  0  0  0  0  0  0  0  0  0  0  0
  -27.3109   65.0605   58.9310 N   0  0  0  0  0  0  0  0  0  0  0  0
  -27.3169   64.5532   61.1157 O   0  0  0  0  0  0  0  0  0  0  0  0
  -29.4394   64.5605   60.0068 C   0  0  0  0  0  0  0  0  0  0  0  0
  -30.1059   65.9408   60.0168 C   0  0  0  0  0  0  0  0  0  0  0  0
  -30.1018   66.6311   58.6571 C   0  0  0  0  0  0  0  0  0  0  0  0
  -28.7313   66.9287   58.0817 C   0  0  0  0  0  0  0  0  0  0  0  0
  -27.9116   65.6959   57.7631 C   0  0  0  0  0  0  0  0  0  0  0  0
  -27.9289   64.7250   60.0657 C   0  0  0  0  0  0  0  0  0  0  0  0
  -26.3490   64.8580   58.8766 H   0  0  0  0  0  0  0  0  0  0  0  0
  -34.7819   62.1692   65.4195 C   0  0  0  0  0  0  0  0  0  0  0  0
  -36.1569   62.1608   66.0789 C   0  0  0  0  0  0  0  0  0  0  0  0
  -36.7224   60.7648   66.2628 C   0  0  0  0  0  0  0  0  0  0  0  0
  -38.2332   60.6943   66.3047 C   0  0  0  0  0  0  0  0  0  0  0  0
  -38.7929   60.6879   64.9623 N   0  0  0  0  0  0  0  0  0  0  0  0
  -40.5815   60.5559   63.5924 O   0  0  0  0  0  0  0  0  0  0  0  0
  -40.1068   60.5741   64.7398 C   0  0  0  0  0  0  0  0  0  0  0  0
  -38.1848   60.7698   64.1925 H   0  0  0  0  0  0  0  0  0  0  0  0
  -41.7431   59.5602   66.3107 C   0  0  0  0  0  0  0  0  0  0  0  0
  -40.9351   60.5537   65.9661 C   0  0  0  0  0  0  0  0  0  0  0  0
  -41.9797   58.2754   65.5800 C   0  0  0  0  0  0  0  0  0  0  0  0
  -42.8200   58.4860   64.3263 C   0  0  0  0  0  0  0  0  0  0  0  0
  -44.1038   57.6747   64.3049 C   0  0  0  0  0  0  0  0  0  0  0  0
  -44.7397   57.5062   65.6748 C   0  0  0  0  0  0  0  0  0  0  0  0
  -46.0651   58.2251   65.8424 C   0  0  0  0  0  0  0  0  0  0  0  0
  -47.1364   57.3732   66.5030 C   0  0  0  0  0  0  0  0  0  0  0  0
  -48.4753   57.4267   65.7937 C   0  0  0  0  0  0  0  0  0  0  0  0
  -49.1937   58.7483   65.9785 C   0  0  0  0  0  0  0  0  0  0  0  0
  -49.9551   59.2230   64.7557 C   0  0  0  0  0  0  0  0  0  0  0  0
  -50.0176   58.1755   63.6617 C   0  0  0  0  0  0  0  0  0  0  0  0
  -49.8669   58.7575   62.2657 C   0  0  0  0  0  0  0  0  0  0  0  0
  -50.5009   57.9176   61.1705 C   0  0  0  0  0  0  0  0  0  0  0  0
  -49.7933   58.0063   59.8273 C   0  0  0  0  0  0  0  0  0  0  0  0
  -48.2812   57.8504   59.9143 C   0  0  0  0  0  0  0  0  0  0  0  0
  -47.5567   58.2598   58.6422 C   0  0  0  0  0  0  0  0  0  0  0  0
  -47.2190   56.9161   56.5310 C   0  0  0  0  0  0  0  0  0  0  0  0
  -46.7991   57.1347   57.9609 C   0  0  0  0  0  0  0  0  0  0  0  0
 43 45  1  0  0  0
 43 42  1  0  0  0
 43 46  1  0  0  0
 64 65  1  0  0  0
 44 45  2  0  0  0
 65 63  1  0  0  0
  2  1  1  0  0  0
  2  4  1  0  0  0
  2  5  1  0  0  0
  3  4  2  0  0  0
 63 62  1  0  0  0
  6  8  1  0  0  0
  6 11  2  0  0  0
  7 10  1  0  0  0
  7 11  1  0  0  0
 62 61  1  0  0  0
 26 28  1  0  0  0
 26 32  1  0  0  0
 26 29  1  0  0  0
 12 18  1  0  0  0
 12 19  1  0  0  0
 61 60  1  0  0  0
 30 36  1  0  0  0
 30 37  1  0  0  0
 30 38  1  0  0  0
 20 21  2  0  0  0
 60 59  1  0  0  0
 22 21  1  0  0  0
 22 23  1  0  0  0
 59 58  1  0  0  0
 27 28  2  0  0  0
 58 57  1  0  0  0
 31 37  2  0  0  0
 57 56  1  0  0  0
 56 55  1  0  0  0
 55 54  1  0  0  0
 54 53  1  0  0  0
 53 52  1  0  0  0
 52 51  1  0  0  0
 51 50  1  0  0  0
 50 49  1  0  0  0
 49 47  1  0  0  0
 47 48  2  0  0  0
 48 45  1  0  0  0
 42 41  1  0  0  0
 41 40  1  0  0  0
 40 39  1  0  0  0
 39  1  1  0  0  0
  1 21  1  0  0  0
  8  4  1  0  0  0
  8  9  1  0  0  0
  8 10  1  0  0  0
 11 13  1  0  0  0
 13 14  2  0  0  0
 13 18  1  0  0  0
 14 15  1  0  0  0
 15 16  2  0  0  0
 16 17  1  0  0  0
 17 18  2  0  0  0
 23 24  1  0  0  0
 23 25  1  0  0  0
 25 28  1  0  0  0
 32 33  1  0  0  0
 32 37  1  0  0  0
 33 34  1  0  0  0
 34 35  1  0  0  0
 35 36  1  0  0  0
M  END
> <minimizedAffinity>
-9.81675

> <CNNscore>
0.3182947338

> <CNNaffinity>
7.2076635361

> <CNN_VS>
2.2941613197

> <CNNaffinity_variance>
0.5219098330

$$$$
/media/chris/experiments/cd1a-new-docking/inputs/ligands/7ryo_ligand.pdb


 65 67  0  0  0  0  0  0  0  0999 V2000
  -34.8863   62.0908   63.8700 C   0  0  0  0  0  0  0  0  0  0  0  0
  -35.1617   60.7009   63.5461 N   0  0  0  0  0  0  0  0  0  0  0  0
  -37.0632   61.1814   62.4475 O   0  0  0  0  0  0  0  0  0  0  0  0
  -36.2491   60.3631   62.8488 C   0  0  0  0  0  0  0  0  0  0  0  0
  -34.5385   59.9996   63.8448 H   0  0  0  0  0  0  0  0  0  0  0  0
  -37.8170   58.4714   63.0354 N   0  0  0  0  0  0  0  0  0  0  0  0
  -37.7105   57.7557   60.9001 O   0  0  0  0  0  0  0  0  0  0  0  0
  -36.4783   58.8687   62.5690 C   0  0  0  0  0  0  0  0  0  0  0  0
  -35.4284   58.0586   63.3236 C   0  0  0  0  0  0  0  0  0  0  0  0
  -36.4930   58.5246   61.0723 C   0  0  0  0  0  0  0  0  0  0  0  0
  -38.3928   57.8875   62.0673 C   0  0  0  0  0  0  0  0  0  0  0  0
  -40.3728   58.5503   60.0865 O   0  0  0  0  0  0  0  0  0  0  0  0
  -39.7443   57.3226   62.0797 C   0  0  0  0  0  0  0  0  0  0  0  0
  -40.0750   56.3170   62.9888 C   0  0  0  0  0  0  0  0  0  0  0  0
  -41.2570   55.6093   62.8540 C   0  0  0  0  0  0  0  0  0  0  0  0
  -42.1234   55.8889   61.8196 C   0  0  0  0  0  0  0  0  0  0  0  0
  -41.8170   56.8775   60.9024 C   0  0  0  0  0  0  0  0  0  0  0  0
  -40.6327   57.5982   61.0200 C   0  0  0  0  0  0  0  0  0  0  0  0
  -39.5838   59.0532   60.1372 H   0  0  0  0  0  0  0  0  0  0  0  0
  -33.0242   62.0371   62.3305 O   0  0  0  0  0  0  0  0  0  0  0  0
  -33.5587   62.5413   63.2794 C   0  0  0  0  0  0  0  0  0  0  0  0
  -33.0554   63.5713   63.9815 O   0  0  0  0  0  0  0  0  0  0  0  0
  -31.7509   63.3958   64.6278 C   0  0  0  0  0  0  0  0  0  0  0  0
  -31.7023   64.2970   65.8356 C   0  0  0  0  0  0  0  0  0  0  0  0
  -30.7229   63.7784   63.5808 C   0  0  0  0  0  0  0  0  0  0  0  0
  -30.4486   61.4119   63.1724 N   0  0  0  0  0  0  0  0  0  0  0  0
  -28.7021   62.7750   62.7803 O   0  0  0  0  0  0  0  0  0  0  0  0
  -29.8633   62.6127   63.1447 C   0  0  0  0  0  0  0  0  0  0  0  0
  -31.3832   61.3423   63.4740 H   0  0  0  0  0  0  0  0  0  0  0  0
  -29.0682   59.2166   60.6489 N   0  0  0  0  0  0  0  0  0  0  0  0
  -30.8197   60.6173   60.6696 O   0  0  0  0  0  0  0  0  0  0  0  0
  -29.7456   60.2063   62.7700 C   0  0  0  0  0  0  0  0  0  0  0  0
  -30.3247   58.9899   63.5012 C   0  0  0  0  0  0  0  0  0  0  0  0
  -29.3960   57.7805   63.5056 C   0  0  0  0  0  0  0  0  0  0  0  0
  -29.0551   57.2158   62.1408 C   0  0  0  0  0  0  0  0  0  0  0  0
  -28.2667   58.1606   61.2582 C   0  0  0  0  0  0  0  0  0  0  0  0
  -29.9244   60.0305   61.2703 C   0  0  0  0  0  0  0  0  0  0  0  0
  -28.9669   59.3419   59.6777 H   0  0  0  0  0  0  0  0  0  0  0  0
  -34.9200   62.3261   65.3809 C   0  0  0  0  0  0  0  0  0  0  0  0
  -36.3327   62.2454   65.9494 C   0  0  0  0  0  0  0  0  0  0  0  0
  -36.7976   60.8218   66.1937 C   0  0  0  0  0  0  0  0  0  0  0  0
  -38.2987   60.6521   66.2797 C   0  0  0  0  0  0  0  0  0  0  0  0
  -38.9253   60.8866   64.9885 N   0  0  0  0  0  0  0  0  0  0  0  0
  -40.6159   60.5121   63.5409 O   0  0  0  0  0  0  0  0  0  0  0  0
  -40.0888   60.3208   64.6490 C   0  0  0  0  0  0  0  0  0  0  0  0
  -38.4786   61.4809   64.3432 H   0  0  0  0  0  0  0  0  0  0  0  0
  -41.8601   58.8612   65.6004 C   0  0  0  0  0  0  0  0  0  0  0  0
  -40.7189   59.5248   65.7259 C   0  0  0  0  0  0  0  0  0  0  0  0
  -42.7286   58.7524   64.3862 C   0  0  0  0  0  0  0  0  0  0  0  0
  -43.7654   57.6452   64.5316 C   0  0  0  0  0  0  0  0  0  0  0  0
  -45.1800   58.1541   64.7480 C   0  0  0  0  0  0  0  0  0  0  0  0
  -45.7365   57.8362   66.1259 C   0  0  0  0  0  0  0  0  0  0  0  0
  -47.1364   58.3662   66.3731 C   0  0  0  0  0  0  0  0  0  0  0  0
  -48.2086   57.6359   65.5813 C   0  0  0  0  0  0  0  0  0  0  0  0
  -49.6199   57.9642   66.0276 C   0  0  0  0  0  0  0  0  0  0  0  0
  -50.3108   58.9669   65.1254 C   0  0  0  0  0  0  0  0  0  0  0  0
  -49.9094   58.8760   63.6657 C   0  0  0  0  0  0  0  0  0  0  0  0
  -51.0931   58.9857   62.7250 C   0  0  0  0  0  0  0  0  0  0  0  0
  -51.2626   57.7684   61.8308 C   0  0  0  0  0  0  0  0  0  0  0  0
  -50.0049   57.3702   61.0781 C   0  0  0  0  0  0  0  0  0  0  0  0
  -49.7316   58.2025   59.8350 C   0  0  0  0  0  0  0  0  0  0  0  0
  -48.8411   57.5107   58.8120 C   0  0  0  0  0  0  0  0  0  0  0  0
  -47.3665   57.8447   58.9696 C   0  0  0  0  0  0  0  0  0  0  0  0
  -46.9628   56.9270   56.6519 C   0  0  0  0  0  0  0  0  0  0  0  0
  -46.6117   57.9891   57.6606 C   0  0  0  0  0  0  0  0  0  0  0  0
 43 45  1  0  0  0
 43 42  1  0  0  0
 43 46  1  0  0  0
 64 65  1  0  0  0
 44 45  2  0  0  0
 65 63  1  0  0  0
  2  1  1  0  0  0
  2  4  1  0  0  0
  2  5  1  0  0  0
  3  4  2  0  0  0
 63 62  1  0  0  0
  6  8  1  0  0  0
  6 11  2  0  0  0
  7 10  1  0  0  0
  7 11  1  0  0  0
 62 61  1  0  0  0
 26 28  1  0  0  0
 26 32  1  0  0  0
 26 29  1  0  0  0
 12 18  1  0  0  0
 12 19  1  0  0  0
 61 60  1  0  0  0
 30 36  1  0  0  0
 30 37  1  0  0  0
 30 38  1  0  0  0
 20 21  2  0  0  0
 60 59  1  0  0  0
 22 21  1  0  0  0
 22 23  1  0  0  0
 59 58  1  0  0  0
 27 28  2  0  0  0
 58 57  1  0  0  0
 31 37  2  0  0  0
 57 56  1  0  0  0
 56 55  1  0  0  0
 55 54  1  0  0  0
 54 53  1  0  0  0
 53 52  1  0  0  0
 52 51  1  0  0  0
 51 50  1  0  0  0
 50 49  1  0  0  0
 49 47  1  0  0  0
 47 48  2  0  0  0
 48 45  1  0  0  0
 42 41  1  0  0  0
 41 40  1  0  0  0
 40 39  1  0  0  0
 39  1  1  0  0  0
  1 21  1  0  0  0
  8  4  1  0  0  0
  8  9  1  0  0  0
  8 10  1  0  0  0
 11 13  1  0  0  0
 13 14  2  0  0  0
 13 18  1  0  0  0
 14 15  1  0  0  0
 15 16  2  0  0  0
 16 17  1  0  0  0
 17 18  2  0  0  0
 23 24  1  0  0  0
 23 25  1  0  0  0
 25 28  1  0  0  0
 32 33  1  0  0  0
 32 37  1  0  0  0
 33 34  1  0  0  0
 34 35  1  0  0  0
 35 36  1  0  0  0
M  END
> <minimizedAffinity>
-10.24518

> <CNNscore>
0.3052862883

> <CNNaffinity>
7.4320373535

> <CNN_VS>
2.2688992023

> <CNNaffinity_variance>
0.7947317362

$$$$
/media/chris/experiments/cd1a-new-docking/inputs/ligands/7ryo_ligand.pdb


 65 67  0  0  0  0  0  0  0  0999 V2000
  -40.9412   58.1277   63.0782 C   0  0  0  0  0  0  0  0  0  0  0  0
  -39.9162   58.2602   64.1001 N   0  0  0  0  0  0  0  0  0  0  0  0
  -39.5498   60.4336   63.6581 O   0  0  0  0  0  0  0  0  0  0  0  0
  -39.2988   59.4265   64.3031 C   0  0  0  0  0  0  0  0  0  0  0  0
  -39.6741   57.4799   64.6497 H   0  0  0  0  0  0  0  0  0  0  0  0
  -37.1007   60.3361   64.9456 N   0  0  0  0  0  0  0  0  0  0  0  0
  -37.6603   61.1134   66.9866 O   0  0  0  0  0  0  0  0  0  0  0  0
  -38.2101   59.4752   65.3877 C   0  0  0  0  0  0  0  0  0  0  0  0
  -37.6812   58.0630   65.6200 C   0  0  0  0  0  0  0  0  0  0  0  0
  -38.6825   60.1266   66.6958 C   0  0  0  0  0  0  0  0  0  0  0  0
  -36.8885   61.1781   65.8706 C   0  0  0  0  0  0  0  0  0  0  0  0
  -36.1464   62.6397   68.2363 O   0  0  0  0  0  0  0  0  0  0  0  0
  -35.8710   62.2319   65.8629 C   0  0  0  0  0  0  0  0  0  0  0  0
  -35.1144   62.4669   64.7142 C   0  0  0  0  0  0  0  0  0  0  0  0
  -33.9962   63.2813   64.7643 C   0  0  0  0  0  0  0  0  0  0  0  0
  -33.6154   63.8715   65.9498 C   0  0  0  0  0  0  0  0  0  0  0  0
  -34.3454   63.6511   67.1035 C   0  0  0  0  0  0  0  0  0  0  0  0
  -35.4711   62.8339   67.0737 C   0  0  0  0  0  0  0  0  0  0  0  0
  -36.9086   62.0948   68.2501 H   0  0  0  0  0  0  0  0  0  0  0  0
  -43.1844   57.2309   63.0118 O   0  0  0  0  0  0  0  0  0  0  0  0
  -42.2251   57.5525   63.6573 C   0  0  0  0  0  0  0  0  0  0  0  0
  -42.1446   57.4738   64.9968 O   0  0  0  0  0  0  0  0  0  0  0  0
  -43.0200   58.3384   65.7943 C   0  0  0  0  0  0  0  0  0  0  0  0
  -42.1829   58.9919   66.8647 C   0  0  0  0  0  0  0  0  0  0  0  0
  -44.0817   57.4222   66.3713 C   0  0  0  0  0  0  0  0  0  0  0  0
  -46.2350   57.8856   65.3760 N   0  0  0  0  0  0  0  0  0  0  0  0
  -45.8002   58.7168   67.4210 O   0  0  0  0  0  0  0  0  0  0  0  0
  -45.4466   58.0704   66.4388 C   0  0  0  0  0  0  0  0  0  0  0  0
  -45.8979   57.3576   64.6165 H   0  0  0  0  0  0  0  0  0  0  0  0
  -49.7389   57.8800   66.2795 N   0  0  0  0  0  0  0  0  0  0  0  0
  -48.2171   56.2509   66.0333 O   0  0  0  0  0  0  0  0  0  0  0  0
  -47.5753   58.4414   65.3092 C   0  0  0  0  0  0  0  0  0  0  0  0
  -47.9591   58.7172   63.8510 C   0  0  0  0  0  0  0  0  0  0  0  0
  -49.1204   59.6938   63.6991 C   0  0  0  0  0  0  0  0  0  0  0  0
  -50.4336   59.2444   64.3085 C   0  0  0  0  0  0  0  0  0  0  0  0
  -50.3992   59.0953   65.8150 C   0  0  0  0  0  0  0  0  0  0  0  0
  -48.5397   57.4283   65.9057 C   0  0  0  0  0  0  0  0  0  0  0  0
  -50.2292   57.3360   66.9374 H   0  0  0  0  0  0  0  0  0  0  0  0
  -40.4469   57.2848   61.9017 C   0  0  0  0  0  0  0  0  0  0  0  0
  -40.9550   57.8047   60.5613 C   0  0  0  0  0  0  0  0  0  0  0  0
  -40.4179   59.1802   60.2119 C   0  0  0  0  0  0  0  0  0  0  0  0
  -38.9607   59.2061   59.8051 C   0  0  0  0  0  0  0  0  0  0  0  0
  -38.1825   60.0429   60.7047 N   0  0  0  0  0  0  0  0  0  0  0  0
  -36.4832   60.2815   62.1707 O   0  0  0  0  0  0  0  0  0  0  0  0
  -37.1386   59.5685   61.3932 C   0  0  0  0  0  0  0  0  0  0  0  0
  -38.4323   60.9893   60.8104 H   0  0  0  0  0  0  0  0  0  0  0  0
  -35.9663   57.4178   61.8096 C   0  0  0  0  0  0  0  0  0  0  0  0
  -36.7926   58.1624   61.0875 C   0  0  0  0  0  0  0  0  0  0  0  0
  -35.2379   57.8046   63.0587 C   0  0  0  0  0  0  0  0  0  0  0  0
  -33.7453   57.9829   62.8091 C   0  0  0  0  0  0  0  0  0  0  0  0
  -33.1596   56.9685   61.8423 C   0  0  0  0  0  0  0  0  0  0  0  0
  -32.0997   57.5484   60.9205 C   0  0  0  0  0  0  0  0  0  0  0  0
  -31.7647   59.0034   61.1893 C   0  0  0  0  0  0  0  0  0  0  0  0
  -30.3897   59.4107   60.6860 C   0  0  0  0  0  0  0  0  0  0  0  0
  -29.4492   59.8571   61.7883 C   0  0  0  0  0  0  0  0  0  0  0  0
  -30.0073   59.6221   63.1776 C   0  0  0  0  0  0  0  0  0  0  0  0
  -29.2392   58.6024   63.9963 C   0  0  0  0  0  0  0  0  0  0  0  0
  -30.0624   57.3713   64.3201 C   0  0  0  0  0  0  0  0  0  0  0  0
  -29.5919   56.6479   65.5713 C   0  0  0  0  0  0  0  0  0  0  0  0
  -29.3650   55.1584   65.3798 C   0  0  0  0  0  0  0  0  0  0  0  0
  -28.1570   54.8164   64.5216 C   0  0  0  0  0  0  0  0  0  0  0  0
  -28.5069   54.1325   63.2071 C   0  0  0  0  0  0  0  0  0  0  0  0
  -27.7787   54.7180   62.0081 C   0  0  0  0  0  0  0  0  0  0  0  0
  -27.6593   56.9198   60.7775 C   0  0  0  0  0  0  0  0  0  0  0  0
  -28.5432   55.8084   61.2797 C   0  0  0  0  0  0  0  0  0  0  0  0
 43 45  1  0  0  0
 43 42  1  0  0  0
 43 46  1  0  0  0
 64 65  1  0  0  0
 44 45  2  0  0  0
 65 63  1  0  0  0
  2  1  1  0  0  0
  2  4  1  0  0  0
  2  5  1  0  0  0
  3  4  2  0  0  0
 63 62  1  0  0  0
  6  8  1  0  0  0
  6 11  2  0  0  0
  7 10  1  0  0  0
  7 11  1  0  0  0
 62 61  1  0  0  0
 26 28  1  0  0  0
 26 32  1  0  0  0
 26 29  1  0  0  0
 12 18  1  0  0  0
 12 19  1  0  0  0
 61 60  1  0  0  0
 30 36  1  0  0  0
 30 37  1  0  0  0
 30 38  1  0  0  0
 20 21  2  0  0  0
 60 59  1  0  0  0
 22 21  1  0  0  0
 22 23  1  0  0  0
 59 58  1  0  0  0
 27 28  2  0  0  0
 58 57  1  0  0  0
 31 37  2  0  0  0
 57 56  1  0  0  0
 56 55  1  0  0  0
 55 54  1  0  0  0
 54 53  1  0  0  0
 53 52  1  0  0  0
 52 51  1  0  0  0
 51 50  1  0  0  0
 50 49  1  0  0  0
 49 47  1  0  0  0
 47 48  2  0  0  0
 48 45  1  0  0  0
 42 41  1  0  0  0
 41 40  1  0  0  0
 40 39  1  0  0  0
 39  1  1  0  0  0
  1 21  1  0  0  0
  8  4  1  0  0  0
  8  9  1  0  0  0
  8 10  1  0  0  0
 11 13  1  0  0  0
 13 14  2  0  0  0
 13 18  1  0  0  0
 14 15  1  0  0  0
 15 16  2  0  0  0
 16 17  1  0  0  0
 17 18  2  0  0  0
 23 24  1  0  0  0
 23 25  1  0  0  0
 25 28  1  0  0  0
 32 33  1  0  0  0
 32 37  1  0  0  0
 33 34  1  0  0  0
 34 35  1  0  0  0
 35 36  1  0  0  0
M  END
> <minimizedAffinity>
-11.20018

> <CNNscore>
0.2759816945

> <CNNaffinity>
7.6850523949

> <CNN_VS>
2.1209337711

> <CNNaffinity_variance>
2.3794736862

$$$$
/media/chris/experiments/cd1a-new-docking/inputs/ligands/7ryo_ligand.pdb


 65 67  0  0  0  0  0  0  0  0999 V2000
  -34.8022   58.3624   62.5040 C   0  0  0  0  0  0  0  0  0  0  0  0
  -35.2115   59.6465   63.0479 N   0  0  0  0  0  0  0  0  0  0  0  0
  -35.3607   58.8722   65.1530 O   0  0  0  0  0  0  0  0  0  0  0  0
  -35.4595   59.7898   64.3520 C   0  0  0  0  0  0  0  0  0  0  0  0
  -35.3071   60.4206   62.4470 H   0  0  0  0  0  0  0  0  0  0  0  0
  -34.7836   61.8698   65.4870 N   0  0  0  0  0  0  0  0  0  0  0  0
  -35.5737   63.3352   63.9667 O   0  0  0  0  0  0  0  0  0  0  0  0
  -35.9103   61.1757   64.8418 C   0  0  0  0  0  0  0  0  0  0  0  0
  -37.0333   60.9985   65.8595 C   0  0  0  0  0  0  0  0  0  0  0  0
  -36.3206   62.1205   63.7027 C   0  0  0  0  0  0  0  0  0  0  0  0
  -34.6878   63.0128   64.9448 C   0  0  0  0  0  0  0  0  0  0  0  0
  -33.6749   63.3982   67.6110 O   0  0  0  0  0  0  0  0  0  0  0  0
  -33.7036   64.0461   65.2755 C   0  0  0  0  0  0  0  0  0  0  0  0
  -33.1092   64.7978   64.2613 C   0  0  0  0  0  0  0  0  0  0  0  0
  -32.0123   65.5980   64.5309 C   0  0  0  0  0  0  0  0  0  0  0  0
  -31.4927   65.6631   65.8055 C   0  0  0  0  0  0  0  0  0  0  0  0
  -32.0604   64.9245   66.8276 C   0  0  0  0  0  0  0  0  0  0  0  0
  -33.1620   64.1128   66.5757 C   0  0  0  0  0  0  0  0  0  0  0  0
  -34.4165   62.8420   67.4746 H   0  0  0  0  0  0  0  0  0  0  0  0
  -32.6080   57.3513   62.5651 O   0  0  0  0  0  0  0  0  0  0  0  0
  -33.2945   58.3019   62.3097 C   0  0  0  0  0  0  0  0  0  0  0  0
  -32.8334   59.4704   61.8311 O   0  0  0  0  0  0  0  0  0  0  0  0
  -31.8448   60.2027   62.6289 C   0  0  0  0  0  0  0  0  0  0  0  0
  -32.2510   61.6544   62.6594 C   0  0  0  0  0  0  0  0  0  0  0  0
  -30.5171   59.9897   61.9279 C   0  0  0  0  0  0  0  0  0  0  0  0
  -29.7325   57.7124   62.1292 N   0  0  0  0  0  0  0  0  0  0  0  0
  -28.9095   59.2568   63.5433 O   0  0  0  0  0  0  0  0  0  0  0  0
  -29.6491   58.9561   62.6105 C   0  0  0  0  0  0  0  0  0  0  0  0
  -30.3434   57.5299   61.3791 H   0  0  0  0  0  0  0  0  0  0  0  0
  -27.7418   54.7128   61.7655 N   0  0  0  0  0  0  0  0  0  0  0  0
  -29.4404   55.5774   60.5834 O   0  0  0  0  0  0  0  0  0  0  0  0
  -28.9476   56.6220   62.6811 C   0  0  0  0  0  0  0  0  0  0  0  0
  -29.6951   55.9752   63.8527 C   0  0  0  0  0  0  0  0  0  0  0  0
  -28.7979   55.1507   64.7694 C   0  0  0  0  0  0  0  0  0  0  0  0
  -28.1138   53.9654   64.1175 C   0  0  0  0  0  0  0  0  0  0  0  0
  -27.1245   54.3395   63.0337 C   0  0  0  0  0  0  0  0  0  0  0  0
  -28.7310   55.5906   61.5850 C   0  0  0  0  0  0  0  0  0  0  0  0
  -27.3921   54.2708   60.9583 H   0  0  0  0  0  0  0  0  0  0  0  0
  -35.5342   58.0540   61.1971 C   0  0  0  0  0  0  0  0  0  0  0  0
  -37.0100   58.4337   61.2550 C   0  0  0  0  0  0  0  0  0  0  0  0
  -37.8736   57.3746   61.9145 C   0  0  0  0  0  0  0  0  0  0  0  0
  -38.6252   57.8443   63.1408 C   0  0  0  0  0  0  0  0  0  0  0  0
  -39.3119   59.1001   62.8830 N   0  0  0  0  0  0  0  0  0  0  0  0
  -41.1352   60.2169   62.1604 O   0  0  0  0  0  0  0  0  0  0  0  0
  -40.5553   59.1434   62.3920 C   0  0  0  0  0  0  0  0  0  0  0  0
  -38.8464   59.9458   63.0758 H   0  0  0  0  0  0  0  0  0  0  0  0
  -42.1354   57.3350   63.0292 C   0  0  0  0  0  0  0  0  0  0  0  0
  -41.1949   57.8187   62.2293 C   0  0  0  0  0  0  0  0  0  0  0  0
  -42.7554   57.9966   64.2202 C   0  0  0  0  0  0  0  0  0  0  0  0
  -44.1239   57.4094   64.5430 C   0  0  0  0  0  0  0  0  0  0  0  0
  -44.4891   57.4783   66.0158 C   0  0  0  0  0  0  0  0  0  0  0  0
  -45.7741   58.2422   66.2886 C   0  0  0  0  0  0  0  0  0  0  0  0
  -47.0405   57.4754   65.9573 C   0  0  0  0  0  0  0  0  0  0  0  0
  -47.9366   58.1895   64.9587 C   0  0  0  0  0  0  0  0  0  0  0  0
  -47.6528   59.6744   64.8445 C   0  0  0  0  0  0  0  0  0  0  0  0
  -48.9082   60.5099   64.6937 C   0  0  0  0  0  0  0  0  0  0  0  0
  -50.1748   59.8286   65.1751 C   0  0  0  0  0  0  0  0  0  0  0  0
  -51.3456   60.0373   64.2350 C   0  0  0  0  0  0  0  0  0  0  0  0
  -51.0368   59.6492   62.7982 C   0  0  0  0  0  0  0  0  0  0  0  0
  -50.7071   58.1787   62.6089 C   0  0  0  0  0  0  0  0  0  0  0  0
  -50.8729   57.6807   61.1815 C   0  0  0  0  0  0  0  0  0  0  0  0
  -49.5951   57.1231   60.5696 C   0  0  0  0  0  0  0  0  0  0  0  0
  -49.2248   57.7726   59.2461 C   0  0  0  0  0  0  0  0  0  0  0  0
  -47.2145   57.5578   57.7331 C   0  0  0  0  0  0  0  0  0  0  0  0
  -47.7393   58.0266   59.0648 C   0  0  0  0  0  0  0  0  0  0  0  0
 43 45  1  0  0  0
 43 42  1  0  0  0
 43 46  1  0  0  0
 64 65  1  0  0  0
 44 45  2  0  0  0
 65 63  1  0  0  0
  2  1  1  0  0  0
  2  4  1  0  0  0
  2  5  1  0  0  0
  3  4  2  0  0  0
 63 62  1  0  0  0
  6  8  1  0  0  0
  6 11  2  0  0  0
  7 10  1  0  0  0
  7 11  1  0  0  0
 62 61  1  0  0  0
 26 28  1  0  0  0
 26 32  1  0  0  0
 26 29  1  0  0  0
 12 18  1  0  0  0
 12 19  1  0  0  0
 61 60  1  0  0  0
 30 36  1  0  0  0
 30 37  1  0  0  0
 30 38  1  0  0  0
 20 21  2  0  0  0
 60 59  1  0  0  0
 22 21  1  0  0  0
 22 23  1  0  0  0
 59 58  1  0  0  0
 27 28  2  0  0  0
 58 57  1  0  0  0
 31 37  2  0  0  0
 57 56  1  0  0  0
 56 55  1  0  0  0
 55 54  1  0  0  0
 54 53  1  0  0  0
 53 52  1  0  0  0
 52 51  1  0  0  0
 51 50  1  0  0  0
 50 49  1  0  0  0
 49 47  1  0  0  0
 47 48  2  0  0  0
 48 45  1  0  0  0
 42 41  1  0  0  0
 41 40  1  0  0  0
 40 39  1  0  0  0
 39  1  1  0  0  0
  1 21  1  0  0  0
  8  4  1  0  0  0
  8  9  1  0  0  0
  8 10  1  0  0  0
 11 13  1  0  0  0
 13 14  2  0  0  0
 13 18  1  0  0  0
 14 15  1  0  0  0
 15 16  2  0  0  0
 16 17  1  0  0  0
 17 18  2  0  0  0
 23 24  1  0  0  0
 23 25  1  0  0  0
 25 28  1  0  0  0
 32 33  1  0  0  0
 32 37  1  0  0  0
 33 34  1  0  0  0
 34 35  1  0  0  0
 35 36  1  0  0  0
M  END
> <minimizedAffinity>
-10.73826

> <CNNscore>
0.2647461593

> <CNNaffinity>
7.2252531052

> <CNN_VS>
1.9128580093

> <CNNaffinity_variance>
0.9202427864

$$$$
/media/chris/experiments/cd1a-new-docking/inputs/ligands/7ryo_ligand.pdb


 65 67  0  0  0  0  0  0  0  0999 V2000
  -42.7648   57.3532   65.6306 C   0  0  0  0  0  0  0  0  0  0  0  0
  -44.0980   57.3006   66.2070 N   0  0  0  0  0  0  0  0  0  0  0  0
  -45.0277   58.4755   64.5311 O   0  0  0  0  0  0  0  0  0  0  0  0
  -45.1327   57.8790   65.5924 C   0  0  0  0  0  0  0  0  0  0  0  0
  -44.2399   56.8325   67.0615 H   0  0  0  0  0  0  0  0  0  0  0  0
  -47.4484   58.7205   65.6295 N   0  0  0  0  0  0  0  0  0  0  0  0
  -48.5109   56.7322   65.6612 O   0  0  0  0  0  0  0  0  0  0  0  0
  -46.5049   57.7971   66.2812 C   0  0  0  0  0  0  0  0  0  0  0  0
  -46.3473   58.1988   67.7448 C   0  0  0  0  0  0  0  0  0  0  0  0
  -47.1768   56.4235   66.1389 C   0  0  0  0  0  0  0  0  0  0  0  0
  -48.4852   58.0509   65.3359 C   0  0  0  0  0  0  0  0  0  0  0  0
  -50.1313   60.1133   66.4848 O   0  0  0  0  0  0  0  0  0  0  0  0
  -49.6867   58.5647   64.6739 C   0  0  0  0  0  0  0  0  0  0  0  0
  -49.9973   58.1619   63.3746 C   0  0  0  0  0  0  0  0  0  0  0  0
  -50.9807   58.8160   62.6526 C   0  0  0  0  0  0  0  0  0  0  0  0
  -51.6667   59.8741   63.2081 C   0  0  0  0  0  0  0  0  0  0  0  0
  -51.3749   60.2961   64.4924 C   0  0  0  0  0  0  0  0  0  0  0  0
  -50.3883   59.6526   65.2329 C   0  0  0  0  0  0  0  0  0  0  0  0
  -49.4729   59.7020   67.0095 H   0  0  0  0  0  0  0  0  0  0  0  0
  -42.3057   59.1709   67.1555 O   0  0  0  0  0  0  0  0  0  0  0  0
  -41.9367   58.4642   66.2586 C   0  0  0  0  0  0  0  0  0  0  0  0
  -40.7395   58.5591   65.6545 O   0  0  0  0  0  0  0  0  0  0  0  0
  -40.0241   59.8365   65.7342 C   0  0  0  0  0  0  0  0  0  0  0  0
  -40.5404   60.7311   64.6357 C   0  0  0  0  0  0  0  0  0  0  0  0
  -38.5575   59.4938   65.5576 C   0  0  0  0  0  0  0  0  0  0  0  0
  -36.6336   60.7772   64.8549 N   0  0  0  0  0  0  0  0  0  0  0  0
  -37.8475   61.5327   66.5919 O   0  0  0  0  0  0  0  0  0  0  0  0
  -37.6483   60.6917   65.7198 C   0  0  0  0  0  0  0  0  0  0  0  0
  -36.5232   60.0726   64.1761 H   0  0  0  0  0  0  0  0  0  0  0  0
  -34.1156   62.8662   63.3092 N   0  0  0  0  0  0  0  0  0  0  0  0
  -34.6969   60.7163   63.0442 O   0  0  0  0  0  0  0  0  0  0  0  0
  -35.6888   61.8799   64.8872 C   0  0  0  0  0  0  0  0  0  0  0  0
  -34.8367   61.8064   66.1593 C   0  0  0  0  0  0  0  0  0  0  0  0
  -34.1521   63.1222   66.5130 C   0  0  0  0  0  0  0  0  0  0  0  0
  -33.1678   63.6417   65.4839 C   0  0  0  0  0  0  0  0  0  0  0  0
  -33.7956   64.0104   64.1561 C   0  0  0  0  0  0  0  0  0  0  0  0
  -34.7894   61.7705   63.6660 C   0  0  0  0  0  0  0  0  0  0  0  0
  -33.8016   62.9064   62.3770 H   0  0  0  0  0  0  0  0  0  0  0  0
  -42.8229   57.5078   64.1101 C   0  0  0  0  0  0  0  0  0  0  0  0
  -42.3415   56.2581   63.3809 C   0  0  0  0  0  0  0  0  0  0  0  0
  -41.0542   56.4763   62.6078 C   0  0  0  0  0  0  0  0  0  0  0  0
  -40.7586   57.9201   62.2653 C   0  0  0  0  0  0  0  0  0  0  0  0
  -40.6515   58.1038   60.8266 N   0  0  0  0  0  0  0  0  0  0  0  0
  -39.8020   59.2186   59.0575 O   0  0  0  0  0  0  0  0  0  0  0  0
  -39.8821   59.0550   60.2860 C   0  0  0  0  0  0  0  0  0  0  0  0
  -41.1619   57.5088   60.2312 H   0  0  0  0  0  0  0  0  0  0  0  0
  -37.8199   59.5798   61.5687 C   0  0  0  0  0  0  0  0  0  0  0  0
  -39.0869   59.8283   61.2658 C   0  0  0  0  0  0  0  0  0  0  0  0
  -36.9328   58.5169   60.9998 C   0  0  0  0  0  0  0  0  0  0  0  0
  -36.6962   57.3874   61.9949 C   0  0  0  0  0  0  0  0  0  0  0  0
  -35.2503   57.2560   62.4412 C   0  0  0  0  0  0  0  0  0  0  0  0
  -34.2489   57.7597   61.4152 C   0  0  0  0  0  0  0  0  0  0  0  0
  -32.7970   57.5603   61.8073 C   0  0  0  0  0  0  0  0  0  0  0  0
  -31.9324   58.7877   61.5713 C   0  0  0  0  0  0  0  0  0  0  0  0
  -31.3949   59.4043   62.8479 C   0  0  0  0  0  0  0  0  0  0  0  0
  -29.8986   59.2264   63.0101 C   0  0  0  0  0  0  0  0  0  0  0  0
  -29.4894   58.4845   64.2680 C   0  0  0  0  0  0  0  0  0  0  0  0
  -30.2533   57.1890   64.4585 C   0  0  0  0  0  0  0  0  0  0  0  0
  -29.7103   56.3344   65.5921 C   0  0  0  0  0  0  0  0  0  0  0  0
  -28.8158   55.1943   65.1374 C   0  0  0  0  0  0  0  0  0  0  0  0
  -29.0436   54.7581   63.6984 C   0  0  0  0  0  0  0  0  0  0  0  0
  -27.7641   54.4188   62.9461 C   0  0  0  0  0  0  0  0  0  0  0  0
  -27.7271   54.9776   61.5329 C   0  0  0  0  0  0  0  0  0  0  0  0
  -28.0084   57.3737   60.7870 C   0  0  0  0  0  0  0  0  0  0  0  0
  -28.6886   56.1259   61.2860 C   0  0  0  0  0  0  0  0  0  0  0  0
 43 45  1  0  0  0
 43 42  1  0  0  0
 43 46  1  0  0  0
 64 65  1  0  0  0
 44 45  2  0  0  0
 65 63  1  0  0  0
  2  1  1  0  0  0
  2  4  1  0  0  0
  2  5  1  0  0  0
  3  4  2  0  0  0
 63 62  1  0  0  0
  6  8  1  0  0  0
  6 11  2  0  0  0
  7 10  1  0  0  0
  7 11  1  0  0  0
 62 61  1  0  0  0
 26 28  1  0  0  0
 26 32  1  0  0  0
 26 29  1  0  0  0
 12 18  1  0  0  0
 12 19  1  0  0  0
 61 60  1  0  0  0
 30 36  1  0  0  0
 30 37  1  0  0  0
 30 38  1  0  0  0
 20 21  2  0  0  0
 60 59  1  0  0  0
 22 21  1  0  0  0
 22 23  1  0  0  0
 59 58  1  0  0  0
 27 28  2  0  0  0
 58 57  1  0  0  0
 31 37  2  0  0  0
 57 56  1  0  0  0
 56 55  1  0  0  0
 55 54  1  0  0  0
 54 53  1  0  0  0
 53 52  1  0  0  0
 52 51  1  0  0  0
 51 50  1  0  0  0
 50 49  1  0  0  0
 49 47  1  0  0  0
 47 48  2  0  0  0
 48 45  1  0  0  0
 42 41  1  0  0  0
 41 40  1  0  0  0
 40 39  1  0  0  0
 39  1  1  0  0  0
  1 21  1  0  0  0
  8  4  1  0  0  0
  8  9  1  0  0  0
  8 10  1  0  0  0
 11 13  1  0  0  0
 13 14  2  0  0  0
 13 18  1  0  0  0
 14 15  1  0  0  0
 15 16  2  0  0  0
 16 17  1  0  0  0
 17 18  2  0  0  0
 23 24  1  0  0  0
 23 25  1  0  0  0
 25 28  1  0  0  0
 32 33  1  0  0  0
 32 37  1  0  0  0
 33 34  1  0  0  0
 34 35  1  0  0  0
 35 36  1  0  0  0
M  END
> <minimizedAffinity>
-11.58612

> <CNNscore>
0.2592312396

> <CNNaffinity>
7.5132875443

> <CNN_VS>
1.9476788044

> <CNNaffinity_variance>
1.7609596252

$$$$
/media/chris/experiments/cd1a-new-docking/inputs/ligands/7ryo_ligand.pdb


 65 67  0  0  0  0  0  0  0  0999 V2000
  -34.9601   62.0329   64.1156 C   0  0  0  0  0  0  0  0  0  0  0  0
  -35.2337   60.6504   63.7605 N   0  0  0  0  0  0  0  0  0  0  0  0
  -37.0617   61.1676   62.5588 O   0  0  0  0  0  0  0  0  0  0  0  0
  -36.2827   60.3344   62.9973 C   0  0  0  0  0  0  0  0  0  0  0  0
  -34.6378   59.9377   64.0869 H   0  0  0  0  0  0  0  0  0  0  0  0
  -37.8668   58.4505   63.1131 N   0  0  0  0  0  0  0  0  0  0  0  0
  -37.7099   57.7682   60.9700 O   0  0  0  0  0  0  0  0  0  0  0  0
  -36.5141   58.8463   62.6877 C   0  0  0  0  0  0  0  0  0  0  0  0
  -35.4891   58.0172   63.4558 C   0  0  0  0  0  0  0  0  0  0  0  0
  -36.4924   58.5261   61.1858 C   0  0  0  0  0  0  0  0  0  0  0  0
  -38.4212   57.8860   62.1214 C   0  0  0  0  0  0  0  0  0  0  0  0
  -40.3770   58.6675   60.1599 O   0  0  0  0  0  0  0  0  0  0  0  0
  -39.7760   57.3300   62.0900 C   0  0  0  0  0  0  0  0  0  0  0  0
  -40.1220   56.2791   62.9402 C   0  0  0  0  0  0  0  0  0  0  0  0
  -41.3068   55.5873   62.7558 C   0  0  0  0  0  0  0  0  0  0  0  0
  -42.1609   55.9279   61.7296 C   0  0  0  0  0  0  0  0  0  0  0  0
  -41.8394   56.9626   60.8701 C   0  0  0  0  0  0  0  0  0  0  0  0
  -40.6521   57.6682   61.0381 C   0  0  0  0  0  0  0  0  0  0  0  0
  -39.5856   59.1618   60.2454 H   0  0  0  0  0  0  0  0  0  0  0  0
  -33.0019   62.2059   62.7099 O   0  0  0  0  0  0  0  0  0  0  0  0
  -33.5307   62.4190   63.7659 C   0  0  0  0  0  0  0  0  0  0  0  0
  -32.9334   63.0142   64.8128 O   0  0  0  0  0  0  0  0  0  0  0  0
  -32.0885   64.1842   64.5535 C   0  0  0  0  0  0  0  0  0  0  0  0
  -31.1677   64.3669   65.7335 C   0  0  0  0  0  0  0  0  0  0  0  0
  -33.0454   65.3480   64.3828 C   0  0  0  0  0  0  0  0  0  0  0  0
  -31.8482   65.9056   62.3584 N   0  0  0  0  0  0  0  0  0  0  0  0
  -32.7933   67.5732   63.5366 O   0  0  0  0  0  0  0  0  0  0  0  0
  -32.5500   66.3784   63.3924 C   0  0  0  0  0  0  0  0  0  0  0  0
  -31.6841   64.9370   62.2948 H   0  0  0  0  0  0  0  0  0  0  0  0
  -30.5619   66.4931   59.0277 N   0  0  0  0  0  0  0  0  0  0  0  0
  -30.4803   64.7314   60.4134 O   0  0  0  0  0  0  0  0  0  0  0  0
  -31.3206   66.7799   61.3255 C   0  0  0  0  0  0  0  0  0  0  0  0
  -30.2123   67.6679   61.9024 C   0  0  0  0  0  0  0  0  0  0  0  0
  -29.9146   68.9009   61.0561 C   0  0  0  0  0  0  0  0  0  0  0  0
  -29.4190   68.6225   59.6509 C   0  0  0  0  0  0  0  0  0  0  0  0
  -30.4277   67.9219   58.7650 C   0  0  0  0  0  0  0  0  0  0  0  0
  -30.7502   65.9122   60.2147 C   0  0  0  0  0  0  0  0  0  0  0  0
  -30.5077   65.8946   58.2479 H   0  0  0  0  0  0  0  0  0  0  0  0
  -35.2505   62.2944   65.5942 C   0  0  0  0  0  0  0  0  0  0  0  0
  -36.7412   62.2420   65.9110 C   0  0  0  0  0  0  0  0  0  0  0  0
  -37.1327   61.0351   66.7434 C   0  0  0  0  0  0  0  0  0  0  0  0
  -38.1442   60.1178   66.0916 C   0  0  0  0  0  0  0  0  0  0  0  0
  -39.0119   60.8560   65.1876 N   0  0  0  0  0  0  0  0  0  0  0  0
  -41.0630   61.2413   64.3285 O   0  0  0  0  0  0  0  0  0  0  0  0
  -40.3259   60.6188   65.1104 C   0  0  0  0  0  0  0  0  0  0  0  0
  -38.6193   61.5529   64.6137 H   0  0  0  0  0  0  0  0  0  0  0  0
  -41.8030   58.7586   65.8391 C   0  0  0  0  0  0  0  0  0  0  0  0
  -40.8251   59.6206   66.0824 C   0  0  0  0  0  0  0  0  0  0  0  0
  -42.5823   58.5897   64.5723 C   0  0  0  0  0  0  0  0  0  0  0  0
  -43.7032   57.5698   64.7313 C   0  0  0  0  0  0  0  0  0  0  0  0
  -45.0925   58.1835   64.7513 C   0  0  0  0  0  0  0  0  0  0  0  0
  -46.0819   57.4203   65.6162 C   0  0  0  0  0  0  0  0  0  0  0  0
  -47.3227   58.2083   65.9918 C   0  0  0  0  0  0  0  0  0  0  0  0
  -48.5068   57.9454   65.0761 C   0  0  0  0  0  0  0  0  0  0  0  0
  -49.8211   58.4705   65.6199 C   0  0  0  0  0  0  0  0  0  0  0  0
  -50.5863   59.3107   64.6173 C   0  0  0  0  0  0  0  0  0  0  0  0
  -50.2204   59.0451   63.1696 C   0  0  0  0  0  0  0  0  0  0  0  0
  -51.3429   58.3850   62.3936 C   0  0  0  0  0  0  0  0  0  0  0  0
  -50.8502   57.3803   61.3651 C   0  0  0  0  0  0  0  0  0  0  0  0
  -49.9384   57.9728   60.3047 C   0  0  0  0  0  0  0  0  0  0  0  0
  -48.4547   57.8312   60.6073 C   0  0  0  0  0  0  0  0  0  0  0  0
  -47.6065   57.4863   59.3909 C   0  0  0  0  0  0  0  0  0  0  0  0
  -48.2083   56.3918   58.5245 C   0  0  0  0  0  0  0  0  0  0  0  0
  -47.4467   57.1122   56.2272 C   0  0  0  0  0  0  0  0  0  0  0  0
  -47.3932   56.0474   57.2911 C   0  0  0  0  0  0  0  0  0  0  0  0
 43 45  1  0  0  0
 43 42  1  0  0  0
 43 46  1  0  0  0
 64 65  1  0  0  0
 44 45  2  0  0  0
 65 63  1  0  0  0
  2  1  1  0  0  0
  2  4  1  0  0  0
  2  5  1  0  0  0
  3  4  2  0  0  0
 63 62  1  0  0  0
  6  8  1  0  0  0
  6 11  2  0  0  0
  7 10  1  0  0  0
  7 11  1  0  0  0
 62 61  1  0  0  0
 26 28  1  0  0  0
 26 32  1  0  0  0
 26 29  1  0  0  0
 12 18  1  0  0  0
 12 19  1  0  0  0
 61 60  1  0  0  0
 30 36  1  0  0  0
 30 37  1  0  0  0
 30 38  1  0  0  0
 20 21  2  0  0  0
 60 59  1  0  0  0
 22 21  1  0  0  0
 22 23  1  0  0  0
 59 58  1  0  0  0
 27 28  2  0  0  0
 58 57  1  0  0  0
 31 37  2  0  0  0
 57 56  1  0  0  0
 56 55  1  0  0  0
 55 54  1  0  0  0
 54 53  1  0  0  0
 53 52  1  0  0  0
 52 51  1  0  0  0
 51 50  1  0  0  0
 50 49  1  0  0  0
 49 47  1  0  0  0
 47 48  2  0  0  0
 48 45  1  0  0  0
 42 41  1  0  0  0
 41 40  1  0  0  0
 40 39  1  0  0  0
 39  1  1  0  0  0
  1 21  1  0  0  0
  8  4  1  0  0  0
  8  9  1  0  0  0
  8 10  1  0  0  0
 11 13  1  0  0  0
 13 14  2  0  0  0
 13 18  1  0  0  0
 14 15  1  0  0  0
 15 16  2  0  0  0
 16 17  1  0  0  0
 17 18  2  0  0  0
 23 24  1  0  0  0
 23 25  1  0  0  0
 25 28  1  0  0  0
 32 33  1  0  0  0
 32 37  1  0  0  0
 33 34  1  0  0  0
 34 35  1  0  0  0
 35 36  1  0  0  0
M  END
> <minimizedAffinity>
-9.54126

> <CNNscore>
0.2578792274

> <CNNaffinity>
7.1694288254

> <CNN_VS>
1.8488467932

> <CNNaffinity_variance>
0.5898503661

$$$$
