/media/chris/experiments/cd1a-new-docking/inputs/ligands/7ryo_ligand.pdb


 65 67  0  0  0  0  0  0  0  0999 V2000
  -37.2941   59.6820   62.0496 C   0  0  0  0  0  0  0  0  0  0  0  0
  -36.0338   59.8932   62.7419 N   0  0  0  0  0  0  0  0  0  0  0  0
  -36.3377   62.1131   62.9238 O   0  0  0  0  0  0  0  0  0  0  0  0
  -35.6602   61.1163   63.1254 C   0  0  0  0  0  0  0  0  0  0  0  0
  -35.4482   59.1246   62.9304 H   0  0  0  0  0  0  0  0  0  0  0  0
  -33.4988   62.2989   63.1712 N   0  0  0  0  0  0  0  0  0  0  0  0
  -33.4823   62.8508   65.3571 O   0  0  0  0  0  0  0  0  0  0  0  0
  -34.3013   61.2559   63.8312 C   0  0  0  0  0  0  0  0  0  0  0  0
  -33.5591   59.9260   63.7407 C   0  0  0  0  0  0  0  0  0  0  0  0
  -34.4165   61.7441   65.2828 C   0  0  0  0  0  0  0  0  0  0  0  0
  -33.1119   63.1014   64.0743 C   0  0  0  0  0  0  0  0  0  0  0  0
  -31.3683   63.4198   61.8067 O   0  0  0  0  0  0  0  0  0  0  0  0
  -32.2837   64.2930   63.8742 C   0  0  0  0  0  0  0  0  0  0  0  0
  -32.4237   65.3938   64.7204 C   0  0  0  0  0  0  0  0  0  0  0  0
  -31.8328   66.6042   64.4016 C   0  0  0  0  0  0  0  0  0  0  0  0
  -31.0977   66.7383   63.2439 C   0  0  0  0  0  0  0  0  0  0  0  0
  -30.9473   65.6641   62.3860 C   0  0  0  0  0  0  0  0  0  0  0  0
  -31.5355   64.4399   62.6881 C   0  0  0  0  0  0  0  0  0  0  0  0
  -31.7516   62.5827   61.9807 H   0  0  0  0  0  0  0  0  0  0  0  0
  -39.2324   60.7186   63.0542 O   0  0  0  0  0  0  0  0  0  0  0  0
  -38.4725   59.7910   63.0057 C   0  0  0  0  0  0  0  0  0  0  0  0
  -38.5329   58.7118   63.8050 O   0  0  0  0  0  0  0  0  0  0  0  0
  -37.8050   58.7518   65.0772 C   0  0  0  0  0  0  0  0  0  0  0  0
  -37.0297   57.4657   65.2131 C   0  0  0  0  0  0  0  0  0  0  0  0
  -38.8668   58.9013   66.1496 C   0  0  0  0  0  0  0  0  0  0  0  0
  -40.8701   60.1916   65.7441 N   0  0  0  0  0  0  0  0  0  0  0  0
  -39.0005   61.2826   66.3572 O   0  0  0  0  0  0  0  0  0  0  0  0
  -39.5804   60.2336   66.0908 C   0  0  0  0  0  0  0  0  0  0  0  0
  -41.3781   61.0331   65.6885 H   0  0  0  0  0  0  0  0  0  0  0  0
  -42.4587   57.8918   63.4460 N   0  0  0  0  0  0  0  0  0  0  0  0
  -42.2934   60.1278   63.5072 O   0  0  0  0  0  0  0  0  0  0  0  0
  -41.5441   58.9397   65.4467 C   0  0  0  0  0  0  0  0  0  0  0  0
  -42.6683   58.6934   66.4592 C   0  0  0  0  0  0  0  0  0  0  0  0
  -43.1268   57.2405   66.5217 C   0  0  0  0  0  0  0  0  0  0  0  0
  -43.7096   56.6854   65.2372 C   0  0  0  0  0  0  0  0  0  0  0  0
  -42.7234   56.6100   64.0906 C   0  0  0  0  0  0  0  0  0  0  0  0
  -42.1322   59.0377   64.0479 C   0  0  0  0  0  0  0  0  0  0  0  0
  -42.5282   57.9140   62.4642 H   0  0  0  0  0  0  0  0  0  0  0  0
  -37.3074   58.3394   61.3172 C   0  0  0  0  0  0  0  0  0  0  0  0
  -38.5946   58.1207   60.5295 C   0  0  0  0  0  0  0  0  0  0  0  0
  -38.9904   59.3194   59.6874 C   0  0  0  0  0  0  0  0  0  0  0  0
  -40.3730   59.8641   59.9720 C   0  0  0  0  0  0  0  0  0  0  0  0
  -41.1539   59.9705   58.7497 N   0  0  0  0  0  0  0  0  0  0  0  0
  -41.6171   57.7638   58.6505 O   0  0  0  0  0  0  0  0  0  0  0  0
  -41.7229   58.9058   58.1740 C   0  0  0  0  0  0  0  0  0  0  0  0
  -41.2674   60.8549   58.3326 H   0  0  0  0  0  0  0  0  0  0  0  0
  -43.6503   58.8247   56.6081 C   0  0  0  0  0  0  0  0  0  0  0  0
  -42.4103   59.1962   56.8959 C   0  0  0  0  0  0  0  0  0  0  0  0
  -44.6082   58.0742   57.4799 C   0  0  0  0  0  0  0  0  0  0  0  0
  -46.0381   58.5711   57.3053 C   0  0  0  0  0  0  0  0  0  0  0  0
  -47.0676   57.4580   57.2156 C   0  0  0  0  0  0  0  0  0  0  0  0
  -46.9937   56.4670   58.3653 C   0  0  0  0  0  0  0  0  0  0  0  0
  -47.7458   56.8963   59.6110 C   0  0  0  0  0  0  0  0  0  0  0  0
  -49.0740   57.5723   59.3132 C   0  0  0  0  0  0  0  0  0  0  0  0
  -49.1085   59.0373   59.7022 C   0  0  0  0  0  0  0  0  0  0  0  0
  -49.6524   59.2693   61.0977 C   0  0  0  0  0  0  0  0  0  0  0  0
  -50.5514   58.1609   61.6112 C   0  0  0  0  0  0  0  0  0  0  0  0
  -51.2282   58.5152   62.9205 C   0  0  0  0  0  0  0  0  0  0  0  0
  -51.0594   59.9756   63.3063 C   0  0  0  0  0  0  0  0  0  0  0  0
  -50.8015   60.2018   64.7858 C   0  0  0  0  0  0  0  0  0  0  0  0
  -49.3794   60.6304   65.1132 C   0  0  0  0  0  0  0  0  0  0  0  0
  -48.3150   59.9184   64.2896 C   0  0  0  0  0  0  0  0  0  0  0  0
  -47.2402   59.2542   65.1350 C   0  0  0  0  0  0  0  0  0  0  0  0
  -47.0142   57.3973   66.8311 C   0  0  0  0  0  0  0  0  0  0  0  0
  -47.5129   57.7985   65.4677 C   0  0  0  0  0  0  0  0  0  0  0  0
 43 45  1  0  0  0
 43 42  1  0  0  0
 43 46  1  0  0  0
 64 65  1  0  0  0
 44 45  2  0  0  0
 65 63  1  0  0  0
  2  1  1  0  0  0
  2  4  1  0  0  0
  2  5  1  0  0  0
  3  4  2  0  0  0
 63 62  1  0  0  0
  6  8  1  0  0  0
  6 11  2  0  0  0
  7 10  1  0  0  0
  7 11  1  0  0  0
 62 61  1  0  0  0
 26 28  1  0  0  0
 26 32  1  0  0  0
 26 29  1  0  0  0
 12 18  1  0  0  0
 12 19  1  0  0  0
 61 60  1  0  0  0
 30 36  1  0  0  0
 30 37  1  0  0  0
 30 38  1  0  0  0
 20 21  2  0  0  0
 60 59  1  0  0  0
 22 21  1  0  0  0
 22 23  1  0  0  0
 59 58  1  0  0  0
 27 28  2  0  0  0
 58 57  1  0  0  0
 31 37  2  0  0  0
 57 56  1  0  0  0
 56 55  1  0  0  0
 55 54  1  0  0  0
 54 53  1  0  0  0
 53 52  1  0  0  0
 52 51  1  0  0  0
 51 50  1  0  0  0
 50 49  1  0  0  0
 49 47  1  0  0  0
 47 48  2  0  0  0
 48 45  1  0  0  0
 42 41  1  0  0  0
 41 40  1  0  0  0
 40 39  1  0  0  0
 39  1  1  0  0  0
  1 21  1  0  0  0
  8  4  1  0  0  0
  8  9  1  0  0  0
  8 10  1  0  0  0
 11 13  1  0  0  0
 13 14  2  0  0  0
 13 18  1  0  0  0
 14 15  1  0  0  0
 15 16  2  0  0  0
 16 17  1  0  0  0
 17 18  2  0  0  0
 23 24  1  0  0  0
 23 25  1  0  0  0
 25 28  1  0  0  0
 32 33  1  0  0  0
 32 37  1  0  0  0
 33 34  1  0  0  0
 34 35  1  0  0  0
 35 36  1  0  0  0
M  END
> <minimizedAffinity>
-8.24177

> <CNNscore>
0.3268066943

> <CNNaffinity>
7.6821508408

> <CNN_VS>
2.5105783939

> <CNNaffinity_variance>
0.7662371993

$$$$
/media/chris/experiments/cd1a-new-docking/inputs/ligands/7ryo_ligand.pdb


 65 67  0  0  0  0  0  0  0  0999 V2000
  -38.7631   61.0148   64.7743 C   0  0  0  0  0  0  0  0  0  0  0  0
  -38.0295   60.5746   63.5993 N   0  0  0  0  0  0  0  0  0  0  0  0
  -38.5051   58.4034   63.9355 O   0  0  0  0  0  0  0  0  0  0  0  0
  -37.9647   59.2804   63.2780 C   0  0  0  0  0  0  0  0  0  0  0  0
  -37.5747   61.2394   63.0332 H   0  0  0  0  0  0  0  0  0  0  0  0
  -35.7393   59.2795   62.2196 N   0  0  0  0  0  0  0  0  0  0  0  0
  -35.6756   57.1097   61.6106 O   0  0  0  0  0  0  0  0  0  0  0  0
  -37.1487   58.8971   62.0325 C   0  0  0  0  0  0  0  0  0  0  0  0
  -37.7101   59.6431   60.8258 C   0  0  0  0  0  0  0  0  0  0  0  0
  -37.0891   57.3823   61.7860 C   0  0  0  0  0  0  0  0  0  0  0  0
  -35.0366   58.2527   61.9722 C   0  0  0  0  0  0  0  0  0  0  0  0
  -33.3894   60.4581   62.8127 O   0  0  0  0  0  0  0  0  0  0  0  0
  -33.5752   58.1714   62.0308 C   0  0  0  0  0  0  0  0  0  0  0  0
  -32.9320   56.9524   61.8121 C   0  0  0  0  0  0  0  0  0  0  0  0
  -31.5863   56.8067   62.1015 C   0  0  0  0  0  0  0  0  0  0  0  0
  -30.8633   57.8640   62.6095 C   0  0  0  0  0  0  0  0  0  0  0  0
  -31.4780   59.0814   62.8396 C   0  0  0  0  0  0  0  0  0  0  0  0
  -32.8303   59.2467   62.5571 C   0  0  0  0  0  0  0  0  0  0  0  0
  -34.2977   60.6020   62.6335 H   0  0  0  0  0  0  0  0  0  0  0  0
  -38.0238   59.7950   66.7253 O   0  0  0  0  0  0  0  0  0  0  0  0
  -37.9592   60.7814   66.0447 C   0  0  0  0  0  0  0  0  0  0  0  0
  -37.1802   61.8440   66.3120 O   0  0  0  0  0  0  0  0  0  0  0  0
  -36.0598   62.1247   65.4089 C   0  0  0  0  0  0  0  0  0  0  0  0
  -35.0188   61.0521   65.6077 C   0  0  0  0  0  0  0  0  0  0  0  0
  -35.5542   63.4993   65.8021 C   0  0  0  0  0  0  0  0  0  0  0  0
  -33.1829   63.9658   65.7594 N   0  0  0  0  0  0  0  0  0  0  0  0
  -34.0499   62.9966   67.5953 O   0  0  0  0  0  0  0  0  0  0  0  0
  -34.1966   63.4599   66.4678 C   0  0  0  0  0  0  0  0  0  0  0  0
  -32.2783   63.9604   66.1480 H   0  0  0  0  0  0  0  0  0  0  0  0
  -33.2236   63.6769   62.1527 N   0  0  0  0  0  0  0  0  0  0  0  0
  -32.0312   62.6612   63.7581 O   0  0  0  0  0  0  0  0  0  0  0  0
  -33.3773   64.5235   64.4324 C   0  0  0  0  0  0  0  0  0  0  0  0
  -32.6387   65.8610   64.3098 C   0  0  0  0  0  0  0  0  0  0  0  0
  -33.1330   66.7286   63.1573 C   0  0  0  0  0  0  0  0  0  0  0  0
  -32.9681   66.1305   61.7743 C   0  0  0  0  0  0  0  0  0  0  0  0
  -33.7839   64.8765   61.5397 C   0  0  0  0  0  0  0  0  0  0  0  0
  -32.8184   63.5392   63.4171 C   0  0  0  0  0  0  0  0  0  0  0  0
  -33.1352   62.8860   61.5730 H   0  0  0  0  0  0  0  0  0  0  0  0
  -40.1311   60.3366   64.8612 C   0  0  0  0  0  0  0  0  0  0  0  0
  -41.2728   61.2868   64.5162 C   0  0  0  0  0  0  0  0  0  0  0  0
  -41.8340   61.0652   63.1239 C   0  0  0  0  0  0  0  0  0  0  0  0
  -41.1722   59.9498   62.3447 C   0  0  0  0  0  0  0  0  0  0  0  0
  -41.6226   58.6482   62.8116 N   0  0  0  0  0  0  0  0  0  0  0  0
  -40.6771   57.5173   61.1025 O   0  0  0  0  0  0  0  0  0  0  0  0
  -41.3406   57.5192   62.1524 C   0  0  0  0  0  0  0  0  0  0  0  0
  -42.1523   58.5965   63.6398 H   0  0  0  0  0  0  0  0  0  0  0  0
  -42.1760   56.1214   64.0291 C   0  0  0  0  0  0  0  0  0  0  0  0
  -41.9495   56.3026   62.7351 C   0  0  0  0  0  0  0  0  0  0  0  0
  -41.8978   57.0731   65.1505 C   0  0  0  0  0  0  0  0  0  0  0  0
  -43.0924   57.2059   66.0872 C   0  0  0  0  0  0  0  0  0  0  0  0
  -44.3204   57.8147   65.4328 C   0  0  0  0  0  0  0  0  0  0  0  0
  -45.5724   57.7278   66.2897 C   0  0  0  0  0  0  0  0  0  0  0  0
  -46.8064   58.3452   65.6593 C   0  0  0  0  0  0  0  0  0  0  0  0
  -48.0633   58.1752   66.4968 C   0  0  0  0  0  0  0  0  0  0  0  0
  -49.3374   58.1380   65.6759 C   0  0  0  0  0  0  0  0  0  0  0  0
  -49.1114   58.4594   64.2122 C   0  0  0  0  0  0  0  0  0  0  0  0
  -49.8720   59.6730   63.7133 C   0  0  0  0  0  0  0  0  0  0  0  0
  -50.6279   59.4025   62.4274 C   0  0  0  0  0  0  0  0  0  0  0  0
  -50.9147   57.9273   62.2000 C   0  0  0  0  0  0  0  0  0  0  0  0
  -50.4146   57.3949   60.8684 C   0  0  0  0  0  0  0  0  0  0  0  0
  -49.7003   58.4286   60.0114 C   0  0  0  0  0  0  0  0  0  0  0  0
  -48.9852   57.8407   58.8027 C   0  0  0  0  0  0  0  0  0  0  0  0
  -47.4954   57.6336   59.0231 C   0  0  0  0  0  0  0  0  0  0  0  0
  -47.4274   57.0669   56.5634 C   0  0  0  0  0  0  0  0  0  0  0  0
  -46.6700   57.6035   57.7495 C   0  0  0  0  0  0  0  0  0  0  0  0
 43 45  1  0  0  0
 43 42  1  0  0  0
 43 46  1  0  0  0
 64 65  1  0  0  0
 44 45  2  0  0  0
 65 63  1  0  0  0
  2  1  1  0  0  0
  2  4  1  0  0  0
  2  5  1  0  0  0
  3  4  2  0  0  0
 63 62  1  0  0  0
  6  8  1  0  0  0
  6 11  2  0  0  0
  7 10  1  0  0  0
  7 11  1  0  0  0
 62 61  1  0  0  0
 26 28  1  0  0  0
 26 32  1  0  0  0
 26 29  1  0  0  0
 12 18  1  0  0  0
 12 19  1  0  0  0
 61 60  1  0  0  0
 30 36  1  0  0  0
 30 37  1  0  0  0
 30 38  1  0  0  0
 20 21  2  0  0  0
 60 59  1  0  0  0
 22 21  1  0  0  0
 22 23  1  0  0  0
 59 58  1  0  0  0
 27 28  2  0  0  0
 58 57  1  0  0  0
 31 37  2  0  0  0
 57 56  1  0  0  0
 56 55  1  0  0  0
 55 54  1  0  0  0
 54 53  1  0  0  0
 53 52  1  0  0  0
 52 51  1  0  0  0
 51 50  1  0  0  0
 50 49  1  0  0  0
 49 47  1  0  0  0
 47 48  2  0  0  0
 48 45  1  0  0  0
 42 41  1  0  0  0
 41 40  1  0  0  0
 40 39  1  0  0  0
 39  1  1  0  0  0
  1 21  1  0  0  0
  8  4  1  0  0  0
  8  9  1  0  0  0
  8 10  1  0  0  0
 11 13  1  0  0  0
 13 14  2  0  0  0
 13 18  1  0  0  0
 14 15  1  0  0  0
 15 16  2  0  0  0
 16 17  1  0  0  0
 17 18  2  0  0  0
 23 24  1  0  0  0
 23 25  1  0  0  0
 25 28  1  0  0  0
 32 33  1  0  0  0
 32 37  1  0  0  0
 33 34  1  0  0  0
 34 35  1  0  0  0
 35 36  1  0  0  0
M  END
> <minimizedAffinity>
-10.27692

> <CNNscore>
0.2835677862

> <CNNaffinity>
7.6070947647

> <CNN_VS>
2.1571269035

> <CNNaffinity_variance>
1.2284810543

$$$$
/media/chris/experiments/cd1a-new-docking/inputs/ligands/7ryo_ligand.pdb


 65 67  0  0  0  0  0  0  0  0999 V2000
  -40.2898   59.2038   62.2619 C   0  0  0  0  0  0  0  0  0  0  0  0
  -39.1742   59.3394   63.1835 N   0  0  0  0  0  0  0  0  0  0  0  0
  -39.8893   57.6816   64.5229 O   0  0  0  0  0  0  0  0  0  0  0  0
  -39.0714   58.5491   64.2548 C   0  0  0  0  0  0  0  0  0  0  0  0
  -38.4855   60.0226   63.0157 H   0  0  0  0  0  0  0  0  0  0  0  0
  -36.8445   59.5738   64.5065 N   0  0  0  0  0  0  0  0  0  0  0  0
  -37.2020   60.6398   66.4607 O   0  0  0  0  0  0  0  0  0  0  0  0
  -37.8732   58.7738   65.1917 C   0  0  0  0  0  0  0  0  0  0  0  0
  -37.2803   57.4194   65.5684 C   0  0  0  0  0  0  0  0  0  0  0  0
  -38.2199   59.6071   66.4343 C   0  0  0  0  0  0  0  0  0  0  0  0
  -36.5583   60.5472   65.2680 C   0  0  0  0  0  0  0  0  0  0  0  0
  -36.3464   61.8383   62.7044 O   0  0  0  0  0  0  0  0  0  0  0  0
  -35.5796   61.6016   64.9916 C   0  0  0  0  0  0  0  0  0  0  0  0
  -34.7992   62.1215   66.0250 C   0  0  0  0  0  0  0  0  0  0  0  0
  -34.0543   63.2720   65.8318 C   0  0  0  0  0  0  0  0  0  0  0  0
  -34.0731   63.9195   64.6156 C   0  0  0  0  0  0  0  0  0  0  0  0
  -34.8417   63.4274   63.5765 C   0  0  0  0  0  0  0  0  0  0  0  0
  -35.5990   62.2734   63.7521 C   0  0  0  0  0  0  0  0  0  0  0  0
  -36.8675   61.0644   62.7902 H   0  0  0  0  0  0  0  0  0  0  0  0
  -40.5129   58.6019   59.9319 O   0  0  0  0  0  0  0  0  0  0  0  0
  -39.8302   58.6606   60.9172 C   0  0  0  0  0  0  0  0  0  0  0  0
  -38.5571   58.2347   60.9906 O   0  0  0  0  0  0  0  0  0  0  0  0
  -37.4959   59.1491   60.5575 C   0  0  0  0  0  0  0  0  0  0  0  0
  -37.7616   59.5275   59.1223 C   0  0  0  0  0  0  0  0  0  0  0  0
  -36.2011   58.3767   60.7201 C   0  0  0  0  0  0  0  0  0  0  0  0
  -35.0711   57.5060   62.6714 N   0  0  0  0  0  0  0  0  0  0  0  0
  -37.1689   56.8106   62.2505 O   0  0  0  0  0  0  0  0  0  0  0  0
  -36.1931   57.4908   61.9461 C   0  0  0  0  0  0  0  0  0  0  0  0
  -35.0152   56.9437   63.4776 H   0  0  0  0  0  0  0  0  0  0  0  0
  -31.8709   57.9819   61.0509 N   0  0  0  0  0  0  0  0  0  0  0  0
  -32.8518   56.2106   62.0158 O   0  0  0  0  0  0  0  0  0  0  0  0
  -33.9314   58.3285   62.3045 C   0  0  0  0  0  0  0  0  0  0  0  0
  -33.4163   59.0917   63.5300 C   0  0  0  0  0  0  0  0  0  0  0  0
  -32.5455   60.2934   63.1798 C   0  0  0  0  0  0  0  0  0  0  0  0
  -31.2693   59.9757   62.4262 C   0  0  0  0  0  0  0  0  0  0  0  0
  -31.4926   59.3910   61.0473 C   0  0  0  0  0  0  0  0  0  0  0  0
  -32.8364   57.4146   61.7774 C   0  0  0  0  0  0  0  0  0  0  0  0
  -31.3607   57.3871   60.4550 H   0  0  0  0  0  0  0  0  0  0  0  0
  -41.0328   60.5295   62.0904 C   0  0  0  0  0  0  0  0  0  0  0  0
  -42.0700   60.7593   63.1844 C   0  0  0  0  0  0  0  0  0  0  0  0
  -41.5985   61.7173   64.2626 C   0  0  0  0  0  0  0  0  0  0  0  0
  -41.2551   61.0642   65.5835 C   0  0  0  0  0  0  0  0  0  0  0  0
  -41.7730   59.7067   65.6450 N   0  0  0  0  0  0  0  0  0  0  0  0
  -42.3574   59.8454   67.8205 O   0  0  0  0  0  0  0  0  0  0  0  0
  -42.2899   59.1925   66.7661 C   0  0  0  0  0  0  0  0  0  0  0  0
  -41.7421   59.1481   64.8349 H   0  0  0  0  0  0  0  0  0  0  0  0
  -43.7174   57.3344   65.9394 C   0  0  0  0  0  0  0  0  0  0  0  0
  -42.6929   57.7725   66.6585 C   0  0  0  0  0  0  0  0  0  0  0  0
  -44.6520   58.1385   65.0905 C   0  0  0  0  0  0  0  0  0  0  0  0
  -46.1081   57.8942   65.4675 C   0  0  0  0  0  0  0  0  0  0  0  0
  -47.0913   58.7831   64.7258 C   0  0  0  0  0  0  0  0  0  0  0  0
  -48.1555   59.3936   65.6225 C   0  0  0  0  0  0  0  0  0  0  0  0
  -49.2093   58.4125   66.1005 C   0  0  0  0  0  0  0  0  0  0  0  0
  -50.6135   58.7566   65.6319 C   0  0  0  0  0  0  0  0  0  0  0  0
  -50.6932   60.0625   64.8658 C   0  0  0  0  0  0  0  0  0  0  0  0
  -51.2143   59.8922   63.4529 C   0  0  0  0  0  0  0  0  0  0  0  0
  -50.9370   58.5313   62.8435 C   0  0  0  0  0  0  0  0  0  0  0  0
  -49.5966   58.4674   62.1385 C   0  0  0  0  0  0  0  0  0  0  0  0
  -49.5901   59.1829   60.7976 C   0  0  0  0  0  0  0  0  0  0  0  0
  -49.5845   58.2529   59.5969 C   0  0  0  0  0  0  0  0  0  0  0  0
  -48.6185   57.0843   59.7169 C   0  0  0  0  0  0  0  0  0  0  0  0
  -47.2268   57.3754   59.1722 C   0  0  0  0  0  0  0  0  0  0  0  0
  -47.2393   58.0414   57.8057 C   0  0  0  0  0  0  0  0  0  0  0  0
  -47.0674   55.7146   56.8402 C   0  0  0  0  0  0  0  0  0  0  0  0
  -47.5943   57.1138   56.6579 C   0  0  0  0  0  0  0  0  0  0  0  0
 43 45  1  0  0  0
 43 42  1  0  0  0
 43 46  1  0  0  0
 64 65  1  0  0  0
 44 45  2  0  0  0
 65 63  1  0  0  0
  2  1  1  0  0  0
  2  4  1  0  0  0
  2  5  1  0  0  0
  3  4  2  0  0  0
 63 62  1  0  0  0
  6  8  1  0  0  0
  6 11  2  0  0  0
  7 10  1  0  0  0
  7 11  1  0  0  0
 62 61  1  0  0  0
 26 28  1  0  0  0
 26 32  1  0  0  0
 26 29  1  0  0  0
 12 18  1  0  0  0
 12 19  1  0  0  0
 61 60  1  0  0  0
 30 36  1  0  0  0
 30 37  1  0  0  0
 30 38  1  0  0  0
 20 21  2  0  0  0
 60 59  1  0  0  0
 22 21  1  0  0  0
 22 23  1  0  0  0
 59 58  1  0  0  0
 27 28  2  0  0  0
 58 57  1  0  0  0
 31 37  2  0  0  0
 57 56  1  0  0  0
 56 55  1  0  0  0
 55 54  1  0  0  0
 54 53  1  0  0  0
 53 52  1  0  0  0
 52 51  1  0  0  0
 51 50  1  0  0  0
 50 49  1  0  0  0
 49 47  1  0  0  0
 47 48  2  0  0  0
 48 45  1  0  0  0
 42 41  1  0  0  0
 41 40  1  0  0  0
 40 39  1  0  0  0
 39  1  1  0  0  0
  1 21  1  0  0  0
  8  4  1  0  0  0
  8  9  1  0  0  0
  8 10  1  0  0  0
 11 13  1  0  0  0
 13 14  2  0  0  0
 13 18  1  0  0  0
 14 15  1  0  0  0
 15 16  2  0  0  0
 16 17  1  0  0  0
 17 18  2  0  0  0
 23 24  1  0  0  0
 23 25  1  0  0  0
 25 28  1  0  0  0
 32 33  1  0  0  0
 32 37  1  0  0  0
 33 34  1  0  0  0
 34 35  1  0  0  0
 35 36  1  0  0  0
M  END
> <minimizedAffinity>
-10.41087

> <CNNscore>
0.2534223795

> <CNNaffinity>
7.6019806862

> <CNN_VS>
1.9265120029

> <CNNaffinity_variance>
2.3024945259

$$$$
/media/chris/experiments/cd1a-new-docking/inputs/ligands/7ryo_ligand.pdb


 65 67  0  0  0  0  0  0  0  0999 V2000
  -35.5070   57.9836   64.0572 C   0  0  0  0  0  0  0  0  0  0  0  0
  -36.6828   58.8370   64.0194 N   0  0  0  0  0  0  0  0  0  0  0  0
  -37.6564   57.8214   65.7728 O   0  0  0  0  0  0  0  0  0  0  0  0
  -37.6738   58.6762   64.8996 C   0  0  0  0  0  0  0  0  0  0  0  0
  -36.7493   59.5426   63.3361 H   0  0  0  0  0  0  0  0  0  0  0  0
  -40.0965   58.8149   64.4707 N   0  0  0  0  0  0  0  0  0  0  0  0
  -40.6652   60.0739   66.2525 O   0  0  0  0  0  0  0  0  0  0  0  0
  -38.8925   59.6055   64.7757 C   0  0  0  0  0  0  0  0  0  0  0  0
  -38.6460   60.5939   63.6398 C   0  0  0  0  0  0  0  0  0  0  0  0
  -39.2463   60.3236   66.0863 C   0  0  0  0  0  0  0  0  0  0  0  0
  -40.9821   59.1388   65.3193 C   0  0  0  0  0  0  0  0  0  0  0  0
  -42.3769   58.1075   63.0227 O   0  0  0  0  0  0  0  0  0  0  0  0
  -42.3430   58.6024   65.3952 C   0  0  0  0  0  0  0  0  0  0  0  0
  -42.9646   58.4414   66.6342 C   0  0  0  0  0  0  0  0  0  0  0  0
  -44.1394   57.7174   66.7417 C   0  0  0  0  0  0  0  0  0  0  0  0
  -44.7115   57.1460   65.6259 C   0  0  0  0  0  0  0  0  0  0  0  0
  -44.1132   57.2869   64.3870 C   0  0  0  0  0  0  0  0  0  0  0  0
  -42.9308   58.0091   64.2591 C   0  0  0  0  0  0  0  0  0  0  0  0
  -41.5808   58.5869   62.9028 H   0  0  0  0  0  0  0  0  0  0  0  0
  -34.2291   59.5148   65.4223 O   0  0  0  0  0  0  0  0  0  0  0  0
  -34.2738   58.7640   64.4871 C   0  0  0  0  0  0  0  0  0  0  0  0
  -33.2442   58.5121   63.6601 O   0  0  0  0  0  0  0  0  0  0  0  0
  -32.9323   59.5004   62.6230 C   0  0  0  0  0  0  0  0  0  0  0  0
  -32.2198   58.7905   61.4996 C   0  0  0  0  0  0  0  0  0  0  0  0
  -32.0554   60.5370   63.2984 C   0  0  0  0  0  0  0  0  0  0  0  0
  -32.7072   62.8393   62.9561 N   0  0  0  0  0  0  0  0  0  0  0  0
  -31.2187   61.9263   61.5375 O   0  0  0  0  0  0  0  0  0  0  0  0
  -31.9561   61.8265   62.5141 C   0  0  0  0  0  0  0  0  0  0  0  0
  -32.6800   63.6992   62.4775 H   0  0  0  0  0  0  0  0  0  0  0  0
  -35.9658   62.5950   64.5103 N   0  0  0  0  0  0  0  0  0  0  0  0
  -35.2238   63.6219   62.6595 O   0  0  0  0  0  0  0  0  0  0  0  0
  -33.5629   62.7078   64.1225 C   0  0  0  0  0  0  0  0  0  0  0  0
  -33.1260   63.6955   65.2102 C   0  0  0  0  0  0  0  0  0  0  0  0
  -33.6409   63.3402   66.6008 C   0  0  0  0  0  0  0  0  0  0  0  0
  -35.1490   63.3249   66.7528 C   0  0  0  0  0  0  0  0  0  0  0  0
  -35.8449   62.2640   65.9261 C   0  0  0  0  0  0  0  0  0  0  0  0
  -34.9911   63.0150   63.7007 C   0  0  0  0  0  0  0  0  0  0  0  0
  -36.8601   62.4985   64.1100 H   0  0  0  0  0  0  0  0  0  0  0  0
  -35.2763   57.2959   62.7108 C   0  0  0  0  0  0  0  0  0  0  0  0
  -36.4837   57.4100   61.7864 C   0  0  0  0  0  0  0  0  0  0  0  0
  -36.2842   58.4119   60.6644 C   0  0  0  0  0  0  0  0  0  0  0  0
  -37.4562   59.3392   60.4280 C   0  0  0  0  0  0  0  0  0  0  0  0
  -38.6910   58.5886   60.2644 N   0  0  0  0  0  0  0  0  0  0  0  0
  -39.7901   60.2848   59.2601 O   0  0  0  0  0  0  0  0  0  0  0  0
  -39.7752   59.1192   59.6886 C   0  0  0  0  0  0  0  0  0  0  0  0
  -38.7301   57.6596   60.5880 H   0  0  0  0  0  0  0  0  0  0  0  0
  -41.8407   58.1619   58.6931 C   0  0  0  0  0  0  0  0  0  0  0  0
  -40.9601   58.2324   59.6821 C   0  0  0  0  0  0  0  0  0  0  0  0
  -41.8301   58.9171   57.4006 C   0  0  0  0  0  0  0  0  0  0  0  0
  -43.2394   59.1381   56.8648 C   0  0  0  0  0  0  0  0  0  0  0  0
  -44.2276   58.0600   57.2748 C   0  0  0  0  0  0  0  0  0  0  0  0
  -45.6728   58.5298   57.2798 C   0  0  0  0  0  0  0  0  0  0  0  0
  -46.6953   57.4091   57.2845 C   0  0  0  0  0  0  0  0  0  0  0  0
  -47.9709   57.7569   58.0339 C   0  0  0  0  0  0  0  0  0  0  0  0
  -47.8808   57.5147   59.5278 C   0  0  0  0  0  0  0  0  0  0  0  0
  -49.1023   56.8171   60.0919 C   0  0  0  0  0  0  0  0  0  0  0  0
  -49.9450   57.6782   61.0131 C   0  0  0  0  0  0  0  0  0  0  0  0
  -49.6262   59.1550   60.8884 C   0  0  0  0  0  0  0  0  0  0  0  0
  -49.9110   59.9389   62.1590 C   0  0  0  0  0  0  0  0  0  0  0  0
  -50.9719   59.3153   63.0493 C   0  0  0  0  0  0  0  0  0  0  0  0
  -50.9035   59.7550   64.5036 C   0  0  0  0  0  0  0  0  0  0  0  0
  -50.6888   58.6109   65.4850 C   0  0  0  0  0  0  0  0  0  0  0  0
  -49.2270   58.3776   65.8313 C   0  0  0  0  0  0  0  0  0  0  0  0
  -47.2807   59.5033   64.6823 C   0  0  0  0  0  0  0  0  0  0  0  0
  -48.3531   59.6148   65.7340 C   0  0  0  0  0  0  0  0  0  0  0  0
 43 45  1  0  0  0
 43 42  1  0  0  0
 43 46  1  0  0  0
 64 65  1  0  0  0
 44 45  2  0  0  0
 65 63  1  0  0  0
  2  1  1  0  0  0
  2  4  1  0  0  0
  2  5  1  0  0  0
  3  4  2  0  0  0
 63 62  1  0  0  0
  6  8  1  0  0  0
  6 11  2  0  0  0
  7 10  1  0  0  0
  7 11  1  0  0  0
 62 61  1  0  0  0
 26 28  1  0  0  0
 26 32  1  0  0  0
 26 29  1  0  0  0
 12 18  1  0  0  0
 12 19  1  0  0  0
 61 60  1  0  0  0
 30 36  1  0  0  0
 30 37  1  0  0  0
 30 38  1  0  0  0
 20 21  2  0  0  0
 60 59  1  0  0  0
 22 21  1  0  0  0
 22 23  1  0  0  0
 59 58  1  0  0  0
 27 28  2  0  0  0
 58 57  1  0  0  0
 31 37  2  0  0  0
 57 56  1  0  0  0
 56 55  1  0  0  0
 55 54  1  0  0  0
 54 53  1  0  0  0
 53 52  1  0  0  0
 52 51  1  0  0  0
 51 50  1  0  0  0
 50 49  1  0  0  0
 49 47  1  0  0  0
 47 48  2  0  0  0
 48 45  1  0  0  0
 42 41  1  0  0  0
 41 40  1  0  0  0
 40 39  1  0  0  0
 39  1  1  0  0  0
  1 21  1  0  0  0
  8  4  1  0  0  0
  8  9  1  0  0  0
  8 10  1  0  0  0
 11 13  1  0  0  0
 13 14  2  0  0  0
 13 18  1  0  0  0
 14 15  1  0  0  0
 15 16  2  0  0  0
 16 17  1  0  0  0
 17 18  2  0  0  0
 23 24  1  0  0  0
 23 25  1  0  0  0
 25 28  1  0  0  0
 32 33  1  0  0  0
 32 37  1  0  0  0
 33 34  1  0  0  0
 34 35  1  0  0  0
 35 36  1  0  0  0
M  END
> <minimizedAffinity>
-9.09043

> <CNNscore>
0.2453747243

> <CNNaffinity>
7.4227037430

> <CNN_VS>
1.8213438988

> <CNNaffinity_variance>
1.4570766687

$$$$
/media/chris/experiments/cd1a-new-docking/inputs/ligands/7ryo_ligand.pdb


 65 67  0  0  0  0  0  0  0  0999 V2000
  -35.3391   57.5139   63.1455 C   0  0  0  0  0  0  0  0  0  0  0  0
  -34.2636   58.4340   62.8154 N   0  0  0  0  0  0  0  0  0  0  0  0
  -32.9285   56.8145   62.0102 O   0  0  0  0  0  0  0  0  0  0  0  0
  -33.1299   57.9925   62.2654 C   0  0  0  0  0  0  0  0  0  0  0  0
  -34.3724   59.3949   62.9996 H   0  0  0  0  0  0  0  0  0  0  0  0
  -32.6075   60.3840   61.9819 N   0  0  0  0  0  0  0  0  0  0  0  0
  -30.8358   60.4914   63.3720 O   0  0  0  0  0  0  0  0  0  0  0  0
  -32.0331   59.0284   61.9688 C   0  0  0  0  0  0  0  0  0  0  0  0
  -31.4507   58.7487   60.5866 C   0  0  0  0  0  0  0  0  0  0  0  0
  -30.9392   59.0821   63.0455 C   0  0  0  0  0  0  0  0  0  0  0  0
  -31.8956   61.0849   62.7636 C   0  0  0  0  0  0  0  0  0  0  0  0
  -34.5046   62.2282   63.1749 O   0  0  0  0  0  0  0  0  0  0  0  0
  -32.0980   62.5006   63.0805 C   0  0  0  0  0  0  0  0  0  0  0  0
  -31.0016   63.3248   63.3375 C   0  0  0  0  0  0  0  0  0  0  0  0
  -31.1832   64.5887   63.8719 C   0  0  0  0  0  0  0  0  0  0  0  0
  -32.4498   65.0503   64.1571 C   0  0  0  0  0  0  0  0  0  0  0  0
  -33.5528   64.2517   63.9161 C   0  0  0  0  0  0  0  0  0  0  0  0
  -33.3904   62.9775   63.3813 C   0  0  0  0  0  0  0  0  0  0  0  0
  -34.4295   61.3660   62.8161 H   0  0  0  0  0  0  0  0  0  0  0  0
  -37.5152   57.0154   62.2198 O   0  0  0  0  0  0  0  0  0  0  0  0
  -36.5194   57.6849   62.2009 C   0  0  0  0  0  0  0  0  0  0  0  0
  -36.2835   58.6782   61.3261 O   0  0  0  0  0  0  0  0  0  0  0  0
  -37.4188   59.4924   60.8815 C   0  0  0  0  0  0  0  0  0  0  0  0
  -37.9121   60.2911   62.0616 C   0  0  0  0  0  0  0  0  0  0  0  0
  -38.4553   58.5063   60.3787 C   0  0  0  0  0  0  0  0  0  0  0  0
  -40.8510   58.7296   60.6098 N   0  0  0  0  0  0  0  0  0  0  0  0
  -39.7889   60.0619   59.1406 O   0  0  0  0  0  0  0  0  0  0  0  0
  -39.7560   59.1689   59.9826 C   0  0  0  0  0  0  0  0  0  0  0  0
  -41.7230   59.1273   60.3847 H   0  0  0  0  0  0  0  0  0  0  0  0
  -41.6492   55.4097   61.8075 N   0  0  0  0  0  0  0  0  0  0  0  0
  -42.7133   56.8479   60.4547 O   0  0  0  0  0  0  0  0  0  0  0  0
  -40.7914   57.6822   61.6144 C   0  0  0  0  0  0  0  0  0  0  0  0
  -41.1367   58.2550   62.9937 C   0  0  0  0  0  0  0  0  0  0  0  0
  -40.6732   57.3790   64.1525 C   0  0  0  0  0  0  0  0  0  0  0  0
  -41.2843   55.9929   64.2065 C   0  0  0  0  0  0  0  0  0  0  0  0
  -40.9183   55.1078   63.0336 C   0  0  0  0  0  0  0  0  0  0  0  0
  -41.8023   56.6091   61.2420 C   0  0  0  0  0  0  0  0  0  0  0  0
  -42.0739   54.6490   61.3490 H   0  0  0  0  0  0  0  0  0  0  0  0
  -35.7779   57.6721   64.6020 C   0  0  0  0  0  0  0  0  0  0  0  0
  -36.3152   59.0682   64.8979 C   0  0  0  0  0  0  0  0  0  0  0  0
  -37.7102   59.0571   65.4949 C   0  0  0  0  0  0  0  0  0  0  0  0
  -38.2934   60.4265   65.7665 C   0  0  0  0  0  0  0  0  0  0  0  0
  -39.4543   60.3360   66.6378 N   0  0  0  0  0  0  0  0  0  0  0  0
  -40.9251   60.9002   65.0215 O   0  0  0  0  0  0  0  0  0  0  0  0
  -40.6938   60.5809   66.1993 C   0  0  0  0  0  0  0  0  0  0  0  0
  -39.3235   60.0863   67.5810 H   0  0  0  0  0  0  0  0  0  0  0  0
  -42.5532   59.4880   67.4330 C   0  0  0  0  0  0  0  0  0  0  0  0
  -41.7370   60.5166   67.2471 C   0  0  0  0  0  0  0  0  0  0  0  0
  -42.5937   58.2005   66.6705 C   0  0  0  0  0  0  0  0  0  0  0  0
  -44.0174   57.6787   66.5199 C   0  0  0  0  0  0  0  0  0  0  0  0
  -44.5280   57.6932   65.0895 C   0  0  0  0  0  0  0  0  0  0  0  0
  -45.9205   58.2847   64.9467 C   0  0  0  0  0  0  0  0  0  0  0  0
  -46.6864   58.4046   66.2507 C   0  0  0  0  0  0  0  0  0  0  0  0
  -48.0366   59.0854   66.0992 C   0  0  0  0  0  0  0  0  0  0  0  0
  -48.1211   60.0014   64.8940 C   0  0  0  0  0  0  0  0  0  0  0  0
  -49.4625   60.6951   64.7671 C   0  0  0  0  0  0  0  0  0  0  0  0
  -50.6563   59.7602   64.8029 C   0  0  0  0  0  0  0  0  0  0  0  0
  -51.3651   59.6641   63.4664 C   0  0  0  0  0  0  0  0  0  0  0  0
  -50.8480   58.5320   62.5940 C   0  0  0  0  0  0  0  0  0  0  0  0
  -49.9133   58.9800   61.4838 C   0  0  0  0  0  0  0  0  0  0  0  0
  -49.7964   57.9952   60.3308 C   0  0  0  0  0  0  0  0  0  0  0  0
  -48.3752   57.5143   60.0713 C   0  0  0  0  0  0  0  0  0  0  0  0
  -48.1897   56.8887   58.6983 C   0  0  0  0  0  0  0  0  0  0  0  0
  -46.1025   57.9758   57.7831 C   0  0  0  0  0  0  0  0  0  0  0  0
  -47.5955   57.8210   57.6582 C   0  0  0  0  0  0  0  0  0  0  0  0
 43 45  1  0  0  0
 43 42  1  0  0  0
 43 46  1  0  0  0
 64 65  1  0  0  0
 44 45  2  0  0  0
 65 63  1  0  0  0
  2  1  1  0  0  0
  2  4  1  0  0  0
  2  5  1  0  0  0
  3  4  2  0  0  0
 63 62  1  0  0  0
  6  8  1  0  0  0
  6 11  2  0  0  0
  7 10  1  0  0  0
  7 11  1  0  0  0
 62 61  1  0  0  0
 26 28  1  0  0  0
 26 32  1  0  0  0
 26 29  1  0  0  0
 12 18  1  0  0  0
 12 19  1  0  0  0
 61 60  1  0  0  0
 30 36  1  0  0  0
 30 37  1  0  0  0
 30 38  1  0  0  0
 20 21  2  0  0  0
 60 59  1  0  0  0
 22 21  1  0  0  0
 22 23  1  0  0  0
 59 58  1  0  0  0
 27 28  2  0  0  0
 58 57  1  0  0  0
 31 37  2  0  0  0
 57 56  1  0  0  0
 56 55  1  0  0  0
 55 54  1  0  0  0
 54 53  1  0  0  0
 53 52  1  0  0  0
 52 51  1  0  0  0
 51 50  1  0  0  0
 50 49  1  0  0  0
 49 47  1  0  0  0
 47 48  2  0  0  0
 48 45  1  0  0  0
 42 41  1  0  0  0
 41 40  1  0  0  0
 40 39  1  0  0  0
 39  1  1  0  0  0
  1 21  1  0  0  0
  8  4  1  0  0  0
  8  9  1  0  0  0
  8 10  1  0  0  0
 11 13  1  0  0  0
 13 14  2  0  0  0
 13 18  1  0  0  0
 14 15  1  0  0  0
 15 16  2  0  0  0
 16 17  1  0  0  0
 17 18  2  0  0  0
 23 24  1  0  0  0
 23 25  1  0  0  0
 25 28  1  0  0  0
 32 33  1  0  0  0
 32 37  1  0  0  0
 33 34  1  0  0  0
 34 35  1  0  0  0
 35 36  1  0  0  0
M  END
> <minimizedAffinity>
-10.20307

> <CNNscore>
0.2233987451

> <CNNaffinity>
7.6056394577

> <CNN_VS>
1.6990903616

> <CNNaffinity_variance>
2.4914915562

$$$$
/media/chris/experiments/cd1a-new-docking/inputs/ligands/7ryo_ligand.pdb


 65 67  0  0  0  0  0  0  0  0999 V2000
  -36.7040   58.8860   65.0742 C   0  0  0  0  0  0  0  0  0  0  0  0
  -37.8809   58.5910   64.2740 N   0  0  0  0  0  0  0  0  0  0  0  0
  -39.3051   58.9242   65.9811 O   0  0  0  0  0  0  0  0  0  0  0  0
  -39.1026   58.6375   64.8105 C   0  0  0  0  0  0  0  0  0  0  0  0
  -37.7758   58.3540   63.3242 H   0  0  0  0  0  0  0  0  0  0  0  0
  -41.3365   57.6053   64.6820 N   0  0  0  0  0  0  0  0  0  0  0  0
  -42.4066   59.2883   63.6308 O   0  0  0  0  0  0  0  0  0  0  0  0
  -40.2922   58.2888   63.9010 C   0  0  0  0  0  0  0  0  0  0  0  0
  -39.8101   57.3570   62.7932 C   0  0  0  0  0  0  0  0  0  0  0  0
  -41.0069   59.5238   63.3330 C   0  0  0  0  0  0  0  0  0  0  0  0
  -42.4258   58.2196   64.4692 C   0  0  0  0  0  0  0  0  0  0  0  0
  -42.7754   57.5082   67.2360 O   0  0  0  0  0  0  0  0  0  0  0  0
  -43.7322   57.8852   65.0411 C   0  0  0  0  0  0  0  0  0  0  0  0
  -44.8913   58.0421   64.2800 C   0  0  0  0  0  0  0  0  0  0  0  0
  -46.1383   57.9659   64.8757 C   0  0  0  0  0  0  0  0  0  0  0  0
  -46.2520   57.7337   66.2291 C   0  0  0  0  0  0  0  0  0  0  0  0
  -45.1190   57.5791   67.0069 C   0  0  0  0  0  0  0  0  0  0  0  0
  -43.8566   57.6545   66.4266 C   0  0  0  0  0  0  0  0  0  0  0  0
  -41.9114   57.5537   66.8764 H   0  0  0  0  0  0  0  0  0  0  0  0
  -36.7470   61.0994   64.1047 O   0  0  0  0  0  0  0  0  0  0  0  0
  -36.2324   60.3155   64.8538 C   0  0  0  0  0  0  0  0  0  0  0  0
  -35.1442   60.5736   65.5999 O   0  0  0  0  0  0  0  0  0  0  0  0
  -35.0909   61.8448   66.3286 C   0  0  0  0  0  0  0  0  0  0  0  0
  -36.4945   62.3869   66.4265 C   0  0  0  0  0  0  0  0  0  0  0  0
  -34.1809   62.7435   65.5140 C   0  0  0  0  0  0  0  0  0  0  0  0
  -33.1578   64.9335   65.5299 N   0  0  0  0  0  0  0  0  0  0  0  0
  -33.9888   64.1265   67.4587 O   0  0  0  0  0  0  0  0  0  0  0  0
  -33.7660   63.9930   66.2586 C   0  0  0  0  0  0  0  0  0  0  0  0
  -32.8656   65.7645   65.9695 H   0  0  0  0  0  0  0  0  0  0  0  0
  -31.3228   63.5136   62.7532 N   0  0  0  0  0  0  0  0  0  0  0  0
  -30.7421   64.0808   64.8441 O   0  0  0  0  0  0  0  0  0  0  0  0
  -32.9157   64.7648   64.1077 C   0  0  0  0  0  0  0  0  0  0  0  0
  -32.9004   66.1298   63.4105 C   0  0  0  0  0  0  0  0  0  0  0  0
  -33.1071   66.0477   61.9019 C   0  0  0  0  0  0  0  0  0  0  0  0
  -32.0489   65.2744   61.1405 C   0  0  0  0  0  0  0  0  0  0  0  0
  -31.9878   63.8015   61.4869 C   0  0  0  0  0  0  0  0  0  0  0  0
  -31.5645   64.0895   63.9329 C   0  0  0  0  0  0  0  0  0  0  0  0
  -30.6225   62.8219   62.7358 H   0  0  0  0  0  0  0  0  0  0  0  0
  -35.5778   57.8899   64.7938 C   0  0  0  0  0  0  0  0  0  0  0  0
  -35.6882   57.2643   63.4076 C   0  0  0  0  0  0  0  0  0  0  0  0
  -35.2055   58.1807   62.2986 C   0  0  0  0  0  0  0  0  0  0  0  0
  -35.9637   58.0516   60.9957 C   0  0  0  0  0  0  0  0  0  0  0  0
  -37.2332   58.7583   61.0583 N   0  0  0  0  0  0  0  0  0  0  0  0
  -37.1146   59.5105   58.9336 O   0  0  0  0  0  0  0  0  0  0  0  0
  -37.7197   59.4408   60.0160 C   0  0  0  0  0  0  0  0  0  0  0  0
  -37.7514   58.7335   61.8949 H   0  0  0  0  0  0  0  0  0  0  0  0
  -40.1855   59.7331   59.9283 C   0  0  0  0  0  0  0  0  0  0  0  0
  -38.9837   60.1595   60.2920 C   0  0  0  0  0  0  0  0  0  0  0  0
  -40.5292   58.4700   59.2022 C   0  0  0  0  0  0  0  0  0  0  0  0
  -41.9452   58.5094   58.6408 C   0  0  0  0  0  0  0  0  0  0  0  0
  -42.0179   58.9534   57.1902 C   0  0  0  0  0  0  0  0  0  0  0  0
  -43.4366   59.1727   56.6915 C   0  0  0  0  0  0  0  0  0  0  0  0
  -44.3968   58.0451   57.0201 C   0  0  0  0  0  0  0  0  0  0  0  0
  -45.7839   58.5265   57.4125 C   0  0  0  0  0  0  0  0  0  0  0  0
  -46.6293   57.4589   58.0790 C   0  0  0  0  0  0  0  0  0  0  0  0
  -48.0059   57.9526   58.4766 C   0  0  0  0  0  0  0  0  0  0  0  0
  -48.3147   57.8213   59.9557 C   0  0  0  0  0  0  0  0  0  0  0  0
  -49.5003   56.9168   60.2283 C   0  0  0  0  0  0  0  0  0  0  0  0
  -50.6513   57.6296   60.9191 C   0  0  0  0  0  0  0  0  0  0  0  0
  -50.2210   58.7624   61.8347 C   0  0  0  0  0  0  0  0  0  0  0  0
  -50.8643   58.7301   63.2125 C   0  0  0  0  0  0  0  0  0  0  0  0
  -49.9729   58.1397   64.2964 C   0  0  0  0  0  0  0  0  0  0  0  0
  -50.2683   58.6835   65.6849 C   0  0  0  0  0  0  0  0  0  0  0  0
  -48.7767   60.5522   64.8732 C   0  0  0  0  0  0  0  0  0  0  0  0
  -49.4925   59.9370   66.0469 C   0  0  0  0  0  0  0  0  0  0  0  0
 43 45  1  0  0  0
 43 42  1  0  0  0
 43 46  1  0  0  0
 64 65  1  0  0  0
 44 45  2  0  0  0
 65 63  1  0  0  0
  2  1  1  0  0  0
  2  4  1  0  0  0
  2  5  1  0  0  0
  3  4  2  0  0  0
 63 62  1  0  0  0
  6  8  1  0  0  0
  6 11  2  0  0  0
  7 10  1  0  0  0
  7 11  1  0  0  0
 62 61  1  0  0  0
 26 28  1  0  0  0
 26 32  1  0  0  0
 26 29  1  0  0  0
 12 18  1  0  0  0
 12 19  1  0  0  0
 61 60  1  0  0  0
 30 36  1  0  0  0
 30 37  1  0  0  0
 30 38  1  0  0  0
 20 21  2  0  0  0
 60 59  1  0  0  0
 22 21  1  0  0  0
 22 23  1  0  0  0
 59 58  1  0  0  0
 27 28  2  0  0  0
 58 57  1  0  0  0
 31 37  2  0  0  0
 57 56  1  0  0  0
 56 55  1  0  0  0
 55 54  1  0  0  0
 54 53  1  0  0  0
 53 52  1  0  0  0
 52 51  1  0  0  0
 51 50  1  0  0  0
 50 49  1  0  0  0
 49 47  1  0  0  0
 47 48  2  0  0  0
 48 45  1  0  0  0
 42 41  1  0  0  0
 41 40  1  0  0  0
 40 39  1  0  0  0
 39  1  1  0  0  0
  1 21  1  0  0  0
  8  4  1  0  0  0
  8  9  1  0  0  0
  8 10  1  0  0  0
 11 13  1  0  0  0
 13 14  2  0  0  0
 13 18  1  0  0  0
 14 15  1  0  0  0
 15 16  2  0  0  0
 16 17  1  0  0  0
 17 18  2  0  0  0
 23 24  1  0  0  0
 23 25  1  0  0  0
 25 28  1  0  0  0
 32 33  1  0  0  0
 32 37  1  0  0  0
 33 34  1  0  0  0
 34 35  1  0  0  0
 35 36  1  0  0  0
M  END
> <minimizedAffinity>
-8.67129

> <CNNscore>
0.2184225619

> <CNNaffinity>
7.4178848267

> <CNN_VS>
1.6202334166

> <CNNaffinity_variance>
1.1026071310

$$$$
/media/chris/experiments/cd1a-new-docking/inputs/ligands/7ryo_ligand.pdb


 65 67  0  0  0  0  0  0  0  0999 V2000
  -38.7024   61.0902   64.6580 C   0  0  0  0  0  0  0  0  0  0  0  0
  -38.0211   60.5825   63.4789 N   0  0  0  0  0  0  0  0  0  0  0  0
  -38.1416   58.4409   64.1517 O   0  0  0  0  0  0  0  0  0  0  0  0
  -37.7968   59.2750   63.3279 C   0  0  0  0  0  0  0  0  0  0  0  0
  -37.7213   61.2107   62.7827 H   0  0  0  0  0  0  0  0  0  0  0  0
  -35.6210   59.1638   62.1762 N   0  0  0  0  0  0  0  0  0  0  0  0
  -35.6545   56.9742   61.6399 O   0  0  0  0  0  0  0  0  0  0  0  0
  -37.0489   58.8235   62.0626 C   0  0  0  0  0  0  0  0  0  0  0  0
  -37.6380   59.5480   60.8560 C   0  0  0  0  0  0  0  0  0  0  0  0
  -37.0494   57.3003   61.8660 C   0  0  0  0  0  0  0  0  0  0  0  0
  -34.9635   58.1062   61.9345 C   0  0  0  0  0  0  0  0  0  0  0  0
  -33.2059   60.3339   62.4159 O   0  0  0  0  0  0  0  0  0  0  0  0
  -33.5044   57.9773   61.9335 C   0  0  0  0  0  0  0  0  0  0  0  0
  -32.9123   56.7173   61.8375 C   0  0  0  0  0  0  0  0  0  0  0  0
  -31.5588   56.5572   62.0788 C   0  0  0  0  0  0  0  0  0  0  0  0
  -30.7773   57.6405   62.4168 C   0  0  0  0  0  0  0  0  0  0  0  0
  -31.3403   58.8993   62.5230 C   0  0  0  0  0  0  0  0  0  0  0  0
  -32.6995   59.0799   62.2864 C   0  0  0  0  0  0  0  0  0  0  0  0
  -34.1172   60.4891   62.2635 H   0  0  0  0  0  0  0  0  0  0  0  0
  -37.6617   60.0703   66.5862 O   0  0  0  0  0  0  0  0  0  0  0  0
  -37.8012   61.0324   65.8823 C   0  0  0  0  0  0  0  0  0  0  0  0
  -37.1973   62.2172   66.0799 O   0  0  0  0  0  0  0  0  0  0  0  0
  -35.9691   62.2425   66.8803 C   0  0  0  0  0  0  0  0  0  0  0  0
  -36.2422   63.0394   68.1309 C   0  0  0  0  0  0  0  0  0  0  0  0
  -34.9214   62.8938   65.9985 C   0  0  0  0  0  0  0  0  0  0  0  0
  -33.5466   62.4799   64.0540 N   0  0  0  0  0  0  0  0  0  0  0  0
  -34.4808   60.7197   65.0984 O   0  0  0  0  0  0  0  0  0  0  0  0
  -34.3013   61.9311   65.0104 C   0  0  0  0  0  0  0  0  0  0  0  0
  -33.1232   61.8952   63.3845 H   0  0  0  0  0  0  0  0  0  0  0  0
  -33.3943   65.5834   62.1997 N   0  0  0  0  0  0  0  0  0  0  0  0
  -32.9763   63.4489   61.6521 O   0  0  0  0  0  0  0  0  0  0  0  0
  -33.3329   63.9144   63.9739 C   0  0  0  0  0  0  0  0  0  0  0  0
  -32.0407   64.2960   64.7049 C   0  0  0  0  0  0  0  0  0  0  0  0
  -31.9585   65.7745   65.0689 C   0  0  0  0  0  0  0  0  0  0  0  0
  -31.9730   66.7357   63.8969 C   0  0  0  0  0  0  0  0  0  0  0  0
  -33.2610   66.7232   63.1006 C   0  0  0  0  0  0  0  0  0  0  0  0
  -33.2187   64.2962   62.5065 C   0  0  0  0  0  0  0  0  0  0  0  0
  -33.6397   65.7847   61.2678 H   0  0  0  0  0  0  0  0  0  0  0  0
  -40.0123   60.3414   64.9082 C   0  0  0  0  0  0  0  0  0  0  0  0
  -41.0234   60.5500   63.7859 C   0  0  0  0  0  0  0  0  0  0  0  0
  -42.1646   59.5503   63.8169 C   0  0  0  0  0  0  0  0  0  0  0  0
  -41.8190   58.2142   64.4371 C   0  0  0  0  0  0  0  0  0  0  0  0
  -42.6606   57.9411   65.5912 N   0  0  0  0  0  0  0  0  0  0  0  0
  -44.5490   57.7151   64.3759 O   0  0  0  0  0  0  0  0  0  0  0  0
  -43.9729   57.7098   65.4762 C   0  0  0  0  0  0  0  0  0  0  0  0
  -42.2511   57.9258   66.4863 H   0  0  0  0  0  0  0  0  0  0  0  0
  -45.8995   57.9765   67.0224 C   0  0  0  0  0  0  0  0  0  0  0  0
  -44.6774   57.5303   66.7653 C   0  0  0  0  0  0  0  0  0  0  0  0
  -46.8178   58.7168   66.1008 C   0  0  0  0  0  0  0  0  0  0  0  0
  -48.1964   58.9164   66.7187 C   0  0  0  0  0  0  0  0  0  0  0  0
  -49.2998   58.1409   66.0201 C   0  0  0  0  0  0  0  0  0  0  0  0
  -50.6522   58.8324   66.0662 C   0  0  0  0  0  0  0  0  0  0  0  0
  -50.6386   60.2674   65.5742 C   0  0  0  0  0  0  0  0  0  0  0  0
  -50.2337   60.4033   64.1156 C   0  0  0  0  0  0  0  0  0  0  0  0
  -51.2512   59.8299   63.1489 C   0  0  0  0  0  0  0  0  0  0  0  0
  -51.0732   58.3439   62.9102 C   0  0  0  0  0  0  0  0  0  0  0  0
  -50.0939   58.0007   61.8041 C   0  0  0  0  0  0  0  0  0  0  0  0
  -50.7317   58.0245   60.4291 C   0  0  0  0  0  0  0  0  0  0  0  0
  -49.7745   57.6263   59.3176 C   0  0  0  0  0  0  0  0  0  0  0  0
  -48.5162   56.9271   59.8019 C   0  0  0  0  0  0  0  0  0  0  0  0
  -47.2401   57.7303   59.6037 C   0  0  0  0  0  0  0  0  0  0  0  0
  -46.3244   57.1771   58.5203 C   0  0  0  0  0  0  0  0  0  0  0  0
  -46.7274   55.7935   58.0363 C   0  0  0  0  0  0  0  0  0  0  0  0
  -47.6908   57.1518   56.1382 C   0  0  0  0  0  0  0  0  0  0  0  0
  -47.5612   55.7897   56.7679 C   0  0  0  0  0  0  0  0  0  0  0  0
 43 45  1  0  0  0
 43 42  1  0  0  0
 43 46  1  0  0  0
 64 65  1  0  0  0
 44 45  2  0  0  0
 65 63  1  0  0  0
  2  1  1  0  0  0
  2  4  1  0  0  0
  2  5  1  0  0  0
  3  4  2  0  0  0
 63 62  1  0  0  0
  6  8  1  0  0  0
  6 11  2  0  0  0
  7 10  1  0  0  0
  7 11  1  0  0  0
 62 61  1  0  0  0
 26 28  1  0  0  0
 26 32  1  0  0  0
 26 29  1  0  0  0
 12 18  1  0  0  0
 12 19  1  0  0  0
 61 60  1  0  0  0
 30 36  1  0  0  0
 30 37  1  0  0  0
 30 38  1  0  0  0
 20 21  2  0  0  0
 60 59  1  0  0  0
 22 21  1  0  0  0
 22 23  1  0  0  0
 59 58  1  0  0  0
 27 28  2  0  0  0
 58 57  1  0  0  0
 31 37  2  0  0  0
 57 56  1  0  0  0
 56 55  1  0  0  0
 55 54  1  0  0  0
 54 53  1  0  0  0
 53 52  1  0  0  0
 52 51  1  0  0  0
 51 50  1  0  0  0
 50 49  1  0  0  0
 49 47  1  0  0  0
 47 48  2  0  0  0
 48 45  1  0  0  0
 42 41  1  0  0  0
 41 40  1  0  0  0
 40 39  1  0  0  0
 39  1  1  0  0  0
  1 21  1  0  0  0
  8  4  1  0  0  0
  8  9  1  0  0  0
  8 10  1  0  0  0
 11 13  1  0  0  0
 13 14  2  0  0  0
 13 18  1  0  0  0
 14 15  1  0  0  0
 15 16  2  0  0  0
 16 17  1  0  0  0
 17 18  2  0  0  0
 23 24  1  0  0  0
 23 25  1  0  0  0
 25 28  1  0  0  0
 32 33  1  0  0  0
 32 37  1  0  0  0
 33 34  1  0  0  0
 34 35  1  0  0  0
 35 36  1  0  0  0
M  END
> <minimizedAffinity>
-9.84943

> <CNNscore>
0.1879075170

> <CNNaffinity>
7.0548996925

> <CNN_VS>
1.3256686926

> <CNNaffinity_variance>
0.5536242723

$$$$
/media/chris/experiments/cd1a-new-docking/inputs/ligands/7ryo_ligand.pdb


 65 67  0  0  0  0  0  0  0  0999 V2000
  -38.7269   59.1264   64.9665 C   0  0  0  0  0  0  0  0  0  0  0  0
  -39.8764   58.2370   64.9657 N   0  0  0  0  0  0  0  0  0  0  0  0
  -39.4968   57.5103   62.8726 O   0  0  0  0  0  0  0  0  0  0  0  0
  -40.1648   57.4924   63.8958 C   0  0  0  0  0  0  0  0  0  0  0  0
  -40.4495   58.1830   65.7644 H   0  0  0  0  0  0  0  0  0  0  0  0
  -42.1634   56.8824   65.2020 N   0  0  0  0  0  0  0  0  0  0  0  0
  -43.6861   57.0337   63.5462 O   0  0  0  0  0  0  0  0  0  0  0  0
  -41.4118   56.5958   63.9688 C   0  0  0  0  0  0  0  0  0  0  0  0
  -40.9697   55.1356   63.9842 C   0  0  0  0  0  0  0  0  0  0  0  0
  -42.4255   56.8702   62.8481 C   0  0  0  0  0  0  0  0  0  0  0  0
  -43.3658   57.1051   64.8645 C   0  0  0  0  0  0  0  0  0  0  0  0
  -43.0249   58.7435   67.2060 O   0  0  0  0  0  0  0  0  0  0  0  0
  -44.4706   57.4320   65.7691 C   0  0  0  0  0  0  0  0  0  0  0  0
  -45.7770   57.0687   65.4395 C   0  0  0  0  0  0  0  0  0  0  0  0
  -46.8486   57.5775   66.1527 C   0  0  0  0  0  0  0  0  0  0  0  0
  -46.6395   58.4498   67.1987 C   0  0  0  0  0  0  0  0  0  0  0  0
  -45.3549   58.8293   67.5429 C   0  0  0  0  0  0  0  0  0  0  0  0
  -44.2650   58.3302   66.8364 C   0  0  0  0  0  0  0  0  0  0  0  0
  -42.2702   58.4261   66.7505 H   0  0  0  0  0  0  0  0  0  0  0  0
  -37.4795   57.3242   65.9850 O   0  0  0  0  0  0  0  0  0  0  0  0
  -37.4918   58.4294   65.5172 C   0  0  0  0  0  0  0  0  0  0  0  0
  -36.4172   59.2323   65.4267 O   0  0  0  0  0  0  0  0  0  0  0  0
  -35.3601   58.8687   64.4781 C   0  0  0  0  0  0  0  0  0  0  0  0
  -34.2573   58.1851   65.2464 C   0  0  0  0  0  0  0  0  0  0  0  0
  -34.9053   60.1741   63.8547 C   0  0  0  0  0  0  0  0  0  0  0  0
  -36.1270   62.2512   64.0440 N   0  0  0  0  0  0  0  0  0  0  0  0
  -36.8676   60.7029   62.5893 O   0  0  0  0  0  0  0  0  0  0  0  0
  -36.0573   61.0618   63.4392 C   0  0  0  0  0  0  0  0  0  0  0  0
  -36.8609   62.8644   63.8101 H   0  0  0  0  0  0  0  0  0  0  0  0
  -35.0540   62.6943   67.4712 N   0  0  0  0  0  0  0  0  0  0  0  0
  -37.0633   62.7446   66.4757 O   0  0  0  0  0  0  0  0  0  0  0  0
  -35.1508   62.6654   65.0367 C   0  0  0  0  0  0  0  0  0  0  0  0
  -34.6108   64.0587   64.6950 C   0  0  0  0  0  0  0  0  0  0  0  0
  -33.2917   64.3889   65.3849 C   0  0  0  0  0  0  0  0  0  0  0  0
  -33.3369   64.4129   66.8998 C   0  0  0  0  0  0  0  0  0  0  0  0
  -33.6462   63.0722   67.5322 C   0  0  0  0  0  0  0  0  0  0  0  0
  -35.8393   62.7052   66.3918 C   0  0  0  0  0  0  0  0  0  0  0  0
  -35.4683   62.4003   68.3145 H   0  0  0  0  0  0  0  0  0  0  0  0
  -39.0197   60.4119   65.7416 C   0  0  0  0  0  0  0  0  0  0  0  0
  -40.5129   60.6291   65.9622 C   0  0  0  0  0  0  0  0  0  0  0  0
  -41.1923   61.3308   64.8010 C   0  0  0  0  0  0  0  0  0  0  0  0
  -42.1094   60.4517   63.9792 C   0  0  0  0  0  0  0  0  0  0  0  0
  -41.9932   60.7568   62.5620 N   0  0  0  0  0  0  0  0  0  0  0  0
  -39.7536   60.4817   62.5113 O   0  0  0  0  0  0  0  0  0  0  0  0
  -40.8163   60.7496   61.9268 C   0  0  0  0  0  0  0  0  0  0  0  0
  -42.8073   60.9756   62.0537 H   0  0  0  0  0  0  0  0  0  0  0  0
  -40.8514   60.3248   59.4790 C   0  0  0  0  0  0  0  0  0  0  0  0
  -40.8851   61.1617   60.5070 C   0  0  0  0  0  0  0  0  0  0  0  0
  -40.7593   58.8311   59.5155 C   0  0  0  0  0  0  0  0  0  0  0  0
  -41.6580   58.1847   58.4684 C   0  0  0  0  0  0  0  0  0  0  0  0
  -41.9196   59.0637   57.2576 C   0  0  0  0  0  0  0  0  0  0  0  0
  -43.3060   58.8822   56.6624 C   0  0  0  0  0  0  0  0  0  0  0  0
  -44.3435   58.3621   57.6395 C   0  0  0  0  0  0  0  0  0  0  0  0
  -45.7030   58.1177   57.0056 C   0  0  0  0  0  0  0  0  0  0  0  0
  -46.8627   58.3324   57.9583 C   0  0  0  0  0  0  0  0  0  0  0  0
  -48.0174   57.3819   57.7132 C   0  0  0  0  0  0  0  0  0  0  0  0
  -49.1144   57.4474   58.7585 C   0  0  0  0  0  0  0  0  0  0  0  0
  -48.6135   57.9360   60.1032 C   0  0  0  0  0  0  0  0  0  0  0  0
  -49.5623   58.9137   60.7769 C   0  0  0  0  0  0  0  0  0  0  0  0
  -50.5555   58.2634   61.7242 C   0  0  0  0  0  0  0  0  0  0  0  0
  -50.9976   59.1554   62.8739 C   0  0  0  0  0  0  0  0  0  0  0  0
  -50.4631   58.7223   64.2322 C   0  0  0  0  0  0  0  0  0  0  0  0
  -50.4762   59.8335   65.2695 C   0  0  0  0  0  0  0  0  0  0  0  0
  -48.2076   60.3332   64.2799 C   0  0  0  0  0  0  0  0  0  0  0  0
  -49.3437   60.8347   65.1320 C   0  0  0  0  0  0  0  0  0  0  0  0
 43 45  1  0  0  0
 43 42  1  0  0  0
 43 46  1  0  0  0
 64 65  1  0  0  0
 44 45  2  0  0  0
 65 63  1  0  0  0
  2  1  1  0  0  0
  2  4  1  0  0  0
  2  5  1  0  0  0
  3  4  2  0  0  0
 63 62  1  0  0  0
  6  8  1  0  0  0
  6 11  2  0  0  0
  7 10  1  0  0  0
  7 11  1  0  0  0
 62 61  1  0  0  0
 26 28  1  0  0  0
 26 32  1  0  0  0
 26 29  1  0  0  0
 12 18  1  0  0  0
 12 19  1  0  0  0
 61 60  1  0  0  0
 30 36  1  0  0  0
 30 37  1  0  0  0
 30 38  1  0  0  0
 20 21  2  0  0  0
 60 59  1  0  0  0
 22 21  1  0  0  0
 22 23  1  0  0  0
 59 58  1  0  0  0
 27 28  2  0  0  0
 58 57  1  0  0  0
 31 37  2  0  0  0
 57 56  1  0  0  0
 56 55  1  0  0  0
 55 54  1  0  0  0
 54 53  1  0  0  0
 53 52  1  0  0  0
 52 51  1  0  0  0
 51 50  1  0  0  0
 50 49  1  0  0  0
 49 47  1  0  0  0
 47 48  2  0  0  0
 48 45  1  0  0  0
 42 41  1  0  0  0
 41 40  1  0  0  0
 40 39  1  0  0  0
 39  1  1  0  0  0
  1 21  1  0  0  0
  8  4  1  0  0  0
  8  9  1  0  0  0
  8 10  1  0  0  0
 11 13  1  0  0  0
 13 14  2  0  0  0
 13 18  1  0  0  0
 14 15  1  0  0  0
 15 16  2  0  0  0
 16 17  1  0  0  0
 17 18  2  0  0  0
 23 24  1  0  0  0
 23 25  1  0  0  0
 25 28  1  0  0  0
 32 33  1  0  0  0
 32 37  1  0  0  0
 33 34  1  0  0  0
 34 35  1  0  0  0
 35 36  1  0  0  0
M  END
> <minimizedAffinity>
-8.40460

> <CNNscore>
0.1795704365

> <CNNaffinity>
7.8584594727

> <CNN_VS>
1.4111469984

> <CNNaffinity_variance>
1.3553779125

$$$$
/media/chris/experiments/cd1a-new-docking/inputs/ligands/7ryo_ligand.pdb


 65 67  0  0  0  0  0  0  0  0999 V2000
  -34.7019   58.8353   65.1167 C   0  0  0  0  0  0  0  0  0  0  0  0
  -34.0077   59.5523   64.0601 N   0  0  0  0  0  0  0  0  0  0  0  0
  -32.1659   58.2710   64.2003 O   0  0  0  0  0  0  0  0  0  0  0  0
  -32.7752   59.1984   63.6883 C   0  0  0  0  0  0  0  0  0  0  0  0
  -34.4521   60.3084   63.6129 H   0  0  0  0  0  0  0  0  0  0  0  0
  -32.9144   61.2150   62.2789 N   0  0  0  0  0  0  0  0  0  0  0  0
  -30.8359   62.0071   62.6475 O   0  0  0  0  0  0  0  0  0  0  0  0
  -32.1028   60.0238   62.5789 C   0  0  0  0  0  0  0  0  0  0  0  0
  -31.9954   59.1661   61.3217 C   0  0  0  0  0  0  0  0  0  0  0  0
  -30.7404   60.6011   62.9903 C   0  0  0  0  0  0  0  0  0  0  0  0
  -32.1430   62.2200   62.3447 C   0  0  0  0  0  0  0  0  0  0  0  0
  -34.7895   63.2189   62.8758 O   0  0  0  0  0  0  0  0  0  0  0  0
  -32.5221   63.6165   62.1167 C   0  0  0  0  0  0  0  0  0  0  0  0
  -31.5537   64.5564   61.7618 C   0  0  0  0  0  0  0  0  0  0  0  0
  -31.8472   65.9090   61.7819 C   0  0  0  0  0  0  0  0  0  0  0  0
  -33.1005   66.3455   62.1525 C   0  0  0  0  0  0  0  0  0  0  0  0
  -34.0769   65.4348   62.5130 C   0  0  0  0  0  0  0  0  0  0  0  0
  -33.8002   64.0713   62.5012 C   0  0  0  0  0  0  0  0  0  0  0  0
  -34.6354   62.2947   62.8787 H   0  0  0  0  0  0  0  0  0  0  0  0
  -36.7783   57.5996   65.0676 O   0  0  0  0  0  0  0  0  0  0  0  0
  -35.7339   57.8750   64.5445 C   0  0  0  0  0  0  0  0  0  0  0  0
  -35.3042   57.3601   63.3794 O   0  0  0  0  0  0  0  0  0  0  0  0
  -36.1768   57.4787   62.2071 C   0  0  0  0  0  0  0  0  0  0  0  0
  -35.3767   58.0983   61.0893 C   0  0  0  0  0  0  0  0  0  0  0  0
  -37.3316   58.3580   62.6461 C   0  0  0  0  0  0  0  0  0  0  0  0
  -38.2588   59.9744   61.1065 N   0  0  0  0  0  0  0  0  0  0  0  0
  -36.4554   60.5614   62.3169 O   0  0  0  0  0  0  0  0  0  0  0  0
  -37.3040   59.7293   62.0085 C   0  0  0  0  0  0  0  0  0  0  0  0
  -38.2817   60.8519   60.6608 H   0  0  0  0  0  0  0  0  0  0  0  0
  -40.9332   58.7363   59.0069 N   0  0  0  0  0  0  0  0  0  0  0  0
  -40.2372   60.7995   59.5450 O   0  0  0  0  0  0  0  0  0  0  0  0
  -39.2639   58.9830   60.7648 C   0  0  0  0  0  0  0  0  0  0  0  0
  -40.0755   58.6053   62.0090 C   0  0  0  0  0  0  0  0  0  0  0  0
  -40.8245   57.2841   61.8721 C   0  0  0  0  0  0  0  0  0  0  0  0
  -41.8644   57.2359   60.7704 C   0  0  0  0  0  0  0  0  0  0  0  0
  -41.2950   57.3714   59.3738 C   0  0  0  0  0  0  0  0  0  0  0  0
  -40.1883   59.5853   59.7184 C   0  0  0  0  0  0  0  0  0  0  0  0
  -41.2740   59.0657   58.1441 H   0  0  0  0  0  0  0  0  0  0  0  0
  -35.3469   59.8007   66.1121 C   0  0  0  0  0  0  0  0  0  0  0  0
  -35.7295   61.1288   65.4677 C   0  0  0  0  0  0  0  0  0  0  0  0
  -37.1976   61.4735   65.6367 C   0  0  0  0  0  0  0  0  0  0  0  0
  -38.0300   60.3933   66.2922 C   0  0  0  0  0  0  0  0  0  0  0  0
  -39.1175   59.9728   65.4231 N   0  0  0  0  0  0  0  0  0  0  0  0
  -40.6246   61.3786   66.3430 O   0  0  0  0  0  0  0  0  0  0  0  0
  -40.3437   60.4993   65.5121 C   0  0  0  0  0  0  0  0  0  0  0  0
  -38.9456   59.2780   64.7472 H   0  0  0  0  0  0  0  0  0  0  0  0
  -42.1723   58.9177   64.9389 C   0  0  0  0  0  0  0  0  0  0  0  0
  -41.3380   59.8912   64.5999 C   0  0  0  0  0  0  0  0  0  0  0  0
  -42.3089   58.2500   66.2716 C   0  0  0  0  0  0  0  0  0  0  0  0
  -43.6684   57.5801   66.4302 C   0  0  0  0  0  0  0  0  0  0  0  0
  -44.4822   57.5328   65.1486 C   0  0  0  0  0  0  0  0  0  0  0  0
  -45.7895   58.3033   65.2296 C   0  0  0  0  0  0  0  0  0  0  0  0
  -46.6748   57.9130   66.3981 C   0  0  0  0  0  0  0  0  0  0  0  0
  -48.1469   57.8107   66.0344 C   0  0  0  0  0  0  0  0  0  0  0  0
  -48.9399   59.0606   66.3626 C   0  0  0  0  0  0  0  0  0  0  0  0
  -50.4080   58.9444   66.0046 C   0  0  0  0  0  0  0  0  0  0  0  0
  -50.9845   60.1701   65.3222 C   0  0  0  0  0  0  0  0  0  0  0  0
  -50.9812   60.0548   63.8107 C   0  0  0  0  0  0  0  0  0  0  0  0
  -50.5923   58.6712   63.3162 C   0  0  0  0  0  0  0  0  0  0  0  0
  -49.8562   58.6702   61.9877 C   0  0  0  0  0  0  0  0  0  0  0  0
  -50.3934   57.6686   60.9771 C   0  0  0  0  0  0  0  0  0  0  0  0
  -49.8140   57.8316   59.5786 C   0  0  0  0  0  0  0  0  0  0  0  0
  -48.3070   57.6398   59.5223 C   0  0  0  0  0  0  0  0  0  0  0  0
  -46.6040   58.2673   57.7667 C   0  0  0  0  0  0  0  0  0  0  0  0
  -47.7592   57.3725   58.1321 C   0  0  0  0  0  0  0  0  0  0  0  0
 43 45  1  0  0  0
 43 42  1  0  0  0
 43 46  1  0  0  0
 64 65  1  0  0  0
 44 45  2  0  0  0
 65 63  1  0  0  0
  2  1  1  0  0  0
  2  4  1  0  0  0
  2  5  1  0  0  0
  3  4  2  0  0  0
 63 62  1  0  0  0
  6  8  1  0  0  0
  6 11  2  0  0  0
  7 10  1  0  0  0
  7 11  1  0  0  0
 62 61  1  0  0  0
 26 28  1  0  0  0
 26 32  1  0  0  0
 26 29  1  0  0  0
 12 18  1  0  0  0
 12 19  1  0  0  0
 61 60  1  0  0  0
 30 36  1  0  0  0
 30 37  1  0  0  0
 30 38  1  0  0  0
 20 21  2  0  0  0
 60 59  1  0  0  0
 22 21  1  0  0  0
 22 23  1  0  0  0
 59 58  1  0  0  0
 27 28  2  0  0  0
 58 57  1  0  0  0
 31 37  2  0  0  0
 57 56  1  0  0  0
 56 55  1  0  0  0
 55 54  1  0  0  0
 54 53  1  0  0  0
 53 52  1  0  0  0
 52 51  1  0  0  0
 51 50  1  0  0  0
 50 49  1  0  0  0
 49 47  1  0  0  0
 47 48  2  0  0  0
 48 45  1  0  0  0
 42 41  1  0  0  0
 41 40  1  0  0  0
 40 39  1  0  0  0
 39  1  1  0  0  0
  1 21  1  0  0  0
  8  4  1  0  0  0
  8  9  1  0  0  0
  8 10  1  0  0  0
 11 13  1  0  0  0
 13 14  2  0  0  0
 13 18  1  0  0  0
 14 15  1  0  0  0
 15 16  2  0  0  0
 16 17  1  0  0  0
 17 18  2  0  0  0
 23 24  1  0  0  0
 23 25  1  0  0  0
 25 28  1  0  0  0
 32 33  1  0  0  0
 32 37  1  0  0  0
 33 34  1  0  0  0
 34 35  1  0  0  0
 35 36  1  0  0  0
M  END
> <minimizedAffinity>
-9.40304

> <CNNscore>
0.1667660922

> <CNNaffinity>
7.5548706055

> <CNN_VS>
1.2598962784

> <CNNaffinity_variance>
1.3499605656

$$$$
