/media/chris/experiments/cd1a-new-docking/inputs/ligands/7ryo_ligand.pdb


 65 67  0  0  0  0  0  0  0  0999 V2000
  -38.6648   60.2646   64.7915 C   0  0  0  0  0  0  0  0  0  0  0  0
  -37.8934   59.4553   63.8628 N   0  0  0  0  0  0  0  0  0  0  0  0
  -38.4736   60.6905   62.0764 O   0  0  0  0  0  0  0  0  0  0  0  0
  -37.8662   59.7469   62.5602 C   0  0  0  0  0  0  0  0  0  0  0  0
  -37.3844   58.6823   64.1986 H   0  0  0  0  0  0  0  0  0  0  0  0
  -35.6138   59.1544   61.7554 N   0  0  0  0  0  0  0  0  0  0  0  0
  -35.7275   56.9286   62.0964 O   0  0  0  0  0  0  0  0  0  0  0  0
  -37.0447   58.8265   61.6426 C   0  0  0  0  0  0  0  0  0  0  0  0
  -37.4917   59.0413   60.1997 C   0  0  0  0  0  0  0  0  0  0  0  0
  -37.1154   57.3457   62.0442 C   0  0  0  0  0  0  0  0  0  0  0  0
  -34.9997   58.0718   62.0013 C   0  0  0  0  0  0  0  0  0  0  0  0
  -33.4755   59.7806   63.7449 O   0  0  0  0  0  0  0  0  0  0  0  0
  -33.5550   57.9221   62.1911 C   0  0  0  0  0  0  0  0  0  0  0  0
  -32.8837   56.8348   61.6301 C   0  0  0  0  0  0  0  0  0  0  0  0
  -31.5806   56.5480   61.9985 C   0  0  0  0  0  0  0  0  0  0  0  0
  -30.9285   57.3328   62.9246 C   0  0  0  0  0  0  0  0  0  0  0  0
  -31.5729   58.4134   63.4988 C   0  0  0  0  0  0  0  0  0  0  0  0
  -32.8834   58.7165   63.1429 C   0  0  0  0  0  0  0  0  0  0  0  0
  -34.3572   60.0111   63.5273 H   0  0  0  0  0  0  0  0  0  0  0  0
  -38.0414   60.3917   67.1229 O   0  0  0  0  0  0  0  0  0  0  0  0
  -37.8201   60.6922   65.9824 C   0  0  0  0  0  0  0  0  0  0  0  0
  -36.8012   61.4725   65.5820 O   0  0  0  0  0  0  0  0  0  0  0  0
  -35.9880   62.1294   66.6101 C   0  0  0  0  0  0  0  0  0  0  0  0
  -36.2349   63.6143   66.5235 C   0  0  0  0  0  0  0  0  0  0  0  0
  -34.5519   61.7636   66.2891 C   0  0  0  0  0  0  0  0  0  0  0  0
  -33.7785   62.9220   64.3137 N   0  0  0  0  0  0  0  0  0  0  0  0
  -33.2099   63.7456   66.3287 O   0  0  0  0  0  0  0  0  0  0  0  0
  -33.7831   62.8984   65.6496 C   0  0  0  0  0  0  0  0  0  0  0  0
  -34.2557   62.2156   63.8214 H   0  0  0  0  0  0  0  0  0  0  0  0
  -33.5135   66.3047   63.0564 N   0  0  0  0  0  0  0  0  0  0  0  0
  -35.2588   64.9734   63.5174 O   0  0  0  0  0  0  0  0  0  0  0  0
  -33.0896   63.9601   63.5671 C   0  0  0  0  0  0  0  0  0  0  0  0
  -32.6564   63.4248   62.1977 C   0  0  0  0  0  0  0  0  0  0  0  0
  -31.5607   64.2537   61.5362 C   0  0  0  0  0  0  0  0  0  0  0  0
  -31.9276   65.6921   61.2293 C   0  0  0  0  0  0  0  0  0  0  0  0
  -32.2045   66.5366   62.4555 C   0  0  0  0  0  0  0  0  0  0  0  0
  -34.0486   65.1246   63.3775 C   0  0  0  0  0  0  0  0  0  0  0  0
  -34.0594   67.1020   63.2449 H   0  0  0  0  0  0  0  0  0  0  0  0
  -39.9261   59.5320   65.2514 C   0  0  0  0  0  0  0  0  0  0  0  0
  -41.1799   60.3877   65.1060 C   0  0  0  0  0  0  0  0  0  0  0  0
  -41.2055   61.1961   63.8220 C   0  0  0  0  0  0  0  0  0  0  0  0
  -41.5468   60.4015   62.5805 C   0  0  0  0  0  0  0  0  0  0  0  0
  -41.3164   58.9809   62.7902 N   0  0  0  0  0  0  0  0  0  0  0  0
  -40.9048   58.5515   60.6130 O   0  0  0  0  0  0  0  0  0  0  0  0
  -41.0102   58.1537   61.7848 C   0  0  0  0  0  0  0  0  0  0  0  0
  -41.3882   58.6163   63.7019 H   0  0  0  0  0  0  0  0  0  0  0  0
  -41.6770   56.1261   63.0566 C   0  0  0  0  0  0  0  0  0  0  0  0
  -40.8900   56.7319   62.1779 C   0  0  0  0  0  0  0  0  0  0  0  0
  -42.8322   56.7102   63.8083 C   0  0  0  0  0  0  0  0  0  0  0  0
  -42.5817   56.7169   65.3113 C   0  0  0  0  0  0  0  0  0  0  0  0
  -43.5962   57.5281   66.0986 C   0  0  0  0  0  0  0  0  0  0  0  0
  -44.6751   58.1576   65.2332 C   0  0  0  0  0  0  0  0  0  0  0  0
  -46.0747   57.6364   65.4999 C   0  0  0  0  0  0  0  0  0  0  0  0
  -47.1438   58.3159   64.6602 C   0  0  0  0  0  0  0  0  0  0  0  0
  -47.9148   59.3842   65.4104 C   0  0  0  0  0  0  0  0  0  0  0  0
  -49.0937   58.8324   66.1865 C   0  0  0  0  0  0  0  0  0  0  0  0
  -50.3700   58.7026   65.3776 C   0  0  0  0  0  0  0  0  0  0  0  0
  -50.3634   59.5653   64.1310 C   0  0  0  0  0  0  0  0  0  0  0  0
  -50.9751   58.8762   62.9223 C   0  0  0  0  0  0  0  0  0  0  0  0
  -50.0189   58.7047   61.7549 C   0  0  0  0  0  0  0  0  0  0  0  0
  -50.3390   57.5216   60.8544 C   0  0  0  0  0  0  0  0  0  0  0  0
  -49.1262   56.9473   60.1350 C   0  0  0  0  0  0  0  0  0  0  0  0
  -48.8939   57.5553   58.7612 C   0  0  0  0  0  0  0  0  0  0  0  0
  -46.5213   57.6248   57.8998 C   0  0  0  0  0  0  0  0  0  0  0  0
  -47.6110   58.3570   58.6379 C   0  0  0  0  0  0  0  0  0  0  0  0
 43 45  1  0  0  0
 43 42  1  0  0  0
 43 46  1  0  0  0
 64 65  1  0  0  0
 44 45  2  0  0  0
 65 63  1  0  0  0
  2  1  1  0  0  0
  2  4  1  0  0  0
  2  5  1  0  0  0
  3  4  2  0  0  0
 63 62  1  0  0  0
  6  8  1  0  0  0
  6 11  2  0  0  0
  7 10  1  0  0  0
  7 11  1  0  0  0
 62 61  1  0  0  0
 26 28  1  0  0  0
 26 32  1  0  0  0
 26 29  1  0  0  0
 12 18  1  0  0  0
 12 19  1  0  0  0
 61 60  1  0  0  0
 30 36  1  0  0  0
 30 37  1  0  0  0
 30 38  1  0  0  0
 20 21  2  0  0  0
 60 59  1  0  0  0
 22 21  1  0  0  0
 22 23  1  0  0  0
 59 58  1  0  0  0
 27 28  2  0  0  0
 58 57  1  0  0  0
 31 37  2  0  0  0
 57 56  1  0  0  0
 56 55  1  0  0  0
 55 54  1  0  0  0
 54 53  1  0  0  0
 53 52  1  0  0  0
 52 51  1  0  0  0
 51 50  1  0  0  0
 50 49  1  0  0  0
 49 47  1  0  0  0
 47 48  2  0  0  0
 48 45  1  0  0  0
 42 41  1  0  0  0
 41 40  1  0  0  0
 40 39  1  0  0  0
 39  1  1  0  0  0
  1 21  1  0  0  0
  8  4  1  0  0  0
  8  9  1  0  0  0
  8 10  1  0  0  0
 11 13  1  0  0  0
 13 14  2  0  0  0
 13 18  1  0  0  0
 14 15  1  0  0  0
 15 16  2  0  0  0
 16 17  1  0  0  0
 17 18  2  0  0  0
 23 24  1  0  0  0
 23 25  1  0  0  0
 25 28  1  0  0  0
 32 33  1  0  0  0
 32 37  1  0  0  0
 33 34  1  0  0  0
 34 35  1  0  0  0
 35 36  1  0  0  0
M  END
> <minimizedAffinity>
-10.09417

> <CNNscore>
0.4571671188

> <CNNaffinity>
7.7769913673

> <CNN_VS>
3.5553846359

> <CNNaffinity_variance>
1.5280870199

$$$$
/media/chris/experiments/cd1a-new-docking/inputs/ligands/7ryo_ligand.pdb


 65 67  0  0  0  0  0  0  0  0999 V2000
  -36.3840   57.7398   61.6081 C   0  0  0  0  0  0  0  0  0  0  0  0
  -37.1329   58.1067   62.7985 N   0  0  0  0  0  0  0  0  0  0  0  0
  -36.3080   60.1972   62.8510 O   0  0  0  0  0  0  0  0  0  0  0  0
  -37.0256   59.3290   63.3249 C   0  0  0  0  0  0  0  0  0  0  0  0
  -37.7268   57.4454   63.2221 H   0  0  0  0  0  0  0  0  0  0  0  0
  -39.2670   59.7151   64.2731 N   0  0  0  0  0  0  0  0  0  0  0  0
  -39.1480   58.2498   65.9826 O   0  0  0  0  0  0  0  0  0  0  0  0
  -37.8337   59.6280   64.5983 C   0  0  0  0  0  0  0  0  0  0  0  0
  -37.3724   60.9638   65.1733 C   0  0  0  0  0  0  0  0  0  0  0  0
  -37.7613   58.5049   65.6434 C   0  0  0  0  0  0  0  0  0  0  0  0
  -39.8793   58.9390   65.0683 C   0  0  0  0  0  0  0  0  0  0  0  0
  -41.3692   58.0107   62.7876 O   0  0  0  0  0  0  0  0  0  0  0  0
  -41.3253   58.7086   65.1083 C   0  0  0  0  0  0  0  0  0  0  0  0
  -42.0158   58.7984   66.3177 C   0  0  0  0  0  0  0  0  0  0  0  0
  -43.3216   58.3495   66.4157 C   0  0  0  0  0  0  0  0  0  0  0  0
  -43.9573   57.8079   65.3197 C   0  0  0  0  0  0  0  0  0  0  0  0
  -43.2938   57.7034   64.1108 C   0  0  0  0  0  0  0  0  0  0  0  0
  -41.9803   58.1471   63.9931 C   0  0  0  0  0  0  0  0  0  0  0  0
  -40.4850   58.2996   62.6752 H   0  0  0  0  0  0  0  0  0  0  0  0
  -34.4771   56.9636   62.8736 O   0  0  0  0  0  0  0  0  0  0  0  0
  -34.9069   57.5550   61.9220 C   0  0  0  0  0  0  0  0  0  0  0  0
  -34.1478   58.1652   60.9952 O   0  0  0  0  0  0  0  0  0  0  0  0
  -32.7683   58.5122   61.3504 C   0  0  0  0  0  0  0  0  0  0  0  0
  -31.9504   57.2454   61.3418 C   0  0  0  0  0  0  0  0  0  0  0  0
  -32.8477   59.1383   62.7292 C   0  0  0  0  0  0  0  0  0  0  0  0
  -33.3435   61.4303   63.3153 N   0  0  0  0  0  0  0  0  0  0  0  0
  -31.4162   60.9937   62.2397 O   0  0  0  0  0  0  0  0  0  0  0  0
  -32.4698   60.6029   62.7344 C   0  0  0  0  0  0  0  0  0  0  0  0
  -34.1727   61.0600   63.6953 H   0  0  0  0  0  0  0  0  0  0  0  0
  -33.1495   64.5243   65.1815 N   0  0  0  0  0  0  0  0  0  0  0  0
  -34.3884   62.6691   65.4145 O   0  0  0  0  0  0  0  0  0  0  0  0
  -33.1048   62.8604   63.4019 C   0  0  0  0  0  0  0  0  0  0  0  0
  -33.8616   63.5893   62.2859 C   0  0  0  0  0  0  0  0  0  0  0  0
  -33.3360   64.9934   62.0073 C   0  0  0  0  0  0  0  0  0  0  0  0
  -33.4333   65.9670   63.1649 C   0  0  0  0  0  0  0  0  0  0  0  0
  -32.5861   65.5926   64.3630 C   0  0  0  0  0  0  0  0  0  0  0  0
  -33.6037   63.3440   64.7544 C   0  0  0  0  0  0  0  0  0  0  0  0
  -33.1998   64.6914   66.1504 H   0  0  0  0  0  0  0  0  0  0  0  0
  -36.5809   58.7648   60.4902 C   0  0  0  0  0  0  0  0  0  0  0  0
  -37.9819   58.7080   59.8909 C   0  0  0  0  0  0  0  0  0  0  0  0
  -38.7434   60.0133   60.0277 C   0  0  0  0  0  0  0  0  0  0  0  0
  -40.2308   59.8575   60.2573 C   0  0  0  0  0  0  0  0  0  0  0  0
  -40.9641   59.9431   59.0043 N   0  0  0  0  0  0  0  0  0  0  0  0
  -41.5639   57.7673   59.0085 O   0  0  0  0  0  0  0  0  0  0  0  0
  -41.5814   58.8851   58.4674 C   0  0  0  0  0  0  0  0  0  0  0  0
  -41.0076   60.8081   58.5361 H   0  0  0  0  0  0  0  0  0  0  0  0
  -43.4349   58.7702   56.8168 C   0  0  0  0  0  0  0  0  0  0  0  0
  -42.2079   59.1452   57.1520 C   0  0  0  0  0  0  0  0  0  0  0  0
  -44.4349   58.0447   57.6619 C   0  0  0  0  0  0  0  0  0  0  0  0
  -45.8651   58.3832   57.2593 C   0  0  0  0  0  0  0  0  0  0  0  0
  -46.6362   57.2063   56.6873 C   0  0  0  0  0  0  0  0  0  0  0  0
  -47.9332   56.9135   57.4231 C   0  0  0  0  0  0  0  0  0  0  0  0
  -47.7547   56.1769   58.7373 C   0  0  0  0  0  0  0  0  0  0  0  0
  -48.8136   56.5199   59.7721 C   0  0  0  0  0  0  0  0  0  0  0  0
  -49.4620   57.8722   59.5496 C   0  0  0  0  0  0  0  0  0  0  0  0
  -50.0876   58.4455   60.8053 C   0  0  0  0  0  0  0  0  0  0  0  0
  -49.6201   59.8454   61.1543 C   0  0  0  0  0  0  0  0  0  0  0  0
  -49.6893   60.1322   62.6413 C   0  0  0  0  0  0  0  0  0  0  0  0
  -50.9292   59.5564   63.3054 C   0  0  0  0  0  0  0  0  0  0  0  0
  -50.6362   58.5176   64.3740 C   0  0  0  0  0  0  0  0  0  0  0  0
  -50.2961   59.1022   65.7362 C   0  0  0  0  0  0  0  0  0  0  0  0
  -48.8138   59.0456   66.0796 C   0  0  0  0  0  0  0  0  0  0  0  0
  -48.1582   57.7239   65.7133 C   0  0  0  0  0  0  0  0  0  0  0  0
  -46.7146   58.2213   67.7245 C   0  0  0  0  0  0  0  0  0  0  0  0
  -47.2256   57.1698   66.7749 C   0  0  0  0  0  0  0  0  0  0  0  0
 43 45  1  0  0  0
 43 42  1  0  0  0
 43 46  1  0  0  0
 64 65  1  0  0  0
 44 45  2  0  0  0
 65 63  1  0  0  0
  2  1  1  0  0  0
  2  4  1  0  0  0
  2  5  1  0  0  0
  3  4  2  0  0  0
 63 62  1  0  0  0
  6  8  1  0  0  0
  6 11  2  0  0  0
  7 10  1  0  0  0
  7 11  1  0  0  0
 62 61  1  0  0  0
 26 28  1  0  0  0
 26 32  1  0  0  0
 26 29  1  0  0  0
 12 18  1  0  0  0
 12 19  1  0  0  0
 61 60  1  0  0  0
 30 36  1  0  0  0
 30 37  1  0  0  0
 30 38  1  0  0  0
 20 21  2  0  0  0
 60 59  1  0  0  0
 22 21  1  0  0  0
 22 23  1  0  0  0
 59 58  1  0  0  0
 27 28  2  0  0  0
 58 57  1  0  0  0
 31 37  2  0  0  0
 57 56  1  0  0  0
 56 55  1  0  0  0
 55 54  1  0  0  0
 54 53  1  0  0  0
 53 52  1  0  0  0
 52 51  1  0  0  0
 51 50  1  0  0  0
 50 49  1  0  0  0
 49 47  1  0  0  0
 47 48  2  0  0  0
 48 45  1  0  0  0
 42 41  1  0  0  0
 41 40  1  0  0  0
 40 39  1  0  0  0
 39  1  1  0  0  0
  1 21  1  0  0  0
  8  4  1  0  0  0
  8  9  1  0  0  0
  8 10  1  0  0  0
 11 13  1  0  0  0
 13 14  2  0  0  0
 13 18  1  0  0  0
 14 15  1  0  0  0
 15 16  2  0  0  0
 16 17  1  0  0  0
 17 18  2  0  0  0
 23 24  1  0  0  0
 23 25  1  0  0  0
 25 28  1  0  0  0
 32 33  1  0  0  0
 32 37  1  0  0  0
 33 34  1  0  0  0
 34 35  1  0  0  0
 35 36  1  0  0  0
M  END
> <minimizedAffinity>
-8.25428

> <CNNscore>
0.3942438960

> <CNNaffinity>
7.7979011536

> <CNN_VS>
3.0742750168

> <CNNaffinity_variance>
0.5847612619

$$$$
/media/chris/experiments/cd1a-new-docking/inputs/ligands/7ryo_ligand.pdb


 65 67  0  0  0  0  0  0  0  0999 V2000
  -38.4514   60.2035   64.8378 C   0  0  0  0  0  0  0  0  0  0  0  0
  -37.7337   59.4477   63.8249 N   0  0  0  0  0  0  0  0  0  0  0  0
  -38.7510   60.4935   62.1147 O   0  0  0  0  0  0  0  0  0  0  0  0
  -37.9524   59.6649   62.5259 C   0  0  0  0  0  0  0  0  0  0  0  0
  -37.0779   58.7669   64.1003 H   0  0  0  0  0  0  0  0  0  0  0  0
  -35.7394   59.1550   61.5694 N   0  0  0  0  0  0  0  0  0  0  0  0
  -35.7977   56.9135   61.8051 O   0  0  0  0  0  0  0  0  0  0  0  0
  -37.1688   58.8060   61.5197 C   0  0  0  0  0  0  0  0  0  0  0  0
  -37.6994   59.0824   60.1162 C   0  0  0  0  0  0  0  0  0  0  0  0
  -37.1929   57.3064   61.8504 C   0  0  0  0  0  0  0  0  0  0  0  0
  -35.0950   58.0736   61.7269 C   0  0  0  0  0  0  0  0  0  0  0  0
  -33.4137   60.1681   62.7612 O   0  0  0  0  0  0  0  0  0  0  0  0
  -33.6397   57.9421   61.8290 C   0  0  0  0  0  0  0  0  0  0  0  0
  -33.0258   56.7194   61.5544 C   0  0  0  0  0  0  0  0  0  0  0  0
  -31.6960   56.5129   61.8786 C   0  0  0  0  0  0  0  0  0  0  0  0
  -30.9603   57.5126   62.4771 C   0  0  0  0  0  0  0  0  0  0  0  0
  -31.5463   58.7320   62.7639 C   0  0  0  0  0  0  0  0  0  0  0  0
  -32.8822   58.9579   62.4475 C   0  0  0  0  0  0  0  0  0  0  0  0
  -34.3104   60.3519   62.5614 H   0  0  0  0  0  0  0  0  0  0  0  0
  -37.8356   61.3970   66.8471 O   0  0  0  0  0  0  0  0  0  0  0  0
  -37.5056   60.7243   65.9097 C   0  0  0  0  0  0  0  0  0  0  0  0
  -36.2427   60.3435   65.6498 O   0  0  0  0  0  0  0  0  0  0  0  0
  -35.2720   61.3768   65.2763 C   0  0  0  0  0  0  0  0  0  0  0  0
  -34.8614   62.1077   66.5296 C   0  0  0  0  0  0  0  0  0  0  0  0
  -35.9937   62.2778   64.2931 C   0  0  0  0  0  0  0  0  0  0  0  0
  -34.1479   63.2708   63.0892 N   0  0  0  0  0  0  0  0  0  0  0  0
  -35.4761   64.6151   64.3102 O   0  0  0  0  0  0  0  0  0  0  0  0
  -35.1836   63.4942   63.9034 C   0  0  0  0  0  0  0  0  0  0  0  0
  -33.9608   62.3501   62.7951 H   0  0  0  0  0  0  0  0  0  0  0  0
  -31.7273   64.6519   60.7813 N   0  0  0  0  0  0  0  0  0  0  0  0
  -32.1344   62.5707   61.5117 O   0  0  0  0  0  0  0  0  0  0  0  0
  -33.2903   64.3475   62.6257 C   0  0  0  0  0  0  0  0  0  0  0  0
  -32.4920   64.9272   63.7988 C   0  0  0  0  0  0  0  0  0  0  0  0
  -31.9236   66.3154   63.5245 C   0  0  0  0  0  0  0  0  0  0  0  0
  -30.9365   66.4001   62.3773 C   0  0  0  0  0  0  0  0  0  0  0  0
  -31.5311   66.0774   61.0225 C   0  0  0  0  0  0  0  0  0  0  0  0
  -32.3326   63.7796   61.5903 C   0  0  0  0  0  0  0  0  0  0  0  0
  -31.3766   64.2962   59.9330 H   0  0  0  0  0  0  0  0  0  0  0  0
  -39.5756   59.3726   65.4582 C   0  0  0  0  0  0  0  0  0  0  0  0
  -39.5175   57.9091   65.0340 C   0  0  0  0  0  0  0  0  0  0  0  0
  -40.5541   57.5496   63.9858 C   0  0  0  0  0  0  0  0  0  0  0  0
  -41.4779   56.4153   64.3720 C   0  0  0  0  0  0  0  0  0  0  0  0
  -42.3384   56.7973   65.4805 N   0  0  0  0  0  0  0  0  0  0  0  0
  -43.5008   58.3139   64.2794 O   0  0  0  0  0  0  0  0  0  0  0  0
  -43.2934   57.7248   65.3530 C   0  0  0  0  0  0  0  0  0  0  0  0
  -42.2138   56.3589   66.3532 H   0  0  0  0  0  0  0  0  0  0  0  0
  -45.3297   58.1734   66.7042 C   0  0  0  0  0  0  0  0  0  0  0  0
  -44.0141   58.0369   66.6074 C   0  0  0  0  0  0  0  0  0  0  0  0
  -46.3487   58.0305   65.6172 C   0  0  0  0  0  0  0  0  0  0  0  0
  -47.7196   58.5267   66.0604 C   0  0  0  0  0  0  0  0  0  0  0  0
  -48.8419   57.5348   65.8084 C   0  0  0  0  0  0  0  0  0  0  0  0
  -50.2269   58.1584   65.8561 C   0  0  0  0  0  0  0  0  0  0  0  0
  -50.2411   59.6217   66.2563 C   0  0  0  0  0  0  0  0  0  0  0  0
  -51.0046   60.5073   65.2856 C   0  0  0  0  0  0  0  0  0  0  0  0
  -51.0488   59.9595   63.8726 C   0  0  0  0  0  0  0  0  0  0  0  0
  -49.8571   60.3777   63.0350 C   0  0  0  0  0  0  0  0  0  0  0  0
  -49.5158   59.4197   61.9099 C   0  0  0  0  0  0  0  0  0  0  0  0
  -49.8488   57.9794   62.2460 C   0  0  0  0  0  0  0  0  0  0  0  0
  -50.0436   57.1071   61.0167 C   0  0  0  0  0  0  0  0  0  0  0  0
  -50.2191   57.8850   59.7242 C   0  0  0  0  0  0  0  0  0  0  0  0
  -49.1037   57.6738   58.7121 C   0  0  0  0  0  0  0  0  0  0  0  0
  -47.7296   57.4811   59.3390 C   0  0  0  0  0  0  0  0  0  0  0  0
  -46.5870   57.6195   58.3460 C   0  0  0  0  0  0  0  0  0  0  0  0
  -46.7607   55.8381   56.5648 C   0  0  0  0  0  0  0  0  0  0  0  0
  -46.9581   57.2904   56.9115 C   0  0  0  0  0  0  0  0  0  0  0  0
 43 45  1  0  0  0
 43 42  1  0  0  0
 43 46  1  0  0  0
 64 65  1  0  0  0
 44 45  2  0  0  0
 65 63  1  0  0  0
  2  1  1  0  0  0
  2  4  1  0  0  0
  2  5  1  0  0  0
  3  4  2  0  0  0
 63 62  1  0  0  0
  6  8  1  0  0  0
  6 11  2  0  0  0
  7 10  1  0  0  0
  7 11  1  0  0  0
 62 61  1  0  0  0
 26 28  1  0  0  0
 26 32  1  0  0  0
 26 29  1  0  0  0
 12 18  1  0  0  0
 12 19  1  0  0  0
 61 60  1  0  0  0
 30 36  1  0  0  0
 30 37  1  0  0  0
 30 38  1  0  0  0
 20 21  2  0  0  0
 60 59  1  0  0  0
 22 21  1  0  0  0
 22 23  1  0  0  0
 59 58  1  0  0  0
 27 28  2  0  0  0
 58 57  1  0  0  0
 31 37  2  0  0  0
 57 56  1  0  0  0
 56 55  1  0  0  0
 55 54  1  0  0  0
 54 53  1  0  0  0
 53 52  1  0  0  0
 52 51  1  0  0  0
 51 50  1  0  0  0
 50 49  1  0  0  0
 49 47  1  0  0  0
 47 48  2  0  0  0
 48 45  1  0  0  0
 42 41  1  0  0  0
 41 40  1  0  0  0
 40 39  1  0  0  0
 39  1  1  0  0  0
  1 21  1  0  0  0
  8  4  1  0  0  0
  8  9  1  0  0  0
  8 10  1  0  0  0
 11 13  1  0  0  0
 13 14  2  0  0  0
 13 18  1  0  0  0
 14 15  1  0  0  0
 15 16  2  0  0  0
 16 17  1  0  0  0
 17 18  2  0  0  0
 23 24  1  0  0  0
 23 25  1  0  0  0
 25 28  1  0  0  0
 32 33  1  0  0  0
 32 37  1  0  0  0
 33 34  1  0  0  0
 34 35  1  0  0  0
 35 36  1  0  0  0
M  END
> <minimizedAffinity>
-10.36579

> <CNNscore>
0.2941264510

> <CNNaffinity>
7.1687555313

> <CNN_VS>
2.1085205078

> <CNNaffinity_variance>
0.9237576723

$$$$
/media/chris/experiments/cd1a-new-docking/inputs/ligands/7ryo_ligand.pdb


 65 67  0  0  0  0  0  0  0  0999 V2000
  -37.4186   60.2960   64.0742 C   0  0  0  0  0  0  0  0  0  0  0  0
  -36.6493   61.4913   64.3771 N   0  0  0  0  0  0  0  0  0  0  0  0
  -35.1204   60.3768   65.5910 O   0  0  0  0  0  0  0  0  0  0  0  0
  -35.5452   61.4234   65.1246 C   0  0  0  0  0  0  0  0  0  0  0  0
  -36.9462   62.3622   64.0266 H   0  0  0  0  0  0  0  0  0  0  0  0
  -33.5961   62.8291   64.5794 N   0  0  0  0  0  0  0  0  0  0  0  0
  -34.6883   64.7717   64.2374 O   0  0  0  0  0  0  0  0  0  0  0  0
  -34.8030   62.7377   65.4176 C   0  0  0  0  0  0  0  0  0  0  0  0
  -34.3906   62.7549   66.8864 C   0  0  0  0  0  0  0  0  0  0  0  0
  -35.6089   63.9894   65.0397 C   0  0  0  0  0  0  0  0  0  0  0  0
  -33.6336   63.9520   63.9900 C   0  0  0  0  0  0  0  0  0  0  0  0
  -32.3412   62.2977   62.0211 O   0  0  0  0  0  0  0  0  0  0  0  0
  -32.6325   64.4706   63.0549 C   0  0  0  0  0  0  0  0  0  0  0  0
  -32.3731   65.8404   62.9949 C   0  0  0  0  0  0  0  0  0  0  0  0
  -31.6188   66.3677   61.9608 C   0  0  0  0  0  0  0  0  0  0  0  0
  -31.1136   65.5463   60.9766 C   0  0  0  0  0  0  0  0  0  0  0  0
  -31.3599   64.1859   61.0104 C   0  0  0  0  0  0  0  0  0  0  0  0
  -32.1177   63.6375   62.0405 C   0  0  0  0  0  0  0  0  0  0  0  0
  -32.8476   61.8974   62.7002 H   0  0  0  0  0  0  0  0  0  0  0  0
  -39.4478   60.5521   62.7867 O   0  0  0  0  0  0  0  0  0  0  0  0
  -38.2501   60.4810   62.8136 C   0  0  0  0  0  0  0  0  0  0  0  0
  -37.4574   60.5328   61.7291 O   0  0  0  0  0  0  0  0  0  0  0  0
  -37.6593   59.5323   60.6765 C   0  0  0  0  0  0  0  0  0  0  0  0
  -38.9251   59.8820   59.9355 C   0  0  0  0  0  0  0  0  0  0  0  0
  -37.7601   58.2004   61.3942 C   0  0  0  0  0  0  0  0  0  0  0  0
  -35.3436   58.1810   61.4403 N   0  0  0  0  0  0  0  0  0  0  0  0
  -36.4538   57.1335   63.0931 O   0  0  0  0  0  0  0  0  0  0  0  0
  -36.4633   57.7858   62.0530 C   0  0  0  0  0  0  0  0  0  0  0  0
  -35.4124   58.7023   60.6080 H   0  0  0  0  0  0  0  0  0  0  0  0
  -32.5400   58.8418   63.6305 N   0  0  0  0  0  0  0  0  0  0  0  0
  -34.0416   60.1671   62.6208 O   0  0  0  0  0  0  0  0  0  0  0  0
  -34.0278   57.8634   61.9670 C   0  0  0  0  0  0  0  0  0  0  0  0
  -33.0540   57.5818   60.8172 C   0  0  0  0  0  0  0  0  0  0  0  0
  -31.8077   56.8148   61.2459 C   0  0  0  0  0  0  0  0  0  0  0  0
  -30.9280   57.5166   62.2614 C   0  0  0  0  0  0  0  0  0  0  0  0
  -31.5878   57.7366   63.6066 C   0  0  0  0  0  0  0  0  0  0  0  0
  -33.5360   59.0583   62.7685 C   0  0  0  0  0  0  0  0  0  0  0  0
  -32.4371   59.4964   64.3586 H   0  0  0  0  0  0  0  0  0  0  0  0
  -38.3007   59.8889   65.2555 C   0  0  0  0  0  0  0  0  0  0  0  0
  -38.6711   58.4101   65.2207 C   0  0  0  0  0  0  0  0  0  0  0  0
  -40.1340   58.1684   64.8981 C   0  0  0  0  0  0  0  0  0  0  0  0
  -41.1094   58.8626   65.8233 C   0  0  0  0  0  0  0  0  0  0  0  0
  -42.4654   58.7881   65.3032 N   0  0  0  0  0  0  0  0  0  0  0  0
  -42.7112   56.5959   65.7805 O   0  0  0  0  0  0  0  0  0  0  0  0
  -43.1725   57.6530   65.3196 C   0  0  0  0  0  0  0  0  0  0  0  0
  -42.8764   59.5998   64.9267 H   0  0  0  0  0  0  0  0  0  0  0  0
  -45.6543   57.7695   65.3315 C   0  0  0  0  0  0  0  0  0  0  0  0
  -44.5016   57.7512   64.6760 C   0  0  0  0  0  0  0  0  0  0  0  0
  -45.8681   57.7169   66.8120 C   0  0  0  0  0  0  0  0  0  0  0  0
  -47.3445   57.8262   67.1730 C   0  0  0  0  0  0  0  0  0  0  0  0
  -48.2827   57.4597   66.0362 C   0  0  0  0  0  0  0  0  0  0  0  0
  -49.3904   58.4752   65.8103 C   0  0  0  0  0  0  0  0  0  0  0  0
  -48.9047   59.9006   65.6258 C   0  0  0  0  0  0  0  0  0  0  0  0
  -49.9238   60.8049   64.9527 C   0  0  0  0  0  0  0  0  0  0  0  0
  -51.1733   60.0763   64.4983 C   0  0  0  0  0  0  0  0  0  0  0  0
  -51.1754   59.7677   63.0146 C   0  0  0  0  0  0  0  0  0  0  0  0
  -49.7967   59.5690   62.4148 C   0  0  0  0  0  0  0  0  0  0  0  0
  -49.5272   58.1273   62.0313 C   0  0  0  0  0  0  0  0  0  0  0  0
  -50.0561   57.7650   60.6532 C   0  0  0  0  0  0  0  0  0  0  0  0
  -49.1960   56.7647   59.9008 C   0  0  0  0  0  0  0  0  0  0  0  0
  -47.7568   57.2106   59.6931 C   0  0  0  0  0  0  0  0  0  0  0  0
  -47.6013   58.3491   58.6942 C   0  0  0  0  0  0  0  0  0  0  0  0
  -46.9284   57.9283   57.3976 C   0  0  0  0  0  0  0  0  0  0  0  0
  -47.3546   55.5215   56.7635 C   0  0  0  0  0  0  0  0  0  0  0  0
  -46.4039   56.5039   57.3956 C   0  0  0  0  0  0  0  0  0  0  0  0
 43 45  1  0  0  0
 43 42  1  0  0  0
 43 46  1  0  0  0
 64 65  1  0  0  0
 44 45  2  0  0  0
 65 63  1  0  0  0
  2  1  1  0  0  0
  2  4  1  0  0  0
  2  5  1  0  0  0
  3  4  2  0  0  0
 63 62  1  0  0  0
  6  8  1  0  0  0
  6 11  2  0  0  0
  7 10  1  0  0  0
  7 11  1  0  0  0
 62 61  1  0  0  0
 26 28  1  0  0  0
 26 32  1  0  0  0
 26 29  1  0  0  0
 12 18  1  0  0  0
 12 19  1  0  0  0
 61 60  1  0  0  0
 30 36  1  0  0  0
 30 37  1  0  0  0
 30 38  1  0  0  0
 20 21  2  0  0  0
 60 59  1  0  0  0
 22 21  1  0  0  0
 22 23  1  0  0  0
 59 58  1  0  0  0
 27 28  2  0  0  0
 58 57  1  0  0  0
 31 37  2  0  0  0
 57 56  1  0  0  0
 56 55  1  0  0  0
 55 54  1  0  0  0
 54 53  1  0  0  0
 53 52  1  0  0  0
 52 51  1  0  0  0
 51 50  1  0  0  0
 50 49  1  0  0  0
 49 47  1  0  0  0
 47 48  2  0  0  0
 48 45  1  0  0  0
 42 41  1  0  0  0
 41 40  1  0  0  0
 40 39  1  0  0  0
 39  1  1  0  0  0
  1 21  1  0  0  0
  8  4  1  0  0  0
  8  9  1  0  0  0
  8 10  1  0  0  0
 11 13  1  0  0  0
 13 14  2  0  0  0
 13 18  1  0  0  0
 14 15  1  0  0  0
 15 16  2  0  0  0
 16 17  1  0  0  0
 17 18  2  0  0  0
 23 24  1  0  0  0
 23 25  1  0  0  0
 25 28  1  0  0  0
 32 33  1  0  0  0
 32 37  1  0  0  0
 33 34  1  0  0  0
 34 35  1  0  0  0
 35 36  1  0  0  0
M  END
> <minimizedAffinity>
-10.51614

> <CNNscore>
0.2075044662

> <CNNaffinity>
7.0901007652

> <CNN_VS>
1.4712275267

> <CNNaffinity_variance>
1.0557172298

$$$$
/media/chris/experiments/cd1a-new-docking/inputs/ligands/7ryo_ligand.pdb


 65 67  0  0  0  0  0  0  0  0999 V2000
  -39.7646   57.8800   64.2350 C   0  0  0  0  0  0  0  0  0  0  0  0
  -38.3731   57.4654   64.2991 N   0  0  0  0  0  0  0  0  0  0  0  0
  -37.9768   58.5802   66.2105 O   0  0  0  0  0  0  0  0  0  0  0  0
  -37.5866   57.8612   65.3028 C   0  0  0  0  0  0  0  0  0  0  0  0
  -38.0057   56.8854   63.5934 H   0  0  0  0  0  0  0  0  0  0  0  0
  -35.6441   57.3028   63.8931 N   0  0  0  0  0  0  0  0  0  0  0  0
  -34.1076   58.5711   64.9487 O   0  0  0  0  0  0  0  0  0  0  0  0
  -36.1208   57.3972   65.2829 C   0  0  0  0  0  0  0  0  0  0  0  0
  -36.0301   56.0203   65.9340 C   0  0  0  0  0  0  0  0  0  0  0  0
  -35.1562   58.3983   65.9355 C   0  0  0  0  0  0  0  0  0  0  0  0
  -34.5650   57.9661   63.8215 C   0  0  0  0  0  0  0  0  0  0  0  0
  -33.0875   60.3805   63.3009 O   0  0  0  0  0  0  0  0  0  0  0  0
  -33.7393   58.1460   62.6251 C   0  0  0  0  0  0  0  0  0  0  0  0
  -33.5266   57.0771   61.7535 C   0  0  0  0  0  0  0  0  0  0  0  0
  -32.5633   57.1597   60.7629 C   0  0  0  0  0  0  0  0  0  0  0  0
  -31.8012   58.2993   60.6241 C   0  0  0  0  0  0  0  0  0  0  0  0
  -31.9889   59.3710   61.4779 C   0  0  0  0  0  0  0  0  0  0  0  0
  -32.9509   59.3061   62.4811 C   0  0  0  0  0  0  0  0  0  0  0  0
  -33.7261   60.3686   63.9864 H   0  0  0  0  0  0  0  0  0  0  0  0
  -40.7524   56.0812   62.9586 O   0  0  0  0  0  0  0  0  0  0  0  0
  -40.6825   56.6918   63.9894 C   0  0  0  0  0  0  0  0  0  0  0  0
  -41.4214   56.4328   65.0822 O   0  0  0  0  0  0  0  0  0  0  0  0
  -42.4861   57.3764   65.4366 C   0  0  0  0  0  0  0  0  0  0  0  0
  -42.3773   57.6719   66.9112 C   0  0  0  0  0  0  0  0  0  0  0  0
  -43.7845   56.6777   65.0824 C   0  0  0  0  0  0  0  0  0  0  0  0
  -46.1045   57.1655   65.5530 N   0  0  0  0  0  0  0  0  0  0  0  0
  -44.8669   58.7397   64.5275 O   0  0  0  0  0  0  0  0  0  0  0  0
  -44.9652   57.6213   65.0245 C   0  0  0  0  0  0  0  0  0  0  0  0
  -46.1243   56.2595   65.9378 H   0  0  0  0  0  0  0  0  0  0  0  0
  -48.2032   59.7309   67.0049 N   0  0  0  0  0  0  0  0  0  0  0  0
  -46.7259   58.2850   67.8755 O   0  0  0  0  0  0  0  0  0  0  0  0
  -47.3147   57.9683   65.5760 C   0  0  0  0  0  0  0  0  0  0  0  0
  -48.5453   57.0714   65.3998 C   0  0  0  0  0  0  0  0  0  0  0  0
  -49.7948   57.8276   64.9615 C   0  0  0  0  0  0  0  0  0  0  0  0
  -50.2900   58.8839   65.9294 C   0  0  0  0  0  0  0  0  0  0  0  0
  -49.3308   60.0382   66.1316 C   0  0  0  0  0  0  0  0  0  0  0  0
  -47.3897   58.6759   66.9197 C   0  0  0  0  0  0  0  0  0  0  0  0
  -48.0234   60.3684   67.7332 H   0  0  0  0  0  0  0  0  0  0  0  0
  -39.9739   58.9606   63.1731 C   0  0  0  0  0  0  0  0  0  0  0  0
  -40.4389   60.2826   63.7741 C   0  0  0  0  0  0  0  0  0  0  0  0
  -40.5714   60.2378   65.2851 C   0  0  0  0  0  0  0  0  0  0  0  0
  -39.4230   60.8705   66.0403 C   0  0  0  0  0  0  0  0  0  0  0  0
  -38.3232   61.1916   65.1446 N   0  0  0  0  0  0  0  0  0  0  0  0
  -36.8836   61.6840   66.8117 O   0  0  0  0  0  0  0  0  0  0  0  0
  -37.1257   61.5775   65.5982 C   0  0  0  0  0  0  0  0  0  0  0  0
  -38.4647   61.1226   64.1728 H   0  0  0  0  0  0  0  0  0  0  0  0
  -36.0898   61.3500   63.3512 C   0  0  0  0  0  0  0  0  0  0  0  0
  -36.1573   61.9374   64.5383 C   0  0  0  0  0  0  0  0  0  0  0  0
  -36.9532   60.2469   62.8237 C   0  0  0  0  0  0  0  0  0  0  0  0
  -37.4049   60.5188   61.3940 C   0  0  0  0  0  0  0  0  0  0  0  0
  -37.7142   59.2621   60.5990 C   0  0  0  0  0  0  0  0  0  0  0  0
  -38.4116   59.5351   59.2767 C   0  0  0  0  0  0  0  0  0  0  0  0
  -39.8977   59.8147   59.3989 C   0  0  0  0  0  0  0  0  0  0  0  0
  -40.7150   58.5901   59.7759 C   0  0  0  0  0  0  0  0  0  0  0  0
  -41.6235   58.1027   58.6643 C   0  0  0  0  0  0  0  0  0  0  0  0
  -41.8596   59.1445   57.5894 C   0  0  0  0  0  0  0  0  0  0  0  0
  -43.1368   58.9466   56.7958 C   0  0  0  0  0  0  0  0  0  0  0  0
  -44.2041   58.2077   57.5787 C   0  0  0  0  0  0  0  0  0  0  0  0
  -45.5892   58.3288   56.9648 C   0  0  0  0  0  0  0  0  0  0  0  0
  -46.7241   58.2458   57.9707 C   0  0  0  0  0  0  0  0  0  0  0  0
  -46.7191   56.9804   58.8145 C   0  0  0  0  0  0  0  0  0  0  0  0
  -48.0842   56.6080   59.3768 C   0  0  0  0  0  0  0  0  0  0  0  0
  -49.1312   57.6946   59.1924 C   0  0  0  0  0  0  0  0  0  0  0  0
  -50.7784   57.6047   61.1042 C   0  0  0  0  0  0  0  0  0  0  0  0
  -49.6123   58.3291   60.4847 C   0  0  0  0  0  0  0  0  0  0  0  0
 43 45  1  0  0  0
 43 42  1  0  0  0
 43 46  1  0  0  0
 64 65  1  0  0  0
 44 45  2  0  0  0
 65 63  1  0  0  0
  2  1  1  0  0  0
  2  4  1  0  0  0
  2  5  1  0  0  0
  3  4  2  0  0  0
 63 62  1  0  0  0
  6  8  1  0  0  0
  6 11  2  0  0  0
  7 10  1  0  0  0
  7 11  1  0  0  0
 62 61  1  0  0  0
 26 28  1  0  0  0
 26 32  1  0  0  0
 26 29  1  0  0  0
 12 18  1  0  0  0
 12 19  1  0  0  0
 61 60  1  0  0  0
 30 36  1  0  0  0
 30 37  1  0  0  0
 30 38  1  0  0  0
 20 21  2  0  0  0
 60 59  1  0  0  0
 22 21  1  0  0  0
 22 23  1  0  0  0
 59 58  1  0  0  0
 27 28  2  0  0  0
 58 57  1  0  0  0
 31 37  2  0  0  0
 57 56  1  0  0  0
 56 55  1  0  0  0
 55 54  1  0  0  0
 54 53  1  0  0  0
 53 52  1  0  0  0
 52 51  1  0  0  0
 51 50  1  0  0  0
 50 49  1  0  0  0
 49 47  1  0  0  0
 47 48  2  0  0  0
 48 45  1  0  0  0
 42 41  1  0  0  0
 41 40  1  0  0  0
 40 39  1  0  0  0
 39  1  1  0  0  0
  1 21  1  0  0  0
  8  4  1  0  0  0
  8  9  1  0  0  0
  8 10  1  0  0  0
 11 13  1  0  0  0
 13 14  2  0  0  0
 13 18  1  0  0  0
 14 15  1  0  0  0
 15 16  2  0  0  0
 16 17  1  0  0  0
 17 18  2  0  0  0
 23 24  1  0  0  0
 23 25  1  0  0  0
 25 28  1  0  0  0
 32 33  1  0  0  0
 32 37  1  0  0  0
 33 34  1  0  0  0
 34 35  1  0  0  0
 35 36  1  0  0  0
M  END
> <minimizedAffinity>
-7.24837

> <CNNscore>
0.1928202510

> <CNNaffinity>
7.7702116966

> <CNN_VS>
1.4982541800

> <CNNaffinity_variance>
1.3868442774

$$$$
/media/chris/experiments/cd1a-new-docking/inputs/ligands/7ryo_ligand.pdb


 65 67  0  0  0  0  0  0  0  0999 V2000
  -43.0276   58.4910   64.7543 C   0  0  0  0  0  0  0  0  0  0  0  0
  -44.4087   58.4877   65.2073 N   0  0  0  0  0  0  0  0  0  0  0  0
  -43.9815   57.1559   66.9673 O   0  0  0  0  0  0  0  0  0  0  0  0
  -44.7699   57.8056   66.2968 C   0  0  0  0  0  0  0  0  0  0  0  0
  -45.0863   58.9948   64.7044 H   0  0  0  0  0  0  0  0  0  0  0  0
  -46.9776   58.8089   65.8590 N   0  0  0  0  0  0  0  0  0  0  0  0
  -48.1676   56.9016   65.6878 O   0  0  0  0  0  0  0  0  0  0  0  0
  -46.2550   57.8353   66.6942 C   0  0  0  0  0  0  0  0  0  0  0  0
  -46.3663   58.2555   68.1567 C   0  0  0  0  0  0  0  0  0  0  0  0
  -46.9833   56.5098   66.4275 C   0  0  0  0  0  0  0  0  0  0  0  0
  -47.9803   58.2081   65.3660 C   0  0  0  0  0  0  0  0  0  0  0  0
  -50.7449   58.5022   66.1104 O   0  0  0  0  0  0  0  0  0  0  0  0
  -48.9829   58.7913   64.4713 C   0  0  0  0  0  0  0  0  0  0  0  0
  -48.5925   59.3634   63.2598 C   0  0  0  0  0  0  0  0  0  0  0  0
  -49.4827   60.1273   62.5249 C   0  0  0  0  0  0  0  0  0  0  0  0
  -50.7670   60.3328   62.9800 C   0  0  0  0  0  0  0  0  0  0  0  0
  -51.1775   59.7807   64.1796 C   0  0  0  0  0  0  0  0  0  0  0  0
  -50.2966   59.0117   64.9337 C   0  0  0  0  0  0  0  0  0  0  0  0
  -50.1765   57.9801   66.6417 H   0  0  0  0  0  0  0  0  0  0  0  0
  -43.6049   56.7108   63.2252 O   0  0  0  0  0  0  0  0  0  0  0  0
  -42.7580   57.3363   63.8011 C   0  0  0  0  0  0  0  0  0  0  0  0
  -41.4379   57.0992   63.7090 O   0  0  0  0  0  0  0  0  0  0  0  0
  -40.8013   57.2337   62.3951 C   0  0  0  0  0  0  0  0  0  0  0  0
  -41.7152   56.6159   61.3672 C   0  0  0  0  0  0  0  0  0  0  0  0
  -39.4786   56.5005   62.5061 C   0  0  0  0  0  0  0  0  0  0  0  0
  -37.1904   57.2608   62.6752 N   0  0  0  0  0  0  0  0  0  0  0  0
  -38.6715   57.9747   64.2110 O   0  0  0  0  0  0  0  0  0  0  0  0
  -38.4132   57.3097   63.2117 C   0  0  0  0  0  0  0  0  0  0  0  0
  -37.0421   56.7100   61.8729 H   0  0  0  0  0  0  0  0  0  0  0  0
  -34.0807   59.0832   62.3561 N   0  0  0  0  0  0  0  0  0  0  0  0
  -35.0046   57.4110   61.1810 O   0  0  0  0  0  0  0  0  0  0  0  0
  -36.0740   57.9970   63.2419 C   0  0  0  0  0  0  0  0  0  0  0  0
  -35.4979   57.2382   64.4427 C   0  0  0  0  0  0  0  0  0  0  0  0
  -34.6500   58.1074   65.3652 C   0  0  0  0  0  0  0  0  0  0  0  0
  -33.4139   58.7156   64.7329 C   0  0  0  0  0  0  0  0  0  0  0  0
  -33.7072   59.7031   63.6229 C   0  0  0  0  0  0  0  0  0  0  0  0
  -35.0053   58.1385   62.1697 C   0  0  0  0  0  0  0  0  0  0  0  0
  -33.6005   59.3940   61.5549 H   0  0  0  0  0  0  0  0  0  0  0  0
  -42.0558   58.4631   65.9349 C   0  0  0  0  0  0  0  0  0  0  0  0
  -41.7290   59.8604   66.4507 C   0  0  0  0  0  0  0  0  0  0  0  0
  -40.6596   60.5630   65.6351 C   0  0  0  0  0  0  0  0  0  0  0  0
  -39.2454   60.3523   66.1301 C   0  0  0  0  0  0  0  0  0  0  0  0
  -38.2779   60.6351   65.0818 N   0  0  0  0  0  0  0  0  0  0  0  0
  -36.9305   61.8569   66.4181 O   0  0  0  0  0  0  0  0  0  0  0  0
  -37.1837   61.3716   65.3032 C   0  0  0  0  0  0  0  0  0  0  0  0
  -38.4334   60.2726   64.1798 H   0  0  0  0  0  0  0  0  0  0  0  0
  -36.7280   61.3196   62.8613 C   0  0  0  0  0  0  0  0  0  0  0  0
  -36.3586   61.6181   64.0995 C   0  0  0  0  0  0  0  0  0  0  0  0
  -38.0180   60.7079   62.4116 C   0  0  0  0  0  0  0  0  0  0  0  0
  -38.0314   60.4613   60.9080 C   0  0  0  0  0  0  0  0  0  0  0  0
  -38.8625   59.2604   60.4907 C   0  0  0  0  0  0  0  0  0  0  0  0
  -39.5859   59.4513   59.1680 C   0  0  0  0  0  0  0  0  0  0  0  0
  -41.0992   59.4322   59.2738 C   0  0  0  0  0  0  0  0  0  0  0  0
  -41.7633   58.4892   58.2842 C   0  0  0  0  0  0  0  0  0  0  0  0
  -42.1642   59.1594   56.9847 C   0  0  0  0  0  0  0  0  0  0  0  0
  -43.6217   58.9440   56.6295 C   0  0  0  0  0  0  0  0  0  0  0  0
  -44.3838   58.0765   57.6127 C   0  0  0  0  0  0  0  0  0  0  0  0
  -45.8845   58.1385   57.4073 C   0  0  0  0  0  0  0  0  0  0  0  0
  -46.4056   57.0633   56.4680 C   0  0  0  0  0  0  0  0  0  0  0  0
  -47.2779   56.0187   57.1422 C   0  0  0  0  0  0  0  0  0  0  0  0
  -47.0900   55.9264   58.6486 C   0  0  0  0  0  0  0  0  0  0  0  0
  -48.3502   56.2288   59.4476 C   0  0  0  0  0  0  0  0  0  0  0  0
  -48.6648   57.7131   59.5422 C   0  0  0  0  0  0  0  0  0  0  0  0
  -50.6640   57.1378   60.9735 C   0  0  0  0  0  0  0  0  0  0  0  0
  -50.1073   58.0283   59.8939 C   0  0  0  0  0  0  0  0  0  0  0  0
 43 45  1  0  0  0
 43 42  1  0  0  0
 43 46  1  0  0  0
 64 65  1  0  0  0
 44 45  2  0  0  0
 65 63  1  0  0  0
  2  1  1  0  0  0
  2  4  1  0  0  0
  2  5  1  0  0  0
  3  4  2  0  0  0
 63 62  1  0  0  0
  6  8  1  0  0  0
  6 11  2  0  0  0
  7 10  1  0  0  0
  7 11  1  0  0  0
 62 61  1  0  0  0
 26 28  1  0  0  0
 26 32  1  0  0  0
 26 29  1  0  0  0
 12 18  1  0  0  0
 12 19  1  0  0  0
 61 60  1  0  0  0
 30 36  1  0  0  0
 30 37  1  0  0  0
 30 38  1  0  0  0
 20 21  2  0  0  0
 60 59  1  0  0  0
 22 21  1  0  0  0
 22 23  1  0  0  0
 59 58  1  0  0  0
 27 28  2  0  0  0
 58 57  1  0  0  0
 31 37  2  0  0  0
 57 56  1  0  0  0
 56 55  1  0  0  0
 55 54  1  0  0  0
 54 53  1  0  0  0
 53 52  1  0  0  0
 52 51  1  0  0  0
 51 50  1  0  0  0
 50 49  1  0  0  0
 49 47  1  0  0  0
 47 48  2  0  0  0
 48 45  1  0  0  0
 42 41  1  0  0  0
 41 40  1  0  0  0
 40 39  1  0  0  0
 39  1  1  0  0  0
  1 21  1  0  0  0
  8  4  1  0  0  0
  8  9  1  0  0  0
  8 10  1  0  0  0
 11 13  1  0  0  0
 13 14  2  0  0  0
 13 18  1  0  0  0
 14 15  1  0  0  0
 15 16  2  0  0  0
 16 17  1  0  0  0
 17 18  2  0  0  0
 23 24  1  0  0  0
 23 25  1  0  0  0
 25 28  1  0  0  0
 32 33  1  0  0  0
 32 37  1  0  0  0
 33 34  1  0  0  0
 34 35  1  0  0  0
 35 36  1  0  0  0
M  END
> <minimizedAffinity>
-7.93731

> <CNNscore>
0.1868447810

> <CNNaffinity>
7.9997687340

> <CNN_VS>
1.4947150946

> <CNNaffinity_variance>
1.8630584478

$$$$
/media/chris/experiments/cd1a-new-docking/inputs/ligands/7ryo_ligand.pdb


 65 67  0  0  0  0  0  0  0  0999 V2000
  -35.0602   57.5613   63.0919 C   0  0  0  0  0  0  0  0  0  0  0  0
  -34.0398   58.5496   62.7846 N   0  0  0  0  0  0  0  0  0  0  0  0
  -32.5960   57.0242   61.9834 O   0  0  0  0  0  0  0  0  0  0  0  0
  -32.8737   58.1848   62.2463 C   0  0  0  0  0  0  0  0  0  0  0  0
  -34.2106   59.5002   62.9760 H   0  0  0  0  0  0  0  0  0  0  0  0
  -32.5261   60.5701   61.7349 N   0  0  0  0  0  0  0  0  0  0  0  0
  -30.9982   61.0201   63.3307 O   0  0  0  0  0  0  0  0  0  0  0  0
  -31.8398   59.2897   61.9740 C   0  0  0  0  0  0  0  0  0  0  0  0
  -31.0350   58.9176   60.7323 C   0  0  0  0  0  0  0  0  0  0  0  0
  -30.9279   59.5799   63.1753 C   0  0  0  0  0  0  0  0  0  0  0  0
  -32.0030   61.4262   62.5115 C   0  0  0  0  0  0  0  0  0  0  0  0
  -31.5986   62.9690   64.9072 O   0  0  0  0  0  0  0  0  0  0  0  0
  -32.3735   62.8396   62.6142 C   0  0  0  0  0  0  0  0  0  0  0  0
  -32.8124   63.5326   61.4853 C   0  0  0  0  0  0  0  0  0  0  0  0
  -32.9310   64.9116   61.5099 C   0  0  0  0  0  0  0  0  0  0  0  0
  -32.6173   65.6186   62.6503 C   0  0  0  0  0  0  0  0  0  0  0  0
  -32.1758   64.9561   63.7811 C   0  0  0  0  0  0  0  0  0  0  0  0
  -32.0480   63.5706   63.7752 C   0  0  0  0  0  0  0  0  0  0  0  0
  -31.5014   62.0376   64.9358 H   0  0  0  0  0  0  0  0  0  0  0  0
  -37.1522   56.9422   62.0523 O   0  0  0  0  0  0  0  0  0  0  0  0
  -36.3027   57.7691   62.2390 C   0  0  0  0  0  0  0  0  0  0  0  0
  -36.3072   59.0028   61.7049 O   0  0  0  0  0  0  0  0  0  0  0  0
  -37.5097   59.4425   60.9903 C   0  0  0  0  0  0  0  0  0  0  0  0
  -37.2477   59.3144   59.5110 C   0  0  0  0  0  0  0  0  0  0  0  0
  -37.7325   60.8812   61.4144 C   0  0  0  0  0  0  0  0  0  0  0  0
  -36.2849   61.6429   63.1939 N   0  0  0  0  0  0  0  0  0  0  0  0
  -38.3096   60.8259   63.7371 O   0  0  0  0  0  0  0  0  0  0  0  0
  -37.4708   61.1094   62.8865 C   0  0  0  0  0  0  0  0  0  0  0  0
  -35.6514   61.8497   62.4693 H   0  0  0  0  0  0  0  0  0  0  0  0
  -35.6932   63.9335   65.9319 N   0  0  0  0  0  0  0  0  0  0  0  0
  -35.5000   64.1239   63.7054 O   0  0  0  0  0  0  0  0  0  0  0  0
  -35.9038   61.9262   64.5666 C   0  0  0  0  0  0  0  0  0  0  0  0
  -34.6102   61.1830   64.9182 C   0  0  0  0  0  0  0  0  0  0  0  0
  -34.3742   61.0431   66.4182 C   0  0  0  0  0  0  0  0  0  0  0  0
  -34.2255   62.3460   67.1786 C   0  0  0  0  0  0  0  0  0  0  0  0
  -35.4696   63.2094   67.1785 C   0  0  0  0  0  0  0  0  0  0  0  0
  -35.6810   63.4246   64.6979 C   0  0  0  0  0  0  0  0  0  0  0  0
  -35.8718   64.8986   66.0087 H   0  0  0  0  0  0  0  0  0  0  0  0
  -35.4117   57.5701   64.5803 C   0  0  0  0  0  0  0  0  0  0  0  0
  -36.6094   58.4621   64.8885 C   0  0  0  0  0  0  0  0  0  0  0  0
  -37.7744   57.7070   65.5011 C   0  0  0  0  0  0  0  0  0  0  0  0
  -39.1132   58.4015   65.3792 C   0  0  0  0  0  0  0  0  0  0  0  0
  -40.1464   57.4717   64.9514 N   0  0  0  0  0  0  0  0  0  0  0  0
  -40.3818   58.4054   62.9101 O   0  0  0  0  0  0  0  0  0  0  0  0
  -40.7094   57.5416   63.7403 C   0  0  0  0  0  0  0  0  0  0  0  0
  -40.4411   56.7680   65.5737 H   0  0  0  0  0  0  0  0  0  0  0  0
  -43.0487   56.7234   63.9189 C   0  0  0  0  0  0  0  0  0  0  0  0
  -41.7962   56.5628   63.5138 C   0  0  0  0  0  0  0  0  0  0  0  0
  -43.6328   57.8910   64.6511 C   0  0  0  0  0  0  0  0  0  0  0  0
  -45.1480   57.9507   64.5003 C   0  0  0  0  0  0  0  0  0  0  0  0
  -45.9036   57.6908   65.7920 C   0  0  0  0  0  0  0  0  0  0  0  0
  -47.1313   58.5694   65.9658 C   0  0  0  0  0  0  0  0  0  0  0  0
  -47.7948   58.9820   64.6653 C   0  0  0  0  0  0  0  0  0  0  0  0
  -48.4556   60.3491   64.7301 C   0  0  0  0  0  0  0  0  0  0  0  0
  -49.9012   60.3452   64.2730 C   0  0  0  0  0  0  0  0  0  0  0  0
  -50.4698   58.9498   64.1107 C   0  0  0  0  0  0  0  0  0  0  0  0
  -51.0270   58.6577   62.7307 C   0  0  0  0  0  0  0  0  0  0  0  0
  -49.9746   58.7475   61.6432 C   0  0  0  0  0  0  0  0  0  0  0  0
  -50.2694   57.8546   60.4491 C   0  0  0  0  0  0  0  0  0  0  0  0
  -49.5125   56.5379   60.4559 C   0  0  0  0  0  0  0  0  0  0  0  0
  -48.4443   56.4265   59.3789 C   0  0  0  0  0  0  0  0  0  0  0  0
  -47.4425   57.5730   59.3820 C   0  0  0  0  0  0  0  0  0  0  0  0
  -47.1049   58.0849   57.9910 C   0  0  0  0  0  0  0  0  0  0  0  0
  -46.9016   55.9726   56.6224 C   0  0  0  0  0  0  0  0  0  0  0  0
  -47.6697   57.2464   56.8588 C   0  0  0  0  0  0  0  0  0  0  0  0
 43 45  1  0  0  0
 43 42  1  0  0  0
 43 46  1  0  0  0
 64 65  1  0  0  0
 44 45  2  0  0  0
 65 63  1  0  0  0
  2  1  1  0  0  0
  2  4  1  0  0  0
  2  5  1  0  0  0
  3  4  2  0  0  0
 63 62  1  0  0  0
  6  8  1  0  0  0
  6 11  2  0  0  0
  7 10  1  0  0  0
  7 11  1  0  0  0
 62 61  1  0  0  0
 26 28  1  0  0  0
 26 32  1  0  0  0
 26 29  1  0  0  0
 12 18  1  0  0  0
 12 19  1  0  0  0
 61 60  1  0  0  0
 30 36  1  0  0  0
 30 37  1  0  0  0
 30 38  1  0  0  0
 20 21  2  0  0  0
 60 59  1  0  0  0
 22 21  1  0  0  0
 22 23  1  0  0  0
 59 58  1  0  0  0
 27 28  2  0  0  0
 58 57  1  0  0  0
 31 37  2  0  0  0
 57 56  1  0  0  0
 56 55  1  0  0  0
 55 54  1  0  0  0
 54 53  1  0  0  0
 53 52  1  0  0  0
 52 51  1  0  0  0
 51 50  1  0  0  0
 50 49  1  0  0  0
 49 47  1  0  0  0
 47 48  2  0  0  0
 48 45  1  0  0  0
 42 41  1  0  0  0
 41 40  1  0  0  0
 40 39  1  0  0  0
 39  1  1  0  0  0
  1 21  1  0  0  0
  8  4  1  0  0  0
  8  9  1  0  0  0
  8 10  1  0  0  0
 11 13  1  0  0  0
 13 14  2  0  0  0
 13 18  1  0  0  0
 14 15  1  0  0  0
 15 16  2  0  0  0
 16 17  1  0  0  0
 17 18  2  0  0  0
 23 24  1  0  0  0
 23 25  1  0  0  0
 25 28  1  0  0  0
 32 33  1  0  0  0
 32 37  1  0  0  0
 33 34  1  0  0  0
 34 35  1  0  0  0
 35 36  1  0  0  0
M  END
> <minimizedAffinity>
-8.91462

> <CNNscore>
0.1781357676

> <CNNaffinity>
7.1478819847

> <CNN_VS>
1.2732934952

> <CNNaffinity_variance>
0.7581962943

$$$$
/media/chris/experiments/cd1a-new-docking/inputs/ligands/7ryo_ligand.pdb


 65 67  0  0  0  0  0  0  0  0999 V2000
  -40.0388   60.0206   64.3279 C   0  0  0  0  0  0  0  0  0  0  0  0
  -38.9506   59.4805   63.5300 N   0  0  0  0  0  0  0  0  0  0  0  0
  -39.8249   60.1971   61.5870 O   0  0  0  0  0  0  0  0  0  0  0  0
  -38.9408   59.6200   62.2022 C   0  0  0  0  0  0  0  0  0  0  0  0
  -38.2113   59.0057   63.9744 H   0  0  0  0  0  0  0  0  0  0  0  0
  -36.4948   59.5708   61.9077 N   0  0  0  0  0  0  0  0  0  0  0  0
  -36.2038   57.3379   62.0206 O   0  0  0  0  0  0  0  0  0  0  0  0
  -37.7647   58.9987   61.4308 C   0  0  0  0  0  0  0  0  0  0  0  0
  -37.9260   59.3144   59.9469 C   0  0  0  0  0  0  0  0  0  0  0  0
  -37.6041   57.4911   61.6762 C   0  0  0  0  0  0  0  0  0  0  0  0
  -35.7324   58.5994   62.1990 C   0  0  0  0  0  0  0  0  0  0  0  0
  -35.0021   57.7507   64.8503 O   0  0  0  0  0  0  0  0  0  0  0  0
  -34.3643   58.6990   62.7129 C   0  0  0  0  0  0  0  0  0  0  0  0
  -33.3243   59.0848   61.8662 C   0  0  0  0  0  0  0  0  0  0  0  0
  -32.0061   58.9491   62.2663 C   0  0  0  0  0  0  0  0  0  0  0  0
  -31.7032   58.4311   63.5067 C   0  0  0  0  0  0  0  0  0  0  0  0
  -32.7152   58.0370   64.3629 C   0  0  0  0  0  0  0  0  0  0  0  0
  -34.0463   58.1636   63.9780 C   0  0  0  0  0  0  0  0  0  0  0  0
  -35.9078   57.8223   64.6214 H   0  0  0  0  0  0  0  0  0  0  0  0
  -40.0633   60.5067   66.6951 O   0  0  0  0  0  0  0  0  0  0  0  0
  -39.5239   60.6181   65.6288 C   0  0  0  0  0  0  0  0  0  0  0  0
  -38.3897   61.3075   65.4150 O   0  0  0  0  0  0  0  0  0  0  0  0
  -37.2385   61.0298   66.2794 C   0  0  0  0  0  0  0  0  0  0  0  0
  -36.8749   62.3047   66.9978 C   0  0  0  0  0  0  0  0  0  0  0  0
  -36.1368   60.5563   65.3512 C   0  0  0  0  0  0  0  0  0  0  0  0
  -34.5604   62.0597   64.3039 N   0  0  0  0  0  0  0  0  0  0  0  0
  -34.2438   61.5113   66.4628 O   0  0  0  0  0  0  0  0  0  0  0  0
  -34.8935   61.4145   65.4255 C   0  0  0  0  0  0  0  0  0  0  0  0
  -35.1192   61.9439   63.5017 H   0  0  0  0  0  0  0  0  0  0  0  0
  -32.9914   65.3140   64.5078 N   0  0  0  0  0  0  0  0  0  0  0  0
  -35.0404   64.6360   63.8972 O   0  0  0  0  0  0  0  0  0  0  0  0
  -33.3973   62.9269   64.2343 C   0  0  0  0  0  0  0  0  0  0  0  0
  -32.5904   62.6252   62.9664 C   0  0  0  0  0  0  0  0  0  0  0  0
  -31.1547   63.1361   63.0198 C   0  0  0  0  0  0  0  0  0  0  0  0
  -31.0023   64.6377   63.1606 C   0  0  0  0  0  0  0  0  0  0  0  0
  -31.5380   65.1959   64.4625 C   0  0  0  0  0  0  0  0  0  0  0  0
  -33.8809   64.3680   64.1982 C   0  0  0  0  0  0  0  0  0  0  0  0
  -33.3542   66.1823   64.7970 H   0  0  0  0  0  0  0  0  0  0  0  0
  -41.1079   58.9610   64.5988 C   0  0  0  0  0  0  0  0  0  0  0  0
  -40.5556   57.5427   64.5068 C   0  0  0  0  0  0  0  0  0  0  0  0
  -41.0543   56.7854   63.2901 C   0  0  0  0  0  0  0  0  0  0  0  0
  -42.5159   56.3975   63.3412 C   0  0  0  0  0  0  0  0  0  0  0  0
  -43.0275   56.4680   64.7007 N   0  0  0  0  0  0  0  0  0  0  0  0
  -44.4921   58.1241   64.2464 O   0  0  0  0  0  0  0  0  0  0  0  0
  -43.9845   57.3317   65.0570 C   0  0  0  0  0  0  0  0  0  0  0  0
  -42.6572   55.8602   65.3810 H   0  0  0  0  0  0  0  0  0  0  0  0
  -45.4348   57.8090   67.0171 C   0  0  0  0  0  0  0  0  0  0  0  0
  -44.3201   57.3122   66.4983 C   0  0  0  0  0  0  0  0  0  0  0  0
  -46.5722   58.4596   66.2936 C   0  0  0  0  0  0  0  0  0  0  0  0
  -47.5913   57.4360   65.8081 C   0  0  0  0  0  0  0  0  0  0  0  0
  -49.0342   57.8803   65.9746 C   0  0  0  0  0  0  0  0  0  0  0  0
  -49.1966   59.3862   66.0976 C   0  0  0  0  0  0  0  0  0  0  0  0
  -49.1724   60.1284   64.7747 C   0  0  0  0  0  0  0  0  0  0  0  0
  -50.5566   60.4237   64.2210 C   0  0  0  0  0  0  0  0  0  0  0  0
  -50.7488   59.9581   62.7910 C   0  0  0  0  0  0  0  0  0  0  0  0
  -51.1778   58.5081   62.6903 C   0  0  0  0  0  0  0  0  0  0  0  0
  -50.2806   57.6490   61.8201 C   0  0  0  0  0  0  0  0  0  0  0  0
  -48.9515   58.3116   61.5157 C   0  0  0  0  0  0  0  0  0  0  0  0
  -48.4036   57.9531   60.1441 C   0  0  0  0  0  0  0  0  0  0  0  0
  -48.9386   56.6469   59.5833 C   0  0  0  0  0  0  0  0  0  0  0  0
  -47.8605   55.6657   59.1497 C   0  0  0  0  0  0  0  0  0  0  0  0
  -47.7917   55.4497   57.6441 C   0  0  0  0  0  0  0  0  0  0  0  0
  -47.9733   56.7274   56.8408 C   0  0  0  0  0  0  0  0  0  0  0  0
  -46.2418   58.4348   57.5211 C   0  0  0  0  0  0  0  0  0  0  0  0
  -46.6784   57.4342   56.4836 C   0  0  0  0  0  0  0  0  0  0  0  0
 43 45  1  0  0  0
 43 42  1  0  0  0
 43 46  1  0  0  0
 64 65  1  0  0  0
 44 45  2  0  0  0
 65 63  1  0  0  0
  2  1  1  0  0  0
  2  4  1  0  0  0
  2  5  1  0  0  0
  3  4  2  0  0  0
 63 62  1  0  0  0
  6  8  1  0  0  0
  6 11  2  0  0  0
  7 10  1  0  0  0
  7 11  1  0  0  0
 62 61  1  0  0  0
 26 28  1  0  0  0
 26 32  1  0  0  0
 26 29  1  0  0  0
 12 18  1  0  0  0
 12 19  1  0  0  0
 61 60  1  0  0  0
 30 36  1  0  0  0
 30 37  1  0  0  0
 30 38  1  0  0  0
 20 21  2  0  0  0
 60 59  1  0  0  0
 22 21  1  0  0  0
 22 23  1  0  0  0
 59 58  1  0  0  0
 27 28  2  0  0  0
 58 57  1  0  0  0
 31 37  2  0  0  0
 57 56  1  0  0  0
 56 55  1  0  0  0
 55 54  1  0  0  0
 54 53  1  0  0  0
 53 52  1  0  0  0
 52 51  1  0  0  0
 51 50  1  0  0  0
 50 49  1  0  0  0
 49 47  1  0  0  0
 47 48  2  0  0  0
 48 45  1  0  0  0
 42 41  1  0  0  0
 41 40  1  0  0  0
 40 39  1  0  0  0
 39  1  1  0  0  0
  1 21  1  0  0  0
  8  4  1  0  0  0
  8  9  1  0  0  0
  8 10  1  0  0  0
 11 13  1  0  0  0
 13 14  2  0  0  0
 13 18  1  0  0  0
 14 15  1  0  0  0
 15 16  2  0  0  0
 16 17  1  0  0  0
 17 18  2  0  0  0
 23 24  1  0  0  0
 23 25  1  0  0  0
 25 28  1  0  0  0
 32 33  1  0  0  0
 32 37  1  0  0  0
 33 34  1  0  0  0
 34 35  1  0  0  0
 35 36  1  0  0  0
M  END
> <minimizedAffinity>
-9.42876

> <CNNscore>
0.1727205664

> <CNNaffinity>
7.4384689331

> <CNN_VS>
1.2847765684

> <CNNaffinity_variance>
1.1902439594

$$$$
/media/chris/experiments/cd1a-new-docking/inputs/ligands/7ryo_ligand.pdb


 65 67  0  0  0  0  0  0  0  0999 V2000
  -37.5716   58.9416   63.6367 C   0  0  0  0  0  0  0  0  0  0  0  0
  -36.6095   59.6106   64.4965 N   0  0  0  0  0  0  0  0  0  0  0  0
  -36.3992   61.3823   63.1288 O   0  0  0  0  0  0  0  0  0  0  0  0
  -36.0983   60.7967   64.1583 C   0  0  0  0  0  0  0  0  0  0  0  0
  -36.3313   59.1838   65.3389 H   0  0  0  0  0  0  0  0  0  0  0  0
  -34.1644   62.3106   64.3600 N   0  0  0  0  0  0  0  0  0  0  0  0
  -34.9218   63.5712   66.0690 O   0  0  0  0  0  0  0  0  0  0  0  0
  -35.0689   61.4252   65.1121 C   0  0  0  0  0  0  0  0  0  0  0  0
  -34.2505   60.3115   65.7583 C   0  0  0  0  0  0  0  0  0  0  0  0
  -35.6987   62.3503   66.1639 C   0  0  0  0  0  0  0  0  0  0  0  0
  -34.1596   63.4321   64.9530 C   0  0  0  0  0  0  0  0  0  0  0  0
  -32.4996   64.9014   66.7885 O   0  0  0  0  0  0  0  0  0  0  0  0
  -33.3958   64.6168   64.5545 C   0  0  0  0  0  0  0  0  0  0  0  0
  -33.3370   64.9935   63.2121 C   0  0  0  0  0  0  0  0  0  0  0  0
  -32.4328   65.9533   62.7911 C   0  0  0  0  0  0  0  0  0  0  0  0
  -31.5783   66.5500   63.6925 C   0  0  0  0  0  0  0  0  0  0  0  0
  -31.6132   66.1912   65.0277 C   0  0  0  0  0  0  0  0  0  0  0  0
  -32.5137   65.2270   65.4697 C   0  0  0  0  0  0  0  0  0  0  0  0
  -33.0933   64.2558   67.1180 H   0  0  0  0  0  0  0  0  0  0  0  0
  -39.4976   59.7111   64.8772 O   0  0  0  0  0  0  0  0  0  0  0  0
  -38.9257   58.8160   64.3187 C   0  0  0  0  0  0  0  0  0  0  0  0
  -39.3848   57.5557   64.2274 O   0  0  0  0  0  0  0  0  0  0  0  0
  -40.7224   57.3461   63.6650 C   0  0  0  0  0  0  0  0  0  0  0  0
  -40.6052   56.3514   62.5379 C   0  0  0  0  0  0  0  0  0  0  0  0
  -41.1813   58.7096   63.1858 C   0  0  0  0  0  0  0  0  0  0  0  0
  -43.1903   58.1885   64.4246 N   0  0  0  0  0  0  0  0  0  0  0  0
  -42.8655   60.3123   63.7569 O   0  0  0  0  0  0  0  0  0  0  0  0
  -42.4883   59.1451   63.8102 C   0  0  0  0  0  0  0  0  0  0  0  0
  -42.8382   57.2692   64.4355 H   0  0  0  0  0  0  0  0  0  0  0  0
  -45.3097   58.3142   67.3548 N   0  0  0  0  0  0  0  0  0  0  0  0
  -43.5942   56.9975   66.7595 O   0  0  0  0  0  0  0  0  0  0  0  0
  -44.4581   58.4661   65.0768 C   0  0  0  0  0  0  0  0  0  0  0  0
  -45.6084   57.8398   64.2804 C   0  0  0  0  0  0  0  0  0  0  0  0
  -46.9734   58.4356   64.6074 C   0  0  0  0  0  0  0  0  0  0  0  0
  -47.4318   58.2653   66.0422 C   0  0  0  0  0  0  0  0  0  0  0  0
  -46.5704   58.9859   67.0581 C   0  0  0  0  0  0  0  0  0  0  0  0
  -44.4171   57.8617   66.4714 C   0  0  0  0  0  0  0  0  0  0  0  0
  -45.0947   58.1808   68.3062 H   0  0  0  0  0  0  0  0  0  0  0  0
  -37.0574   57.5731   63.1873 C   0  0  0  0  0  0  0  0  0  0  0  0
  -37.1230   57.3969   61.6740 C   0  0  0  0  0  0  0  0  0  0  0  0
  -36.5510   58.5766   60.9101 C   0  0  0  0  0  0  0  0  0  0  0  0
  -37.5745   59.4035   60.1630 C   0  0  0  0  0  0  0  0  0  0  0  0
  -38.8209   58.6713   60.0033 N   0  0  0  0  0  0  0  0  0  0  0  0
  -40.0111   60.4907   59.3972 O   0  0  0  0  0  0  0  0  0  0  0  0
  -39.9560   59.2719   59.6296 C   0  0  0  0  0  0  0  0  0  0  0  0
  -38.8294   57.7021   60.1758 H   0  0  0  0  0  0  0  0  0  0  0  0
  -41.9408   58.2358   58.5524 C   0  0  0  0  0  0  0  0  0  0  0  0
  -41.1372   58.3808   59.5973 C   0  0  0  0  0  0  0  0  0  0  0  0
  -41.8326   58.8971   57.2139 C   0  0  0  0  0  0  0  0  0  0  0  0
  -43.2001   59.1009   56.5732 C   0  0  0  0  0  0  0  0  0  0  0  0
  -44.3058   58.2789   57.2128 C   0  0  0  0  0  0  0  0  0  0  0  0
  -45.6691   58.9481   57.1605 C   0  0  0  0  0  0  0  0  0  0  0  0
  -46.8339   58.0185   57.4446 C   0  0  0  0  0  0  0  0  0  0  0  0
  -46.5629   56.5735   57.0599 C   0  0  0  0  0  0  0  0  0  0  0  0
  -46.9656   55.5765   58.1288 C   0  0  0  0  0  0  0  0  0  0  0  0
  -48.3815   55.7805   58.6291 C   0  0  0  0  0  0  0  0  0  0  0  0
  -48.4737   56.3721   60.0225 C   0  0  0  0  0  0  0  0  0  0  0  0
  -49.8762   56.3080   60.5943 C   0  0  0  0  0  0  0  0  0  0  0  0
  -50.4598   57.6766   60.9047 C   0  0  0  0  0  0  0  0  0  0  0  0
  -49.4338   58.7019   61.3552 C   0  0  0  0  0  0  0  0  0  0  0  0
  -49.9939   59.7903   62.2578 C   0  0  0  0  0  0  0  0  0  0  0  0
  -51.1766   59.3417   63.1052 C   0  0  0  0  0  0  0  0  0  0  0  0
  -50.7824   58.8862   64.5009 C   0  0  0  0  0  0  0  0  0  0  0  0
  -50.2442   61.3015   65.0034 C   0  0  0  0  0  0  0  0  0  0  0  0
  -50.7606   59.9924   65.5400 C   0  0  0  0  0  0  0  0  0  0  0  0
 43 45  1  0  0  0
 43 42  1  0  0  0
 43 46  1  0  0  0
 64 65  1  0  0  0
 44 45  2  0  0  0
 65 63  1  0  0  0
  2  1  1  0  0  0
  2  4  1  0  0  0
  2  5  1  0  0  0
  3  4  2  0  0  0
 63 62  1  0  0  0
  6  8  1  0  0  0
  6 11  2  0  0  0
  7 10  1  0  0  0
  7 11  1  0  0  0
 62 61  1  0  0  0
 26 28  1  0  0  0
 26 32  1  0  0  0
 26 29  1  0  0  0
 12 18  1  0  0  0
 12 19  1  0  0  0
 61 60  1  0  0  0
 30 36  1  0  0  0
 30 37  1  0  0  0
 30 38  1  0  0  0
 20 21  2  0  0  0
 60 59  1  0  0  0
 22 21  1  0  0  0
 22 23  1  0  0  0
 59 58  1  0  0  0
 27 28  2  0  0  0
 58 57  1  0  0  0
 31 37  2  0  0  0
 57 56  1  0  0  0
 56 55  1  0  0  0
 55 54  1  0  0  0
 54 53  1  0  0  0
 53 52  1  0  0  0
 52 51  1  0  0  0
 51 50  1  0  0  0
 50 49  1  0  0  0
 49 47  1  0  0  0
 47 48  2  0  0  0
 48 45  1  0  0  0
 42 41  1  0  0  0
 41 40  1  0  0  0
 40 39  1  0  0  0
 39  1  1  0  0  0
  1 21  1  0  0  0
  8  4  1  0  0  0
  8  9  1  0  0  0
  8 10  1  0  0  0
 11 13  1  0  0  0
 13 14  2  0  0  0
 13 18  1  0  0  0
 14 15  1  0  0  0
 15 16  2  0  0  0
 16 17  1  0  0  0
 17 18  2  0  0  0
 23 24  1  0  0  0
 23 25  1  0  0  0
 25 28  1  0  0  0
 32 33  1  0  0  0
 32 37  1  0  0  0
 33 34  1  0  0  0
 34 35  1  0  0  0
 35 36  1  0  0  0
M  END
> <minimizedAffinity>
-8.25794

> <CNNscore>
0.1637899131

> <CNNaffinity>
7.4433808327

> <CNN_VS>
1.2191506624

> <CNNaffinity_variance>
0.8571401834

$$$$
