/media/chris/experiments/cd1a-new-docking/inputs/ligands/7ryo_ligand.pdb


 65 67  0  0  0  0  0  0  0  0999 V2000
  -39.5610   60.5643   63.1436 C   0  0  0  0  0  0  0  0  0  0  0  0
  -38.7543   59.5660   62.4616 N   0  0  0  0  0  0  0  0  0  0  0  0
  -37.3798   61.0908   61.5454 O   0  0  0  0  0  0  0  0  0  0  0  0
  -37.7132   59.9264   61.7071 C   0  0  0  0  0  0  0  0  0  0  0  0
  -38.9782   58.6121   62.5571 H   0  0  0  0  0  0  0  0  0  0  0  0
  -35.4816   59.0744   61.1016 N   0  0  0  0  0  0  0  0  0  0  0  0
  -35.7363   56.9588   61.8383 O   0  0  0  0  0  0  0  0  0  0  0  0
  -36.9265   58.8097   61.0013 C   0  0  0  0  0  0  0  0  0  0  0  0
  -37.3253   58.7797   59.5290 C   0  0  0  0  0  0  0  0  0  0  0  0
  -37.0952   57.4341   61.6632 C   0  0  0  0  0  0  0  0  0  0  0  0
  -34.9395   58.0238   61.5616 C   0  0  0  0  0  0  0  0  0  0  0  0
  -33.1787   60.1987   62.2347 O   0  0  0  0  0  0  0  0  0  0  0  0
  -33.5111   57.8330   61.8250 C   0  0  0  0  0  0  0  0  0  0  0  0
  -32.9782   56.5454   61.8981 C   0  0  0  0  0  0  0  0  0  0  0  0
  -31.6974   56.3421   62.3826 C   0  0  0  0  0  0  0  0  0  0  0  0
  -30.9315   57.4090   62.7991 C   0  0  0  0  0  0  0  0  0  0  0  0
  -31.4380   58.6947   62.7413 C   0  0  0  0  0  0  0  0  0  0  0  0
  -32.7237   58.9191   62.2594 C   0  0  0  0  0  0  0  0  0  0  0  0
  -34.0403   60.3835   61.9159 H   0  0  0  0  0  0  0  0  0  0  0  0
  -40.0933   61.0597   65.4483 O   0  0  0  0  0  0  0  0  0  0  0  0
  -39.5217   60.3677   64.6517 C   0  0  0  0  0  0  0  0  0  0  0  0
  -38.7394   59.3220   64.9709 O   0  0  0  0  0  0  0  0  0  0  0  0
  -37.6074   59.5550   65.8730 C   0  0  0  0  0  0  0  0  0  0  0  0
  -38.0841   60.4291   67.0055 C   0  0  0  0  0  0  0  0  0  0  0  0
  -36.5460   60.2330   65.0284 C   0  0  0  0  0  0  0  0  0  0  0  0
  -34.1343   60.2516   64.8697 N   0  0  0  0  0  0  0  0  0  0  0  0
  -35.1692   58.2828   65.2084 O   0  0  0  0  0  0  0  0  0  0  0  0
  -35.2242   59.4980   65.0409 C   0  0  0  0  0  0  0  0  0  0  0  0
  -33.2497   59.8195   64.8670 H   0  0  0  0  0  0  0  0  0  0  0  0
  -33.9283   63.6417   66.1179 N   0  0  0  0  0  0  0  0  0  0  0  0
  -34.5069   61.6925   67.0648 O   0  0  0  0  0  0  0  0  0  0  0  0
  -34.2173   61.6903   64.6877 C   0  0  0  0  0  0  0  0  0  0  0  0
  -35.5030   62.0528   63.9358 C   0  0  0  0  0  0  0  0  0  0  0  0
  -35.4716   63.4410   63.3058 C   0  0  0  0  0  0  0  0  0  0  0  0
  -35.3191   64.5943   64.2776 C   0  0  0  0  0  0  0  0  0  0  0  0
  -34.0021   64.6054   65.0249 C   0  0  0  0  0  0  0  0  0  0  0  0
  -34.2303   62.3427   66.0610 C   0  0  0  0  0  0  0  0  0  0  0  0
  -33.6239   63.9856   66.9888 H   0  0  0  0  0  0  0  0  0  0  0  0
  -41.0014   60.5602   62.6295 C   0  0  0  0  0  0  0  0  0  0  0  0
  -41.1670   59.7109   61.3739 C   0  0  0  0  0  0  0  0  0  0  0  0
  -40.8638   58.2417   61.6024 C   0  0  0  0  0  0  0  0  0  0  0  0
  -42.0829   57.3658   61.7921 C   0  0  0  0  0  0  0  0  0  0  0  0
  -41.9089   56.4666   62.9216 N   0  0  0  0  0  0  0  0  0  0  0  0
  -42.0877   56.0502   65.1325 O   0  0  0  0  0  0  0  0  0  0  0  0
  -42.2490   56.8148   64.1673 C   0  0  0  0  0  0  0  0  0  0  0  0
  -41.5284   55.5723   62.7642 H   0  0  0  0  0  0  0  0  0  0  0  0
  -44.0736   58.3567   64.8508 C   0  0  0  0  0  0  0  0  0  0  0  0
  -42.8983   58.1404   64.2760 C   0  0  0  0  0  0  0  0  0  0  0  0
  -44.9690   57.3557   65.5117 C   0  0  0  0  0  0  0  0  0  0  0  0
  -45.4523   57.8428   66.8722 C   0  0  0  0  0  0  0  0  0  0  0  0
  -46.9165   57.5454   67.1456 C   0  0  0  0  0  0  0  0  0  0  0  0
  -47.5897   56.7420   66.0454 C   0  0  0  0  0  0  0  0  0  0  0  0
  -48.8600   57.3678   65.5010 C   0  0  0  0  0  0  0  0  0  0  0  0
  -49.4345   58.4505   66.3996 C   0  0  0  0  0  0  0  0  0  0  0  0
  -49.6311   59.7794   65.6967 C   0  0  0  0  0  0  0  0  0  0  0  0
  -51.0344   59.9638   65.1550 C   0  0  0  0  0  0  0  0  0  0  0  0
  -51.0929   60.3788   63.6974 C   0  0  0  0  0  0  0  0  0  0  0  0
  -51.1777   59.1948   62.7544 C   0  0  0  0  0  0  0  0  0  0  0  0
  -49.8171   58.6930   62.2991 C   0  0  0  0  0  0  0  0  0  0  0  0
  -49.6722   58.5708   60.7922 C   0  0  0  0  0  0  0  0  0  0  0  0
  -48.3648   57.9388   60.3401 C   0  0  0  0  0  0  0  0  0  0  0  0
  -48.1334   58.0075   58.8368 C   0  0  0  0  0  0  0  0  0  0  0  0
  -46.6958   57.7229   58.4325 C   0  0  0  0  0  0  0  0  0  0  0  0
  -47.8468   56.9816   56.3107 C   0  0  0  0  0  0  0  0  0  0  0  0
  -46.5391   57.1338   57.0424 C   0  0  0  0  0  0  0  0  0  0  0  0
 43 45  1  0  0  0
 43 42  1  0  0  0
 43 46  1  0  0  0
 64 65  1  0  0  0
 44 45  2  0  0  0
 65 63  1  0  0  0
  2  1  1  0  0  0
  2  4  1  0  0  0
  2  5  1  0  0  0
  3  4  2  0  0  0
 63 62  1  0  0  0
  6  8  1  0  0  0
  6 11  2  0  0  0
  7 10  1  0  0  0
  7 11  1  0  0  0
 62 61  1  0  0  0
 26 28  1  0  0  0
 26 32  1  0  0  0
 26 29  1  0  0  0
 12 18  1  0  0  0
 12 19  1  0  0  0
 61 60  1  0  0  0
 30 36  1  0  0  0
 30 37  1  0  0  0
 30 38  1  0  0  0
 20 21  2  0  0  0
 60 59  1  0  0  0
 22 21  1  0  0  0
 22 23  1  0  0  0
 59 58  1  0  0  0
 27 28  2  0  0  0
 58 57  1  0  0  0
 31 37  2  0  0  0
 57 56  1  0  0  0
 56 55  1  0  0  0
 55 54  1  0  0  0
 54 53  1  0  0  0
 53 52  1  0  0  0
 52 51  1  0  0  0
 51 50  1  0  0  0
 50 49  1  0  0  0
 49 47  1  0  0  0
 47 48  2  0  0  0
 48 45  1  0  0  0
 42 41  1  0  0  0
 41 40  1  0  0  0
 40 39  1  0  0  0
 39  1  1  0  0  0
  1 21  1  0  0  0
  8  4  1  0  0  0
  8  9  1  0  0  0
  8 10  1  0  0  0
 11 13  1  0  0  0
 13 14  2  0  0  0
 13 18  1  0  0  0
 14 15  1  0  0  0
 15 16  2  0  0  0
 16 17  1  0  0  0
 17 18  2  0  0  0
 23 24  1  0  0  0
 23 25  1  0  0  0
 25 28  1  0  0  0
 32 33  1  0  0  0
 32 37  1  0  0  0
 33 34  1  0  0  0
 34 35  1  0  0  0
 35 36  1  0  0  0
M  END
> <minimizedAffinity>
-8.92098

> <CNNscore>
0.2988705039

> <CNNaffinity>
7.8387961388

> <CNN_VS>
2.3427848816

> <CNNaffinity_variance>
0.9290242195

$$$$
/media/chris/experiments/cd1a-new-docking/inputs/ligands/7ryo_ligand.pdb


 65 67  0  0  0  0  0  0  0  0999 V2000
  -34.9580   58.1159   64.1186 C   0  0  0  0  0  0  0  0  0  0  0  0
  -36.1210   58.9869   64.0859 N   0  0  0  0  0  0  0  0  0  0  0  0
  -37.3160   57.6863   65.4767 O   0  0  0  0  0  0  0  0  0  0  0  0
  -37.2199   58.6877   64.7830 C   0  0  0  0  0  0  0  0  0  0  0  0
  -36.0984   59.8079   63.5429 H   0  0  0  0  0  0  0  0  0  0  0  0
  -39.6579   58.8857   64.4837 N   0  0  0  0  0  0  0  0  0  0  0  0
  -40.0828   60.2598   66.2199 O   0  0  0  0  0  0  0  0  0  0  0  0
  -38.4142   59.6501   64.6750 C   0  0  0  0  0  0  0  0  0  0  0  0
  -38.2033   60.5653   63.4725 C   0  0  0  0  0  0  0  0  0  0  0  0
  -38.6689   60.4512   65.9602 C   0  0  0  0  0  0  0  0  0  0  0  0
  -40.4823   59.2862   65.3608 C   0  0  0  0  0  0  0  0  0  0  0  0
  -42.4556   59.3782   63.2676 O   0  0  0  0  0  0  0  0  0  0  0  0
  -41.8526   58.8018   65.5434 C   0  0  0  0  0  0  0  0  0  0  0  0
  -42.2102   58.1375   66.7174 C   0  0  0  0  0  0  0  0  0  0  0  0
  -43.4176   57.4660   66.8043 C   0  0  0  0  0  0  0  0  0  0  0  0
  -44.2829   57.4448   65.7322 C   0  0  0  0  0  0  0  0  0  0  0  0
  -43.9502   58.0914   64.5557 C   0  0  0  0  0  0  0  0  0  0  0  0
  -42.7404   58.7699   64.4483 C   0  0  0  0  0  0  0  0  0  0  0  0
  -41.6490   59.8435   63.1629 H   0  0  0  0  0  0  0  0  0  0  0  0
  -33.5683   59.6448   65.3722 O   0  0  0  0  0  0  0  0  0  0  0  0
  -33.6934   58.8975   64.4416 C   0  0  0  0  0  0  0  0  0  0  0  0
  -32.7398   58.6508   63.5266 O   0  0  0  0  0  0  0  0  0  0  0  0
  -32.5342   59.6350   62.4594 C   0  0  0  0  0  0  0  0  0  0  0  0
  -31.7536   58.9699   61.3539 C   0  0  0  0  0  0  0  0  0  0  0  0
  -31.7689   60.7767   63.0999 C   0  0  0  0  0  0  0  0  0  0  0  0
  -32.5619   63.0482   62.8678 N   0  0  0  0  0  0  0  0  0  0  0  0
  -31.2974   62.1827   61.2205 O   0  0  0  0  0  0  0  0  0  0  0  0
  -31.8553   62.0622   62.3076 C   0  0  0  0  0  0  0  0  0  0  0  0
  -32.6504   63.9043   62.3899 H   0  0  0  0  0  0  0  0  0  0  0  0
  -35.4206   62.2437   64.9352 N   0  0  0  0  0  0  0  0  0  0  0  0
  -35.2130   63.1169   62.8797 O   0  0  0  0  0  0  0  0  0  0  0  0
  -33.2030   62.8930   64.1619 C   0  0  0  0  0  0  0  0  0  0  0  0
  -32.9226   64.1185   65.0389 C   0  0  0  0  0  0  0  0  0  0  0  0
  -33.1508   63.8707   66.5261 C   0  0  0  0  0  0  0  0  0  0  0  0
  -34.5686   63.5017   66.9152 C   0  0  0  0  0  0  0  0  0  0  0  0
  -35.0450   62.1828   66.3437 C   0  0  0  0  0  0  0  0  0  0  0  0
  -34.7009   62.7610   63.9370 C   0  0  0  0  0  0  0  0  0  0  0  0
  -36.2967   61.8636   64.6959 H   0  0  0  0  0  0  0  0  0  0  0  0
  -34.8039   57.3456   62.8064 C   0  0  0  0  0  0  0  0  0  0  0  0
  -35.6918   57.9025   61.6988 C   0  0  0  0  0  0  0  0  0  0  0  0
  -37.0315   57.1974   61.5960 C   0  0  0  0  0  0  0  0  0  0  0  0
  -38.1888   58.0906   61.2057 C   0  0  0  0  0  0  0  0  0  0  0  0
  -39.4619   57.4292   61.4435 N   0  0  0  0  0  0  0  0  0  0  0  0
  -41.7087   57.3842   61.2352 O   0  0  0  0  0  0  0  0  0  0  0  0
  -40.6213   57.9440   61.0198 C   0  0  0  0  0  0  0  0  0  0  0  0
  -39.4707   56.5747   61.9324 H   0  0  0  0  0  0  0  0  0  0  0  0
  -40.9902   59.3442   59.0007 C   0  0  0  0  0  0  0  0  0  0  0  0
  -40.4843   59.1788   60.2152 C   0  0  0  0  0  0  0  0  0  0  0  0
  -41.7988   58.3688   58.2036 C   0  0  0  0  0  0  0  0  0  0  0  0
  -42.2281   58.9539   56.8637 C   0  0  0  0  0  0  0  0  0  0  0  0
  -43.7214   59.2100   56.7564 C   0  0  0  0  0  0  0  0  0  0  0  0
  -44.5737   58.0255   57.1803 C   0  0  0  0  0  0  0  0  0  0  0  0
  -46.0211   58.3700   57.4766 C   0  0  0  0  0  0  0  0  0  0  0  0
  -46.9981   57.2785   57.0720 C   0  0  0  0  0  0  0  0  0  0  0  0
  -46.9440   56.0555   57.9664 C   0  0  0  0  0  0  0  0  0  0  0  0
  -48.0542   56.0233   58.9976 C   0  0  0  0  0  0  0  0  0  0  0  0
  -48.1086   57.2436   59.8967 C   0  0  0  0  0  0  0  0  0  0  0  0
  -49.4964   57.8478   59.9807 C   0  0  0  0  0  0  0  0  0  0  0  0
  -50.4212   57.0957   60.9238 C   0  0  0  0  0  0  0  0  0  0  0  0
  -51.1673   57.9851   61.9030 C   0  0  0  0  0  0  0  0  0  0  0  0
  -50.2843   58.9799   62.6404 C   0  0  0  0  0  0  0  0  0  0  0  0
  -50.1436   58.6950   64.1294 C   0  0  0  0  0  0  0  0  0  0  0  0
  -48.8132   58.0598   64.5006 C   0  0  0  0  0  0  0  0  0  0  0  0
  -47.9331   59.2695   66.5350 C   0  0  0  0  0  0  0  0  0  0  0  0
  -47.7866   59.0308   65.0551 C   0  0  0  0  0  0  0  0  0  0  0  0
 43 45  1  0  0  0
 43 42  1  0  0  0
 43 46  1  0  0  0
 64 65  1  0  0  0
 44 45  2  0  0  0
 65 63  1  0  0  0
  2  1  1  0  0  0
  2  4  1  0  0  0
  2  5  1  0  0  0
  3  4  2  0  0  0
 63 62  1  0  0  0
  6  8  1  0  0  0
  6 11  2  0  0  0
  7 10  1  0  0  0
  7 11  1  0  0  0
 62 61  1  0  0  0
 26 28  1  0  0  0
 26 32  1  0  0  0
 26 29  1  0  0  0
 12 18  1  0  0  0
 12 19  1  0  0  0
 61 60  1  0  0  0
 30 36  1  0  0  0
 30 37  1  0  0  0
 30 38  1  0  0  0
 20 21  2  0  0  0
 60 59  1  0  0  0
 22 21  1  0  0  0
 22 23  1  0  0  0
 59 58  1  0  0  0
 27 28  2  0  0  0
 58 57  1  0  0  0
 31 37  2  0  0  0
 57 56  1  0  0  0
 56 55  1  0  0  0
 55 54  1  0  0  0
 54 53  1  0  0  0
 53 52  1  0  0  0
 52 51  1  0  0  0
 51 50  1  0  0  0
 50 49  1  0  0  0
 49 47  1  0  0  0
 47 48  2  0  0  0
 48 45  1  0  0  0
 42 41  1  0  0  0
 41 40  1  0  0  0
 40 39  1  0  0  0
 39  1  1  0  0  0
  1 21  1  0  0  0
  8  4  1  0  0  0
  8  9  1  0  0  0
  8 10  1  0  0  0
 11 13  1  0  0  0
 13 14  2  0  0  0
 13 18  1  0  0  0
 14 15  1  0  0  0
 15 16  2  0  0  0
 16 17  1  0  0  0
 17 18  2  0  0  0
 23 24  1  0  0  0
 23 25  1  0  0  0
 25 28  1  0  0  0
 32 33  1  0  0  0
 32 37  1  0  0  0
 33 34  1  0  0  0
 34 35  1  0  0  0
 35 36  1  0  0  0
M  END
> <minimizedAffinity>
-8.63035

> <CNNscore>
0.2886613905

> <CNNaffinity>
7.4890608788

> <CNN_VS>
2.1618027687

> <CNNaffinity_variance>
1.3847388029

$$$$
/media/chris/experiments/cd1a-new-docking/inputs/ligands/7ryo_ligand.pdb


 65 67  0  0  0  0  0  0  0  0999 V2000
  -36.8720   61.7831   64.4628 C   0  0  0  0  0  0  0  0  0  0  0  0
  -36.4590   60.7225   63.5590 N   0  0  0  0  0  0  0  0  0  0  0  0
  -38.5146   60.4667   62.6857 O   0  0  0  0  0  0  0  0  0  0  0  0
  -37.3362   60.1466   62.7333 C   0  0  0  0  0  0  0  0  0  0  0  0
  -35.5205   60.4249   63.5554 H   0  0  0  0  0  0  0  0  0  0  0  0
  -35.3575   59.0989   61.7041 N   0  0  0  0  0  0  0  0  0  0  0  0
  -35.7696   56.9681   62.3152 O   0  0  0  0  0  0  0  0  0  0  0  0
  -36.8225   59.0163   61.8263 C   0  0  0  0  0  0  0  0  0  0  0  0
  -37.4462   59.1717   60.4426 C   0  0  0  0  0  0  0  0  0  0  0  0
  -37.0650   57.6142   62.4040 C   0  0  0  0  0  0  0  0  0  0  0  0
  -34.8929   57.9533   61.9889 C   0  0  0  0  0  0  0  0  0  0  0  0
  -33.0290   58.9335   63.9508 O   0  0  0  0  0  0  0  0  0  0  0  0
  -33.4785   57.5721   61.9964 C   0  0  0  0  0  0  0  0  0  0  0  0
  -33.0127   56.5912   61.1200 C   0  0  0  0  0  0  0  0  0  0  0  0
  -31.7482   56.0507   61.2789 C   0  0  0  0  0  0  0  0  0  0  0  0
  -30.9323   56.4745   62.3052 C   0  0  0  0  0  0  0  0  0  0  0  0
  -31.3718   57.4421   63.1903 C   0  0  0  0  0  0  0  0  0  0  0  0
  -32.6402   57.9957   63.0482 C   0  0  0  0  0  0  0  0  0  0  0  0
  -33.8773   59.3258   63.8829 H   0  0  0  0  0  0  0  0  0  0  0  0
  -36.0573   64.0035   64.9591 O   0  0  0  0  0  0  0  0  0  0  0  0
  -36.0662   63.0519   64.2279 C   0  0  0  0  0  0  0  0  0  0  0  0
  -35.3800   62.9683   63.0749 O   0  0  0  0  0  0  0  0  0  0  0  0
  -34.4861   64.0751   62.7203 C   0  0  0  0  0  0  0  0  0  0  0  0
  -35.0346   64.7416   61.4840 C   0  0  0  0  0  0  0  0  0  0  0  0
  -33.1291   63.4421   62.4807 C   0  0  0  0  0  0  0  0  0  0  0  0
  -31.7886   64.8129   63.9524 N   0  0  0  0  0  0  0  0  0  0  0  0
  -31.2753   64.7757   61.7622 O   0  0  0  0  0  0  0  0  0  0  0  0
  -31.9829   64.4054   62.6949 C   0  0  0  0  0  0  0  0  0  0  0  0
  -31.0566   65.4429   64.1433 H   0  0  0  0  0  0  0  0  0  0  0  0
  -33.0740   65.0959   67.3231 N   0  0  0  0  0  0  0  0  0  0  0  0
  -31.1170   65.6500   66.3777 O   0  0  0  0  0  0  0  0  0  0  0  0
  -32.6265   64.3527   65.0461 C   0  0  0  0  0  0  0  0  0  0  0  0
  -32.4459   62.8441   65.2492 C   0  0  0  0  0  0  0  0  0  0  0  0
  -33.5781   62.1938   66.0369 C   0  0  0  0  0  0  0  0  0  0  0  0
  -33.7604   62.7000   67.4541 C   0  0  0  0  0  0  0  0  0  0  0  0
  -34.1674   64.1557   67.5450 C   0  0  0  0  0  0  0  0  0  0  0  0
  -32.2069   65.0894   66.3082 C   0  0  0  0  0  0  0  0  0  0  0  0
  -32.9642   65.8100   67.9920 H   0  0  0  0  0  0  0  0  0  0  0  0
  -36.7762   61.3374   65.9226 C   0  0  0  0  0  0  0  0  0  0  0  0
  -38.0922   60.7701   66.4438 C   0  0  0  0  0  0  0  0  0  0  0  0
  -38.3441   59.3413   65.9992 C   0  0  0  0  0  0  0  0  0  0  0  0
  -39.7690   59.0502   65.5815 C   0  0  0  0  0  0  0  0  0  0  0  0
  -39.8142   57.9996   64.5770 N   0  0  0  0  0  0  0  0  0  0  0  0
  -40.8906   56.9535   62.8916 O   0  0  0  0  0  0  0  0  0  0  0  0
  -40.8480   57.8592   63.7402 C   0  0  0  0  0  0  0  0  0  0  0  0
  -39.0592   57.3712   64.5107 H   0  0  0  0  0  0  0  0  0  0  0  0
  -43.1238   58.7015   64.2738 C   0  0  0  0  0  0  0  0  0  0  0  0
  -41.8809   58.9122   63.8623 C   0  0  0  0  0  0  0  0  0  0  0  0
  -43.7384   57.4082   64.7098 C   0  0  0  0  0  0  0  0  0  0  0  0
  -44.1159   57.4323   66.1859 C   0  0  0  0  0  0  0  0  0  0  0  0
  -45.3395   58.2783   66.4925 C   0  0  0  0  0  0  0  0  0  0  0  0
  -46.6462   57.5059   66.4218 C   0  0  0  0  0  0  0  0  0  0  0  0
  -47.8662   58.3637   66.1439 C   0  0  0  0  0  0  0  0  0  0  0  0
  -49.1287   57.5566   65.8904 C   0  0  0  0  0  0  0  0  0  0  0  0
  -50.4021   58.3705   66.0108 C   0  0  0  0  0  0  0  0  0  0  0  0
  -50.3581   59.6638   65.2219 C   0  0  0  0  0  0  0  0  0  0  0  0
  -50.8635   59.5449   63.7969 C   0  0  0  0  0  0  0  0  0  0  0  0
  -49.7411   59.4100   62.7868 C   0  0  0  0  0  0  0  0  0  0  0  0
  -49.6200   58.0093   62.2092 C   0  0  0  0  0  0  0  0  0  0  0  0
  -49.8555   57.9326   60.7108 C   0  0  0  0  0  0  0  0  0  0  0  0
  -48.7970   58.6362   59.8756 C   0  0  0  0  0  0  0  0  0  0  0  0
  -47.7614   57.6970   59.2725 C   0  0  0  0  0  0  0  0  0  0  0  0
  -47.1023   58.2484   58.0186 C   0  0  0  0  0  0  0  0  0  0  0  0
  -47.4884   56.0499   56.8378 C   0  0  0  0  0  0  0  0  0  0  0  0
  -46.5367   57.1900   57.0890 C   0  0  0  0  0  0  0  0  0  0  0  0
 43 45  1  0  0  0
 43 42  1  0  0  0
 43 46  1  0  0  0
 64 65  1  0  0  0
 44 45  2  0  0  0
 65 63  1  0  0  0
  2  1  1  0  0  0
  2  4  1  0  0  0
  2  5  1  0  0  0
  3  4  2  0  0  0
 63 62  1  0  0  0
  6  8  1  0  0  0
  6 11  2  0  0  0
  7 10  1  0  0  0
  7 11  1  0  0  0
 62 61  1  0  0  0
 26 28  1  0  0  0
 26 32  1  0  0  0
 26 29  1  0  0  0
 12 18  1  0  0  0
 12 19  1  0  0  0
 61 60  1  0  0  0
 30 36  1  0  0  0
 30 37  1  0  0  0
 30 38  1  0  0  0
 20 21  2  0  0  0
 60 59  1  0  0  0
 22 21  1  0  0  0
 22 23  1  0  0  0
 59 58  1  0  0  0
 27 28  2  0  0  0
 58 57  1  0  0  0
 31 37  2  0  0  0
 57 56  1  0  0  0
 56 55  1  0  0  0
 55 54  1  0  0  0
 54 53  1  0  0  0
 53 52  1  0  0  0
 52 51  1  0  0  0
 51 50  1  0  0  0
 50 49  1  0  0  0
 49 47  1  0  0  0
 47 48  2  0  0  0
 48 45  1  0  0  0
 42 41  1  0  0  0
 41 40  1  0  0  0
 40 39  1  0  0  0
 39  1  1  0  0  0
  1 21  1  0  0  0
  8  4  1  0  0  0
  8  9  1  0  0  0
  8 10  1  0  0  0
 11 13  1  0  0  0
 13 14  2  0  0  0
 13 18  1  0  0  0
 14 15  1  0  0  0
 15 16  2  0  0  0
 16 17  1  0  0  0
 17 18  2  0  0  0
 23 24  1  0  0  0
 23 25  1  0  0  0
 25 28  1  0  0  0
 32 33  1  0  0  0
 32 37  1  0  0  0
 33 34  1  0  0  0
 34 35  1  0  0  0
 35 36  1  0  0  0
M  END
> <minimizedAffinity>
-8.58523

> <CNNscore>
0.2849195600

> <CNNaffinity>
7.2364640236

> <CNN_VS>
2.0618102551

> <CNNaffinity_variance>
0.8283721805

$$$$
/media/chris/experiments/cd1a-new-docking/inputs/ligands/7ryo_ligand.pdb


 65 67  0  0  0  0  0  0  0  0999 V2000
  -40.8254   59.4736   62.5129 C   0  0  0  0  0  0  0  0  0  0  0  0
  -39.6249   58.8657   61.9637 N   0  0  0  0  0  0  0  0  0  0  0  0
  -38.4919   60.8065   61.9069 O   0  0  0  0  0  0  0  0  0  0  0  0
  -38.5419   59.6025   61.7043 C   0  0  0  0  0  0  0  0  0  0  0  0
  -39.6099   57.8984   61.7808 H   0  0  0  0  0  0  0  0  0  0  0  0
  -36.0821   59.4734   61.6360 N   0  0  0  0  0  0  0  0  0  0  0  0
  -35.8683   57.2558   61.9817 O   0  0  0  0  0  0  0  0  0  0  0  0
  -37.3221   58.8856   61.1025 C   0  0  0  0  0  0  0  0  0  0  0  0
  -37.3438   59.0620   59.5871 C   0  0  0  0  0  0  0  0  0  0  0  0
  -37.2282   57.4053   61.5003 C   0  0  0  0  0  0  0  0  0  0  0  0
  -35.3772   58.5183   62.0835 C   0  0  0  0  0  0  0  0  0  0  0  0
  -34.8205   57.5639   64.7411 O   0  0  0  0  0  0  0  0  0  0  0  0
  -34.0567   58.6372   62.7065 C   0  0  0  0  0  0  0  0  0  0  0  0
  -32.9700   59.0982   61.9623 C   0  0  0  0  0  0  0  0  0  0  0  0
  -31.6820   58.9862   62.4571 C   0  0  0  0  0  0  0  0  0  0  0  0
  -31.4559   58.4178   63.6917 C   0  0  0  0  0  0  0  0  0  0  0  0
  -32.5152   57.9488   64.4472 C   0  0  0  0  0  0  0  0  0  0  0  0
  -33.8166   58.0506   63.9661 C   0  0  0  0  0  0  0  0  0  0  0  0
  -35.7082   57.6171   64.4459 H   0  0  0  0  0  0  0  0  0  0  0  0
  -40.7385   61.2340   64.1664 O   0  0  0  0  0  0  0  0  0  0  0  0
  -40.5582   60.0823   63.8813 C   0  0  0  0  0  0  0  0  0  0  0  0
  -40.0712   59.1543   64.7233 O   0  0  0  0  0  0  0  0  0  0  0  0
  -39.7705   59.5594   66.1000 C   0  0  0  0  0  0  0  0  0  0  0  0
  -40.8250   60.5440   66.5387 C   0  0  0  0  0  0  0  0  0  0  0  0
  -38.3876   60.1794   66.0495 C   0  0  0  0  0  0  0  0  0  0  0  0
  -36.2368   59.9706   64.9667 N   0  0  0  0  0  0  0  0  0  0  0  0
  -37.7112   58.2850   64.7514 O   0  0  0  0  0  0  0  0  0  0  0  0
  -37.4193   59.3922   65.1949 C   0  0  0  0  0  0  0  0  0  0  0  0
  -35.5727   59.4994   64.4133 H   0  0  0  0  0  0  0  0  0  0  0  0
  -35.8403   63.5535   64.6509 N   0  0  0  0  0  0  0  0  0  0  0  0
  -35.6106   61.8530   63.2065 O   0  0  0  0  0  0  0  0  0  0  0  0
  -35.9028   61.2749   65.5119 C   0  0  0  0  0  0  0  0  0  0  0  0
  -34.5755   61.2025   66.2753 C   0  0  0  0  0  0  0  0  0  0  0  0
  -34.3642   62.3604   67.2447 C   0  0  0  0  0  0  0  0  0  0  0  0
  -34.3089   63.7372   66.6129 C   0  0  0  0  0  0  0  0  0  0  0  0
  -35.6014   64.1685   65.9521 C   0  0  0  0  0  0  0  0  0  0  0  0
  -35.7715   62.2534   64.3557 C   0  0  0  0  0  0  0  0  0  0  0  0
  -36.0772   64.1610   63.9131 H   0  0  0  0  0  0  0  0  0  0  0  0
  -41.9770   58.4693   62.5772 C   0  0  0  0  0  0  0  0  0  0  0  0
  -41.5763   57.0928   62.0575 C   0  0  0  0  0  0  0  0  0  0  0  0
  -41.5308   56.0344   63.1438 C   0  0  0  0  0  0  0  0  0  0  0  0
  -42.7512   55.9914   64.0373 C   0  0  0  0  0  0  0  0  0  0  0  0
  -42.4206   56.4019   65.3926 N   0  0  0  0  0  0  0  0  0  0  0  0
  -42.7372   57.7868   67.1463 O   0  0  0  0  0  0  0  0  0  0  0  0
  -43.0300   57.4297   65.9935 C   0  0  0  0  0  0  0  0  0  0  0  0
  -41.7254   55.9073   65.8839 H   0  0  0  0  0  0  0  0  0  0  0  0
  -45.3997   58.0362   65.5573 C   0  0  0  0  0  0  0  0  0  0  0  0
  -44.1220   58.0402   65.2026 C   0  0  0  0  0  0  0  0  0  0  0  0
  -46.0054   57.4545   66.7965 C   0  0  0  0  0  0  0  0  0  0  0  0
  -46.9581   58.4335   67.4717 C   0  0  0  0  0  0  0  0  0  0  0  0
  -48.0370   58.9744   66.5496 C   0  0  0  0  0  0  0  0  0  0  0  0
  -49.0420   57.9238   66.1074 C   0  0  0  0  0  0  0  0  0  0  0  0
  -50.4576   58.4431   65.9397 C   0  0  0  0  0  0  0  0  0  0  0  0
  -50.5387   59.9571   65.8368 C   0  0  0  0  0  0  0  0  0  0  0  0
  -50.9254   60.4503   64.4563 C   0  0  0  0  0  0  0  0  0  0  0  0
  -49.8646   60.1778   63.4087 C   0  0  0  0  0  0  0  0  0  0  0  0
  -50.3927   59.5543   62.1310 C   0  0  0  0  0  0  0  0  0  0  0  0
  -50.4161   58.0394   62.1847 C   0  0  0  0  0  0  0  0  0  0  0  0
  -50.5705   57.3938   60.8174 C   0  0  0  0  0  0  0  0  0  0  0  0
  -49.2668   56.9059   60.2098 C   0  0  0  0  0  0  0  0  0  0  0  0
  -48.4768   57.9817   59.4807 C   0  0  0  0  0  0  0  0  0  0  0  0
  -47.0890   57.5368   59.0401 C   0  0  0  0  0  0  0  0  0  0  0  0
  -46.7388   57.9623   57.6233 C   0  0  0  0  0  0  0  0  0  0  0  0
  -47.4134   55.6313   56.9249 C   0  0  0  0  0  0  0  0  0  0  0  0
  -47.3361   57.0849   56.5382 C   0  0  0  0  0  0  0  0  0  0  0  0
 43 45  1  0  0  0
 43 42  1  0  0  0
 43 46  1  0  0  0
 64 65  1  0  0  0
 44 45  2  0  0  0
 65 63  1  0  0  0
  2  1  1  0  0  0
  2  4  1  0  0  0
  2  5  1  0  0  0
  3  4  2  0  0  0
 63 62  1  0  0  0
  6  8  1  0  0  0
  6 11  2  0  0  0
  7 10  1  0  0  0
  7 11  1  0  0  0
 62 61  1  0  0  0
 26 28  1  0  0  0
 26 32  1  0  0  0
 26 29  1  0  0  0
 12 18  1  0  0  0
 12 19  1  0  0  0
 61 60  1  0  0  0
 30 36  1  0  0  0
 30 37  1  0  0  0
 30 38  1  0  0  0
 20 21  2  0  0  0
 60 59  1  0  0  0
 22 21  1  0  0  0
 22 23  1  0  0  0
 59 58  1  0  0  0
 27 28  2  0  0  0
 58 57  1  0  0  0
 31 37  2  0  0  0
 57 56  1  0  0  0
 56 55  1  0  0  0
 55 54  1  0  0  0
 54 53  1  0  0  0
 53 52  1  0  0  0
 52 51  1  0  0  0
 51 50  1  0  0  0
 50 49  1  0  0  0
 49 47  1  0  0  0
 47 48  2  0  0  0
 48 45  1  0  0  0
 42 41  1  0  0  0
 41 40  1  0  0  0
 40 39  1  0  0  0
 39  1  1  0  0  0
  1 21  1  0  0  0
  8  4  1  0  0  0
  8  9  1  0  0  0
  8 10  1  0  0  0
 11 13  1  0  0  0
 13 14  2  0  0  0
 13 18  1  0  0  0
 14 15  1  0  0  0
 15 16  2  0  0  0
 16 17  1  0  0  0
 17 18  2  0  0  0
 23 24  1  0  0  0
 23 25  1  0  0  0
 25 28  1  0  0  0
 32 33  1  0  0  0
 32 37  1  0  0  0
 33 34  1  0  0  0
 34 35  1  0  0  0
 35 36  1  0  0  0
M  END
> <minimizedAffinity>
-9.99387

> <CNNscore>
0.2606395483

> <CNNaffinity>
7.8681931496

> <CNN_VS>
2.0507624149

> <CNNaffinity_variance>
0.9139746428

$$$$
/media/chris/experiments/cd1a-new-docking/inputs/ligands/7ryo_ligand.pdb


 65 67  0  0  0  0  0  0  0  0999 V2000
  -35.1376   61.5276   63.9139 C   0  0  0  0  0  0  0  0  0  0  0  0
  -35.6642   60.4396   63.1069 N   0  0  0  0  0  0  0  0  0  0  0  0
  -34.3400   58.8950   64.0632 O   0  0  0  0  0  0  0  0  0  0  0  0
  -35.2084   59.1934   63.2569 C   0  0  0  0  0  0  0  0  0  0  0  0
  -36.3658   60.6236   62.4411 H   0  0  0  0  0  0  0  0  0  0  0  0
  -37.1151   57.6831   62.8625 N   0  0  0  0  0  0  0  0  0  0  0  0
  -37.4763   58.1834   60.6940 O   0  0  0  0  0  0  0  0  0  0  0  0
  -35.8020   58.1052   62.3473 C   0  0  0  0  0  0  0  0  0  0  0  0
  -34.8622   56.9033   62.3376 C   0  0  0  0  0  0  0  0  0  0  0  0
  -36.1064   58.5992   60.9254 C   0  0  0  0  0  0  0  0  0  0  0  0
  -37.9384   57.7642   61.9008 C   0  0  0  0  0  0  0  0  0  0  0  0
  -39.8296   58.7360   59.9609 O   0  0  0  0  0  0  0  0  0  0  0  0
  -39.3658   57.4395   61.9557 C   0  0  0  0  0  0  0  0  0  0  0  0
  -39.8385   56.5149   62.8879 C   0  0  0  0  0  0  0  0  0  0  0  0
  -41.1275   56.0190   62.7935 C   0  0  0  0  0  0  0  0  0  0  0  0
  -41.9613   56.4322   61.7773 C   0  0  0  0  0  0  0  0  0  0  0  0
  -41.5156   57.3442   60.8379 C   0  0  0  0  0  0  0  0  0  0  0  0
  -40.2228   57.8524   60.9148 C   0  0  0  0  0  0  0  0  0  0  0  0
  -38.9651   59.0967   59.9843 H   0  0  0  0  0  0  0  0  0  0  0  0
  -32.8461   61.4622   64.6788 O   0  0  0  0  0  0  0  0  0  0  0  0
  -33.6255   61.6297   63.7818 C   0  0  0  0  0  0  0  0  0  0  0  0
  -33.2829   61.9548   62.5231 O   0  0  0  0  0  0  0  0  0  0  0  0
  -31.9484   61.5748   62.0495 C   0  0  0  0  0  0  0  0  0  0  0  0
  -31.6188   60.2181   62.6192 C   0  0  0  0  0  0  0  0  0  0  0  0
  -31.0132   62.6558   62.5556 C   0  0  0  0  0  0  0  0  0  0  0  0
  -31.6580   64.9850   62.5886 N   0  0  0  0  0  0  0  0  0  0  0  0
  -30.9290   64.1039   60.6511 O   0  0  0  0  0  0  0  0  0  0  0  0
  -31.1980   63.9767   61.8424 C   0  0  0  0  0  0  0  0  0  0  0  0
  -31.7982   65.8649   62.1697 H   0  0  0  0  0  0  0  0  0  0  0  0
  -33.9844   64.5786   65.3302 N   0  0  0  0  0  0  0  0  0  0  0  0
  -34.1172   65.6228   63.3496 O   0  0  0  0  0  0  0  0  0  0  0  0
  -31.9569   64.8203   64.0005 C   0  0  0  0  0  0  0  0  0  0  0  0
  -31.1714   65.8439   64.8281 C   0  0  0  0  0  0  0  0  0  0  0  0
  -31.0562   65.4773   66.3038 C   0  0  0  0  0  0  0  0  0  0  0  0
  -32.3689   65.3800   67.0554 C   0  0  0  0  0  0  0  0  0  0  0  0
  -33.2803   64.2720   66.5707 C   0  0  0  0  0  0  0  0  0  0  0  0
  -33.4478   65.0424   64.1992 C   0  0  0  0  0  0  0  0  0  0  0  0
  -34.9573   64.4276   65.3268 H   0  0  0  0  0  0  0  0  0  0  0  0
  -35.5492   61.3814   65.3796 C   0  0  0  0  0  0  0  0  0  0  0  0
  -37.0499   61.1646   65.5422 C   0  0  0  0  0  0  0  0  0  0  0  0
  -37.4253   59.7070   65.7348 C   0  0  0  0  0  0  0  0  0  0  0  0
  -38.9128   59.4304   65.7295 C   0  0  0  0  0  0  0  0  0  0  0  0
  -39.6537   60.5486   66.2912 N   0  0  0  0  0  0  0  0  0  0  0  0
  -41.4426   61.9240   66.2510 O   0  0  0  0  0  0  0  0  0  0  0  0
  -40.8178   60.9607   65.7777 C   0  0  0  0  0  0  0  0  0  0  0  0
  -39.2864   61.0177   67.0750 H   0  0  0  0  0  0  0  0  0  0  0  0
  -42.0432   59.0242   64.8173 C   0  0  0  0  0  0  0  0  0  0  0  0
  -41.3238   60.1276   64.6639 C   0  0  0  0  0  0  0  0  0  0  0  0
  -42.5065   58.4025   66.0977 C   0  0  0  0  0  0  0  0  0  0  0  0
  -43.3736   57.1748   65.8472 C   0  0  0  0  0  0  0  0  0  0  0  0
  -44.4887   57.4060   64.8422 C   0  0  0  0  0  0  0  0  0  0  0  0
  -45.8765   57.3992   65.4612 C   0  0  0  0  0  0  0  0  0  0  0  0
  -46.6370   58.7028   65.3073 C   0  0  0  0  0  0  0  0  0  0  0  0
  -47.7739   58.6253   64.3018 C   0  0  0  0  0  0  0  0  0  0  0  0
  -49.1422   58.8442   64.9169 C   0  0  0  0  0  0  0  0  0  0  0  0
  -49.8712   60.0392   64.3359 C   0  0  0  0  0  0  0  0  0  0  0  0
  -50.3222   59.8590   62.8991 C   0  0  0  0  0  0  0  0  0  0  0  0
  -51.1777   58.6227   62.7045 C   0  0  0  0  0  0  0  0  0  0  0  0
  -50.7903   57.8131   61.4779 C   0  0  0  0  0  0  0  0  0  0  0  0
  -49.8301   58.5252   60.5411 C   0  0  0  0  0  0  0  0  0  0  0  0
  -48.6459   57.6791   60.0996 C   0  0  0  0  0  0  0  0  0  0  0  0
  -47.8329   58.2966   58.9701 C   0  0  0  0  0  0  0  0  0  0  0  0
  -46.6008   57.4871   58.5991 C   0  0  0  0  0  0  0  0  0  0  0  0
  -47.5325   56.9510   56.3141 C   0  0  0  0  0  0  0  0  0  0  0  0
  -46.3331   57.3986   57.1075 C   0  0  0  0  0  0  0  0  0  0  0  0
 43 45  1  0  0  0
 43 42  1  0  0  0
 43 46  1  0  0  0
 64 65  1  0  0  0
 44 45  2  0  0  0
 65 63  1  0  0  0
  2  1  1  0  0  0
  2  4  1  0  0  0
  2  5  1  0  0  0
  3  4  2  0  0  0
 63 62  1  0  0  0
  6  8  1  0  0  0
  6 11  2  0  0  0
  7 10  1  0  0  0
  7 11  1  0  0  0
 62 61  1  0  0  0
 26 28  1  0  0  0
 26 32  1  0  0  0
 26 29  1  0  0  0
 12 18  1  0  0  0
 12 19  1  0  0  0
 61 60  1  0  0  0
 30 36  1  0  0  0
 30 37  1  0  0  0
 30 38  1  0  0  0
 20 21  2  0  0  0
 60 59  1  0  0  0
 22 21  1  0  0  0
 22 23  1  0  0  0
 59 58  1  0  0  0
 27 28  2  0  0  0
 58 57  1  0  0  0
 31 37  2  0  0  0
 57 56  1  0  0  0
 56 55  1  0  0  0
 55 54  1  0  0  0
 54 53  1  0  0  0
 53 52  1  0  0  0
 52 51  1  0  0  0
 51 50  1  0  0  0
 50 49  1  0  0  0
 49 47  1  0  0  0
 47 48  2  0  0  0
 48 45  1  0  0  0
 42 41  1  0  0  0
 41 40  1  0  0  0
 40 39  1  0  0  0
 39  1  1  0  0  0
  1 21  1  0  0  0
  8  4  1  0  0  0
  8  9  1  0  0  0
  8 10  1  0  0  0
 11 13  1  0  0  0
 13 14  2  0  0  0
 13 18  1  0  0  0
 14 15  1  0  0  0
 15 16  2  0  0  0
 16 17  1  0  0  0
 17 18  2  0  0  0
 23 24  1  0  0  0
 23 25  1  0  0  0
 25 28  1  0  0  0
 32 33  1  0  0  0
 32 37  1  0  0  0
 33 34  1  0  0  0
 34 35  1  0  0  0
 35 36  1  0  0  0
M  END
> <minimizedAffinity>
-9.81612

> <CNNscore>
0.1934016645

> <CNNaffinity>
7.2741289139

> <CNN_VS>
1.4068286419

> <CNNaffinity_variance>
1.3709521294

$$$$
/media/chris/experiments/cd1a-new-docking/inputs/ligands/7ryo_ligand.pdb


 65 67  0  0  0  0  0  0  0  0999 V2000
  -37.4601   58.5947   64.0517 C   0  0  0  0  0  0  0  0  0  0  0  0
  -38.6802   57.9390   63.6117 N   0  0  0  0  0  0  0  0  0  0  0  0
  -39.7797   58.3804   65.5222 O   0  0  0  0  0  0  0  0  0  0  0  0
  -39.7543   57.8894   64.4035 C   0  0  0  0  0  0  0  0  0  0  0  0
  -38.7153   57.5263   62.7186 H   0  0  0  0  0  0  0  0  0  0  0  0
  -41.9958   57.0199   64.9437 N   0  0  0  0  0  0  0  0  0  0  0  0
  -43.1194   57.9376   63.2178 O   0  0  0  0  0  0  0  0  0  0  0  0
  -40.9966   57.1565   63.8710 C   0  0  0  0  0  0  0  0  0  0  0  0
  -40.5840   55.7666   63.3961 C   0  0  0  0  0  0  0  0  0  0  0  0
  -41.7388   57.9340   62.7740 C   0  0  0  0  0  0  0  0  0  0  0  0
  -43.0934   57.4683   64.4925 C   0  0  0  0  0  0  0  0  0  0  0  0
  -43.2537   57.3605   67.3642 O   0  0  0  0  0  0  0  0  0  0  0  0
  -44.3653   57.5280   65.2167 C   0  0  0  0  0  0  0  0  0  0  0  0
  -45.5516   57.7869   64.5290 C   0  0  0  0  0  0  0  0  0  0  0  0
  -46.7130   58.0864   65.2202 C   0  0  0  0  0  0  0  0  0  0  0  0
  -46.7130   58.1327   66.5973 C   0  0  0  0  0  0  0  0  0  0  0  0
  -45.5495   57.8846   67.3026 C   0  0  0  0  0  0  0  0  0  0  0  0
  -44.3718   57.5839   66.6257 C   0  0  0  0  0  0  0  0  0  0  0  0
  -42.4444   57.1556   66.9386 H   0  0  0  0  0  0  0  0  0  0  0  0
  -38.1495   60.6561   62.9955 O   0  0  0  0  0  0  0  0  0  0  0  0
  -37.5514   60.1031   63.8767 C   0  0  0  0  0  0  0  0  0  0  0  0
  -36.8505   60.7326   64.8359 O   0  0  0  0  0  0  0  0  0  0  0  0
  -35.4999   61.2015   64.5105 C   0  0  0  0  0  0  0  0  0  0  0  0
  -34.6104   60.9245   65.6962 C   0  0  0  0  0  0  0  0  0  0  0  0
  -35.6405   62.6849   64.2288 C   0  0  0  0  0  0  0  0  0  0  0  0
  -34.1457   64.3588   65.1264 N   0  0  0  0  0  0  0  0  0  0  0  0
  -35.7339   63.5090   66.4745 O   0  0  0  0  0  0  0  0  0  0  0  0
  -35.1785   63.5501   65.3801 C   0  0  0  0  0  0  0  0  0  0  0  0
  -33.8057   64.9400   65.8446 H   0  0  0  0  0  0  0  0  0  0  0  0
  -31.5060   63.4370   62.8294 N   0  0  0  0  0  0  0  0  0  0  0  0
  -31.5702   63.7303   65.0522 O   0  0  0  0  0  0  0  0  0  0  0  0
  -33.5102   64.4051   63.8211 C   0  0  0  0  0  0  0  0  0  0  0  0
  -33.4227   65.8541   63.3290 C   0  0  0  0  0  0  0  0  0  0  0  0
  -33.2011   65.9764   61.8252 C   0  0  0  0  0  0  0  0  0  0  0  0
  -31.9123   65.3710   61.3053 C   0  0  0  0  0  0  0  0  0  0  0  0
  -31.8215   63.8686   61.4719 C   0  0  0  0  0  0  0  0  0  0  0  0
  -32.1099   63.8279   63.9540 C   0  0  0  0  0  0  0  0  0  0  0  0
  -30.7706   62.7896   62.9262 H   0  0  0  0  0  0  0  0  0  0  0  0
  -36.2357   58.0338   63.3269 C   0  0  0  0  0  0  0  0  0  0  0  0
  -36.5973   57.3798   61.9977 C   0  0  0  0  0  0  0  0  0  0  0  0
  -36.9374   58.3832   60.9114 C   0  0  0  0  0  0  0  0  0  0  0  0
  -38.3683   58.3268   60.4229 C   0  0  0  0  0  0  0  0  0  0  0  0
  -38.8504   59.6513   60.0652 N   0  0  0  0  0  0  0  0  0  0  0  0
  -40.4796   60.9823   59.2480 O   0  0  0  0  0  0  0  0  0  0  0  0
  -40.0744   59.8519   59.5650 C   0  0  0  0  0  0  0  0  0  0  0  0
  -38.2564   60.4256   60.1954 H   0  0  0  0  0  0  0  0  0  0  0  0
  -41.6733   58.3002   58.4653 C   0  0  0  0  0  0  0  0  0  0  0  0
  -40.9155   58.6358   59.5005 C   0  0  0  0  0  0  0  0  0  0  0  0
  -41.8320   59.0326   57.1695 C   0  0  0  0  0  0  0  0  0  0  0  0
  -43.2934   59.1221   56.7475 C   0  0  0  0  0  0  0  0  0  0  0  0
  -44.2068   58.1644   57.4927 C   0  0  0  0  0  0  0  0  0  0  0  0
  -45.6234   58.1240   56.9440 C   0  0  0  0  0  0  0  0  0  0  0  0
  -46.7034   58.3701   57.9807 C   0  0  0  0  0  0  0  0  0  0  0  0
  -46.7044   57.3504   59.1075 C   0  0  0  0  0  0  0  0  0  0  0  0
  -48.0591   56.7127   59.3458 C   0  0  0  0  0  0  0  0  0  0  0  0
  -49.2011   57.4932   58.7264 C   0  0  0  0  0  0  0  0  0  0  0  0
  -50.1662   58.0932   59.7308 C   0  0  0  0  0  0  0  0  0  0  0  0
  -50.3507   57.2224   60.9579 C   0  0  0  0  0  0  0  0  0  0  0  0
  -51.0596   57.9357   62.0976 C   0  0  0  0  0  0  0  0  0  0  0  0
  -50.6169   59.3742   62.3014 C   0  0  0  0  0  0  0  0  0  0  0  0
  -49.1719   59.5248   62.7512 C   0  0  0  0  0  0  0  0  0  0  0  0
  -48.9814   60.5094   63.8968 C   0  0  0  0  0  0  0  0  0  0  0  0
  -50.1584   60.5545   64.8577 C   0  0  0  0  0  0  0  0  0  0  0  0
  -50.4219   58.2698   65.9006 C   0  0  0  0  0  0  0  0  0  0  0  0
  -49.9885   59.6985   66.0997 C   0  0  0  0  0  0  0  0  0  0  0  0
 43 45  1  0  0  0
 43 42  1  0  0  0
 43 46  1  0  0  0
 64 65  1  0  0  0
 44 45  2  0  0  0
 65 63  1  0  0  0
  2  1  1  0  0  0
  2  4  1  0  0  0
  2  5  1  0  0  0
  3  4  2  0  0  0
 63 62  1  0  0  0
  6  8  1  0  0  0
  6 11  2  0  0  0
  7 10  1  0  0  0
  7 11  1  0  0  0
 62 61  1  0  0  0
 26 28  1  0  0  0
 26 32  1  0  0  0
 26 29  1  0  0  0
 12 18  1  0  0  0
 12 19  1  0  0  0
 61 60  1  0  0  0
 30 36  1  0  0  0
 30 37  1  0  0  0
 30 38  1  0  0  0
 20 21  2  0  0  0
 60 59  1  0  0  0
 22 21  1  0  0  0
 22 23  1  0  0  0
 59 58  1  0  0  0
 27 28  2  0  0  0
 58 57  1  0  0  0
 31 37  2  0  0  0
 57 56  1  0  0  0
 56 55  1  0  0  0
 55 54  1  0  0  0
 54 53  1  0  0  0
 53 52  1  0  0  0
 52 51  1  0  0  0
 51 50  1  0  0  0
 50 49  1  0  0  0
 49 47  1  0  0  0
 47 48  2  0  0  0
 48 45  1  0  0  0
 42 41  1  0  0  0
 41 40  1  0  0  0
 40 39  1  0  0  0
 39  1  1  0  0  0
  1 21  1  0  0  0
  8  4  1  0  0  0
  8  9  1  0  0  0
  8 10  1  0  0  0
 11 13  1  0  0  0
 13 14  2  0  0  0
 13 18  1  0  0  0
 14 15  1  0  0  0
 15 16  2  0  0  0
 16 17  1  0  0  0
 17 18  2  0  0  0
 23 24  1  0  0  0
 23 25  1  0  0  0
 25 28  1  0  0  0
 32 33  1  0  0  0
 32 37  1  0  0  0
 33 34  1  0  0  0
 34 35  1  0  0  0
 35 36  1  0  0  0
M  END
> <minimizedAffinity>
-8.58355

> <CNNscore>
0.1814228743

> <CNNaffinity>
7.3586511612

> <CNN_VS>
1.3350276947

> <CNNaffinity_variance>
1.2185860872

$$$$
/media/chris/experiments/cd1a-new-docking/inputs/ligands/7ryo_ligand.pdb


 65 67  0  0  0  0  0  0  0  0999 V2000
  -41.3258   60.3949   64.3792 C   0  0  0  0  0  0  0  0  0  0  0  0
  -42.3658   59.4816   64.8226 N   0  0  0  0  0  0  0  0  0  0  0  0
  -40.9800   58.3209   66.1591 O   0  0  0  0  0  0  0  0  0  0  0  0
  -42.0940   58.5050   65.6918 C   0  0  0  0  0  0  0  0  0  0  0  0
  -43.2822   59.5842   64.4779 H   0  0  0  0  0  0  0  0  0  0  0  0
  -44.5023   58.3300   66.1834 N   0  0  0  0  0  0  0  0  0  0  0  0
  -44.9782   56.5872   64.8345 O   0  0  0  0  0  0  0  0  0  0  0  0
  -43.2458   57.5681   66.0912 C   0  0  0  0  0  0  0  0  0  0  0  0
  -42.9344   56.9562   67.4537 C   0  0  0  0  0  0  0  0  0  0  0  0
  -43.5459   56.4896   65.0398 C   0  0  0  0  0  0  0  0  0  0  0  0
  -45.3613   57.7227   65.4744 C   0  0  0  0  0  0  0  0  0  0  0  0
  -47.5817   56.1315   66.3808 O   0  0  0  0  0  0  0  0  0  0  0  0
  -46.7560   58.1239   65.2747 C   0  0  0  0  0  0  0  0  0  0  0  0
  -47.0548   59.3837   64.7541 C   0  0  0  0  0  0  0  0  0  0  0  0
  -48.3514   59.8676   64.7875 C   0  0  0  0  0  0  0  0  0  0  0  0
  -49.3645   59.1114   65.3353 C   0  0  0  0  0  0  0  0  0  0  0  0
  -49.0940   57.8615   65.8621 C   0  0  0  0  0  0  0  0  0  0  0  0
  -47.7970   57.3587   65.8397 C   0  0  0  0  0  0  0  0  0  0  0  0
  -46.7195   55.7645   66.3815 H   0  0  0  0  0  0  0  0  0  0  0  0
  -41.4404   61.6729   66.4271 O   0  0  0  0  0  0  0  0  0  0  0  0
  -40.7771   61.2105   65.5403 C   0  0  0  0  0  0  0  0  0  0  0  0
  -39.4461   61.3598   65.4245 O   0  0  0  0  0  0  0  0  0  0  0  0
  -38.5935   60.1986   65.6975 C   0  0  0  0  0  0  0  0  0  0  0  0
  -38.1562   60.2682   67.1389 C   0  0  0  0  0  0  0  0  0  0  0  0
  -37.4277   60.3137   64.7347 C   0  0  0  0  0  0  0  0  0  0  0  0
  -35.0796   59.9850   65.2046 N   0  0  0  0  0  0  0  0  0  0  0  0
  -36.4450   58.1981   65.2731 O   0  0  0  0  0  0  0  0  0  0  0  0
  -36.2759   59.4007   65.0916 C   0  0  0  0  0  0  0  0  0  0  0  0
  -34.2972   59.4326   65.4325 H   0  0  0  0  0  0  0  0  0  0  0  0
  -33.9459   62.8103   63.2487 N   0  0  0  0  0  0  0  0  0  0  0  0
  -33.2246   60.6959   63.4476 O   0  0  0  0  0  0  0  0  0  0  0  0
  -34.9006   61.4120   65.0010 C   0  0  0  0  0  0  0  0  0  0  0  0
  -34.3042   62.0528   66.2592 C   0  0  0  0  0  0  0  0  0  0  0  0
  -34.4953   63.5643   66.3243 C   0  0  0  0  0  0  0  0  0  0  0  0
  -33.8397   64.3526   65.2079 C   0  0  0  0  0  0  0  0  0  0  0  0
  -34.4045   64.0664   63.8323 C   0  0  0  0  0  0  0  0  0  0  0  0
  -33.9500   61.6090   63.8308 C   0  0  0  0  0  0  0  0  0  0  0  0
  -33.5968   62.8532   62.3290 H   0  0  0  0  0  0  0  0  0  0  0  0
  -41.8286   61.3078   63.2598 C   0  0  0  0  0  0  0  0  0  0  0  0
  -41.0798   61.0864   61.9500 C   0  0  0  0  0  0  0  0  0  0  0  0
  -39.8245   60.2498   62.1139 C   0  0  0  0  0  0  0  0  0  0  0  0
  -38.8239   60.3822   60.9867 C   0  0  0  0  0  0  0  0  0  0  0  0
  -37.4605   60.3262   61.4896 N   0  0  0  0  0  0  0  0  0  0  0  0
  -35.5947   59.1421   61.9483 O   0  0  0  0  0  0  0  0  0  0  0  0
  -36.7544   59.1905   61.5064 C   0  0  0  0  0  0  0  0  0  0  0  0
  -37.0438   61.1511   61.8288 H   0  0  0  0  0  0  0  0  0  0  0  0
  -38.2582   57.2128   61.5307 C   0  0  0  0  0  0  0  0  0  0  0  0
  -37.4405   58.0346   60.8870 C   0  0  0  0  0  0  0  0  0  0  0  0
  -38.6740   57.2725   62.9675 C   0  0  0  0  0  0  0  0  0  0  0  0
  -40.1706   57.0381   63.1318 C   0  0  0  0  0  0  0  0  0  0  0  0
  -40.6994   55.8628   62.3280 C   0  0  0  0  0  0  0  0  0  0  0  0
  -41.7556   56.2504   61.3066 C   0  0  0  0  0  0  0  0  0  0  0  0
  -41.6364   57.6724   60.7916 C   0  0  0  0  0  0  0  0  0  0  0  0
  -41.1121   57.7586   59.3678 C   0  0  0  0  0  0  0  0  0  0  0  0
  -41.5636   59.0041   58.6307 C   0  0  0  0  0  0  0  0  0  0  0  0
  -41.9272   58.7397   57.1833 C   0  0  0  0  0  0  0  0  0  0  0  0
  -43.3742   59.0345   56.8377 C   0  0  0  0  0  0  0  0  0  0  0  0
  -44.3442   58.0969   57.5292 C   0  0  0  0  0  0  0  0  0  0  0  0
  -45.7930   58.3387   57.1381 C   0  0  0  0  0  0  0  0  0  0  0  0
  -46.7188   57.1707   57.4303 C   0  0  0  0  0  0  0  0  0  0  0  0
  -48.1073   57.5770   57.8994 C   0  0  0  0  0  0  0  0  0  0  0  0
  -48.1904   57.8853   59.3881 C   0  0  0  0  0  0  0  0  0  0  0  0
  -49.5537   58.3971   59.8246 C   0  0  0  0  0  0  0  0  0  0  0  0
  -50.5166   57.9754   62.1206 C   0  0  0  0  0  0  0  0  0  0  0  0
  -49.6226   58.8429   61.2740 C   0  0  0  0  0  0  0  0  0  0  0  0
 43 45  1  0  0  0
 43 42  1  0  0  0
 43 46  1  0  0  0
 64 65  1  0  0  0
 44 45  2  0  0  0
 65 63  1  0  0  0
  2  1  1  0  0  0
  2  4  1  0  0  0
  2  5  1  0  0  0
  3  4  2  0  0  0
 63 62  1  0  0  0
  6  8  1  0  0  0
  6 11  2  0  0  0
  7 10  1  0  0  0
  7 11  1  0  0  0
 62 61  1  0  0  0
 26 28  1  0  0  0
 26 32  1  0  0  0
 26 29  1  0  0  0
 12 18  1  0  0  0
 12 19  1  0  0  0
 61 60  1  0  0  0
 30 36  1  0  0  0
 30 37  1  0  0  0
 30 38  1  0  0  0
 20 21  2  0  0  0
 60 59  1  0  0  0
 22 21  1  0  0  0
 22 23  1  0  0  0
 59 58  1  0  0  0
 27 28  2  0  0  0
 58 57  1  0  0  0
 31 37  2  0  0  0
 57 56  1  0  0  0
 56 55  1  0  0  0
 55 54  1  0  0  0
 54 53  1  0  0  0
 53 52  1  0  0  0
 52 51  1  0  0  0
 51 50  1  0  0  0
 50 49  1  0  0  0
 49 47  1  0  0  0
 47 48  2  0  0  0
 48 45  1  0  0  0
 42 41  1  0  0  0
 41 40  1  0  0  0
 40 39  1  0  0  0
 39  1  1  0  0  0
  1 21  1  0  0  0
  8  4  1  0  0  0
  8  9  1  0  0  0
  8 10  1  0  0  0
 11 13  1  0  0  0
 13 14  2  0  0  0
 13 18  1  0  0  0
 14 15  1  0  0  0
 15 16  2  0  0  0
 16 17  1  0  0  0
 17 18  2  0  0  0
 23 24  1  0  0  0
 23 25  1  0  0  0
 25 28  1  0  0  0
 32 33  1  0  0  0
 32 37  1  0  0  0
 33 34  1  0  0  0
 34 35  1  0  0  0
 35 36  1  0  0  0
M  END
> <minimizedAffinity>
-7.84496

> <CNNscore>
0.1798280478

> <CNNaffinity>
7.9246520996

> <CNN_VS>
1.4250746965

> <CNNaffinity_variance>
1.6492506266

$$$$
/media/chris/experiments/cd1a-new-docking/inputs/ligands/7ryo_ligand.pdb


 65 67  0  0  0  0  0  0  0  0999 V2000
  -40.4819   58.1133   62.4482 C   0  0  0  0  0  0  0  0  0  0  0  0
  -39.5266   58.2541   63.5345 N   0  0  0  0  0  0  0  0  0  0  0  0
  -39.7880   60.4827   63.6702 O   0  0  0  0  0  0  0  0  0  0  0  0
  -39.2593   59.4523   64.0598 C   0  0  0  0  0  0  0  0  0  0  0  0
  -39.0709   57.4560   63.8875 H   0  0  0  0  0  0  0  0  0  0  0  0
  -37.1057   60.3964   64.7966 N   0  0  0  0  0  0  0  0  0  0  0  0
  -37.7647   61.1610   66.8127 O   0  0  0  0  0  0  0  0  0  0  0  0
  -38.2189   59.5167   65.1900 C   0  0  0  0  0  0  0  0  0  0  0  0
  -37.6776   58.1129   65.4433 C   0  0  0  0  0  0  0  0  0  0  0  0
  -38.7573   60.1582   66.4774 C   0  0  0  0  0  0  0  0  0  0  0  0
  -36.9470   61.2400   65.7307 C   0  0  0  0  0  0  0  0  0  0  0  0
  -36.1613   62.5499   68.1700 O   0  0  0  0  0  0  0  0  0  0  0  0
  -35.9474   62.3102   65.7676 C   0  0  0  0  0  0  0  0  0  0  0  0
  -35.2277   62.6366   64.6174 C   0  0  0  0  0  0  0  0  0  0  0  0
  -34.1219   63.4659   64.6927 C   0  0  0  0  0  0  0  0  0  0  0  0
  -33.7169   63.9804   65.9051 C   0  0  0  0  0  0  0  0  0  0  0  0
  -34.4101   63.6686   67.0606 C   0  0  0  0  0  0  0  0  0  0  0  0
  -35.5228   62.8352   67.0055 C   0  0  0  0  0  0  0  0  0  0  0  0
  -36.9140   61.9917   68.1671 H   0  0  0  0  0  0  0  0  0  0  0  0
  -40.5918   59.4433   60.4334 O   0  0  0  0  0  0  0  0  0  0  0  0
  -39.9538   58.7384   61.1657 C   0  0  0  0  0  0  0  0  0  0  0  0
  -38.6770   58.3744   60.9545 O   0  0  0  0  0  0  0  0  0  0  0  0
  -37.6832   59.4308   60.7399 C   0  0  0  0  0  0  0  0  0  0  0  0
  -37.2317   59.3632   59.3027 C   0  0  0  0  0  0  0  0  0  0  0  0
  -36.5580   59.1354   61.7126 C   0  0  0  0  0  0  0  0  0  0  0  0
  -35.0539   57.2668   62.0096 N   0  0  0  0  0  0  0  0  0  0  0  0
  -37.2680   56.8674   62.0016 O   0  0  0  0  0  0  0  0  0  0  0  0
  -36.3292   57.6544   61.9174 C   0  0  0  0  0  0  0  0  0  0  0  0
  -34.8525   56.3120   62.1404 H   0  0  0  0  0  0  0  0  0  0  0  0
  -31.6967   58.1753   61.0110 N   0  0  0  0  0  0  0  0  0  0  0  0
  -32.6420   56.2348   61.6205 O   0  0  0  0  0  0  0  0  0  0  0  0
  -33.9561   58.2138   61.9227 C   0  0  0  0  0  0  0  0  0  0  0  0
  -33.7222   58.8755   63.2855 C   0  0  0  0  0  0  0  0  0  0  0  0
  -32.9280   60.1749   63.2055 C   0  0  0  0  0  0  0  0  0  0  0  0
  -31.5222   60.0463   62.6534 C   0  0  0  0  0  0  0  0  0  0  0  0
  -31.4623   59.6020   61.2070 C   0  0  0  0  0  0  0  0  0  0  0  0
  -32.7065   57.4552   61.5048 C   0  0  0  0  0  0  0  0  0  0  0  0
  -31.0415   57.6932   60.4564 H   0  0  0  0  0  0  0  0  0  0  0  0
  -41.8416   58.7040   62.8243 C   0  0  0  0  0  0  0  0  0  0  0  0
  -42.9057   57.6301   63.0238 C   0  0  0  0  0  0  0  0  0  0  0  0
  -42.3498   56.3365   63.5895 C   0  0  0  0  0  0  0  0  0  0  0  0
  -42.4950   56.1870   65.0882 C   0  0  0  0  0  0  0  0  0  0  0  0
  -42.2266   57.4449   65.7667 N   0  0  0  0  0  0  0  0  0  0  0  0
  -42.9139   59.1297   67.1018 O   0  0  0  0  0  0  0  0  0  0  0  0
  -43.1407   58.0489   66.5335 C   0  0  0  0  0  0  0  0  0  0  0  0
  -41.3431   57.8656   65.6579 H   0  0  0  0  0  0  0  0  0  0  0  0
  -45.5344   57.5594   66.0818 C   0  0  0  0  0  0  0  0  0  0  0  0
  -44.3966   57.2846   66.7049 C   0  0  0  0  0  0  0  0  0  0  0  0
  -45.7961   58.6483   65.0885 C   0  0  0  0  0  0  0  0  0  0  0  0
  -47.2585   58.6832   64.6619 C   0  0  0  0  0  0  0  0  0  0  0  0
  -48.0955   57.5595   65.2481 C   0  0  0  0  0  0  0  0  0  0  0  0
  -49.1457   58.0358   66.2377 C   0  0  0  0  0  0  0  0  0  0  0  0
  -50.4276   58.5351   65.5981 C   0  0  0  0  0  0  0  0  0  0  0  0
  -50.5906   60.0444   65.6671 C   0  0  0  0  0  0  0  0  0  0  0  0
  -50.8032   60.6930   64.3134 C   0  0  0  0  0  0  0  0  0  0  0  0
  -51.1778   59.7007   63.2308 C   0  0  0  0  0  0  0  0  0  0  0  0
  -50.0754   59.4247   62.2264 C   0  0  0  0  0  0  0  0  0  0  0  0
  -49.8768   57.9444   61.9668 C   0  0  0  0  0  0  0  0  0  0  0  0
  -50.2697   57.5249   60.5597 C   0  0  0  0  0  0  0  0  0  0  0  0
  -49.2472   57.8843   59.4958 C   0  0  0  0  0  0  0  0  0  0  0  0
  -47.8154   57.5213   59.8581 C   0  0  0  0  0  0  0  0  0  0  0  0
  -46.8128   57.7742   58.7405 C   0  0  0  0  0  0  0  0  0  0  0  0
  -47.4555   57.9026   57.3689 C   0  0  0  0  0  0  0  0  0  0  0  0
  -47.3587   55.3909   57.1266 C   0  0  0  0  0  0  0  0  0  0  0  0
  -47.2041   56.7250   56.4447 C   0  0  0  0  0  0  0  0  0  0  0  0
 43 45  1  0  0  0
 43 42  1  0  0  0
 43 46  1  0  0  0
 64 65  1  0  0  0
 44 45  2  0  0  0
 65 63  1  0  0  0
  2  1  1  0  0  0
  2  4  1  0  0  0
  2  5  1  0  0  0
  3  4  2  0  0  0
 63 62  1  0  0  0
  6  8  1  0  0  0
  6 11  2  0  0  0
  7 10  1  0  0  0
  7 11  1  0  0  0
 62 61  1  0  0  0
 26 28  1  0  0  0
 26 32  1  0  0  0
 26 29  1  0  0  0
 12 18  1  0  0  0
 12 19  1  0  0  0
 61 60  1  0  0  0
 30 36  1  0  0  0
 30 37  1  0  0  0
 30 38  1  0  0  0
 20 21  2  0  0  0
 60 59  1  0  0  0
 22 21  1  0  0  0
 22 23  1  0  0  0
 59 58  1  0  0  0
 27 28  2  0  0  0
 58 57  1  0  0  0
 31 37  2  0  0  0
 57 56  1  0  0  0
 56 55  1  0  0  0
 55 54  1  0  0  0
 54 53  1  0  0  0
 53 52  1  0  0  0
 52 51  1  0  0  0
 51 50  1  0  0  0
 50 49  1  0  0  0
 49 47  1  0  0  0
 47 48  2  0  0  0
 48 45  1  0  0  0
 42 41  1  0  0  0
 41 40  1  0  0  0
 40 39  1  0  0  0
 39  1  1  0  0  0
  1 21  1  0  0  0
  8  4  1  0  0  0
  8  9  1  0  0  0
  8 10  1  0  0  0
 11 13  1  0  0  0
 13 14  2  0  0  0
 13 18  1  0  0  0
 14 15  1  0  0  0
 15 16  2  0  0  0
 16 17  1  0  0  0
 17 18  2  0  0  0
 23 24  1  0  0  0
 23 25  1  0  0  0
 25 28  1  0  0  0
 32 33  1  0  0  0
 32 37  1  0  0  0
 33 34  1  0  0  0
 34 35  1  0  0  0
 35 36  1  0  0  0
M  END
> <minimizedAffinity>
-10.83616

> <CNNscore>
0.1796145737

> <CNNaffinity>
7.5701646805

> <CNN_VS>
1.3597118855

> <CNNaffinity_variance>
1.9454736710

$$$$
/media/chris/experiments/cd1a-new-docking/inputs/ligands/7ryo_ligand.pdb


 65 67  0  0  0  0  0  0  0  0999 V2000
  -39.5195   59.6727   65.2729 C   0  0  0  0  0  0  0  0  0  0  0  0
  -38.2781   60.3510   65.6067 N   0  0  0  0  0  0  0  0  0  0  0  0
  -37.5534   60.3834   63.4789 O   0  0  0  0  0  0  0  0  0  0  0  0
  -37.3867   60.6523   64.6592 C   0  0  0  0  0  0  0  0  0  0  0  0
  -38.0921   60.5914   66.5431 H   0  0  0  0  0  0  0  0  0  0  0  0
  -35.6132   62.2440   64.0322 N   0  0  0  0  0  0  0  0  0  0  0  0
  -35.6662   63.5280   65.8846 O   0  0  0  0  0  0  0  0  0  0  0  0
  -36.0889   61.3489   65.1001 C   0  0  0  0  0  0  0  0  0  0  0  0
  -35.0261   60.2879   65.3695 C   0  0  0  0  0  0  0  0  0  0  0  0
  -36.2777   62.2820   66.3051 C   0  0  0  0  0  0  0  0  0  0  0  0
  -35.4201   63.3829   64.5565 C   0  0  0  0  0  0  0  0  0  0  0  0
  -33.0589   64.8118   65.3729 O   0  0  0  0  0  0  0  0  0  0  0  0
  -34.9425   64.5827   63.8648 C   0  0  0  0  0  0  0  0  0  0  0  0
  -35.5503   64.9961   62.6787 C   0  0  0  0  0  0  0  0  0  0  0  0
  -34.9634   65.9725   61.8922 C   0  0  0  0  0  0  0  0  0  0  0  0
  -33.7708   66.5496   62.2706 C   0  0  0  0  0  0  0  0  0  0  0  0
  -33.1456   66.1544   63.4393 C   0  0  0  0  0  0  0  0  0  0  0  0
  -33.7188   65.1731   64.2419 C   0  0  0  0  0  0  0  0  0  0  0  0
  -33.4182   64.1539   65.9351 H   0  0  0  0  0  0  0  0  0  0  0  0
  -40.7411   61.6176   66.0251 O   0  0  0  0  0  0  0  0  0  0  0  0
  -40.7243   60.4395   65.7972 C   0  0  0  0  0  0  0  0  0  0  0  0
  -41.7641   59.6094   65.9904 O   0  0  0  0  0  0  0  0  0  0  0  0
  -42.4827   59.1152   64.8118 C   0  0  0  0  0  0  0  0  0  0  0  0
  -42.5051   60.2164   63.7820 C   0  0  0  0  0  0  0  0  0  0  0  0
  -43.8718   58.7559   65.3026 C   0  0  0  0  0  0  0  0  0  0  0  0
  -45.0732   57.1914   66.6993 N   0  0  0  0  0  0  0  0  0  0  0  0
  -42.8312   57.0333   66.5991 O   0  0  0  0  0  0  0  0  0  0  0  0
  -43.8744   57.5854   66.2604 C   0  0  0  0  0  0  0  0  0  0  0  0
  -45.1277   56.4351   67.3273 H   0  0  0  0  0  0  0  0  0  0  0  0
  -47.8117   59.4927   67.2451 N   0  0  0  0  0  0  0  0  0  0  0  0
  -46.5732   58.2298   68.6243 O   0  0  0  0  0  0  0  0  0  0  0  0
  -46.2985   57.8469   66.2764 C   0  0  0  0  0  0  0  0  0  0  0  0
  -47.2870   56.8120   65.7273 C   0  0  0  0  0  0  0  0  0  0  0  0
  -48.3855   57.4166   64.8597 C   0  0  0  0  0  0  0  0  0  0  0  0
  -49.2960   58.4073   65.5578 C   0  0  0  0  0  0  0  0  0  0  0  0
  -48.5978   59.6660   66.0283 C   0  0  0  0  0  0  0  0  0  0  0  0
  -46.9074   58.5404   67.4847 C   0  0  0  0  0  0  0  0  0  0  0  0
  -47.9642   60.1468   67.9652 H   0  0  0  0  0  0  0  0  0  0  0  0
  -39.5216   58.2329   65.7885 C   0  0  0  0  0  0  0  0  0  0  0  0
  -39.5255   57.2111   64.6565 C   0  0  0  0  0  0  0  0  0  0  0  0
  -40.8363   56.4559   64.5383 C   0  0  0  0  0  0  0  0  0  0  0  0
  -40.8524   55.3783   63.4762 C   0  0  0  0  0  0  0  0  0  0  0  0
  -41.8057   55.6959   62.4249 N   0  0  0  0  0  0  0  0  0  0  0  0
  -42.3236   56.7998   60.5258 O   0  0  0  0  0  0  0  0  0  0  0  0
  -41.5038   56.5198   61.4156 C   0  0  0  0  0  0  0  0  0  0  0  0
  -42.7027   55.2912   62.4572 H   0  0  0  0  0  0  0  0  0  0  0  0
  -39.7403   58.2678   61.3254 C   0  0  0  0  0  0  0  0  0  0  0  0
  -40.1021   56.9950   61.4127 C   0  0  0  0  0  0  0  0  0  0  0  0
  -40.6285   59.4692   61.2328 C   0  0  0  0  0  0  0  0  0  0  0  0
  -40.6178   60.0720   59.8334 C   0  0  0  0  0  0  0  0  0  0  0  0
  -40.4667   59.0454   58.7243 C   0  0  0  0  0  0  0  0  0  0  0  0
  -41.7919   58.5474   58.1718 C   0  0  0  0  0  0  0  0  0  0  0  0
  -42.3096   59.3341   56.9824 C   0  0  0  0  0  0  0  0  0  0  0  0
  -43.6556   58.8458   56.4732 C   0  0  0  0  0  0  0  0  0  0  0  0
  -44.5102   58.1990   57.5455 C   0  0  0  0  0  0  0  0  0  0  0  0
  -45.9947   58.2762   57.2498 C   0  0  0  0  0  0  0  0  0  0  0  0
  -46.6755   56.9283   57.1089 C   0  0  0  0  0  0  0  0  0  0  0  0
  -48.1855   57.0219   57.2054 C   0  0  0  0  0  0  0  0  0  0  0  0
  -48.6665   57.6065   58.5234 C   0  0  0  0  0  0  0  0  0  0  0  0
  -48.3871   56.7290   59.7312 C   0  0  0  0  0  0  0  0  0  0  0  0
  -49.5926   56.5024   60.6303 C   0  0  0  0  0  0  0  0  0  0  0  0
  -50.5956   57.6478   60.6186 C   0  0  0  0  0  0  0  0  0  0  0  0
  -50.7607   58.3211   61.9715 C   0  0  0  0  0  0  0  0  0  0  0  0
  -49.5889   60.3136   60.9550 C   0  0  0  0  0  0  0  0  0  0  0  0
  -49.8385   59.5047   62.2009 C   0  0  0  0  0  0  0  0  0  0  0  0
 43 45  1  0  0  0
 43 42  1  0  0  0
 43 46  1  0  0  0
 64 65  1  0  0  0
 44 45  2  0  0  0
 65 63  1  0  0  0
  2  1  1  0  0  0
  2  4  1  0  0  0
  2  5  1  0  0  0
  3  4  2  0  0  0
 63 62  1  0  0  0
  6  8  1  0  0  0
  6 11  2  0  0  0
  7 10  1  0  0  0
  7 11  1  0  0  0
 62 61  1  0  0  0
 26 28  1  0  0  0
 26 32  1  0  0  0
 26 29  1  0  0  0
 12 18  1  0  0  0
 12 19  1  0  0  0
 61 60  1  0  0  0
 30 36  1  0  0  0
 30 37  1  0  0  0
 30 38  1  0  0  0
 20 21  2  0  0  0
 60 59  1  0  0  0
 22 21  1  0  0  0
 22 23  1  0  0  0
 59 58  1  0  0  0
 27 28  2  0  0  0
 58 57  1  0  0  0
 31 37  2  0  0  0
 57 56  1  0  0  0
 56 55  1  0  0  0
 55 54  1  0  0  0
 54 53  1  0  0  0
 53 52  1  0  0  0
 52 51  1  0  0  0
 51 50  1  0  0  0
 50 49  1  0  0  0
 49 47  1  0  0  0
 47 48  2  0  0  0
 48 45  1  0  0  0
 42 41  1  0  0  0
 41 40  1  0  0  0
 40 39  1  0  0  0
 39  1  1  0  0  0
  1 21  1  0  0  0
  8  4  1  0  0  0
  8  9  1  0  0  0
  8 10  1  0  0  0
 11 13  1  0  0  0
 13 14  2  0  0  0
 13 18  1  0  0  0
 14 15  1  0  0  0
 15 16  2  0  0  0
 16 17  1  0  0  0
 17 18  2  0  0  0
 23 24  1  0  0  0
 23 25  1  0  0  0
 25 28  1  0  0  0
 32 33  1  0  0  0
 32 37  1  0  0  0
 33 34  1  0  0  0
 34 35  1  0  0  0
 35 36  1  0  0  0
M  END
> <minimizedAffinity>
-8.06938

> <CNNscore>
0.1759549975

> <CNNaffinity>
7.6352586746

> <CNN_VS>
1.3434618711

> <CNNaffinity_variance>
1.5281856060

$$$$
