/media/chris/experiments/cd1a-new-docking/inputs/ligands/7ryo_ligand.pdb


 65 67  0  0  0  0  0  0  0  0999 V2000
  -39.2536   59.9382   64.5220 C   0  0  0  0  0  0  0  0  0  0  0  0
  -38.3967   59.1944   63.6137 N   0  0  0  0  0  0  0  0  0  0  0  0
  -38.6348   60.6777   61.9413 O   0  0  0  0  0  0  0  0  0  0  0  0
  -38.1588   59.6402   62.3778 C   0  0  0  0  0  0  0  0  0  0  0  0
  -37.9866   58.3511   63.9135 H   0  0  0  0  0  0  0  0  0  0  0  0
  -35.8496   59.1568   61.6666 N   0  0  0  0  0  0  0  0  0  0  0  0
  -35.8957   56.9181   61.9304 O   0  0  0  0  0  0  0  0  0  0  0  0
  -37.2600   58.7814   61.4730 C   0  0  0  0  0  0  0  0  0  0  0  0
  -37.6448   59.0287   60.0175 C   0  0  0  0  0  0  0  0  0  0  0  0
  -37.2942   57.2865   61.8231 C   0  0  0  0  0  0  0  0  0  0  0  0
  -35.2077   58.0894   61.9079 C   0  0  0  0  0  0  0  0  0  0  0  0
  -33.9182   59.4328   64.1023 O   0  0  0  0  0  0  0  0  0  0  0  0
  -33.7692   57.9854   62.1638 C   0  0  0  0  0  0  0  0  0  0  0  0
  -32.9875   57.1005   61.4201 C   0  0  0  0  0  0  0  0  0  0  0  0
  -31.6899   56.8136   61.8078 C   0  0  0  0  0  0  0  0  0  0  0  0
  -31.1527   57.3985   62.9338 C   0  0  0  0  0  0  0  0  0  0  0  0
  -31.9079   58.2757   63.6907 C   0  0  0  0  0  0  0  0  0  0  0  0
  -33.2147   58.5749   63.3183 C   0  0  0  0  0  0  0  0  0  0  0  0
  -34.8006   59.6549   63.8791 H   0  0  0  0  0  0  0  0  0  0  0  0
  -38.4782   59.4788   66.7643 O   0  0  0  0  0  0  0  0  0  0  0  0
  -38.5413   60.2335   65.8334 C   0  0  0  0  0  0  0  0  0  0  0  0
  -38.0089   61.4679   65.8135 O   0  0  0  0  0  0  0  0  0  0  0  0
  -36.5479   61.5908   65.8114 C   0  0  0  0  0  0  0  0  0  0  0  0
  -36.1709   62.7034   66.7568 C   0  0  0  0  0  0  0  0  0  0  0  0
  -36.1669   61.8991   64.3764 C   0  0  0  0  0  0  0  0  0  0  0  0
  -34.7143   63.4258   63.1925 N   0  0  0  0  0  0  0  0  0  0  0  0
  -33.9724   62.5129   65.1103 O   0  0  0  0  0  0  0  0  0  0  0  0
  -34.8507   62.6355   64.2611 C   0  0  0  0  0  0  0  0  0  0  0  0
  -35.4527   63.4847   62.5441 H   0  0  0  0  0  0  0  0  0  0  0  0
  -32.8911   66.5510   63.1410 N   0  0  0  0  0  0  0  0  0  0  0  0
  -35.0470   66.0288   62.8094 O   0  0  0  0  0  0  0  0  0  0  0  0
  -33.5078   64.2005   62.9603 C   0  0  0  0  0  0  0  0  0  0  0  0
  -32.8966   63.8298   61.6044 C   0  0  0  0  0  0  0  0  0  0  0  0
  -31.4316   64.2292   61.4648 C   0  0  0  0  0  0  0  0  0  0  0  0
  -31.1494   65.7154   61.5607 C   0  0  0  0  0  0  0  0  0  0  0  0
  -31.4688   66.3213   62.9113 C   0  0  0  0  0  0  0  0  0  0  0  0
  -33.8820   65.6744   62.9634 C   0  0  0  0  0  0  0  0  0  0  0  0
  -33.1469   67.4465   63.4603 H   0  0  0  0  0  0  0  0  0  0  0  0
  -40.5715   59.2028   64.7696 C   0  0  0  0  0  0  0  0  0  0  0  0
  -40.5512   57.7774   64.2283 C   0  0  0  0  0  0  0  0  0  0  0  0
  -41.8780   57.3464   63.6312 C   0  0  0  0  0  0  0  0  0  0  0  0
  -42.6897   56.4114   64.5007 C   0  0  0  0  0  0  0  0  0  0  0  0
  -42.9913   57.0230   65.7852 N   0  0  0  0  0  0  0  0  0  0  0  0
  -44.3308   58.3052   67.0718 O   0  0  0  0  0  0  0  0  0  0  0  0
  -44.0817   57.7731   65.9776 C   0  0  0  0  0  0  0  0  0  0  0  0
  -42.3725   56.8802   66.5375 H   0  0  0  0  0  0  0  0  0  0  0  0
  -46.2637   58.2055   64.8706 C   0  0  0  0  0  0  0  0  0  0  0  0
  -44.9894   57.8431   64.8107 C   0  0  0  0  0  0  0  0  0  0  0  0
  -47.0409   58.6282   66.0779 C   0  0  0  0  0  0  0  0  0  0  0  0
  -48.4158   57.9726   66.1217 C   0  0  0  0  0  0  0  0  0  0  0  0
  -49.5355   58.9211   66.5135 C   0  0  0  0  0  0  0  0  0  0  0  0
  -50.6134   59.0613   65.4515 C   0  0  0  0  0  0  0  0  0  0  0  0
  -50.3227   60.1153   64.3999 C   0  0  0  0  0  0  0  0  0  0  0  0
  -51.1469   59.9504   63.1337 C   0  0  0  0  0  0  0  0  0  0  0  0
  -51.1775   58.5271   62.6121 C   0  0  0  0  0  0  0  0  0  0  0  0
  -49.8457   58.0704   62.0515 C   0  0  0  0  0  0  0  0  0  0  0  0
  -49.7119   58.2283   60.5490 C   0  0  0  0  0  0  0  0  0  0  0  0
  -49.3336   56.9344   59.8556 C   0  0  0  0  0  0  0  0  0  0  0  0
  -48.0394   57.0344   59.0649 C   0  0  0  0  0  0  0  0  0  0  0  0
  -48.1864   56.7094   57.5886 C   0  0  0  0  0  0  0  0  0  0  0  0
  -47.0743   57.2663   56.7132 C   0  0  0  0  0  0  0  0  0  0  0  0
  -46.3659   58.4749   57.3092 C   0  0  0  0  0  0  0  0  0  0  0  0
  -44.9166   58.2044   57.6799 C   0  0  0  0  0  0  0  0  0  0  0  0
  -42.9766   59.4394   56.6370 C   0  0  0  0  0  0  0  0  0  0  0  0
  -43.9442   58.2914   56.5177 C   0  0  0  0  0  0  0  0  0  0  0  0
 43 45  1  0  0  0
 43 42  1  0  0  0
 43 46  1  0  0  0
 64 65  1  0  0  0
 44 45  2  0  0  0
 65 63  1  0  0  0
  2  1  1  0  0  0
  2  4  1  0  0  0
  2  5  1  0  0  0
  3  4  2  0  0  0
 63 62  1  0  0  0
  6  8  1  0  0  0
  6 11  2  0  0  0
  7 10  1  0  0  0
  7 11  1  0  0  0
 62 61  1  0  0  0
 26 28  1  0  0  0
 26 32  1  0  0  0
 26 29  1  0  0  0
 12 18  1  0  0  0
 12 19  1  0  0  0
 61 60  1  0  0  0
 30 36  1  0  0  0
 30 37  1  0  0  0
 30 38  1  0  0  0
 20 21  2  0  0  0
 60 59  1  0  0  0
 22 21  1  0  0  0
 22 23  1  0  0  0
 59 58  1  0  0  0
 27 28  2  0  0  0
 58 57  1  0  0  0
 31 37  2  0  0  0
 57 56  1  0  0  0
 56 55  1  0  0  0
 55 54  1  0  0  0
 54 53  1  0  0  0
 53 52  1  0  0  0
 52 51  1  0  0  0
 51 50  1  0  0  0
 50 49  1  0  0  0
 49 47  1  0  0  0
 47 48  2  0  0  0
 48 45  1  0  0  0
 42 41  1  0  0  0
 41 40  1  0  0  0
 40 39  1  0  0  0
 39  1  1  0  0  0
  1 21  1  0  0  0
  8  4  1  0  0  0
  8  9  1  0  0  0
  8 10  1  0  0  0
 11 13  1  0  0  0
 13 14  2  0  0  0
 13 18  1  0  0  0
 14 15  1  0  0  0
 15 16  2  0  0  0
 16 17  1  0  0  0
 17 18  2  0  0  0
 23 24  1  0  0  0
 23 25  1  0  0  0
 25 28  1  0  0  0
 32 33  1  0  0  0
 32 37  1  0  0  0
 33 34  1  0  0  0
 34 35  1  0  0  0
 35 36  1  0  0  0
M  END
> <minimizedAffinity>
-8.85543

> <CNNscore>
0.2902324200

> <CNNaffinity>
7.3124685287

> <CNN_VS>
2.1223154068

> <CNNaffinity_variance>
0.7382036448

$$$$
/media/chris/experiments/cd1a-new-docking/inputs/ligands/7ryo_ligand.pdb


 65 67  0  0  0  0  0  0  0  0999 V2000
  -39.2177   60.0036   64.4548 C   0  0  0  0  0  0  0  0  0  0  0  0
  -38.3964   59.2242   63.5435 N   0  0  0  0  0  0  0  0  0  0  0  0
  -38.3294   60.8443   61.9863 O   0  0  0  0  0  0  0  0  0  0  0  0
  -38.0175   59.7251   62.3652 C   0  0  0  0  0  0  0  0  0  0  0  0
  -38.1160   58.3155   63.7981 H   0  0  0  0  0  0  0  0  0  0  0  0
  -35.7442   59.1666   61.5957 N   0  0  0  0  0  0  0  0  0  0  0  0
  -35.8420   56.9350   61.9020 O   0  0  0  0  0  0  0  0  0  0  0  0
  -37.1692   58.8263   61.4504 C   0  0  0  0  0  0  0  0  0  0  0  0
  -37.5904   59.0582   60.0025 C   0  0  0  0  0  0  0  0  0  0  0  0
  -37.2328   57.3393   61.8289 C   0  0  0  0  0  0  0  0  0  0  0  0
  -35.1241   58.0866   61.8378 C   0  0  0  0  0  0  0  0  0  0  0  0
  -33.5887   59.9923   63.3524 O   0  0  0  0  0  0  0  0  0  0  0  0
  -33.6819   57.9481   62.0533 C   0  0  0  0  0  0  0  0  0  0  0  0
  -33.0200   56.7905   61.6421 C   0  0  0  0  0  0  0  0  0  0  0  0
  -31.7214   56.5409   62.0520 C   0  0  0  0  0  0  0  0  0  0  0  0
  -31.0649   57.4329   62.8716 C   0  0  0  0  0  0  0  0  0  0  0  0
  -31.7000   58.5855   63.2968 C   0  0  0  0  0  0  0  0  0  0  0  0
  -33.0057   58.8528   62.8973 C   0  0  0  0  0  0  0  0  0  0  0  0
  -34.4670   60.2014   63.1020 H   0  0  0  0  0  0  0  0  0  0  0  0
  -38.4687   59.2521   66.6262 O   0  0  0  0  0  0  0  0  0  0  0  0
  -38.5550   60.1350   65.8180 C   0  0  0  0  0  0  0  0  0  0  0  0
  -38.0968   61.3856   66.0011 O   0  0  0  0  0  0  0  0  0  0  0  0
  -36.7284   61.6904   65.5719 C   0  0  0  0  0  0  0  0  0  0  0  0
  -35.9278   60.4135   65.6203 C   0  0  0  0  0  0  0  0  0  0  0  0
  -36.2164   62.7298   66.5500 C   0  0  0  0  0  0  0  0  0  0  0  0
  -34.8681   63.6786   64.7823 N   0  0  0  0  0  0  0  0  0  0  0  0
  -34.0381   63.6688   66.8735 O   0  0  0  0  0  0  0  0  0  0  0  0
  -34.9408   63.3977   66.0866 C   0  0  0  0  0  0  0  0  0  0  0  0
  -35.6234   63.4377   64.1986 H   0  0  0  0  0  0  0  0  0  0  0  0
  -33.3023   66.4059   62.9926 N   0  0  0  0  0  0  0  0  0  0  0  0
  -35.3545   65.5038   62.9208 O   0  0  0  0  0  0  0  0  0  0  0  0
  -33.7067   64.3291   64.2012 C   0  0  0  0  0  0  0  0  0  0  0  0
  -32.9084   63.3275   63.3592 C   0  0  0  0  0  0  0  0  0  0  0  0
  -31.4730   63.7648   63.0876 C   0  0  0  0  0  0  0  0  0  0  0  0
  -31.3217   65.0530   62.3030 C   0  0  0  0  0  0  0  0  0  0  0  0
  -31.8490   66.2797   63.0173 C   0  0  0  0  0  0  0  0  0  0  0  0
  -34.1927   65.4650   63.3149 C   0  0  0  0  0  0  0  0  0  0  0  0
  -33.6643   67.2763   62.7084 H   0  0  0  0  0  0  0  0  0  0  0  0
  -40.6208   59.4092   64.5845 C   0  0  0  0  0  0  0  0  0  0  0  0
  -41.2005   58.9905   63.2376 C   0  0  0  0  0  0  0  0  0  0  0  0
  -41.2197   57.4865   63.0374 C   0  0  0  0  0  0  0  0  0  0  0  0
  -42.4991   56.8062   63.4729 C   0  0  0  0  0  0  0  0  0  0  0  0
  -42.5472   56.6615   64.9192 N   0  0  0  0  0  0  0  0  0  0  0  0
  -43.5356   57.1178   66.8962 O   0  0  0  0  0  0  0  0  0  0  0  0
  -43.5037   57.2318   65.6599 C   0  0  0  0  0  0  0  0  0  0  0  0
  -41.8530   56.1265   65.3675 H   0  0  0  0  0  0  0  0  0  0  0  0
  -45.8252   58.0028   65.2248 C   0  0  0  0  0  0  0  0  0  0  0  0
  -44.5473   57.9314   64.8777 C   0  0  0  0  0  0  0  0  0  0  0  0
  -46.4768   57.4331   66.4460 C   0  0  0  0  0  0  0  0  0  0  0  0
  -47.7313   56.6410   66.0985 C   0  0  0  0  0  0  0  0  0  0  0  0
  -48.7647   57.4385   65.3219 C   0  0  0  0  0  0  0  0  0  0  0  0
  -49.7529   58.1790   66.2077 C   0  0  0  0  0  0  0  0  0  0  0  0
  -49.9079   59.6515   65.8776 C   0  0  0  0  0  0  0  0  0  0  0  0
  -51.1773   59.9680   65.1042 C   0  0  0  0  0  0  0  0  0  0  0  0
  -50.9213   60.4271   63.6820 C   0  0  0  0  0  0  0  0  0  0  0  0
  -50.3312   59.3419   62.8039 C   0  0  0  0  0  0  0  0  0  0  0  0
  -49.6465   59.8539   61.5512 C   0  0  0  0  0  0  0  0  0  0  0  0
  -49.9995   59.0451   60.3187 C   0  0  0  0  0  0  0  0  0  0  0  0
  -49.9139   57.5441   60.5421 C   0  0  0  0  0  0  0  0  0  0  0  0
  -48.8217   56.8578   59.7402 C   0  0  0  0  0  0  0  0  0  0  0  0
  -47.4479   57.4941   59.8845 C   0  0  0  0  0  0  0  0  0  0  0  0
  -46.5672   57.3480   58.6512 C   0  0  0  0  0  0  0  0  0  0  0  0
  -47.1923   57.9227   57.3902 C   0  0  0  0  0  0  0  0  0  0  0  0
  -47.3082   55.4755   56.7785 C   0  0  0  0  0  0  0  0  0  0  0  0
  -47.7075   56.8812   56.4136 C   0  0  0  0  0  0  0  0  0  0  0  0
 43 45  1  0  0  0
 43 42  1  0  0  0
 43 46  1  0  0  0
 64 65  1  0  0  0
 44 45  2  0  0  0
 65 63  1  0  0  0
  2  1  1  0  0  0
  2  4  1  0  0  0
  2  5  1  0  0  0
  3  4  2  0  0  0
 63 62  1  0  0  0
  6  8  1  0  0  0
  6 11  2  0  0  0
  7 10  1  0  0  0
  7 11  1  0  0  0
 62 61  1  0  0  0
 26 28  1  0  0  0
 26 32  1  0  0  0
 26 29  1  0  0  0
 12 18  1  0  0  0
 12 19  1  0  0  0
 61 60  1  0  0  0
 30 36  1  0  0  0
 30 37  1  0  0  0
 30 38  1  0  0  0
 20 21  2  0  0  0
 60 59  1  0  0  0
 22 21  1  0  0  0
 22 23  1  0  0  0
 59 58  1  0  0  0
 27 28  2  0  0  0
 58 57  1  0  0  0
 31 37  2  0  0  0
 57 56  1  0  0  0
 56 55  1  0  0  0
 55 54  1  0  0  0
 54 53  1  0  0  0
 53 52  1  0  0  0
 52 51  1  0  0  0
 51 50  1  0  0  0
 50 49  1  0  0  0
 49 47  1  0  0  0
 47 48  2  0  0  0
 48 45  1  0  0  0
 42 41  1  0  0  0
 41 40  1  0  0  0
 40 39  1  0  0  0
 39  1  1  0  0  0
  1 21  1  0  0  0
  8  4  1  0  0  0
  8  9  1  0  0  0
  8 10  1  0  0  0
 11 13  1  0  0  0
 13 14  2  0  0  0
 13 18  1  0  0  0
 14 15  1  0  0  0
 15 16  2  0  0  0
 16 17  1  0  0  0
 17 18  2  0  0  0
 23 24  1  0  0  0
 23 25  1  0  0  0
 25 28  1  0  0  0
 32 33  1  0  0  0
 32 37  1  0  0  0
 33 34  1  0  0  0
 34 35  1  0  0  0
 35 36  1  0  0  0
M  END
> <minimizedAffinity>
-10.27513

> <CNNscore>
0.1814225912

> <CNNaffinity>
7.2084589005

> <CNN_VS>
1.3077772856

> <CNNaffinity_variance>
1.2496938705

$$$$
/media/chris/experiments/cd1a-new-docking/inputs/ligands/7ryo_ligand.pdb


 65 67  0  0  0  0  0  0  0  0999 V2000
  -40.4882   60.3486   64.2772 C   0  0  0  0  0  0  0  0  0  0  0  0
  -39.7416   59.4221   63.4426 N   0  0  0  0  0  0  0  0  0  0  0  0
  -39.3964   60.9363   61.8171 O   0  0  0  0  0  0  0  0  0  0  0  0
  -39.2518   59.8071   62.2615 C   0  0  0  0  0  0  0  0  0  0  0  0
  -39.5951   58.4990   63.7519 H   0  0  0  0  0  0  0  0  0  0  0  0
  -37.0744   59.1335   61.3252 N   0  0  0  0  0  0  0  0  0  0  0  0
  -37.0587   57.0000   62.0542 O   0  0  0  0  0  0  0  0  0  0  0  0
  -38.4942   58.7587   61.4303 C   0  0  0  0  0  0  0  0  0  0  0  0
  -39.0996   58.7071   60.0308 C   0  0  0  0  0  0  0  0  0  0  0  0
  -38.4606   57.3702   62.0857 C   0  0  0  0  0  0  0  0  0  0  0  0
  -36.3932   58.1250   61.6837 C   0  0  0  0  0  0  0  0  0  0  0  0
  -34.9616   57.3410   64.0541 O   0  0  0  0  0  0  0  0  0  0  0  0
  -34.9316   58.0435   61.7345 C   0  0  0  0  0  0  0  0  0  0  0  0
  -34.1798   58.2100   60.5707 C   0  0  0  0  0  0  0  0  0  0  0  0
  -32.8313   57.8971   60.5551 C   0  0  0  0  0  0  0  0  0  0  0  0
  -32.2133   57.4171   61.6892 C   0  0  0  0  0  0  0  0  0  0  0  0
  -32.9369   57.2388   62.8543 C   0  0  0  0  0  0  0  0  0  0  0  0
  -34.2935   57.5456   62.8891 C   0  0  0  0  0  0  0  0  0  0  0  0
  -35.8759   57.5375   64.1105 H   0  0  0  0  0  0  0  0  0  0  0  0
  -40.1589   60.4297   66.6700 O   0  0  0  0  0  0  0  0  0  0  0  0
  -39.7412   60.6524   65.5673 C   0  0  0  0  0  0  0  0  0  0  0  0
  -38.5544   61.2254   65.3014 O   0  0  0  0  0  0  0  0  0  0  0  0
  -37.3719   60.7279   66.0111 C   0  0  0  0  0  0  0  0  0  0  0  0
  -36.7422   61.8876   66.7409 C   0  0  0  0  0  0  0  0  0  0  0  0
  -36.4627   60.1586   64.9394 C   0  0  0  0  0  0  0  0  0  0  0  0
  -34.5911   61.6370   64.5471 N   0  0  0  0  0  0  0  0  0  0  0  0
  -36.3099   61.6783   63.0959 O   0  0  0  0  0  0  0  0  0  0  0  0
  -35.7861   61.2281   64.1111 C   0  0  0  0  0  0  0  0  0  0  0  0
  -34.2203   61.2401   65.3681 H   0  0  0  0  0  0  0  0  0  0  0  0
  -32.3150   62.6703   61.9307 N   0  0  0  0  0  0  0  0  0  0  0  0
  -32.5540   60.7651   63.0899 O   0  0  0  0  0  0  0  0  0  0  0  0
  -33.8236   62.6503   63.8442 C   0  0  0  0  0  0  0  0  0  0  0  0
  -33.0539   63.5176   64.8466 C   0  0  0  0  0  0  0  0  0  0  0  0
  -32.5952   64.8538   64.2727 C   0  0  0  0  0  0  0  0  0  0  0  0
  -31.6342   64.7654   63.1038 C   0  0  0  0  0  0  0  0  0  0  0  0
  -32.2227   64.1248   61.8642 C   0  0  0  0  0  0  0  0  0  0  0  0
  -32.8412   61.9465   62.9213 C   0  0  0  0  0  0  0  0  0  0  0  0
  -31.9510   62.1702   61.1648 H   0  0  0  0  0  0  0  0  0  0  0  0
  -41.8939   59.8226   64.5708 C   0  0  0  0  0  0  0  0  0  0  0  0
  -41.9700   58.3011   64.5035 C   0  0  0  0  0  0  0  0  0  0  0  0
  -43.3573   57.7869   64.1662 C   0  0  0  0  0  0  0  0  0  0  0  0
  -44.0077   56.9602   65.2538 C   0  0  0  0  0  0  0  0  0  0  0  0
  -44.4651   57.8029   66.3471 N   0  0  0  0  0  0  0  0  0  0  0  0
  -46.1526   58.7197   67.5327 O   0  0  0  0  0  0  0  0  0  0  0  0
  -45.7638   57.9894   66.6065 C   0  0  0  0  0  0  0  0  0  0  0  0
  -43.7969   58.2508   66.9147 H   0  0  0  0  0  0  0  0  0  0  0  0
  -47.9727   57.4411   65.6096 C   0  0  0  0  0  0  0  0  0  0  0  0
  -46.6776   57.1958   65.7545 C   0  0  0  0  0  0  0  0  0  0  0  0
  -48.7726   58.5423   66.2327 C   0  0  0  0  0  0  0  0  0  0  0  0
  -50.1670   58.6394   65.6259 C   0  0  0  0  0  0  0  0  0  0  0  0
  -50.4350   59.9529   64.9117 C   0  0  0  0  0  0  0  0  0  0  0  0
  -50.7067   59.7923   63.4251 C   0  0  0  0  0  0  0  0  0  0  0  0
  -49.4659   59.5606   62.5836 C   0  0  0  0  0  0  0  0  0  0  0  0
  -49.7490   59.5008   61.0916 C   0  0  0  0  0  0  0  0  0  0  0  0
  -50.2303   58.1423   60.6206 C   0  0  0  0  0  0  0  0  0  0  0  0
  -49.1595   57.0727   60.6970 C   0  0  0  0  0  0  0  0  0  0  0  0
  -49.1608   56.1015   59.5321 C   0  0  0  0  0  0  0  0  0  0  0  0
  -47.7716   55.6071   59.1803 C   0  0  0  0  0  0  0  0  0  0  0  0
  -47.5182   55.5472   57.6829 C   0  0  0  0  0  0  0  0  0  0  0  0
  -47.8261   56.8404   56.9482 C   0  0  0  0  0  0  0  0  0  0  0  0
  -47.2932   58.0894   57.6330 C   0  0  0  0  0  0  0  0  0  0  0  0
  -45.8142   58.0161   57.9869 C   0  0  0  0  0  0  0  0  0  0  0  0
  -44.8996   58.4680   56.8597 C   0  0  0  0  0  0  0  0  0  0  0  0
  -42.6070   59.2802   56.1809 C   0  0  0  0  0  0  0  0  0  0  0  0
  -43.4518   58.6701   57.2684 C   0  0  0  0  0  0  0  0  0  0  0  0
 43 45  1  0  0  0
 43 42  1  0  0  0
 43 46  1  0  0  0
 64 65  1  0  0  0
 44 45  2  0  0  0
 65 63  1  0  0  0
  2  1  1  0  0  0
  2  4  1  0  0  0
  2  5  1  0  0  0
  3  4  2  0  0  0
 63 62  1  0  0  0
  6  8  1  0  0  0
  6 11  2  0  0  0
  7 10  1  0  0  0
  7 11  1  0  0  0
 62 61  1  0  0  0
 26 28  1  0  0  0
 26 32  1  0  0  0
 26 29  1  0  0  0
 12 18  1  0  0  0
 12 19  1  0  0  0
 61 60  1  0  0  0
 30 36  1  0  0  0
 30 37  1  0  0  0
 30 38  1  0  0  0
 20 21  2  0  0  0
 60 59  1  0  0  0
 22 21  1  0  0  0
 22 23  1  0  0  0
 59 58  1  0  0  0
 27 28  2  0  0  0
 58 57  1  0  0  0
 31 37  2  0  0  0
 57 56  1  0  0  0
 56 55  1  0  0  0
 55 54  1  0  0  0
 54 53  1  0  0  0
 53 52  1  0  0  0
 52 51  1  0  0  0
 51 50  1  0  0  0
 50 49  1  0  0  0
 49 47  1  0  0  0
 47 48  2  0  0  0
 48 45  1  0  0  0
 42 41  1  0  0  0
 41 40  1  0  0  0
 40 39  1  0  0  0
 39  1  1  0  0  0
  1 21  1  0  0  0
  8  4  1  0  0  0
  8  9  1  0  0  0
  8 10  1  0  0  0
 11 13  1  0  0  0
 13 14  2  0  0  0
 13 18  1  0  0  0
 14 15  1  0  0  0
 15 16  2  0  0  0
 16 17  1  0  0  0
 17 18  2  0  0  0
 23 24  1  0  0  0
 23 25  1  0  0  0
 25 28  1  0  0  0
 32 33  1  0  0  0
 32 37  1  0  0  0
 33 34  1  0  0  0
 34 35  1  0  0  0
 35 36  1  0  0  0
M  END
> <minimizedAffinity>
-8.54748

> <CNNscore>
0.1790889949

> <CNNaffinity>
7.4889373779

> <CNN_VS>
1.3411862850

> <CNNaffinity_variance>
0.6641895771

$$$$
/media/chris/experiments/cd1a-new-docking/inputs/ligands/7ryo_ligand.pdb


 65 67  0  0  0  0  0  0  0  0999 V2000
  -38.4793   59.1859   63.9990 C   0  0  0  0  0  0  0  0  0  0  0  0
  -37.2312   59.5529   64.6472 N   0  0  0  0  0  0  0  0  0  0  0  0
  -36.8658   61.3001   63.2806 O   0  0  0  0  0  0  0  0  0  0  0  0
  -36.5206   60.5998   64.2208 C   0  0  0  0  0  0  0  0  0  0  0  0
  -36.9056   59.0228   65.4102 H   0  0  0  0  0  0  0  0  0  0  0  0
  -34.4245   61.8945   64.1797 N   0  0  0  0  0  0  0  0  0  0  0  0
  -34.5242   62.7314   66.2709 O   0  0  0  0  0  0  0  0  0  0  0  0
  -35.2002   60.9059   64.9467 C   0  0  0  0  0  0  0  0  0  0  0  0
  -34.3898   59.6183   65.0608 C   0  0  0  0  0  0  0  0  0  0  0  0
  -35.3984   61.5750   66.3148 C   0  0  0  0  0  0  0  0  0  0  0  0
  -34.1150   62.8297   64.9792 C   0  0  0  0  0  0  0  0  0  0  0  0
  -34.7049   64.4830   62.6984 O   0  0  0  0  0  0  0  0  0  0  0  0
  -33.3395   64.0276   64.6487 C   0  0  0  0  0  0  0  0  0  0  0  0
  -32.3597   64.4924   65.5269 C   0  0  0  0  0  0  0  0  0  0  0  0
  -31.7947   65.7437   65.3501 C   0  0  0  0  0  0  0  0  0  0  0  0
  -32.1922   66.5473   64.3038 C   0  0  0  0  0  0  0  0  0  0  0  0
  -33.1646   66.1120   63.4218 C   0  0  0  0  0  0  0  0  0  0  0  0
  -33.7458   64.8584   63.5843 C   0  0  0  0  0  0  0  0  0  0  0  0
  -35.1160   63.6451   62.7802 H   0  0  0  0  0  0  0  0  0  0  0  0
  -39.9031   60.2038   65.6654 O   0  0  0  0  0  0  0  0  0  0  0  0
  -39.6471   59.2589   64.9713 C   0  0  0  0  0  0  0  0  0  0  0  0
  -40.3421   58.1082   64.9609 O   0  0  0  0  0  0  0  0  0  0  0  0
  -41.6861   58.1173   64.3749 C   0  0  0  0  0  0  0  0  0  0  0  0
  -42.0902   59.5532   64.1541 C   0  0  0  0  0  0  0  0  0  0  0  0
  -42.5753   57.4162   65.3833 C   0  0  0  0  0  0  0  0  0  0  0  0
  -44.8070   57.8428   66.2080 N   0  0  0  0  0  0  0  0  0  0  0  0
  -44.5067   57.6442   63.9872 O   0  0  0  0  0  0  0  0  0  0  0  0
  -44.0489   57.6407   65.1265 C   0  0  0  0  0  0  0  0  0  0  0  0
  -44.3847   57.8289   67.0972 H   0  0  0  0  0  0  0  0  0  0  0  0
  -47.8912   59.2866   67.4315 N   0  0  0  0  0  0  0  0  0  0  0  0
  -46.0373   58.5419   68.4510 O   0  0  0  0  0  0  0  0  0  0  0  0
  -46.2362   58.0823   66.1092 C   0  0  0  0  0  0  0  0  0  0  0  0
  -46.9722   56.7679   65.8260 C   0  0  0  0  0  0  0  0  0  0  0  0
  -48.3766   56.9627   65.2649 C   0  0  0  0  0  0  0  0  0  0  0  0
  -49.3447   57.6962   66.1719 C   0  0  0  0  0  0  0  0  0  0  0  0
  -48.9625   59.1343   66.4530 C   0  0  0  0  0  0  0  0  0  0  0  0
  -46.7139   58.6573   67.4334 C   0  0  0  0  0  0  0  0  0  0  0  0
  -48.0535   59.9198   68.1678 H   0  0  0  0  0  0  0  0  0  0  0  0
  -38.3865   57.7996   63.3598 C   0  0  0  0  0  0  0  0  0  0  0  0
  -37.0891   57.6046   62.5825 C   0  0  0  0  0  0  0  0  0  0  0  0
  -37.0528   58.3781   61.2776 C   0  0  0  0  0  0  0  0  0  0  0  0
  -38.3338   58.3246   60.4741 C   0  0  0  0  0  0  0  0  0  0  0  0
  -38.8099   59.6626   60.1610 N   0  0  0  0  0  0  0  0  0  0  0  0
  -40.4666   61.0380   59.4849 O   0  0  0  0  0  0  0  0  0  0  0  0
  -40.0656   59.8963   59.7643 C   0  0  0  0  0  0  0  0  0  0  0  0
  -38.1875   60.4209   60.2435 H   0  0  0  0  0  0  0  0  0  0  0  0
  -41.5373   58.2061   58.6916 C   0  0  0  0  0  0  0  0  0  0  0  0
  -40.9399   58.7021   59.7667 C   0  0  0  0  0  0  0  0  0  0  0  0
  -41.4539   58.7065   57.2834 C   0  0  0  0  0  0  0  0  0  0  0  0
  -42.8264   59.0755   56.7337 C   0  0  0  0  0  0  0  0  0  0  0  0
  -43.9663   58.2791   57.3449 C   0  0  0  0  0  0  0  0  0  0  0  0
  -45.3396   58.8608   57.0530 C   0  0  0  0  0  0  0  0  0  0  0  0
  -46.4951   58.0368   57.5889 C   0  0  0  0  0  0  0  0  0  0  0  0
  -47.0247   57.0178   56.5934 C   0  0  0  0  0  0  0  0  0  0  0  0
  -47.0770   55.6055   57.1425 C   0  0  0  0  0  0  0  0  0  0  0  0
  -48.2730   55.3605   58.0406 C   0  0  0  0  0  0  0  0  0  0  0  0
  -48.1309   55.9269   59.4403 C   0  0  0  0  0  0  0  0  0  0  0  0
  -49.1936   56.9579   59.7655 C   0  0  0  0  0  0  0  0  0  0  0  0
  -50.0135   56.6057   60.9959 C   0  0  0  0  0  0  0  0  0  0  0  0
  -51.1338   57.5858   61.2976 C   0  0  0  0  0  0  0  0  0  0  0  0
  -51.1407   58.1052   62.7270 C   0  0  0  0  0  0  0  0  0  0  0  0
  -50.9958   59.6170   62.8352 C   0  0  0  0  0  0  0  0  0  0  0  0
  -49.6592   60.1342   62.3284 C   0  0  0  0  0  0  0  0  0  0  0  0
  -47.7127   60.2485   63.9329 C   0  0  0  0  0  0  0  0  0  0  0  0
  -48.8887   60.9727   63.3321 C   0  0  0  0  0  0  0  0  0  0  0  0
 43 45  1  0  0  0
 43 42  1  0  0  0
 43 46  1  0  0  0
 64 65  1  0  0  0
 44 45  2  0  0  0
 65 63  1  0  0  0
  2  1  1  0  0  0
  2  4  1  0  0  0
  2  5  1  0  0  0
  3  4  2  0  0  0
 63 62  1  0  0  0
  6  8  1  0  0  0
  6 11  2  0  0  0
  7 10  1  0  0  0
  7 11  1  0  0  0
 62 61  1  0  0  0
 26 28  1  0  0  0
 26 32  1  0  0  0
 26 29  1  0  0  0
 12 18  1  0  0  0
 12 19  1  0  0  0
 61 60  1  0  0  0
 30 36  1  0  0  0
 30 37  1  0  0  0
 30 38  1  0  0  0
 20 21  2  0  0  0
 60 59  1  0  0  0
 22 21  1  0  0  0
 22 23  1  0  0  0
 59 58  1  0  0  0
 27 28  2  0  0  0
 58 57  1  0  0  0
 31 37  2  0  0  0
 57 56  1  0  0  0
 56 55  1  0  0  0
 55 54  1  0  0  0
 54 53  1  0  0  0
 53 52  1  0  0  0
 52 51  1  0  0  0
 51 50  1  0  0  0
 50 49  1  0  0  0
 49 47  1  0  0  0
 47 48  2  0  0  0
 48 45  1  0  0  0
 42 41  1  0  0  0
 41 40  1  0  0  0
 40 39  1  0  0  0
 39  1  1  0  0  0
  1 21  1  0  0  0
  8  4  1  0  0  0
  8  9  1  0  0  0
  8 10  1  0  0  0
 11 13  1  0  0  0
 13 14  2  0  0  0
 13 18  1  0  0  0
 14 15  1  0  0  0
 15 16  2  0  0  0
 16 17  1  0  0  0
 17 18  2  0  0  0
 23 24  1  0  0  0
 23 25  1  0  0  0
 25 28  1  0  0  0
 32 33  1  0  0  0
 32 37  1  0  0  0
 33 34  1  0  0  0
 34 35  1  0  0  0
 35 36  1  0  0  0
M  END
> <minimizedAffinity>
-7.83397

> <CNNscore>
0.1780544966

> <CNNaffinity>
7.2395224571

> <CNN_VS>
1.2890294790

> <CNNaffinity_variance>
1.3505132198

$$$$
/media/chris/experiments/cd1a-new-docking/inputs/ligands/7ryo_ligand.pdb


 65 67  0  0  0  0  0  0  0  0999 V2000
  -40.4461   60.2660   64.5687 C   0  0  0  0  0  0  0  0  0  0  0  0
  -39.0512   60.3843   64.9592 N   0  0  0  0  0  0  0  0  0  0  0  0
  -38.3677   60.9403   62.8909 O   0  0  0  0  0  0  0  0  0  0  0  0
  -38.1164   60.7181   64.0661 C   0  0  0  0  0  0  0  0  0  0  0  0
  -38.7922   60.2162   65.8940 H   0  0  0  0  0  0  0  0  0  0  0  0
  -35.9429   59.5647   64.1978 N   0  0  0  0  0  0  0  0  0  0  0  0
  -34.6454   61.2376   63.4223 O   0  0  0  0  0  0  0  0  0  0  0  0
  -36.6613   60.7987   64.5564 C   0  0  0  0  0  0  0  0  0  0  0  0
  -36.6598   60.9516   66.0744 C   0  0  0  0  0  0  0  0  0  0  0  0
  -35.8492   61.9089   63.8733 C   0  0  0  0  0  0  0  0  0  0  0  0
  -34.8822   59.9109   63.5940 C   0  0  0  0  0  0  0  0  0  0  0  0
  -35.4823   57.2466   62.6859 O   0  0  0  0  0  0  0  0  0  0  0  0
  -33.8604   59.0092   63.0568 C   0  0  0  0  0  0  0  0  0  0  0  0
  -32.5638   59.4738   62.8329 C   0  0  0  0  0  0  0  0  0  0  0  0
  -31.6618   58.7155   62.1064 C   0  0  0  0  0  0  0  0  0  0  0  0
  -32.0325   57.4910   61.5947 C   0  0  0  0  0  0  0  0  0  0  0  0
  -33.3130   57.0097   61.7987 C   0  0  0  0  0  0  0  0  0  0  0  0
  -34.2344   57.7583   62.5243 C   0  0  0  0  0  0  0  0  0  0  0  0
  -36.1262   57.7258   63.1693 H   0  0  0  0  0  0  0  0  0  0  0  0
  -41.1492   61.4920   66.5291 O   0  0  0  0  0  0  0  0  0  0  0  0
  -41.3728   60.6375   65.7166 C   0  0  0  0  0  0  0  0  0  0  0  0
  -42.4699   59.8605   65.7075 O   0  0  0  0  0  0  0  0  0  0  0  0
  -42.9878   59.3803   66.9923 C   0  0  0  0  0  0  0  0  0  0  0  0
  -41.8149   58.9589   67.8412 C   0  0  0  0  0  0  0  0  0  0  0  0
  -43.9024   58.2189   66.6548 C   0  0  0  0  0  0  0  0  0  0  0  0
  -46.0837   58.4323   65.6353 N   0  0  0  0  0  0  0  0  0  0  0  0
  -45.8629   58.9616   67.8109 O   0  0  0  0  0  0  0  0  0  0  0  0
  -45.3691   58.5750   66.7552 C   0  0  0  0  0  0  0  0  0  0  0  0
  -45.6338   58.1184   64.8179 H   0  0  0  0  0  0  0  0  0  0  0  0
  -49.5400   57.5823   66.2871 N   0  0  0  0  0  0  0  0  0  0  0  0
  -47.7197   56.3542   65.8297 O   0  0  0  0  0  0  0  0  0  0  0  0
  -47.5052   58.7272   65.5895 C   0  0  0  0  0  0  0  0  0  0  0  0
  -47.8967   59.2169   64.1909 C   0  0  0  0  0  0  0  0  0  0  0  0
  -49.2239   59.9670   64.1554 C   0  0  0  0  0  0  0  0  0  0  0  0
  -50.4379   59.1635   64.5776 C   0  0  0  0  0  0  0  0  0  0  0  0
  -50.4151   58.7199   66.0253 C   0  0  0  0  0  0  0  0  0  0  0  0
  -48.2655   57.4505   65.9126 C   0  0  0  0  0  0  0  0  0  0  0  0
  -49.9304   56.8332   66.7928 H   0  0  0  0  0  0  0  0  0  0  0  0
  -40.7594   58.8633   64.0458 C   0  0  0  0  0  0  0  0  0  0  0  0
  -40.2508   57.7693   64.9785 C   0  0  0  0  0  0  0  0  0  0  0  0
  -41.3000   56.7200   65.2961 C   0  0  0  0  0  0  0  0  0  0  0  0
  -41.4156   55.6106   64.2738 C   0  0  0  0  0  0  0  0  0  0  0  0
  -42.0347   56.0918   63.0491 N   0  0  0  0  0  0  0  0  0  0  0  0
  -41.8732   56.6574   60.8701 O   0  0  0  0  0  0  0  0  0  0  0  0
  -41.3456   56.2340   61.9117 C   0  0  0  0  0  0  0  0  0  0  0  0
  -42.9923   56.3204   63.0576 H   0  0  0  0  0  0  0  0  0  0  0  0
  -38.8837   56.5691   61.9123 C   0  0  0  0  0  0  0  0  0  0  0  0
  -39.9414   55.7725   61.9858 C   0  0  0  0  0  0  0  0  0  0  0  0
  -38.8662   58.0584   61.7630 C   0  0  0  0  0  0  0  0  0  0  0  0
  -38.0054   58.4970   60.5846 C   0  0  0  0  0  0  0  0  0  0  0  0
  -38.7273   59.4014   59.6008 C   0  0  0  0  0  0  0  0  0  0  0  0
  -40.1948   59.6138   59.9339 C   0  0  0  0  0  0  0  0  0  0  0  0
  -41.0780   59.8791   58.7294 C   0  0  0  0  0  0  0  0  0  0  0  0
  -41.6961   58.6206   58.1431 C   0  0  0  0  0  0  0  0  0  0  0  0
  -42.3723   58.8449   56.8047 C   0  0  0  0  0  0  0  0  0  0  0  0
  -43.8481   59.1659   56.9305 C   0  0  0  0  0  0  0  0  0  0  0  0
  -44.7465   57.9487   57.0371 C   0  0  0  0  0  0  0  0  0  0  0  0
  -46.1436   58.2920   57.5149 C   0  0  0  0  0  0  0  0  0  0  0  0
  -47.2040   57.3285   57.0077 C   0  0  0  0  0  0  0  0  0  0  0  0
  -47.1122   55.9340   57.6024 C   0  0  0  0  0  0  0  0  0  0  0  0
  -47.9009   55.7512   58.8898 C   0  0  0  0  0  0  0  0  0  0  0  0
  -48.7966   56.9321   59.2381 C   0  0  0  0  0  0  0  0  0  0  0  0
  -49.5787   56.7383   60.5273 C   0  0  0  0  0  0  0  0  0  0  0  0
  -49.6145   59.2589   60.6747 C   0  0  0  0  0  0  0  0  0  0  0  0
  -50.3261   57.9720   60.9999 C   0  0  0  0  0  0  0  0  0  0  0  0
 43 45  1  0  0  0
 43 42  1  0  0  0
 43 46  1  0  0  0
 64 65  1  0  0  0
 44 45  2  0  0  0
 65 63  1  0  0  0
  2  1  1  0  0  0
  2  4  1  0  0  0
  2  5  1  0  0  0
  3  4  2  0  0  0
 63 62  1  0  0  0
  6  8  1  0  0  0
  6 11  2  0  0  0
  7 10  1  0  0  0
  7 11  1  0  0  0
 62 61  1  0  0  0
 26 28  1  0  0  0
 26 32  1  0  0  0
 26 29  1  0  0  0
 12 18  1  0  0  0
 12 19  1  0  0  0
 61 60  1  0  0  0
 30 36  1  0  0  0
 30 37  1  0  0  0
 30 38  1  0  0  0
 20 21  2  0  0  0
 60 59  1  0  0  0
 22 21  1  0  0  0
 22 23  1  0  0  0
 59 58  1  0  0  0
 27 28  2  0  0  0
 58 57  1  0  0  0
 31 37  2  0  0  0
 57 56  1  0  0  0
 56 55  1  0  0  0
 55 54  1  0  0  0
 54 53  1  0  0  0
 53 52  1  0  0  0
 52 51  1  0  0  0
 51 50  1  0  0  0
 50 49  1  0  0  0
 49 47  1  0  0  0
 47 48  2  0  0  0
 48 45  1  0  0  0
 42 41  1  0  0  0
 41 40  1  0  0  0
 40 39  1  0  0  0
 39  1  1  0  0  0
  1 21  1  0  0  0
  8  4  1  0  0  0
  8  9  1  0  0  0
  8 10  1  0  0  0
 11 13  1  0  0  0
 13 14  2  0  0  0
 13 18  1  0  0  0
 14 15  1  0  0  0
 15 16  2  0  0  0
 16 17  1  0  0  0
 17 18  2  0  0  0
 23 24  1  0  0  0
 23 25  1  0  0  0
 25 28  1  0  0  0
 32 33  1  0  0  0
 32 37  1  0  0  0
 33 34  1  0  0  0
 34 35  1  0  0  0
 35 36  1  0  0  0
M  END
> <minimizedAffinity>
-7.29553

> <CNNscore>
0.1755198985

> <CNNaffinity>
7.6228094101

> <CNN_VS>
1.3379547596

> <CNNaffinity_variance>
1.8558762074

$$$$
/media/chris/experiments/cd1a-new-docking/inputs/ligands/7ryo_ligand.pdb


 65 67  0  0  0  0  0  0  0  0999 V2000
  -39.7234   59.9718   65.5632 C   0  0  0  0  0  0  0  0  0  0  0  0
  -38.3124   59.9691   65.2149 N   0  0  0  0  0  0  0  0  0  0  0  0
  -37.8142   61.6578   66.6128 O   0  0  0  0  0  0  0  0  0  0  0  0
  -37.4655   60.8310   65.7831 C   0  0  0  0  0  0  0  0  0  0  0  0
  -37.9767   59.3236   64.5516 H   0  0  0  0  0  0  0  0  0  0  0  0
  -35.8073   61.5795   64.1212 N   0  0  0  0  0  0  0  0  0  0  0  0
  -34.2345   62.3274   65.5531 O   0  0  0  0  0  0  0  0  0  0  0  0
  -35.9937   60.7773   65.3416 C   0  0  0  0  0  0  0  0  0  0  0  0
  -35.6199   59.3280   65.0455 C   0  0  0  0  0  0  0  0  0  0  0  0
  -35.0309   61.4167   66.3528 C   0  0  0  0  0  0  0  0  0  0  0  0
  -34.8458   62.3776   64.3409 C   0  0  0  0  0  0  0  0  0  0  0  0
  -36.0356   64.9709   63.9638 O   0  0  0  0  0  0  0  0  0  0  0  0
  -34.3102   63.3645   63.4004 C   0  0  0  0  0  0  0  0  0  0  0  0
  -33.0994   63.1263   62.7488 C   0  0  0  0  0  0  0  0  0  0  0  0
  -32.4646   64.1411   62.0535 C   0  0  0  0  0  0  0  0  0  0  0  0
  -33.0203   65.4006   61.9953 C   0  0  0  0  0  0  0  0  0  0  0  0
  -34.2173   65.6640   62.6361 C   0  0  0  0  0  0  0  0  0  0  0  0
  -34.8693   64.6576   63.3418 C   0  0  0  0  0  0  0  0  0  0  0  0
  -36.4993   64.3159   64.4473 H   0  0  0  0  0  0  0  0  0  0  0  0
  -39.7101   57.5926   65.1395 O   0  0  0  0  0  0  0  0  0  0  0  0
  -40.3146   58.5727   65.4773 C   0  0  0  0  0  0  0  0  0  0  0  0
  -41.6165   58.5893   65.8126 O   0  0  0  0  0  0  0  0  0  0  0  0
  -42.4539   57.4627   65.3895 C   0  0  0  0  0  0  0  0  0  0  0  0
  -43.2383   57.8930   64.1756 C   0  0  0  0  0  0  0  0  0  0  0  0
  -43.3483   57.1522   66.5739 C   0  0  0  0  0  0  0  0  0  0  0  0
  -45.6348   57.5655   65.9076 N   0  0  0  0  0  0  0  0  0  0  0  0
  -44.6321   59.0494   67.2694 O   0  0  0  0  0  0  0  0  0  0  0  0
  -44.5924   58.0116   66.6146 C   0  0  0  0  0  0  0  0  0  0  0  0
  -45.5449   56.7261   65.4012 H   0  0  0  0  0  0  0  0  0  0  0  0
  -49.2241   57.7353   66.3334 N   0  0  0  0  0  0  0  0  0  0  0  0
  -47.8260   56.0795   65.7552 O   0  0  0  0  0  0  0  0  0  0  0  0
  -46.8965   58.2837   65.8650 C   0  0  0  0  0  0  0  0  0  0  0  0
  -47.0247   59.0452   64.5409 C   0  0  0  0  0  0  0  0  0  0  0  0
  -48.0615   60.1628   64.5766 C   0  0  0  0  0  0  0  0  0  0  0  0
  -49.4866   59.7212   64.8448 C   0  0  0  0  0  0  0  0  0  0  0  0
  -49.6990   59.1095   66.2137 C   0  0  0  0  0  0  0  0  0  0  0  0
  -48.0240   57.2698   65.9797 C   0  0  0  0  0  0  0  0  0  0  0  0
  -49.8548   57.0827   66.7150 H   0  0  0  0  0  0  0  0  0  0  0  0
  -40.5091   60.9514   64.6902 C   0  0  0  0  0  0  0  0  0  0  0  0
  -41.1782   60.2643   63.5047 C   0  0  0  0  0  0  0  0  0  0  0  0
  -40.6162   60.7029   62.1651 C   0  0  0  0  0  0  0  0  0  0  0  0
  -39.1107   60.6070   62.0483 C   0  0  0  0  0  0  0  0  0  0  0  0
  -38.7123   60.2829   60.6878 N   0  0  0  0  0  0  0  0  0  0  0  0
  -37.3136   59.2365   59.2587 O   0  0  0  0  0  0  0  0  0  0  0  0
  -37.6599   59.5016   60.4215 C   0  0  0  0  0  0  0  0  0  0  0  0
  -39.2342   60.6506   59.9384 H   0  0  0  0  0  0  0  0  0  0  0  0
  -37.3406   57.7702   62.1747 C   0  0  0  0  0  0  0  0  0  0  0  0
  -37.0066   58.9269   61.6187 C   0  0  0  0  0  0  0  0  0  0  0  0
  -38.3980   56.8096   61.7278 C   0  0  0  0  0  0  0  0  0  0  0  0
  -39.7699   57.1873   62.2730 C   0  0  0  0  0  0  0  0  0  0  0  0
  -40.9252   56.5427   61.5267 C   0  0  0  0  0  0  0  0  0  0  0  0
  -41.6718   57.5028   60.6156 C   0  0  0  0  0  0  0  0  0  0  0  0
  -40.8853   57.9494   59.3977 C   0  0  0  0  0  0  0  0  0  0  0  0
  -41.5641   59.0596   58.6125 C   0  0  0  0  0  0  0  0  0  0  0  0
  -41.8354   58.6990   57.1651 C   0  0  0  0  0  0  0  0  0  0  0  0
  -43.2672   58.9637   56.7447 C   0  0  0  0  0  0  0  0  0  0  0  0
  -44.3099   58.2879   57.6143 C   0  0  0  0  0  0  0  0  0  0  0  0
  -45.6954   58.3211   57.0002 C   0  0  0  0  0  0  0  0  0  0  0  0
  -46.8051   58.0851   58.0117 C   0  0  0  0  0  0  0  0  0  0  0  0
  -47.0292   56.6236   58.3587 C   0  0  0  0  0  0  0  0  0  0  0  0
  -48.2500   56.3688   59.2291 C   0  0  0  0  0  0  0  0  0  0  0  0
  -49.3268   57.4387   59.1108 C   0  0  0  0  0  0  0  0  0  0  0  0
  -50.0224   57.7447   60.4275 C   0  0  0  0  0  0  0  0  0  0  0  0
  -49.6100   60.1430   61.1016 C   0  0  0  0  0  0  0  0  0  0  0  0
  -49.2619   58.6961   61.3333 C   0  0  0  0  0  0  0  0  0  0  0  0
 43 45  1  0  0  0
 43 42  1  0  0  0
 43 46  1  0  0  0
 64 65  1  0  0  0
 44 45  2  0  0  0
 65 63  1  0  0  0
  2  1  1  0  0  0
  2  4  1  0  0  0
  2  5  1  0  0  0
  3  4  2  0  0  0
 63 62  1  0  0  0
  6  8  1  0  0  0
  6 11  2  0  0  0
  7 10  1  0  0  0
  7 11  1  0  0  0
 62 61  1  0  0  0
 26 28  1  0  0  0
 26 32  1  0  0  0
 26 29  1  0  0  0
 12 18  1  0  0  0
 12 19  1  0  0  0
 61 60  1  0  0  0
 30 36  1  0  0  0
 30 37  1  0  0  0
 30 38  1  0  0  0
 20 21  2  0  0  0
 60 59  1  0  0  0
 22 21  1  0  0  0
 22 23  1  0  0  0
 59 58  1  0  0  0
 27 28  2  0  0  0
 58 57  1  0  0  0
 31 37  2  0  0  0
 57 56  1  0  0  0
 56 55  1  0  0  0
 55 54  1  0  0  0
 54 53  1  0  0  0
 53 52  1  0  0  0
 52 51  1  0  0  0
 51 50  1  0  0  0
 50 49  1  0  0  0
 49 47  1  0  0  0
 47 48  2  0  0  0
 48 45  1  0  0  0
 42 41  1  0  0  0
 41 40  1  0  0  0
 40 39  1  0  0  0
 39  1  1  0  0  0
  1 21  1  0  0  0
  8  4  1  0  0  0
  8  9  1  0  0  0
  8 10  1  0  0  0
 11 13  1  0  0  0
 13 14  2  0  0  0
 13 18  1  0  0  0
 14 15  1  0  0  0
 15 16  2  0  0  0
 16 17  1  0  0  0
 17 18  2  0  0  0
 23 24  1  0  0  0
 23 25  1  0  0  0
 25 28  1  0  0  0
 32 33  1  0  0  0
 32 37  1  0  0  0
 33 34  1  0  0  0
 34 35  1  0  0  0
 35 36  1  0  0  0
M  END
> <minimizedAffinity>
-8.15621

> <CNNscore>
0.1722587496

> <CNNaffinity>
7.6880784035

> <CNN_VS>
1.3243387938

> <CNNaffinity_variance>
1.8886655569

$$$$
/media/chris/experiments/cd1a-new-docking/inputs/ligands/7ryo_ligand.pdb


 65 67  0  0  0  0  0  0  0  0999 V2000
  -42.7315   58.0263   63.7234 C   0  0  0  0  0  0  0  0  0  0  0  0
  -43.8609   58.3699   64.5711 N   0  0  0  0  0  0  0  0  0  0  0  0
  -44.5209   56.2339   64.8071 O   0  0  0  0  0  0  0  0  0  0  0  0
  -44.6723   57.4225   65.0475 C   0  0  0  0  0  0  0  0  0  0  0  0
  -44.0299   59.3132   64.7969 H   0  0  0  0  0  0  0  0  0  0  0  0
  -46.7314   58.7723   65.1466 N   0  0  0  0  0  0  0  0  0  0  0  0
  -48.1102   57.1922   65.9746 O   0  0  0  0  0  0  0  0  0  0  0  0
  -45.8572   57.8730   65.9176 C   0  0  0  0  0  0  0  0  0  0  0  0
  -45.3201   58.6231   67.1328 C   0  0  0  0  0  0  0  0  0  0  0  0
  -46.7852   56.7198   66.3270 C   0  0  0  0  0  0  0  0  0  0  0  0
  -47.9121   58.3176   65.2397 C   0  0  0  0  0  0  0  0  0  0  0  0
  -49.8751   59.7804   66.7530 O   0  0  0  0  0  0  0  0  0  0  0  0
  -49.1114   58.8962   64.6294 C   0  0  0  0  0  0  0  0  0  0  0  0
  -49.2708   58.8770   63.2432 C   0  0  0  0  0  0  0  0  0  0  0  0
  -50.2665   59.6266   62.6404 C   0  0  0  0  0  0  0  0  0  0  0  0
  -51.1139   60.4018   63.4018 C   0  0  0  0  0  0  0  0  0  0  0  0
  -50.9742   60.4417   64.7771 C   0  0  0  0  0  0  0  0  0  0  0  0
  -49.9782   59.6970   65.4010 C   0  0  0  0  0  0  0  0  0  0  0  0
  -49.2149   59.2915   67.2035 H   0  0  0  0  0  0  0  0  0  0  0  0
  -41.4212   57.4177   65.6607 O   0  0  0  0  0  0  0  0  0  0  0  0
  -41.6753   57.2537   64.4993 C   0  0  0  0  0  0  0  0  0  0  0  0
  -41.0500   56.3743   63.6974 O   0  0  0  0  0  0  0  0  0  0  0  0
  -40.8160   56.7566   62.3014 C   0  0  0  0  0  0  0  0  0  0  0  0
  -41.7713   55.9743   61.4359 C   0  0  0  0  0  0  0  0  0  0  0  0
  -39.3669   56.4092   62.0211 C   0  0  0  0  0  0  0  0  0  0  0  0
  -37.1001   57.1180   62.4705 N   0  0  0  0  0  0  0  0  0  0  0  0
  -38.7817   58.1778   63.5247 O   0  0  0  0  0  0  0  0  0  0  0  0
  -38.3933   57.3136   62.7437 C   0  0  0  0  0  0  0  0  0  0  0  0
  -36.8475   56.4095   61.8354 H   0  0  0  0  0  0  0  0  0  0  0  0
  -34.0872   59.1135   62.2851 N   0  0  0  0  0  0  0  0  0  0  0  0
  -34.8557   57.3829   61.0829 O   0  0  0  0  0  0  0  0  0  0  0  0
  -36.0566   57.9210   63.0836 C   0  0  0  0  0  0  0  0  0  0  0  0
  -35.4979   57.2049   64.3183 C   0  0  0  0  0  0  0  0  0  0  0  0
  -34.7471   58.1276   65.2723 C   0  0  0  0  0  0  0  0  0  0  0  0
  -33.5181   58.8014   64.6950 C   0  0  0  0  0  0  0  0  0  0  0  0
  -33.8122   59.7626   63.5625 C   0  0  0  0  0  0  0  0  0  0  0  0
  -34.9463   58.1161   62.0631 C   0  0  0  0  0  0  0  0  0  0  0  0
  -33.5867   59.4457   61.5052 H   0  0  0  0  0  0  0  0  0  0  0  0
  -42.1282   59.2708   63.0704 C   0  0  0  0  0  0  0  0  0  0  0  0
  -42.2947   60.5172   63.9331 C   0  0  0  0  0  0  0  0  0  0  0  0
  -40.9752   61.1728   64.2960 C   0  0  0  0  0  0  0  0  0  0  0  0
  -40.5917   61.0583   65.7552 C   0  0  0  0  0  0  0  0  0  0  0  0
  -39.8963   59.8079   66.0157 N   0  0  0  0  0  0  0  0  0  0  0  0
  -37.9715   58.6711   66.3257 O   0  0  0  0  0  0  0  0  0  0  0  0
  -38.5643   59.7421   66.1161 C   0  0  0  0  0  0  0  0  0  0  0  0
  -40.4233   58.9831   66.1214 H   0  0  0  0  0  0  0  0  0  0  0  0
  -37.1268   61.4453   65.0179 C   0  0  0  0  0  0  0  0  0  0  0  0
  -37.8796   61.0518   66.0363 C   0  0  0  0  0  0  0  0  0  0  0  0
  -36.8237   60.6956   63.7583 C   0  0  0  0  0  0  0  0  0  0  0  0
  -37.3932   61.3990   62.5324 C   0  0  0  0  0  0  0  0  0  0  0  0
  -38.3371   60.5358   61.7132 C   0  0  0  0  0  0  0  0  0  0  0  0
  -37.7239   60.0211   60.4214 C   0  0  0  0  0  0  0  0  0  0  0  0
  -38.6757   59.2216   59.5518 C   0  0  0  0  0  0  0  0  0  0  0  0
  -40.1369   59.4039   59.9277 C   0  0  0  0  0  0  0  0  0  0  0  0
  -41.0894   58.6017   59.0627 C   0  0  0  0  0  0  0  0  0  0  0  0
  -41.6750   59.4059   57.9194 C   0  0  0  0  0  0  0  0  0  0  0  0
  -42.5254   58.5984   56.9575 C   0  0  0  0  0  0  0  0  0  0  0  0
  -43.9693   59.0588   56.9243 C   0  0  0  0  0  0  0  0  0  0  0  0
  -44.9641   57.9256   57.1143 C   0  0  0  0  0  0  0  0  0  0  0  0
  -46.3396   58.3766   57.5741 C   0  0  0  0  0  0  0  0  0  0  0  0
  -46.8623   57.6381   58.7966 C   0  0  0  0  0  0  0  0  0  0  0  0
  -48.1932   56.9341   58.5704 C   0  0  0  0  0  0  0  0  0  0  0  0
  -49.3992   57.8161   58.8509 C   0  0  0  0  0  0  0  0  0  0  0  0
  -49.7574   56.1280   60.6943 C   0  0  0  0  0  0  0  0  0  0  0  0
  -50.1559   57.4612   60.1180 C   0  0  0  0  0  0  0  0  0  0  0  0
 43 45  1  0  0  0
 43 42  1  0  0  0
 43 46  1  0  0  0
 64 65  1  0  0  0
 44 45  2  0  0  0
 65 63  1  0  0  0
  2  1  1  0  0  0
  2  4  1  0  0  0
  2  5  1  0  0  0
  3  4  2  0  0  0
 63 62  1  0  0  0
  6  8  1  0  0  0
  6 11  2  0  0  0
  7 10  1  0  0  0
  7 11  1  0  0  0
 62 61  1  0  0  0
 26 28  1  0  0  0
 26 32  1  0  0  0
 26 29  1  0  0  0
 12 18  1  0  0  0
 12 19  1  0  0  0
 61 60  1  0  0  0
 30 36  1  0  0  0
 30 37  1  0  0  0
 30 38  1  0  0  0
 20 21  2  0  0  0
 60 59  1  0  0  0
 22 21  1  0  0  0
 22 23  1  0  0  0
 59 58  1  0  0  0
 27 28  2  0  0  0
 58 57  1  0  0  0
 31 37  2  0  0  0
 57 56  1  0  0  0
 56 55  1  0  0  0
 55 54  1  0  0  0
 54 53  1  0  0  0
 53 52  1  0  0  0
 52 51  1  0  0  0
 51 50  1  0  0  0
 50 49  1  0  0  0
 49 47  1  0  0  0
 47 48  2  0  0  0
 48 45  1  0  0  0
 42 41  1  0  0  0
 41 40  1  0  0  0
 40 39  1  0  0  0
 39  1  1  0  0  0
  1 21  1  0  0  0
  8  4  1  0  0  0
  8  9  1  0  0  0
  8 10  1  0  0  0
 11 13  1  0  0  0
 13 14  2  0  0  0
 13 18  1  0  0  0
 14 15  1  0  0  0
 15 16  2  0  0  0
 16 17  1  0  0  0
 17 18  2  0  0  0
 23 24  1  0  0  0
 23 25  1  0  0  0
 25 28  1  0  0  0
 32 33  1  0  0  0
 32 37  1  0  0  0
 33 34  1  0  0  0
 34 35  1  0  0  0
 35 36  1  0  0  0
M  END
> <minimizedAffinity>
-7.13098

> <CNNscore>
0.1629193574

> <CNNaffinity>
8.0329170227

> <CNN_VS>
1.3087177277

> <CNNaffinity_variance>
1.6315066814

$$$$
/media/chris/experiments/cd1a-new-docking/inputs/ligands/7ryo_ligand.pdb


 65 67  0  0  0  0  0  0  0  0999 V2000
  -40.4292   60.3265   64.7146 C   0  0  0  0  0  0  0  0  0  0  0  0
  -39.1097   60.3743   65.3222 N   0  0  0  0  0  0  0  0  0  0  0  0
  -38.0783   60.8822   63.3903 O   0  0  0  0  0  0  0  0  0  0  0  0
  -38.0288   60.6540   64.5899 C   0  0  0  0  0  0  0  0  0  0  0  0
  -39.0117   60.1984   66.2859 H   0  0  0  0  0  0  0  0  0  0  0  0
  -35.8089   61.7134   64.7367 N   0  0  0  0  0  0  0  0  0  0  0  0
  -35.7739   62.0758   66.9618 O   0  0  0  0  0  0  0  0  0  0  0  0
  -36.6679   60.6616   65.3054 C   0  0  0  0  0  0  0  0  0  0  0  0
  -35.9958   59.3071   65.1021 C   0  0  0  0  0  0  0  0  0  0  0  0
  -36.7642   61.0298   66.7932 C   0  0  0  0  0  0  0  0  0  0  0  0
  -35.3849   62.4149   65.7050 C   0  0  0  0  0  0  0  0  0  0  0  0
  -33.6850   63.2561   67.8698 O   0  0  0  0  0  0  0  0  0  0  0  0
  -34.4946   63.5740   65.6074 C   0  0  0  0  0  0  0  0  0  0  0  0
  -34.3357   64.2346   64.3885 C   0  0  0  0  0  0  0  0  0  0  0  0
  -33.3257   65.1665   64.2214 C   0  0  0  0  0  0  0  0  0  0  0  0
  -32.4637   65.4545   65.2570 C   0  0  0  0  0  0  0  0  0  0  0  0
  -32.5970   64.8106   66.4737 C   0  0  0  0  0  0  0  0  0  0  0  0
  -33.6044   63.8692   66.6603 C   0  0  0  0  0  0  0  0  0  0  0  0
  -34.3521   62.6173   68.0277 H   0  0  0  0  0  0  0  0  0  0  0  0
  -41.4672   61.6489   66.4508 O   0  0  0  0  0  0  0  0  0  0  0  0
  -41.5109   60.7004   65.7168 C   0  0  0  0  0  0  0  0  0  0  0  0
  -42.5156   59.8077   65.6815 O   0  0  0  0  0  0  0  0  0  0  0  0
  -43.0810   59.3523   66.9553 C   0  0  0  0  0  0  0  0  0  0  0  0
  -41.9412   58.9370   67.8510 C   0  0  0  0  0  0  0  0  0  0  0  0
  -43.9919   58.1917   66.6051 C   0  0  0  0  0  0  0  0  0  0  0  0
  -46.1591   58.5061   65.5819 N   0  0  0  0  0  0  0  0  0  0  0  0
  -45.9675   58.8223   67.8012 O   0  0  0  0  0  0  0  0  0  0  0  0
  -45.4596   58.5387   66.7199 C   0  0  0  0  0  0  0  0  0  0  0  0
  -45.6983   58.2719   64.7441 H   0  0  0  0  0  0  0  0  0  0  0  0
  -49.6138   57.6704   66.2598 N   0  0  0  0  0  0  0  0  0  0  0  0
  -47.8016   56.4346   65.7916 O   0  0  0  0  0  0  0  0  0  0  0  0
  -47.5797   58.8063   65.5458 C   0  0  0  0  0  0  0  0  0  0  0  0
  -47.9794   59.2951   64.1490 C   0  0  0  0  0  0  0  0  0  0  0  0
  -49.3039   60.0502   64.1217 C   0  0  0  0  0  0  0  0  0  0  0  0
  -50.5180   59.2521   64.5540 C   0  0  0  0  0  0  0  0  0  0  0  0
  -50.4865   58.8109   66.0023 C   0  0  0  0  0  0  0  0  0  0  0  0
  -48.3426   57.5331   65.8765 C   0  0  0  0  0  0  0  0  0  0  0  0
  -50.0034   56.9237   66.7696 H   0  0  0  0  0  0  0  0  0  0  0  0
  -40.7069   58.9550   64.0973 C   0  0  0  0  0  0  0  0  0  0  0  0
  -40.2362   57.8111   64.9891 C   0  0  0  0  0  0  0  0  0  0  0  0
  -41.2973   56.7486   65.2072 C   0  0  0  0  0  0  0  0  0  0  0  0
  -41.3288   55.6603   64.1564 C   0  0  0  0  0  0  0  0  0  0  0  0
  -41.8819   56.1573   62.9066 N   0  0  0  0  0  0  0  0  0  0  0  0
  -41.5928   56.8136   60.7667 O   0  0  0  0  0  0  0  0  0  0  0  0
  -41.1206   56.3769   61.8291 C   0  0  0  0  0  0  0  0  0  0  0  0
  -42.8481   56.3380   62.8520 H   0  0  0  0  0  0  0  0  0  0  0  0
  -38.6779   56.8208   61.9259 C   0  0  0  0  0  0  0  0  0  0  0  0
  -39.7033   55.9825   61.9911 C   0  0  0  0  0  0  0  0  0  0  0  0
  -38.7159   58.3003   61.7019 C   0  0  0  0  0  0  0  0  0  0  0  0
  -37.9510   58.7006   60.4462 C   0  0  0  0  0  0  0  0  0  0  0  0
  -38.7936   59.4470   59.4265 C   0  0  0  0  0  0  0  0  0  0  0  0
  -40.1574   59.8632   59.9523 C   0  0  0  0  0  0  0  0  0  0  0  0
  -41.2392   59.9434   58.8918 C   0  0  0  0  0  0  0  0  0  0  0  0
  -41.4406   58.6421   58.1330 C   0  0  0  0  0  0  0  0  0  0  0  0
  -42.1236   58.8228   56.7915 C   0  0  0  0  0  0  0  0  0  0  0  0
  -43.5946   59.1659   56.9145 C   0  0  0  0  0  0  0  0  0  0  0  0
  -44.4762   58.0025   57.3263 C   0  0  0  0  0  0  0  0  0  0  0  0
  -45.9513   58.3516   57.3113 C   0  0  0  0  0  0  0  0  0  0  0  0
  -46.8221   57.2495   56.7306 C   0  0  0  0  0  0  0  0  0  0  0  0
  -47.0850   56.0974   57.6847 C   0  0  0  0  0  0  0  0  0  0  0  0
  -47.6781   56.5165   59.0210 C   0  0  0  0  0  0  0  0  0  0  0  0
  -48.9014   57.4146   58.8990 C   0  0  0  0  0  0  0  0  0  0  0  0
  -48.8923   58.5842   59.8702 C   0  0  0  0  0  0  0  0  0  0  0  0
  -50.6070   57.1759   61.0755 C   0  0  0  0  0  0  0  0  0  0  0  0
  -49.9922   58.5414   60.9153 C   0  0  0  0  0  0  0  0  0  0  0  0
 43 45  1  0  0  0
 43 42  1  0  0  0
 43 46  1  0  0  0
 64 65  1  0  0  0
 44 45  2  0  0  0
 65 63  1  0  0  0
  2  1  1  0  0  0
  2  4  1  0  0  0
  2  5  1  0  0  0
  3  4  2  0  0  0
 63 62  1  0  0  0
  6  8  1  0  0  0
  6 11  2  0  0  0
  7 10  1  0  0  0
  7 11  1  0  0  0
 62 61  1  0  0  0
 26 28  1  0  0  0
 26 32  1  0  0  0
 26 29  1  0  0  0
 12 18  1  0  0  0
 12 19  1  0  0  0
 61 60  1  0  0  0
 30 36  1  0  0  0
 30 37  1  0  0  0
 30 38  1  0  0  0
 20 21  2  0  0  0
 60 59  1  0  0  0
 22 21  1  0  0  0
 22 23  1  0  0  0
 59 58  1  0  0  0
 27 28  2  0  0  0
 58 57  1  0  0  0
 31 37  2  0  0  0
 57 56  1  0  0  0
 56 55  1  0  0  0
 55 54  1  0  0  0
 54 53  1  0  0  0
 53 52  1  0  0  0
 52 51  1  0  0  0
 51 50  1  0  0  0
 50 49  1  0  0  0
 49 47  1  0  0  0
 47 48  2  0  0  0
 48 45  1  0  0  0
 42 41  1  0  0  0
 41 40  1  0  0  0
 40 39  1  0  0  0
 39  1  1  0  0  0
  1 21  1  0  0  0
  8  4  1  0  0  0
  8  9  1  0  0  0
  8 10  1  0  0  0
 11 13  1  0  0  0
 13 14  2  0  0  0
 13 18  1  0  0  0
 14 15  1  0  0  0
 15 16  2  0  0  0
 16 17  1  0  0  0
 17 18  2  0  0  0
 23 24  1  0  0  0
 23 25  1  0  0  0
 25 28  1  0  0  0
 32 33  1  0  0  0
 32 37  1  0  0  0
 33 34  1  0  0  0
 34 35  1  0  0  0
 35 36  1  0  0  0
M  END
> <minimizedAffinity>
-7.48386

> <CNNscore>
0.1600643396

> <CNNaffinity>
7.6286735535

> <CNN_VS>
1.2210786343

> <CNNaffinity_variance>
1.0699310303

$$$$
/media/chris/experiments/cd1a-new-docking/inputs/ligands/7ryo_ligand.pdb


 65 67  0  0  0  0  0  0  0  0999 V2000
  -40.2387   60.5019   65.4879 C   0  0  0  0  0  0  0  0  0  0  0  0
  -38.8681   60.8106   65.1155 N   0  0  0  0  0  0  0  0  0  0  0  0
  -38.0866   60.5495   67.2072 O   0  0  0  0  0  0  0  0  0  0  0  0
  -37.8934   60.8067   66.0281 C   0  0  0  0  0  0  0  0  0  0  0  0
  -38.6556   61.0252   64.1785 H   0  0  0  0  0  0  0  0  0  0  0  0
  -35.6988   59.9387   65.3199 N   0  0  0  0  0  0  0  0  0  0  0  0
  -35.4773   61.1377   63.4234 O   0  0  0  0  0  0  0  0  0  0  0  0
  -36.4754   61.1670   65.5554 C   0  0  0  0  0  0  0  0  0  0  0  0
  -35.7876   61.9896   66.6407 C   0  0  0  0  0  0  0  0  0  0  0  0
  -36.4500   61.8843   64.1977 C   0  0  0  0  0  0  0  0  0  0  0  0
  -35.2100   60.0227   64.1521 C   0  0  0  0  0  0  0  0  0  0  0  0
  -35.7779   57.2027   64.2433 O   0  0  0  0  0  0  0  0  0  0  0  0
  -34.3634   59.0236   63.4959 C   0  0  0  0  0  0  0  0  0  0  0  0
  -33.3131   59.4282   62.6711 C   0  0  0  0  0  0  0  0  0  0  0  0
  -32.6652   58.5130   61.8593 C   0  0  0  0  0  0  0  0  0  0  0  0
  -33.0488   57.1896   61.8552 C   0  0  0  0  0  0  0  0  0  0  0  0
  -34.0897   56.7637   62.6601 C   0  0  0  0  0  0  0  0  0  0  0  0
  -34.7546   57.6690   63.4813 C   0  0  0  0  0  0  0  0  0  0  0  0
  -36.2461   57.7866   64.8070 H   0  0  0  0  0  0  0  0  0  0  0  0
  -39.7056   58.1797   65.0832 O   0  0  0  0  0  0  0  0  0  0  0  0
  -40.4893   59.0014   65.4716 C   0  0  0  0  0  0  0  0  0  0  0  0
  -41.7208   58.7239   65.9341 O   0  0  0  0  0  0  0  0  0  0  0  0
  -42.3805   57.5051   65.4557 C   0  0  0  0  0  0  0  0  0  0  0  0
  -43.0920   57.8332   64.1674 C   0  0  0  0  0  0  0  0  0  0  0  0
  -43.3403   57.1016   66.5582 C   0  0  0  0  0  0  0  0  0  0  0  0
  -45.6074   57.3544   65.7589 N   0  0  0  0  0  0  0  0  0  0  0  0
  -44.7879   58.9102   67.1624 O   0  0  0  0  0  0  0  0  0  0  0  0
  -44.6402   57.8742   66.5201 C   0  0  0  0  0  0  0  0  0  0  0  0
  -45.4318   56.5205   65.2660 H   0  0  0  0  0  0  0  0  0  0  0  0
  -49.1732   57.4489   66.3669 N   0  0  0  0  0  0  0  0  0  0  0  0
  -47.7105   55.7721   66.0855 O   0  0  0  0  0  0  0  0  0  0  0  0
  -46.9105   57.9844   65.6380 C   0  0  0  0  0  0  0  0  0  0  0  0
  -47.1534   58.4180   64.1880 C   0  0  0  0  0  0  0  0  0  0  0  0
  -48.2521   59.4649   64.0391 C   0  0  0  0  0  0  0  0  0  0  0  0
  -49.6321   59.0299   64.4910 C   0  0  0  0  0  0  0  0  0  0  0  0
  -49.7354   58.7363   65.9730 C   0  0  0  0  0  0  0  0  0  0  0  0
  -47.9676   56.9718   66.0497 C   0  0  0  0  0  0  0  0  0  0  0  0
  -49.7428   56.8715   66.9250 H   0  0  0  0  0  0  0  0  0  0  0  0
  -41.2366   61.2323   64.5880 C   0  0  0  0  0  0  0  0  0  0  0  0
  -41.6418   60.4003   63.3760 C   0  0  0  0  0  0  0  0  0  0  0  0
  -41.0812   60.9341   62.0708 C   0  0  0  0  0  0  0  0  0  0  0  0
  -39.6275   60.5966   61.8212 C   0  0  0  0  0  0  0  0  0  0  0  0
  -39.3872   60.3341   60.4112 N   0  0  0  0  0  0  0  0  0  0  0  0
  -38.0561   59.5383   58.7715 O   0  0  0  0  0  0  0  0  0  0  0  0
  -38.2650   59.7499   59.9773 C   0  0  0  0  0  0  0  0  0  0  0  0
  -40.0728   60.5952   59.7547 H   0  0  0  0  0  0  0  0  0  0  0  0
  -37.4244   58.1468   61.6793 C   0  0  0  0  0  0  0  0  0  0  0  0
  -37.3474   59.3134   61.0534 C   0  0  0  0  0  0  0  0  0  0  0  0
  -38.4037   57.0405   61.4394 C   0  0  0  0  0  0  0  0  0  0  0  0
  -39.7062   57.2660   62.1974 C   0  0  0  0  0  0  0  0  0  0  0  0
  -40.9162   56.6225   61.5425 C   0  0  0  0  0  0  0  0  0  0  0  0
  -41.7193   57.5787   60.6763 C   0  0  0  0  0  0  0  0  0  0  0  0
  -41.2588   57.6527   59.2328 C   0  0  0  0  0  0  0  0  0  0  0  0
  -41.6594   58.9419   58.5350 C   0  0  0  0  0  0  0  0  0  0  0  0
  -42.0731   58.7450   57.0896 C   0  0  0  0  0  0  0  0  0  0  0  0
  -43.5400   59.0371   56.8459 C   0  0  0  0  0  0  0  0  0  0  0  0
  -44.4853   57.9718   57.3672 C   0  0  0  0  0  0  0  0  0  0  0  0
  -45.9350   58.4146   57.3472 C   0  0  0  0  0  0  0  0  0  0  0  0
  -46.8726   57.3702   56.7640 C   0  0  0  0  0  0  0  0  0  0  0  0
  -48.1531   57.1728   57.5565 C   0  0  0  0  0  0  0  0  0  0  0  0
  -48.0333   56.1747   58.6978 C   0  0  0  0  0  0  0  0  0  0  0  0
  -48.2914   56.7751   60.0729 C   0  0  0  0  0  0  0  0  0  0  0  0
  -48.6683   58.2473   60.0289 C   0  0  0  0  0  0  0  0  0  0  0  0
  -50.7774   57.5058   61.2028 C   0  0  0  0  0  0  0  0  0  0  0  0
  -50.1342   58.5288   60.3038 C   0  0  0  0  0  0  0  0  0  0  0  0
 43 45  1  0  0  0
 43 42  1  0  0  0
 43 46  1  0  0  0
 64 65  1  0  0  0
 44 45  2  0  0  0
 65 63  1  0  0  0
  2  1  1  0  0  0
  2  4  1  0  0  0
  2  5  1  0  0  0
  3  4  2  0  0  0
 63 62  1  0  0  0
  6  8  1  0  0  0
  6 11  2  0  0  0
  7 10  1  0  0  0
  7 11  1  0  0  0
 62 61  1  0  0  0
 26 28  1  0  0  0
 26 32  1  0  0  0
 26 29  1  0  0  0
 12 18  1  0  0  0
 12 19  1  0  0  0
 61 60  1  0  0  0
 30 36  1  0  0  0
 30 37  1  0  0  0
 30 38  1  0  0  0
 20 21  2  0  0  0
 60 59  1  0  0  0
 22 21  1  0  0  0
 22 23  1  0  0  0
 59 58  1  0  0  0
 27 28  2  0  0  0
 58 57  1  0  0  0
 31 37  2  0  0  0
 57 56  1  0  0  0
 56 55  1  0  0  0
 55 54  1  0  0  0
 54 53  1  0  0  0
 53 52  1  0  0  0
 52 51  1  0  0  0
 51 50  1  0  0  0
 50 49  1  0  0  0
 49 47  1  0  0  0
 47 48  2  0  0  0
 48 45  1  0  0  0
 42 41  1  0  0  0
 41 40  1  0  0  0
 40 39  1  0  0  0
 39  1  1  0  0  0
  1 21  1  0  0  0
  8  4  1  0  0  0
  8  9  1  0  0  0
  8 10  1  0  0  0
 11 13  1  0  0  0
 13 14  2  0  0  0
 13 18  1  0  0  0
 14 15  1  0  0  0
 15 16  2  0  0  0
 16 17  1  0  0  0
 17 18  2  0  0  0
 23 24  1  0  0  0
 23 25  1  0  0  0
 25 28  1  0  0  0
 32 33  1  0  0  0
 32 37  1  0  0  0
 33 34  1  0  0  0
 34 35  1  0  0  0
 35 36  1  0  0  0
M  END
> <minimizedAffinity>
-8.08516

> <CNNscore>
0.1554449350

> <CNNaffinity>
7.6365065575

> <CNN_VS>
1.1870563030

> <CNNaffinity_variance>
2.4973022938

$$$$
