/media/chris/experiments/cd1a-new-docking/inputs/ligands/7ryo_ligand.pdb


 65 67  0  0  0  0  0  0  0  0999 V2000
  -37.3237   58.9544   61.4895 C   0  0  0  0  0  0  0  0  0  0  0  0
  -37.2456   59.4386   62.8577 N   0  0  0  0  0  0  0  0  0  0  0  0
  -38.6540   57.8741   63.6465 O   0  0  0  0  0  0  0  0  0  0  0  0
  -37.9325   58.8423   63.8350 C   0  0  0  0  0  0  0  0  0  0  0  0
  -36.6789   60.2161   63.0663 H   0  0  0  0  0  0  0  0  0  0  0  0
  -36.5293   60.1393   65.3910 N   0  0  0  0  0  0  0  0  0  0  0  0
  -38.0871   61.6231   66.0656 O   0  0  0  0  0  0  0  0  0  0  0  0
  -37.8127   59.4317   65.2500 C   0  0  0  0  0  0  0  0  0  0  0  0
  -37.8669   58.2937   66.2649 C   0  0  0  0  0  0  0  0  0  0  0  0
  -38.8629   60.5112   65.5510 C   0  0  0  0  0  0  0  0  0  0  0  0
  -36.7884   61.3009   65.8303 C   0  0  0  0  0  0  0  0  0  0  0  0
  -36.5166   62.4886   68.4378 O   0  0  0  0  0  0  0  0  0  0  0  0
  -35.8109   62.3518   66.1230 C   0  0  0  0  0  0  0  0  0  0  0  0
  -34.8662   62.7170   65.1631 C   0  0  0  0  0  0  0  0  0  0  0  0
  -33.7944   63.5239   65.5041 C   0  0  0  0  0  0  0  0  0  0  0  0
  -33.6460   63.9777   66.7966 C   0  0  0  0  0  0  0  0  0  0  0  0
  -34.5659   63.6265   67.7678 C   0  0  0  0  0  0  0  0  0  0  0  0
  -35.6486   62.8146   67.4450 C   0  0  0  0  0  0  0  0  0  0  0  0
  -37.2561   61.9435   68.2533 H   0  0  0  0  0  0  0  0  0  0  0  0
  -35.6628   58.2866   59.8658 O   0  0  0  0  0  0  0  0  0  0  0  0
  -35.9787   58.4246   61.0154 C   0  0  0  0  0  0  0  0  0  0  0  0
  -35.1985   58.1116   62.0645 O   0  0  0  0  0  0  0  0  0  0  0  0
  -33.7772   58.4657   61.9994 C   0  0  0  0  0  0  0  0  0  0  0  0
  -32.9732   57.1943   62.1037 C   0  0  0  0  0  0  0  0  0  0  0  0
  -33.5356   59.3987   63.1701 C   0  0  0  0  0  0  0  0  0  0  0  0
  -32.9253   61.6436   62.5143 N   0  0  0  0  0  0  0  0  0  0  0  0
  -31.2814   60.1865   63.0003 O   0  0  0  0  0  0  0  0  0  0  0  0
  -32.4770   60.4408   62.8850 C   0  0  0  0  0  0  0  0  0  0  0  0
  -33.8959   61.7897   62.4385 H   0  0  0  0  0  0  0  0  0  0  0  0
  -32.2025   65.1709   62.1547 N   0  0  0  0  0  0  0  0  0  0  0  0
  -34.0565   63.9471   61.8450 O   0  0  0  0  0  0  0  0  0  0  0  0
  -32.0214   62.7418   62.2199 C   0  0  0  0  0  0  0  0  0  0  0  0
  -31.2548   62.4599   60.9229 C   0  0  0  0  0  0  0  0  0  0  0  0
  -29.9905   63.2978   60.7658 C   0  0  0  0  0  0  0  0  0  0  0  0
  -30.2061   64.7970   60.7045 C   0  0  0  0  0  0  0  0  0  0  0  0
  -30.7719   65.3946   61.9757 C   0  0  0  0  0  0  0  0  0  0  0  0
  -32.8488   64.0070   62.0565 C   0  0  0  0  0  0  0  0  0  0  0  0
  -32.7485   65.9613   62.3706 H   0  0  0  0  0  0  0  0  0  0  0  0
  -37.8473   60.0381   60.5458 C   0  0  0  0  0  0  0  0  0  0  0  0
  -39.1417   59.6275   59.8520 C   0  0  0  0  0  0  0  0  0  0  0  0
  -39.9849   58.6733   60.6774 C   0  0  0  0  0  0  0  0  0  0  0  0
  -41.0678   59.3357   61.5007 C   0  0  0  0  0  0  0  0  0  0  0  0
  -41.3855   58.5444   62.6787 N   0  0  0  0  0  0  0  0  0  0  0  0
  -41.9200   60.3332   63.9469 O   0  0  0  0  0  0  0  0  0  0  0  0
  -41.7911   59.1041   63.8237 C   0  0  0  0  0  0  0  0  0  0  0  0
  -41.2992   57.5648   62.6319 H   0  0  0  0  0  0  0  0  0  0  0  0
  -43.1363   57.5344   65.2019 C   0  0  0  0  0  0  0  0  0  0  0  0
  -41.9911   58.1473   64.9349 C   0  0  0  0  0  0  0  0  0  0  0  0
  -44.4320   57.6489   64.4611 C   0  0  0  0  0  0  0  0  0  0  0  0
  -45.5310   58.2411   65.3347 C   0  0  0  0  0  0  0  0  0  0  0  0
  -46.9280   58.0685   64.7643 C   0  0  0  0  0  0  0  0  0  0  0  0
  -48.0191   58.6680   65.6358 C   0  0  0  0  0  0  0  0  0  0  0  0
  -49.2498   57.7939   65.7877 C   0  0  0  0  0  0  0  0  0  0  0  0
  -50.5465   58.5827   65.8658 C   0  0  0  0  0  0  0  0  0  0  0  0
  -50.3413   60.0848   65.8860 C   0  0  0  0  0  0  0  0  0  0  0  0
  -51.0864   60.8017   64.7780 C   0  0  0  0  0  0  0  0  0  0  0  0
  -51.6006   59.8918   63.6790 C   0  0  0  0  0  0  0  0  0  0  0  0
  -50.5182   59.4910   62.6964 C   0  0  0  0  0  0  0  0  0  0  0  0
  -50.7820   58.1516   62.0279 C   0  0  0  0  0  0  0  0  0  0  0  0
  -49.6440   57.6604   61.1501 C   0  0  0  0  0  0  0  0  0  0  0  0
  -49.7658   58.0608   59.6880 C   0  0  0  0  0  0  0  0  0  0  0  0
  -48.7206   57.4221   58.7838 C   0  0  0  0  0  0  0  0  0  0  0  0
  -47.3786   58.1357   58.8125 C   0  0  0  0  0  0  0  0  0  0  0  0
  -46.7781   56.8705   56.7114 C   0  0  0  0  0  0  0  0  0  0  0  0
  -46.6509   58.1591   57.4806 C   0  0  0  0  0  0  0  0  0  0  0  0
 43 45  1  0  0  0
 43 42  1  0  0  0
 43 46  1  0  0  0
 64 65  1  0  0  0
 44 45  2  0  0  0
 65 63  1  0  0  0
  2  1  1  0  0  0
  2  4  1  0  0  0
  2  5  1  0  0  0
  3  4  2  0  0  0
 63 62  1  0  0  0
  6  8  1  0  0  0
  6 11  2  0  0  0
  7 10  1  0  0  0
  7 11  1  0  0  0
 62 61  1  0  0  0
 26 28  1  0  0  0
 26 32  1  0  0  0
 26 29  1  0  0  0
 12 18  1  0  0  0
 12 19  1  0  0  0
 61 60  1  0  0  0
 30 36  1  0  0  0
 30 37  1  0  0  0
 30 38  1  0  0  0
 20 21  2  0  0  0
 60 59  1  0  0  0
 22 21  1  0  0  0
 22 23  1  0  0  0
 59 58  1  0  0  0
 27 28  2  0  0  0
 58 57  1  0  0  0
 31 37  2  0  0  0
 57 56  1  0  0  0
 56 55  1  0  0  0
 55 54  1  0  0  0
 54 53  1  0  0  0
 53 52  1  0  0  0
 52 51  1  0  0  0
 51 50  1  0  0  0
 50 49  1  0  0  0
 49 47  1  0  0  0
 47 48  2  0  0  0
 48 45  1  0  0  0
 42 41  1  0  0  0
 41 40  1  0  0  0
 40 39  1  0  0  0
 39  1  1  0  0  0
  1 21  1  0  0  0
  8  4  1  0  0  0
  8  9  1  0  0  0
  8 10  1  0  0  0
 11 13  1  0  0  0
 13 14  2  0  0  0
 13 18  1  0  0  0
 14 15  1  0  0  0
 15 16  2  0  0  0
 16 17  1  0  0  0
 17 18  2  0  0  0
 23 24  1  0  0  0
 23 25  1  0  0  0
 25 28  1  0  0  0
 32 33  1  0  0  0
 32 37  1  0  0  0
 33 34  1  0  0  0
 34 35  1  0  0  0
 35 36  1  0  0  0
M  END
> <minimizedAffinity>
-9.80033

> <CNNscore>
0.4389103055

> <CNNaffinity>
7.5560774803

> <CNN_VS>
3.3164403439

> <CNNaffinity_variance>
0.7146469951

$$$$
/media/chris/experiments/cd1a-new-docking/inputs/ligands/7ryo_ligand.pdb


 65 67  0  0  0  0  0  0  0  0999 V2000
  -37.7041   59.5534   62.0548 C   0  0  0  0  0  0  0  0  0  0  0  0
  -36.2827   59.2515   62.0306 N   0  0  0  0  0  0  0  0  0  0  0  0
  -36.4326   57.7134   63.6632 O   0  0  0  0  0  0  0  0  0  0  0  0
  -35.7627   58.3388   62.8548 C   0  0  0  0  0  0  0  0  0  0  0  0
  -35.6958   59.7260   61.3984 H   0  0  0  0  0  0  0  0  0  0  0  0
  -33.6160   59.1190   61.9300 N   0  0  0  0  0  0  0  0  0  0  0  0
  -32.4342   59.1533   63.8499 O   0  0  0  0  0  0  0  0  0  0  0  0
  -34.2462   58.0962   62.7812 C   0  0  0  0  0  0  0  0  0  0  0  0
  -33.9955   56.7198   62.1725 C   0  0  0  0  0  0  0  0  0  0  0  0
  -33.5375   58.2561   64.1343 C   0  0  0  0  0  0  0  0  0  0  0  0
  -32.6619   59.6245   62.5961 C   0  0  0  0  0  0  0  0  0  0  0  0
  -30.3817   59.1035   60.9190 O   0  0  0  0  0  0  0  0  0  0  0  0
  -31.7561   60.6820   62.1415 C   0  0  0  0  0  0  0  0  0  0  0  0
  -32.0578   62.0204   62.3961 C   0  0  0  0  0  0  0  0  0  0  0  0
  -31.3497   63.0314   61.7696 C   0  0  0  0  0  0  0  0  0  0  0  0
  -30.3366   62.7296   60.8859 C   0  0  0  0  0  0  0  0  0  0  0  0
  -30.0207   61.4111   60.6126 C   0  0  0  0  0  0  0  0  0  0  0  0
  -30.7225   60.3810   61.2308 C   0  0  0  0  0  0  0  0  0  0  0  0
  -30.8350   58.3871   61.3180 H   0  0  0  0  0  0  0  0  0  0  0  0
  -39.1384   60.3178   63.8435 O   0  0  0  0  0  0  0  0  0  0  0  0
  -38.0746   60.3612   63.2896 C   0  0  0  0  0  0  0  0  0  0  0  0
  -37.0506   61.1481   63.6632 O   0  0  0  0  0  0  0  0  0  0  0  0
  -36.5360   61.0114   65.0292 C   0  0  0  0  0  0  0  0  0  0  0  0
  -37.6215   60.4002   65.8789 C   0  0  0  0  0  0  0  0  0  0  0  0
  -36.1788   62.4168   65.4728 C   0  0  0  0  0  0  0  0  0  0  0  0
  -34.4475   64.0546   65.0699 N   0  0  0  0  0  0  0  0  0  0  0  0
  -33.8589   61.8877   65.2102 O   0  0  0  0  0  0  0  0  0  0  0  0
  -34.7245   62.7581   65.2362 C   0  0  0  0  0  0  0  0  0  0  0  0
  -35.1830   64.7084   65.1005 H   0  0  0  0  0  0  0  0  0  0  0  0
  -31.1351   64.9180   66.2428 N   0  0  0  0  0  0  0  0  0  0  0  0
  -33.1655   64.9944   67.1928 O   0  0  0  0  0  0  0  0  0  0  0  0
  -33.0925   64.5270   64.8453 C   0  0  0  0  0  0  0  0  0  0  0  0
  -33.1130   65.7983   63.9892 C   0  0  0  0  0  0  0  0  0  0  0  0
  -31.7751   66.1113   63.3278 C   0  0  0  0  0  0  0  0  0  0  0  0
  -30.6231   66.3699   64.2785 C   0  0  0  0  0  0  0  0  0  0  0  0
  -30.2356   65.1742   65.1230 C   0  0  0  0  0  0  0  0  0  0  0  0
  -32.4665   64.8340   66.1965 C   0  0  0  0  0  0  0  0  0  0  0  0
  -30.7161   64.7941   67.1251 H   0  0  0  0  0  0  0  0  0  0  0  0
  -38.5443   58.2787   61.9636 C   0  0  0  0  0  0  0  0  0  0  0  0
  -39.7632   58.4501   61.0635 C   0  0  0  0  0  0  0  0  0  0  0  0
  -41.0155   57.8020   61.6242 C   0  0  0  0  0  0  0  0  0  0  0  0
  -40.7811   56.4957   62.3509 C   0  0  0  0  0  0  0  0  0  0  0  0
  -41.7416   56.3182   63.4284 N   0  0  0  0  0  0  0  0  0  0  0  0
  -40.6648   57.7043   64.8471 O   0  0  0  0  0  0  0  0  0  0  0  0
  -41.6129   56.9393   64.6059 C   0  0  0  0  0  0  0  0  0  0  0  0
  -42.5116   55.7213   63.2865 H   0  0  0  0  0  0  0  0  0  0  0  0
  -43.8345   57.1473   65.6987 C   0  0  0  0  0  0  0  0  0  0  0  0
  -42.6420   56.5749   65.6051 C   0  0  0  0  0  0  0  0  0  0  0  0
  -44.3993   58.2352   64.8396 C   0  0  0  0  0  0  0  0  0  0  0  0
  -45.8381   57.9426   64.4321 C   0  0  0  0  0  0  0  0  0  0  0  0
  -46.8330   58.9916   64.8978 C   0  0  0  0  0  0  0  0  0  0  0  0
  -47.6171   58.5802   66.1329 C   0  0  0  0  0  0  0  0  0  0  0  0
  -48.7311   57.5859   65.8645 C   0  0  0  0  0  0  0  0  0  0  0  0
  -50.1183   58.2052   65.9067 C   0  0  0  0  0  0  0  0  0  0  0  0
  -50.1038   59.7127   66.0689 C   0  0  0  0  0  0  0  0  0  0  0  0
  -50.2624   60.4536   64.7564 C   0  0  0  0  0  0  0  0  0  0  0  0
  -51.3761   59.9276   63.8715 C   0  0  0  0  0  0  0  0  0  0  0  0
  -50.9084   59.6181   62.4632 C   0  0  0  0  0  0  0  0  0  0  0  0
  -50.2781   58.2414   62.3302 C   0  0  0  0  0  0  0  0  0  0  0  0
  -50.7040   57.4805   61.0866 C   0  0  0  0  0  0  0  0  0  0  0  0
  -49.5547   56.8460   60.3188 C   0  0  0  0  0  0  0  0  0  0  0  0
  -49.0870   57.6621   59.1216 C   0  0  0  0  0  0  0  0  0  0  0  0
  -47.5919   57.9375   59.1241 C   0  0  0  0  0  0  0  0  0  0  0  0
  -47.1090   55.7915   57.8842 C   0  0  0  0  0  0  0  0  0  0  0  0
  -46.8276   57.2669   57.9972 C   0  0  0  0  0  0  0  0  0  0  0  0
 43 45  1  0  0  0
 43 42  1  0  0  0
 43 46  1  0  0  0
 64 65  1  0  0  0
 44 45  2  0  0  0
 65 63  1  0  0  0
  2  1  1  0  0  0
  2  4  1  0  0  0
  2  5  1  0  0  0
  3  4  2  0  0  0
 63 62  1  0  0  0
  6  8  1  0  0  0
  6 11  2  0  0  0
  7 10  1  0  0  0
  7 11  1  0  0  0
 62 61  1  0  0  0
 26 28  1  0  0  0
 26 32  1  0  0  0
 26 29  1  0  0  0
 12 18  1  0  0  0
 12 19  1  0  0  0
 61 60  1  0  0  0
 30 36  1  0  0  0
 30 37  1  0  0  0
 30 38  1  0  0  0
 20 21  2  0  0  0
 60 59  1  0  0  0
 22 21  1  0  0  0
 22 23  1  0  0  0
 59 58  1  0  0  0
 27 28  2  0  0  0
 58 57  1  0  0  0
 31 37  2  0  0  0
 57 56  1  0  0  0
 56 55  1  0  0  0
 55 54  1  0  0  0
 54 53  1  0  0  0
 53 52  1  0  0  0
 52 51  1  0  0  0
 51 50  1  0  0  0
 50 49  1  0  0  0
 49 47  1  0  0  0
 47 48  2  0  0  0
 48 45  1  0  0  0
 42 41  1  0  0  0
 41 40  1  0  0  0
 40 39  1  0  0  0
 39  1  1  0  0  0
  1 21  1  0  0  0
  8  4  1  0  0  0
  8  9  1  0  0  0
  8 10  1  0  0  0
 11 13  1  0  0  0
 13 14  2  0  0  0
 13 18  1  0  0  0
 14 15  1  0  0  0
 15 16  2  0  0  0
 16 17  1  0  0  0
 17 18  2  0  0  0
 23 24  1  0  0  0
 23 25  1  0  0  0
 25 28  1  0  0  0
 32 33  1  0  0  0
 32 37  1  0  0  0
 33 34  1  0  0  0
 34 35  1  0  0  0
 35 36  1  0  0  0
M  END
> <minimizedAffinity>
-9.90575

> <CNNscore>
0.3992624581

> <CNNaffinity>
7.3713979721

> <CNN_VS>
2.9431223869

> <CNNaffinity_variance>
0.5917689204

$$$$
/media/chris/experiments/cd1a-new-docking/inputs/ligands/7ryo_ligand.pdb


 65 67  0  0  0  0  0  0  0  0999 V2000
  -35.4491   61.4905   64.2374 C   0  0  0  0  0  0  0  0  0  0  0  0
  -35.8756   60.4113   63.3623 N   0  0  0  0  0  0  0  0  0  0  0  0
  -35.1910   58.8006   64.7732 O   0  0  0  0  0  0  0  0  0  0  0  0
  -35.7048   59.1352   63.7161 C   0  0  0  0  0  0  0  0  0  0  0  0
  -36.2958   60.6239   62.4978 H   0  0  0  0  0  0  0  0  0  0  0  0
  -37.5091   57.5811   63.0827 N   0  0  0  0  0  0  0  0  0  0  0  0
  -37.6509   58.1280   60.9000 O   0  0  0  0  0  0  0  0  0  0  0  0
  -36.1624   58.0547   62.7226 C   0  0  0  0  0  0  0  0  0  0  0  0
  -35.1893   56.8813   62.7866 C   0  0  0  0  0  0  0  0  0  0  0  0
  -36.3277   58.5773   61.2879 C   0  0  0  0  0  0  0  0  0  0  0  0
  -38.2266   57.6638   62.0397 C   0  0  0  0  0  0  0  0  0  0  0  0
  -39.9980   58.8490   60.1056 O   0  0  0  0  0  0  0  0  0  0  0  0
  -39.6405   57.2965   61.9323 C   0  0  0  0  0  0  0  0  0  0  0  0
  -40.1483   56.2371   62.6853 C   0  0  0  0  0  0  0  0  0  0  0  0
  -41.4064   55.7252   62.4180 C   0  0  0  0  0  0  0  0  0  0  0  0
  -42.1745   56.2553   61.4045 C   0  0  0  0  0  0  0  0  0  0  0  0
  -41.6926   57.3026   60.6404 C   0  0  0  0  0  0  0  0  0  0  0  0
  -40.4297   57.8292   60.8924 C   0  0  0  0  0  0  0  0  0  0  0  0
  -39.1522   59.2258   60.2494 H   0  0  0  0  0  0  0  0  0  0  0  0
  -33.5001   62.9108   64.0777 O   0  0  0  0  0  0  0  0  0  0  0  0
  -33.9746   61.8090   64.0405 C   0  0  0  0  0  0  0  0  0  0  0  0
  -33.2776   60.6853   63.7973 O   0  0  0  0  0  0  0  0  0  0  0  0
  -32.4807   60.6181   62.5685 C   0  0  0  0  0  0  0  0  0  0  0  0
  -32.5392   59.2035   62.0499 C   0  0  0  0  0  0  0  0  0  0  0  0
  -31.0769   61.0276   62.9703 C   0  0  0  0  0  0  0  0  0  0  0  0
  -31.5534   63.1379   61.8924 N   0  0  0  0  0  0  0  0  0  0  0  0
  -30.0248   63.1004   63.5428 O   0  0  0  0  0  0  0  0  0  0  0  0
  -30.8327   62.5135   62.8283 C   0  0  0  0  0  0  0  0  0  0  0  0
  -32.1864   62.6154   61.3487 H   0  0  0  0  0  0  0  0  0  0  0  0
  -32.9727   66.4474   61.5380 N   0  0  0  0  0  0  0  0  0  0  0  0
  -33.7528   64.3905   61.1005 O   0  0  0  0  0  0  0  0  0  0  0  0
  -31.4295   64.5653   61.6541 C   0  0  0  0  0  0  0  0  0  0  0  0
  -30.5476   64.8200   60.4266 C   0  0  0  0  0  0  0  0  0  0  0  0
  -29.9905   66.2377   60.3578 C   0  0  0  0  0  0  0  0  0  0  0  0
  -31.0259   67.3403   60.2569 C   0  0  0  0  0  0  0  0  0  0  0  0
  -31.9245   67.4600   61.4699 C   0  0  0  0  0  0  0  0  0  0  0  0
  -32.8203   65.1278   61.4064 C   0  0  0  0  0  0  0  0  0  0  0  0
  -33.8886   66.7714   61.6978 H   0  0  0  0  0  0  0  0  0  0  0  0
  -35.7474   61.1685   65.7024 C   0  0  0  0  0  0  0  0  0  0  0  0
  -37.1885   61.4881   66.0850 C   0  0  0  0  0  0  0  0  0  0  0  0
  -38.0817   60.2621   66.1248 C   0  0  0  0  0  0  0  0  0  0  0  0
  -39.4905   60.4885   65.6214 C   0  0  0  0  0  0  0  0  0  0  0  0
  -40.4444   59.6712   66.3543 N   0  0  0  0  0  0  0  0  0  0  0  0
  -41.7203   59.2341   64.5447 O   0  0  0  0  0  0  0  0  0  0  0  0
  -41.4969   59.0997   65.7589 C   0  0  0  0  0  0  0  0  0  0  0  0
  -40.3112   59.5342   67.3201 H   0  0  0  0  0  0  0  0  0  0  0  0
  -43.4930   57.7238   66.3023 C   0  0  0  0  0  0  0  0  0  0  0  0
  -42.3992   58.3719   66.6790 C   0  0  0  0  0  0  0  0  0  0  0  0
  -44.0351   57.5686   64.9158 C   0  0  0  0  0  0  0  0  0  0  0  0
  -45.4944   57.9984   64.8291 C   0  0  0  0  0  0  0  0  0  0  0  0
  -46.1085   58.3590   66.1707 C   0  0  0  0  0  0  0  0  0  0  0  0
  -47.5445   58.8462   66.0710 C   0  0  0  0  0  0  0  0  0  0  0  0
  -48.5596   57.7515   65.8012 C   0  0  0  0  0  0  0  0  0  0  0  0
  -49.9939   58.2523   65.7624 C   0  0  0  0  0  0  0  0  0  0  0  0
  -50.1132   59.7582   65.8922 C   0  0  0  0  0  0  0  0  0  0  0  0
  -51.0988   60.3633   64.9128 C   0  0  0  0  0  0  0  0  0  0  0  0
  -50.9953   59.8159   63.5022 C   0  0  0  0  0  0  0  0  0  0  0  0
  -49.5801   59.8572   62.9604 C   0  0  0  0  0  0  0  0  0  0  0  0
  -49.2513   58.6827   62.0534 C   0  0  0  0  0  0  0  0  0  0  0  0
  -49.4286   58.9721   60.5729 C   0  0  0  0  0  0  0  0  0  0  0  0
  -49.7813   57.7521   59.7362 C   0  0  0  0  0  0  0  0  0  0  0  0
  -48.6814   57.3240   58.7745 C   0  0  0  0  0  0  0  0  0  0  0  0
  -47.5063   58.2876   58.7320 C   0  0  0  0  0  0  0  0  0  0  0  0
  -46.9450   56.9472   56.6670 C   0  0  0  0  0  0  0  0  0  0  0  0
  -46.4745   57.9735   57.6640 C   0  0  0  0  0  0  0  0  0  0  0  0
 43 45  1  0  0  0
 43 42  1  0  0  0
 43 46  1  0  0  0
 64 65  1  0  0  0
 44 45  2  0  0  0
 65 63  1  0  0  0
  2  1  1  0  0  0
  2  4  1  0  0  0
  2  5  1  0  0  0
  3  4  2  0  0  0
 63 62  1  0  0  0
  6  8  1  0  0  0
  6 11  2  0  0  0
  7 10  1  0  0  0
  7 11  1  0  0  0
 62 61  1  0  0  0
 26 28  1  0  0  0
 26 32  1  0  0  0
 26 29  1  0  0  0
 12 18  1  0  0  0
 12 19  1  0  0  0
 61 60  1  0  0  0
 30 36  1  0  0  0
 30 37  1  0  0  0
 30 38  1  0  0  0
 20 21  2  0  0  0
 60 59  1  0  0  0
 22 21  1  0  0  0
 22 23  1  0  0  0
 59 58  1  0  0  0
 27 28  2  0  0  0
 58 57  1  0  0  0
 31 37  2  0  0  0
 57 56  1  0  0  0
 56 55  1  0  0  0
 55 54  1  0  0  0
 54 53  1  0  0  0
 53 52  1  0  0  0
 52 51  1  0  0  0
 51 50  1  0  0  0
 50 49  1  0  0  0
 49 47  1  0  0  0
 47 48  2  0  0  0
 48 45  1  0  0  0
 42 41  1  0  0  0
 41 40  1  0  0  0
 40 39  1  0  0  0
 39  1  1  0  0  0
  1 21  1  0  0  0
  8  4  1  0  0  0
  8  9  1  0  0  0
  8 10  1  0  0  0
 11 13  1  0  0  0
 13 14  2  0  0  0
 13 18  1  0  0  0
 14 15  1  0  0  0
 15 16  2  0  0  0
 16 17  1  0  0  0
 17 18  2  0  0  0
 23 24  1  0  0  0
 23 25  1  0  0  0
 25 28  1  0  0  0
 32 33  1  0  0  0
 32 37  1  0  0  0
 33 34  1  0  0  0
 34 35  1  0  0  0
 35 36  1  0  0  0
M  END
> <minimizedAffinity>
-10.11730

> <CNNscore>
0.2926306427

> <CNNaffinity>
7.2814378738

> <CNN_VS>
2.1307718754

> <CNNaffinity_variance>
0.7810796499

$$$$
/media/chris/experiments/cd1a-new-docking/inputs/ligands/7ryo_ligand.pdb


 65 67  0  0  0  0  0  0  0  0999 V2000
  -38.5132   58.2147   62.0651 C   0  0  0  0  0  0  0  0  0  0  0  0
  -37.1544   57.9818   62.5250 N   0  0  0  0  0  0  0  0  0  0  0  0
  -36.2254   59.0784   60.7965 O   0  0  0  0  0  0  0  0  0  0  0  0
  -36.1093   58.4444   61.8348 C   0  0  0  0  0  0  0  0  0  0  0  0
  -37.0026   57.4764   63.3562 H   0  0  0  0  0  0  0  0  0  0  0  0
  -33.7055   58.9661   61.6877 N   0  0  0  0  0  0  0  0  0  0  0  0
  -33.3138   59.2912   63.8841 O   0  0  0  0  0  0  0  0  0  0  0  0
  -34.7048   58.1340   62.3780 C   0  0  0  0  0  0  0  0  0  0  0  0
  -34.3901   56.6634   62.1209 C   0  0  0  0  0  0  0  0  0  0  0  0
  -34.5298   58.5014   63.8589 C   0  0  0  0  0  0  0  0  0  0  0  0
  -33.0161   59.5434   62.5827 C   0  0  0  0  0  0  0  0  0  0  0  0
  -30.9630   59.0526   60.6264 O   0  0  0  0  0  0  0  0  0  0  0  0
  -31.9039   60.4687   62.3539 C   0  0  0  0  0  0  0  0  0  0  0  0
  -31.8827   61.7099   62.9913 C   0  0  0  0  0  0  0  0  0  0  0  0
  -30.9781   62.6831   62.6032 C   0  0  0  0  0  0  0  0  0  0  0  0
  -30.0858   62.4391   61.5820 C   0  0  0  0  0  0  0  0  0  0  0  0
  -30.0892   61.2188   60.9311 C   0  0  0  0  0  0  0  0  0  0  0  0
  -30.9923   60.2288   61.3053 C   0  0  0  0  0  0  0  0  0  0  0  0
  -31.5581   58.3654   60.8539 H   0  0  0  0  0  0  0  0  0  0  0  0
  -39.4348   60.4411   62.2521 O   0  0  0  0  0  0  0  0  0  0  0  0
  -39.1397   59.4036   62.7782 C   0  0  0  0  0  0  0  0  0  0  0  0
  -39.2982   59.1388   64.0867 O   0  0  0  0  0  0  0  0  0  0  0  0
  -38.1413   59.3070   64.9715 C   0  0  0  0  0  0  0  0  0  0  0  0
  -37.8756   57.9870   65.6501 C   0  0  0  0  0  0  0  0  0  0  0  0
  -38.5346   60.3923   65.9548 C   0  0  0  0  0  0  0  0  0  0  0  0
  -36.7545   61.8396   65.1940 N   0  0  0  0  0  0  0  0  0  0  0  0
  -37.1223   61.6681   67.4069 O   0  0  0  0  0  0  0  0  0  0  0  0
  -37.4061   61.3538   66.2545 C   0  0  0  0  0  0  0  0  0  0  0  0
  -37.0262   61.5515   64.2926 H   0  0  0  0  0  0  0  0  0  0  0  0
  -34.3451   64.1570   63.8091 N   0  0  0  0  0  0  0  0  0  0  0  0
  -35.3227   62.3030   63.0103 O   0  0  0  0  0  0  0  0  0  0  0  0
  -35.6567   62.7804   65.3330 C   0  0  0  0  0  0  0  0  0  0  0  0
  -34.5603   62.1831   66.2222 C   0  0  0  0  0  0  0  0  0  0  0  0
  -33.6027   63.2231   66.7936 C   0  0  0  0  0  0  0  0  0  0  0  0
  -32.8080   64.0090   65.7697 C   0  0  0  0  0  0  0  0  0  0  0  0
  -33.6528   64.8842   64.8677 C   0  0  0  0  0  0  0  0  0  0  0  0
  -35.0927   63.0599   63.9489 C   0  0  0  0  0  0  0  0  0  0  0  0
  -34.2511   64.5127   62.8959 H   0  0  0  0  0  0  0  0  0  0  0  0
  -39.3769   56.9631   62.2277 C   0  0  0  0  0  0  0  0  0  0  0  0
  -40.7063   57.0754   61.4891 C   0  0  0  0  0  0  0  0  0  0  0  0
  -41.9086   56.8407   62.3846 C   0  0  0  0  0  0  0  0  0  0  0  0
  -41.5896   56.2000   63.7177 C   0  0  0  0  0  0  0  0  0  0  0  0
  -42.6863   56.3750   64.6567 N   0  0  0  0  0  0  0  0  0  0  0  0
  -41.8285   58.2504   65.5734 O   0  0  0  0  0  0  0  0  0  0  0  0
  -42.7264   57.3940   65.5220 C   0  0  0  0  0  0  0  0  0  0  0  0
  -43.4231   55.7221   64.6554 H   0  0  0  0  0  0  0  0  0  0  0  0
  -45.1188   57.6952   66.1207 C   0  0  0  0  0  0  0  0  0  0  0  0
  -43.8782   57.3626   66.4507 C   0  0  0  0  0  0  0  0  0  0  0  0
  -45.6236   58.1421   64.7843 C   0  0  0  0  0  0  0  0  0  0  0  0
  -47.0072   58.7723   64.8858 C   0  0  0  0  0  0  0  0  0  0  0  0
  -48.1046   57.7878   65.2512 C   0  0  0  0  0  0  0  0  0  0  0  0
  -49.0362   58.2922   66.3406 C   0  0  0  0  0  0  0  0  0  0  0  0
  -50.4271   58.6556   65.8559 C   0  0  0  0  0  0  0  0  0  0  0  0
  -50.6149   60.1447   65.6170 C   0  0  0  0  0  0  0  0  0  0  0  0
  -50.7312   60.5128   64.1508 C   0  0  0  0  0  0  0  0  0  0  0  0
  -51.6202   59.5668   63.3688 C   0  0  0  0  0  0  0  0  0  0  0  0
  -50.8847   58.7104   62.3559 C   0  0  0  0  0  0  0  0  0  0  0  0
  -49.5290   59.2775   61.9842 C   0  0  0  0  0  0  0  0  0  0  0  0
  -49.2879   59.3193   60.4840 C   0  0  0  0  0  0  0  0  0  0  0  0
  -49.6599   58.0376   59.7589 C   0  0  0  0  0  0  0  0  0  0  0  0
  -48.6011   56.9484   59.8333 C   0  0  0  0  0  0  0  0  0  0  0  0
  -47.3030   57.2996   59.1194 C   0  0  0  0  0  0  0  0  0  0  0  0
  -47.5156   57.9176   57.7468 C   0  0  0  0  0  0  0  0  0  0  0  0
  -47.2670   55.5284   56.9686 C   0  0  0  0  0  0  0  0  0  0  0  0
  -47.2246   56.9844   56.5857 C   0  0  0  0  0  0  0  0  0  0  0  0
 43 45  1  0  0  0
 43 42  1  0  0  0
 43 46  1  0  0  0
 64 65  1  0  0  0
 44 45  2  0  0  0
 65 63  1  0  0  0
  2  1  1  0  0  0
  2  4  1  0  0  0
  2  5  1  0  0  0
  3  4  2  0  0  0
 63 62  1  0  0  0
  6  8  1  0  0  0
  6 11  2  0  0  0
  7 10  1  0  0  0
  7 11  1  0  0  0
 62 61  1  0  0  0
 26 28  1  0  0  0
 26 32  1  0  0  0
 26 29  1  0  0  0
 12 18  1  0  0  0
 12 19  1  0  0  0
 61 60  1  0  0  0
 30 36  1  0  0  0
 30 37  1  0  0  0
 30 38  1  0  0  0
 20 21  2  0  0  0
 60 59  1  0  0  0
 22 21  1  0  0  0
 22 23  1  0  0  0
 59 58  1  0  0  0
 27 28  2  0  0  0
 58 57  1  0  0  0
 31 37  2  0  0  0
 57 56  1  0  0  0
 56 55  1  0  0  0
 55 54  1  0  0  0
 54 53  1  0  0  0
 53 52  1  0  0  0
 52 51  1  0  0  0
 51 50  1  0  0  0
 50 49  1  0  0  0
 49 47  1  0  0  0
 47 48  2  0  0  0
 48 45  1  0  0  0
 42 41  1  0  0  0
 41 40  1  0  0  0
 40 39  1  0  0  0
 39  1  1  0  0  0
  1 21  1  0  0  0
  8  4  1  0  0  0
  8  9  1  0  0  0
  8 10  1  0  0  0
 11 13  1  0  0  0
 13 14  2  0  0  0
 13 18  1  0  0  0
 14 15  1  0  0  0
 15 16  2  0  0  0
 16 17  1  0  0  0
 17 18  2  0  0  0
 23 24  1  0  0  0
 23 25  1  0  0  0
 25 28  1  0  0  0
 32 33  1  0  0  0
 32 37  1  0  0  0
 33 34  1  0  0  0
 34 35  1  0  0  0
 35 36  1  0  0  0
M  END
> <minimizedAffinity>
-10.76572

> <CNNscore>
0.2201366872

> <CNNaffinity>
7.2272806168

> <CNN_VS>
1.5909895897

> <CNNaffinity_variance>
1.6499935389

$$$$
/media/chris/experiments/cd1a-new-docking/inputs/ligands/7ryo_ligand.pdb


 65 67  0  0  0  0  0  0  0  0999 V2000
  -42.8851   57.2193   65.7606 C   0  0  0  0  0  0  0  0  0  0  0  0
  -44.2121   57.3072   66.3468 N   0  0  0  0  0  0  0  0  0  0  0  0
  -45.1531   58.0888   64.4608 O   0  0  0  0  0  0  0  0  0  0  0  0
  -45.2499   57.7435   65.6291 C   0  0  0  0  0  0  0  0  0  0  0  0
  -44.3473   57.0416   67.2851 H   0  0  0  0  0  0  0  0  0  0  0  0
  -47.5145   58.7134   65.5738 N   0  0  0  0  0  0  0  0  0  0  0  0
  -48.6854   56.8089   65.8662 O   0  0  0  0  0  0  0  0  0  0  0  0
  -46.6149   57.8282   66.3318 C   0  0  0  0  0  0  0  0  0  0  0  0
  -46.4149   58.4028   67.7310 C   0  0  0  0  0  0  0  0  0  0  0  0
  -47.3641   56.4880   66.3704 C   0  0  0  0  0  0  0  0  0  0  0  0
  -48.5909   58.0721   65.3749 C   0  0  0  0  0  0  0  0  0  0  0  0
  -50.2926   60.1413   66.4268 O   0  0  0  0  0  0  0  0  0  0  0  0
  -49.7710   58.5651   64.6608 C   0  0  0  0  0  0  0  0  0  0  0  0
  -50.0311   58.1374   63.3582 C   0  0  0  0  0  0  0  0  0  0  0  0
  -50.9922   58.7713   62.5897 C   0  0  0  0  0  0  0  0  0  0  0  0
  -51.7054   59.8335   63.1010 C   0  0  0  0  0  0  0  0  0  0  0  0
  -51.4637   60.2798   64.3876 C   0  0  0  0  0  0  0  0  0  0  0  0
  -50.5003   59.6570   65.1747 C   0  0  0  0  0  0  0  0  0  0  0  0
  -49.6508   59.7441   66.9822 H   0  0  0  0  0  0  0  0  0  0  0  0
  -42.3188   59.1884   67.0424 O   0  0  0  0  0  0  0  0  0  0  0  0
  -41.9812   58.3298   66.2748 C   0  0  0  0  0  0  0  0  0  0  0  0
  -40.7549   58.2288   65.7331 O   0  0  0  0  0  0  0  0  0  0  0  0
  -40.0905   59.4589   65.2915 C   0  0  0  0  0  0  0  0  0  0  0  0
  -41.0071   60.1641   64.3239 C   0  0  0  0  0  0  0  0  0  0  0  0
  -38.7968   59.0116   64.6390 C   0  0  0  0  0  0  0  0  0  0  0  0
  -37.1397   60.5344   65.5206 N   0  0  0  0  0  0  0  0  0  0  0  0
  -37.6537   60.6612   63.3340 O   0  0  0  0  0  0  0  0  0  0  0  0
  -37.8160   60.1450   64.4361 C   0  0  0  0  0  0  0  0  0  0  0  0
  -37.3117   60.0836   66.3788 H   0  0  0  0  0  0  0  0  0  0  0  0
  -33.9340   61.8759   64.5122 N   0  0  0  0  0  0  0  0  0  0  0  0
  -34.6384   59.8081   65.0211 O   0  0  0  0  0  0  0  0  0  0  0  0
  -36.1581   61.6037   65.4697 C   0  0  0  0  0  0  0  0  0  0  0  0
  -35.9635   62.2072   66.8652 C   0  0  0  0  0  0  0  0  0  0  0  0
  -35.3231   63.5909   66.8487 C   0  0  0  0  0  0  0  0  0  0  0  0
  -33.9270   63.6557   66.2617 C   0  0  0  0  0  0  0  0  0  0  0  0
  -33.8563   63.3061   64.7900 C   0  0  0  0  0  0  0  0  0  0  0  0
  -34.8427   61.0179   64.9812 C   0  0  0  0  0  0  0  0  0  0  0  0
  -33.2438   61.5046   63.9162 H   0  0  0  0  0  0  0  0  0  0  0  0
  -42.9510   57.2322   64.2326 C   0  0  0  0  0  0  0  0  0  0  0  0
  -42.3139   55.9926   63.6138 C   0  0  0  0  0  0  0  0  0  0  0  0
  -41.0416   56.2959   62.8446 C   0  0  0  0  0  0  0  0  0  0  0  0
  -41.1569   57.4334   61.8536 C   0  0  0  0  0  0  0  0  0  0  0  0
  -39.8458   57.9588   61.5072 N   0  0  0  0  0  0  0  0  0  0  0  0
  -40.5464   58.9125   59.5854 O   0  0  0  0  0  0  0  0  0  0  0  0
  -39.6343   58.6647   60.3911 C   0  0  0  0  0  0  0  0  0  0  0  0
  -39.0892   57.7894   62.1140 H   0  0  0  0  0  0  0  0  0  0  0  0
  -37.1865   58.4883   60.7788 C   0  0  0  0  0  0  0  0  0  0  0  0
  -38.2223   59.0476   60.1681 C   0  0  0  0  0  0  0  0  0  0  0  0
  -37.2036   57.3744   61.7784 C   0  0  0  0  0  0  0  0  0  0  0  0
  -35.8319   57.1580   62.4055 C   0  0  0  0  0  0  0  0  0  0  0  0
  -34.7390   58.0248   61.8046 C   0  0  0  0  0  0  0  0  0  0  0  0
  -33.3402   57.6418   62.2588 C   0  0  0  0  0  0  0  0  0  0  0  0
  -32.5228   56.9053   61.2143 C   0  0  0  0  0  0  0  0  0  0  0  0
  -31.0232   56.9990   61.4428 C   0  0  0  0  0  0  0  0  0  0  0  0
  -30.6082   58.2145   62.2485 C   0  0  0  0  0  0  0  0  0  0  0  0
  -30.0971   59.3523   61.3877 C   0  0  0  0  0  0  0  0  0  0  0  0
  -30.1458   60.7130   62.0557 C   0  0  0  0  0  0  0  0  0  0  0  0
  -30.8565   61.7537   61.2133 C   0  0  0  0  0  0  0  0  0  0  0  0
  -31.3551   62.9403   62.0219 C   0  0  0  0  0  0  0  0  0  0  0  0
  -31.4145   64.2425   61.2424 C   0  0  0  0  0  0  0  0  0  0  0  0
  -32.2577   65.3249   61.8984 C   0  0  0  0  0  0  0  0  0  0  0  0
  -31.4655   66.2658   62.7957 C   0  0  0  0  0  0  0  0  0  0  0  0
  -31.8645   66.1839   64.2603 C   0  0  0  0  0  0  0  0  0  0  0  0
  -30.3248   64.4029   65.1730 C   0  0  0  0  0  0  0  0  0  0  0  0
  -30.7230   65.8551   65.2051 C   0  0  0  0  0  0  0  0  0  0  0  0
 43 45  1  0  0  0
 43 42  1  0  0  0
 43 46  1  0  0  0
 64 65  1  0  0  0
 44 45  2  0  0  0
 65 63  1  0  0  0
  2  1  1  0  0  0
  2  4  1  0  0  0
  2  5  1  0  0  0
  3  4  2  0  0  0
 63 62  1  0  0  0
  6  8  1  0  0  0
  6 11  2  0  0  0
  7 10  1  0  0  0
  7 11  1  0  0  0
 62 61  1  0  0  0
 26 28  1  0  0  0
 26 32  1  0  0  0
 26 29  1  0  0  0
 12 18  1  0  0  0
 12 19  1  0  0  0
 61 60  1  0  0  0
 30 36  1  0  0  0
 30 37  1  0  0  0
 30 38  1  0  0  0
 20 21  2  0  0  0
 60 59  1  0  0  0
 22 21  1  0  0  0
 22 23  1  0  0  0
 59 58  1  0  0  0
 27 28  2  0  0  0
 58 57  1  0  0  0
 31 37  2  0  0  0
 57 56  1  0  0  0
 56 55  1  0  0  0
 55 54  1  0  0  0
 54 53  1  0  0  0
 53 52  1  0  0  0
 52 51  1  0  0  0
 51 50  1  0  0  0
 50 49  1  0  0  0
 49 47  1  0  0  0
 47 48  2  0  0  0
 48 45  1  0  0  0
 42 41  1  0  0  0
 41 40  1  0  0  0
 40 39  1  0  0  0
 39  1  1  0  0  0
  1 21  1  0  0  0
  8  4  1  0  0  0
  8  9  1  0  0  0
  8 10  1  0  0  0
 11 13  1  0  0  0
 13 14  2  0  0  0
 13 18  1  0  0  0
 14 15  1  0  0  0
 15 16  2  0  0  0
 16 17  1  0  0  0
 17 18  2  0  0  0
 23 24  1  0  0  0
 23 25  1  0  0  0
 25 28  1  0  0  0
 32 33  1  0  0  0
 32 37  1  0  0  0
 33 34  1  0  0  0
 34 35  1  0  0  0
 35 36  1  0  0  0
M  END
> <minimizedAffinity>
-9.92130

> <CNNscore>
0.2184563875

> <CNNaffinity>
7.3121080399

> <CNN_VS>
1.5973767042

> <CNNaffinity_variance>
1.9674590826

$$$$
/media/chris/experiments/cd1a-new-docking/inputs/ligands/7ryo_ligand.pdb


 65 67  0  0  0  0  0  0  0  0999 V2000
  -36.4466   61.5795   65.0463 C   0  0  0  0  0  0  0  0  0  0  0  0
  -36.6968   60.4955   64.1110 N   0  0  0  0  0  0  0  0  0  0  0  0
  -35.1485   59.1497   65.0303 O   0  0  0  0  0  0  0  0  0  0  0  0
  -36.0106   59.3529   64.1883 C   0  0  0  0  0  0  0  0  0  0  0  0
  -37.3811   60.6053   63.4117 H   0  0  0  0  0  0  0  0  0  0  0  0
  -37.6721   57.7271   63.3705 N   0  0  0  0  0  0  0  0  0  0  0  0
  -37.6289   58.2953   61.1891 O   0  0  0  0  0  0  0  0  0  0  0  0
  -36.3204   58.2657   63.1460 C   0  0  0  0  0  0  0  0  0  0  0  0
  -35.3047   57.1368   63.2936 C   0  0  0  0  0  0  0  0  0  0  0  0
  -36.3712   58.7989   61.7066 C   0  0  0  0  0  0  0  0  0  0  0  0
  -38.2892   57.7908   62.2639 C   0  0  0  0  0  0  0  0  0  0  0  0
  -39.9690   59.0213   60.2770 O   0  0  0  0  0  0  0  0  0  0  0  0
  -39.6678   57.3614   62.0175 C   0  0  0  0  0  0  0  0  0  0  0  0
  -40.1723   56.2264   62.6534 C   0  0  0  0  0  0  0  0  0  0  0  0
  -41.3753   55.6723   62.2508 C   0  0  0  0  0  0  0  0  0  0  0  0
  -42.0911   56.2346   61.2164 C   0  0  0  0  0  0  0  0  0  0  0  0
  -41.6108   57.3571   60.5666 C   0  0  0  0  0  0  0  0  0  0  0  0
  -40.4026   57.9272   60.9553 C   0  0  0  0  0  0  0  0  0  0  0  0
  -39.1593   59.4290   60.5141 H   0  0  0  0  0  0  0  0  0  0  0  0
  -34.3257   61.8286   66.1780 O   0  0  0  0  0  0  0  0  0  0  0  0
  -34.9589   61.8766   65.1596 C   0  0  0  0  0  0  0  0  0  0  0  0
  -34.4542   62.2219   63.9622 O   0  0  0  0  0  0  0  0  0  0  0  0
  -33.1225   62.8338   63.9235 C   0  0  0  0  0  0  0  0  0  0  0  0
  -33.2818   64.3158   64.1520 C   0  0  0  0  0  0  0  0  0  0  0  0
  -32.5691   62.5186   62.5473 C   0  0  0  0  0  0  0  0  0  0  0  0
  -32.1650   60.1369   62.4671 N   0  0  0  0  0  0  0  0  0  0  0  0
  -30.3954   61.5180   62.6181 O   0  0  0  0  0  0  0  0  0  0  0  0
  -31.6097   61.3493   62.5511 C   0  0  0  0  0  0  0  0  0  0  0  0
  -33.1454   60.0626   62.4159 H   0  0  0  0  0  0  0  0  0  0  0  0
  -31.1567   57.0013   60.9689 N   0  0  0  0  0  0  0  0  0  0  0  0
  -33.0887   58.1407   60.9855 O   0  0  0  0  0  0  0  0  0  0  0  0
  -31.3637   58.9257   62.4492 C   0  0  0  0  0  0  0  0  0  0  0  0
  -31.4021   58.2483   63.8237 C   0  0  0  0  0  0  0  0  0  0  0  0
  -30.2675   57.2543   64.0471 C   0  0  0  0  0  0  0  0  0  0  0  0
  -30.2387   56.0741   63.0963 C   0  0  0  0  0  0  0  0  0  0  0  0
  -29.9909   56.4488   61.6501 C   0  0  0  0  0  0  0  0  0  0  0  0
  -31.9448   57.9872   61.4036 C   0  0  0  0  0  0  0  0  0  0  0  0
  -31.3863   56.6056   60.0970 H   0  0  0  0  0  0  0  0  0  0  0  0
  -37.0497   61.2789   66.4192 C   0  0  0  0  0  0  0  0  0  0  0  0
  -38.2184   60.3027   66.3386 C   0  0  0  0  0  0  0  0  0  0  0  0
  -39.3035   60.7486   65.3761 C   0  0  0  0  0  0  0  0  0  0  0  0
  -40.7060   60.7128   65.9426 C   0  0  0  0  0  0  0  0  0  0  0  0
  -41.1763   59.3440   66.0859 N   0  0  0  0  0  0  0  0  0  0  0  0
  -41.9321   59.2002   63.9642 O   0  0  0  0  0  0  0  0  0  0  0  0
  -41.7590   58.6829   65.0799 C   0  0  0  0  0  0  0  0  0  0  0  0
  -41.0620   58.8894   66.9517 H   0  0  0  0  0  0  0  0  0  0  0  0
  -43.4713   56.8872   65.2074 C   0  0  0  0  0  0  0  0  0  0  0  0
  -42.2426   57.3303   65.4361 C   0  0  0  0  0  0  0  0  0  0  0  0
  -44.6003   57.6149   64.5469 C   0  0  0  0  0  0  0  0  0  0  0  0
  -45.6482   58.0663   65.5568 C   0  0  0  0  0  0  0  0  0  0  0  0
  -46.8330   58.7831   64.9326 C   0  0  0  0  0  0  0  0  0  0  0  0
  -47.9629   59.0565   65.9114 C   0  0  0  0  0  0  0  0  0  0  0  0
  -49.0902   58.0423   65.8651 C   0  0  0  0  0  0  0  0  0  0  0  0
  -50.4726   58.6708   65.9260 C   0  0  0  0  0  0  0  0  0  0  0  0
  -50.4886   60.1372   65.5411 C   0  0  0  0  0  0  0  0  0  0  0  0
  -51.2677   60.4100   64.2702 C   0  0  0  0  0  0  0  0  0  0  0  0
  -50.6156   59.8757   63.0095 C   0  0  0  0  0  0  0  0  0  0  0  0
  -51.3098   58.6412   62.4692 C   0  0  0  0  0  0  0  0  0  0  0  0
  -50.3434   57.5909   61.9464 C   0  0  0  0  0  0  0  0  0  0  0  0
  -49.0604   58.1606   61.3667 C   0  0  0  0  0  0  0  0  0  0  0  0
  -48.4184   57.2907   60.2971 C   0  0  0  0  0  0  0  0  0  0  0  0
  -48.4742   57.8899   58.8985 C   0  0  0  0  0  0  0  0  0  0  0  0
  -47.1410   58.4464   58.4253 C   0  0  0  0  0  0  0  0  0  0  0  0
  -47.4645   56.9892   56.3886 C   0  0  0  0  0  0  0  0  0  0  0  0
  -46.4787   57.6392   57.3236 C   0  0  0  0  0  0  0  0  0  0  0  0
 43 45  1  0  0  0
 43 42  1  0  0  0
 43 46  1  0  0  0
 64 65  1  0  0  0
 44 45  2  0  0  0
 65 63  1  0  0  0
  2  1  1  0  0  0
  2  4  1  0  0  0
  2  5  1  0  0  0
  3  4  2  0  0  0
 63 62  1  0  0  0
  6  8  1  0  0  0
  6 11  2  0  0  0
  7 10  1  0  0  0
  7 11  1  0  0  0
 62 61  1  0  0  0
 26 28  1  0  0  0
 26 32  1  0  0  0
 26 29  1  0  0  0
 12 18  1  0  0  0
 12 19  1  0  0  0
 61 60  1  0  0  0
 30 36  1  0  0  0
 30 37  1  0  0  0
 30 38  1  0  0  0
 20 21  2  0  0  0
 60 59  1  0  0  0
 22 21  1  0  0  0
 22 23  1  0  0  0
 59 58  1  0  0  0
 27 28  2  0  0  0
 58 57  1  0  0  0
 31 37  2  0  0  0
 57 56  1  0  0  0
 56 55  1  0  0  0
 55 54  1  0  0  0
 54 53  1  0  0  0
 53 52  1  0  0  0
 52 51  1  0  0  0
 51 50  1  0  0  0
 50 49  1  0  0  0
 49 47  1  0  0  0
 47 48  2  0  0  0
 48 45  1  0  0  0
 42 41  1  0  0  0
 41 40  1  0  0  0
 40 39  1  0  0  0
 39  1  1  0  0  0
  1 21  1  0  0  0
  8  4  1  0  0  0
  8  9  1  0  0  0
  8 10  1  0  0  0
 11 13  1  0  0  0
 13 14  2  0  0  0
 13 18  1  0  0  0
 14 15  1  0  0  0
 15 16  2  0  0  0
 16 17  1  0  0  0
 17 18  2  0  0  0
 23 24  1  0  0  0
 23 25  1  0  0  0
 25 28  1  0  0  0
 32 33  1  0  0  0
 32 37  1  0  0  0
 33 34  1  0  0  0
 34 35  1  0  0  0
 35 36  1  0  0  0
M  END
> <minimizedAffinity>
-10.54441

> <CNNscore>
0.1991513968

> <CNNaffinity>
7.4777536392

> <CNN_VS>
1.4892051220

> <CNNaffinity_variance>
1.5522329807

$$$$
/media/chris/experiments/cd1a-new-docking/inputs/ligands/7ryo_ligand.pdb


 65 67  0  0  0  0  0  0  0  0999 V2000
  -38.0002   58.7853   61.7129 C   0  0  0  0  0  0  0  0  0  0  0  0
  -37.7889   59.3556   63.0329 N   0  0  0  0  0  0  0  0  0  0  0  0
  -38.9969   57.7697   64.0719 O   0  0  0  0  0  0  0  0  0  0  0  0
  -38.3175   58.7845   64.1179 C   0  0  0  0  0  0  0  0  0  0  0  0
  -37.2490   60.1733   63.1283 H   0  0  0  0  0  0  0  0  0  0  0  0
  -36.7455   60.1165   65.4693 N   0  0  0  0  0  0  0  0  0  0  0  0
  -38.1814   61.7186   66.1440 O   0  0  0  0  0  0  0  0  0  0  0  0
  -38.0655   59.4647   65.4736 C   0  0  0  0  0  0  0  0  0  0  0  0
  -38.0928   58.4044   66.5704 C   0  0  0  0  0  0  0  0  0  0  0  0
  -39.0418   60.6128   65.7696 C   0  0  0  0  0  0  0  0  0  0  0  0
  -36.9195   61.3174   65.8399 C   0  0  0  0  0  0  0  0  0  0  0  0
  -36.2952   62.5577   68.3608 O   0  0  0  0  0  0  0  0  0  0  0  0
  -35.8776   62.3369   65.9835 C   0  0  0  0  0  0  0  0  0  0  0  0
  -35.0426   62.6417   64.9078 C   0  0  0  0  0  0  0  0  0  0  0  0
  -33.9100   63.4150   65.0952 C   0  0  0  0  0  0  0  0  0  0  0  0
  -33.5917   63.8946   66.3471 C   0  0  0  0  0  0  0  0  0  0  0  0
  -34.4002   63.6030   67.4307 C   0  0  0  0  0  0  0  0  0  0  0  0
  -35.5417   62.8256   67.2628 C   0  0  0  0  0  0  0  0  0  0  0  0
  -37.0702   62.0370   68.2815 H   0  0  0  0  0  0  0  0  0  0  0  0
  -36.5674   58.5683   59.7787 O   0  0  0  0  0  0  0  0  0  0  0  0
  -36.6830   58.6075   60.9726 C   0  0  0  0  0  0  0  0  0  0  0  0
  -35.6664   58.4789   61.8429 O   0  0  0  0  0  0  0  0  0  0  0  0
  -35.3612   57.1401   62.3568 C   0  0  0  0  0  0  0  0  0  0  0  0
  -35.3637   57.2056   63.8632 C   0  0  0  0  0  0  0  0  0  0  0  0
  -33.9961   56.7901   61.7969 C   0  0  0  0  0  0  0  0  0  0  0  0
  -32.8177   58.8751   62.1226 N   0  0  0  0  0  0  0  0  0  0  0  0
  -33.0948   58.1195   60.0217 O   0  0  0  0  0  0  0  0  0  0  0  0
  -33.2663   57.9876   61.2303 C   0  0  0  0  0  0  0  0  0  0  0  0
  -32.9848   58.7169   63.0799 H   0  0  0  0  0  0  0  0  0  0  0  0
  -29.9971   60.5139   60.5567 N   0  0  0  0  0  0  0  0  0  0  0  0
  -30.2294   58.5618   61.6367 O   0  0  0  0  0  0  0  0  0  0  0  0
  -32.0905   60.0664   61.7208 C   0  0  0  0  0  0  0  0  0  0  0  0
  -32.0019   61.0501   62.8931 C   0  0  0  0  0  0  0  0  0  0  0  0
  -31.6748   62.4779   62.4694 C   0  0  0  0  0  0  0  0  0  0  0  0
  -30.3377   62.6626   61.7797 C   0  0  0  0  0  0  0  0  0  0  0  0
  -30.2235   61.9511   60.4478 C   0  0  0  0  0  0  0  0  0  0  0  0
  -30.6901   59.6489   61.3007 C   0  0  0  0  0  0  0  0  0  0  0  0
  -29.2555   60.1431   60.0258 H   0  0  0  0  0  0  0  0  0  0  0  0
  -38.9778   59.6289   60.8934 C   0  0  0  0  0  0  0  0  0  0  0  0
  -40.0724   58.7857   60.2482 C   0  0  0  0  0  0  0  0  0  0  0  0
  -40.4589   57.5741   61.0760 C   0  0  0  0  0  0  0  0  0  0  0  0
  -41.7845   57.6956   61.7953 C   0  0  0  0  0  0  0  0  0  0  0  0
  -41.6692   57.2626   63.1788 N   0  0  0  0  0  0  0  0  0  0  0  0
  -43.8912   57.3381   63.5670 O   0  0  0  0  0  0  0  0  0  0  0  0
  -42.7378   57.1144   63.9694 C   0  0  0  0  0  0  0  0  0  0  0  0
  -40.7755   57.0725   63.5455 H   0  0  0  0  0  0  0  0  0  0  0  0
  -42.9769   57.2935   66.4359 C   0  0  0  0  0  0  0  0  0  0  0  0
  -42.4184   56.7438   65.3661 C   0  0  0  0  0  0  0  0  0  0  0  0
  -44.0290   58.3574   66.4765 C   0  0  0  0  0  0  0  0  0  0  0  0
  -45.3485   57.8255   67.0221 C   0  0  0  0  0  0  0  0  0  0  0  0
  -46.5742   58.4849   66.4139 C   0  0  0  0  0  0  0  0  0  0  0  0
  -47.3706   57.5653   65.5031 C   0  0  0  0  0  0  0  0  0  0  0  0
  -48.8710   57.6131   65.7225 C   0  0  0  0  0  0  0  0  0  0  0  0
  -49.3594   58.9405   66.2786 C   0  0  0  0  0  0  0  0  0  0  0  0
  -50.4244   59.5998   65.4243 C   0  0  0  0  0  0  0  0  0  0  0  0
  -49.8570   60.3221   64.2189 C   0  0  0  0  0  0  0  0  0  0  0  0
  -50.5136   59.9538   62.9023 C   0  0  0  0  0  0  0  0  0  0  0  0
  -51.0811   58.5481   62.9041 C   0  0  0  0  0  0  0  0  0  0  0  0
  -50.8750   57.8171   61.5875 C   0  0  0  0  0  0  0  0  0  0  0  0
  -49.4259   57.7418   61.1387 C   0  0  0  0  0  0  0  0  0  0  0  0
  -49.2440   57.6176   59.6339 C   0  0  0  0  0  0  0  0  0  0  0  0
  -48.0830   56.7220   59.2242 C   0  0  0  0  0  0  0  0  0  0  0  0
  -46.8216   57.4921   58.8678 C   0  0  0  0  0  0  0  0  0  0  0  0
  -47.4928   57.1522   56.4574 C   0  0  0  0  0  0  0  0  0  0  0  0
  -46.8012   58.0447   57.4543 C   0  0  0  0  0  0  0  0  0  0  0  0
 43 45  1  0  0  0
 43 42  1  0  0  0
 43 46  1  0  0  0
 64 65  1  0  0  0
 44 45  2  0  0  0
 65 63  1  0  0  0
  2  1  1  0  0  0
  2  4  1  0  0  0
  2  5  1  0  0  0
  3  4  2  0  0  0
 63 62  1  0  0  0
  6  8  1  0  0  0
  6 11  2  0  0  0
  7 10  1  0  0  0
  7 11  1  0  0  0
 62 61  1  0  0  0
 26 28  1  0  0  0
 26 32  1  0  0  0
 26 29  1  0  0  0
 12 18  1  0  0  0
 12 19  1  0  0  0
 61 60  1  0  0  0
 30 36  1  0  0  0
 30 37  1  0  0  0
 30 38  1  0  0  0
 20 21  2  0  0  0
 60 59  1  0  0  0
 22 21  1  0  0  0
 22 23  1  0  0  0
 59 58  1  0  0  0
 27 28  2  0  0  0
 58 57  1  0  0  0
 31 37  2  0  0  0
 57 56  1  0  0  0
 56 55  1  0  0  0
 55 54  1  0  0  0
 54 53  1  0  0  0
 53 52  1  0  0  0
 52 51  1  0  0  0
 51 50  1  0  0  0
 50 49  1  0  0  0
 49 47  1  0  0  0
 47 48  2  0  0  0
 48 45  1  0  0  0
 42 41  1  0  0  0
 41 40  1  0  0  0
 40 39  1  0  0  0
 39  1  1  0  0  0
  1 21  1  0  0  0
  8  4  1  0  0  0
  8  9  1  0  0  0
  8 10  1  0  0  0
 11 13  1  0  0  0
 13 14  2  0  0  0
 13 18  1  0  0  0
 14 15  1  0  0  0
 15 16  2  0  0  0
 16 17  1  0  0  0
 17 18  2  0  0  0
 23 24  1  0  0  0
 23 25  1  0  0  0
 25 28  1  0  0  0
 32 33  1  0  0  0
 32 37  1  0  0  0
 33 34  1  0  0  0
 34 35  1  0  0  0
 35 36  1  0  0  0
M  END
> <minimizedAffinity>
-9.49533

> <CNNscore>
0.1884374022

> <CNNaffinity>
7.5019922256

> <CNN_VS>
1.4136558771

> <CNNaffinity_variance>
1.2087317705

$$$$
/media/chris/experiments/cd1a-new-docking/inputs/ligands/7ryo_ligand.pdb


 65 67  0  0  0  0  0  0  0  0999 V2000
  -36.4199   61.5306   65.1033 C   0  0  0  0  0  0  0  0  0  0  0  0
  -36.6946   60.5629   64.0543 N   0  0  0  0  0  0  0  0  0  0  0  0
  -35.5437   58.9190   65.0674 O   0  0  0  0  0  0  0  0  0  0  0  0
  -36.2218   59.3167   64.1317 C   0  0  0  0  0  0  0  0  0  0  0  0
  -37.2364   60.8298   63.2768 H   0  0  0  0  0  0  0  0  0  0  0  0
  -37.8102   57.6658   63.2242 N   0  0  0  0  0  0  0  0  0  0  0  0
  -38.0322   58.5383   61.1570 O   0  0  0  0  0  0  0  0  0  0  0  0
  -36.5387   58.3625   62.9685 C   0  0  0  0  0  0  0  0  0  0  0  0
  -35.4201   57.3308   62.8577 C   0  0  0  0  0  0  0  0  0  0  0  0
  -36.7775   59.0862   61.6350 C   0  0  0  0  0  0  0  0  0  0  0  0
  -38.5371   57.8237   62.1964 C   0  0  0  0  0  0  0  0  0  0  0  0
  -40.2596   58.6991   60.0634 O   0  0  0  0  0  0  0  0  0  0  0  0
  -39.8913   57.2984   62.0069 C   0  0  0  0  0  0  0  0  0  0  0  0
  -40.3449   56.2331   62.7858 C   0  0  0  0  0  0  0  0  0  0  0  0
  -41.5164   55.5726   62.4581 C   0  0  0  0  0  0  0  0  0  0  0  0
  -42.2508   55.9586   61.3580 C   0  0  0  0  0  0  0  0  0  0  0  0
  -41.8207   57.0085   60.5671 C   0  0  0  0  0  0  0  0  0  0  0  0
  -40.6447   57.6833   60.8789 C   0  0  0  0  0  0  0  0  0  0  0  0
  -39.4725   59.1736   60.2458 H   0  0  0  0  0  0  0  0  0  0  0  0
  -34.3020   60.4993   65.6439 O   0  0  0  0  0  0  0  0  0  0  0  0
  -34.9550   61.4977   65.5128 C   0  0  0  0  0  0  0  0  0  0  0  0
  -34.4975   62.7432   65.7287 O   0  0  0  0  0  0  0  0  0  0  0  0
  -34.2223   63.1491   67.1104 C   0  0  0  0  0  0  0  0  0  0  0  0
  -35.5396   63.2664   67.8346 C   0  0  0  0  0  0  0  0  0  0  0  0
  -33.4996   64.4783   67.0085 C   0  0  0  0  0  0  0  0  0  0  0  0
  -32.9350   65.0343   64.7250 N   0  0  0  0  0  0  0  0  0  0  0  0
  -31.3487   64.1087   66.0245 O   0  0  0  0  0  0  0  0  0  0  0  0
  -32.4965   64.5190   65.8772 C   0  0  0  0  0  0  0  0  0  0  0  0
  -33.8664   65.3477   64.6652 H   0  0  0  0  0  0  0  0  0  0  0  0
  -30.5230   66.8132   62.6974 N   0  0  0  0  0  0  0  0  0  0  0  0
  -32.1766   67.4858   64.0554 O   0  0  0  0  0  0  0  0  0  0  0  0
  -32.0768   65.1454   63.5585 C   0  0  0  0  0  0  0  0  0  0  0  0
  -32.8584   64.7767   62.2925 C   0  0  0  0  0  0  0  0  0  0  0  0
  -31.9683   64.4240   61.1057 C   0  0  0  0  0  0  0  0  0  0  0  0
  -31.0576   65.5349   60.6216 C   0  0  0  0  0  0  0  0  0  0  0  0
  -30.0107   65.9618   61.6291 C   0  0  0  0  0  0  0  0  0  0  0  0
  -31.5959   66.5843   63.4580 C   0  0  0  0  0  0  0  0  0  0  0  0
  -30.0253   67.6436   62.8761 H   0  0  0  0  0  0  0  0  0  0  0  0
  -37.3302   61.3122   66.3127 C   0  0  0  0  0  0  0  0  0  0  0  0
  -38.2994   60.1529   66.1077 C   0  0  0  0  0  0  0  0  0  0  0  0
  -39.6392   60.5873   65.5432 C   0  0  0  0  0  0  0  0  0  0  0  0
  -40.8137   60.3884   66.4761 C   0  0  0  0  0  0  0  0  0  0  0  0
  -41.3512   59.0422   66.3589 N   0  0  0  0  0  0  0  0  0  0  0  0
  -42.4825   59.4752   64.4547 O   0  0  0  0  0  0  0  0  0  0  0  0
  -42.1518   58.6809   65.3503 C   0  0  0  0  0  0  0  0  0  0  0  0
  -41.1182   58.3750   67.0444 H   0  0  0  0  0  0  0  0  0  0  0  0
  -43.8785   56.9166   65.0700 C   0  0  0  0  0  0  0  0  0  0  0  0
  -42.6631   57.2952   65.4416 C   0  0  0  0  0  0  0  0  0  0  0  0
  -44.9620   57.7636   64.4791 C   0  0  0  0  0  0  0  0  0  0  0  0
  -46.2390   57.7056   65.3085 C   0  0  0  0  0  0  0  0  0  0  0  0
  -47.2332   58.8064   64.9818 C   0  0  0  0  0  0  0  0  0  0  0  0
  -48.1466   59.1649   66.1422 C   0  0  0  0  0  0  0  0  0  0  0  0
  -49.5838   58.7104   65.9711 C   0  0  0  0  0  0  0  0  0  0  0  0
  -50.5864   59.8524   65.9920 C   0  0  0  0  0  0  0  0  0  0  0  0
  -50.4926   60.7627   64.7832 C   0  0  0  0  0  0  0  0  0  0  0  0
  -51.2622   60.2424   63.5858 C   0  0  0  0  0  0  0  0  0  0  0  0
  -50.4979   59.2460   62.7355 C   0  0  0  0  0  0  0  0  0  0  0  0
  -51.3944   58.1852   62.1283 C   0  0  0  0  0  0  0  0  0  0  0  0
  -50.6358   57.1641   61.2963 C   0  0  0  0  0  0  0  0  0  0  0  0
  -49.8562   57.7621   60.1380 C   0  0  0  0  0  0  0  0  0  0  0  0
  -49.1408   56.7370   59.2717 C   0  0  0  0  0  0  0  0  0  0  0  0
  -47.6248   56.8782   59.2729 C   0  0  0  0  0  0  0  0  0  0  0  0
  -46.9491   56.1542   58.1195 C   0  0  0  0  0  0  0  0  0  0  0  0
  -46.3319   58.5095   57.4507 C   0  0  0  0  0  0  0  0  0  0  0  0
  -46.4221   57.0669   57.0272 C   0  0  0  0  0  0  0  0  0  0  0  0
 43 45  1  0  0  0
 43 42  1  0  0  0
 43 46  1  0  0  0
 64 65  1  0  0  0
 44 45  2  0  0  0
 65 63  1  0  0  0
  2  1  1  0  0  0
  2  4  1  0  0  0
  2  5  1  0  0  0
  3  4  2  0  0  0
 63 62  1  0  0  0
  6  8  1  0  0  0
  6 11  2  0  0  0
  7 10  1  0  0  0
  7 11  1  0  0  0
 62 61  1  0  0  0
 26 28  1  0  0  0
 26 32  1  0  0  0
 26 29  1  0  0  0
 12 18  1  0  0  0
 12 19  1  0  0  0
 61 60  1  0  0  0
 30 36  1  0  0  0
 30 37  1  0  0  0
 30 38  1  0  0  0
 20 21  2  0  0  0
 60 59  1  0  0  0
 22 21  1  0  0  0
 22 23  1  0  0  0
 59 58  1  0  0  0
 27 28  2  0  0  0
 58 57  1  0  0  0
 31 37  2  0  0  0
 57 56  1  0  0  0
 56 55  1  0  0  0
 55 54  1  0  0  0
 54 53  1  0  0  0
 53 52  1  0  0  0
 52 51  1  0  0  0
 51 50  1  0  0  0
 50 49  1  0  0  0
 49 47  1  0  0  0
 47 48  2  0  0  0
 48 45  1  0  0  0
 42 41  1  0  0  0
 41 40  1  0  0  0
 40 39  1  0  0  0
 39  1  1  0  0  0
  1 21  1  0  0  0
  8  4  1  0  0  0
  8  9  1  0  0  0
  8 10  1  0  0  0
 11 13  1  0  0  0
 13 14  2  0  0  0
 13 18  1  0  0  0
 14 15  1  0  0  0
 15 16  2  0  0  0
 16 17  1  0  0  0
 17 18  2  0  0  0
 23 24  1  0  0  0
 23 25  1  0  0  0
 25 28  1  0  0  0
 32 33  1  0  0  0
 32 37  1  0  0  0
 33 34  1  0  0  0
 34 35  1  0  0  0
 35 36  1  0  0  0
M  END
> <minimizedAffinity>
-10.04437

> <CNNscore>
0.1812557131

> <CNNaffinity>
7.2515959740

> <CNN_VS>
1.3143931627

> <CNNaffinity_variance>
0.7093640566

$$$$
/media/chris/experiments/cd1a-new-docking/inputs/ligands/7ryo_ligand.pdb


 65 67  0  0  0  0  0  0  0  0999 V2000
  -35.5505   60.3498   65.1156 C   0  0  0  0  0  0  0  0  0  0  0  0
  -34.7401   61.3572   64.4516 N   0  0  0  0  0  0  0  0  0  0  0  0
  -34.1142   62.3332   66.3775 O   0  0  0  0  0  0  0  0  0  0  0  0
  -34.0801   62.2787   65.1572 C   0  0  0  0  0  0  0  0  0  0  0  0
  -34.6770   61.3600   63.4692 H   0  0  0  0  0  0  0  0  0  0  0  0
  -34.0490   63.8183   63.2334 N   0  0  0  0  0  0  0  0  0  0  0  0
  -33.3699   65.6738   64.3195 O   0  0  0  0  0  0  0  0  0  0  0  0
  -33.2646   63.3225   64.3764 C   0  0  0  0  0  0  0  0  0  0  0  0
  -31.9899   62.6647   63.8564 C   0  0  0  0  0  0  0  0  0  0  0  0
  -32.9587   64.5889   65.1897 C   0  0  0  0  0  0  0  0  0  0  0  0
  -34.0451   65.0854   63.2979 C   0  0  0  0  0  0  0  0  0  0  0  0
  -32.5827   66.9394   61.6525 O   0  0  0  0  0  0  0  0  0  0  0  0
  -34.7018   66.0002   62.3612 C   0  0  0  0  0  0  0  0  0  0  0  0
  -36.0743   65.9001   62.1301 C   0  0  0  0  0  0  0  0  0  0  0  0
  -36.6614   66.5846   61.0799 C   0  0  0  0  0  0  0  0  0  0  0  0
  -35.8979   67.3747   60.2484 C   0  0  0  0  0  0  0  0  0  0  0  0
  -34.5347   67.4872   60.4531 C   0  0  0  0  0  0  0  0  0  0  0  0
  -33.9261   66.8052   61.5020 C   0  0  0  0  0  0  0  0  0  0  0  0
  -32.1425   66.4932   62.3491 H   0  0  0  0  0  0  0  0  0  0  0  0
  -35.6529   57.9353   65.0852 O   0  0  0  0  0  0  0  0  0  0  0  0
  -35.1317   58.9466   64.7030 C   0  0  0  0  0  0  0  0  0  0  0  0
  -34.0811   58.9949   63.8656 O   0  0  0  0  0  0  0  0  0  0  0  0
  -33.7565   57.7917   63.0933 C   0  0  0  0  0  0  0  0  0  0  0  0
  -32.2584   57.6204   63.1020 C   0  0  0  0  0  0  0  0  0  0  0  0
  -34.3003   58.0425   61.7002 C   0  0  0  0  0  0  0  0  0  0  0  0
  -36.4144   59.1104   61.2178 N   0  0  0  0  0  0  0  0  0  0  0  0
  -36.4326   56.9840   61.9525 O   0  0  0  0  0  0  0  0  0  0  0  0
  -35.8109   57.9954   61.6395 C   0  0  0  0  0  0  0  0  0  0  0  0
  -35.8640   59.8913   60.9802 H   0  0  0  0  0  0  0  0  0  0  0  0
  -39.4685   59.0235   59.2792 N   0  0  0  0  0  0  0  0  0  0  0  0
  -37.3632   59.6275   58.7959 O   0  0  0  0  0  0  0  0  0  0  0  0
  -37.8591   59.2031   61.0999 C   0  0  0  0  0  0  0  0  0  0  0  0
  -38.3686   60.4488   61.8334 C   0  0  0  0  0  0  0  0  0  0  0  0
  -39.8580   60.4012   62.1568 C   0  0  0  0  0  0  0  0  0  0  0  0
  -40.7826   60.3205   60.9584 C   0  0  0  0  0  0  0  0  0  0  0  0
  -40.6394   59.0485   60.1493 C   0  0  0  0  0  0  0  0  0  0  0  0
  -38.2096   59.3034   59.6238 C   0  0  0  0  0  0  0  0  0  0  0  0
  -39.6231   58.7739   58.3395 H   0  0  0  0  0  0  0  0  0  0  0  0
  -37.0405   60.5744   64.8535 C   0  0  0  0  0  0  0  0  0  0  0  0
  -37.8666   60.5399   66.1348 C   0  0  0  0  0  0  0  0  0  0  0  0
  -38.9059   59.4343   66.1456 C   0  0  0  0  0  0  0  0  0  0  0  0
  -40.2435   59.8169   65.5508 C   0  0  0  0  0  0  0  0  0  0  0  0
  -41.2257   58.7640   65.7546 N   0  0  0  0  0  0  0  0  0  0  0  0
  -42.1716   59.7577   67.5467 O   0  0  0  0  0  0  0  0  0  0  0  0
  -42.1243   58.8111   66.7442 C   0  0  0  0  0  0  0  0  0  0  0  0
  -41.2294   57.9914   65.1444 H   0  0  0  0  0  0  0  0  0  0  0  0
  -44.0263   57.3697   66.0530 C   0  0  0  0  0  0  0  0  0  0  0  0
  -42.9891   57.6141   66.8423 C   0  0  0  0  0  0  0  0  0  0  0  0
  -44.5296   58.2029   64.9159 C   0  0  0  0  0  0  0  0  0  0  0  0
  -46.0489   58.3182   64.9302 C   0  0  0  0  0  0  0  0  0  0  0  0
  -46.7329   57.3022   65.8284 C   0  0  0  0  0  0  0  0  0  0  0  0
  -47.9095   57.8707   66.6040 C   0  0  0  0  0  0  0  0  0  0  0  0
  -49.2572   57.6604   65.9398 C   0  0  0  0  0  0  0  0  0  0  0  0
  -50.2299   58.8056   66.1685 C   0  0  0  0  0  0  0  0  0  0  0  0
  -49.9874   59.9963   65.2617 C   0  0  0  0  0  0  0  0  0  0  0  0
  -51.2459   60.4859   64.5737 C   0  0  0  0  0  0  0  0  0  0  0  0
  -51.5815   59.7542   63.2884 C   0  0  0  0  0  0  0  0  0  0  0  0
  -50.5010   58.7758   62.8723 C   0  0  0  0  0  0  0  0  0  0  0  0
  -50.3941   58.6065   61.3655 C   0  0  0  0  0  0  0  0  0  0  0  0
  -50.3171   57.1606   60.9066 C   0  0  0  0  0  0  0  0  0  0  0  0
  -49.1958   56.8781   59.9189 C   0  0  0  0  0  0  0  0  0  0  0  0
  -48.2765   58.0663   59.6720 C   0  0  0  0  0  0  0  0  0  0  0  0
  -47.2422   57.8157   58.5864 C   0  0  0  0  0  0  0  0  0  0  0  0
  -46.7136   56.5626   56.4589 C   0  0  0  0  0  0  0  0  0  0  0  0
  -47.7886   57.1392   57.3423 C   0  0  0  0  0  0  0  0  0  0  0  0
 43 45  1  0  0  0
 43 42  1  0  0  0
 43 46  1  0  0  0
 64 65  1  0  0  0
 44 45  2  0  0  0
 65 63  1  0  0  0
  2  1  1  0  0  0
  2  4  1  0  0  0
  2  5  1  0  0  0
  3  4  2  0  0  0
 63 62  1  0  0  0
  6  8  1  0  0  0
  6 11  2  0  0  0
  7 10  1  0  0  0
  7 11  1  0  0  0
 62 61  1  0  0  0
 26 28  1  0  0  0
 26 32  1  0  0  0
 26 29  1  0  0  0
 12 18  1  0  0  0
 12 19  1  0  0  0
 61 60  1  0  0  0
 30 36  1  0  0  0
 30 37  1  0  0  0
 30 38  1  0  0  0
 20 21  2  0  0  0
 60 59  1  0  0  0
 22 21  1  0  0  0
 22 23  1  0  0  0
 59 58  1  0  0  0
 27 28  2  0  0  0
 58 57  1  0  0  0
 31 37  2  0  0  0
 57 56  1  0  0  0
 56 55  1  0  0  0
 55 54  1  0  0  0
 54 53  1  0  0  0
 53 52  1  0  0  0
 52 51  1  0  0  0
 51 50  1  0  0  0
 50 49  1  0  0  0
 49 47  1  0  0  0
 47 48  2  0  0  0
 48 45  1  0  0  0
 42 41  1  0  0  0
 41 40  1  0  0  0
 40 39  1  0  0  0
 39  1  1  0  0  0
  1 21  1  0  0  0
  8  4  1  0  0  0
  8  9  1  0  0  0
  8 10  1  0  0  0
 11 13  1  0  0  0
 13 14  2  0  0  0
 13 18  1  0  0  0
 14 15  1  0  0  0
 15 16  2  0  0  0
 16 17  1  0  0  0
 17 18  2  0  0  0
 23 24  1  0  0  0
 23 25  1  0  0  0
 25 28  1  0  0  0
 32 33  1  0  0  0
 32 37  1  0  0  0
 33 34  1  0  0  0
 34 35  1  0  0  0
 35 36  1  0  0  0
M  END
> <minimizedAffinity>
-9.34515

> <CNNscore>
0.1676238328

> <CNNaffinity>
7.3209671974

> <CNN_VS>
1.2271685600

> <CNNaffinity_variance>
0.7022866011

$$$$
