/media/chris/experiments/cd1a-new-docking/inputs/ligands/7ryo_ligand.pdb


 65 67  0  0  0  0  0  0  0  0999 V2000
  -38.1165   60.2879   65.0451 C   0  0  0  0  0  0  0  0  0  0  0  0
  -37.4527   59.4717   64.0423 N   0  0  0  0  0  0  0  0  0  0  0  0
  -38.3712   60.5840   62.3181 O   0  0  0  0  0  0  0  0  0  0  0  0
  -37.6435   59.6977   62.7401 C   0  0  0  0  0  0  0  0  0  0  0  0
  -36.8547   58.7431   64.3266 H   0  0  0  0  0  0  0  0  0  0  0  0
  -35.4958   59.1314   61.6733 N   0  0  0  0  0  0  0  0  0  0  0  0
  -35.5180   56.9117   62.0676 O   0  0  0  0  0  0  0  0  0  0  0  0
  -36.9221   58.7737   61.7452 C   0  0  0  0  0  0  0  0  0  0  0  0
  -37.5488   58.9490   60.3652 C   0  0  0  0  0  0  0  0  0  0  0  0
  -36.9104   57.3009   62.1803 C   0  0  0  0  0  0  0  0  0  0  0  0
  -34.8327   58.0664   61.8614 C   0  0  0  0  0  0  0  0  0  0  0  0
  -33.1065   60.2100   62.7037 O   0  0  0  0  0  0  0  0  0  0  0  0
  -33.3726   57.9485   61.8732 C   0  0  0  0  0  0  0  0  0  0  0  0
  -32.7668   56.7201   61.6056 C   0  0  0  0  0  0  0  0  0  0  0  0
  -31.4170   56.5348   61.8501 C   0  0  0  0  0  0  0  0  0  0  0  0
  -30.6531   57.5615   62.3609 C   0  0  0  0  0  0  0  0  0  0  0  0
  -31.2301   58.7872   62.6390 C   0  0  0  0  0  0  0  0  0  0  0  0
  -32.5857   58.9921   62.4021 C   0  0  0  0  0  0  0  0  0  0  0  0
  -34.0160   60.3802   62.5560 H   0  0  0  0  0  0  0  0  0  0  0  0
  -37.3981   62.0430   66.5431 O   0  0  0  0  0  0  0  0  0  0  0  0
  -37.1138   61.1215   65.8287 C   0  0  0  0  0  0  0  0  0  0  0  0
  -35.8605   60.6960   65.5934 O   0  0  0  0  0  0  0  0  0  0  0  0
  -34.8615   61.6847   65.1760 C   0  0  0  0  0  0  0  0  0  0  0  0
  -34.4936   62.5148   66.3798 C   0  0  0  0  0  0  0  0  0  0  0  0
  -35.5300   62.5064   64.0910 C   0  0  0  0  0  0  0  0  0  0  0  0
  -33.4707   63.2437   63.0624 N   0  0  0  0  0  0  0  0  0  0  0  0
  -35.0120   64.7918   63.6010 O   0  0  0  0  0  0  0  0  0  0  0  0
  -34.6495   63.6191   63.5672 C   0  0  0  0  0  0  0  0  0  0  0  0
  -33.2332   62.2883   63.0617 H   0  0  0  0  0  0  0  0  0  0  0  0
  -31.0060   64.2548   60.6136 N   0  0  0  0  0  0  0  0  0  0  0  0
  -31.5863   62.2660   61.4729 O   0  0  0  0  0  0  0  0  0  0  0  0
  -32.5297   64.2049   62.5146 C   0  0  0  0  0  0  0  0  0  0  0  0
  -31.6413   64.7670   63.6302 C   0  0  0  0  0  0  0  0  0  0  0  0
  -30.9519   66.0761   63.2613 C   0  0  0  0  0  0  0  0  0  0  0  0
  -29.9994   66.0018   62.0845 C   0  0  0  0  0  0  0  0  0  0  0  0
  -30.6664   65.6654   60.7672 C   0  0  0  0  0  0  0  0  0  0  0  0
  -31.6652   63.4910   61.4875 C   0  0  0  0  0  0  0  0  0  0  0  0
  -30.7191   63.8210   59.7776 H   0  0  0  0  0  0  0  0  0  0  0  0
  -38.9671   59.4313   65.9841 C   0  0  0  0  0  0  0  0  0  0  0  0
  -40.4554   59.7407   65.8633 C   0  0  0  0  0  0  0  0  0  0  0  0
  -40.8664   60.1607   64.4643 C   0  0  0  0  0  0  0  0  0  0  0  0
  -41.3179   59.0269   63.5700 C   0  0  0  0  0  0  0  0  0  0  0  0
  -41.0172   57.7369   64.1703 N   0  0  0  0  0  0  0  0  0  0  0  0
  -41.7027   55.7133   64.8976 O   0  0  0  0  0  0  0  0  0  0  0  0
  -41.9592   56.8094   64.3729 C   0  0  0  0  0  0  0  0  0  0  0  0
  -40.0900   57.5401   64.4365 H   0  0  0  0  0  0  0  0  0  0  0  0
  -44.3018   57.6069   64.5961 C   0  0  0  0  0  0  0  0  0  0  0  0
  -43.2958   57.1710   63.8500 C   0  0  0  0  0  0  0  0  0  0  0  0
  -44.3121   57.8425   66.0742 C   0  0  0  0  0  0  0  0  0  0  0  0
  -45.7136   58.1522   66.5862 C   0  0  0  0  0  0  0  0  0  0  0  0
  -46.7711   58.1860   65.4965 C   0  0  0  0  0  0  0  0  0  0  0  0
  -48.0591   58.8724   65.9200 C   0  0  0  0  0  0  0  0  0  0  0  0
  -49.2632   57.9526   65.9949 C   0  0  0  0  0  0  0  0  0  0  0  0
  -50.5910   58.6831   65.8799 C   0  0  0  0  0  0  0  0  0  0  0  0
  -50.4455   60.1542   65.5432 C   0  0  0  0  0  0  0  0  0  0  0  0
  -51.3646   60.6018   64.4244 C   0  0  0  0  0  0  0  0  0  0  0  0
  -51.4646   59.6253   63.2683 C   0  0  0  0  0  0  0  0  0  0  0  0
  -50.2156   59.6046   62.4095 C   0  0  0  0  0  0  0  0  0  0  0  0
  -49.6687   58.2050   62.1808 C   0  0  0  0  0  0  0  0  0  0  0  0
  -50.3635   57.4404   61.0676 C   0  0  0  0  0  0  0  0  0  0  0  0
  -49.4227   56.6483   60.1728 C   0  0  0  0  0  0  0  0  0  0  0  0
  -49.0291   57.3749   58.8940 C   0  0  0  0  0  0  0  0  0  0  0  0
  -47.7968   58.2511   59.0510 C   0  0  0  0  0  0  0  0  0  0  0  0
  -46.7304   57.3529   56.9457 C   0  0  0  0  0  0  0  0  0  0  0  0
  -46.5433   57.6947   58.4007 C   0  0  0  0  0  0  0  0  0  0  0  0
 43 45  1  0  0  0
 43 42  1  0  0  0
 43 46  1  0  0  0
 64 65  1  0  0  0
 44 45  2  0  0  0
 65 63  1  0  0  0
  2  1  1  0  0  0
  2  4  1  0  0  0
  2  5  1  0  0  0
  3  4  2  0  0  0
 63 62  1  0  0  0
  6  8  1  0  0  0
  6 11  2  0  0  0
  7 10  1  0  0  0
  7 11  1  0  0  0
 62 61  1  0  0  0
 26 28  1  0  0  0
 26 32  1  0  0  0
 26 29  1  0  0  0
 12 18  1  0  0  0
 12 19  1  0  0  0
 61 60  1  0  0  0
 30 36  1  0  0  0
 30 37  1  0  0  0
 30 38  1  0  0  0
 20 21  2  0  0  0
 60 59  1  0  0  0
 22 21  1  0  0  0
 22 23  1  0  0  0
 59 58  1  0  0  0
 27 28  2  0  0  0
 58 57  1  0  0  0
 31 37  2  0  0  0
 57 56  1  0  0  0
 56 55  1  0  0  0
 55 54  1  0  0  0
 54 53  1  0  0  0
 53 52  1  0  0  0
 52 51  1  0  0  0
 51 50  1  0  0  0
 50 49  1  0  0  0
 49 47  1  0  0  0
 47 48  2  0  0  0
 48 45  1  0  0  0
 42 41  1  0  0  0
 41 40  1  0  0  0
 40 39  1  0  0  0
 39  1  1  0  0  0
  1 21  1  0  0  0
  8  4  1  0  0  0
  8  9  1  0  0  0
  8 10  1  0  0  0
 11 13  1  0  0  0
 13 14  2  0  0  0
 13 18  1  0  0  0
 14 15  1  0  0  0
 15 16  2  0  0  0
 16 17  1  0  0  0
 17 18  2  0  0  0
 23 24  1  0  0  0
 23 25  1  0  0  0
 25 28  1  0  0  0
 32 33  1  0  0  0
 32 37  1  0  0  0
 33 34  1  0  0  0
 34 35  1  0  0  0
 35 36  1  0  0  0
M  END
> <minimizedAffinity>
-10.66056

> <CNNscore>
0.3343452513

> <CNNaffinity>
7.2242879868

> <CNN_VS>
2.4154064655

> <CNNaffinity_variance>
1.4056934118

$$$$
/media/chris/experiments/cd1a-new-docking/inputs/ligands/7ryo_ligand.pdb


 65 67  0  0  0  0  0  0  0  0999 V2000
  -42.7232   57.1577   65.5099 C   0  0  0  0  0  0  0  0  0  0  0  0
  -44.0051   57.3510   66.1669 N   0  0  0  0  0  0  0  0  0  0  0  0
  -45.0976   57.7435   64.2418 O   0  0  0  0  0  0  0  0  0  0  0  0
  -45.1015   57.6327   65.4588 C   0  0  0  0  0  0  0  0  0  0  0  0
  -44.0659   57.2731   67.1465 H   0  0  0  0  0  0  0  0  0  0  0  0
  -47.3216   58.7018   65.4536 N   0  0  0  0  0  0  0  0  0  0  0  0
  -48.5507   56.8898   65.9909 O   0  0  0  0  0  0  0  0  0  0  0  0
  -46.4127   57.8453   66.2332 C   0  0  0  0  0  0  0  0  0  0  0  0
  -46.0974   58.5319   67.5587 C   0  0  0  0  0  0  0  0  0  0  0  0
  -47.2141   56.5516   66.4406 C   0  0  0  0  0  0  0  0  0  0  0  0
  -48.4349   58.0982   65.3810 C   0  0  0  0  0  0  0  0  0  0  0  0
  -50.0854   60.2031   66.4436 O   0  0  0  0  0  0  0  0  0  0  0  0
  -49.6372   58.5820   64.6982 C   0  0  0  0  0  0  0  0  0  0  0  0
  -49.9467   58.1253   63.4164 C   0  0  0  0  0  0  0  0  0  0  0  0
  -50.9312   58.7471   62.6680 C   0  0  0  0  0  0  0  0  0  0  0  0
  -51.6193   59.8260   63.1792 C   0  0  0  0  0  0  0  0  0  0  0  0
  -51.3287   60.3011   64.4451 C   0  0  0  0  0  0  0  0  0  0  0  0
  -50.3410   59.6907   65.2118 C   0  0  0  0  0  0  0  0  0  0  0  0
  -49.4263   59.8150   66.9849 H   0  0  0  0  0  0  0  0  0  0  0  0
  -42.4538   59.3824   64.6049 O   0  0  0  0  0  0  0  0  0  0  0  0
  -42.0194   58.4856   65.2739 C   0  0  0  0  0  0  0  0  0  0  0  0
  -40.8312   58.5079   65.9022 O   0  0  0  0  0  0  0  0  0  0  0  0
  -39.6787   59.0591   65.1826 C   0  0  0  0  0  0  0  0  0  0  0  0
  -38.5644   58.0448   65.2372 C   0  0  0  0  0  0  0  0  0  0  0  0
  -39.3245   60.3448   65.9043 C   0  0  0  0  0  0  0  0  0  0  0  0
  -37.3118   61.5290   66.5278 N   0  0  0  0  0  0  0  0  0  0  0  0
  -37.4318   60.6339   64.4671 O   0  0  0  0  0  0  0  0  0  0  0  0
  -37.9400   60.8499   65.5638 C   0  0  0  0  0  0  0  0  0  0  0  0
  -37.7689   61.6718   67.3880 H   0  0  0  0  0  0  0  0  0  0  0  0
  -34.3707   63.2546   67.7387 N   0  0  0  0  0  0  0  0  0  0  0  0
  -36.5521   63.4095   68.2367 O   0  0  0  0  0  0  0  0  0  0  0  0
  -35.9736   62.0626   66.3430 C   0  0  0  0  0  0  0  0  0  0  0  0
  -35.9038   62.8712   65.0426 C   0  0  0  0  0  0  0  0  0  0  0  0
  -34.4832   63.0842   64.5310 C   0  0  0  0  0  0  0  0  0  0  0  0
  -33.5677   63.8625   65.4551 C   0  0  0  0  0  0  0  0  0  0  0  0
  -33.2816   63.1707   66.7714 C   0  0  0  0  0  0  0  0  0  0  0  0
  -35.6564   62.9684   67.5224 C   0  0  0  0  0  0  0  0  0  0  0  0
  -34.1323   63.5536   68.6459 H   0  0  0  0  0  0  0  0  0  0  0  0
  -42.8813   56.3829   64.2008 C   0  0  0  0  0  0  0  0  0  0  0  0
  -41.5387   56.0052   63.5842 C   0  0  0  0  0  0  0  0  0  0  0  0
  -41.4206   56.3986   62.1235 C   0  0  0  0  0  0  0  0  0  0  0  0
  -41.1420   57.8663   61.8836 C   0  0  0  0  0  0  0  0  0  0  0  0
  -40.9253   58.1324   60.4705 N   0  0  0  0  0  0  0  0  0  0  0  0
  -39.8481   59.2576   58.8373 O   0  0  0  0  0  0  0  0  0  0  0  0
  -40.0226   59.0224   60.0442 C   0  0  0  0  0  0  0  0  0  0  0  0
  -41.4607   57.6415   59.8059 H   0  0  0  0  0  0  0  0  0  0  0  0
  -38.0642   59.1348   61.5692 C   0  0  0  0  0  0  0  0  0  0  0  0
  -39.2090   59.6313   61.1202 C   0  0  0  0  0  0  0  0  0  0  0  0
  -37.3504   57.9062   61.0985 C   0  0  0  0  0  0  0  0  0  0  0  0
  -36.3216   57.4272   62.1155 C   0  0  0  0  0  0  0  0  0  0  0  0
  -34.9389   58.0234   61.9164 C   0  0  0  0  0  0  0  0  0  0  0  0
  -33.8095   57.0411   62.1792 C   0  0  0  0  0  0  0  0  0  0  0  0
  -32.5496   57.3068   61.3768 C   0  0  0  0  0  0  0  0  0  0  0  0
  -32.1222   58.7652   61.3863 C   0  0  0  0  0  0  0  0  0  0  0  0
  -30.7712   58.9961   62.0344 C   0  0  0  0  0  0  0  0  0  0  0  0
  -30.5543   60.4339   62.4612 C   0  0  0  0  0  0  0  0  0  0  0  0
  -31.7617   61.3319   62.2712 C   0  0  0  0  0  0  0  0  0  0  0  0
  -31.4212   62.6294   61.5651 C   0  0  0  0  0  0  0  0  0  0  0  0
  -31.4191   63.8336   62.4925 C   0  0  0  0  0  0  0  0  0  0  0  0
  -30.7401   65.0627   61.9136 C   0  0  0  0  0  0  0  0  0  0  0  0
  -31.5362   66.3488   62.0729 C   0  0  0  0  0  0  0  0  0  0  0  0
  -32.8687   66.1658   62.7864 C   0  0  0  0  0  0  0  0  0  0  0  0
  -34.0270   66.8648   62.0931 C   0  0  0  0  0  0  0  0  0  0  0  0
  -34.9960   64.6559   61.3460 C   0  0  0  0  0  0  0  0  0  0  0  0
  -35.2734   66.0126   61.9387 C   0  0  0  0  0  0  0  0  0  0  0  0
 43 45  1  0  0  0
 43 42  1  0  0  0
 43 46  1  0  0  0
 64 65  1  0  0  0
 44 45  2  0  0  0
 65 63  1  0  0  0
  2  1  1  0  0  0
  2  4  1  0  0  0
  2  5  1  0  0  0
  3  4  2  0  0  0
 63 62  1  0  0  0
  6  8  1  0  0  0
  6 11  2  0  0  0
  7 10  1  0  0  0
  7 11  1  0  0  0
 62 61  1  0  0  0
 26 28  1  0  0  0
 26 32  1  0  0  0
 26 29  1  0  0  0
 12 18  1  0  0  0
 12 19  1  0  0  0
 61 60  1  0  0  0
 30 36  1  0  0  0
 30 37  1  0  0  0
 30 38  1  0  0  0
 20 21  2  0  0  0
 60 59  1  0  0  0
 22 21  1  0  0  0
 22 23  1  0  0  0
 59 58  1  0  0  0
 27 28  2  0  0  0
 58 57  1  0  0  0
 31 37  2  0  0  0
 57 56  1  0  0  0
 56 55  1  0  0  0
 55 54  1  0  0  0
 54 53  1  0  0  0
 53 52  1  0  0  0
 52 51  1  0  0  0
 51 50  1  0  0  0
 50 49  1  0  0  0
 49 47  1  0  0  0
 47 48  2  0  0  0
 48 45  1  0  0  0
 42 41  1  0  0  0
 41 40  1  0  0  0
 40 39  1  0  0  0
 39  1  1  0  0  0
  1 21  1  0  0  0
  8  4  1  0  0  0
  8  9  1  0  0  0
  8 10  1  0  0  0
 11 13  1  0  0  0
 13 14  2  0  0  0
 13 18  1  0  0  0
 14 15  1  0  0  0
 15 16  2  0  0  0
 16 17  1  0  0  0
 17 18  2  0  0  0
 23 24  1  0  0  0
 23 25  1  0  0  0
 25 28  1  0  0  0
 32 33  1  0  0  0
 32 37  1  0  0  0
 33 34  1  0  0  0
 34 35  1  0  0  0
 35 36  1  0  0  0
M  END
> <minimizedAffinity>
-10.13925

> <CNNscore>
0.2850701511

> <CNNaffinity>
7.6846265793

> <CNN_VS>
2.1906576157

> <CNNaffinity_variance>
1.5926842690

$$$$
/media/chris/experiments/cd1a-new-docking/inputs/ligands/7ryo_ligand.pdb


 65 67  0  0  0  0  0  0  0  0999 V2000
  -35.4061   58.8597   62.7819 C   0  0  0  0  0  0  0  0  0  0  0  0
  -33.9982   59.1223   62.5348 N   0  0  0  0  0  0  0  0  0  0  0  0
  -33.4990   56.9533   62.2182 O   0  0  0  0  0  0  0  0  0  0  0  0
  -33.1521   58.1239   62.2692 C   0  0  0  0  0  0  0  0  0  0  0  0
  -33.6640   60.0479   62.5634 H   0  0  0  0  0  0  0  0  0  0  0  0
  -31.5657   59.8774   61.5763 N   0  0  0  0  0  0  0  0  0  0  0  0
  -30.1520   59.7400   63.3272 O   0  0  0  0  0  0  0  0  0  0  0  0
  -31.6749   58.4853   62.0430 C   0  0  0  0  0  0  0  0  0  0  0  0
  -31.0971   57.5573   60.9786 C   0  0  0  0  0  0  0  0  0  0  0  0
  -30.8382   58.4624   63.3307 C   0  0  0  0  0  0  0  0  0  0  0  0
  -30.7295   60.4609   62.3311 C   0  0  0  0  0  0  0  0  0  0  0  0
  -30.2162   61.7592   59.8141 O   0  0  0  0  0  0  0  0  0  0  0  0
  -30.3079   61.8604   62.2342 C   0  0  0  0  0  0  0  0  0  0  0  0
  -30.2786   62.6639   63.3748 C   0  0  0  0  0  0  0  0  0  0  0  0
  -30.1212   64.0347   63.2643 C   0  0  0  0  0  0  0  0  0  0  0  0
  -29.9910   64.6244   62.0258 C   0  0  0  0  0  0  0  0  0  0  0  0
  -30.0212   63.8512   60.8796 C   0  0  0  0  0  0  0  0  0  0  0  0
  -30.1807   62.4720   60.9700 C   0  0  0  0  0  0  0  0  0  0  0  0
  -30.3225   60.8287   59.8407 H   0  0  0  0  0  0  0  0  0  0  0  0
  -34.8028   58.4481   65.0857 O   0  0  0  0  0  0  0  0  0  0  0  0
  -35.6497   58.4850   64.2361 C   0  0  0  0  0  0  0  0  0  0  0  0
  -36.9438   58.1795   64.4341 O   0  0  0  0  0  0  0  0  0  0  0  0
  -37.7214   59.0227   65.3473 C   0  0  0  0  0  0  0  0  0  0  0  0
  -39.0455   58.3456   65.5959 C   0  0  0  0  0  0  0  0  0  0  0  0
  -37.8784   60.3541   64.6386 C   0  0  0  0  0  0  0  0  0  0  0  0
  -36.0026   61.8715   64.4938 N   0  0  0  0  0  0  0  0  0  0  0  0
  -37.2734   61.9152   66.3498 O   0  0  0  0  0  0  0  0  0  0  0  0
  -37.0250   61.4475   65.2421 C   0  0  0  0  0  0  0  0  0  0  0  0
  -35.8516   61.4592   63.6126 H   0  0  0  0  0  0  0  0  0  0  0  0
  -33.4110   64.3253   63.8970 N   0  0  0  0  0  0  0  0  0  0  0  0
  -33.8817   62.3373   62.9712 O   0  0  0  0  0  0  0  0  0  0  0  0
  -35.1076   62.9235   64.9431 C   0  0  0  0  0  0  0  0  0  0  0  0
  -34.3949   62.4945   66.2307 C   0  0  0  0  0  0  0  0  0  0  0  0
  -33.8006   63.6581   67.0168 C   0  0  0  0  0  0  0  0  0  0  0  0
  -32.7311   64.4534   66.2949 C   0  0  0  0  0  0  0  0  0  0  0  0
  -33.2257   65.1823   65.0632 C   0  0  0  0  0  0  0  0  0  0  0  0
  -34.0789   63.1705   63.8509 C   0  0  0  0  0  0  0  0  0  0  0  0
  -33.0004   64.6309   63.0559 H   0  0  0  0  0  0  0  0  0  0  0  0
  -35.9429   57.7791   61.8421 C   0  0  0  0  0  0  0  0  0  0  0  0
  -36.9111   58.3398   60.8059 C   0  0  0  0  0  0  0  0  0  0  0  0
  -38.2732   58.6778   61.3829 C   0  0  0  0  0  0  0  0  0  0  0  0
  -39.0660   57.4864   61.8742 C   0  0  0  0  0  0  0  0  0  0  0  0
  -40.3329   57.3756   61.1689 N   0  0  0  0  0  0  0  0  0  0  0  0
  -42.4247   56.5397   61.0300 O   0  0  0  0  0  0  0  0  0  0  0  0
  -41.3481   56.6435   61.6403 C   0  0  0  0  0  0  0  0  0  0  0  0
  -40.4469   57.8550   60.3166 H   0  0  0  0  0  0  0  0  0  0  0  0
  -41.7784   56.3545   64.0703 C   0  0  0  0  0  0  0  0  0  0  0  0
  -41.1036   56.0446   62.9715 C   0  0  0  0  0  0  0  0  0  0  0  0
  -42.9084   57.3264   64.2088 C   0  0  0  0  0  0  0  0  0  0  0  0
  -43.4621   57.3489   65.6283 C   0  0  0  0  0  0  0  0  0  0  0  0
  -44.9755   57.4600   65.6946 C   0  0  0  0  0  0  0  0  0  0  0  0
  -45.5953   58.0739   64.4502 C   0  0  0  0  0  0  0  0  0  0  0  0
  -47.0201   58.5609   64.6358 C   0  0  0  0  0  0  0  0  0  0  0  0
  -47.6194   58.1810   65.9798 C   0  0  0  0  0  0  0  0  0  0  0  0
  -48.9927   58.7765   66.2204 C   0  0  0  0  0  0  0  0  0  0  0  0
  -49.9842   58.4476   65.1225 C   0  0  0  0  0  0  0  0  0  0  0  0
  -50.9525   59.5687   64.7973 C   0  0  0  0  0  0  0  0  0  0  0  0
  -51.0947   59.8057   63.3068 C   0  0  0  0  0  0  0  0  0  0  0  0
  -50.5913   58.6447   62.4648 C   0  0  0  0  0  0  0  0  0  0  0  0
  -49.4629   59.0088   61.5155 C   0  0  0  0  0  0  0  0  0  0  0  0
  -48.9519   57.8463   60.6785 C   0  0  0  0  0  0  0  0  0  0  0  0
  -48.4292   58.2550   59.3082 C   0  0  0  0  0  0  0  0  0  0  0  0
  -47.0720   57.6563   58.9753 C   0  0  0  0  0  0  0  0  0  0  0  0
  -47.8523   57.0307   56.6567 C   0  0  0  0  0  0  0  0  0  0  0  0
  -46.7474   57.6211   57.4931 C   0  0  0  0  0  0  0  0  0  0  0  0
 43 45  1  0  0  0
 43 42  1  0  0  0
 43 46  1  0  0  0
 64 65  1  0  0  0
 44 45  2  0  0  0
 65 63  1  0  0  0
  2  1  1  0  0  0
  2  4  1  0  0  0
  2  5  1  0  0  0
  3  4  2  0  0  0
 63 62  1  0  0  0
  6  8  1  0  0  0
  6 11  2  0  0  0
  7 10  1  0  0  0
  7 11  1  0  0  0
 62 61  1  0  0  0
 26 28  1  0  0  0
 26 32  1  0  0  0
 26 29  1  0  0  0
 12 18  1  0  0  0
 12 19  1  0  0  0
 61 60  1  0  0  0
 30 36  1  0  0  0
 30 37  1  0  0  0
 30 38  1  0  0  0
 20 21  2  0  0  0
 60 59  1  0  0  0
 22 21  1  0  0  0
 22 23  1  0  0  0
 59 58  1  0  0  0
 27 28  2  0  0  0
 58 57  1  0  0  0
 31 37  2  0  0  0
 57 56  1  0  0  0
 56 55  1  0  0  0
 55 54  1  0  0  0
 54 53  1  0  0  0
 53 52  1  0  0  0
 52 51  1  0  0  0
 51 50  1  0  0  0
 50 49  1  0  0  0
 49 47  1  0  0  0
 47 48  2  0  0  0
 48 45  1  0  0  0
 42 41  1  0  0  0
 41 40  1  0  0  0
 40 39  1  0  0  0
 39  1  1  0  0  0
  1 21  1  0  0  0
  8  4  1  0  0  0
  8  9  1  0  0  0
  8 10  1  0  0  0
 11 13  1  0  0  0
 13 14  2  0  0  0
 13 18  1  0  0  0
 14 15  1  0  0  0
 15 16  2  0  0  0
 16 17  1  0  0  0
 17 18  2  0  0  0
 23 24  1  0  0  0
 23 25  1  0  0  0
 25 28  1  0  0  0
 32 33  1  0  0  0
 32 37  1  0  0  0
 33 34  1  0  0  0
 34 35  1  0  0  0
 35 36  1  0  0  0
M  END
> <minimizedAffinity>
-10.39956

> <CNNscore>
0.2814160585

> <CNNaffinity>
7.1837263107

> <CNN_VS>
2.0216159821

> <CNNaffinity_variance>
1.4047979116

$$$$
/media/chris/experiments/cd1a-new-docking/inputs/ligands/7ryo_ligand.pdb


 65 67  0  0  0  0  0  0  0  0999 V2000
  -37.7492   60.8638   65.1057 C   0  0  0  0  0  0  0  0  0  0  0  0
  -37.1034   60.0696   64.0740 N   0  0  0  0  0  0  0  0  0  0  0  0
  -38.8107   60.2926   62.6286 O   0  0  0  0  0  0  0  0  0  0  0  0
  -37.7049   59.8503   62.9022 C   0  0  0  0  0  0  0  0  0  0  0  0
  -36.2111   59.6886   64.2410 H   0  0  0  0  0  0  0  0  0  0  0  0
  -35.5203   59.2692   61.9216 N   0  0  0  0  0  0  0  0  0  0  0  0
  -35.6694   57.0278   62.1136 O   0  0  0  0  0  0  0  0  0  0  0  0
  -36.9631   58.9801   61.8743 C   0  0  0  0  0  0  0  0  0  0  0  0
  -37.4899   59.3059   60.4799 C   0  0  0  0  0  0  0  0  0  0  0  0
  -37.0470   57.4765   62.1757 C   0  0  0  0  0  0  0  0  0  0  0  0
  -34.9201   58.1594   62.0536 C   0  0  0  0  0  0  0  0  0  0  0  0
  -33.3933   58.9081   64.3757 O   0  0  0  0  0  0  0  0  0  0  0  0
  -33.4709   57.9662   62.1437 C   0  0  0  0  0  0  0  0  0  0  0  0
  -32.7934   57.2692   61.1423 C   0  0  0  0  0  0  0  0  0  0  0  0
  -31.4813   56.8698   61.3294 C   0  0  0  0  0  0  0  0  0  0  0  0
  -30.8263   57.1554   62.5075 C   0  0  0  0  0  0  0  0  0  0  0  0
  -31.4765   57.8409   63.5174 C   0  0  0  0  0  0  0  0  0  0  0  0
  -32.7960   58.2489   63.3490 C   0  0  0  0  0  0  0  0  0  0  0  0
  -34.2811   59.1963   64.2940 H   0  0  0  0  0  0  0  0  0  0  0  0
  -36.7076   61.9379   67.0037 O   0  0  0  0  0  0  0  0  0  0  0  0
  -36.7482   61.7616   65.8172 C   0  0  0  0  0  0  0  0  0  0  0  0
  -35.9267   62.3484   64.9295 O   0  0  0  0  0  0  0  0  0  0  0  0
  -35.4347   63.6967   65.2289 C   0  0  0  0  0  0  0  0  0  0  0  0
  -35.3435   64.4601   63.9318 C   0  0  0  0  0  0  0  0  0  0  0  0
  -34.0791   63.5008   65.8795 C   0  0  0  0  0  0  0  0  0  0  0  0
  -32.8784   62.7488   63.9212 N   0  0  0  0  0  0  0  0  0  0  0  0
  -32.1086   64.5547   65.0205 O   0  0  0  0  0  0  0  0  0  0  0  0
  -32.9308   63.6499   64.9063 C   0  0  0  0  0  0  0  0  0  0  0  0
  -33.5655   62.0450   63.8798 H   0  0  0  0  0  0  0  0  0  0  0  0
  -31.4452   64.0281   60.8547 N   0  0  0  0  0  0  0  0  0  0  0  0
  -33.5556   63.7693   61.5688 O   0  0  0  0  0  0  0  0  0  0  0  0
  -31.8366   62.7781   62.9095 C   0  0  0  0  0  0  0  0  0  0  0  0
  -31.4917   61.3515   62.4672 C   0  0  0  0  0  0  0  0  0  0  0  0
  -30.1397   61.2377   61.7712 C   0  0  0  0  0  0  0  0  0  0  0  0
  -30.0009   62.0267   60.4844 C   0  0  0  0  0  0  0  0  0  0  0  0
  -30.0879   63.5277   60.6649 C   0  0  0  0  0  0  0  0  0  0  0  0
  -32.3537   63.5687   61.7180 C   0  0  0  0  0  0  0  0  0  0  0  0
  -31.7198   64.7838   60.2865 H   0  0  0  0  0  0  0  0  0  0  0  0
  -38.4938   59.9768   66.1047 C   0  0  0  0  0  0  0  0  0  0  0  0
  -39.9553   60.3820   66.2635 C   0  0  0  0  0  0  0  0  0  0  0  0
  -40.8844   59.6515   65.3119 C   0  0  0  0  0  0  0  0  0  0  0  0
  -40.4743   58.2304   64.9930 C   0  0  0  0  0  0  0  0  0  0  0  0
  -40.8579   57.8680   63.6379 N   0  0  0  0  0  0  0  0  0  0  0  0
  -42.0689   56.5895   62.2263 O   0  0  0  0  0  0  0  0  0  0  0  0
  -41.7523   56.9064   63.3846 C   0  0  0  0  0  0  0  0  0  0  0  0
  -40.4456   58.3459   62.8824 H   0  0  0  0  0  0  0  0  0  0  0  0
  -43.5742   56.6571   65.0555 C   0  0  0  0  0  0  0  0  0  0  0  0
  -42.3785   56.3207   64.5910 C   0  0  0  0  0  0  0  0  0  0  0  0
  -44.5347   57.6509   64.4808 C   0  0  0  0  0  0  0  0  0  0  0  0
  -45.3326   58.3587   65.5692 C   0  0  0  0  0  0  0  0  0  0  0  0
  -46.5676   57.5969   66.0180 C   0  0  0  0  0  0  0  0  0  0  0  0
  -47.7522   57.7517   65.0787 C   0  0  0  0  0  0  0  0  0  0  0  0
  -49.0700   58.0352   65.7749 C   0  0  0  0  0  0  0  0  0  0  0  0
  -49.2282   59.4845   66.2043 C   0  0  0  0  0  0  0  0  0  0  0  0
  -49.7873   60.3807   65.1168 C   0  0  0  0  0  0  0  0  0  0  0  0
  -51.1659   59.9592   64.6492 C   0  0  0  0  0  0  0  0  0  0  0  0
  -51.2989   59.8122   63.1456 C   0  0  0  0  0  0  0  0  0  0  0  0
  -51.0097   58.4031   62.6672 C   0  0  0  0  0  0  0  0  0  0  0  0
  -49.7839   58.3137   61.7730 C   0  0  0  0  0  0  0  0  0  0  0  0
  -49.9874   57.4776   60.5214 C   0  0  0  0  0  0  0  0  0  0  0  0
  -49.3328   58.0515   59.2742 C   0  0  0  0  0  0  0  0  0  0  0  0
  -47.8762   57.6447   59.0985 C   0  0  0  0  0  0  0  0  0  0  0  0
  -47.3264   57.9476   57.7140 C   0  0  0  0  0  0  0  0  0  0  0  0
  -47.2745   55.5514   56.9191 C   0  0  0  0  0  0  0  0  0  0  0  0
  -46.4989   56.8287   57.1080 C   0  0  0  0  0  0  0  0  0  0  0  0
 43 45  1  0  0  0
 43 42  1  0  0  0
 43 46  1  0  0  0
 64 65  1  0  0  0
 44 45  2  0  0  0
 65 63  1  0  0  0
  2  1  1  0  0  0
  2  4  1  0  0  0
  2  5  1  0  0  0
  3  4  2  0  0  0
 63 62  1  0  0  0
  6  8  1  0  0  0
  6 11  2  0  0  0
  7 10  1  0  0  0
  7 11  1  0  0  0
 62 61  1  0  0  0
 26 28  1  0  0  0
 26 32  1  0  0  0
 26 29  1  0  0  0
 12 18  1  0  0  0
 12 19  1  0  0  0
 61 60  1  0  0  0
 30 36  1  0  0  0
 30 37  1  0  0  0
 30 38  1  0  0  0
 20 21  2  0  0  0
 60 59  1  0  0  0
 22 21  1  0  0  0
 22 23  1  0  0  0
 59 58  1  0  0  0
 27 28  2  0  0  0
 58 57  1  0  0  0
 31 37  2  0  0  0
 57 56  1  0  0  0
 56 55  1  0  0  0
 55 54  1  0  0  0
 54 53  1  0  0  0
 53 52  1  0  0  0
 52 51  1  0  0  0
 51 50  1  0  0  0
 50 49  1  0  0  0
 49 47  1  0  0  0
 47 48  2  0  0  0
 48 45  1  0  0  0
 42 41  1  0  0  0
 41 40  1  0  0  0
 40 39  1  0  0  0
 39  1  1  0  0  0
  1 21  1  0  0  0
  8  4  1  0  0  0
  8  9  1  0  0  0
  8 10  1  0  0  0
 11 13  1  0  0  0
 13 14  2  0  0  0
 13 18  1  0  0  0
 14 15  1  0  0  0
 15 16  2  0  0  0
 16 17  1  0  0  0
 17 18  2  0  0  0
 23 24  1  0  0  0
 23 25  1  0  0  0
 25 28  1  0  0  0
 32 33  1  0  0  0
 32 37  1  0  0  0
 33 34  1  0  0  0
 34 35  1  0  0  0
 35 36  1  0  0  0
M  END
> <minimizedAffinity>
-10.67435

> <CNNscore>
0.2340061665

> <CNNaffinity>
7.1913275719

> <CNN_VS>
1.6828149557

> <CNNaffinity_variance>
1.1157337427

$$$$
/media/chris/experiments/cd1a-new-docking/inputs/ligands/7ryo_ligand.pdb


 65 67  0  0  0  0  0  0  0  0999 V2000
  -39.9059   60.0328   61.9753 C   0  0  0  0  0  0  0  0  0  0  0  0
  -39.1507   60.2050   63.2051 N   0  0  0  0  0  0  0  0  0  0  0  0
  -39.0525   57.9988   63.6257 O   0  0  0  0  0  0  0  0  0  0  0  0
  -38.7836   59.1497   63.9362 C   0  0  0  0  0  0  0  0  0  0  0  0
  -38.9067   61.1112   63.5028 H   0  0  0  0  0  0  0  0  0  0  0  0
  -36.7989   60.2087   64.9418 N   0  0  0  0  0  0  0  0  0  0  0  0
  -37.8401   61.3368   66.5929 O   0  0  0  0  0  0  0  0  0  0  0  0
  -38.0072   59.4206   65.2354 C   0  0  0  0  0  0  0  0  0  0  0  0
  -37.5936   58.0870   65.8505 C   0  0  0  0  0  0  0  0  0  0  0  0
  -38.7803   60.2919   66.2364 C   0  0  0  0  0  0  0  0  0  0  0  0
  -36.8073   61.2110   65.7194 C   0  0  0  0  0  0  0  0  0  0  0  0
  -36.0903   62.5411   68.1691 O   0  0  0  0  0  0  0  0  0  0  0  0
  -35.7936   62.2668   65.7791 C   0  0  0  0  0  0  0  0  0  0  0  0
  -35.0281   62.5676   64.6517 C   0  0  0  0  0  0  0  0  0  0  0  0
  -33.9133   63.3814   64.7566 C   0  0  0  0  0  0  0  0  0  0  0  0
  -33.5445   63.9058   65.9763 C   0  0  0  0  0  0  0  0  0  0  0  0
  -34.2835   63.6194   67.1097 C   0  0  0  0  0  0  0  0  0  0  0  0
  -35.4060   62.8017   67.0248 C   0  0  0  0  0  0  0  0  0  0  0  0
  -36.8507   61.9940   68.1459 H   0  0  0  0  0  0  0  0  0  0  0  0
  -39.4147   60.2968   59.6237 O   0  0  0  0  0  0  0  0  0  0  0  0
  -39.0180   60.2150   60.7535 C   0  0  0  0  0  0  0  0  0  0  0  0
  -37.7230   60.2505   61.1126 O   0  0  0  0  0  0  0  0  0  0  0  0
  -36.7856   59.3707   60.4077 C   0  0  0  0  0  0  0  0  0  0  0  0
  -37.2089   59.2983   58.9623 C   0  0  0  0  0  0  0  0  0  0  0  0
  -36.8837   58.0280   61.1055 C   0  0  0  0  0  0  0  0  0  0  0  0
  -34.4873   57.8184   61.3417 N   0  0  0  0  0  0  0  0  0  0  0  0
  -35.7804   57.3927   63.1329 O   0  0  0  0  0  0  0  0  0  0  0  0
  -35.6708   57.7139   61.9529 C   0  0  0  0  0  0  0  0  0  0  0  0
  -34.4605   58.0801   60.3929 H   0  0  0  0  0  0  0  0  0  0  0  0
  -31.8458   58.7746   63.6224 N   0  0  0  0  0  0  0  0  0  0  0  0
  -33.1846   59.9414   62.2524 O   0  0  0  0  0  0  0  0  0  0  0  0
  -33.2392   57.5570   62.0369 C   0  0  0  0  0  0  0  0  0  0  0  0
  -32.1888   57.0289   61.0532 C   0  0  0  0  0  0  0  0  0  0  0  0
  -31.0257   56.3106   61.7286 C   0  0  0  0  0  0  0  0  0  0  0  0
  -30.1979   57.1575   62.6747 C   0  0  0  0  0  0  0  0  0  0  0  0
  -30.9553   57.6502   63.8898 C   0  0  0  0  0  0  0  0  0  0  0  0
  -32.7531   58.8621   62.6473 C   0  0  0  0  0  0  0  0  0  0  0  0
  -31.7695   59.5500   64.2243 H   0  0  0  0  0  0  0  0  0  0  0  0
  -41.1068   60.9785   61.9239 C   0  0  0  0  0  0  0  0  0  0  0  0
  -41.7309   61.1992   63.2976 C   0  0  0  0  0  0  0  0  0  0  0  0
  -42.6435   60.0659   63.7279 C   0  0  0  0  0  0  0  0  0  0  0  0
  -42.1161   59.2280   64.8721 C   0  0  0  0  0  0  0  0  0  0  0  0
  -42.0478   57.8232   64.5022 N   0  0  0  0  0  0  0  0  0  0  0  0
  -42.4832   55.6578   64.9658 O   0  0  0  0  0  0  0  0  0  0  0  0
  -42.5540   56.8579   65.2773 C   0  0  0  0  0  0  0  0  0  0  0  0
  -41.6148   57.5748   63.6537 H   0  0  0  0  0  0  0  0  0  0  0  0
  -44.5670   57.5921   66.5351 C   0  0  0  0  0  0  0  0  0  0  0  0
  -43.2646   57.3485   66.4793 C   0  0  0  0  0  0  0  0  0  0  0  0
  -45.5800   57.4166   65.4473 C   0  0  0  0  0  0  0  0  0  0  0  0
  -46.9608   57.0990   66.0083 C   0  0  0  0  0  0  0  0  0  0  0  0
  -48.0973   57.7711   65.2575 C   0  0  0  0  0  0  0  0  0  0  0  0
  -47.7264   59.1267   64.6792 C   0  0  0  0  0  0  0  0  0  0  0  0
  -48.5680   60.2787   65.1953 C   0  0  0  0  0  0  0  0  0  0  0  0
  -50.0193   59.9035   65.4454 C   0  0  0  0  0  0  0  0  0  0  0  0
  -51.0088   60.7980   64.7248 C   0  0  0  0  0  0  0  0  0  0  0  0
  -51.6889   60.1125   63.5567 C   0  0  0  0  0  0  0  0  0  0  0  0
  -50.7402   59.4080   62.6060 C   0  0  0  0  0  0  0  0  0  0  0  0
  -51.2306   58.0315   62.2026 C   0  0  0  0  0  0  0  0  0  0  0  0
  -50.3992   57.3990   61.0986 C   0  0  0  0  0  0  0  0  0  0  0  0
  -49.1311   58.1632   60.7601 C   0  0  0  0  0  0  0  0  0  0  0  0
  -48.6882   58.0271   59.3115 C   0  0  0  0  0  0  0  0  0  0  0  0
  -47.2492   57.5574   59.1473 C   0  0  0  0  0  0  0  0  0  0  0  0
  -46.6223   57.9786   57.8280 C   0  0  0  0  0  0  0  0  0  0  0  0
  -47.1508   55.6106   57.1283 C   0  0  0  0  0  0  0  0  0  0  0  0
  -46.8767   57.0215   56.6778 C   0  0  0  0  0  0  0  0  0  0  0  0
 43 45  1  0  0  0
 43 42  1  0  0  0
 43 46  1  0  0  0
 64 65  1  0  0  0
 44 45  2  0  0  0
 65 63  1  0  0  0
  2  1  1  0  0  0
  2  4  1  0  0  0
  2  5  1  0  0  0
  3  4  2  0  0  0
 63 62  1  0  0  0
  6  8  1  0  0  0
  6 11  2  0  0  0
  7 10  1  0  0  0
  7 11  1  0  0  0
 62 61  1  0  0  0
 26 28  1  0  0  0
 26 32  1  0  0  0
 26 29  1  0  0  0
 12 18  1  0  0  0
 12 19  1  0  0  0
 61 60  1  0  0  0
 30 36  1  0  0  0
 30 37  1  0  0  0
 30 38  1  0  0  0
 20 21  2  0  0  0
 60 59  1  0  0  0
 22 21  1  0  0  0
 22 23  1  0  0  0
 59 58  1  0  0  0
 27 28  2  0  0  0
 58 57  1  0  0  0
 31 37  2  0  0  0
 57 56  1  0  0  0
 56 55  1  0  0  0
 55 54  1  0  0  0
 54 53  1  0  0  0
 53 52  1  0  0  0
 52 51  1  0  0  0
 51 50  1  0  0  0
 50 49  1  0  0  0
 49 47  1  0  0  0
 47 48  2  0  0  0
 48 45  1  0  0  0
 42 41  1  0  0  0
 41 40  1  0  0  0
 40 39  1  0  0  0
 39  1  1  0  0  0
  1 21  1  0  0  0
  8  4  1  0  0  0
  8  9  1  0  0  0
  8 10  1  0  0  0
 11 13  1  0  0  0
 13 14  2  0  0  0
 13 18  1  0  0  0
 14 15  1  0  0  0
 15 16  2  0  0  0
 16 17  1  0  0  0
 17 18  2  0  0  0
 23 24  1  0  0  0
 23 25  1  0  0  0
 25 28  1  0  0  0
 32 33  1  0  0  0
 32 37  1  0  0  0
 33 34  1  0  0  0
 34 35  1  0  0  0
 35 36  1  0  0  0
M  END
> <minimizedAffinity>
-11.20516

> <CNNscore>
0.2125988752

> <CNNaffinity>
7.5213308334

> <CNN_VS>
1.5990264416

> <CNNaffinity_variance>
2.2425975800

$$$$
/media/chris/experiments/cd1a-new-docking/inputs/ligands/7ryo_ligand.pdb


 65 67  0  0  0  0  0  0  0  0999 V2000
  -38.5653   59.4962   64.6954 C   0  0  0  0  0  0  0  0  0  0  0  0
  -37.3358   59.9873   65.2951 N   0  0  0  0  0  0  0  0  0  0  0  0
  -36.8709   61.3562   63.5735 O   0  0  0  0  0  0  0  0  0  0  0  0
  -36.5822   60.8931   64.6668 C   0  0  0  0  0  0  0  0  0  0  0  0
  -37.0551   59.6479   66.1756 H   0  0  0  0  0  0  0  0  0  0  0  0
  -34.5929   62.3406   64.5280 N   0  0  0  0  0  0  0  0  0  0  0  0
  -34.7446   63.2893   66.5676 O   0  0  0  0  0  0  0  0  0  0  0  0
  -35.2851   61.3422   65.3596 C   0  0  0  0  0  0  0  0  0  0  0  0
  -34.3766   60.1298   65.5404 C   0  0  0  0  0  0  0  0  0  0  0  0
  -35.5263   62.0739   66.6883 C   0  0  0  0  0  0  0  0  0  0  0  0
  -34.3520   63.3423   65.2681 C   0  0  0  0  0  0  0  0  0  0  0  0
  -32.1296   64.4492   66.7241 O   0  0  0  0  0  0  0  0  0  0  0  0
  -33.6737   64.5749   64.8600 C   0  0  0  0  0  0  0  0  0  0  0  0
  -34.0000   65.1859   63.6485 C   0  0  0  0  0  0  0  0  0  0  0  0
  -33.2086   66.2005   63.1381 C   0  0  0  0  0  0  0  0  0  0  0  0
  -32.0875   66.6209   63.8201 C   0  0  0  0  0  0  0  0  0  0  0  0
  -31.7396   66.0287   65.0205 C   0  0  0  0  0  0  0  0  0  0  0  0
  -32.5213   65.0060   65.5486 C   0  0  0  0  0  0  0  0  0  0  0  0
  -32.6342   63.7584   67.1063 H   0  0  0  0  0  0  0  0  0  0  0  0
  -40.0746   61.1122   65.6708 O   0  0  0  0  0  0  0  0  0  0  0  0
  -39.7842   59.9641   65.4764 C   0  0  0  0  0  0  0  0  0  0  0  0
  -40.4813   58.9113   65.9379 O   0  0  0  0  0  0  0  0  0  0  0  0
  -41.9165   59.0857   66.1819 C   0  0  0  0  0  0  0  0  0  0  0  0
  -42.1149   59.3184   67.6584 C   0  0  0  0  0  0  0  0  0  0  0  0
  -42.5695   57.8020   65.7073 C   0  0  0  0  0  0  0  0  0  0  0  0
  -44.8813   58.1352   66.3290 N   0  0  0  0  0  0  0  0  0  0  0  0
  -44.3692   58.0067   64.1420 O   0  0  0  0  0  0  0  0  0  0  0  0
  -44.0196   57.9868   65.3188 C   0  0  0  0  0  0  0  0  0  0  0  0
  -44.5434   58.1105   67.2534 H   0  0  0  0  0  0  0  0  0  0  0  0
  -48.1223   59.4070   67.3149 N   0  0  0  0  0  0  0  0  0  0  0  0
  -46.3482   58.6703   68.4727 O   0  0  0  0  0  0  0  0  0  0  0  0
  -46.3024   58.3320   66.1024 C   0  0  0  0  0  0  0  0  0  0  0  0
  -46.9567   57.0110   65.6819 C   0  0  0  0  0  0  0  0  0  0  0  0
  -48.3068   57.1892   64.9959 C   0  0  0  0  0  0  0  0  0  0  0  0
  -49.3853   57.8398   65.8393 C   0  0  0  0  0  0  0  0  0  0  0  0
  -49.0876   59.2724   66.2292 C   0  0  0  0  0  0  0  0  0  0  0  0
  -46.9275   58.8181   67.4005 C   0  0  0  0  0  0  0  0  0  0  0  0
  -48.3791   59.9937   68.0627 H   0  0  0  0  0  0  0  0  0  0  0  0
  -38.5506   57.9723   64.5672 C   0  0  0  0  0  0  0  0  0  0  0  0
  -39.3086   57.4862   63.3365 C   0  0  0  0  0  0  0  0  0  0  0  0
  -38.3950   57.0352   62.2120 C   0  0  0  0  0  0  0  0  0  0  0  0
  -37.1270   57.8472   62.0623 C   0  0  0  0  0  0  0  0  0  0  0  0
  -36.8822   58.1806   60.6681 N   0  0  0  0  0  0  0  0  0  0  0  0
  -37.2432   59.5193   58.8873 O   0  0  0  0  0  0  0  0  0  0  0  0
  -37.4433   59.2436   60.0816 C   0  0  0  0  0  0  0  0  0  0  0  0
  -36.2841   57.6050   60.1389 H   0  0  0  0  0  0  0  0  0  0  0  0
  -39.5121   60.4265   60.7845 C   0  0  0  0  0  0  0  0  0  0  0  0
  -38.2458   60.0913   60.9914 C   0  0  0  0  0  0  0  0  0  0  0  0
  -40.3915   60.0263   59.6412 C   0  0  0  0  0  0  0  0  0  0  0  0
  -40.8002   58.5610   59.7300 C   0  0  0  0  0  0  0  0  0  0  0  0
  -41.6212   58.0804   58.5460 C   0  0  0  0  0  0  0  0  0  0  0  0
  -41.9219   59.1712   57.5316 C   0  0  0  0  0  0  0  0  0  0  0  0
  -43.2066   58.9639   56.7517 C   0  0  0  0  0  0  0  0  0  0  0  0
  -44.2736   58.2135   57.5315 C   0  0  0  0  0  0  0  0  0  0  0  0
  -45.6709   58.3908   56.9704 C   0  0  0  0  0  0  0  0  0  0  0  0
  -46.7596   58.1233   57.9901 C   0  0  0  0  0  0  0  0  0  0  0  0
  -46.6846   56.7556   58.6413 C   0  0  0  0  0  0  0  0  0  0  0  0
  -48.0368   56.2546   59.1087 C   0  0  0  0  0  0  0  0  0  0  0  0
  -48.9655   57.3698   59.5604 C   0  0  0  0  0  0  0  0  0  0  0  0
  -50.1299   56.9010   60.4155 C   0  0  0  0  0  0  0  0  0  0  0  0
  -50.3063   57.6788   61.7104 C   0  0  0  0  0  0  0  0  0  0  0  0
  -49.3900   58.8885   61.8338 C   0  0  0  0  0  0  0  0  0  0  0  0
  -49.9633   59.9952   62.7041 C   0  0  0  0  0  0  0  0  0  0  0  0
  -51.7615   60.6882   64.3358 C   0  0  0  0  0  0  0  0  0  0  0  0
  -51.3217   59.6823   63.3045 C   0  0  0  0  0  0  0  0  0  0  0  0
 43 45  1  0  0  0
 43 42  1  0  0  0
 43 46  1  0  0  0
 64 65  1  0  0  0
 44 45  2  0  0  0
 65 63  1  0  0  0
  2  1  1  0  0  0
  2  4  1  0  0  0
  2  5  1  0  0  0
  3  4  2  0  0  0
 63 62  1  0  0  0
  6  8  1  0  0  0
  6 11  2  0  0  0
  7 10  1  0  0  0
  7 11  1  0  0  0
 62 61  1  0  0  0
 26 28  1  0  0  0
 26 32  1  0  0  0
 26 29  1  0  0  0
 12 18  1  0  0  0
 12 19  1  0  0  0
 61 60  1  0  0  0
 30 36  1  0  0  0
 30 37  1  0  0  0
 30 38  1  0  0  0
 20 21  2  0  0  0
 60 59  1  0  0  0
 22 21  1  0  0  0
 22 23  1  0  0  0
 59 58  1  0  0  0
 27 28  2  0  0  0
 58 57  1  0  0  0
 31 37  2  0  0  0
 57 56  1  0  0  0
 56 55  1  0  0  0
 55 54  1  0  0  0
 54 53  1  0  0  0
 53 52  1  0  0  0
 52 51  1  0  0  0
 51 50  1  0  0  0
 50 49  1  0  0  0
 49 47  1  0  0  0
 47 48  2  0  0  0
 48 45  1  0  0  0
 42 41  1  0  0  0
 41 40  1  0  0  0
 40 39  1  0  0  0
 39  1  1  0  0  0
  1 21  1  0  0  0
  8  4  1  0  0  0
  8  9  1  0  0  0
  8 10  1  0  0  0
 11 13  1  0  0  0
 13 14  2  0  0  0
 13 18  1  0  0  0
 14 15  1  0  0  0
 15 16  2  0  0  0
 16 17  1  0  0  0
 17 18  2  0  0  0
 23 24  1  0  0  0
 23 25  1  0  0  0
 25 28  1  0  0  0
 32 33  1  0  0  0
 32 37  1  0  0  0
 33 34  1  0  0  0
 34 35  1  0  0  0
 35 36  1  0  0  0
M  END
> <minimizedAffinity>
-8.79980

> <CNNscore>
0.2010940164

> <CNNaffinity>
7.3967514038

> <CNN_VS>
1.4874424934

> <CNNaffinity_variance>
1.4833257198

$$$$
/media/chris/experiments/cd1a-new-docking/inputs/ligands/7ryo_ligand.pdb


 65 67  0  0  0  0  0  0  0  0999 V2000
  -38.5956   60.4257   65.1568 C   0  0  0  0  0  0  0  0  0  0  0  0
  -37.7759   59.9646   64.0487 N   0  0  0  0  0  0  0  0  0  0  0  0
  -39.5464   59.4345   62.7688 O   0  0  0  0  0  0  0  0  0  0  0  0
  -38.3368   59.5002   62.9294 C   0  0  0  0  0  0  0  0  0  0  0  0
  -36.7948   59.9952   64.1242 H   0  0  0  0  0  0  0  0  0  0  0  0
  -36.0117   59.3994   62.1200 N   0  0  0  0  0  0  0  0  0  0  0  0
  -35.9142   57.1863   61.7011 O   0  0  0  0  0  0  0  0  0  0  0  0
  -37.3983   59.0104   61.8144 C   0  0  0  0  0  0  0  0  0  0  0  0
  -37.8172   59.6566   60.4973 C   0  0  0  0  0  0  0  0  0  0  0  0
  -37.3344   57.4800   61.7007 C   0  0  0  0  0  0  0  0  0  0  0  0
  -35.3013   58.3519   62.0344 C   0  0  0  0  0  0  0  0  0  0  0  0
  -34.0837   58.9153   64.5808 O   0  0  0  0  0  0  0  0  0  0  0  0
  -33.8558   58.2678   62.2561 C   0  0  0  0  0  0  0  0  0  0  0  0
  -33.0218   57.7644   61.2569 C   0  0  0  0  0  0  0  0  0  0  0  0
  -31.7020   57.4526   61.5347 C   0  0  0  0  0  0  0  0  0  0  0  0
  -31.1939   57.6356   62.8024 C   0  0  0  0  0  0  0  0  0  0  0  0
  -32.0006   58.1287   63.8116 C   0  0  0  0  0  0  0  0  0  0  0  0
  -33.3303   58.4459   63.5524 C   0  0  0  0  0  0  0  0  0  0  0  0
  -34.9827   59.1381   64.4393 H   0  0  0  0  0  0  0  0  0  0  0  0
  -37.5461   60.5582   67.3298 O   0  0  0  0  0  0  0  0  0  0  0  0
  -37.7421   61.0479   66.2517 C   0  0  0  0  0  0  0  0  0  0  0  0
  -37.2537   62.2349   65.8520 O   0  0  0  0  0  0  0  0  0  0  0  0
  -35.8334   62.5128   66.0869 C   0  0  0  0  0  0  0  0  0  0  0  0
  -35.6697   62.9253   67.5279 C   0  0  0  0  0  0  0  0  0  0  0  0
  -35.4712   63.6263   65.1234 C   0  0  0  0  0  0  0  0  0  0  0  0
  -33.8691   63.1674   63.3728 N   0  0  0  0  0  0  0  0  0  0  0  0
  -33.0996   63.8273   65.3814 O   0  0  0  0  0  0  0  0  0  0  0  0
  -34.0394   63.5474   64.6424 C   0  0  0  0  0  0  0  0  0  0  0  0
  -34.6604   62.9551   62.8269 H   0  0  0  0  0  0  0  0  0  0  0  0
  -31.3533   64.2028   60.9868 N   0  0  0  0  0  0  0  0  0  0  0  0
  -33.5957   64.1873   60.9400 O   0  0  0  0  0  0  0  0  0  0  0  0
  -32.5498   63.0587   62.7750 C   0  0  0  0  0  0  0  0  0  0  0  0
  -32.2323   61.5920   62.4624 C   0  0  0  0  0  0  0  0  0  0  0  0
  -30.7454   61.3173   62.2655 C   0  0  0  0  0  0  0  0  0  0  0  0
  -30.0947   62.0511   61.1097 C   0  0  0  0  0  0  0  0  0  0  0  0
  -30.0745   63.5574   61.2642 C   0  0  0  0  0  0  0  0  0  0  0  0
  -32.5444   63.8657   61.4863 C   0  0  0  0  0  0  0  0  0  0  0  0
  -31.3358   64.9670   60.3664 H   0  0  0  0  0  0  0  0  0  0  0  0
  -39.4615   59.2954   65.7151 C   0  0  0  0  0  0  0  0  0  0  0  0
  -40.8336   59.7843   66.1665 C   0  0  0  0  0  0  0  0  0  0  0  0
  -41.9522   59.3753   65.2263 C   0  0  0  0  0  0  0  0  0  0  0  0
  -42.2745   57.8970   65.2312 C   0  0  0  0  0  0  0  0  0  0  0  0
  -43.1392   57.5549   66.3493 N   0  0  0  0  0  0  0  0  0  0  0  0
  -45.2080   57.2274   67.1899 O   0  0  0  0  0  0  0  0  0  0  0  0
  -44.4705   57.5071   66.2306 C   0  0  0  0  0  0  0  0  0  0  0  0
  -42.7313   57.3521   67.2220 H   0  0  0  0  0  0  0  0  0  0  0  0
  -46.1928   58.1564   64.5616 C   0  0  0  0  0  0  0  0  0  0  0  0
  -44.9704   57.7350   64.8563 C   0  0  0  0  0  0  0  0  0  0  0  0
  -47.2970   58.5028   65.5110 C   0  0  0  0  0  0  0  0  0  0  0  0
  -48.3682   57.4197   65.5496 C   0  0  0  0  0  0  0  0  0  0  0  0
  -49.7102   57.9026   66.0718 C   0  0  0  0  0  0  0  0  0  0  0  0
  -49.7658   59.4024   66.3107 C   0  0  0  0  0  0  0  0  0  0  0  0
  -50.9106   60.1063   65.6068 C   0  0  0  0  0  0  0  0  0  0  0  0
  -50.4572   61.0280   64.4867 C   0  0  0  0  0  0  0  0  0  0  0  0
  -49.6756   60.3191   63.3981 C   0  0  0  0  0  0  0  0  0  0  0  0
  -50.5630   59.6221   62.3865 C   0  0  0  0  0  0  0  0  0  0  0  0
  -50.5304   58.1078   62.4637 C   0  0  0  0  0  0  0  0  0  0  0  0
  -50.9529   57.4461   61.1669 C   0  0  0  0  0  0  0  0  0  0  0  0
  -50.1405   57.9057   59.9673 C   0  0  0  0  0  0  0  0  0  0  0  0
  -48.7001   57.4242   59.9708 C   0  0  0  0  0  0  0  0  0  0  0  0
  -48.5247   55.9769   59.5375 C   0  0  0  0  0  0  0  0  0  0  0  0
  -47.3126   55.7416   58.6467 C   0  0  0  0  0  0  0  0  0  0  0  0
  -47.6170   55.8753   57.1633 C   0  0  0  0  0  0  0  0  0  0  0  0
  -46.2202   57.9579   57.4596 C   0  0  0  0  0  0  0  0  0  0  0  0
  -47.0011   57.0953   56.5031 C   0  0  0  0  0  0  0  0  0  0  0  0
 43 45  1  0  0  0
 43 42  1  0  0  0
 43 46  1  0  0  0
 64 65  1  0  0  0
 44 45  2  0  0  0
 65 63  1  0  0  0
  2  1  1  0  0  0
  2  4  1  0  0  0
  2  5  1  0  0  0
  3  4  2  0  0  0
 63 62  1  0  0  0
  6  8  1  0  0  0
  6 11  2  0  0  0
  7 10  1  0  0  0
  7 11  1  0  0  0
 62 61  1  0  0  0
 26 28  1  0  0  0
 26 32  1  0  0  0
 26 29  1  0  0  0
 12 18  1  0  0  0
 12 19  1  0  0  0
 61 60  1  0  0  0
 30 36  1  0  0  0
 30 37  1  0  0  0
 30 38  1  0  0  0
 20 21  2  0  0  0
 60 59  1  0  0  0
 22 21  1  0  0  0
 22 23  1  0  0  0
 59 58  1  0  0  0
 27 28  2  0  0  0
 58 57  1  0  0  0
 31 37  2  0  0  0
 57 56  1  0  0  0
 56 55  1  0  0  0
 55 54  1  0  0  0
 54 53  1  0  0  0
 53 52  1  0  0  0
 52 51  1  0  0  0
 51 50  1  0  0  0
 50 49  1  0  0  0
 49 47  1  0  0  0
 47 48  2  0  0  0
 48 45  1  0  0  0
 42 41  1  0  0  0
 41 40  1  0  0  0
 40 39  1  0  0  0
 39  1  1  0  0  0
  1 21  1  0  0  0
  8  4  1  0  0  0
  8  9  1  0  0  0
  8 10  1  0  0  0
 11 13  1  0  0  0
 13 14  2  0  0  0
 13 18  1  0  0  0
 14 15  1  0  0  0
 15 16  2  0  0  0
 16 17  1  0  0  0
 17 18  2  0  0  0
 23 24  1  0  0  0
 23 25  1  0  0  0
 25 28  1  0  0  0
 32 33  1  0  0  0
 32 37  1  0  0  0
 33 34  1  0  0  0
 34 35  1  0  0  0
 35 36  1  0  0  0
M  END
> <minimizedAffinity>
-10.44004

> <CNNscore>
0.1975921988

> <CNNaffinity>
7.1119947433

> <CNN_VS>
1.4052746296

> <CNNaffinity_variance>
0.8705299497

$$$$
/media/chris/experiments/cd1a-new-docking/inputs/ligands/7ryo_ligand.pdb


 65 67  0  0  0  0  0  0  0  0999 V2000
  -38.5622   59.2793   64.6687 C   0  0  0  0  0  0  0  0  0  0  0  0
  -37.1236   59.4181   64.8215 N   0  0  0  0  0  0  0  0  0  0  0  0
  -37.0140   61.2443   63.5151 O   0  0  0  0  0  0  0  0  0  0  0  0
  -36.4637   60.4097   64.2180 C   0  0  0  0  0  0  0  0  0  0  0  0
  -36.6293   58.7729   65.3771 H   0  0  0  0  0  0  0  0  0  0  0  0
  -34.3192   59.2390   63.8982 N   0  0  0  0  0  0  0  0  0  0  0  0
  -33.1829   60.9168   62.9099 O   0  0  0  0  0  0  0  0  0  0  0  0
  -34.9398   60.4711   64.4124 C   0  0  0  0  0  0  0  0  0  0  0  0
  -34.6369   60.5958   65.9026 C   0  0  0  0  0  0  0  0  0  0  0  0
  -34.2668   61.5881   63.6010 C   0  0  0  0  0  0  0  0  0  0  0  0
  -33.3951   59.5889   63.1028 C   0  0  0  0  0  0  0  0  0  0  0  0
  -30.5285   59.6810   63.3446 O   0  0  0  0  0  0  0  0  0  0  0  0
  -32.5090   58.6903   62.3590 C   0  0  0  0  0  0  0  0  0  0  0  0
  -33.0440   57.6466   61.6027 C   0  0  0  0  0  0  0  0  0  0  0  0
  -32.2235   56.6524   61.0984 C   0  0  0  0  0  0  0  0  0  0  0  0
  -30.8666   56.6801   61.3366 C   0  0  0  0  0  0  0  0  0  0  0  0
  -30.3119   57.7008   62.0869 C   0  0  0  0  0  0  0  0  0  0  0  0
  -31.1205   58.7081   62.6041 C   0  0  0  0  0  0  0  0  0  0  0  0
  -31.0451   60.3735   63.7071 H   0  0  0  0  0  0  0  0  0  0  0  0
  -39.1125   60.9776   66.2977 O   0  0  0  0  0  0  0  0  0  0  0  0
  -39.3026   59.8784   65.8550 C   0  0  0  0  0  0  0  0  0  0  0  0
  -40.1863   58.9966   66.3537 O   0  0  0  0  0  0  0  0  0  0  0  0
  -41.6115   59.3349   66.2901 C   0  0  0  0  0  0  0  0  0  0  0  0
  -42.0139   59.9175   67.6213 C   0  0  0  0  0  0  0  0  0  0  0  0
  -42.3268   58.0317   65.9908 C   0  0  0  0  0  0  0  0  0  0  0  0
  -44.6910   58.1803   66.4709 N   0  0  0  0  0  0  0  0  0  0  0  0
  -44.0127   58.4449   64.3421 O   0  0  0  0  0  0  0  0  0  0  0  0
  -43.7508   58.2345   65.5231 C   0  0  0  0  0  0  0  0  0  0  0  0
  -44.4219   58.0081   67.4022 H   0  0  0  0  0  0  0  0  0  0  0  0
  -48.0165   59.3167   67.3329 N   0  0  0  0  0  0  0  0  0  0  0  0
  -46.3041   58.5271   68.5472 O   0  0  0  0  0  0  0  0  0  0  0  0
  -46.0987   58.3681   66.1666 C   0  0  0  0  0  0  0  0  0  0  0  0
  -46.6945   57.0709   65.6080 C   0  0  0  0  0  0  0  0  0  0  0  0
  -48.0016   57.2758   64.8499 C   0  0  0  0  0  0  0  0  0  0  0  0
  -49.1465   57.8421   65.6662 C   0  0  0  0  0  0  0  0  0  0  0  0
  -48.9070   59.2466   66.1792 C   0  0  0  0  0  0  0  0  0  0  0  0
  -46.8166   58.7444   67.4531 C   0  0  0  0  0  0  0  0  0  0  0  0
  -48.3340   59.8410   68.1033 H   0  0  0  0  0  0  0  0  0  0  0  0
  -38.9600   57.8176   64.4582 C   0  0  0  0  0  0  0  0  0  0  0  0
  -39.5436   57.5690   63.0715 C   0  0  0  0  0  0  0  0  0  0  0  0
  -38.5444   56.9645   62.1026 C   0  0  0  0  0  0  0  0  0  0  0  0
  -37.2213   57.6939   62.0206 C   0  0  0  0  0  0  0  0  0  0  0  0
  -36.9126   58.0625   60.6482 N   0  0  0  0  0  0  0  0  0  0  0  0
  -37.1458   59.4784   58.9062 O   0  0  0  0  0  0  0  0  0  0  0  0
  -37.4002   59.1720   60.0825 C   0  0  0  0  0  0  0  0  0  0  0  0
  -36.3257   57.4761   60.1182 H   0  0  0  0  0  0  0  0  0  0  0  0
  -39.4484   60.3911   60.7841 C   0  0  0  0  0  0  0  0  0  0  0  0
  -38.1909   60.0272   60.9958 C   0  0  0  0  0  0  0  0  0  0  0  0
  -40.3282   60.0214   59.6309 C   0  0  0  0  0  0  0  0  0  0  0  0
  -40.8828   58.6094   59.7747 C   0  0  0  0  0  0  0  0  0  0  0  0
  -41.6490   58.1244   58.5563 C   0  0  0  0  0  0  0  0  0  0  0  0
  -41.9143   59.2144   57.5311 C   0  0  0  0  0  0  0  0  0  0  0  0
  -43.1851   59.0201   56.7255 C   0  0  0  0  0  0  0  0  0  0  0  0
  -44.2201   58.1560   57.4268 C   0  0  0  0  0  0  0  0  0  0  0  0
  -45.6456   58.4590   57.0086 C   0  0  0  0  0  0  0  0  0  0  0  0
  -46.6646   58.1132   58.0757 C   0  0  0  0  0  0  0  0  0  0  0  0
  -47.6262   57.0064   57.6874 C   0  0  0  0  0  0  0  0  0  0  0  0
  -47.5556   55.8149   58.6218 C   0  0  0  0  0  0  0  0  0  0  0  0
  -48.6731   55.7941   59.6518 C   0  0  0  0  0  0  0  0  0  0  0  0
  -49.4420   57.0993   59.7610 C   0  0  0  0  0  0  0  0  0  0  0  0
  -49.9879   57.3877   61.1510 C   0  0  0  0  0  0  0  0  0  0  0  0
  -49.2798   58.5291   61.8679 C   0  0  0  0  0  0  0  0  0  0  0  0
  -50.1924   59.7026   62.1855 C   0  0  0  0  0  0  0  0  0  0  0  0
  -51.6187   60.5539   64.0874 C   0  0  0  0  0  0  0  0  0  0  0  0
  -51.2895   59.3920   63.1872 C   0  0  0  0  0  0  0  0  0  0  0  0
 43 45  1  0  0  0
 43 42  1  0  0  0
 43 46  1  0  0  0
 64 65  1  0  0  0
 44 45  2  0  0  0
 65 63  1  0  0  0
  2  1  1  0  0  0
  2  4  1  0  0  0
  2  5  1  0  0  0
  3  4  2  0  0  0
 63 62  1  0  0  0
  6  8  1  0  0  0
  6 11  2  0  0  0
  7 10  1  0  0  0
  7 11  1  0  0  0
 62 61  1  0  0  0
 26 28  1  0  0  0
 26 32  1  0  0  0
 26 29  1  0  0  0
 12 18  1  0  0  0
 12 19  1  0  0  0
 61 60  1  0  0  0
 30 36  1  0  0  0
 30 37  1  0  0  0
 30 38  1  0  0  0
 20 21  2  0  0  0
 60 59  1  0  0  0
 22 21  1  0  0  0
 22 23  1  0  0  0
 59 58  1  0  0  0
 27 28  2  0  0  0
 58 57  1  0  0  0
 31 37  2  0  0  0
 57 56  1  0  0  0
 56 55  1  0  0  0
 55 54  1  0  0  0
 54 53  1  0  0  0
 53 52  1  0  0  0
 52 51  1  0  0  0
 51 50  1  0  0  0
 50 49  1  0  0  0
 49 47  1  0  0  0
 47 48  2  0  0  0
 48 45  1  0  0  0
 42 41  1  0  0  0
 41 40  1  0  0  0
 40 39  1  0  0  0
 39  1  1  0  0  0
  1 21  1  0  0  0
  8  4  1  0  0  0
  8  9  1  0  0  0
  8 10  1  0  0  0
 11 13  1  0  0  0
 13 14  2  0  0  0
 13 18  1  0  0  0
 14 15  1  0  0  0
 15 16  2  0  0  0
 16 17  1  0  0  0
 17 18  2  0  0  0
 23 24  1  0  0  0
 23 25  1  0  0  0
 25 28  1  0  0  0
 32 33  1  0  0  0
 32 37  1  0  0  0
 33 34  1  0  0  0
 34 35  1  0  0  0
 35 36  1  0  0  0
M  END
> <minimizedAffinity>
-8.80435

> <CNNscore>
0.1926020235

> <CNNaffinity>
7.5651121140

> <CNN_VS>
1.4570559263

> <CNNaffinity_variance>
1.7619231939

$$$$
/media/chris/experiments/cd1a-new-docking/inputs/ligands/7ryo_ligand.pdb


 65 67  0  0  0  0  0  0  0  0999 V2000
  -37.9013   57.4160   62.0872 C   0  0  0  0  0  0  0  0  0  0  0  0
  -37.7540   57.8859   63.4546 N   0  0  0  0  0  0  0  0  0  0  0  0
  -38.2834   60.0085   62.9369 O   0  0  0  0  0  0  0  0  0  0  0  0
  -37.9628   59.1680   63.7639 C   0  0  0  0  0  0  0  0  0  0  0  0
  -37.4972   57.2509   64.1618 H   0  0  0  0  0  0  0  0  0  0  0  0
  -36.4985   60.3281   65.3707 N   0  0  0  0  0  0  0  0  0  0  0  0
  -38.0552   61.6503   66.3255 O   0  0  0  0  0  0  0  0  0  0  0  0
  -37.7629   59.5872   65.2297 C   0  0  0  0  0  0  0  0  0  0  0  0
  -37.7043   58.3339   66.0979 C   0  0  0  0  0  0  0  0  0  0  0  0
  -38.8263   60.5756   65.7308 C   0  0  0  0  0  0  0  0  0  0  0  0
  -36.7662   61.4158   65.9662 C   0  0  0  0  0  0  0  0  0  0  0  0
  -36.5550   62.4951   68.6260 O   0  0  0  0  0  0  0  0  0  0  0  0
  -35.8079   62.4655   66.3203 C   0  0  0  0  0  0  0  0  0  0  0  0
  -34.8517   62.8829   65.3934 C   0  0  0  0  0  0  0  0  0  0  0  0
  -33.7967   63.6879   65.7870 C   0  0  0  0  0  0  0  0  0  0  0  0
  -33.6766   64.0882   67.1000 C   0  0  0  0  0  0  0  0  0  0  0  0
  -34.6082   63.6848   68.0391 C   0  0  0  0  0  0  0  0  0  0  0  0
  -35.6744   62.8738   67.6633 C   0  0  0  0  0  0  0  0  0  0  0  0
  -37.2838   61.9492   68.4056 H   0  0  0  0  0  0  0  0  0  0  0  0
  -36.8273   58.5543   60.2456 O   0  0  0  0  0  0  0  0  0  0  0  0
  -36.7325   57.8631   61.2222 C   0  0  0  0  0  0  0  0  0  0  0  0
  -35.5782   57.3585   61.6914 O   0  0  0  0  0  0  0  0  0  0  0  0
  -34.3671   58.1762   61.5726 C   0  0  0  0  0  0  0  0  0  0  0  0
  -33.2003   57.2519   61.3321 C   0  0  0  0  0  0  0  0  0  0  0  0
  -34.2495   58.9238   62.8867 C   0  0  0  0  0  0  0  0  0  0  0  0
  -33.3161   61.1360   62.6096 N   0  0  0  0  0  0  0  0  0  0  0  0
  -31.9456   59.4680   63.2431 O   0  0  0  0  0  0  0  0  0  0  0  0
  -33.0644   59.8628   62.9270 C   0  0  0  0  0  0  0  0  0  0  0  0
  -34.2335   61.3952   62.3638 H   0  0  0  0  0  0  0  0  0  0  0  0
  -32.2080   64.5695   62.8867 N   0  0  0  0  0  0  0  0  0  0  0  0
  -34.0967   63.6250   62.1308 O   0  0  0  0  0  0  0  0  0  0  0  0
  -32.2749   62.1486   62.6169 C   0  0  0  0  0  0  0  0  0  0  0  0
  -31.3394   61.9509   61.4189 C   0  0  0  0  0  0  0  0  0  0  0  0
  -29.9916   62.6468   61.5748 C   0  0  0  0  0  0  0  0  0  0  0  0
  -30.0487   64.1559   61.7055 C   0  0  0  0  0  0  0  0  0  0  0  0
  -30.7525   64.6439   62.9544 C   0  0  0  0  0  0  0  0  0  0  0  0
  -32.9390   63.5133   62.5235 C   0  0  0  0  0  0  0  0  0  0  0  0
  -32.7029   65.3836   63.1350 H   0  0  0  0  0  0  0  0  0  0  0  0
  -39.2318   57.8692   61.4844 C   0  0  0  0  0  0  0  0  0  0  0  0
  -40.3682   56.8998   61.7914 C   0  0  0  0  0  0  0  0  0  0  0  0
  -41.3722   57.4523   62.7861 C   0  0  0  0  0  0  0  0  0  0  0  0
  -41.2090   56.9407   64.2007 C   0  0  0  0  0  0  0  0  0  0  0  0
  -41.1660   58.0401   65.1516 N   0  0  0  0  0  0  0  0  0  0  0  0
  -42.0703   59.1505   66.8960 O   0  0  0  0  0  0  0  0  0  0  0  0
  -42.1019   58.2036   66.0930 C   0  0  0  0  0  0  0  0  0  0  0  0
  -40.4239   58.6850   65.1007 H   0  0  0  0  0  0  0  0  0  0  0  0
  -44.3161   57.1994   65.5808 C   0  0  0  0  0  0  0  0  0  0  0  0
  -43.1160   57.1267   66.1405 C   0  0  0  0  0  0  0  0  0  0  0  0
  -44.8912   58.3318   64.7886 C   0  0  0  0  0  0  0  0  0  0  0  0
  -46.3905   58.1653   64.5735 C   0  0  0  0  0  0  0  0  0  0  0  0
  -47.0832   57.3737   65.6692 C   0  0  0  0  0  0  0  0  0  0  0  0
  -48.5792   57.6285   65.7506 C   0  0  0  0  0  0  0  0  0  0  0  0
  -48.9570   58.9188   66.4536 C   0  0  0  0  0  0  0  0  0  0  0  0
  -50.0739   59.6812   65.7601 C   0  0  0  0  0  0  0  0  0  0  0  0
  -49.6947   60.1923   64.3840 C   0  0  0  0  0  0  0  0  0  0  0  0
  -50.8328   60.1148   63.3864 C   0  0  0  0  0  0  0  0  0  0  0  0
  -51.0676   58.7313   62.8111 C   0  0  0  0  0  0  0  0  0  0  0  0
  -49.7777   58.0158   62.4617 C   0  0  0  0  0  0  0  0  0  0  0  0
  -49.1676   58.4861   61.1514 C   0  0  0  0  0  0  0  0  0  0  0  0
  -49.9521   58.0748   59.9175 C   0  0  0  0  0  0  0  0  0  0  0  0
  -49.0951   57.5255   58.7875 C   0  0  0  0  0  0  0  0  0  0  0  0
  -47.6088   57.8178   58.9415 C   0  0  0  0  0  0  0  0  0  0  0  0
  -46.8974   58.0480   57.6180 C   0  0  0  0  0  0  0  0  0  0  0  0
  -47.1612   55.6022   57.0480 C   0  0  0  0  0  0  0  0  0  0  0  0
  -47.2164   57.0214   56.5464 C   0  0  0  0  0  0  0  0  0  0  0  0
 43 45  1  0  0  0
 43 42  1  0  0  0
 43 46  1  0  0  0
 64 65  1  0  0  0
 44 45  2  0  0  0
 65 63  1  0  0  0
  2  1  1  0  0  0
  2  4  1  0  0  0
  2  5  1  0  0  0
  3  4  2  0  0  0
 63 62  1  0  0  0
  6  8  1  0  0  0
  6 11  2  0  0  0
  7 10  1  0  0  0
  7 11  1  0  0  0
 62 61  1  0  0  0
 26 28  1  0  0  0
 26 32  1  0  0  0
 26 29  1  0  0  0
 12 18  1  0  0  0
 12 19  1  0  0  0
 61 60  1  0  0  0
 30 36  1  0  0  0
 30 37  1  0  0  0
 30 38  1  0  0  0
 20 21  2  0  0  0
 60 59  1  0  0  0
 22 21  1  0  0  0
 22 23  1  0  0  0
 59 58  1  0  0  0
 27 28  2  0  0  0
 58 57  1  0  0  0
 31 37  2  0  0  0
 57 56  1  0  0  0
 56 55  1  0  0  0
 55 54  1  0  0  0
 54 53  1  0  0  0
 53 52  1  0  0  0
 52 51  1  0  0  0
 51 50  1  0  0  0
 50 49  1  0  0  0
 49 47  1  0  0  0
 47 48  2  0  0  0
 48 45  1  0  0  0
 42 41  1  0  0  0
 41 40  1  0  0  0
 40 39  1  0  0  0
 39  1  1  0  0  0
  1 21  1  0  0  0
  8  4  1  0  0  0
  8  9  1  0  0  0
  8 10  1  0  0  0
 11 13  1  0  0  0
 13 14  2  0  0  0
 13 18  1  0  0  0
 14 15  1  0  0  0
 15 16  2  0  0  0
 16 17  1  0  0  0
 17 18  2  0  0  0
 23 24  1  0  0  0
 23 25  1  0  0  0
 25 28  1  0  0  0
 32 33  1  0  0  0
 32 37  1  0  0  0
 33 34  1  0  0  0
 34 35  1  0  0  0
 35 36  1  0  0  0
M  END
> <minimizedAffinity>
-10.38817

> <CNNscore>
0.1756260544

> <CNNaffinity>
7.2302184105

> <CNN_VS>
1.2698147297

> <CNNaffinity_variance>
1.2042896748

$$$$
