/media/chris/experiments/cd1a-new-docking/inputs/ligands/7ryo_ligand.pdb


 65 67  0  0  0  0  0  0  0  0999 V2000
  -38.2137   60.2956   65.0340 C   0  0  0  0  0  0  0  0  0  0  0  0
  -37.5026   59.5499   64.0090 N   0  0  0  0  0  0  0  0  0  0  0  0
  -38.7260   60.4082   62.3296 O   0  0  0  0  0  0  0  0  0  0  0  0
  -37.8294   59.6756   62.7205 C   0  0  0  0  0  0  0  0  0  0  0  0
  -36.7708   58.9445   64.2680 H   0  0  0  0  0  0  0  0  0  0  0  0
  -35.6048   59.1272   61.8137 N   0  0  0  0  0  0  0  0  0  0  0  0
  -35.7500   56.8812   61.9461 O   0  0  0  0  0  0  0  0  0  0  0  0
  -37.0431   58.8335   61.7024 C   0  0  0  0  0  0  0  0  0  0  0  0
  -37.5159   59.1907   60.2964 C   0  0  0  0  0  0  0  0  0  0  0  0
  -37.1313   57.3228   61.9642 C   0  0  0  0  0  0  0  0  0  0  0  0
  -35.0046   58.0171   61.9430 C   0  0  0  0  0  0  0  0  0  0  0  0
  -33.3982   59.6019   63.7295 O   0  0  0  0  0  0  0  0  0  0  0  0
  -33.5591   57.8278   62.0857 C   0  0  0  0  0  0  0  0  0  0  0  0
  -32.9269   56.7572   61.4522 C   0  0  0  0  0  0  0  0  0  0  0  0
  -31.6212   56.4248   61.7702 C   0  0  0  0  0  0  0  0  0  0  0  0
  -30.9282   57.1472   62.7170 C   0  0  0  0  0  0  0  0  0  0  0  0
  -31.5334   58.2099   63.3628 C   0  0  0  0  0  0  0  0  0  0  0  0
  -32.8456   58.5580   63.0583 C   0  0  0  0  0  0  0  0  0  0  0  0
  -34.2799   59.8615   63.5478 H   0  0  0  0  0  0  0  0  0  0  0  0
  -37.5509   61.7281   66.8642 O   0  0  0  0  0  0  0  0  0  0  0  0
  -37.2609   61.1571   65.8493 C   0  0  0  0  0  0  0  0  0  0  0  0
  -36.0520   61.2075   65.2633 O   0  0  0  0  0  0  0  0  0  0  0  0
  -35.5719   62.5054   64.7789 C   0  0  0  0  0  0  0  0  0  0  0  0
  -35.7694   62.5492   63.2847 C   0  0  0  0  0  0  0  0  0  0  0  0
  -34.1081   62.5701   65.1695 C   0  0  0  0  0  0  0  0  0  0  0  0
  -32.9049   64.6228   65.5943 N   0  0  0  0  0  0  0  0  0  0  0  0
  -34.3257   63.8701   67.1679 O   0  0  0  0  0  0  0  0  0  0  0  0
  -33.7896   63.7421   66.0707 C   0  0  0  0  0  0  0  0  0  0  0  0
  -32.6618   65.4020   66.1448 H   0  0  0  0  0  0  0  0  0  0  0  0
  -32.5296   65.5384   62.1137 N   0  0  0  0  0  0  0  0  0  0  0  0
  -34.2652   65.5905   63.5335 O   0  0  0  0  0  0  0  0  0  0  0  0
  -32.2914   64.4634   64.2874 C   0  0  0  0  0  0  0  0  0  0  0  0
  -32.2699   62.9823   63.8928 C   0  0  0  0  0  0  0  0  0  0  0  0
  -31.2705   62.6590   62.7874 C   0  0  0  0  0  0  0  0  0  0  0  0
  -31.5179   63.3519   61.4621 C   0  0  0  0  0  0  0  0  0  0  0  0
  -31.3847   64.8594   61.5163 C   0  0  0  0  0  0  0  0  0  0  0  0
  -33.1149   65.2467   63.2775 C   0  0  0  0  0  0  0  0  0  0  0  0
  -32.9104   66.2905   61.6052 H   0  0  0  0  0  0  0  0  0  0  0  0
  -39.0192   59.3638   65.9407 C   0  0  0  0  0  0  0  0  0  0  0  0
  -40.5145   59.6593   65.8950 C   0  0  0  0  0  0  0  0  0  0  0  0
  -40.8726   60.7801   64.9367 C   0  0  0  0  0  0  0  0  0  0  0  0
  -41.6835   60.3496   63.7340 C   0  0  0  0  0  0  0  0  0  0  0  0
  -42.3024   59.0529   63.9587 N   0  0  0  0  0  0  0  0  0  0  0  0
  -40.8400   57.9368   62.6514 O   0  0  0  0  0  0  0  0  0  0  0  0
  -41.8328   57.9334   63.3976 C   0  0  0  0  0  0  0  0  0  0  0  0
  -43.0928   58.9975   64.5431 H   0  0  0  0  0  0  0  0  0  0  0  0
  -43.2470   56.4770   64.8302 C   0  0  0  0  0  0  0  0  0  0  0  0
  -42.6389   56.7243   63.6779 C   0  0  0  0  0  0  0  0  0  0  0  0
  -43.2737   57.3360   66.0557 C   0  0  0  0  0  0  0  0  0  0  0  0
  -44.6842   57.8125   66.3801 C   0  0  0  0  0  0  0  0  0  0  0  0
  -45.6839   57.5764   65.2611 C   0  0  0  0  0  0  0  0  0  0  0  0
  -46.8618   58.5363   65.2853 C   0  0  0  0  0  0  0  0  0  0  0  0
  -48.1730   57.9073   65.7177 C   0  0  0  0  0  0  0  0  0  0  0  0
  -49.1099   58.8797   66.4149 C   0  0  0  0  0  0  0  0  0  0  0  0
  -50.5087   58.8976   65.8302 C   0  0  0  0  0  0  0  0  0  0  0  0
  -50.8085   60.1580   65.0440 C   0  0  0  0  0  0  0  0  0  0  0  0
  -51.1777   59.9174   63.5928 C   0  0  0  0  0  0  0  0  0  0  0  0
  -50.6201   58.6142   63.0551 C   0  0  0  0  0  0  0  0  0  0  0  0
  -50.4315   58.6203   61.5468 C   0  0  0  0  0  0  0  0  0  0  0  0
  -49.3168   57.7127   61.0564 C   0  0  0  0  0  0  0  0  0  0  0  0
  -48.8573   58.0005   59.6354 C   0  0  0  0  0  0  0  0  0  0  0  0
  -47.3886   57.6863   59.3858 C   0  0  0  0  0  0  0  0  0  0  0  0
  -46.9293   58.0220   57.9761 C   0  0  0  0  0  0  0  0  0  0  0  0
  -46.9389   55.8740   56.6487 C   0  0  0  0  0  0  0  0  0  0  0  0
  -47.6001   57.2063   56.8858 C   0  0  0  0  0  0  0  0  0  0  0  0
 43 45  1  0  0  0
 43 42  1  0  0  0
 43 46  1  0  0  0
 64 65  1  0  0  0
 44 45  2  0  0  0
 65 63  1  0  0  0
  2  1  1  0  0  0
  2  4  1  0  0  0
  2  5  1  0  0  0
  3  4  2  0  0  0
 63 62  1  0  0  0
  6  8  1  0  0  0
  6 11  2  0  0  0
  7 10  1  0  0  0
  7 11  1  0  0  0
 62 61  1  0  0  0
 26 28  1  0  0  0
 26 32  1  0  0  0
 26 29  1  0  0  0
 12 18  1  0  0  0
 12 19  1  0  0  0
 61 60  1  0  0  0
 30 36  1  0  0  0
 30 37  1  0  0  0
 30 38  1  0  0  0
 20 21  2  0  0  0
 60 59  1  0  0  0
 22 21  1  0  0  0
 22 23  1  0  0  0
 59 58  1  0  0  0
 27 28  2  0  0  0
 58 57  1  0  0  0
 31 37  2  0  0  0
 57 56  1  0  0  0
 56 55  1  0  0  0
 55 54  1  0  0  0
 54 53  1  0  0  0
 53 52  1  0  0  0
 52 51  1  0  0  0
 51 50  1  0  0  0
 50 49  1  0  0  0
 49 47  1  0  0  0
 47 48  2  0  0  0
 48 45  1  0  0  0
 42 41  1  0  0  0
 41 40  1  0  0  0
 40 39  1  0  0  0
 39  1  1  0  0  0
  1 21  1  0  0  0
  8  4  1  0  0  0
  8  9  1  0  0  0
  8 10  1  0  0  0
 11 13  1  0  0  0
 13 14  2  0  0  0
 13 18  1  0  0  0
 14 15  1  0  0  0
 15 16  2  0  0  0
 16 17  1  0  0  0
 17 18  2  0  0  0
 23 24  1  0  0  0
 23 25  1  0  0  0
 25 28  1  0  0  0
 32 33  1  0  0  0
 32 37  1  0  0  0
 33 34  1  0  0  0
 34 35  1  0  0  0
 35 36  1  0  0  0
M  END
> <minimizedAffinity>
-10.23411

> <CNNscore>
0.3584875166

> <CNNaffinity>
7.4742889404

> <CNN_VS>
2.6794393063

> <CNNaffinity_variance>
1.2076288462

$$$$
/media/chris/experiments/cd1a-new-docking/inputs/ligands/7ryo_ligand.pdb


 65 67  0  0  0  0  0  0  0  0999 V2000
  -34.0397   58.4636   62.9235 C   0  0  0  0  0  0  0  0  0  0  0  0
  -35.0937   59.4330   63.1722 N   0  0  0  0  0  0  0  0  0  0  0  0
  -35.4090   58.7640   65.2950 O   0  0  0  0  0  0  0  0  0  0  0  0
  -35.6971   59.4979   64.3614 C   0  0  0  0  0  0  0  0  0  0  0  0
  -35.3660   60.0496   62.4546 H   0  0  0  0  0  0  0  0  0  0  0  0
  -38.1309   59.8779   64.4297 N   0  0  0  0  0  0  0  0  0  0  0  0
  -38.2186   61.0448   66.3568 O   0  0  0  0  0  0  0  0  0  0  0  0
  -36.8181   60.5361   64.5340 C   0  0  0  0  0  0  0  0  0  0  0  0
  -36.6970   61.5815   63.4293 C   0  0  0  0  0  0  0  0  0  0  0  0
  -36.8403   61.1823   65.9271 C   0  0  0  0  0  0  0  0  0  0  0  0
  -38.8004   60.2131   65.4538 C   0  0  0  0  0  0  0  0  0  0  0  0
  -40.0649   57.9617   64.1825 O   0  0  0  0  0  0  0  0  0  0  0  0
  -40.1680   59.7927   65.7675 C   0  0  0  0  0  0  0  0  0  0  0  0
  -40.8634   60.3965   66.8159 C   0  0  0  0  0  0  0  0  0  0  0  0
  -42.0489   59.8513   67.2783 C   0  0  0  0  0  0  0  0  0  0  0  0
  -42.5584   58.7046   66.7089 C   0  0  0  0  0  0  0  0  0  0  0  0
  -41.8863   58.0842   65.6715 C   0  0  0  0  0  0  0  0  0  0  0  0
  -40.6922   58.6157   65.1945 C   0  0  0  0  0  0  0  0  0  0  0  0
  -39.2590   58.2937   63.8387 H   0  0  0  0  0  0  0  0  0  0  0  0
  -32.7973   58.3307   60.8548 O   0  0  0  0  0  0  0  0  0  0  0  0
  -33.0882   58.9501   61.8407 C   0  0  0  0  0  0  0  0  0  0  0  0
  -32.6008   60.1638   62.1516 O   0  0  0  0  0  0  0  0  0  0  0  0
  -31.1931   60.2625   62.5495 C   0  0  0  0  0  0  0  0  0  0  0  0
  -30.9281   59.2103   63.5964 C   0  0  0  0  0  0  0  0  0  0  0  0
  -31.0197   61.6693   63.0886 C   0  0  0  0  0  0  0  0  0  0  0  0
  -32.1066   63.7703   62.5922 N   0  0  0  0  0  0  0  0  0  0  0  0
  -31.1266   62.6480   60.9064 O   0  0  0  0  0  0  0  0  0  0  0  0
  -31.4234   62.7354   62.0947 C   0  0  0  0  0  0  0  0  0  0  0  0
  -32.3950   64.4894   61.9847 H   0  0  0  0  0  0  0  0  0  0  0  0
  -34.4893   63.8182   65.3151 N   0  0  0  0  0  0  0  0  0  0  0  0
  -34.5988   64.4683   63.1712 O   0  0  0  0  0  0  0  0  0  0  0  0
  -32.4362   63.8646   64.0036 C   0  0  0  0  0  0  0  0  0  0  0  0
  -31.6968   65.0475   64.6393 C   0  0  0  0  0  0  0  0  0  0  0  0
  -31.6090   64.9674   66.1595 C   0  0  0  0  0  0  0  0  0  0  0  0
  -32.9370   64.9750   66.8902 C   0  0  0  0  0  0  0  0  0  0  0  0
  -33.8087   63.7700   66.6047 C   0  0  0  0  0  0  0  0  0  0  0  0
  -33.9366   64.0769   64.1279 C   0  0  0  0  0  0  0  0  0  0  0  0
  -35.4578   63.6413   65.3211 H   0  0  0  0  0  0  0  0  0  0  0  0
  -34.6182   57.0934   62.5669 C   0  0  0  0  0  0  0  0  0  0  0  0
  -35.7371   57.1865   61.5351 C   0  0  0  0  0  0  0  0  0  0  0  0
  -37.1197   57.2471   62.1575 C   0  0  0  0  0  0  0  0  0  0  0  0
  -38.0211   58.3237   61.5935 C   0  0  0  0  0  0  0  0  0  0  0  0
  -39.1990   57.7435   60.9682 N   0  0  0  0  0  0  0  0  0  0  0  0
  -40.4929   59.5579   61.3250 O   0  0  0  0  0  0  0  0  0  0  0  0
  -40.3568   58.4069   60.8787 C   0  0  0  0  0  0  0  0  0  0  0  0
  -39.1421   56.8327   60.5987 H   0  0  0  0  0  0  0  0  0  0  0  0
  -41.9381   57.8108   59.0573 C   0  0  0  0  0  0  0  0  0  0  0  0
  -41.4639   57.6268   60.2820 C   0  0  0  0  0  0  0  0  0  0  0  0
  -41.4705   58.7955   58.0314 C   0  0  0  0  0  0  0  0  0  0  0  0
  -42.3384   58.7609   56.7795 C   0  0  0  0  0  0  0  0  0  0  0  0
  -43.7763   59.1886   57.0179 C   0  0  0  0  0  0  0  0  0  0  0  0
  -44.7675   58.0373   56.9797 C   0  0  0  0  0  0  0  0  0  0  0  0
  -46.0779   58.3158   57.6919 C   0  0  0  0  0  0  0  0  0  0  0  0
  -46.9581   57.0861   57.8426 C   0  0  0  0  0  0  0  0  0  0  0  0
  -48.3141   57.3830   58.4523 C   0  0  0  0  0  0  0  0  0  0  0  0
  -48.3019   57.3641   59.9675 C   0  0  0  0  0  0  0  0  0  0  0  0
  -49.6630   57.1514   60.6017 C   0  0  0  0  0  0  0  0  0  0  0  0
  -50.2856   58.4412   61.0986 C   0  0  0  0  0  0  0  0  0  0  0  0
  -50.7158   58.3767   62.5551 C   0  0  0  0  0  0  0  0  0  0  0  0
  -51.1778   59.7062   63.1260 C   0  0  0  0  0  0  0  0  0  0  0  0
  -50.4911   60.1002   64.4245 C   0  0  0  0  0  0  0  0  0  0  0  0
  -48.9914   60.3242   64.2866 C   0  0  0  0  0  0  0  0  0  0  0  0
  -48.1658   59.5151   65.2738 C   0  0  0  0  0  0  0  0  0  0  0  0
  -48.1446   57.0891   65.9741 C   0  0  0  0  0  0  0  0  0  0  0  0
  -47.9224   58.0757   64.8579 C   0  0  0  0  0  0  0  0  0  0  0  0
 43 45  1  0  0  0
 43 42  1  0  0  0
 43 46  1  0  0  0
 64 65  1  0  0  0
 44 45  2  0  0  0
 65 63  1  0  0  0
  2  1  1  0  0  0
  2  4  1  0  0  0
  2  5  1  0  0  0
  3  4  2  0  0  0
 63 62  1  0  0  0
  6  8  1  0  0  0
  6 11  2  0  0  0
  7 10  1  0  0  0
  7 11  1  0  0  0
 62 61  1  0  0  0
 26 28  1  0  0  0
 26 32  1  0  0  0
 26 29  1  0  0  0
 12 18  1  0  0  0
 12 19  1  0  0  0
 61 60  1  0  0  0
 30 36  1  0  0  0
 30 37  1  0  0  0
 30 38  1  0  0  0
 20 21  2  0  0  0
 60 59  1  0  0  0
 22 21  1  0  0  0
 22 23  1  0  0  0
 59 58  1  0  0  0
 27 28  2  0  0  0
 58 57  1  0  0  0
 31 37  2  0  0  0
 57 56  1  0  0  0
 56 55  1  0  0  0
 55 54  1  0  0  0
 54 53  1  0  0  0
 53 52  1  0  0  0
 52 51  1  0  0  0
 51 50  1  0  0  0
 50 49  1  0  0  0
 49 47  1  0  0  0
 47 48  2  0  0  0
 48 45  1  0  0  0
 42 41  1  0  0  0
 41 40  1  0  0  0
 40 39  1  0  0  0
 39  1  1  0  0  0
  1 21  1  0  0  0
  8  4  1  0  0  0
  8  9  1  0  0  0
  8 10  1  0  0  0
 11 13  1  0  0  0
 13 14  2  0  0  0
 13 18  1  0  0  0
 14 15  1  0  0  0
 15 16  2  0  0  0
 16 17  1  0  0  0
 17 18  2  0  0  0
 23 24  1  0  0  0
 23 25  1  0  0  0
 25 28  1  0  0  0
 32 33  1  0  0  0
 32 37  1  0  0  0
 33 34  1  0  0  0
 34 35  1  0  0  0
 35 36  1  0  0  0
M  END
> <minimizedAffinity>
-7.89612

> <CNNscore>
0.2364964783

> <CNNaffinity>
6.9940443039

> <CNN_VS>
1.6540668011

> <CNNaffinity_variance>
1.1413204670

$$$$
/media/chris/experiments/cd1a-new-docking/inputs/ligands/7ryo_ligand.pdb


 65 67  0  0  0  0  0  0  0  0999 V2000
  -38.7105   60.6918   64.0598 C   0  0  0  0  0  0  0  0  0  0  0  0
  -37.5865   60.0008   63.4501 N   0  0  0  0  0  0  0  0  0  0  0  0
  -38.3339   57.9629   64.0350 O   0  0  0  0  0  0  0  0  0  0  0  0
  -37.4968   58.6693   63.4933 C   0  0  0  0  0  0  0  0  0  0  0  0
  -36.8825   60.5210   62.9998 H   0  0  0  0  0  0  0  0  0  0  0  0
  -35.3621   59.0603   62.3261 N   0  0  0  0  0  0  0  0  0  0  0  0
  -34.0527   57.7431   63.6041 O   0  0  0  0  0  0  0  0  0  0  0  0
  -36.2640   58.0186   62.8445 C   0  0  0  0  0  0  0  0  0  0  0  0
  -36.7229   57.1372   61.6867 C   0  0  0  0  0  0  0  0  0  0  0  0
  -35.3920   57.2393   63.8401 C   0  0  0  0  0  0  0  0  0  0  0  0
  -34.2071   58.8226   62.7939 C   0  0  0  0  0  0  0  0  0  0  0  0
  -32.0184   57.8272   61.2120 O   0  0  0  0  0  0  0  0  0  0  0  0
  -32.9945   59.6042   62.5402 C   0  0  0  0  0  0  0  0  0  0  0  0
  -32.9220   60.9368   62.9480 C   0  0  0  0  0  0  0  0  0  0  0  0
  -31.8941   61.7516   62.5056 C   0  0  0  0  0  0  0  0  0  0  0  0
  -30.9281   61.2573   61.6563 C   0  0  0  0  0  0  0  0  0  0  0  0
  -30.9796   59.9414   61.2337 C   0  0  0  0  0  0  0  0  0  0  0  0
  -32.0062   59.1075   61.6657 C   0  0  0  0  0  0  0  0  0  0  0  0
  -32.6960   57.2402   61.4841 H   0  0  0  0  0  0  0  0  0  0  0  0
  -39.4666   61.0071   66.3335 O   0  0  0  0  0  0  0  0  0  0  0  0
  -38.5802   60.7249   65.5753 C   0  0  0  0  0  0  0  0  0  0  0  0
  -37.3265   60.4141   65.9479 O   0  0  0  0  0  0  0  0  0  0  0  0
  -36.2185   61.1431   65.3229 C   0  0  0  0  0  0  0  0  0  0  0  0
  -34.9268   60.5241   65.7938 C   0  0  0  0  0  0  0  0  0  0  0  0
  -36.3687   62.5816   65.7785 C   0  0  0  0  0  0  0  0  0  0  0  0
  -34.6692   63.4043   67.2874 N   0  0  0  0  0  0  0  0  0  0  0  0
  -36.5206   62.4751   68.1653 O   0  0  0  0  0  0  0  0  0  0  0  0
  -35.8618   62.8106   67.1849 C   0  0  0  0  0  0  0  0  0  0  0  0
  -34.2942   63.5728   68.1820 H   0  0  0  0  0  0  0  0  0  0  0  0
  -31.8483   65.0462   65.7253 N   0  0  0  0  0  0  0  0  0  0  0  0
  -32.9862   65.4268   67.6203 O   0  0  0  0  0  0  0  0  0  0  0  0
  -33.9101   63.8081   66.1168 C   0  0  0  0  0  0  0  0  0  0  0  0
  -34.8431   64.4351   65.0746 C   0  0  0  0  0  0  0  0  0  0  0  0
  -34.2517   64.4735   63.6696 C   0  0  0  0  0  0  0  0  0  0  0  0
  -32.9859   65.2936   63.5177 C   0  0  0  0  0  0  0  0  0  0  0  0
  -31.8026   64.7573   64.2959 C   0  0  0  0  0  0  0  0  0  0  0  0
  -32.8738   64.8317   66.5525 C   0  0  0  0  0  0  0  0  0  0  0  0
  -31.0378   65.4407   66.1212 H   0  0  0  0  0  0  0  0  0  0  0  0
  -40.0413   60.0664   63.6395 C   0  0  0  0  0  0  0  0  0  0  0  0
  -40.4856   60.5235   62.2542 C   0  0  0  0  0  0  0  0  0  0  0  0
  -39.6783   59.8984   61.1317 C   0  0  0  0  0  0  0  0  0  0  0  0
  -40.1764   58.5459   60.6710 C   0  0  0  0  0  0  0  0  0  0  0  0
  -40.4715   57.6844   61.8050 N   0  0  0  0  0  0  0  0  0  0  0  0
  -42.2531   56.7100   60.8201 O   0  0  0  0  0  0  0  0  0  0  0  0
  -41.4948   56.8234   61.7972 C   0  0  0  0  0  0  0  0  0  0  0  0
  -39.8991   57.7367   62.6043 H   0  0  0  0  0  0  0  0  0  0  0  0
  -42.3875   56.5414   64.0988 C   0  0  0  0  0  0  0  0  0  0  0  0
  -41.6860   56.0894   63.0680 C   0  0  0  0  0  0  0  0  0  0  0  0
  -43.1326   57.8354   64.2039 C   0  0  0  0  0  0  0  0  0  0  0  0
  -44.5771   57.6209   64.6389 C   0  0  0  0  0  0  0  0  0  0  0  0
  -44.8463   58.0059   66.0834 C   0  0  0  0  0  0  0  0  0  0  0  0
  -46.3078   58.3081   66.3700 C   0  0  0  0  0  0  0  0  0  0  0  0
  -47.2849   57.6058   65.4459 C   0  0  0  0  0  0  0  0  0  0  0  0
  -48.0364   58.5540   64.5262 C   0  0  0  0  0  0  0  0  0  0  0  0
  -49.5298   58.2962   64.4800 C   0  0  0  0  0  0  0  0  0  0  0  0
  -50.3317   59.5170   64.0762 C   0  0  0  0  0  0  0  0  0  0  0  0
  -50.9486   59.4312   62.6934 C   0  0  0  0  0  0  0  0  0  0  0  0
  -51.0559   58.0061   62.1875 C   0  0  0  0  0  0  0  0  0  0  0  0
  -50.4107   57.8034   60.8263 C   0  0  0  0  0  0  0  0  0  0  0  0
  -48.9630   58.2565   60.7511 C   0  0  0  0  0  0  0  0  0  0  0  0
  -48.4210   58.3821   59.3356 C   0  0  0  0  0  0  0  0  0  0  0  0
  -47.2116   57.5000   59.0571 C   0  0  0  0  0  0  0  0  0  0  0  0
  -46.5481   57.7879   57.7201 C   0  0  0  0  0  0  0  0  0  0  0  0
  -47.4254   55.4980   57.1176 C   0  0  0  0  0  0  0  0  0  0  0  0
  -46.9298   56.8263   56.6093 C   0  0  0  0  0  0  0  0  0  0  0  0
 43 45  1  0  0  0
 43 42  1  0  0  0
 43 46  1  0  0  0
 64 65  1  0  0  0
 44 45  2  0  0  0
 65 63  1  0  0  0
  2  1  1  0  0  0
  2  4  1  0  0  0
  2  5  1  0  0  0
  3  4  2  0  0  0
 63 62  1  0  0  0
  6  8  1  0  0  0
  6 11  2  0  0  0
  7 10  1  0  0  0
  7 11  1  0  0  0
 62 61  1  0  0  0
 26 28  1  0  0  0
 26 32  1  0  0  0
 26 29  1  0  0  0
 12 18  1  0  0  0
 12 19  1  0  0  0
 61 60  1  0  0  0
 30 36  1  0  0  0
 30 37  1  0  0  0
 30 38  1  0  0  0
 20 21  2  0  0  0
 60 59  1  0  0  0
 22 21  1  0  0  0
 22 23  1  0  0  0
 59 58  1  0  0  0
 27 28  2  0  0  0
 58 57  1  0  0  0
 31 37  2  0  0  0
 57 56  1  0  0  0
 56 55  1  0  0  0
 55 54  1  0  0  0
 54 53  1  0  0  0
 53 52  1  0  0  0
 52 51  1  0  0  0
 51 50  1  0  0  0
 50 49  1  0  0  0
 49 47  1  0  0  0
 47 48  2  0  0  0
 48 45  1  0  0  0
 42 41  1  0  0  0
 41 40  1  0  0  0
 40 39  1  0  0  0
 39  1  1  0  0  0
  1 21  1  0  0  0
  8  4  1  0  0  0
  8  9  1  0  0  0
  8 10  1  0  0  0
 11 13  1  0  0  0
 13 14  2  0  0  0
 13 18  1  0  0  0
 14 15  1  0  0  0
 15 16  2  0  0  0
 16 17  1  0  0  0
 17 18  2  0  0  0
 23 24  1  0  0  0
 23 25  1  0  0  0
 25 28  1  0  0  0
 32 33  1  0  0  0
 32 37  1  0  0  0
 33 34  1  0  0  0
 34 35  1  0  0  0
 35 36  1  0  0  0
M  END
> <minimizedAffinity>
-10.15470

> <CNNscore>
0.2188905180

> <CNNaffinity>
7.5325164795

> <CNN_VS>
1.6487964392

> <CNNaffinity_variance>
1.0476396084

$$$$
/media/chris/experiments/cd1a-new-docking/inputs/ligands/7ryo_ligand.pdb


 65 67  0  0  0  0  0  0  0  0999 V2000
  -36.4123   57.9460   62.9367 C   0  0  0  0  0  0  0  0  0  0  0  0
  -37.7981   57.8118   63.3537 N   0  0  0  0  0  0  0  0  0  0  0  0
  -38.4004   56.6927   61.4994 O   0  0  0  0  0  0  0  0  0  0  0  0
  -38.6875   57.1835   62.5810 C   0  0  0  0  0  0  0  0  0  0  0  0
  -38.0846   58.1889   64.2168 H   0  0  0  0  0  0  0  0  0  0  0  0
  -40.1907   57.4545   64.5147 N   0  0  0  0  0  0  0  0  0  0  0  0
  -41.7333   58.7771   63.5379 O   0  0  0  0  0  0  0  0  0  0  0  0
  -40.1379   57.1060   63.0853 C   0  0  0  0  0  0  0  0  0  0  0  0
  -40.6485   55.6799   62.9023 C   0  0  0  0  0  0  0  0  0  0  0  0
  -41.0689   58.1317   62.4220 C   0  0  0  0  0  0  0  0  0  0  0  0
  -41.0718   58.3574   64.6478 C   0  0  0  0  0  0  0  0  0  0  0  0
  -40.4159   61.0926   65.2580 O   0  0  0  0  0  0  0  0  0  0  0  0
  -41.4636   59.0040   65.9025 C   0  0  0  0  0  0  0  0  0  0  0  0
  -42.3061   58.3436   66.7976 C   0  0  0  0  0  0  0  0  0  0  0  0
  -42.8767   59.0258   67.8585 C   0  0  0  0  0  0  0  0  0  0  0  0
  -42.6201   60.3667   68.0447 C   0  0  0  0  0  0  0  0  0  0  0  0
  -41.7923   61.0456   67.1693 C   0  0  0  0  0  0  0  0  0  0  0  0
  -41.2111   60.3778   66.0958 C   0  0  0  0  0  0  0  0  0  0  0  0
  -40.0096   60.6725   64.5257 H   0  0  0  0  0  0  0  0  0  0  0  0
  -35.4767   57.0515   64.9777 O   0  0  0  0  0  0  0  0  0  0  0  0
  -35.4710   57.9022   64.1313 C   0  0  0  0  0  0  0  0  0  0  0  0
  -34.6438   58.9619   64.1190 O   0  0  0  0  0  0  0  0  0  0  0  0
  -33.5835   58.9999   63.1072 C   0  0  0  0  0  0  0  0  0  0  0  0
  -33.0220   57.6077   62.9656 C   0  0  0  0  0  0  0  0  0  0  0  0
  -32.5567   59.9857   63.6298 C   0  0  0  0  0  0  0  0  0  0  0  0
  -32.9048   62.3067   63.0521 N   0  0  0  0  0  0  0  0  0  0  0  0
  -31.6534   61.0383   61.6786 O   0  0  0  0  0  0  0  0  0  0  0  0
  -32.3317   61.1536   62.6955 C   0  0  0  0  0  0  0  0  0  0  0  0
  -32.7904   63.0962   62.4750 H   0  0  0  0  0  0  0  0  0  0  0  0
  -36.0663   62.5920   64.7890 N   0  0  0  0  0  0  0  0  0  0  0  0
  -35.3634   63.2594   62.7664 O   0  0  0  0  0  0  0  0  0  0  0  0
  -33.6919   62.4289   64.2667 C   0  0  0  0  0  0  0  0  0  0  0  0
  -33.1076   63.5250   65.1650 C   0  0  0  0  0  0  0  0  0  0  0  0
  -33.5597   63.4296   66.6181 C   0  0  0  0  0  0  0  0  0  0  0  0
  -35.0512   63.5730   66.8472 C   0  0  0  0  0  0  0  0  0  0  0  0
  -35.8824   62.4672   66.2309 C   0  0  0  0  0  0  0  0  0  0  0  0
  -35.1144   62.7967   63.8758 C   0  0  0  0  0  0  0  0  0  0  0  0
  -36.9893   62.5176   64.4545 H   0  0  0  0  0  0  0  0  0  0  0  0
  -36.1990   59.2212   62.1198 C   0  0  0  0  0  0  0  0  0  0  0  0
  -37.2571   60.2802   62.4102 C   0  0  0  0  0  0  0  0  0  0  0  0
  -38.0484   60.6865   61.1809 C   0  0  0  0  0  0  0  0  0  0  0  0
  -37.7722   59.8554   59.9471 C   0  0  0  0  0  0  0  0  0  0  0  0
  -38.8509   58.9115   59.7014 N   0  0  0  0  0  0  0  0  0  0  0  0
  -40.3681   60.5093   59.2127 O   0  0  0  0  0  0  0  0  0  0  0  0
  -40.0784   59.3094   59.3497 C   0  0  0  0  0  0  0  0  0  0  0  0
  -38.6716   57.9481   59.7969 H   0  0  0  0  0  0  0  0  0  0  0  0
  -41.9910   58.1429   58.2752 C   0  0  0  0  0  0  0  0  0  0  0  0
  -41.0631   58.2122   59.2202 C   0  0  0  0  0  0  0  0  0  0  0  0
  -42.2345   59.1075   57.1568 C   0  0  0  0  0  0  0  0  0  0  0  0
  -43.6569   59.0022   56.6205 C   0  0  0  0  0  0  0  0  0  0  0  0
  -44.5802   58.1670   57.4907 C   0  0  0  0  0  0  0  0  0  0  0  0
  -46.0272   58.1771   57.0267 C   0  0  0  0  0  0  0  0  0  0  0  0
  -47.0382   58.4057   58.1346 C   0  0  0  0  0  0  0  0  0  0  0  0
  -47.1328   57.2490   59.1158 C   0  0  0  0  0  0  0  0  0  0  0  0
  -48.5447   56.7308   59.3068 C   0  0  0  0  0  0  0  0  0  0  0  0
  -49.5740   57.8373   59.4207 C   0  0  0  0  0  0  0  0  0  0  0  0
  -50.1801   57.9882   60.8026 C   0  0  0  0  0  0  0  0  0  0  0  0
  -49.7281   59.2532   61.5053 C   0  0  0  0  0  0  0  0  0  0  0  0
  -50.6631   59.6842   62.6235 C   0  0  0  0  0  0  0  0  0  0  0  0
  -50.4845   58.9078   63.9167 C   0  0  0  0  0  0  0  0  0  0  0  0
  -49.7298   59.6637   64.9993 C   0  0  0  0  0  0  0  0  0  0  0  0
  -48.2167   59.6346   64.8322 C   0  0  0  0  0  0  0  0  0  0  0  0
  -47.6048   58.2691   65.1002 C   0  0  0  0  0  0  0  0  0  0  0  0
  -45.1383   57.9745   64.6466 C   0  0  0  0  0  0  0  0  0  0  0  0
  -46.1962   58.3116   65.6643 C   0  0  0  0  0  0  0  0  0  0  0  0
 43 45  1  0  0  0
 43 42  1  0  0  0
 43 46  1  0  0  0
 64 65  1  0  0  0
 44 45  2  0  0  0
 65 63  1  0  0  0
  2  1  1  0  0  0
  2  4  1  0  0  0
  2  5  1  0  0  0
  3  4  2  0  0  0
 63 62  1  0  0  0
  6  8  1  0  0  0
  6 11  2  0  0  0
  7 10  1  0  0  0
  7 11  1  0  0  0
 62 61  1  0  0  0
 26 28  1  0  0  0
 26 32  1  0  0  0
 26 29  1  0  0  0
 12 18  1  0  0  0
 12 19  1  0  0  0
 61 60  1  0  0  0
 30 36  1  0  0  0
 30 37  1  0  0  0
 30 38  1  0  0  0
 20 21  2  0  0  0
 60 59  1  0  0  0
 22 21  1  0  0  0
 22 23  1  0  0  0
 59 58  1  0  0  0
 27 28  2  0  0  0
 58 57  1  0  0  0
 31 37  2  0  0  0
 57 56  1  0  0  0
 56 55  1  0  0  0
 55 54  1  0  0  0
 54 53  1  0  0  0
 53 52  1  0  0  0
 52 51  1  0  0  0
 51 50  1  0  0  0
 50 49  1  0  0  0
 49 47  1  0  0  0
 47 48  2  0  0  0
 48 45  1  0  0  0
 42 41  1  0  0  0
 41 40  1  0  0  0
 40 39  1  0  0  0
 39  1  1  0  0  0
  1 21  1  0  0  0
  8  4  1  0  0  0
  8  9  1  0  0  0
  8 10  1  0  0  0
 11 13  1  0  0  0
 13 14  2  0  0  0
 13 18  1  0  0  0
 14 15  1  0  0  0
 15 16  2  0  0  0
 16 17  1  0  0  0
 17 18  2  0  0  0
 23 24  1  0  0  0
 23 25  1  0  0  0
 25 28  1  0  0  0
 32 33  1  0  0  0
 32 37  1  0  0  0
 33 34  1  0  0  0
 34 35  1  0  0  0
 35 36  1  0  0  0
M  END
> <minimizedAffinity>
-8.08347

> <CNNscore>
0.2138753533

> <CNNaffinity>
7.4565110207

> <CNN_VS>
1.5947638750

> <CNNaffinity_variance>
1.7199684381

$$$$
/media/chris/experiments/cd1a-new-docking/inputs/ligands/7ryo_ligand.pdb


 65 67  0  0  0  0  0  0  0  0999 V2000
  -38.9892   59.4393   64.8506 C   0  0  0  0  0  0  0  0  0  0  0  0
  -38.1357   58.8547   63.8298 N   0  0  0  0  0  0  0  0  0  0  0  0
  -38.6876   60.3890   62.2823 O   0  0  0  0  0  0  0  0  0  0  0  0
  -38.0596   59.3935   62.6105 C   0  0  0  0  0  0  0  0  0  0  0  0
  -37.6071   58.0512   64.0400 H   0  0  0  0  0  0  0  0  0  0  0  0
  -35.7507   59.0956   61.8030 N   0  0  0  0  0  0  0  0  0  0  0  0
  -35.7157   56.8418   61.7576 O   0  0  0  0  0  0  0  0  0  0  0  0
  -37.1513   58.6995   61.5822 C   0  0  0  0  0  0  0  0  0  0  0  0
  -37.5743   59.1292   60.1806 C   0  0  0  0  0  0  0  0  0  0  0  0
  -37.1279   57.1705   61.7242 C   0  0  0  0  0  0  0  0  0  0  0  0
  -35.0683   58.0293   61.8852 C   0  0  0  0  0  0  0  0  0  0  0  0
  -33.7500   59.3034   64.1038 O   0  0  0  0  0  0  0  0  0  0  0  0
  -33.6221   57.9435   62.1015 C   0  0  0  0  0  0  0  0  0  0  0  0
  -32.8426   57.1069   61.3016 C   0  0  0  0  0  0  0  0  0  0  0  0
  -31.5305   56.8298   61.6451 C   0  0  0  0  0  0  0  0  0  0  0  0
  -30.9765   57.3768   62.7820 C   0  0  0  0  0  0  0  0  0  0  0  0
  -31.7290   58.2055   63.5942 C   0  0  0  0  0  0  0  0  0  0  0  0
  -33.0502   58.4941   63.2668 C   0  0  0  0  0  0  0  0  0  0  0  0
  -34.6418   59.5171   63.9118 H   0  0  0  0  0  0  0  0  0  0  0  0
  -38.6053   60.6653   66.8977 O   0  0  0  0  0  0  0  0  0  0  0  0
  -38.1725   60.2166   65.8723 C   0  0  0  0  0  0  0  0  0  0  0  0
  -36.9009   60.3499   65.4569 O   0  0  0  0  0  0  0  0  0  0  0  0
  -36.3848   61.7038   65.2329 C   0  0  0  0  0  0  0  0  0  0  0  0
  -35.9582   61.8091   63.7906 C   0  0  0  0  0  0  0  0  0  0  0  0
  -35.2206   61.8599   66.1919 C   0  0  0  0  0  0  0  0  0  0  0  0
  -34.4557   64.0766   66.7778 N   0  0  0  0  0  0  0  0  0  0  0  0
  -36.1719   63.1959   67.9357 O   0  0  0  0  0  0  0  0  0  0  0  0
  -35.3263   63.1004   67.0506 C   0  0  0  0  0  0  0  0  0  0  0  0
  -34.4820   64.9036   67.3113 H   0  0  0  0  0  0  0  0  0  0  0  0
  -31.0572   64.2341   65.5453 N   0  0  0  0  0  0  0  0  0  0  0  0
  -32.1558   65.3418   67.1567 O   0  0  0  0  0  0  0  0  0  0  0  0
  -33.4714   63.9523   65.7170 C   0  0  0  0  0  0  0  0  0  0  0  0
  -33.9530   64.6903   64.4626 C   0  0  0  0  0  0  0  0  0  0  0  0
  -33.2403   64.2556   63.1866 C   0  0  0  0  0  0  0  0  0  0  0  0
  -31.7443   64.4986   63.1607 C   0  0  0  0  0  0  0  0  0  0  0  0
  -30.9689   63.7026   64.1895 C   0  0  0  0  0  0  0  0  0  0  0  0
  -32.1697   64.5703   66.2020 C   0  0  0  0  0  0  0  0  0  0  0  0
  -30.2071   64.3578   66.0263 H   0  0  0  0  0  0  0  0  0  0  0  0
  -39.8476   58.3739   65.5340 C   0  0  0  0  0  0  0  0  0  0  0  0
  -41.2530   58.2968   64.9473 C   0  0  0  0  0  0  0  0  0  0  0  0
  -41.4994   57.0279   64.1524 C   0  0  0  0  0  0  0  0  0  0  0  0
  -42.9529   56.6223   64.0422 C   0  0  0  0  0  0  0  0  0  0  0  0
  -43.6206   56.7179   65.3307 N   0  0  0  0  0  0  0  0  0  0  0  0
  -45.1758   58.1854   64.6087 O   0  0  0  0  0  0  0  0  0  0  0  0
  -44.6904   57.4974   65.5217 C   0  0  0  0  0  0  0  0  0  0  0  0
  -43.2738   56.1915   66.0869 H   0  0  0  0  0  0  0  0  0  0  0  0
  -46.4488   57.7306   67.2616 C   0  0  0  0  0  0  0  0  0  0  0  0
  -45.1847   57.5264   66.9164 C   0  0  0  0  0  0  0  0  0  0  0  0
  -47.6219   57.9507   66.3583 C   0  0  0  0  0  0  0  0  0  0  0  0
  -48.0147   59.4215   66.2920 C   0  0  0  0  0  0  0  0  0  0  0  0
  -49.5123   59.6521   66.1853 C   0  0  0  0  0  0  0  0  0  0  0  0
  -50.2557   58.5152   65.5040 C   0  0  0  0  0  0  0  0  0  0  0  0
  -50.6997   58.8191   64.0854 C   0  0  0  0  0  0  0  0  0  0  0  0
  -49.5565   58.8371   63.0842 C   0  0  0  0  0  0  0  0  0  0  0  0
  -49.6917   59.9186   62.0302 C   0  0  0  0  0  0  0  0  0  0  0  0
  -49.3751   59.4287   60.6315 C   0  0  0  0  0  0  0  0  0  0  0  0
  -50.3536   58.4037   60.0910 C   0  0  0  0  0  0  0  0  0  0  0  0
  -49.8821   56.9779   60.2983 C   0  0  0  0  0  0  0  0  0  0  0  0
  -48.4280   56.7653   59.9100 C   0  0  0  0  0  0  0  0  0  0  0  0
  -48.1536   55.4329   59.2347 C   0  0  0  0  0  0  0  0  0  0  0  0
  -46.9427   55.4372   58.3145 C   0  0  0  0  0  0  0  0  0  0  0  0
  -47.2896   55.5726   56.8381 C   0  0  0  0  0  0  0  0  0  0  0  0
  -47.2828   57.0104   56.3446 C   0  0  0  0  0  0  0  0  0  0  0  0
  -46.8586   59.0016   57.8384 C   0  0  0  0  0  0  0  0  0  0  0  0
  -46.2493   57.8991   57.0127 C   0  0  0  0  0  0  0  0  0  0  0  0
 43 45  1  0  0  0
 43 42  1  0  0  0
 43 46  1  0  0  0
 64 65  1  0  0  0
 44 45  2  0  0  0
 65 63  1  0  0  0
  2  1  1  0  0  0
  2  4  1  0  0  0
  2  5  1  0  0  0
  3  4  2  0  0  0
 63 62  1  0  0  0
  6  8  1  0  0  0
  6 11  2  0  0  0
  7 10  1  0  0  0
  7 11  1  0  0  0
 62 61  1  0  0  0
 26 28  1  0  0  0
 26 32  1  0  0  0
 26 29  1  0  0  0
 12 18  1  0  0  0
 12 19  1  0  0  0
 61 60  1  0  0  0
 30 36  1  0  0  0
 30 37  1  0  0  0
 30 38  1  0  0  0
 20 21  2  0  0  0
 60 59  1  0  0  0
 22 21  1  0  0  0
 22 23  1  0  0  0
 59 58  1  0  0  0
 27 28  2  0  0  0
 58 57  1  0  0  0
 31 37  2  0  0  0
 57 56  1  0  0  0
 56 55  1  0  0  0
 55 54  1  0  0  0
 54 53  1  0  0  0
 53 52  1  0  0  0
 52 51  1  0  0  0
 51 50  1  0  0  0
 50 49  1  0  0  0
 49 47  1  0  0  0
 47 48  2  0  0  0
 48 45  1  0  0  0
 42 41  1  0  0  0
 41 40  1  0  0  0
 40 39  1  0  0  0
 39  1  1  0  0  0
  1 21  1  0  0  0
  8  4  1  0  0  0
  8  9  1  0  0  0
  8 10  1  0  0  0
 11 13  1  0  0  0
 13 14  2  0  0  0
 13 18  1  0  0  0
 14 15  1  0  0  0
 15 16  2  0  0  0
 16 17  1  0  0  0
 17 18  2  0  0  0
 23 24  1  0  0  0
 23 25  1  0  0  0
 25 28  1  0  0  0
 32 33  1  0  0  0
 32 37  1  0  0  0
 33 34  1  0  0  0
 34 35  1  0  0  0
 35 36  1  0  0  0
M  END
> <minimizedAffinity>
-10.03041

> <CNNscore>
0.2019545585

> <CNNaffinity>
7.0233430862

> <CNN_VS>
1.4183961153

> <CNNaffinity_variance>
1.3104006052

$$$$
/media/chris/experiments/cd1a-new-docking/inputs/ligands/7ryo_ligand.pdb


 65 67  0  0  0  0  0  0  0  0999 V2000
  -38.8550   60.3324   64.7481 C   0  0  0  0  0  0  0  0  0  0  0  0
  -38.2572   59.4485   63.7613 N   0  0  0  0  0  0  0  0  0  0  0  0
  -37.5133   61.1407   62.4819 O   0  0  0  0  0  0  0  0  0  0  0  0
  -37.6262   59.9424   62.6933 C   0  0  0  0  0  0  0  0  0  0  0  0
  -38.3184   58.4734   63.8818 H   0  0  0  0  0  0  0  0  0  0  0  0
  -35.5865   59.1285   61.5756 N   0  0  0  0  0  0  0  0  0  0  0  0
  -35.8554   56.9273   61.9824 O   0  0  0  0  0  0  0  0  0  0  0  0
  -37.0423   58.9387   61.6855 C   0  0  0  0  0  0  0  0  0  0  0  0
  -37.6797   59.1821   60.3208 C   0  0  0  0  0  0  0  0  0  0  0  0
  -37.1901   57.4755   62.1281 C   0  0  0  0  0  0  0  0  0  0  0  0
  -35.0465   57.9943   61.7527 C   0  0  0  0  0  0  0  0  0  0  0  0
  -33.0509   60.0109   62.2370 O   0  0  0  0  0  0  0  0  0  0  0  0
  -33.6101   57.7080   61.7282 C   0  0  0  0  0  0  0  0  0  0  0  0
  -33.1600   56.3927   61.6069 C   0  0  0  0  0  0  0  0  0  0  0  0
  -31.8286   56.0832   61.8258 C   0  0  0  0  0  0  0  0  0  0  0  0
  -30.9296   57.0704   62.1664 C   0  0  0  0  0  0  0  0  0  0  0  0
  -31.3510   58.3811   62.2975 C   0  0  0  0  0  0  0  0  0  0  0  0
  -32.6856   58.7116   62.0836 C   0  0  0  0  0  0  0  0  0  0  0  0
  -33.9419   60.2663   62.1003 H   0  0  0  0  0  0  0  0  0  0  0  0
  -37.5812   59.5752   66.6573 O   0  0  0  0  0  0  0  0  0  0  0  0
  -37.9584   60.4823   65.9681 C   0  0  0  0  0  0  0  0  0  0  0  0
  -37.6633   61.7766   66.1803 O   0  0  0  0  0  0  0  0  0  0  0  0
  -36.2529   62.1492   66.3277 C   0  0  0  0  0  0  0  0  0  0  0  0
  -36.1824   63.3776   67.1993 C   0  0  0  0  0  0  0  0  0  0  0  0
  -35.7512   62.4104   64.9208 C   0  0  0  0  0  0  0  0  0  0  0  0
  -33.5199   62.0895   64.0490 N   0  0  0  0  0  0  0  0  0  0  0  0
  -34.7129   60.2729   64.6308 O   0  0  0  0  0  0  0  0  0  0  0  0
  -34.6189   61.4920   64.5186 C   0  0  0  0  0  0  0  0  0  0  0  0
  -32.7557   61.5345   63.7707 H   0  0  0  0  0  0  0  0  0  0  0  0
  -33.2428   65.1261   62.1007 N   0  0  0  0  0  0  0  0  0  0  0  0
  -32.5307   63.0247   61.7729 O   0  0  0  0  0  0  0  0  0  0  0  0
  -33.4205   63.5342   63.9369 C   0  0  0  0  0  0  0  0  0  0  0  0
  -32.3555   64.0653   64.9032 C   0  0  0  0  0  0  0  0  0  0  0  0
  -32.4838   65.5566   65.1941 C   0  0  0  0  0  0  0  0  0  0  0  0
  -32.3287   66.4702   63.9946 C   0  0  0  0  0  0  0  0  0  0  0  0
  -33.4078   66.3044   62.9451 C   0  0  0  0  0  0  0  0  0  0  0  0
  -33.0255   63.8737   62.5085 C   0  0  0  0  0  0  0  0  0  0  0  0
  -33.2974   65.2698   61.1283 H   0  0  0  0  0  0  0  0  0  0  0  0
  -40.2500   59.8522   65.1513 C   0  0  0  0  0  0  0  0  0  0  0  0
  -41.3570   60.6183   64.4350 C   0  0  0  0  0  0  0  0  0  0  0  0
  -40.9399   61.1332   63.0699 C   0  0  0  0  0  0  0  0  0  0  0  0
  -41.0367   60.1167   61.9533 C   0  0  0  0  0  0  0  0  0  0  0  0
  -41.8490   58.9784   62.3528 N   0  0  0  0  0  0  0  0  0  0  0  0
  -40.2689   57.4517   61.8368 O   0  0  0  0  0  0  0  0  0  0  0  0
  -41.4033   57.7205   62.2650 C   0  0  0  0  0  0  0  0  0  0  0  0
  -42.7564   59.1391   62.6992 H   0  0  0  0  0  0  0  0  0  0  0  0
  -42.5104   56.1634   63.8535 C   0  0  0  0  0  0  0  0  0  0  0  0
  -42.3980   56.6917   62.6423 C   0  0  0  0  0  0  0  0  0  0  0  0
  -41.7040   56.4855   65.0727 C   0  0  0  0  0  0  0  0  0  0  0  0
  -42.5015   57.3112   66.0747 C   0  0  0  0  0  0  0  0  0  0  0  0
  -44.0066   57.1867   65.9120 C   0  0  0  0  0  0  0  0  0  0  0  0
  -44.7791   58.3672   66.4770 C   0  0  0  0  0  0  0  0  0  0  0  0
  -46.1930   58.0370   66.9172 C   0  0  0  0  0  0  0  0  0  0  0  0
  -46.9264   57.1158   65.9564 C   0  0  0  0  0  0  0  0  0  0  0  0
  -48.4359   57.1970   66.0730 C   0  0  0  0  0  0  0  0  0  0  0  0
  -49.0756   58.0040   64.9612 C   0  0  0  0  0  0  0  0  0  0  0  0
  -50.3316   58.7486   65.3713 C   0  0  0  0  0  0  0  0  0  0  0  0
  -50.7100   59.8423   64.3921 C   0  0  0  0  0  0  0  0  0  0  0  0
  -51.1721   59.3080   63.0462 C   0  0  0  0  0  0  0  0  0  0  0  0
  -50.1448   59.4480   61.9362 C   0  0  0  0  0  0  0  0  0  0  0  0
  -50.1069   58.2746   60.9694 C   0  0  0  0  0  0  0  0  0  0  0  0
  -48.7502   58.0595   60.3125 C   0  0  0  0  0  0  0  0  0  0  0  0
  -48.8439   57.5366   58.8883 C   0  0  0  0  0  0  0  0  0  0  0  0
  -46.5639   58.1287   57.9788 C   0  0  0  0  0  0  0  0  0  0  0  0
  -47.5326   57.0266   58.3186 C   0  0  0  0  0  0  0  0  0  0  0  0
 43 45  1  0  0  0
 43 42  1  0  0  0
 43 46  1  0  0  0
 64 65  1  0  0  0
 44 45  2  0  0  0
 65 63  1  0  0  0
  2  1  1  0  0  0
  2  4  1  0  0  0
  2  5  1  0  0  0
  3  4  2  0  0  0
 63 62  1  0  0  0
  6  8  1  0  0  0
  6 11  2  0  0  0
  7 10  1  0  0  0
  7 11  1  0  0  0
 62 61  1  0  0  0
 26 28  1  0  0  0
 26 32  1  0  0  0
 26 29  1  0  0  0
 12 18  1  0  0  0
 12 19  1  0  0  0
 61 60  1  0  0  0
 30 36  1  0  0  0
 30 37  1  0  0  0
 30 38  1  0  0  0
 20 21  2  0  0  0
 60 59  1  0  0  0
 22 21  1  0  0  0
 22 23  1  0  0  0
 59 58  1  0  0  0
 27 28  2  0  0  0
 58 57  1  0  0  0
 31 37  2  0  0  0
 57 56  1  0  0  0
 56 55  1  0  0  0
 55 54  1  0  0  0
 54 53  1  0  0  0
 53 52  1  0  0  0
 52 51  1  0  0  0
 51 50  1  0  0  0
 50 49  1  0  0  0
 49 47  1  0  0  0
 47 48  2  0  0  0
 48 45  1  0  0  0
 42 41  1  0  0  0
 41 40  1  0  0  0
 40 39  1  0  0  0
 39  1  1  0  0  0
  1 21  1  0  0  0
  8  4  1  0  0  0
  8  9  1  0  0  0
  8 10  1  0  0  0
 11 13  1  0  0  0
 13 14  2  0  0  0
 13 18  1  0  0  0
 14 15  1  0  0  0
 15 16  2  0  0  0
 16 17  1  0  0  0
 17 18  2  0  0  0
 23 24  1  0  0  0
 23 25  1  0  0  0
 25 28  1  0  0  0
 32 33  1  0  0  0
 32 37  1  0  0  0
 33 34  1  0  0  0
 34 35  1  0  0  0
 35 36  1  0  0  0
M  END
> <minimizedAffinity>
-9.47690

> <CNNscore>
0.1923068315

> <CNNaffinity>
7.5665397644

> <CNN_VS>
1.4550973177

> <CNNaffinity_variance>
1.3575410843

$$$$
/media/chris/experiments/cd1a-new-docking/inputs/ligands/7ryo_ligand.pdb


 65 67  0  0  0  0  0  0  0  0999 V2000
  -41.4206   60.5188   64.2437 C   0  0  0  0  0  0  0  0  0  0  0  0
  -42.4205   59.6274   64.8075 N   0  0  0  0  0  0  0  0  0  0  0  0
  -40.9158   58.0508   65.3586 O   0  0  0  0  0  0  0  0  0  0  0  0
  -42.0711   58.4476   65.3258 C   0  0  0  0  0  0  0  0  0  0  0  0
  -43.3673   59.8970   64.8073 H   0  0  0  0  0  0  0  0  0  0  0  0
  -44.4377   58.3315   66.0024 N   0  0  0  0  0  0  0  0  0  0  0  0
  -45.0147   56.4917   64.8339 O   0  0  0  0  0  0  0  0  0  0  0  0
  -43.1932   57.5546   65.8804 C   0  0  0  0  0  0  0  0  0  0  0  0
  -42.7851   57.0495   67.2611 C   0  0  0  0  0  0  0  0  0  0  0  0
  -43.5715   56.3989   64.9423 C   0  0  0  0  0  0  0  0  0  0  0  0
  -45.3475   57.6773   65.4077 C   0  0  0  0  0  0  0  0  0  0  0  0
  -47.5209   56.0015   66.2747 O   0  0  0  0  0  0  0  0  0  0  0  0
  -46.7520   58.0729   65.2781 C   0  0  0  0  0  0  0  0  0  0  0  0
  -47.0807   59.3603   64.8517 C   0  0  0  0  0  0  0  0  0  0  0  0
  -48.3806   59.8245   64.9570 C   0  0  0  0  0  0  0  0  0  0  0  0
  -49.3678   59.0209   65.4846 C   0  0  0  0  0  0  0  0  0  0  0  0
  -49.0674   57.7426   65.9186 C   0  0  0  0  0  0  0  0  0  0  0  0
  -47.7663   57.2590   65.8230 C   0  0  0  0  0  0  0  0  0  0  0  0
  -46.6554   55.6463   66.2245 H   0  0  0  0  0  0  0  0  0  0  0  0
  -40.7712   61.3425   66.4210 O   0  0  0  0  0  0  0  0  0  0  0  0
  -40.4551   61.0097   65.3122 C   0  0  0  0  0  0  0  0  0  0  0  0
  -39.1987   61.0391   64.8350 O   0  0  0  0  0  0  0  0  0  0  0  0
  -38.2280   60.0869   65.3835 C   0  0  0  0  0  0  0  0  0  0  0  0
  -37.7720   60.6041   66.7244 C   0  0  0  0  0  0  0  0  0  0  0  0
  -37.0987   60.0287   64.3732 C   0  0  0  0  0  0  0  0  0  0  0  0
  -34.7774   59.9122   65.0365 N   0  0  0  0  0  0  0  0  0  0  0  0
  -36.0009   58.0249   65.0877 O   0  0  0  0  0  0  0  0  0  0  0  0
  -35.9118   59.2283   64.8611 C   0  0  0  0  0  0  0  0  0  0  0  0
  -33.9752   59.4354   65.3501 H   0  0  0  0  0  0  0  0  0  0  0  0
  -33.7288   62.7335   63.0280 N   0  0  0  0  0  0  0  0  0  0  0  0
  -32.8639   60.6933   63.3745 O   0  0  0  0  0  0  0  0  0  0  0  0
  -34.6939   61.3389   64.7776 C   0  0  0  0  0  0  0  0  0  0  0  0
  -34.2375   62.0777   66.0408 C   0  0  0  0  0  0  0  0  0  0  0  0
  -34.5474   63.5706   66.0212 C   0  0  0  0  0  0  0  0  0  0  0  0
  -33.8775   64.3606   64.9146 C   0  0  0  0  0  0  0  0  0  0  0  0
  -34.3214   63.9727   63.5196 C   0  0  0  0  0  0  0  0  0  0  0  0
  -33.6818   61.5613   63.6650 C   0  0  0  0  0  0  0  0  0  0  0  0
  -33.3207   62.7651   62.1326 H   0  0  0  0  0  0  0  0  0  0  0  0
  -42.0725   61.6948   63.5148 C   0  0  0  0  0  0  0  0  0  0  0  0
  -41.7693   61.6914   62.0204 C   0  0  0  0  0  0  0  0  0  0  0  0
  -40.9585   60.4873   61.5783 C   0  0  0  0  0  0  0  0  0  0  0  0
  -39.5395   60.8000   61.1562 C   0  0  0  0  0  0  0  0  0  0  0  0
  -38.6440   59.7014   61.4818 N   0  0  0  0  0  0  0  0  0  0  0  0
  -37.8951   59.4590   59.3666 O   0  0  0  0  0  0  0  0  0  0  0  0
  -37.8819   59.1068   60.5575 C   0  0  0  0  0  0  0  0  0  0  0  0
  -38.5972   59.3852   62.4130 H   0  0  0  0  0  0  0  0  0  0  0  0
  -37.4897   57.1447   62.0306 C   0  0  0  0  0  0  0  0  0  0  0  0
  -37.0956   57.9580   61.0601 C   0  0  0  0  0  0  0  0  0  0  0  0
  -38.7748   57.1868   62.7970 C   0  0  0  0  0  0  0  0  0  0  0  0
  -39.8693   56.3813   62.1079 C   0  0  0  0  0  0  0  0  0  0  0  0
  -41.1828   57.1302   61.9623 C   0  0  0  0  0  0  0  0  0  0  0  0
  -41.7977   57.0161   60.5774 C   0  0  0  0  0  0  0  0  0  0  0  0
  -40.9832   57.6673   59.4753 C   0  0  0  0  0  0  0  0  0  0  0  0
  -41.6893   58.8382   58.8120 C   0  0  0  0  0  0  0  0  0  0  0  0
  -41.8140   58.6967   57.3077 C   0  0  0  0  0  0  0  0  0  0  0  0
  -43.2286   58.9060   56.8060 C   0  0  0  0  0  0  0  0  0  0  0  0
  -44.3018   58.2971   57.6877 C   0  0  0  0  0  0  0  0  0  0  0  0
  -45.6265   58.1326   56.9690 C   0  0  0  0  0  0  0  0  0  0  0  0
  -46.8293   58.3610   57.8698 C   0  0  0  0  0  0  0  0  0  0  0  0
  -46.9415   57.3739   59.0187 C   0  0  0  0  0  0  0  0  0  0  0  0
  -48.2721   56.6402   59.0834 C   0  0  0  0  0  0  0  0  0  0  0  0
  -49.4495   57.5288   59.4609 C   0  0  0  0  0  0  0  0  0  0  0  0
  -50.0546   57.1888   60.8133 C   0  0  0  0  0  0  0  0  0  0  0  0
  -49.7199   59.6051   61.4658 C   0  0  0  0  0  0  0  0  0  0  0  0
  -49.7103   58.1691   61.9199 C   0  0  0  0  0  0  0  0  0  0  0  0
 43 45  1  0  0  0
 43 42  1  0  0  0
 43 46  1  0  0  0
 64 65  1  0  0  0
 44 45  2  0  0  0
 65 63  1  0  0  0
  2  1  1  0  0  0
  2  4  1  0  0  0
  2  5  1  0  0  0
  3  4  2  0  0  0
 63 62  1  0  0  0
  6  8  1  0  0  0
  6 11  2  0  0  0
  7 10  1  0  0  0
  7 11  1  0  0  0
 62 61  1  0  0  0
 26 28  1  0  0  0
 26 32  1  0  0  0
 26 29  1  0  0  0
 12 18  1  0  0  0
 12 19  1  0  0  0
 61 60  1  0  0  0
 30 36  1  0  0  0
 30 37  1  0  0  0
 30 38  1  0  0  0
 20 21  2  0  0  0
 60 59  1  0  0  0
 22 21  1  0  0  0
 22 23  1  0  0  0
 59 58  1  0  0  0
 27 28  2  0  0  0
 58 57  1  0  0  0
 31 37  2  0  0  0
 57 56  1  0  0  0
 56 55  1  0  0  0
 55 54  1  0  0  0
 54 53  1  0  0  0
 53 52  1  0  0  0
 52 51  1  0  0  0
 51 50  1  0  0  0
 50 49  1  0  0  0
 49 47  1  0  0  0
 47 48  2  0  0  0
 48 45  1  0  0  0
 42 41  1  0  0  0
 41 40  1  0  0  0
 40 39  1  0  0  0
 39  1  1  0  0  0
  1 21  1  0  0  0
  8  4  1  0  0  0
  8  9  1  0  0  0
  8 10  1  0  0  0
 11 13  1  0  0  0
 13 14  2  0  0  0
 13 18  1  0  0  0
 14 15  1  0  0  0
 15 16  2  0  0  0
 16 17  1  0  0  0
 17 18  2  0  0  0
 23 24  1  0  0  0
 23 25  1  0  0  0
 25 28  1  0  0  0
 32 33  1  0  0  0
 32 37  1  0  0  0
 33 34  1  0  0  0
 34 35  1  0  0  0
 35 36  1  0  0  0
M  END
> <minimizedAffinity>
-7.91719

> <CNNscore>
0.1754585057

> <CNNaffinity>
7.8100228310

> <CNN_VS>
1.3703349829

> <CNNaffinity_variance>
2.4088532925

$$$$
/media/chris/experiments/cd1a-new-docking/inputs/ligands/7ryo_ligand.pdb


 65 67  0  0  0  0  0  0  0  0999 V2000
  -39.1990   59.7944   65.1166 C   0  0  0  0  0  0  0  0  0  0  0  0
  -40.3807   59.7538   65.9618 N   0  0  0  0  0  0  0  0  0  0  0  0
  -40.8840   57.6344   65.4066 O   0  0  0  0  0  0  0  0  0  0  0  0
  -41.1338   58.6536   66.0327 C   0  0  0  0  0  0  0  0  0  0  0  0
  -40.6289   60.5476   66.4885 H   0  0  0  0  0  0  0  0  0  0  0  0
  -43.5778   58.9574   66.1155 N   0  0  0  0  0  0  0  0  0  0  0  0
  -44.0861   57.1307   67.3353 O   0  0  0  0  0  0  0  0  0  0  0  0
  -42.3798   58.7020   66.9323 C   0  0  0  0  0  0  0  0  0  0  0  0
  -42.2160   59.8341   67.9419 C   0  0  0  0  0  0  0  0  0  0  0  0
  -42.6842   57.3646   67.6234 C   0  0  0  0  0  0  0  0  0  0  0  0
  -44.4269   58.0604   66.4052 C   0  0  0  0  0  0  0  0  0  0  0  0
  -46.5760   56.7312   67.7830 O   0  0  0  0  0  0  0  0  0  0  0  0
  -45.7686   57.9239   65.8334 C   0  0  0  0  0  0  0  0  0  0  0  0
  -46.0906   58.5711   64.6398 C   0  0  0  0  0  0  0  0  0  0  0  0
  -47.4066   58.6527   64.2181 C   0  0  0  0  0  0  0  0  0  0  0  0
  -48.4166   58.0956   64.9718 C   0  0  0  0  0  0  0  0  0  0  0  0
  -48.1247   57.4526   66.1609 C   0  0  0  0  0  0  0  0  0  0  0  0
  -46.8084   57.3621   66.6026 C   0  0  0  0  0  0  0  0  0  0  0  0
  -45.7008   56.6534   68.1082 H   0  0  0  0  0  0  0  0  0  0  0  0
  -37.8529   61.5146   66.1509 O   0  0  0  0  0  0  0  0  0  0  0  0
  -38.0027   60.3577   65.8691 C   0  0  0  0  0  0  0  0  0  0  0  0
  -37.1244   59.3816   66.1572 O   0  0  0  0  0  0  0  0  0  0  0  0
  -36.4368   58.7193   65.0444 C   0  0  0  0  0  0  0  0  0  0  0  0
  -36.4930   57.2310   65.2792 C   0  0  0  0  0  0  0  0  0  0  0  0
  -35.0179   59.2538   65.0662 C   0  0  0  0  0  0  0  0  0  0  0  0
  -33.8685   60.3328   63.2341 N   0  0  0  0  0  0  0  0  0  0  0  0
  -34.2249   58.1145   63.1158 O   0  0  0  0  0  0  0  0  0  0  0  0
  -34.3389   59.1791   63.7168 C   0  0  0  0  0  0  0  0  0  0  0  0
  -33.4206   60.3371   62.3573 H   0  0  0  0  0  0  0  0  0  0  0  0
  -35.8500   63.0199   64.6292 N   0  0  0  0  0  0  0  0  0  0  0  0
  -36.1072   61.6978   62.8357 O   0  0  0  0  0  0  0  0  0  0  0  0
  -33.9991   61.5806   63.9657 C   0  0  0  0  0  0  0  0  0  0  0  0
  -32.9895   62.6075   63.4401 C   0  0  0  0  0  0  0  0  0  0  0  0
  -32.7299   63.7586   64.4059 C   0  0  0  0  0  0  0  0  0  0  0  0
  -33.9351   64.6170   64.7355 C   0  0  0  0  0  0  0  0  0  0  0  0
  -35.0344   63.8842   65.4756 C   0  0  0  0  0  0  0  0  0  0  0  0
  -35.4113   62.1056   63.7611 C   0  0  0  0  0  0  0  0  0  0  0  0
  -36.8262   63.1218   64.7062 H   0  0  0  0  0  0  0  0  0  0  0  0
  -39.4600   60.5863   63.8344 C   0  0  0  0  0  0  0  0  0  0  0  0
  -40.7474   61.4002   63.9070 C   0  0  0  0  0  0  0  0  0  0  0  0
  -41.7786   60.9798   62.8762 C   0  0  0  0  0  0  0  0  0  0  0  0
  -42.5082   59.6941   63.1986 C   0  0  0  0  0  0  0  0  0  0  0  0
  -41.9159   58.5673   62.4952 N   0  0  0  0  0  0  0  0  0  0  0  0
  -43.3331   57.0498   63.3796 O   0  0  0  0  0  0  0  0  0  0  0  0
  -42.3742   57.3190   62.6376 C   0  0  0  0  0  0  0  0  0  0  0  0
  -41.1527   58.7289   61.8946 H   0  0  0  0  0  0  0  0  0  0  0  0
  -40.2720   56.2262   61.8892 C   0  0  0  0  0  0  0  0  0  0  0  0
  -41.5963   56.2948   61.9054 C   0  0  0  0  0  0  0  0  0  0  0  0
  -39.2990   57.1194   62.5935 C   0  0  0  0  0  0  0  0  0  0  0  0
  -37.9311   57.1038   61.9225 C   0  0  0  0  0  0  0  0  0  0  0  0
  -37.3044   58.4797   61.7753 C   0  0  0  0  0  0  0  0  0  0  0  0
  -36.8579   58.7961   60.3577 C   0  0  0  0  0  0  0  0  0  0  0  0
  -37.9429   59.3866   59.4769 C   0  0  0  0  0  0  0  0  0  0  0  0
  -39.0161   60.1301   60.2547 C   0  0  0  0  0  0  0  0  0  0  0  0
  -40.4118   59.9402   59.6938 C   0  0  0  0  0  0  0  0  0  0  0  0
  -40.6015   58.5999   59.0124 C   0  0  0  0  0  0  0  0  0  0  0  0
  -42.0028   58.3589   58.4849 C   0  0  0  0  0  0  0  0  0  0  0  0
  -42.3007   59.1541   57.2291 C   0  0  0  0  0  0  0  0  0  0  0  0
  -43.6108   58.7600   56.5669 C   0  0  0  0  0  0  0  0  0  0  0  0
  -44.6969   58.3374   57.5410 C   0  0  0  0  0  0  0  0  0  0  0  0
  -45.9510   57.7890   56.8780 C   0  0  0  0  0  0  0  0  0  0  0  0
  -46.8635   57.0201   57.8237 C   0  0  0  0  0  0  0  0  0  0  0  0
  -47.2480   57.8069   59.0662 C   0  0  0  0  0  0  0  0  0  0  0  0
  -49.2790   58.5939   60.3437 C   0  0  0  0  0  0  0  0  0  0  0  0
  -48.6029   57.4431   59.6459 C   0  0  0  0  0  0  0  0  0  0  0  0
 43 45  1  0  0  0
 43 42  1  0  0  0
 43 46  1  0  0  0
 64 65  1  0  0  0
 44 45  2  0  0  0
 65 63  1  0  0  0
  2  1  1  0  0  0
  2  4  1  0  0  0
  2  5  1  0  0  0
  3  4  2  0  0  0
 63 62  1  0  0  0
  6  8  1  0  0  0
  6 11  2  0  0  0
  7 10  1  0  0  0
  7 11  1  0  0  0
 62 61  1  0  0  0
 26 28  1  0  0  0
 26 32  1  0  0  0
 26 29  1  0  0  0
 12 18  1  0  0  0
 12 19  1  0  0  0
 61 60  1  0  0  0
 30 36  1  0  0  0
 30 37  1  0  0  0
 30 38  1  0  0  0
 20 21  2  0  0  0
 60 59  1  0  0  0
 22 21  1  0  0  0
 22 23  1  0  0  0
 59 58  1  0  0  0
 27 28  2  0  0  0
 58 57  1  0  0  0
 31 37  2  0  0  0
 57 56  1  0  0  0
 56 55  1  0  0  0
 55 54  1  0  0  0
 54 53  1  0  0  0
 53 52  1  0  0  0
 52 51  1  0  0  0
 51 50  1  0  0  0
 50 49  1  0  0  0
 49 47  1  0  0  0
 47 48  2  0  0  0
 48 45  1  0  0  0
 42 41  1  0  0  0
 41 40  1  0  0  0
 40 39  1  0  0  0
 39  1  1  0  0  0
  1 21  1  0  0  0
  8  4  1  0  0  0
  8  9  1  0  0  0
  8 10  1  0  0  0
 11 13  1  0  0  0
 13 14  2  0  0  0
 13 18  1  0  0  0
 14 15  1  0  0  0
 15 16  2  0  0  0
 16 17  1  0  0  0
 17 18  2  0  0  0
 23 24  1  0  0  0
 23 25  1  0  0  0
 25 28  1  0  0  0
 32 33  1  0  0  0
 32 37  1  0  0  0
 33 34  1  0  0  0
 34 35  1  0  0  0
 35 36  1  0  0  0
M  END
> <minimizedAffinity>
-7.33901

> <CNNscore>
0.1691130847

> <CNNaffinity>
7.8488855362

> <CNN_VS>
1.3273491859

> <CNNaffinity_variance>
1.8385531902

$$$$
/media/chris/experiments/cd1a-new-docking/inputs/ligands/7ryo_ligand.pdb


 65 67  0  0  0  0  0  0  0  0999 V2000
  -37.8020   58.8473   62.1337 C   0  0  0  0  0  0  0  0  0  0  0  0
  -36.9897   59.1918   63.2886 N   0  0  0  0  0  0  0  0  0  0  0  0
  -36.9437   61.3825   62.7860 O   0  0  0  0  0  0  0  0  0  0  0  0
  -36.6252   60.4560   63.5164 C   0  0  0  0  0  0  0  0  0  0  0  0
  -36.7045   58.4841   63.9107 H   0  0  0  0  0  0  0  0  0  0  0  0
  -34.7327   61.7483   64.4219 N   0  0  0  0  0  0  0  0  0  0  0  0
  -35.7290   62.5026   66.2985 O   0  0  0  0  0  0  0  0  0  0  0  0
  -35.7463   60.7315   64.7475 C   0  0  0  0  0  0  0  0  0  0  0  0
  -35.0423   59.4392   65.1505 C   0  0  0  0  0  0  0  0  0  0  0  0
  -36.5201   61.3466   65.9228 C   0  0  0  0  0  0  0  0  0  0  0  0
  -34.8088   62.6509   65.3101 C   0  0  0  0  0  0  0  0  0  0  0  0
  -33.6300   63.5767   67.7672 O   0  0  0  0  0  0  0  0  0  0  0  0
  -33.9852   63.8599   65.3862 C   0  0  0  0  0  0  0  0  0  0  0  0
  -33.6225   64.5350   64.2201 C   0  0  0  0  0  0  0  0  0  0  0  0
  -32.6548   65.5243   64.2534 C   0  0  0  0  0  0  0  0  0  0  0  0
  -32.0365   65.8558   65.4394 C   0  0  0  0  0  0  0  0  0  0  0  0
  -32.3745   65.1987   66.6085 C   0  0  0  0  0  0  0  0  0  0  0  0
  -33.3432   64.2000   66.5947 C   0  0  0  0  0  0  0  0  0  0  0  0
  -34.2774   62.8999   67.7917 H   0  0  0  0  0  0  0  0  0  0  0  0
  -37.8039   56.4308   62.1693 O   0  0  0  0  0  0  0  0  0  0  0  0
  -38.4099   57.4605   62.2818 C   0  0  0  0  0  0  0  0  0  0  0  0
  -39.7271   57.5477   62.5362 O   0  0  0  0  0  0  0  0  0  0  0  0
  -40.4775   56.3033   62.7318 C   0  0  0  0  0  0  0  0  0  0  0  0
  -41.7659   56.4072   61.9555 C   0  0  0  0  0  0  0  0  0  0  0  0
  -40.7113   56.1992   64.2265 C   0  0  0  0  0  0  0  0  0  0  0  0
  -42.7248   57.3527   64.9026 N   0  0  0  0  0  0  0  0  0  0  0  0
  -42.8195   55.1262   64.5940 O   0  0  0  0  0  0  0  0  0  0  0  0
  -42.1783   56.1733   64.5934 C   0  0  0  0  0  0  0  0  0  0  0  0
  -43.6767   57.3882   65.1515 H   0  0  0  0  0  0  0  0  0  0  0  0
  -41.0374   60.0875   66.5662 N   0  0  0  0  0  0  0  0  0  0  0  0
  -42.8154   58.8301   67.1032 O   0  0  0  0  0  0  0  0  0  0  0  0
  -41.9546   58.5840   64.8822 C   0  0  0  0  0  0  0  0  0  0  0  0
  -42.5763   59.5779   63.8945 C   0  0  0  0  0  0  0  0  0  0  0  0
  -41.6238   60.6879   63.4636 C   0  0  0  0  0  0  0  0  0  0  0  0
  -41.1299   61.5910   64.5763 C   0  0  0  0  0  0  0  0  0  0  0  0
  -40.2777   60.8889   65.6127 C   0  0  0  0  0  0  0  0  0  0  0  0
  -41.9730   59.1789   66.2813 C   0  0  0  0  0  0  0  0  0  0  0  0
  -40.8392   60.2319   67.5197 H   0  0  0  0  0  0  0  0  0  0  0  0
  -36.9982   58.9556   60.8370 C   0  0  0  0  0  0  0  0  0  0  0  0
  -37.7700   59.6720   59.7340 C   0  0  0  0  0  0  0  0  0  0  0  0
  -39.1332   59.0616   59.4659 C   0  0  0  0  0  0  0  0  0  0  0  0
  -40.2991   60.0057   59.6624 C   0  0  0  0  0  0  0  0  0  0  0  0
  -41.1574   60.0266   58.4885 N   0  0  0  0  0  0  0  0  0  0  0  0
  -41.7936   57.8719   58.7039 O   0  0  0  0  0  0  0  0  0  0  0  0
  -41.8468   58.9514   58.0919 C   0  0  0  0  0  0  0  0  0  0  0  0
  -41.2335   60.8594   57.9690 H   0  0  0  0  0  0  0  0  0  0  0  0
  -43.8560   58.7513   56.6439 C   0  0  0  0  0  0  0  0  0  0  0  0
  -42.6021   59.1394   56.8331 C   0  0  0  0  0  0  0  0  0  0  0  0
  -44.7655   58.0790   57.6243 C   0  0  0  0  0  0  0  0  0  0  0  0
  -46.1992   58.0156   57.1122 C   0  0  0  0  0  0  0  0  0  0  0  0
  -47.2413   58.3624   58.1615 C   0  0  0  0  0  0  0  0  0  0  0  0
  -47.4033   57.2971   59.2331 C   0  0  0  0  0  0  0  0  0  0  0  0
  -48.3394   57.6832   60.3630 C   0  0  0  0  0  0  0  0  0  0  0  0
  -49.6276   56.8772   60.3838 C   0  0  0  0  0  0  0  0  0  0  0  0
  -50.8358   57.6779   60.8287 C   0  0  0  0  0  0  0  0  0  0  0  0
  -50.8270   57.9935   62.3109 C   0  0  0  0  0  0  0  0  0  0  0  0
  -50.6379   59.4625   62.6368 C   0  0  0  0  0  0  0  0  0  0  0  0
  -49.3363   59.7382   63.3636 C   0  0  0  0  0  0  0  0  0  0  0  0
  -49.5089   60.6245   64.5863 C   0  0  0  0  0  0  0  0  0  0  0  0
  -50.1221   59.9189   65.7835 C   0  0  0  0  0  0  0  0  0  0  0  0
  -49.3246   58.7223   66.2786 C   0  0  0  0  0  0  0  0  0  0  0  0
  -48.0638   59.0954   67.0464 C   0  0  0  0  0  0  0  0  0  0  0  0
  -46.9413   58.0816   66.8954 C   0  0  0  0  0  0  0  0  0  0  0  0
  -45.9849   58.4934   64.5950 C   0  0  0  0  0  0  0  0  0  0  0  0
  -46.7568   57.5541   65.4840 C   0  0  0  0  0  0  0  0  0  0  0  0
 43 45  1  0  0  0
 43 42  1  0  0  0
 43 46  1  0  0  0
 64 65  1  0  0  0
 44 45  2  0  0  0
 65 63  1  0  0  0
  2  1  1  0  0  0
  2  4  1  0  0  0
  2  5  1  0  0  0
  3  4  2  0  0  0
 63 62  1  0  0  0
  6  8  1  0  0  0
  6 11  2  0  0  0
  7 10  1  0  0  0
  7 11  1  0  0  0
 62 61  1  0  0  0
 26 28  1  0  0  0
 26 32  1  0  0  0
 26 29  1  0  0  0
 12 18  1  0  0  0
 12 19  1  0  0  0
 61 60  1  0  0  0
 30 36  1  0  0  0
 30 37  1  0  0  0
 30 38  1  0  0  0
 20 21  2  0  0  0
 60 59  1  0  0  0
 22 21  1  0  0  0
 22 23  1  0  0  0
 59 58  1  0  0  0
 27 28  2  0  0  0
 58 57  1  0  0  0
 31 37  2  0  0  0
 57 56  1  0  0  0
 56 55  1  0  0  0
 55 54  1  0  0  0
 54 53  1  0  0  0
 53 52  1  0  0  0
 52 51  1  0  0  0
 51 50  1  0  0  0
 50 49  1  0  0  0
 49 47  1  0  0  0
 47 48  2  0  0  0
 48 45  1  0  0  0
 42 41  1  0  0  0
 41 40  1  0  0  0
 40 39  1  0  0  0
 39  1  1  0  0  0
  1 21  1  0  0  0
  8  4  1  0  0  0
  8  9  1  0  0  0
  8 10  1  0  0  0
 11 13  1  0  0  0
 13 14  2  0  0  0
 13 18  1  0  0  0
 14 15  1  0  0  0
 15 16  2  0  0  0
 16 17  1  0  0  0
 17 18  2  0  0  0
 23 24  1  0  0  0
 23 25  1  0  0  0
 25 28  1  0  0  0
 32 33  1  0  0  0
 32 37  1  0  0  0
 33 34  1  0  0  0
 34 35  1  0  0  0
 35 36  1  0  0  0
M  END
> <minimizedAffinity>
-8.54783

> <CNNscore>
0.1675372422

> <CNNaffinity>
7.5043077469

> <CNN_VS>
1.2572510242

> <CNNaffinity_variance>
1.8025615215

$$$$
