/media/chris/experiments/cd1a-new-docking/inputs/ligands/7ryo_ligand.pdb


 65 67  0  0  0  0  0  0  0  0999 V2000
  -38.2653   58.4407   64.3851 C   0  0  0  0  0  0  0  0  0  0  0  0
  -39.6083   57.9022   64.2486 N   0  0  0  0  0  0  0  0  0  0  0  0
  -39.0070   56.4062   62.6820 O   0  0  0  0  0  0  0  0  0  0  0  0
  -39.8647   56.9117   63.3908 C   0  0  0  0  0  0  0  0  0  0  0  0
  -40.3382   58.2724   64.7958 H   0  0  0  0  0  0  0  0  0  0  0  0
  -41.9661   56.4985   64.6096 N   0  0  0  0  0  0  0  0  0  0  0  0
  -43.3667   57.5700   63.2050 O   0  0  0  0  0  0  0  0  0  0  0  0
  -41.3166   56.4157   63.2909 C   0  0  0  0  0  0  0  0  0  0  0  0
  -41.3108   54.9612   62.8301 C   0  0  0  0  0  0  0  0  0  0  0  0
  -42.1992   57.2928   62.3906 C   0  0  0  0  0  0  0  0  0  0  0  0
  -43.0515   57.1363   64.4532 C   0  0  0  0  0  0  0  0  0  0  0  0
  -42.3278   58.4881   66.8888 O   0  0  0  0  0  0  0  0  0  0  0  0
  -44.0249   57.4549   65.5004 C   0  0  0  0  0  0  0  0  0  0  0  0
  -45.3855   57.2348   65.2827 C   0  0  0  0  0  0  0  0  0  0  0  0
  -46.3288   57.7511   66.1544 C   0  0  0  0  0  0  0  0  0  0  0  0
  -45.9363   58.4896   67.2496 C   0  0  0  0  0  0  0  0  0  0  0  0
  -44.5942   58.7260   67.4855 C   0  0  0  0  0  0  0  0  0  0  0  0
  -43.6315   58.2172   66.6195 C   0  0  0  0  0  0  0  0  0  0  0  0
  -41.6550   58.1601   66.3251 H   0  0  0  0  0  0  0  0  0  0  0  0
  -38.8844   60.4491   63.1918 O   0  0  0  0  0  0  0  0  0  0  0  0
  -38.2303   59.9243   64.0505 C   0  0  0  0  0  0  0  0  0  0  0  0
  -37.3481   60.5647   64.8372 O   0  0  0  0  0  0  0  0  0  0  0  0
  -37.6047   60.5972   66.2804 C   0  0  0  0  0  0  0  0  0  0  0  0
  -39.0944   60.5008   66.4928 C   0  0  0  0  0  0  0  0  0  0  0  0
  -37.0370   61.9169   66.7656 C   0  0  0  0  0  0  0  0  0  0  0  0
  -35.5705   62.8046   65.0615 N   0  0  0  0  0  0  0  0  0  0  0  0
  -34.6465   61.8606   66.8828 O   0  0  0  0  0  0  0  0  0  0  0  0
  -35.6431   62.1865   66.2439 C   0  0  0  0  0  0  0  0  0  0  0  0
  -36.4038   63.0422   64.5942 H   0  0  0  0  0  0  0  0  0  0  0  0
  -33.2455   65.1721   63.6183 N   0  0  0  0  0  0  0  0  0  0  0  0
  -35.4850   65.0732   63.6906 O   0  0  0  0  0  0  0  0  0  0  0  0
  -34.2974   63.1358   64.4459 C   0  0  0  0  0  0  0  0  0  0  0  0
  -33.9893   62.1525   63.3112 C   0  0  0  0  0  0  0  0  0  0  0  0
  -32.5180   62.1222   62.9114 C   0  0  0  0  0  0  0  0  0  0  0  0
  -31.9604   63.4276   62.3796 C   0  0  0  0  0  0  0  0  0  0  0  0
  -31.9437   64.5531   63.3926 C   0  0  0  0  0  0  0  0  0  0  0  0
  -34.3937   64.5457   63.8846 C   0  0  0  0  0  0  0  0  0  0  0  0
  -33.2806   66.1548   63.5692 H   0  0  0  0  0  0  0  0  0  0  0  0
  -37.2655   57.6636   63.5273 C   0  0  0  0  0  0  0  0  0  0  0  0
  -36.0244   58.4849   63.1951 C   0  0  0  0  0  0  0  0  0  0  0  0
  -35.9046   58.8155   61.7190 C   0  0  0  0  0  0  0  0  0  0  0  0
  -37.0077   58.2492   60.8520 C   0  0  0  0  0  0  0  0  0  0  0  0
  -37.9856   59.2722   60.5170 N   0  0  0  0  0  0  0  0  0  0  0  0
  -39.6802   57.8064   60.2463 O   0  0  0  0  0  0  0  0  0  0  0  0
  -39.2589   58.9747   60.2367 C   0  0  0  0  0  0  0  0  0  0  0  0
  -37.7008   60.2144   60.4959 H   0  0  0  0  0  0  0  0  0  0  0  0
  -41.0993   60.0832   58.9885 C   0  0  0  0  0  0  0  0  0  0  0  0
  -40.0858   60.1370   59.8421 C   0  0  0  0  0  0  0  0  0  0  0  0
  -41.6311   58.8817   58.2715 C   0  0  0  0  0  0  0  0  0  0  0  0
  -42.5417   59.2728   57.1139 C   0  0  0  0  0  0  0  0  0  0  0  0
  -43.5975   58.2315   56.7851 C   0  0  0  0  0  0  0  0  0  0  0  0
  -44.9930   58.6120   57.2513 C   0  0  0  0  0  0  0  0  0  0  0  0
  -45.9618   57.4480   57.3412 C   0  0  0  0  0  0  0  0  0  0  0  0
  -47.3897   57.8193   56.9768 C   0  0  0  0  0  0  0  0  0  0  0  0
  -48.4123   57.3721   58.0029 C   0  0  0  0  0  0  0  0  0  0  0  0
  -47.9687   57.6182   59.4310 C   0  0  0  0  0  0  0  0  0  0  0  0
  -48.9592   57.1561   60.4824 C   0  0  0  0  0  0  0  0  0  0  0  0
  -50.2672   57.9207   60.4307 C   0  0  0  0  0  0  0  0  0  0  0  0
  -51.1250   57.7247   61.6700 C   0  0  0  0  0  0  0  0  0  0  0  0
  -51.1275   58.9114   62.6181 C   0  0  0  0  0  0  0  0  0  0  0  0
  -49.8749   59.7710   62.5453 C   0  0  0  0  0  0  0  0  0  0  0  0
  -48.9289   59.5845   63.7237 C   0  0  0  0  0  0  0  0  0  0  0  0
  -49.3157   60.4028   64.9451 C   0  0  0  0  0  0  0  0  0  0  0  0
  -49.9868   58.2496   66.0807 C   0  0  0  0  0  0  0  0  0  0  0  0
  -50.2900   59.7115   65.8815 C   0  0  0  0  0  0  0  0  0  0  0  0
 43 45  1  0  0  0
 43 42  1  0  0  0
 43 46  1  0  0  0
 64 65  1  0  0  0
 44 45  2  0  0  0
 65 63  1  0  0  0
  2  1  1  0  0  0
  2  4  1  0  0  0
  2  5  1  0  0  0
  3  4  2  0  0  0
 63 62  1  0  0  0
  6  8  1  0  0  0
  6 11  2  0  0  0
  7 10  1  0  0  0
  7 11  1  0  0  0
 62 61  1  0  0  0
 26 28  1  0  0  0
 26 32  1  0  0  0
 26 29  1  0  0  0
 12 18  1  0  0  0
 12 19  1  0  0  0
 61 60  1  0  0  0
 30 36  1  0  0  0
 30 37  1  0  0  0
 30 38  1  0  0  0
 20 21  2  0  0  0
 60 59  1  0  0  0
 22 21  1  0  0  0
 22 23  1  0  0  0
 59 58  1  0  0  0
 27 28  2  0  0  0
 58 57  1  0  0  0
 31 37  2  0  0  0
 57 56  1  0  0  0
 56 55  1  0  0  0
 55 54  1  0  0  0
 54 53  1  0  0  0
 53 52  1  0  0  0
 52 51  1  0  0  0
 51 50  1  0  0  0
 50 49  1  0  0  0
 49 47  1  0  0  0
 47 48  2  0  0  0
 48 45  1  0  0  0
 42 41  1  0  0  0
 41 40  1  0  0  0
 40 39  1  0  0  0
 39  1  1  0  0  0
  1 21  1  0  0  0
  8  4  1  0  0  0
  8  9  1  0  0  0
  8 10  1  0  0  0
 11 13  1  0  0  0
 13 14  2  0  0  0
 13 18  1  0  0  0
 14 15  1  0  0  0
 15 16  2  0  0  0
 16 17  1  0  0  0
 17 18  2  0  0  0
 23 24  1  0  0  0
 23 25  1  0  0  0
 25 28  1  0  0  0
 32 33  1  0  0  0
 32 37  1  0  0  0
 33 34  1  0  0  0
 34 35  1  0  0  0
 35 36  1  0  0  0
M  END
> <minimizedAffinity>
-7.28221

> <CNNscore>
0.4184679389

> <CNNaffinity>
7.9110703468

> <CNN_VS>
3.3105292320

> <CNNaffinity_variance>
0.5025780797

$$$$
/media/chris/experiments/cd1a-new-docking/inputs/ligands/7ryo_ligand.pdb


 65 67  0  0  0  0  0  0  0  0999 V2000
  -35.0322   57.9220   62.7690 C   0  0  0  0  0  0  0  0  0  0  0  0
  -35.4912   59.1466   63.4031 N   0  0  0  0  0  0  0  0  0  0  0  0
  -36.1421   58.1015   65.2840 O   0  0  0  0  0  0  0  0  0  0  0  0
  -36.0165   59.1264   64.6304 C   0  0  0  0  0  0  0  0  0  0  0  0
  -35.4138   60.0017   62.9215 H   0  0  0  0  0  0  0  0  0  0  0  0
  -35.3765   61.1570   65.8711 N   0  0  0  0  0  0  0  0  0  0  0  0
  -36.2675   62.6822   64.4701 O   0  0  0  0  0  0  0  0  0  0  0  0
  -36.4990   60.4623   65.2192 C   0  0  0  0  0  0  0  0  0  0  0  0
  -37.5807   60.1819   66.2581 C   0  0  0  0  0  0  0  0  0  0  0  0
  -36.9797   61.4590   64.1542 C   0  0  0  0  0  0  0  0  0  0  0  0
  -35.3389   62.3336   65.3983 C   0  0  0  0  0  0  0  0  0  0  0  0
  -33.7558   62.2262   67.7995 O   0  0  0  0  0  0  0  0  0  0  0  0
  -34.3811   63.3806   65.7620 C   0  0  0  0  0  0  0  0  0  0  0  0
  -34.0982   64.4130   64.8669 C   0  0  0  0  0  0  0  0  0  0  0  0
  -33.0289   65.2632   65.0906 C   0  0  0  0  0  0  0  0  0  0  0  0
  -32.2293   65.1013   66.2011 C   0  0  0  0  0  0  0  0  0  0  0  0
  -32.4855   64.0831   67.1013 C   0  0  0  0  0  0  0  0  0  0  0  0
  -33.5544   63.2172   66.8925 C   0  0  0  0  0  0  0  0  0  0  0  0
  -34.4669   61.6263   67.6878 H   0  0  0  0  0  0  0  0  0  0  0  0
  -32.8590   57.0845   62.1233 O   0  0  0  0  0  0  0  0  0  0  0  0
  -33.5653   58.0209   62.3780 C   0  0  0  0  0  0  0  0  0  0  0  0
  -33.1625   59.3036   62.3774 O   0  0  0  0  0  0  0  0  0  0  0  0
  -31.7845   59.5959   62.7840 C   0  0  0  0  0  0  0  0  0  0  0  0
  -31.1207   58.2944   63.1567 C   0  0  0  0  0  0  0  0  0  0  0  0
  -31.8997   60.5430   63.9627 C   0  0  0  0  0  0  0  0  0  0  0  0
  -32.6516   62.4289   62.6510 N   0  0  0  0  0  0  0  0  0  0  0  0
  -30.9282   62.7286   64.0660 O   0  0  0  0  0  0  0  0  0  0  0  0
  -31.7776   61.9971   63.5648 C   0  0  0  0  0  0  0  0  0  0  0  0
  -33.3108   61.7967   62.2836 H   0  0  0  0  0  0  0  0  0  0  0  0
  -34.3716   65.4432   61.6269 N   0  0  0  0  0  0  0  0  0  0  0  0
  -34.8825   63.2639   61.4852 O   0  0  0  0  0  0  0  0  0  0  0  0
  -32.6567   63.8042   62.1840 C   0  0  0  0  0  0  0  0  0  0  0  0
  -31.6901   63.9639   61.0051 C   0  0  0  0  0  0  0  0  0  0  0  0
  -31.2823   65.4092   60.7407 C   0  0  0  0  0  0  0  0  0  0  0  0
  -32.4135   66.3482   60.3716 C   0  0  0  0  0  0  0  0  0  0  0  0
  -33.4349   66.5509   61.4712 C   0  0  0  0  0  0  0  0  0  0  0  0
  -34.0680   64.1478   61.7343 C   0  0  0  0  0  0  0  0  0  0  0  0
  -35.3279   65.6756   61.6558 H   0  0  0  0  0  0  0  0  0  0  0  0
  -35.8971   57.5650   61.5592 C   0  0  0  0  0  0  0  0  0  0  0  0
  -37.2131   56.9074   61.9604 C   0  0  0  0  0  0  0  0  0  0  0  0
  -38.2957   57.9082   62.3192 C   0  0  0  0  0  0  0  0  0  0  0  0
  -39.5641   57.7886   61.5029 C   0  0  0  0  0  0  0  0  0  0  0  0
  -40.5239   56.9121   62.1552 N   0  0  0  0  0  0  0  0  0  0  0  0
  -40.2007   57.8002   64.2047 O   0  0  0  0  0  0  0  0  0  0  0  0
  -40.7741   56.9819   63.4671 C   0  0  0  0  0  0  0  0  0  0  0  0
  -41.0050   56.2456   61.6133 H   0  0  0  0  0  0  0  0  0  0  0  0
  -42.7984   56.2219   64.6911 C   0  0  0  0  0  0  0  0  0  0  0  0
  -41.7208   55.9587   63.9643 C   0  0  0  0  0  0  0  0  0  0  0  0
  -43.2960   57.5598   65.1416 C   0  0  0  0  0  0  0  0  0  0  0  0
  -44.3034   57.4335   66.2780 C   0  0  0  0  0  0  0  0  0  0  0  0
  -45.6823   57.9720   65.9380 C   0  0  0  0  0  0  0  0  0  0  0  0
  -46.8005   57.3348   66.7461 C   0  0  0  0  0  0  0  0  0  0  0  0
  -48.1861   57.5305   66.1601 C   0  0  0  0  0  0  0  0  0  0  0  0
  -48.2698   58.6865   65.1772 C   0  0  0  0  0  0  0  0  0  0  0  0
  -48.7500   59.9808   65.8042 C   0  0  0  0  0  0  0  0  0  0  0  0
  -49.8011   60.6896   64.9739 C   0  0  0  0  0  0  0  0  0  0  0  0
  -50.9771   59.8182   64.5764 C   0  0  0  0  0  0  0  0  0  0  0  0
  -51.1741   59.7500   63.0749 C   0  0  0  0  0  0  0  0  0  0  0  0
  -51.1509   58.3306   62.5316 C   0  0  0  0  0  0  0  0  0  0  0  0
  -49.9280   58.0070   61.6908 C   0  0  0  0  0  0  0  0  0  0  0  0
  -50.2416   57.3131   60.3742 C   0  0  0  0  0  0  0  0  0  0  0  0
  -49.1959   57.5418   59.2915 C   0  0  0  0  0  0  0  0  0  0  0  0
  -47.7703   57.3209   59.7711 C   0  0  0  0  0  0  0  0  0  0  0  0
  -46.7961   58.5276   57.7785 C   0  0  0  0  0  0  0  0  0  0  0  0
  -46.7299   57.3124   58.6659 C   0  0  0  0  0  0  0  0  0  0  0  0
 43 45  1  0  0  0
 43 42  1  0  0  0
 43 46  1  0  0  0
 64 65  1  0  0  0
 44 45  2  0  0  0
 65 63  1  0  0  0
  2  1  1  0  0  0
  2  4  1  0  0  0
  2  5  1  0  0  0
  3  4  2  0  0  0
 63 62  1  0  0  0
  6  8  1  0  0  0
  6 11  2  0  0  0
  7 10  1  0  0  0
  7 11  1  0  0  0
 62 61  1  0  0  0
 26 28  1  0  0  0
 26 32  1  0  0  0
 26 29  1  0  0  0
 12 18  1  0  0  0
 12 19  1  0  0  0
 61 60  1  0  0  0
 30 36  1  0  0  0
 30 37  1  0  0  0
 30 38  1  0  0  0
 20 21  2  0  0  0
 60 59  1  0  0  0
 22 21  1  0  0  0
 22 23  1  0  0  0
 59 58  1  0  0  0
 27 28  2  0  0  0
 58 57  1  0  0  0
 31 37  2  0  0  0
 57 56  1  0  0  0
 56 55  1  0  0  0
 55 54  1  0  0  0
 54 53  1  0  0  0
 53 52  1  0  0  0
 52 51  1  0  0  0
 51 50  1  0  0  0
 50 49  1  0  0  0
 49 47  1  0  0  0
 47 48  2  0  0  0
 48 45  1  0  0  0
 42 41  1  0  0  0
 41 40  1  0  0  0
 40 39  1  0  0  0
 39  1  1  0  0  0
  1 21  1  0  0  0
  8  4  1  0  0  0
  8  9  1  0  0  0
  8 10  1  0  0  0
 11 13  1  0  0  0
 13 14  2  0  0  0
 13 18  1  0  0  0
 14 15  1  0  0  0
 15 16  2  0  0  0
 16 17  1  0  0  0
 17 18  2  0  0  0
 23 24  1  0  0  0
 23 25  1  0  0  0
 25 28  1  0  0  0
 32 33  1  0  0  0
 32 37  1  0  0  0
 33 34  1  0  0  0
 34 35  1  0  0  0
 35 36  1  0  0  0
M  END
> <minimizedAffinity>
-7.70195

> <CNNscore>
0.3989967108

> <CNNaffinity>
7.3719520569

> <CNN_VS>
2.9413845539

> <CNNaffinity_variance>
0.1316545904

$$$$
/media/chris/experiments/cd1a-new-docking/inputs/ligands/7ryo_ligand.pdb


 65 67  0  0  0  0  0  0  0  0999 V2000
  -34.2965   58.3656   62.5191 C   0  0  0  0  0  0  0  0  0  0  0  0
  -35.2038   59.1476   63.3422 N   0  0  0  0  0  0  0  0  0  0  0  0
  -35.8225   57.3847   64.5923 O   0  0  0  0  0  0  0  0  0  0  0  0
  -35.9008   58.5749   64.3265 C   0  0  0  0  0  0  0  0  0  0  0  0
  -35.3057   60.1119   63.1718 H   0  0  0  0  0  0  0  0  0  0  0  0
  -37.7695   60.1778   64.2235 N   0  0  0  0  0  0  0  0  0  0  0  0
  -39.1129   59.2014   65.7484 O   0  0  0  0  0  0  0  0  0  0  0  0
  -36.8558   59.4687   65.1346 C   0  0  0  0  0  0  0  0  0  0  0  0
  -36.0344   60.4934   65.9114 C   0  0  0  0  0  0  0  0  0  0  0  0
  -37.7959   58.6783   66.0566 C   0  0  0  0  0  0  0  0  0  0  0  0
  -38.9498   59.9680   64.6388 C   0  0  0  0  0  0  0  0  0  0  0  0
  -40.9878   61.3040   66.1702 O   0  0  0  0  0  0  0  0  0  0  0  0
  -40.1817   60.4833   64.0367 C   0  0  0  0  0  0  0  0  0  0  0  0
  -40.3440   60.4675   62.6508 C   0  0  0  0  0  0  0  0  0  0  0  0
  -41.3823   61.1648   62.0573 C   0  0  0  0  0  0  0  0  0  0  0  0
  -42.2699   61.8840   62.8278 C   0  0  0  0  0  0  0  0  0  0  0  0
  -42.1285   61.9195   64.2031 C   0  0  0  0  0  0  0  0  0  0  0  0
  -41.0901   61.2268   64.8178 C   0  0  0  0  0  0  0  0  0  0  0  0
  -40.2997   60.8491   66.6147 H   0  0  0  0  0  0  0  0  0  0  0  0
  -31.8976   58.4730   62.2454 O   0  0  0  0  0  0  0  0  0  0  0  0
  -32.9416   59.0461   62.3938 C   0  0  0  0  0  0  0  0  0  0  0  0
  -33.0728   60.3804   62.4934 O   0  0  0  0  0  0  0  0  0  0  0  0
  -31.9282   61.2176   62.1208 C   0  0  0  0  0  0  0  0  0  0  0  0
  -30.9285   61.1718   63.2487 C   0  0  0  0  0  0  0  0  0  0  0  0
  -32.4932   62.6083   61.9067 C   0  0  0  0  0  0  0  0  0  0  0  0
  -32.5559   63.6014   64.1096 N   0  0  0  0  0  0  0  0  0  0  0  0
  -34.5056   63.0854   63.1125 O   0  0  0  0  0  0  0  0  0  0  0  0
  -33.2782   63.1154   63.0960 C   0  0  0  0  0  0  0  0  0  0  0  0
  -31.5738   63.5999   64.0407 H   0  0  0  0  0  0  0  0  0  0  0  0
  -32.4176   65.4055   67.2432 N   0  0  0  0  0  0  0  0  0  0  0  0
  -30.9280   64.1520   66.1295 O   0  0  0  0  0  0  0  0  0  0  0  0
  -33.1780   64.1317   65.3101 C   0  0  0  0  0  0  0  0  0  0  0  0
  -34.0396   63.0536   65.9771 C   0  0  0  0  0  0  0  0  0  0  0  0
  -35.0689   63.6117   66.9540 C   0  0  0  0  0  0  0  0  0  0  0  0
  -34.4999   64.3630   68.1412 C   0  0  0  0  0  0  0  0  0  0  0  0
  -33.7575   65.6311   67.7746 C   0  0  0  0  0  0  0  0  0  0  0  0
  -32.0763   64.5644   66.2645 C   0  0  0  0  0  0  0  0  0  0  0  0
  -31.6889   65.9287   67.6488 H   0  0  0  0  0  0  0  0  0  0  0  0
  -34.8974   58.0872   61.1405 C   0  0  0  0  0  0  0  0  0  0  0  0
  -36.3548   57.6455   61.2212 C   0  0  0  0  0  0  0  0  0  0  0  0
  -37.3332   58.8045   61.1782 C   0  0  0  0  0  0  0  0  0  0  0  0
  -38.1472   58.8989   59.9062 C   0  0  0  0  0  0  0  0  0  0  0  0
  -39.5086   58.4355   60.1221 N   0  0  0  0  0  0  0  0  0  0  0  0
  -38.9641   57.1138   61.8686 O   0  0  0  0  0  0  0  0  0  0  0  0
  -39.8203   57.5710   61.0938 C   0  0  0  0  0  0  0  0  0  0  0  0
  -40.2241   58.7689   59.5338 H   0  0  0  0  0  0  0  0  0  0  0  0
  -41.9800   57.0469   62.2049 C   0  0  0  0  0  0  0  0  0  0  0  0
  -41.2404   57.1547   61.1094 C   0  0  0  0  0  0  0  0  0  0  0  0
  -41.5723   57.3281   63.6175 C   0  0  0  0  0  0  0  0  0  0  0  0
  -42.1207   56.2830   64.5815 C   0  0  0  0  0  0  0  0  0  0  0  0
  -43.6153   56.3985   64.8261 C   0  0  0  0  0  0  0  0  0  0  0  0
  -44.0575   57.7912   65.2439 C   0  0  0  0  0  0  0  0  0  0  0  0
  -45.3217   57.8213   66.0820 C   0  0  0  0  0  0  0  0  0  0  0  0
  -46.5896   57.9809   65.2595 C   0  0  0  0  0  0  0  0  0  0  0  0
  -47.4492   59.1522   65.6930 C   0  0  0  0  0  0  0  0  0  0  0  0
  -48.2965   59.7158   64.5700 C   0  0  0  0  0  0  0  0  0  0  0  0
  -48.7003   58.6988   63.5198 C   0  0  0  0  0  0  0  0  0  0  0  0
  -50.1714   58.3396   63.5877 C   0  0  0  0  0  0  0  0  0  0  0  0
  -50.8948   58.5237   62.2636 C   0  0  0  0  0  0  0  0  0  0  0  0
  -50.4616   57.5529   61.1787 C   0  0  0  0  0  0  0  0  0  0  0  0
  -49.9531   58.2208   59.9104 C   0  0  0  0  0  0  0  0  0  0  0  0
  -48.8858   57.4204   59.1767 C   0  0  0  0  0  0  0  0  0  0  0  0
  -47.7235   58.2690   58.6867 C   0  0  0  0  0  0  0  0  0  0  0  0
  -46.9925   56.9284   56.6756 C   0  0  0  0  0  0  0  0  0  0  0  0
  -46.6080   57.4827   58.0222 C   0  0  0  0  0  0  0  0  0  0  0  0
 43 45  1  0  0  0
 43 42  1  0  0  0
 43 46  1  0  0  0
 64 65  1  0  0  0
 44 45  2  0  0  0
 65 63  1  0  0  0
  2  1  1  0  0  0
  2  4  1  0  0  0
  2  5  1  0  0  0
  3  4  2  0  0  0
 63 62  1  0  0  0
  6  8  1  0  0  0
  6 11  2  0  0  0
  7 10  1  0  0  0
  7 11  1  0  0  0
 62 61  1  0  0  0
 26 28  1  0  0  0
 26 32  1  0  0  0
 26 29  1  0  0  0
 12 18  1  0  0  0
 12 19  1  0  0  0
 61 60  1  0  0  0
 30 36  1  0  0  0
 30 37  1  0  0  0
 30 38  1  0  0  0
 20 21  2  0  0  0
 60 59  1  0  0  0
 22 21  1  0  0  0
 22 23  1  0  0  0
 59 58  1  0  0  0
 27 28  2  0  0  0
 58 57  1  0  0  0
 31 37  2  0  0  0
 57 56  1  0  0  0
 56 55  1  0  0  0
 55 54  1  0  0  0
 54 53  1  0  0  0
 53 52  1  0  0  0
 52 51  1  0  0  0
 51 50  1  0  0  0
 50 49  1  0  0  0
 49 47  1  0  0  0
 47 48  2  0  0  0
 48 45  1  0  0  0
 42 41  1  0  0  0
 41 40  1  0  0  0
 40 39  1  0  0  0
 39  1  1  0  0  0
  1 21  1  0  0  0
  8  4  1  0  0  0
  8  9  1  0  0  0
  8 10  1  0  0  0
 11 13  1  0  0  0
 13 14  2  0  0  0
 13 18  1  0  0  0
 14 15  1  0  0  0
 15 16  2  0  0  0
 16 17  1  0  0  0
 17 18  2  0  0  0
 23 24  1  0  0  0
 23 25  1  0  0  0
 25 28  1  0  0  0
 32 33  1  0  0  0
 32 37  1  0  0  0
 33 34  1  0  0  0
 34 35  1  0  0  0
 35 36  1  0  0  0
M  END
> <minimizedAffinity>
-8.55900

> <CNNscore>
0.2985638976

> <CNNaffinity>
7.7308197021

> <CNN_VS>
2.3081436157

> <CNNaffinity_variance>
0.6219615340

$$$$
/media/chris/experiments/cd1a-new-docking/inputs/ligands/7ryo_ligand.pdb


 65 67  0  0  0  0  0  0  0  0999 V2000
  -37.2580   59.2162   64.6574 C   0  0  0  0  0  0  0  0  0  0  0  0
  -38.4438   58.7349   63.9686 N   0  0  0  0  0  0  0  0  0  0  0  0
  -39.7458   58.8895   65.7947 O   0  0  0  0  0  0  0  0  0  0  0  0
  -39.6068   58.6119   64.6127 C   0  0  0  0  0  0  0  0  0  0  0  0
  -38.3888   58.4966   63.0150 H   0  0  0  0  0  0  0  0  0  0  0  0
  -41.8304   57.5577   64.7409 N   0  0  0  0  0  0  0  0  0  0  0  0
  -42.9368   58.9784   63.3843 O   0  0  0  0  0  0  0  0  0  0  0  0
  -40.8069   58.0733   63.8166 C   0  0  0  0  0  0  0  0  0  0  0  0
  -40.3321   56.9364   62.9166 C   0  0  0  0  0  0  0  0  0  0  0  0
  -41.5450   59.1584   63.0188 C   0  0  0  0  0  0  0  0  0  0  0  0
  -42.9301   58.1061   64.4257 C   0  0  0  0  0  0  0  0  0  0  0  0
  -43.1642   57.1954   67.1459 O   0  0  0  0  0  0  0  0  0  0  0  0
  -44.2231   57.8867   65.0781 C   0  0  0  0  0  0  0  0  0  0  0  0
  -45.4046   58.2554   64.4335 C   0  0  0  0  0  0  0  0  0  0  0  0
  -46.6034   58.2815   65.1253 C   0  0  0  0  0  0  0  0  0  0  0  0
  -46.6459   57.9434   66.4605 C   0  0  0  0  0  0  0  0  0  0  0  0
  -45.4884   57.5786   67.1238 C   0  0  0  0  0  0  0  0  0  0  0  0
  -44.2737   57.5484   66.4460 C   0  0  0  0  0  0  0  0  0  0  0  0
  -42.3307   57.1653   66.7188 H   0  0  0  0  0  0  0  0  0  0  0  0
  -36.2163   60.6582   63.0214 O   0  0  0  0  0  0  0  0  0  0  0  0
  -36.7805   60.5375   64.0738 C   0  0  0  0  0  0  0  0  0  0  0  0
  -37.0597   61.5515   64.9112 O   0  0  0  0  0  0  0  0  0  0  0  0
  -36.2114   61.7248   66.0945 C   0  0  0  0  0  0  0  0  0  0  0  0
  -37.0490   61.4417   67.3159 C   0  0  0  0  0  0  0  0  0  0  0  0
  -35.7313   63.1622   66.0446 C   0  0  0  0  0  0  0  0  0  0  0  0
  -34.4358   63.2163   64.0047 N   0  0  0  0  0  0  0  0  0  0  0  0
  -33.3671   63.5295   65.9597 O   0  0  0  0  0  0  0  0  0  0  0  0
  -34.4035   63.3162   65.3368 C   0  0  0  0  0  0  0  0  0  0  0  0
  -35.2965   63.0443   63.5588 H   0  0  0  0  0  0  0  0  0  0  0  0
  -32.6114   64.6404   61.2231 N   0  0  0  0  0  0  0  0  0  0  0  0
  -34.7784   64.1644   61.5518 O   0  0  0  0  0  0  0  0  0  0  0  0
  -33.2373   63.3542   63.1958 C   0  0  0  0  0  0  0  0  0  0  0  0
  -32.6751   61.9714   62.8474 C   0  0  0  0  0  0  0  0  0  0  0  0
  -31.2154   61.9985   62.4072 C   0  0  0  0  0  0  0  0  0  0  0  0
  -30.9280   62.7992   61.1526 C   0  0  0  0  0  0  0  0  0  0  0  0
  -31.1984   64.2830   61.2885 C   0  0  0  0  0  0  0  0  0  0  0  0
  -33.6091   64.0886   61.9174 C   0  0  0  0  0  0  0  0  0  0  0  0
  -32.8545   65.3644   60.6019 H   0  0  0  0  0  0  0  0  0  0  0  0
  -36.1400   58.1728   64.6337 C   0  0  0  0  0  0  0  0  0  0  0  0
  -34.7608   58.8036   64.4748 C   0  0  0  0  0  0  0  0  0  0  0  0
  -33.9664   58.2196   63.3214 C   0  0  0  0  0  0  0  0  0  0  0  0
  -34.7873   57.4381   62.3190 C   0  0  0  0  0  0  0  0  0  0  0  0
  -35.3542   58.3179   61.3093 N   0  0  0  0  0  0  0  0  0  0  0  0
  -37.4253   57.4331   61.4554 O   0  0  0  0  0  0  0  0  0  0  0  0
  -36.6402   58.2511   60.9485 C   0  0  0  0  0  0  0  0  0  0  0  0
  -34.7723   58.9842   60.8774 H   0  0  0  0  0  0  0  0  0  0  0  0
  -38.2618   59.4109   59.4656 C   0  0  0  0  0  0  0  0  0  0  0  0
  -37.0160   59.1708   59.8514 C   0  0  0  0  0  0  0  0  0  0  0  0
  -39.5240   58.8460   60.0387 C   0  0  0  0  0  0  0  0  0  0  0  0
  -40.7600   59.4301   59.3655 C   0  0  0  0  0  0  0  0  0  0  0  0
  -41.5850   58.4071   58.6040 C   0  0  0  0  0  0  0  0  0  0  0  0
  -41.7990   58.7644   57.1425 C   0  0  0  0  0  0  0  0  0  0  0  0
  -43.2455   59.0259   56.7675 C   0  0  0  0  0  0  0  0  0  0  0  0
  -44.2420   58.3015   57.6573 C   0  0  0  0  0  0  0  0  0  0  0  0
  -45.5810   58.0540   56.9905 C   0  0  0  0  0  0  0  0  0  0  0  0
  -46.7416   58.6817   57.7361 C   0  0  0  0  0  0  0  0  0  0  0  0
  -47.3237   57.8122   58.8339 C   0  0  0  0  0  0  0  0  0  0  0  0
  -48.7311   57.3419   58.5241 C   0  0  0  0  0  0  0  0  0  0  0  0
  -49.7683   57.8713   59.5010 C   0  0  0  0  0  0  0  0  0  0  0  0
  -49.8444   57.0980   60.8061 C   0  0  0  0  0  0  0  0  0  0  0  0
  -49.4230   57.8964   62.0301 C   0  0  0  0  0  0  0  0  0  0  0  0
  -50.5633   58.6554   62.6946 C   0  0  0  0  0  0  0  0  0  0  0  0
  -50.1254   59.9590   63.3427 C   0  0  0  0  0  0  0  0  0  0  0  0
  -50.3319   58.5522   65.4295 C   0  0  0  0  0  0  0  0  0  0  0  0
  -50.0905   59.9255   64.8599 C   0  0  0  0  0  0  0  0  0  0  0  0
 43 45  1  0  0  0
 43 42  1  0  0  0
 43 46  1  0  0  0
 64 65  1  0  0  0
 44 45  2  0  0  0
 65 63  1  0  0  0
  2  1  1  0  0  0
  2  4  1  0  0  0
  2  5  1  0  0  0
  3  4  2  0  0  0
 63 62  1  0  0  0
  6  8  1  0  0  0
  6 11  2  0  0  0
  7 10  1  0  0  0
  7 11  1  0  0  0
 62 61  1  0  0  0
 26 28  1  0  0  0
 26 32  1  0  0  0
 26 29  1  0  0  0
 12 18  1  0  0  0
 12 19  1  0  0  0
 61 60  1  0  0  0
 30 36  1  0  0  0
 30 37  1  0  0  0
 30 38  1  0  0  0
 20 21  2  0  0  0
 60 59  1  0  0  0
 22 21  1  0  0  0
 22 23  1  0  0  0
 59 58  1  0  0  0
 27 28  2  0  0  0
 58 57  1  0  0  0
 31 37  2  0  0  0
 57 56  1  0  0  0
 56 55  1  0  0  0
 55 54  1  0  0  0
 54 53  1  0  0  0
 53 52  1  0  0  0
 52 51  1  0  0  0
 51 50  1  0  0  0
 50 49  1  0  0  0
 49 47  1  0  0  0
 47 48  2  0  0  0
 48 45  1  0  0  0
 42 41  1  0  0  0
 41 40  1  0  0  0
 40 39  1  0  0  0
 39  1  1  0  0  0
  1 21  1  0  0  0
  8  4  1  0  0  0
  8  9  1  0  0  0
  8 10  1  0  0  0
 11 13  1  0  0  0
 13 14  2  0  0  0
 13 18  1  0  0  0
 14 15  1  0  0  0
 15 16  2  0  0  0
 16 17  1  0  0  0
 17 18  2  0  0  0
 23 24  1  0  0  0
 23 25  1  0  0  0
 25 28  1  0  0  0
 32 33  1  0  0  0
 32 37  1  0  0  0
 33 34  1  0  0  0
 34 35  1  0  0  0
 35 36  1  0  0  0
M  END
> <minimizedAffinity>
-8.21893

> <CNNscore>
0.2923986018

> <CNNaffinity>
7.7260541916

> <CNN_VS>
2.2590873241

> <CNNaffinity_variance>
0.8731428385

$$$$
/media/chris/experiments/cd1a-new-docking/inputs/ligands/7ryo_ligand.pdb


 65 67  0  0  0  0  0  0  0  0999 V2000
  -36.8336   60.1535   63.3041 C   0  0  0  0  0  0  0  0  0  0  0  0
  -36.4575   61.0989   64.3420 N   0  0  0  0  0  0  0  0  0  0  0  0
  -37.3521   59.8646   65.9943 O   0  0  0  0  0  0  0  0  0  0  0  0
  -36.7569   60.8649   65.6220 C   0  0  0  0  0  0  0  0  0  0  0  0
  -35.9759   61.9221   64.0981 H   0  0  0  0  0  0  0  0  0  0  0  0
  -34.8788   62.0733   66.6633 N   0  0  0  0  0  0  0  0  0  0  0  0
  -35.6700   64.1698   66.4145 O   0  0  0  0  0  0  0  0  0  0  0  0
  -36.3438   61.9268   66.6543 C   0  0  0  0  0  0  0  0  0  0  0  0
  -36.8068   61.4775   68.0370 C   0  0  0  0  0  0  0  0  0  0  0  0
  -36.8523   63.3358   66.3155 C   0  0  0  0  0  0  0  0  0  0  0  0
  -34.6252   63.3088   66.5263 C   0  0  0  0  0  0  0  0  0  0  0  0
  -32.4391   62.1594   65.0487 O   0  0  0  0  0  0  0  0  0  0  0  0
  -33.2936   63.9176   66.4818 C   0  0  0  0  0  0  0  0  0  0  0  0
  -33.0782   65.1737   67.0501 C   0  0  0  0  0  0  0  0  0  0  0  0
  -31.9027   65.8628   66.8058 C   0  0  0  0  0  0  0  0  0  0  0  0
  -30.9291   65.3171   65.9977 C   0  0  0  0  0  0  0  0  0  0  0  0
  -31.1198   64.0757   65.4187 C   0  0  0  0  0  0  0  0  0  0  0  0
  -32.2955   63.3687   65.6507 C   0  0  0  0  0  0  0  0  0  0  0  0
  -33.2190   61.6581   65.1845 H   0  0  0  0  0  0  0  0  0  0  0  0
  -35.8261   57.9825   62.9686 O   0  0  0  0  0  0  0  0  0  0  0  0
  -35.7047   59.1756   63.0148 C   0  0  0  0  0  0  0  0  0  0  0  0
  -34.5450   59.8325   62.8381 O   0  0  0  0  0  0  0  0  0  0  0  0
  -33.2945   59.1006   63.0622 C   0  0  0  0  0  0  0  0  0  0  0  0
  -32.9089   59.2659   64.5105 C   0  0  0  0  0  0  0  0  0  0  0  0
  -32.2828   59.7249   62.1210 C   0  0  0  0  0  0  0  0  0  0  0  0
  -33.0586   62.0127   62.2006 N   0  0  0  0  0  0  0  0  0  0  0  0
  -30.9426   61.5779   62.8292 O   0  0  0  0  0  0  0  0  0  0  0  0
  -32.0297   61.1872   62.4130 C   0  0  0  0  0  0  0  0  0  0  0  0
  -33.9073   61.6427   61.8659 H   0  0  0  0  0  0  0  0  0  0  0  0
  -34.4082   65.1355   63.4335 N   0  0  0  0  0  0  0  0  0  0  0  0
  -35.3495   63.3033   62.5462 O   0  0  0  0  0  0  0  0  0  0  0  0
  -32.9608   63.4404   62.4491 C   0  0  0  0  0  0  0  0  0  0  0  0
  -32.4613   64.1610   61.1918 C   0  0  0  0  0  0  0  0  0  0  0  0
  -31.9004   65.5520   61.4668 C   0  0  0  0  0  0  0  0  0  0  0  0
  -32.8834   66.5471   62.0510 C   0  0  0  0  0  0  0  0  0  0  0  0
  -33.3905   66.1810   63.4302 C   0  0  0  0  0  0  0  0  0  0  0  0
  -34.3443   63.9549   62.8141 C   0  0  0  0  0  0  0  0  0  0  0  0
  -35.2279   65.3202   63.9466 H   0  0  0  0  0  0  0  0  0  0  0  0
  -37.2720   60.8745   62.0285 C   0  0  0  0  0  0  0  0  0  0  0  0
  -37.6789   59.9046   60.9244 C   0  0  0  0  0  0  0  0  0  0  0  0
  -39.1810   59.8225   60.7255 C   0  0  0  0  0  0  0  0  0  0  0  0
  -39.6656   58.5395   60.0862 C   0  0  0  0  0  0  0  0  0  0  0  0
  -40.8411   58.0264   60.7716 N   0  0  0  0  0  0  0  0  0  0  0  0
  -39.6594   56.7192   62.1817 O   0  0  0  0  0  0  0  0  0  0  0  0
  -40.7521   57.1478   61.7760 C   0  0  0  0  0  0  0  0  0  0  0  0
  -41.7313   58.3358   60.4869 H   0  0  0  0  0  0  0  0  0  0  0  0
  -42.3316   56.5001   63.5813 C   0  0  0  0  0  0  0  0  0  0  0  0
  -42.0563   56.6803   62.2967 C   0  0  0  0  0  0  0  0  0  0  0  0
  -41.4314   56.7361   64.7537 C   0  0  0  0  0  0  0  0  0  0  0  0
  -42.0347   57.7320   65.7367 C   0  0  0  0  0  0  0  0  0  0  0  0
  -43.4119   58.2318   65.3359 C   0  0  0  0  0  0  0  0  0  0  0  0
  -44.5445   57.5851   66.1160 C   0  0  0  0  0  0  0  0  0  0  0  0
  -45.8880   57.6183   65.4122 C   0  0  0  0  0  0  0  0  0  0  0  0
  -47.0449   57.1806   66.2951 C   0  0  0  0  0  0  0  0  0  0  0  0
  -48.4056   57.4013   65.6639 C   0  0  0  0  0  0  0  0  0  0  0  0
  -48.4132   58.5222   64.6439 C   0  0  0  0  0  0  0  0  0  0  0  0
  -49.7941   58.9119   64.1525 C   0  0  0  0  0  0  0  0  0  0  0  0
  -50.0885   58.3909   62.7597 C   0  0  0  0  0  0  0  0  0  0  0  0
  -49.9129   59.4432   61.6771 C   0  0  0  0  0  0  0  0  0  0  0  0
  -49.2836   58.9194   60.3977 C   0  0  0  0  0  0  0  0  0  0  0  0
  -48.8635   57.4590   60.4612 C   0  0  0  0  0  0  0  0  0  0  0  0
  -47.8490   57.0617   59.3978 C   0  0  0  0  0  0  0  0  0  0  0  0
  -47.2771   58.2459   58.6350 C   0  0  0  0  0  0  0  0  0  0  0  0
  -46.9384   56.5084   56.8344 C   0  0  0  0  0  0  0  0  0  0  0  0
  -46.5734   57.8790   57.3411 C   0  0  0  0  0  0  0  0  0  0  0  0
 43 45  1  0  0  0
 43 42  1  0  0  0
 43 46  1  0  0  0
 64 65  1  0  0  0
 44 45  2  0  0  0
 65 63  1  0  0  0
  2  1  1  0  0  0
  2  4  1  0  0  0
  2  5  1  0  0  0
  3  4  2  0  0  0
 63 62  1  0  0  0
  6  8  1  0  0  0
  6 11  2  0  0  0
  7 10  1  0  0  0
  7 11  1  0  0  0
 62 61  1  0  0  0
 26 28  1  0  0  0
 26 32  1  0  0  0
 26 29  1  0  0  0
 12 18  1  0  0  0
 12 19  1  0  0  0
 61 60  1  0  0  0
 30 36  1  0  0  0
 30 37  1  0  0  0
 30 38  1  0  0  0
 20 21  2  0  0  0
 60 59  1  0  0  0
 22 21  1  0  0  0
 22 23  1  0  0  0
 59 58  1  0  0  0
 27 28  2  0  0  0
 58 57  1  0  0  0
 31 37  2  0  0  0
 57 56  1  0  0  0
 56 55  1  0  0  0
 55 54  1  0  0  0
 54 53  1  0  0  0
 53 52  1  0  0  0
 52 51  1  0  0  0
 51 50  1  0  0  0
 50 49  1  0  0  0
 49 47  1  0  0  0
 47 48  2  0  0  0
 48 45  1  0  0  0
 42 41  1  0  0  0
 41 40  1  0  0  0
 40 39  1  0  0  0
 39  1  1  0  0  0
  1 21  1  0  0  0
  8  4  1  0  0  0
  8  9  1  0  0  0
  8 10  1  0  0  0
 11 13  1  0  0  0
 13 14  2  0  0  0
 13 18  1  0  0  0
 14 15  1  0  0  0
 15 16  2  0  0  0
 16 17  1  0  0  0
 17 18  2  0  0  0
 23 24  1  0  0  0
 23 25  1  0  0  0
 25 28  1  0  0  0
 32 33  1  0  0  0
 32 37  1  0  0  0
 33 34  1  0  0  0
 34 35  1  0  0  0
 35 36  1  0  0  0
M  END
> <minimizedAffinity>
-6.87914

> <CNNscore>
0.2757478356

> <CNNaffinity>
7.2271261215

> <CNN_VS>
1.9928643703

> <CNNaffinity_variance>
0.1426996589

$$$$
/media/chris/experiments/cd1a-new-docking/inputs/ligands/7ryo_ligand.pdb


 65 67  0  0  0  0  0  0  0  0999 V2000
  -38.4352   58.4777   65.5575 C   0  0  0  0  0  0  0  0  0  0  0  0
  -39.5992   58.4164   64.6894 N   0  0  0  0  0  0  0  0  0  0  0  0
  -41.0528   58.3186   66.4015 O   0  0  0  0  0  0  0  0  0  0  0  0
  -40.8306   58.3407   65.2000 C   0  0  0  0  0  0  0  0  0  0  0  0
  -39.4782   58.4309   63.7125 H   0  0  0  0  0  0  0  0  0  0  0  0
  -43.1430   57.5672   64.8448 N   0  0  0  0  0  0  0  0  0  0  0  0
  -44.0035   59.4896   64.0404 O   0  0  0  0  0  0  0  0  0  0  0  0
  -42.0058   58.2558   64.2122 C   0  0  0  0  0  0  0  0  0  0  0  0
  -41.5639   57.4622   62.9862 C   0  0  0  0  0  0  0  0  0  0  0  0
  -42.5761   59.6281   63.8248 C   0  0  0  0  0  0  0  0  0  0  0  0
  -44.1597   58.3120   64.6993 C   0  0  0  0  0  0  0  0  0  0  0  0
  -44.6838   56.9145   67.1602 O   0  0  0  0  0  0  0  0  0  0  0  0
  -45.5158   58.0247   65.1727 C   0  0  0  0  0  0  0  0  0  0  0  0
  -46.6189   58.5548   64.5023 C   0  0  0  0  0  0  0  0  0  0  0  0
  -47.8801   58.4974   65.0701 C   0  0  0  0  0  0  0  0  0  0  0  0
  -48.0631   57.9154   66.3056 C   0  0  0  0  0  0  0  0  0  0  0  0
  -46.9857   57.3866   66.9929 C   0  0  0  0  0  0  0  0  0  0  0  0
  -45.7101   57.4368   66.4395 C   0  0  0  0  0  0  0  0  0  0  0  0
  -43.8126   56.9326   66.8158 H   0  0  0  0  0  0  0  0  0  0  0  0
  -38.8210   60.7264   66.3547 O   0  0  0  0  0  0  0  0  0  0  0  0
  -38.0686   59.9172   65.8862 C   0  0  0  0  0  0  0  0  0  0  0  0
  -36.7883   60.1644   65.5592 O   0  0  0  0  0  0  0  0  0  0  0  0
  -36.4866   61.4018   64.8327 C   0  0  0  0  0  0  0  0  0  0  0  0
  -36.6239   61.1231   63.3572 C   0  0  0  0  0  0  0  0  0  0  0  0
  -35.0670   61.7666   65.2212 C   0  0  0  0  0  0  0  0  0  0  0  0
  -34.1254   63.6410   64.0203 N   0  0  0  0  0  0  0  0  0  0  0  0
  -33.7578   61.5681   63.2268 O   0  0  0  0  0  0  0  0  0  0  0  0
  -34.2606   62.3125   64.0638 C   0  0  0  0  0  0  0  0  0  0  0  0
  -34.5512   64.1882   64.7193 H   0  0  0  0  0  0  0  0  0  0  0  0
  -31.0714   64.2047   62.1631 N   0  0  0  0  0  0  0  0  0  0  0  0
  -31.4870   63.6242   64.2893 O   0  0  0  0  0  0  0  0  0  0  0  0
  -33.3682   64.3011   62.9712 C   0  0  0  0  0  0  0  0  0  0  0  0
  -33.6095   65.8140   63.0197 C   0  0  0  0  0  0  0  0  0  0  0  0
  -33.2436   66.5331   61.7257 C   0  0  0  0  0  0  0  0  0  0  0  0
  -31.7859   66.4424   61.3198 C   0  0  0  0  0  0  0  0  0  0  0  0
  -31.3195   65.0394   60.9924 C   0  0  0  0  0  0  0  0  0  0  0  0
  -31.8924   64.0142   63.1982 C   0  0  0  0  0  0  0  0  0  0  0  0
  -30.2081   63.7324   62.1926 H   0  0  0  0  0  0  0  0  0  0  0  0
  -37.2455   57.7375   64.9445 C   0  0  0  0  0  0  0  0  0  0  0  0
  -36.3583   57.0888   66.0016 C   0  0  0  0  0  0  0  0  0  0  0  0
  -34.9298   56.8785   65.5350 C   0  0  0  0  0  0  0  0  0  0  0  0
  -34.2433   58.1234   65.0172 C   0  0  0  0  0  0  0  0  0  0  0  0
  -34.6703   58.4293   63.6611 N   0  0  0  0  0  0  0  0  0  0  0  0
  -33.1898   57.0261   62.6953 O   0  0  0  0  0  0  0  0  0  0  0  0
  -34.1090   57.8548   62.5918 C   0  0  0  0  0  0  0  0  0  0  0  0
  -35.3962   59.0805   63.5259 H   0  0  0  0  0  0  0  0  0  0  0  0
  -35.8667   58.1948   60.8689 C   0  0  0  0  0  0  0  0  0  0  0  0
  -34.6199   58.3487   61.2935 C   0  0  0  0  0  0  0  0  0  0  0  0
  -37.0028   57.5308   61.5823 C   0  0  0  0  0  0  0  0  0  0  0  0
  -38.3526   58.0006   61.0538 C   0  0  0  0  0  0  0  0  0  0  0  0
  -38.2544   59.1086   60.0195 C   0  0  0  0  0  0  0  0  0  0  0  0
  -39.3698   60.1358   60.1206 C   0  0  0  0  0  0  0  0  0  0  0  0
  -40.7547   59.5860   59.8355 C   0  0  0  0  0  0  0  0  0  0  0  0
  -40.8345   58.7857   58.5460 C   0  0  0  0  0  0  0  0  0  0  0  0
  -42.2404   58.3378   58.1974 C   0  0  0  0  0  0  0  0  0  0  0  0
  -42.8768   59.1728   57.1045 C   0  0  0  0  0  0  0  0  0  0  0  0
  -44.1022   58.5440   56.4697 C   0  0  0  0  0  0  0  0  0  0  0  0
  -45.1756   58.2004   57.4834 C   0  0  0  0  0  0  0  0  0  0  0  0
  -46.2813   57.3275   56.9126 C   0  0  0  0  0  0  0  0  0  0  0  0
  -47.5324   57.2684   57.7718 C   0  0  0  0  0  0  0  0  0  0  0  0
  -47.5305   58.2368   58.9446 C   0  0  0  0  0  0  0  0  0  0  0  0
  -48.3480   57.7624   60.1382 C   0  0  0  0  0  0  0  0  0  0  0  0
  -49.8113   57.5146   59.8089 C   0  0  0  0  0  0  0  0  0  0  0  0
  -50.2238   58.2818   62.1790 C   0  0  0  0  0  0  0  0  0  0  0  0
  -50.7276   57.4651   61.0181 C   0  0  0  0  0  0  0  0  0  0  0  0
 43 45  1  0  0  0
 43 42  1  0  0  0
 43 46  1  0  0  0
 64 65  1  0  0  0
 44 45  2  0  0  0
 65 63  1  0  0  0
  2  1  1  0  0  0
  2  4  1  0  0  0
  2  5  1  0  0  0
  3  4  2  0  0  0
 63 62  1  0  0  0
  6  8  1  0  0  0
  6 11  2  0  0  0
  7 10  1  0  0  0
  7 11  1  0  0  0
 62 61  1  0  0  0
 26 28  1  0  0  0
 26 32  1  0  0  0
 26 29  1  0  0  0
 12 18  1  0  0  0
 12 19  1  0  0  0
 61 60  1  0  0  0
 30 36  1  0  0  0
 30 37  1  0  0  0
 30 38  1  0  0  0
 20 21  2  0  0  0
 60 59  1  0  0  0
 22 21  1  0  0  0
 22 23  1  0  0  0
 59 58  1  0  0  0
 27 28  2  0  0  0
 58 57  1  0  0  0
 31 37  2  0  0  0
 57 56  1  0  0  0
 56 55  1  0  0  0
 55 54  1  0  0  0
 54 53  1  0  0  0
 53 52  1  0  0  0
 52 51  1  0  0  0
 51 50  1  0  0  0
 50 49  1  0  0  0
 49 47  1  0  0  0
 47 48  2  0  0  0
 48 45  1  0  0  0
 42 41  1  0  0  0
 41 40  1  0  0  0
 40 39  1  0  0  0
 39  1  1  0  0  0
  1 21  1  0  0  0
  8  4  1  0  0  0
  8  9  1  0  0  0
  8 10  1  0  0  0
 11 13  1  0  0  0
 13 14  2  0  0  0
 13 18  1  0  0  0
 14 15  1  0  0  0
 15 16  2  0  0  0
 16 17  1  0  0  0
 17 18  2  0  0  0
 23 24  1  0  0  0
 23 25  1  0  0  0
 25 28  1  0  0  0
 32 33  1  0  0  0
 32 37  1  0  0  0
 33 34  1  0  0  0
 34 35  1  0  0  0
 35 36  1  0  0  0
M  END
> <minimizedAffinity>
-7.00822

> <CNNscore>
0.2277969867

> <CNNaffinity>
7.4899492264

> <CNN_VS>
1.7061878443

> <CNNaffinity_variance>
0.9703334570

$$$$
/media/chris/experiments/cd1a-new-docking/inputs/ligands/7ryo_ligand.pdb


 65 67  0  0  0  0  0  0  0  0999 V2000
  -39.4836   59.5032   64.5069 C   0  0  0  0  0  0  0  0  0  0  0  0
  -38.5311   58.8928   63.5945 N   0  0  0  0  0  0  0  0  0  0  0  0
  -38.6987   60.5465   62.0810 O   0  0  0  0  0  0  0  0  0  0  0  0
  -38.2170   59.4817   62.4382 C   0  0  0  0  0  0  0  0  0  0  0  0
  -38.1122   58.0342   63.8323 H   0  0  0  0  0  0  0  0  0  0  0  0
  -35.8460   59.1878   61.8348 N   0  0  0  0  0  0  0  0  0  0  0  0
  -35.7768   56.9352   61.8968 O   0  0  0  0  0  0  0  0  0  0  0  0
  -37.2185   58.7579   61.5199 C   0  0  0  0  0  0  0  0  0  0  0  0
  -37.5314   59.1165   60.0703 C   0  0  0  0  0  0  0  0  0  0  0  0
  -37.1859   57.2374   61.7341 C   0  0  0  0  0  0  0  0  0  0  0  0
  -35.1582   58.1382   62.0212 C   0  0  0  0  0  0  0  0  0  0  0  0
  -33.0942   57.9690   60.0225 O   0  0  0  0  0  0  0  0  0  0  0  0
  -33.7335   58.0874   62.3575 C   0  0  0  0  0  0  0  0  0  0  0  0
  -33.3185   58.2659   63.6778 C   0  0  0  0  0  0  0  0  0  0  0  0
  -31.9804   58.4631   63.9729 C   0  0  0  0  0  0  0  0  0  0  0  0
  -31.0399   58.4856   62.9661 C   0  0  0  0  0  0  0  0  0  0  0  0
  -31.4256   58.3157   61.6488 C   0  0  0  0  0  0  0  0  0  0  0  0
  -32.7660   58.1183   61.3322 C   0  0  0  0  0  0  0  0  0  0  0  0
  -33.9881   57.8344   59.7759 H   0  0  0  0  0  0  0  0  0  0  0  0
  -39.2628   61.2845   66.1254 O   0  0  0  0  0  0  0  0  0  0  0  0
  -38.7767   60.3445   65.5591 C   0  0  0  0  0  0  0  0  0  0  0  0
  -37.5222   59.9018   65.7524 O   0  0  0  0  0  0  0  0  0  0  0  0
  -36.4507   60.8943   65.8817 C   0  0  0  0  0  0  0  0  0  0  0  0
  -36.9194   61.9674   66.8316 C   0  0  0  0  0  0  0  0  0  0  0  0
  -36.2167   61.4258   64.4810 C   0  0  0  0  0  0  0  0  0  0  0  0
  -34.8746   63.0119   63.2457 N   0  0  0  0  0  0  0  0  0  0  0  0
  -34.2155   62.4381   65.3189 O   0  0  0  0  0  0  0  0  0  0  0  0
  -35.0100   62.3332   64.3886 C   0  0  0  0  0  0  0  0  0  0  0  0
  -35.5432   62.8877   62.5338 H   0  0  0  0  0  0  0  0  0  0  0  0
  -33.4068   66.3184   63.3238 N   0  0  0  0  0  0  0  0  0  0  0  0
  -35.5034   65.5790   63.0269 O   0  0  0  0  0  0  0  0  0  0  0  0
  -33.7693   63.9276   63.0235 C   0  0  0  0  0  0  0  0  0  0  0  0
  -33.1709   63.7026   61.6304 C   0  0  0  0  0  0  0  0  0  0  0  0
  -31.7642   64.2693   61.4707 C   0  0  0  0  0  0  0  0  0  0  0  0
  -31.6427   65.7701   61.6456 C   0  0  0  0  0  0  0  0  0  0  0  0
  -31.9771   66.2611   63.0385 C   0  0  0  0  0  0  0  0  0  0  0  0
  -34.3017   65.3482   63.1246 C   0  0  0  0  0  0  0  0  0  0  0  0
  -33.7471   67.1608   63.7030 H   0  0  0  0  0  0  0  0  0  0  0  0
  -40.3795   58.4503   65.1609 C   0  0  0  0  0  0  0  0  0  0  0  0
  -41.7333   59.0166   65.5753 C   0  0  0  0  0  0  0  0  0  0  0  0
  -42.8903   58.0844   65.2671 C   0  0  0  0  0  0  0  0  0  0  0  0
  -43.6798   57.6341   66.4767 C   0  0  0  0  0  0  0  0  0  0  0  0
  -44.9859   57.1261   66.0880 N   0  0  0  0  0  0  0  0  0  0  0  0
  -46.0692   58.1062   67.8083 O   0  0  0  0  0  0  0  0  0  0  0  0
  -46.0928   57.4007   66.7864 C   0  0  0  0  0  0  0  0  0  0  0  0
  -45.0574   56.5616   65.2846 H   0  0  0  0  0  0  0  0  0  0  0  0
  -48.4124   57.3663   65.8967 C   0  0  0  0  0  0  0  0  0  0  0  0
  -47.3141   56.7323   66.2845 C   0  0  0  0  0  0  0  0  0  0  0  0
  -48.6540   58.8431   65.8604 C   0  0  0  0  0  0  0  0  0  0  0  0
  -47.7463   59.5385   64.8531 C   0  0  0  0  0  0  0  0  0  0  0  0
  -48.3804   60.7486   64.1892 C   0  0  0  0  0  0  0  0  0  0  0  0
  -49.2943   60.3957   63.0273 C   0  0  0  0  0  0  0  0  0  0  0  0
  -50.7376   60.1435   63.4207 C   0  0  0  0  0  0  0  0  0  0  0  0
  -51.1599   58.6910   63.2740 C   0  0  0  0  0  0  0  0  0  0  0  0
  -50.1886   57.8570   62.4618 C   0  0  0  0  0  0  0  0  0  0  0  0
  -50.7547   57.4169   61.1266 C   0  0  0  0  0  0  0  0  0  0  0  0
  -50.3041   58.2582   59.9479 C   0  0  0  0  0  0  0  0  0  0  0  0
  -49.3422   57.5217   59.0366 C   0  0  0  0  0  0  0  0  0  0  0  0
  -48.7356   56.2853   59.6796 C   0  0  0  0  0  0  0  0  0  0  0  0
  -47.4884   55.7705   58.9820 C   0  0  0  0  0  0  0  0  0  0  0  0
  -47.7285   55.2625   57.5687 C   0  0  0  0  0  0  0  0  0  0  0  0
  -46.9432   56.0126   56.5015 C   0  0  0  0  0  0  0  0  0  0  0  0
  -47.3302   57.4780   56.3838 C   0  0  0  0  0  0  0  0  0  0  0  0
  -45.0975   58.1684   57.3401 C   0  0  0  0  0  0  0  0  0  0  0  0
  -46.5854   58.4023   57.3298 C   0  0  0  0  0  0  0  0  0  0  0  0
 43 45  1  0  0  0
 43 42  1  0  0  0
 43 46  1  0  0  0
 64 65  1  0  0  0
 44 45  2  0  0  0
 65 63  1  0  0  0
  2  1  1  0  0  0
  2  4  1  0  0  0
  2  5  1  0  0  0
  3  4  2  0  0  0
 63 62  1  0  0  0
  6  8  1  0  0  0
  6 11  2  0  0  0
  7 10  1  0  0  0
  7 11  1  0  0  0
 62 61  1  0  0  0
 26 28  1  0  0  0
 26 32  1  0  0  0
 26 29  1  0  0  0
 12 18  1  0  0  0
 12 19  1  0  0  0
 61 60  1  0  0  0
 30 36  1  0  0  0
 30 37  1  0  0  0
 30 38  1  0  0  0
 20 21  2  0  0  0
 60 59  1  0  0  0
 22 21  1  0  0  0
 22 23  1  0  0  0
 59 58  1  0  0  0
 27 28  2  0  0  0
 58 57  1  0  0  0
 31 37  2  0  0  0
 57 56  1  0  0  0
 56 55  1  0  0  0
 55 54  1  0  0  0
 54 53  1  0  0  0
 53 52  1  0  0  0
 52 51  1  0  0  0
 51 50  1  0  0  0
 50 49  1  0  0  0
 49 47  1  0  0  0
 47 48  2  0  0  0
 48 45  1  0  0  0
 42 41  1  0  0  0
 41 40  1  0  0  0
 40 39  1  0  0  0
 39  1  1  0  0  0
  1 21  1  0  0  0
  8  4  1  0  0  0
  8  9  1  0  0  0
  8 10  1  0  0  0
 11 13  1  0  0  0
 13 14  2  0  0  0
 13 18  1  0  0  0
 14 15  1  0  0  0
 15 16  2  0  0  0
 16 17  1  0  0  0
 17 18  2  0  0  0
 23 24  1  0  0  0
 23 25  1  0  0  0
 25 28  1  0  0  0
 32 33  1  0  0  0
 32 37  1  0  0  0
 33 34  1  0  0  0
 34 35  1  0  0  0
 35 36  1  0  0  0
M  END
> <minimizedAffinity>
-9.57389

> <CNNscore>
0.2265708148

> <CNNaffinity>
7.2475366592

> <CNN_VS>
1.6420803070

> <CNNaffinity_variance>
0.6807310581

$$$$
/media/chris/experiments/cd1a-new-docking/inputs/ligands/7ryo_ligand.pdb


 65 67  0  0  0  0  0  0  0  0999 V2000
  -37.9953   60.8870   63.2768 C   0  0  0  0  0  0  0  0  0  0  0  0
  -36.7448   61.1972   63.9493 N   0  0  0  0  0  0  0  0  0  0  0  0
  -37.7484   61.7061   65.8955 O   0  0  0  0  0  0  0  0  0  0  0  0
  -36.7329   61.5875   65.2261 C   0  0  0  0  0  0  0  0  0  0  0  0
  -35.8958   61.1185   63.4571 H   0  0  0  0  0  0  0  0  0  0  0  0
  -34.5715   62.7313   64.9224 N   0  0  0  0  0  0  0  0  0  0  0  0
  -34.5414   63.8790   66.8627 O   0  0  0  0  0  0  0  0  0  0  0  0
  -35.3697   61.9189   65.8554 C   0  0  0  0  0  0  0  0  0  0  0  0
  -34.6278   60.6165   66.1404 C   0  0  0  0  0  0  0  0  0  0  0  0
  -35.4758   62.7979   67.1103 C   0  0  0  0  0  0  0  0  0  0  0  0
  -34.1791   63.7560   65.5592 C   0  0  0  0  0  0  0  0  0  0  0  0
  -32.0355   64.9584   67.0568 O   0  0  0  0  0  0  0  0  0  0  0  0
  -33.3523   64.8408   65.0253 C   0  0  0  0  0  0  0  0  0  0  0  0
  -33.4898   65.2364   63.6941 C   0  0  0  0  0  0  0  0  0  0  0  0
  -32.5596   66.0808   63.1127 C   0  0  0  0  0  0  0  0  0  0  0  0
  -31.4850   66.5424   63.8413 C   0  0  0  0  0  0  0  0  0  0  0  0
  -31.3232   66.1618   65.1611 C   0  0  0  0  0  0  0  0  0  0  0  0
  -32.2465   65.3121   65.7623 C   0  0  0  0  0  0  0  0  0  0  0  0
  -32.6387   64.3875   67.4908 H   0  0  0  0  0  0  0  0  0  0  0  0
  -39.5186   59.9076   64.8772 O   0  0  0  0  0  0  0  0  0  0  0  0
  -38.7342   59.7589   63.9811 C   0  0  0  0  0  0  0  0  0  0  0  0
  -38.3708   58.5680   63.4741 O   0  0  0  0  0  0  0  0  0  0  0  0
  -38.2974   57.4218   64.3854 C   0  0  0  0  0  0  0  0  0  0  0  0
  -39.6658   57.2106   64.9824 C   0  0  0  0  0  0  0  0  0  0  0  0
  -37.2640   57.7971   65.4297 C   0  0  0  0  0  0  0  0  0  0  0  0
  -35.5084   58.0299   63.7847 N   0  0  0  0  0  0  0  0  0  0  0  0
  -35.0577   56.9019   65.6784 O   0  0  0  0  0  0  0  0  0  0  0  0
  -35.8453   57.5312   64.9776 C   0  0  0  0  0  0  0  0  0  0  0  0
  -36.1822   58.5266   63.2665 H   0  0  0  0  0  0  0  0  0  0  0  0
  -32.2947   59.3316   62.7498 N   0  0  0  0  0  0  0  0  0  0  0  0
  -34.3574   60.2103   62.8078 O   0  0  0  0  0  0  0  0  0  0  0  0
  -34.1766   57.8602   63.2306 C   0  0  0  0  0  0  0  0  0  0  0  0
  -34.2423   57.0229   61.9484 C   0  0  0  0  0  0  0  0  0  0  0  0
  -32.9032   56.4137   61.5470 C   0  0  0  0  0  0  0  0  0  0  0  0
  -31.8017   57.4081   61.2378 C   0  0  0  0  0  0  0  0  0  0  0  0
  -31.3739   58.2480   62.4230 C   0  0  0  0  0  0  0  0  0  0  0  0
  -33.6165   59.2371   62.9103 C   0  0  0  0  0  0  0  0  0  0  0  0
  -31.8997   60.2262   62.8639 H   0  0  0  0  0  0  0  0  0  0  0  0
  -37.7648   60.5521   61.8024 C   0  0  0  0  0  0  0  0  0  0  0  0
  -38.9742   60.8858   60.9355 C   0  0  0  0  0  0  0  0  0  0  0  0
  -40.0262   59.7923   60.9319 C   0  0  0  0  0  0  0  0  0  0  0  0
  -39.8670   58.7644   59.8330 C   0  0  0  0  0  0  0  0  0  0  0  0
  -40.6541   59.1238   58.6641 N   0  0  0  0  0  0  0  0  0  0  0  0
  -42.2060   57.5207   59.0039 O   0  0  0  0  0  0  0  0  0  0  0  0
  -41.7736   58.4717   58.3323 C   0  0  0  0  0  0  0  0  0  0  0  0
  -40.3529   59.8714   58.0988 H   0  0  0  0  0  0  0  0  0  0  0  0
  -43.6839   58.8105   56.7800 C   0  0  0  0  0  0  0  0  0  0  0  0
  -42.3948   58.9273   57.0686 C   0  0  0  0  0  0  0  0  0  0  0  0
  -44.7665   58.2326   57.6371 C   0  0  0  0  0  0  0  0  0  0  0  0
  -46.0067   57.8864   56.8223 C   0  0  0  0  0  0  0  0  0  0  0  0
  -47.2751   57.7798   57.6510 C   0  0  0  0  0  0  0  0  0  0  0  0
  -47.1951   56.7379   58.7544 C   0  0  0  0  0  0  0  0  0  0  0  0
  -48.4294   56.6608   59.6331 C   0  0  0  0  0  0  0  0  0  0  0  0
  -49.3364   57.8740   59.5105 C   0  0  0  0  0  0  0  0  0  0  0  0
  -48.9255   59.0298   60.4015 C   0  0  0  0  0  0  0  0  0  0  0  0
  -50.0813   59.6140   61.1888 C   0  0  0  0  0  0  0  0  0  0  0  0
  -49.8378   59.7056   62.6829 C   0  0  0  0  0  0  0  0  0  0  0  0
  -49.1018   58.4992   63.2313 C   0  0  0  0  0  0  0  0  0  0  0  0
  -49.0777   58.4517   64.7503 C   0  0  0  0  0  0  0  0  0  0  0  0
  -47.8009   58.9944   65.3688 C   0  0  0  0  0  0  0  0  0  0  0  0
  -46.5269   58.3761   64.8140 C   0  0  0  0  0  0  0  0  0  0  0  0
  -45.8638   57.3796   65.7549 C   0  0  0  0  0  0  0  0  0  0  0  0
  -44.5717   57.8946   66.3684 C   0  0  0  0  0  0  0  0  0  0  0  0
  -43.2869   56.4510   64.7432 C   0  0  0  0  0  0  0  0  0  0  0  0
  -43.3555   57.7690   65.4689 C   0  0  0  0  0  0  0  0  0  0  0  0
 43 45  1  0  0  0
 43 42  1  0  0  0
 43 46  1  0  0  0
 64 65  1  0  0  0
 44 45  2  0  0  0
 65 63  1  0  0  0
  2  1  1  0  0  0
  2  4  1  0  0  0
  2  5  1  0  0  0
  3  4  2  0  0  0
 63 62  1  0  0  0
  6  8  1  0  0  0
  6 11  2  0  0  0
  7 10  1  0  0  0
  7 11  1  0  0  0
 62 61  1  0  0  0
 26 28  1  0  0  0
 26 32  1  0  0  0
 26 29  1  0  0  0
 12 18  1  0  0  0
 12 19  1  0  0  0
 61 60  1  0  0  0
 30 36  1  0  0  0
 30 37  1  0  0  0
 30 38  1  0  0  0
 20 21  2  0  0  0
 60 59  1  0  0  0
 22 21  1  0  0  0
 22 23  1  0  0  0
 59 58  1  0  0  0
 27 28  2  0  0  0
 58 57  1  0  0  0
 31 37  2  0  0  0
 57 56  1  0  0  0
 56 55  1  0  0  0
 55 54  1  0  0  0
 54 53  1  0  0  0
 53 52  1  0  0  0
 52 51  1  0  0  0
 51 50  1  0  0  0
 50 49  1  0  0  0
 49 47  1  0  0  0
 47 48  2  0  0  0
 48 45  1  0  0  0
 42 41  1  0  0  0
 41 40  1  0  0  0
 40 39  1  0  0  0
 39  1  1  0  0  0
  1 21  1  0  0  0
  8  4  1  0  0  0
  8  9  1  0  0  0
  8 10  1  0  0  0
 11 13  1  0  0  0
 13 14  2  0  0  0
 13 18  1  0  0  0
 14 15  1  0  0  0
 15 16  2  0  0  0
 16 17  1  0  0  0
 17 18  2  0  0  0
 23 24  1  0  0  0
 23 25  1  0  0  0
 25 28  1  0  0  0
 32 33  1  0  0  0
 32 37  1  0  0  0
 33 34  1  0  0  0
 34 35  1  0  0  0
 35 36  1  0  0  0
M  END
> <minimizedAffinity>
-7.08996

> <CNNscore>
0.2112861127

> <CNNaffinity>
7.3221178055

> <CNN_VS>
1.5470618010

> <CNNaffinity_variance>
0.6259238124

$$$$
/media/chris/experiments/cd1a-new-docking/inputs/ligands/7ryo_ligand.pdb


 65 67  0  0  0  0  0  0  0  0999 V2000
  -38.1567   59.1023   62.8567 C   0  0  0  0  0  0  0  0  0  0  0  0
  -36.7845   59.3907   63.2394 N   0  0  0  0  0  0  0  0  0  0  0  0
  -37.3550   61.1574   64.5070 O   0  0  0  0  0  0  0  0  0  0  0  0
  -36.5002   60.4145   64.0477 C   0  0  0  0  0  0  0  0  0  0  0  0
  -36.0555   58.8237   62.8982 H   0  0  0  0  0  0  0  0  0  0  0  0
  -34.3614   61.3535   63.2628 N   0  0  0  0  0  0  0  0  0  0  0  0
  -33.8752   62.6017   65.0762 O   0  0  0  0  0  0  0  0  0  0  0  0
  -35.0210   60.6649   64.3846 C   0  0  0  0  0  0  0  0  0  0  0  0
  -34.3337   59.3226   64.6171 C   0  0  0  0  0  0  0  0  0  0  0  0
  -34.8196   61.6188   65.5713 C   0  0  0  0  0  0  0  0  0  0  0  0
  -33.7809   62.3756   63.7400 C   0  0  0  0  0  0  0  0  0  0  0  0
  -31.5949   61.6267   62.0241 O   0  0  0  0  0  0  0  0  0  0  0  0
  -32.9968   63.3552   62.9844 C   0  0  0  0  0  0  0  0  0  0  0  0
  -33.3838   64.6958   62.9627 C   0  0  0  0  0  0  0  0  0  0  0  0
  -32.8050   65.5794   62.0680 C   0  0  0  0  0  0  0  0  0  0  0  0
  -31.8383   65.1468   61.1865 C   0  0  0  0  0  0  0  0  0  0  0  0
  -31.4402   63.8223   61.1845 C   0  0  0  0  0  0  0  0  0  0  0  0
  -32.0118   62.9187   62.0748 C   0  0  0  0  0  0  0  0  0  0  0  0
  -31.9601   60.9933   62.6102 H   0  0  0  0  0  0  0  0  0  0  0  0
  -37.7306   57.4552   61.1401 O   0  0  0  0  0  0  0  0  0  0  0  0
  -38.2648   57.7468   62.1746 C   0  0  0  0  0  0  0  0  0  0  0  0
  -39.0602   56.9250   62.8814 O   0  0  0  0  0  0  0  0  0  0  0  0
  -40.0942   56.1753   62.1614 C   0  0  0  0  0  0  0  0  0  0  0  0
  -40.7906   57.1252   61.2200 C   0  0  0  0  0  0  0  0  0  0  0  0
  -41.0252   55.6363   63.2302 C   0  0  0  0  0  0  0  0  0  0  0  0
  -40.9280   57.5067   64.7582 N   0  0  0  0  0  0  0  0  0  0  0  0
  -42.9349   56.8863   63.9525 O   0  0  0  0  0  0  0  0  0  0  0  0
  -41.7188   56.7286   64.0135 C   0  0  0  0  0  0  0  0  0  0  0  0
  -39.9589   57.3331   64.7684 H   0  0  0  0  0  0  0  0  0  0  0  0
  -40.5813   60.7071   66.4106 N   0  0  0  0  0  0  0  0  0  0  0  0
  -39.1418   59.0430   65.9758 O   0  0  0  0  0  0  0  0  0  0  0  0
  -41.4570   58.6011   65.5531 C   0  0  0  0  0  0  0  0  0  0  0  0
  -42.1878   58.0529   66.7839 C   0  0  0  0  0  0  0  0  0  0  0  0
  -43.1450   59.0536   67.4224 C   0  0  0  0  0  0  0  0  0  0  0  0
  -42.5040   60.3202   67.9540 C   0  0  0  0  0  0  0  0  0  0  0  0
  -41.8727   61.1904   66.8875 C   0  0  0  0  0  0  0  0  0  0  0  0
  -40.2922   59.4707   65.9990 C   0  0  0  0  0  0  0  0  0  0  0  0
  -39.8461   61.3616   66.3900 H   0  0  0  0  0  0  0  0  0  0  0  0
  -38.7296   60.2079   61.9687 C   0  0  0  0  0  0  0  0  0  0  0  0
  -40.2013   60.4817   62.2597 C   0  0  0  0  0  0  0  0  0  0  0  0
  -41.0536   60.5579   61.0066 C   0  0  0  0  0  0  0  0  0  0  0  0
  -40.3539   60.1224   59.7377 C   0  0  0  0  0  0  0  0  0  0  0  0
  -41.2603   60.1642   58.6012 N   0  0  0  0  0  0  0  0  0  0  0  0
  -41.2116   57.9334   58.2620 O   0  0  0  0  0  0  0  0  0  0  0  0
  -41.6256   59.0596   57.9416 C   0  0  0  0  0  0  0  0  0  0  0  0
  -41.6164   61.0338   58.3078 H   0  0  0  0  0  0  0  0  0  0  0  0
  -43.7500   58.9086   56.6619 C   0  0  0  0  0  0  0  0  0  0  0  0
  -42.4895   59.3073   56.7656 C   0  0  0  0  0  0  0  0  0  0  0  0
  -44.5624   58.1641   57.6750 C   0  0  0  0  0  0  0  0  0  0  0  0
  -45.9757   57.8912   57.1746 C   0  0  0  0  0  0  0  0  0  0  0  0
  -47.0643   58.3926   58.1077 C   0  0  0  0  0  0  0  0  0  0  0  0
  -47.2656   57.5171   59.3334 C   0  0  0  0  0  0  0  0  0  0  0  0
  -48.6536   56.9164   59.4523 C   0  0  0  0  0  0  0  0  0  0  0  0
  -49.7612   57.9560   59.4975 C   0  0  0  0  0  0  0  0  0  0  0  0
  -49.6419   58.9176   60.6636 C   0  0  0  0  0  0  0  0  0  0  0  0
  -49.8817   58.2568   62.0062 C   0  0  0  0  0  0  0  0  0  0  0  0
  -51.1624   58.6867   62.6955 C   0  0  0  0  0  0  0  0  0  0  0  0
  -50.9568   59.8590   63.6344 C   0  0  0  0  0  0  0  0  0  0  0  0
  -50.8260   59.4443   65.0908 C   0  0  0  0  0  0  0  0  0  0  0  0
  -49.5246   59.8749   65.7450 C   0  0  0  0  0  0  0  0  0  0  0  0
  -48.4702   60.3731   64.7687 C   0  0  0  0  0  0  0  0  0  0  0  0
  -47.3529   59.3733   64.5036 C   0  0  0  0  0  0  0  0  0  0  0  0
  -47.5131   58.0701   65.2697 C   0  0  0  0  0  0  0  0  0  0  0  0
  -46.6391   58.4106   67.6142 C   0  0  0  0  0  0  0  0  0  0  0  0
  -46.4023   57.7856   66.2644 C   0  0  0  0  0  0  0  0  0  0  0  0
 43 45  1  0  0  0
 43 42  1  0  0  0
 43 46  1  0  0  0
 64 65  1  0  0  0
 44 45  2  0  0  0
 65 63  1  0  0  0
  2  1  1  0  0  0
  2  4  1  0  0  0
  2  5  1  0  0  0
  3  4  2  0  0  0
 63 62  1  0  0  0
  6  8  1  0  0  0
  6 11  2  0  0  0
  7 10  1  0  0  0
  7 11  1  0  0  0
 62 61  1  0  0  0
 26 28  1  0  0  0
 26 32  1  0  0  0
 26 29  1  0  0  0
 12 18  1  0  0  0
 12 19  1  0  0  0
 61 60  1  0  0  0
 30 36  1  0  0  0
 30 37  1  0  0  0
 30 38  1  0  0  0
 20 21  2  0  0  0
 60 59  1  0  0  0
 22 21  1  0  0  0
 22 23  1  0  0  0
 59 58  1  0  0  0
 27 28  2  0  0  0
 58 57  1  0  0  0
 31 37  2  0  0  0
 57 56  1  0  0  0
 56 55  1  0  0  0
 55 54  1  0  0  0
 54 53  1  0  0  0
 53 52  1  0  0  0
 52 51  1  0  0  0
 51 50  1  0  0  0
 50 49  1  0  0  0
 49 47  1  0  0  0
 47 48  2  0  0  0
 48 45  1  0  0  0
 42 41  1  0  0  0
 41 40  1  0  0  0
 40 39  1  0  0  0
 39  1  1  0  0  0
  1 21  1  0  0  0
  8  4  1  0  0  0
  8  9  1  0  0  0
  8 10  1  0  0  0
 11 13  1  0  0  0
 13 14  2  0  0  0
 13 18  1  0  0  0
 14 15  1  0  0  0
 15 16  2  0  0  0
 16 17  1  0  0  0
 17 18  2  0  0  0
 23 24  1  0  0  0
 23 25  1  0  0  0
 25 28  1  0  0  0
 32 33  1  0  0  0
 32 37  1  0  0  0
 33 34  1  0  0  0
 34 35  1  0  0  0
 35 36  1  0  0  0
M  END
> <minimizedAffinity>
-7.98775

> <CNNscore>
0.2056826651

> <CNNaffinity>
7.5042238235

> <CNN_VS>
1.5434887409

> <CNNaffinity_variance>
1.4357146025

$$$$
