/media/chris/experiments/cd1a-new-docking/inputs/ligands/7ryo_ligand.pdb


 65 67  0  0  0  0  0  0  0  0999 V2000
  -39.1117   59.6045   64.8023 C   0  0  0  0  0  0  0  0  0  0  0  0
  -38.3001   58.9475   63.7913 N   0  0  0  0  0  0  0  0  0  0  0  0
  -38.7601   60.4829   62.2150 O   0  0  0  0  0  0  0  0  0  0  0  0
  -38.1946   59.4564   62.5614 C   0  0  0  0  0  0  0  0  0  0  0  0
  -37.8221   58.1167   64.0162 H   0  0  0  0  0  0  0  0  0  0  0  0
  -35.9322   59.1218   61.6442 N   0  0  0  0  0  0  0  0  0  0  0  0
  -35.8547   56.8736   61.7961 O   0  0  0  0  0  0  0  0  0  0  0  0
  -37.3353   58.6868   61.5449 C   0  0  0  0  0  0  0  0  0  0  0  0
  -37.8492   58.9831   60.1393 C   0  0  0  0  0  0  0  0  0  0  0  0
  -37.2726   57.1771   61.8199 C   0  0  0  0  0  0  0  0  0  0  0  0
  -35.2248   58.0772   61.7785 C   0  0  0  0  0  0  0  0  0  0  0  0
  -33.7012   60.2404   62.9111 O   0  0  0  0  0  0  0  0  0  0  0  0
  -33.7669   58.0325   61.9131 C   0  0  0  0  0  0  0  0  0  0  0  0
  -33.0720   56.8583   61.6207 C   0  0  0  0  0  0  0  0  0  0  0  0
  -31.7398   56.7246   61.9722 C   0  0  0  0  0  0  0  0  0  0  0  0
  -31.0817   57.7499   62.6157 C   0  0  0  0  0  0  0  0  0  0  0  0
  -31.7488   58.9223   62.9211 C   0  0  0  0  0  0  0  0  0  0  0  0
  -33.0885   59.0747   62.5779 C   0  0  0  0  0  0  0  0  0  0  0  0
  -34.6027   60.3745   62.6942 H   0  0  0  0  0  0  0  0  0  0  0  0
  -38.6548   61.3512   66.4089 O   0  0  0  0  0  0  0  0  0  0  0  0
  -38.2530   60.4384   65.7414 C   0  0  0  0  0  0  0  0  0  0  0  0
  -36.9746   60.0239   65.7046 O   0  0  0  0  0  0  0  0  0  0  0  0
  -35.9216   61.0384   65.5958 C   0  0  0  0  0  0  0  0  0  0  0  0
  -35.9764   61.9036   66.8294 C   0  0  0  0  0  0  0  0  0  0  0  0
  -36.2337   61.8156   64.3317 C   0  0  0  0  0  0  0  0  0  0  0  0
  -34.2712   62.9233   63.4578 N   0  0  0  0  0  0  0  0  0  0  0  0
  -35.7208   64.1267   64.6874 O   0  0  0  0  0  0  0  0  0  0  0  0
  -35.3870   63.0596   64.1801 C   0  0  0  0  0  0  0  0  0  0  0  0
  -34.0541   62.0426   63.0750 H   0  0  0  0  0  0  0  0  0  0  0  0
  -31.7754   64.6421   61.4803 N   0  0  0  0  0  0  0  0  0  0  0  0
  -32.2669   62.4743   61.7802 O   0  0  0  0  0  0  0  0  0  0  0  0
  -33.3695   64.0370   63.2213 C   0  0  0  0  0  0  0  0  0  0  0  0
  -32.5637   64.3411   64.4893 C   0  0  0  0  0  0  0  0  0  0  0  0
  -31.9417   65.7333   64.4989 C   0  0  0  0  0  0  0  0  0  0  0  0
  -30.9392   66.0066   63.3953 C   0  0  0  0  0  0  0  0  0  0  0  0
  -31.5298   65.9826   62.0011 C   0  0  0  0  0  0  0  0  0  0  0  0
  -32.4215   63.6500   62.0972 C   0  0  0  0  0  0  0  0  0  0  0  0
  -31.4285   64.4488   60.5795 H   0  0  0  0  0  0  0  0  0  0  0  0
  -39.9518   58.5932   65.5836 C   0  0  0  0  0  0  0  0  0  0  0  0
  -41.4472   58.7743   65.3461 C   0  0  0  0  0  0  0  0  0  0  0  0
  -42.1140   57.5395   64.7688 C   0  0  0  0  0  0  0  0  0  0  0  0
  -43.4644   57.2112   65.3671 C   0  0  0  0  0  0  0  0  0  0  0  0
  -43.8680   58.2223   66.3312 N   0  0  0  0  0  0  0  0  0  0  0  0
  -45.4099   59.0670   67.7463 O   0  0  0  0  0  0  0  0  0  0  0  0
  -45.0621   58.1954   66.9328 C   0  0  0  0  0  0  0  0  0  0  0  0
  -43.2418   58.9504   66.5481 H   0  0  0  0  0  0  0  0  0  0  0  0
  -46.9692   57.0326   65.8443 C   0  0  0  0  0  0  0  0  0  0  0  0
  -45.8845   57.0087   66.6068 C   0  0  0  0  0  0  0  0  0  0  0  0
  -47.5764   58.2119   65.1506 C   0  0  0  0  0  0  0  0  0  0  0  0
  -49.0431   57.9738   64.8127 C   0  0  0  0  0  0  0  0  0  0  0  0
  -49.9843   58.1800   65.9868 C   0  0  0  0  0  0  0  0  0  0  0  0
  -50.7749   59.4756   65.9123 C   0  0  0  0  0  0  0  0  0  0  0  0
  -50.2578   60.4664   64.8864 C   0  0  0  0  0  0  0  0  0  0  0  0
  -51.1777   60.6326   63.6882 C   0  0  0  0  0  0  0  0  0  0  0  0
  -51.0100   59.5488   62.6412 C   0  0  0  0  0  0  0  0  0  0  0  0
  -49.7126   59.6659   61.8667 C   0  0  0  0  0  0  0  0  0  0  0  0
  -49.6912   58.8937   60.5615 C   0  0  0  0  0  0  0  0  0  0  0  0
  -50.1639   57.4621   60.7203 C   0  0  0  0  0  0  0  0  0  0  0  0
  -49.0300   56.4503   60.6929 C   0  0  0  0  0  0  0  0  0  0  0  0
  -48.8845   55.7156   59.3716 C   0  0  0  0  0  0  0  0  0  0  0  0
  -47.4872   55.7764   58.7742 C   0  0  0  0  0  0  0  0  0  0  0  0
  -47.4576   55.6415   57.2579 C   0  0  0  0  0  0  0  0  0  0  0  0
  -46.6209   56.7094   56.5720 C   0  0  0  0  0  0  0  0  0  0  0  0
  -47.0626   58.7284   58.0227 C   0  0  0  0  0  0  0  0  0  0  0  0
  -46.0382   57.7502   57.5107 C   0  0  0  0  0  0  0  0  0  0  0  0
 43 45  1  0  0  0
 43 42  1  0  0  0
 43 46  1  0  0  0
 64 65  1  0  0  0
 44 45  2  0  0  0
 65 63  1  0  0  0
  2  1  1  0  0  0
  2  4  1  0  0  0
  2  5  1  0  0  0
  3  4  2  0  0  0
 63 62  1  0  0  0
  6  8  1  0  0  0
  6 11  2  0  0  0
  7 10  1  0  0  0
  7 11  1  0  0  0
 62 61  1  0  0  0
 26 28  1  0  0  0
 26 32  1  0  0  0
 26 29  1  0  0  0
 12 18  1  0  0  0
 12 19  1  0  0  0
 61 60  1  0  0  0
 30 36  1  0  0  0
 30 37  1  0  0  0
 30 38  1  0  0  0
 20 21  2  0  0  0
 60 59  1  0  0  0
 22 21  1  0  0  0
 22 23  1  0  0  0
 59 58  1  0  0  0
 27 28  2  0  0  0
 58 57  1  0  0  0
 31 37  2  0  0  0
 57 56  1  0  0  0
 56 55  1  0  0  0
 55 54  1  0  0  0
 54 53  1  0  0  0
 53 52  1  0  0  0
 52 51  1  0  0  0
 51 50  1  0  0  0
 50 49  1  0  0  0
 49 47  1  0  0  0
 47 48  2  0  0  0
 48 45  1  0  0  0
 42 41  1  0  0  0
 41 40  1  0  0  0
 40 39  1  0  0  0
 39  1  1  0  0  0
  1 21  1  0  0  0
  8  4  1  0  0  0
  8  9  1  0  0  0
  8 10  1  0  0  0
 11 13  1  0  0  0
 13 14  2  0  0  0
 13 18  1  0  0  0
 14 15  1  0  0  0
 15 16  2  0  0  0
 16 17  1  0  0  0
 17 18  2  0  0  0
 23 24  1  0  0  0
 23 25  1  0  0  0
 25 28  1  0  0  0
 32 33  1  0  0  0
 32 37  1  0  0  0
 33 34  1  0  0  0
 34 35  1  0  0  0
 35 36  1  0  0  0
M  END
> <minimizedAffinity>
-9.74156

> <CNNscore>
0.2016802579

> <CNNaffinity>
7.1404519081

> <CNN_VS>
1.4400881529

> <CNNaffinity_variance>
0.6033547521

$$$$
/media/chris/experiments/cd1a-new-docking/inputs/ligands/7ryo_ligand.pdb


 65 67  0  0  0  0  0  0  0  0999 V2000
  -37.5154   57.8504   61.0876 C   0  0  0  0  0  0  0  0  0  0  0  0
  -38.5230   57.3402   62.0024 N   0  0  0  0  0  0  0  0  0  0  0  0
  -40.1250   57.2643   60.4271 O   0  0  0  0  0  0  0  0  0  0  0  0
  -39.7645   57.0874   61.5813 C   0  0  0  0  0  0  0  0  0  0  0  0
  -38.2871   57.1791   62.9446 H   0  0  0  0  0  0  0  0  0  0  0  0
  -40.4368   57.0959   63.9519 N   0  0  0  0  0  0  0  0  0  0  0  0
  -42.6144   57.6050   63.6651 O   0  0  0  0  0  0  0  0  0  0  0  0
  -40.7759   56.5720   62.6184 C   0  0  0  0  0  0  0  0  0  0  0  0
  -40.7144   55.0480   62.6529 C   0  0  0  0  0  0  0  0  0  0  0  0
  -42.2061   57.0772   62.3776 C   0  0  0  0  0  0  0  0  0  0  0  0
  -41.4870   57.6298   64.4228 C   0  0  0  0  0  0  0  0  0  0  0  0
  -39.6421   59.6348   65.3501 O   0  0  0  0  0  0  0  0  0  0  0  0
  -41.6149   58.2786   65.7298 C   0  0  0  0  0  0  0  0  0  0  0  0
  -42.7387   58.0421   66.5224 C   0  0  0  0  0  0  0  0  0  0  0  0
  -42.9902   58.8251   67.6358 C   0  0  0  0  0  0  0  0  0  0  0  0
  -42.1336   59.8492   67.9766 C   0  0  0  0  0  0  0  0  0  0  0  0
  -41.0151   60.1073   67.2051 C   0  0  0  0  0  0  0  0  0  0  0  0
  -40.7465   59.3326   66.0810 C   0  0  0  0  0  0  0  0  0  0  0  0
  -39.4332   59.1323   64.5874 H   0  0  0  0  0  0  0  0  0  0  0  0
  -35.1205   57.9642   61.3916 O   0  0  0  0  0  0  0  0  0  0  0  0
  -36.2218   58.1760   61.8190 C   0  0  0  0  0  0  0  0  0  0  0  0
  -36.4832   58.7157   63.0222 O   0  0  0  0  0  0  0  0  0  0  0  0
  -35.4158   58.7145   64.0274 C   0  0  0  0  0  0  0  0  0  0  0  0
  -35.5630   57.4690   64.8645 C   0  0  0  0  0  0  0  0  0  0  0  0
  -35.6171   59.9808   64.8370 C   0  0  0  0  0  0  0  0  0  0  0  0
  -34.5925   62.1108   65.3424 N   0  0  0  0  0  0  0  0  0  0  0  0
  -33.7670   60.9055   63.6315 O   0  0  0  0  0  0  0  0  0  0  0  0
  -34.5771   61.0393   64.5444 C   0  0  0  0  0  0  0  0  0  0  0  0
  -35.2659   62.1639   66.0587 H   0  0  0  0  0  0  0  0  0  0  0  0
  -32.3204   64.5839   66.6897 N   0  0  0  0  0  0  0  0  0  0  0  0
  -34.2045   63.6484   67.4681 O   0  0  0  0  0  0  0  0  0  0  0  0
  -33.6444   63.1996   65.1835 C   0  0  0  0  0  0  0  0  0  0  0  0
  -34.2063   64.2511   64.2202 C   0  0  0  0  0  0  0  0  0  0  0  0
  -33.1438   65.1785   63.6403 C   0  0  0  0  0  0  0  0  0  0  0  0
  -32.3933   66.0223   64.6515 C   0  0  0  0  0  0  0  0  0  0  0  0
  -31.5536   65.2223   65.6253 C   0  0  0  0  0  0  0  0  0  0  0  0
  -33.4137   63.8312   66.5473 C   0  0  0  0  0  0  0  0  0  0  0  0
  -31.9978   64.7226   67.6095 H   0  0  0  0  0  0  0  0  0  0  0  0
  -38.0293   59.0683   60.3183 C   0  0  0  0  0  0  0  0  0  0  0  0
  -38.5114   60.1791   61.2452 C   0  0  0  0  0  0  0  0  0  0  0  0
  -39.8607   60.7467   60.8455 C   0  0  0  0  0  0  0  0  0  0  0  0
  -40.9962   60.4004   61.7836 C   0  0  0  0  0  0  0  0  0  0  0  0
  -40.7788   60.9760   63.1012 N   0  0  0  0  0  0  0  0  0  0  0  0
  -41.5249   62.1956   64.8475 O   0  0  0  0  0  0  0  0  0  0  0  0
  -41.7171   61.6940   63.7277 C   0  0  0  0  0  0  0  0  0  0  0  0
  -39.9126   60.8324   63.5466 H   0  0  0  0  0  0  0  0  0  0  0  0
  -44.0775   61.0386   63.3123 C   0  0  0  0  0  0  0  0  0  0  0  0
  -43.0107   61.7668   63.0122 C   0  0  0  0  0  0  0  0  0  0  0  0
  -44.2205   60.0308   64.4098 C   0  0  0  0  0  0  0  0  0  0  0  0
  -45.4774   59.1864   64.2400 C   0  0  0  0  0  0  0  0  0  0  0  0
  -46.0344   58.6460   65.5458 C   0  0  0  0  0  0  0  0  0  0  0  0
  -47.4962   58.9931   65.7734 C   0  0  0  0  0  0  0  0  0  0  0  0
  -48.4755   58.0622   65.0834 C   0  0  0  0  0  0  0  0  0  0  0  0
  -49.9029   58.2056   65.5850 C   0  0  0  0  0  0  0  0  0  0  0  0
  -50.3593   59.6461   65.7086 C   0  0  0  0  0  0  0  0  0  0  0  0
  -50.4136   60.3691   64.3777 C   0  0  0  0  0  0  0  0  0  0  0  0
  -51.1671   59.6252   63.2919 C   0  0  0  0  0  0  0  0  0  0  0  0
  -50.2706   59.1915   62.1490 C   0  0  0  0  0  0  0  0  0  0  0  0
  -50.5975   57.8026   61.6250 C   0  0  0  0  0  0  0  0  0  0  0  0
  -50.0998   57.5375   60.2148 C   0  0  0  0  0  0  0  0  0  0  0  0
  -48.5908   57.3842   60.1039 C   0  0  0  0  0  0  0  0  0  0  0  0
  -47.9617   58.2402   59.0131 C   0  0  0  0  0  0  0  0  0  0  0  0
  -46.7492   57.5947   58.3618 C   0  0  0  0  0  0  0  0  0  0  0  0
  -47.2233   55.6334   56.8437 C   0  0  0  0  0  0  0  0  0  0  0  0
  -46.9798   57.1167   56.9398 C   0  0  0  0  0  0  0  0  0  0  0  0
 43 45  1  0  0  0
 43 42  1  0  0  0
 43 46  1  0  0  0
 64 65  1  0  0  0
 44 45  2  0  0  0
 65 63  1  0  0  0
  2  1  1  0  0  0
  2  4  1  0  0  0
  2  5  1  0  0  0
  3  4  2  0  0  0
 63 62  1  0  0  0
  6  8  1  0  0  0
  6 11  2  0  0  0
  7 10  1  0  0  0
  7 11  1  0  0  0
 62 61  1  0  0  0
 26 28  1  0  0  0
 26 32  1  0  0  0
 26 29  1  0  0  0
 12 18  1  0  0  0
 12 19  1  0  0  0
 61 60  1  0  0  0
 30 36  1  0  0  0
 30 37  1  0  0  0
 30 38  1  0  0  0
 20 21  2  0  0  0
 60 59  1  0  0  0
 22 21  1  0  0  0
 22 23  1  0  0  0
 59 58  1  0  0  0
 27 28  2  0  0  0
 58 57  1  0  0  0
 31 37  2  0  0  0
 57 56  1  0  0  0
 56 55  1  0  0  0
 55 54  1  0  0  0
 54 53  1  0  0  0
 53 52  1  0  0  0
 52 51  1  0  0  0
 51 50  1  0  0  0
 50 49  1  0  0  0
 49 47  1  0  0  0
 47 48  2  0  0  0
 48 45  1  0  0  0
 42 41  1  0  0  0
 41 40  1  0  0  0
 40 39  1  0  0  0
 39  1  1  0  0  0
  1 21  1  0  0  0
  8  4  1  0  0  0
  8  9  1  0  0  0
  8 10  1  0  0  0
 11 13  1  0  0  0
 13 14  2  0  0  0
 13 18  1  0  0  0
 14 15  1  0  0  0
 15 16  2  0  0  0
 16 17  1  0  0  0
 17 18  2  0  0  0
 23 24  1  0  0  0
 23 25  1  0  0  0
 25 28  1  0  0  0
 32 33  1  0  0  0
 32 37  1  0  0  0
 33 34  1  0  0  0
 34 35  1  0  0  0
 35 36  1  0  0  0
M  END
> <minimizedAffinity>
-7.00908

> <CNNscore>
0.1975400150

> <CNNaffinity>
7.6191215515

> <CNN_VS>
1.5050814152

> <CNNaffinity_variance>
1.0105903149

$$$$
/media/chris/experiments/cd1a-new-docking/inputs/ligands/7ryo_ligand.pdb


 65 67  0  0  0  0  0  0  0  0999 V2000
  -42.3956   57.3370   65.6176 C   0  0  0  0  0  0  0  0  0  0  0  0
  -43.7076   57.4743   66.2278 N   0  0  0  0  0  0  0  0  0  0  0  0
  -44.7758   57.5854   64.2528 O   0  0  0  0  0  0  0  0  0  0  0  0
  -44.8041   57.5887   65.4745 C   0  0  0  0  0  0  0  0  0  0  0  0
  -43.7888   57.4830   67.2089 H   0  0  0  0  0  0  0  0  0  0  0  0
  -47.0159   58.6744   65.4437 N   0  0  0  0  0  0  0  0  0  0  0  0
  -48.2787   56.8376   65.7828 O   0  0  0  0  0  0  0  0  0  0  0  0
  -46.1502   57.7537   66.1990 C   0  0  0  0  0  0  0  0  0  0  0  0
  -45.8962   58.3357   67.5862 C   0  0  0  0  0  0  0  0  0  0  0  0
  -46.9671   56.4550   66.2691 C   0  0  0  0  0  0  0  0  0  0  0  0
  -48.1276   58.0874   65.2722 C   0  0  0  0  0  0  0  0  0  0  0  0
  -49.3059   60.6237   65.9521 O   0  0  0  0  0  0  0  0  0  0  0  0
  -49.2929   58.6317   64.5712 C   0  0  0  0  0  0  0  0  0  0  0  0
  -49.7906   57.9900   63.4365 C   0  0  0  0  0  0  0  0  0  0  0  0
  -50.7257   58.6151   62.6296 C   0  0  0  0  0  0  0  0  0  0  0  0
  -51.1777   59.8800   62.9364 C   0  0  0  0  0  0  0  0  0  0  0  0
  -50.6970   60.5396   64.0528 C   0  0  0  0  0  0  0  0  0  0  0  0
  -49.7553   59.9287   64.8749 C   0  0  0  0  0  0  0  0  0  0  0  0
  -48.6716   60.2406   66.5255 H   0  0  0  0  0  0  0  0  0  0  0  0
  -41.1776   58.8124   67.0942 O   0  0  0  0  0  0  0  0  0  0  0  0
  -41.4956   58.5097   65.9773 C   0  0  0  0  0  0  0  0  0  0  0  0
  -41.1218   59.1742   64.8700 O   0  0  0  0  0  0  0  0  0  0  0  0
  -39.6883   59.3680   64.6308 C   0  0  0  0  0  0  0  0  0  0  0  0
  -38.9887   58.0588   64.8953 C   0  0  0  0  0  0  0  0  0  0  0  0
  -39.2580   60.4571   65.5942 C   0  0  0  0  0  0  0  0  0  0  0  0
  -37.2873   61.6314   66.3554 N   0  0  0  0  0  0  0  0  0  0  0  0
  -37.2247   60.6290   64.3422 O   0  0  0  0  0  0  0  0  0  0  0  0
  -37.8339   60.9143   65.3694 C   0  0  0  0  0  0  0  0  0  0  0  0
  -37.8240   61.8299   67.1565 H   0  0  0  0  0  0  0  0  0  0  0  0
  -34.3854   63.2228   67.8184 N   0  0  0  0  0  0  0  0  0  0  0  0
  -36.5902   63.4334   68.1721 O   0  0  0  0  0  0  0  0  0  0  0  0
  -35.9240   62.1265   66.2792 C   0  0  0  0  0  0  0  0  0  0  0  0
  -35.7402   62.9714   65.0135 C   0  0  0  0  0  0  0  0  0  0  0  0
  -34.2820   63.1535   64.6067 C   0  0  0  0  0  0  0  0  0  0  0  0
  -33.4090   63.8731   65.6155 C   0  0  0  0  0  0  0  0  0  0  0  0
  -33.2353   63.1327   66.9251 C   0  0  0  0  0  0  0  0  0  0  0  0
  -35.6614   62.9854   67.5062 C   0  0  0  0  0  0  0  0  0  0  0  0
  -34.2011   63.4861   68.7489 H   0  0  0  0  0  0  0  0  0  0  0  0
  -42.5027   57.1758   64.1005 C   0  0  0  0  0  0  0  0  0  0  0  0
  -41.5566   56.1080   63.5621 C   0  0  0  0  0  0  0  0  0  0  0  0
  -40.9568   56.4659   62.2150 C   0  0  0  0  0  0  0  0  0  0  0  0
  -41.3257   57.8411   61.7030 C   0  0  0  0  0  0  0  0  0  0  0  0
  -41.0537   57.9583   60.2793 N   0  0  0  0  0  0  0  0  0  0  0  0
  -40.0369   59.0179   58.5655 O   0  0  0  0  0  0  0  0  0  0  0  0
  -40.2577   58.9116   59.7830 C   0  0  0  0  0  0  0  0  0  0  0  0
  -41.4692   57.3151   59.6605 H   0  0  0  0  0  0  0  0  0  0  0  0
  -38.3156   59.7476   61.0880 C   0  0  0  0  0  0  0  0  0  0  0  0
  -39.6114   59.7628   60.8070 C   0  0  0  0  0  0  0  0  0  0  0  0
  -37.2484   58.9150   60.4486 C   0  0  0  0  0  0  0  0  0  0  0  0
  -36.6586   57.9060   61.4264 C   0  0  0  0  0  0  0  0  0  0  0  0
  -35.6693   58.5095   62.4083 C   0  0  0  0  0  0  0  0  0  0  0  0
  -34.6737   57.5048   62.9635 C   0  0  0  0  0  0  0  0  0  0  0  0
  -33.9346   56.7062   61.9063 C   0  0  0  0  0  0  0  0  0  0  0  0
  -32.4643   57.0724   61.7891 C   0  0  0  0  0  0  0  0  0  0  0  0
  -32.1625   58.0026   60.6305 C   0  0  0  0  0  0  0  0  0  0  0  0
  -31.3077   59.1893   61.0277 C   0  0  0  0  0  0  0  0  0  0  0  0
  -31.8751   60.0164   62.1652 C   0  0  0  0  0  0  0  0  0  0  0  0
  -30.9314   61.1121   62.6201 C   0  0  0  0  0  0  0  0  0  0  0  0
  -31.5074   62.5082   62.4491 C   0  0  0  0  0  0  0  0  0  0  0  0
  -31.0743   63.2071   61.1721 C   0  0  0  0  0  0  0  0  0  0  0  0
  -30.9849   64.7208   61.2885 C   0  0  0  0  0  0  0  0  0  0  0  0
  -31.8692   65.3096   62.3791 C   0  0  0  0  0  0  0  0  0  0  0  0
  -32.8883   66.3097   61.8572 C   0  0  0  0  0  0  0  0  0  0  0  0
  -34.9768   64.9111   61.6168 C   0  0  0  0  0  0  0  0  0  0  0  0
  -34.3102   66.0605   62.3260 C   0  0  0  0  0  0  0  0  0  0  0  0
 43 45  1  0  0  0
 43 42  1  0  0  0
 43 46  1  0  0  0
 64 65  1  0  0  0
 44 45  2  0  0  0
 65 63  1  0  0  0
  2  1  1  0  0  0
  2  4  1  0  0  0
  2  5  1  0  0  0
  3  4  2  0  0  0
 63 62  1  0  0  0
  6  8  1  0  0  0
  6 11  2  0  0  0
  7 10  1  0  0  0
  7 11  1  0  0  0
 62 61  1  0  0  0
 26 28  1  0  0  0
 26 32  1  0  0  0
 26 29  1  0  0  0
 12 18  1  0  0  0
 12 19  1  0  0  0
 61 60  1  0  0  0
 30 36  1  0  0  0
 30 37  1  0  0  0
 30 38  1  0  0  0
 20 21  2  0  0  0
 60 59  1  0  0  0
 22 21  1  0  0  0
 22 23  1  0  0  0
 59 58  1  0  0  0
 27 28  2  0  0  0
 58 57  1  0  0  0
 31 37  2  0  0  0
 57 56  1  0  0  0
 56 55  1  0  0  0
 55 54  1  0  0  0
 54 53  1  0  0  0
 53 52  1  0  0  0
 52 51  1  0  0  0
 51 50  1  0  0  0
 50 49  1  0  0  0
 49 47  1  0  0  0
 47 48  2  0  0  0
 48 45  1  0  0  0
 42 41  1  0  0  0
 41 40  1  0  0  0
 40 39  1  0  0  0
 39  1  1  0  0  0
  1 21  1  0  0  0
  8  4  1  0  0  0
  8  9  1  0  0  0
  8 10  1  0  0  0
 11 13  1  0  0  0
 13 14  2  0  0  0
 13 18  1  0  0  0
 14 15  1  0  0  0
 15 16  2  0  0  0
 16 17  1  0  0  0
 17 18  2  0  0  0
 23 24  1  0  0  0
 23 25  1  0  0  0
 25 28  1  0  0  0
 32 33  1  0  0  0
 32 37  1  0  0  0
 33 34  1  0  0  0
 34 35  1  0  0  0
 35 36  1  0  0  0
M  END
> <minimizedAffinity>
-9.53988

> <CNNscore>
0.1888725907

> <CNNaffinity>
7.7432928085

> <CNN_VS>
1.4624958038

> <CNNaffinity_variance>
1.4519693851

$$$$
/media/chris/experiments/cd1a-new-docking/inputs/ligands/7ryo_ligand.pdb


 65 67  0  0  0  0  0  0  0  0999 V2000
  -41.3678   60.4587   64.7062 C   0  0  0  0  0  0  0  0  0  0  0  0
  -42.4048   59.5535   65.1729 N   0  0  0  0  0  0  0  0  0  0  0  0
  -40.9866   57.8286   65.4320 O   0  0  0  0  0  0  0  0  0  0  0  0
  -42.1151   58.2921   65.5012 C   0  0  0  0  0  0  0  0  0  0  0  0
  -43.3325   59.8745   65.2480 H   0  0  0  0  0  0  0  0  0  0  0  0
  -44.5013   58.1943   66.1082 N   0  0  0  0  0  0  0  0  0  0  0  0
  -45.0936   56.4569   64.7990 O   0  0  0  0  0  0  0  0  0  0  0  0
  -43.2743   57.3937   65.9632 C   0  0  0  0  0  0  0  0  0  0  0  0
  -42.9169   56.7827   67.3147 C   0  0  0  0  0  0  0  0  0  0  0  0
  -43.6567   56.3172   64.9368 C   0  0  0  0  0  0  0  0  0  0  0  0
  -45.4113   57.6084   65.4462 C   0  0  0  0  0  0  0  0  0  0  0  0
  -47.6423   56.0188   66.3292 O   0  0  0  0  0  0  0  0  0  0  0  0
  -46.8011   58.0505   65.3095 C   0  0  0  0  0  0  0  0  0  0  0  0
  -47.0847   59.3432   64.8672 C   0  0  0  0  0  0  0  0  0  0  0  0
  -48.3680   59.8530   64.9646 C   0  0  0  0  0  0  0  0  0  0  0  0
  -49.3830   59.0902   65.4999 C   0  0  0  0  0  0  0  0  0  0  0  0
  -49.1274   57.8076   65.9497 C   0  0  0  0  0  0  0  0  0  0  0  0
  -47.8435   57.2784   65.8622 C   0  0  0  0  0  0  0  0  0  0  0  0
  -46.7894   55.6334   66.2849 H   0  0  0  0  0  0  0  0  0  0  0  0
  -41.0846   62.2634   66.2885 O   0  0  0  0  0  0  0  0  0  0  0  0
  -40.7211   61.2003   65.8665 C   0  0  0  0  0  0  0  0  0  0  0  0
  -39.6707   60.5086   66.3416 O   0  0  0  0  0  0  0  0  0  0  0  0
  -38.3764   60.6704   65.6721 C   0  0  0  0  0  0  0  0  0  0  0  0
  -37.9694   59.3313   65.1110 C   0  0  0  0  0  0  0  0  0  0  0  0
  -37.4221   61.1611   66.7435 C   0  0  0  0  0  0  0  0  0  0  0  0
  -35.6657   62.0809   65.3611 N   0  0  0  0  0  0  0  0  0  0  0  0
  -36.7602   63.4617   66.7601 O   0  0  0  0  0  0  0  0  0  0  0  0
  -36.5865   62.3390   66.2943 C   0  0  0  0  0  0  0  0  0  0  0  0
  -35.5712   61.1607   65.0243 H   0  0  0  0  0  0  0  0  0  0  0  0
  -33.6809   63.5278   62.7038 N   0  0  0  0  0  0  0  0  0  0  0  0
  -34.1878   61.4154   63.2620 O   0  0  0  0  0  0  0  0  0  0  0  0
  -34.8002   63.1191   64.8294 C   0  0  0  0  0  0  0  0  0  0  0  0
  -33.6801   63.4335   65.8274 C   0  0  0  0  0  0  0  0  0  0  0  0
  -33.0067   64.7802   65.5861 C   0  0  0  0  0  0  0  0  0  0  0  0
  -32.3105   64.9300   64.2480 C   0  0  0  0  0  0  0  0  0  0  0  0
  -33.2414   64.8740   63.0549 C   0  0  0  0  0  0  0  0  0  0  0  0
  -34.1954   62.6134   63.5292 C   0  0  0  0  0  0  0  0  0  0  0  0
  -33.5885   63.2663   61.7592 H   0  0  0  0  0  0  0  0  0  0  0  0
  -41.9132   61.4394   63.6671 C   0  0  0  0  0  0  0  0  0  0  0  0
  -41.3726   61.1630   62.2683 C   0  0  0  0  0  0  0  0  0  0  0  0
  -40.3242   60.0664   62.2392 C   0  0  0  0  0  0  0  0  0  0  0  0
  -38.9240   60.5377   61.9125 C   0  0  0  0  0  0  0  0  0  0  0  0
  -38.5748   60.2223   60.5365 N   0  0  0  0  0  0  0  0  0  0  0  0
  -37.2045   59.2198   59.0496 O   0  0  0  0  0  0  0  0  0  0  0  0
  -37.5084   59.4773   60.2259 C   0  0  0  0  0  0  0  0  0  0  0  0
  -39.1419   60.5684   59.8099 H   0  0  0  0  0  0  0  0  0  0  0  0
  -37.1132   57.8142   62.0290 C   0  0  0  0  0  0  0  0  0  0  0  0
  -36.7830   58.9308   61.3945 C   0  0  0  0  0  0  0  0  0  0  0  0
  -38.2371   56.8776   61.7120 C   0  0  0  0  0  0  0  0  0  0  0  0
  -39.2972   56.8777   62.8065 C   0  0  0  0  0  0  0  0  0  0  0  0
  -40.6047   56.2237   62.3942 C   0  0  0  0  0  0  0  0  0  0  0  0
  -41.6013   57.1917   61.7787 C   0  0  0  0  0  0  0  0  0  0  0  0
  -41.7924   57.0265   60.2828 C   0  0  0  0  0  0  0  0  0  0  0  0
  -40.8866   57.9225   59.4543 C   0  0  0  0  0  0  0  0  0  0  0  0
  -41.6256   59.0394   58.7436 C   0  0  0  0  0  0  0  0  0  0  0  0
  -42.0269   58.6799   57.3271 C   0  0  0  0  0  0  0  0  0  0  0  0
  -43.4187   59.1378   56.9358 C   0  0  0  0  0  0  0  0  0  0  0  0
  -44.4439   58.0235   57.0089 C   0  0  0  0  0  0  0  0  0  0  0  0
  -45.7921   58.4837   57.5390 C   0  0  0  0  0  0  0  0  0  0  0  0
  -46.7139   57.3521   57.9589 C   0  0  0  0  0  0  0  0  0  0  0  0
  -47.4692   57.6099   59.2535 C   0  0  0  0  0  0  0  0  0  0  0  0
  -48.9665   57.8121   59.0651 C   0  0  0  0  0  0  0  0  0  0  0  0
  -49.7921   57.3658   60.2610 C   0  0  0  0  0  0  0  0  0  0  0  0
  -50.8162   58.4534   62.2967 C   0  0  0  0  0  0  0  0  0  0  0  0
  -49.5539   58.1717   61.5249 C   0  0  0  0  0  0  0  0  0  0  0  0
 43 45  1  0  0  0
 43 42  1  0  0  0
 43 46  1  0  0  0
 64 65  1  0  0  0
 44 45  2  0  0  0
 65 63  1  0  0  0
  2  1  1  0  0  0
  2  4  1  0  0  0
  2  5  1  0  0  0
  3  4  2  0  0  0
 63 62  1  0  0  0
  6  8  1  0  0  0
  6 11  2  0  0  0
  7 10  1  0  0  0
  7 11  1  0  0  0
 62 61  1  0  0  0
 26 28  1  0  0  0
 26 32  1  0  0  0
 26 29  1  0  0  0
 12 18  1  0  0  0
 12 19  1  0  0  0
 61 60  1  0  0  0
 30 36  1  0  0  0
 30 37  1  0  0  0
 30 38  1  0  0  0
 20 21  2  0  0  0
 60 59  1  0  0  0
 22 21  1  0  0  0
 22 23  1  0  0  0
 59 58  1  0  0  0
 27 28  2  0  0  0
 58 57  1  0  0  0
 31 37  2  0  0  0
 57 56  1  0  0  0
 56 55  1  0  0  0
 55 54  1  0  0  0
 54 53  1  0  0  0
 53 52  1  0  0  0
 52 51  1  0  0  0
 51 50  1  0  0  0
 50 49  1  0  0  0
 49 47  1  0  0  0
 47 48  2  0  0  0
 48 45  1  0  0  0
 42 41  1  0  0  0
 41 40  1  0  0  0
 40 39  1  0  0  0
 39  1  1  0  0  0
  1 21  1  0  0  0
  8  4  1  0  0  0
  8  9  1  0  0  0
  8 10  1  0  0  0
 11 13  1  0  0  0
 13 14  2  0  0  0
 13 18  1  0  0  0
 14 15  1  0  0  0
 15 16  2  0  0  0
 16 17  1  0  0  0
 17 18  2  0  0  0
 23 24  1  0  0  0
 23 25  1  0  0  0
 25 28  1  0  0  0
 32 33  1  0  0  0
 32 37  1  0  0  0
 33 34  1  0  0  0
 34 35  1  0  0  0
 35 36  1  0  0  0
M  END
> <minimizedAffinity>
-7.98508

> <CNNscore>
0.1857458502

> <CNNaffinity>
7.7742967606

> <CNN_VS>
1.4440433979

> <CNNaffinity_variance>
2.0457518101

$$$$
/media/chris/experiments/cd1a-new-docking/inputs/ligands/7ryo_ligand.pdb


 65 67  0  0  0  0  0  0  0  0999 V2000
  -42.1407   58.8640   64.9542 C   0  0  0  0  0  0  0  0  0  0  0  0
  -43.4392   58.8681   65.6073 N   0  0  0  0  0  0  0  0  0  0  0  0
  -44.1475   57.0239   64.5345 O   0  0  0  0  0  0  0  0  0  0  0  0
  -44.3461   57.9273   65.3331 C   0  0  0  0  0  0  0  0  0  0  0  0
  -43.6527   59.5735   66.2601 H   0  0  0  0  0  0  0  0  0  0  0  0
  -46.6085   58.9032   65.2987 N   0  0  0  0  0  0  0  0  0  0  0  0
  -47.7814   57.0029   65.6092 O   0  0  0  0  0  0  0  0  0  0  0  0
  -45.7033   58.0178   66.0500 C   0  0  0  0  0  0  0  0  0  0  0  0
  -45.4871   58.5963   67.4451 C   0  0  0  0  0  0  0  0  0  0  0  0
  -46.4557   56.6799   66.1005 C   0  0  0  0  0  0  0  0  0  0  0  0
  -47.6887   58.2643   65.1132 C   0  0  0  0  0  0  0  0  0  0  0  0
  -50.3132   58.2532   66.2946 O   0  0  0  0  0  0  0  0  0  0  0  0
  -48.8749   58.7584   64.4100 C   0  0  0  0  0  0  0  0  0  0  0  0
  -48.7432   59.3931   63.1744 C   0  0  0  0  0  0  0  0  0  0  0  0
  -49.8115   60.0752   62.6179 C   0  0  0  0  0  0  0  0  0  0  0  0
  -51.0199   60.1364   63.2770 C   0  0  0  0  0  0  0  0  0  0  0  0
  -51.1753   59.5196   64.5051 C   0  0  0  0  0  0  0  0  0  0  0  0
  -50.1127   58.8310   65.0817 C   0  0  0  0  0  0  0  0  0  0  0  0
  -49.6178   57.7823   66.7099 H   0  0  0  0  0  0  0  0  0  0  0  0
  -41.1188   60.4365   66.4785 O   0  0  0  0  0  0  0  0  0  0  0  0
  -41.0575   59.3987   65.8790 C   0  0  0  0  0  0  0  0  0  0  0  0
  -40.0105   58.5561   65.9158 O   0  0  0  0  0  0  0  0  0  0  0  0
  -38.7238   59.0289   65.3957 C   0  0  0  0  0  0  0  0  0  0  0  0
  -37.6983   57.9491   65.6325 C   0  0  0  0  0  0  0  0  0  0  0  0
  -38.4142   60.2976   66.1664 C   0  0  0  0  0  0  0  0  0  0  0  0
  -36.8317   62.1241   66.1290 N   0  0  0  0  0  0  0  0  0  0  0  0
  -36.1191   60.0784   65.5219 O   0  0  0  0  0  0  0  0  0  0  0  0
  -37.0190   60.8201   65.9059 C   0  0  0  0  0  0  0  0  0  0  0  0
  -37.5908   62.6705   66.4364 H   0  0  0  0  0  0  0  0  0  0  0  0
  -33.8813   63.8092   67.3739 N   0  0  0  0  0  0  0  0  0  0  0  0
  -36.0173   63.7540   68.0561 O   0  0  0  0  0  0  0  0  0  0  0  0
  -35.5403   62.7587   65.9309 C   0  0  0  0  0  0  0  0  0  0  0  0
  -35.6189   63.7644   64.7769 C   0  0  0  0  0  0  0  0  0  0  0  0
  -34.2585   64.1392   64.1991 C   0  0  0  0  0  0  0  0  0  0  0  0
  -33.3047   64.8154   65.1640 C   0  0  0  0  0  0  0  0  0  0  0  0
  -32.8757   63.9432   66.3253 C   0  0  0  0  0  0  0  0  0  0  0  0
  -35.1663   63.4848   67.2134 C   0  0  0  0  0  0  0  0  0  0  0  0
  -33.5807   63.9752   68.2966 H   0  0  0  0  0  0  0  0  0  0  0  0
  -42.1762   59.6500   63.6427 C   0  0  0  0  0  0  0  0  0  0  0  0
  -41.0269   60.6461   63.5319 C   0  0  0  0  0  0  0  0  0  0  0  0
  -40.3626   60.6420   62.1676 C   0  0  0  0  0  0  0  0  0  0  0  0
  -38.8546   60.5225   62.1981 C   0  0  0  0  0  0  0  0  0  0  0  0
  -38.3235   60.2753   60.8670 N   0  0  0  0  0  0  0  0  0  0  0  0
  -36.8612   59.2163   59.5130 O   0  0  0  0  0  0  0  0  0  0  0  0
  -37.3219   59.4164   60.6488 C   0  0  0  0  0  0  0  0  0  0  0  0
  -38.7140   60.7560   60.1017 H   0  0  0  0  0  0  0  0  0  0  0  0
  -37.4645   57.5913   62.3288 C   0  0  0  0  0  0  0  0  0  0  0  0
  -36.8752   58.6794   61.8521 C   0  0  0  0  0  0  0  0  0  0  0  0
  -38.6560   56.8757   61.7729 C   0  0  0  0  0  0  0  0  0  0  0  0
  -39.8252   56.8837   62.7499 C   0  0  0  0  0  0  0  0  0  0  0  0
  -41.1115   56.3192   62.1719 C   0  0  0  0  0  0  0  0  0  0  0  0
  -41.8852   57.3144   61.3234 C   0  0  0  0  0  0  0  0  0  0  0  0
  -41.5683   57.2528   59.8410 C   0  0  0  0  0  0  0  0  0  0  0  0
  -40.7687   58.4454   59.3430 C   0  0  0  0  0  0  0  0  0  0  0  0
  -41.5709   59.3903   58.4699 C   0  0  0  0  0  0  0  0  0  0  0  0
  -42.0454   58.7503   57.1806 C   0  0  0  0  0  0  0  0  0  0  0  0
  -43.4757   59.0864   56.8047 C   0  0  0  0  0  0  0  0  0  0  0  0
  -44.4429   57.9615   57.1166 C   0  0  0  0  0  0  0  0  0  0  0  0
  -45.8623   58.4440   57.3671 C   0  0  0  0  0  0  0  0  0  0  0  0
  -46.9362   57.5558   56.7632 C   0  0  0  0  0  0  0  0  0  0  0  0
  -47.8364   56.8811   57.7866 C   0  0  0  0  0  0  0  0  0  0  0  0
  -47.6310   57.3765   59.2116 C   0  0  0  0  0  0  0  0  0  0  0  0
  -48.6510   58.4181   59.6427 C   0  0  0  0  0  0  0  0  0  0  0  0
  -50.2774   56.9351   60.8803 C   0  0  0  0  0  0  0  0  0  0  0  0
  -50.0743   57.9001   59.7419 C   0  0  0  0  0  0  0  0  0  0  0  0
 43 45  1  0  0  0
 43 42  1  0  0  0
 43 46  1  0  0  0
 64 65  1  0  0  0
 44 45  2  0  0  0
 65 63  1  0  0  0
  2  1  1  0  0  0
  2  4  1  0  0  0
  2  5  1  0  0  0
  3  4  2  0  0  0
 63 62  1  0  0  0
  6  8  1  0  0  0
  6 11  2  0  0  0
  7 10  1  0  0  0
  7 11  1  0  0  0
 62 61  1  0  0  0
 26 28  1  0  0  0
 26 32  1  0  0  0
 26 29  1  0  0  0
 12 18  1  0  0  0
 12 19  1  0  0  0
 61 60  1  0  0  0
 30 36  1  0  0  0
 30 37  1  0  0  0
 30 38  1  0  0  0
 20 21  2  0  0  0
 60 59  1  0  0  0
 22 21  1  0  0  0
 22 23  1  0  0  0
 59 58  1  0  0  0
 27 28  2  0  0  0
 58 57  1  0  0  0
 31 37  2  0  0  0
 57 56  1  0  0  0
 56 55  1  0  0  0
 55 54  1  0  0  0
 54 53  1  0  0  0
 53 52  1  0  0  0
 52 51  1  0  0  0
 51 50  1  0  0  0
 50 49  1  0  0  0
 49 47  1  0  0  0
 47 48  2  0  0  0
 48 45  1  0  0  0
 42 41  1  0  0  0
 41 40  1  0  0  0
 40 39  1  0  0  0
 39  1  1  0  0  0
  1 21  1  0  0  0
  8  4  1  0  0  0
  8  9  1  0  0  0
  8 10  1  0  0  0
 11 13  1  0  0  0
 13 14  2  0  0  0
 13 18  1  0  0  0
 14 15  1  0  0  0
 15 16  2  0  0  0
 16 17  1  0  0  0
 17 18  2  0  0  0
 23 24  1  0  0  0
 23 25  1  0  0  0
 25 28  1  0  0  0
 32 33  1  0  0  0
 32 37  1  0  0  0
 33 34  1  0  0  0
 34 35  1  0  0  0
 35 36  1  0  0  0
M  END
> <minimizedAffinity>
-8.65307

> <CNNscore>
0.1838246584

> <CNNaffinity>
7.9583153725

> <CNN_VS>
1.4629346132

> <CNNaffinity_variance>
1.5262422562

$$$$
/media/chris/experiments/cd1a-new-docking/inputs/ligands/7ryo_ligand.pdb


 65 67  0  0  0  0  0  0  0  0999 V2000
  -40.4927   58.7542   63.1576 C   0  0  0  0  0  0  0  0  0  0  0  0
  -39.3049   58.8786   63.9859 N   0  0  0  0  0  0  0  0  0  0  0  0
  -39.8368   60.9448   64.6939 O   0  0  0  0  0  0  0  0  0  0  0  0
  -39.0782   59.9868   64.6953 C   0  0  0  0  0  0  0  0  0  0  0  0
  -38.6592   58.1363   64.0244 H   0  0  0  0  0  0  0  0  0  0  0  0
  -36.8326   60.9796   64.9042 N   0  0  0  0  0  0  0  0  0  0  0  0
  -36.9757   61.6452   67.0535 O   0  0  0  0  0  0  0  0  0  0  0  0
  -37.7863   60.0467   65.5269 C   0  0  0  0  0  0  0  0  0  0  0  0
  -37.1630   58.6549   65.5716 C   0  0  0  0  0  0  0  0  0  0  0  0
  -37.9953   60.6206   66.9360 C   0  0  0  0  0  0  0  0  0  0  0  0
  -36.4627   61.7934   65.8044 C   0  0  0  0  0  0  0  0  0  0  0  0
  -34.5543   62.5278   67.8298 O   0  0  0  0  0  0  0  0  0  0  0  0
  -35.5140   62.8966   65.6348 C   0  0  0  0  0  0  0  0  0  0  0  0
  -35.4092   63.5476   64.4050 C   0  0  0  0  0  0  0  0  0  0  0  0
  -34.3606   64.4168   64.1578 C   0  0  0  0  0  0  0  0  0  0  0  0
  -33.4059   64.6511   65.1233 C   0  0  0  0  0  0  0  0  0  0  0  0
  -33.4844   64.0150   66.3489 C   0  0  0  0  0  0  0  0  0  0  0  0
  -34.5296   63.1362   66.6155 C   0  0  0  0  0  0  0  0  0  0  0  0
  -35.2447   61.9305   68.0406 H   0  0  0  0  0  0  0  0  0  0  0  0
  -41.0503   60.5585   61.6495 O   0  0  0  0  0  0  0  0  0  0  0  0
  -40.3755   59.5973   61.8967 C   0  0  0  0  0  0  0  0  0  0  0  0
  -39.4236   59.1035   61.0858 O   0  0  0  0  0  0  0  0  0  0  0  0
  -38.3731   60.0132   60.6186 C   0  0  0  0  0  0  0  0  0  0  0  0
  -37.6013   59.3154   59.5272 C   0  0  0  0  0  0  0  0  0  0  0  0
  -37.5161   60.3051   61.8351 C   0  0  0  0  0  0  0  0  0  0  0  0
  -35.2225   59.7033   62.3030 N   0  0  0  0  0  0  0  0  0  0  0  0
  -36.7365   58.0546   62.0771 O   0  0  0  0  0  0  0  0  0  0  0  0
  -36.4594   59.2507   62.0787 C   0  0  0  0  0  0  0  0  0  0  0  0
  -35.0591   60.6741   62.2920 H   0  0  0  0  0  0  0  0  0  0  0  0
  -31.8876   59.0254   63.5332 N   0  0  0  0  0  0  0  0  0  0  0  0
  -32.8449   60.8354   62.6178 O   0  0  0  0  0  0  0  0  0  0  0  0
  -34.1118   58.8040   62.5625 C   0  0  0  0  0  0  0  0  0  0  0  0
  -33.8171   57.9580   61.3187 C   0  0  0  0  0  0  0  0  0  0  0  0
  -33.0033   56.7023   61.6125 C   0  0  0  0  0  0  0  0  0  0  0  0
  -31.6208   56.9413   62.1863 C   0  0  0  0  0  0  0  0  0  0  0  0
  -31.6210   57.5911   63.5542 C   0  0  0  0  0  0  0  0  0  0  0  0
  -32.8916   59.6434   62.9071 C   0  0  0  0  0  0  0  0  0  0  0  0
  -31.2616   59.5974   64.0333 H   0  0  0  0  0  0  0  0  0  0  0  0
  -41.7560   59.1150   63.9405 C   0  0  0  0  0  0  0  0  0  0  0  0
  -41.9480   58.2340   65.1703 C   0  0  0  0  0  0  0  0  0  0  0  0
  -42.3909   56.8229   64.8308 C   0  0  0  0  0  0  0  0  0  0  0  0
  -43.8472   56.5300   65.1184 C   0  0  0  0  0  0  0  0  0  0  0  0
  -44.2568   57.1145   66.3855 N   0  0  0  0  0  0  0  0  0  0  0  0
  -45.5607   58.5450   67.5461 O   0  0  0  0  0  0  0  0  0  0  0  0
  -45.2212   58.0377   66.4645 C   0  0  0  0  0  0  0  0  0  0  0  0
  -43.8096   56.8210   67.2120 H   0  0  0  0  0  0  0  0  0  0  0  0
  -47.1788   58.6198   65.0494 C   0  0  0  0  0  0  0  0  0  0  0  0
  -45.8901   58.3349   65.1781 C   0  0  0  0  0  0  0  0  0  0  0  0
  -48.2080   58.7212   66.1317 C   0  0  0  0  0  0  0  0  0  0  0  0
  -49.4154   57.8365   65.8466 C   0  0  0  0  0  0  0  0  0  0  0  0
  -50.7474   58.5532   65.9855 C   0  0  0  0  0  0  0  0  0  0  0  0
  -50.6501   60.0586   65.8026 C   0  0  0  0  0  0  0  0  0  0  0  0
  -51.0016   60.5439   64.4089 C   0  0  0  0  0  0  0  0  0  0  0  0
  -49.8332   60.4948   63.4383 C   0  0  0  0  0  0  0  0  0  0  0  0
  -50.1084   59.6628   62.2011 C   0  0  0  0  0  0  0  0  0  0  0  0
  -51.1579   58.5927   62.4254 C   0  0  0  0  0  0  0  0  0  0  0  0
  -51.1776   57.5045   61.3693 C   0  0  0  0  0  0  0  0  0  0  0  0
  -49.8866   56.7114   61.3215 C   0  0  0  0  0  0  0  0  0  0  0  0
  -49.3939   56.4536   59.9069 C   0  0  0  0  0  0  0  0  0  0  0  0
  -49.2748   57.7039   59.0528 C   0  0  0  0  0  0  0  0  0  0  0  0
  -47.9514   58.4382   59.2023 C   0  0  0  0  0  0  0  0  0  0  0  0
  -46.7426   57.6310   58.7489 C   0  0  0  0  0  0  0  0  0  0  0  0
  -46.4462   57.7683   57.2641 C   0  0  0  0  0  0  0  0  0  0  0  0
  -47.3001   55.4165   56.9238 C   0  0  0  0  0  0  0  0  0  0  0  0
  -47.2291   56.8179   56.3766 C   0  0  0  0  0  0  0  0  0  0  0  0
 43 45  1  0  0  0
 43 42  1  0  0  0
 43 46  1  0  0  0
 64 65  1  0  0  0
 44 45  2  0  0  0
 65 63  1  0  0  0
  2  1  1  0  0  0
  2  4  1  0  0  0
  2  5  1  0  0  0
  3  4  2  0  0  0
 63 62  1  0  0  0
  6  8  1  0  0  0
  6 11  2  0  0  0
  7 10  1  0  0  0
  7 11  1  0  0  0
 62 61  1  0  0  0
 26 28  1  0  0  0
 26 32  1  0  0  0
 26 29  1  0  0  0
 12 18  1  0  0  0
 12 19  1  0  0  0
 61 60  1  0  0  0
 30 36  1  0  0  0
 30 37  1  0  0  0
 30 38  1  0  0  0
 20 21  2  0  0  0
 60 59  1  0  0  0
 22 21  1  0  0  0
 22 23  1  0  0  0
 59 58  1  0  0  0
 27 28  2  0  0  0
 58 57  1  0  0  0
 31 37  2  0  0  0
 57 56  1  0  0  0
 56 55  1  0  0  0
 55 54  1  0  0  0
 54 53  1  0  0  0
 53 52  1  0  0  0
 52 51  1  0  0  0
 51 50  1  0  0  0
 50 49  1  0  0  0
 49 47  1  0  0  0
 47 48  2  0  0  0
 48 45  1  0  0  0
 42 41  1  0  0  0
 41 40  1  0  0  0
 40 39  1  0  0  0
 39  1  1  0  0  0
  1 21  1  0  0  0
  8  4  1  0  0  0
  8  9  1  0  0  0
  8 10  1  0  0  0
 11 13  1  0  0  0
 13 14  2  0  0  0
 13 18  1  0  0  0
 14 15  1  0  0  0
 15 16  2  0  0  0
 16 17  1  0  0  0
 17 18  2  0  0  0
 23 24  1  0  0  0
 23 25  1  0  0  0
 25 28  1  0  0  0
 32 33  1  0  0  0
 32 37  1  0  0  0
 33 34  1  0  0  0
 34 35  1  0  0  0
 35 36  1  0  0  0
M  END
> <minimizedAffinity>
-10.66094

> <CNNscore>
0.1794707030

> <CNNaffinity>
7.4787688255

> <CNN_VS>
1.3422199488

> <CNNaffinity_variance>
1.3580162525

$$$$
/media/chris/experiments/cd1a-new-docking/inputs/ligands/7ryo_ligand.pdb


 65 67  0  0  0  0  0  0  0  0999 V2000
  -40.0423   59.9904   63.7678 C   0  0  0  0  0  0  0  0  0  0  0  0
  -39.1091   59.2025   62.9799 N   0  0  0  0  0  0  0  0  0  0  0  0
  -38.0407   61.0077   62.1715 O   0  0  0  0  0  0  0  0  0  0  0  0
  -38.1715   59.7945   62.2361 C   0  0  0  0  0  0  0  0  0  0  0  0
  -39.1691   58.2200   62.9948 H   0  0  0  0  0  0  0  0  0  0  0  0
  -35.8368   59.2705   61.6476 N   0  0  0  0  0  0  0  0  0  0  0  0
  -35.9035   57.0481   62.0219 O   0  0  0  0  0  0  0  0  0  0  0  0
  -37.2395   58.8889   61.4142 C   0  0  0  0  0  0  0  0  0  0  0  0
  -37.5620   59.0629   59.9331 C   0  0  0  0  0  0  0  0  0  0  0  0
  -37.2947   57.4137   61.8377 C   0  0  0  0  0  0  0  0  0  0  0  0
  -35.2101   58.2152   61.9691 C   0  0  0  0  0  0  0  0  0  0  0  0
  -34.0240   59.5967   64.1981 O   0  0  0  0  0  0  0  0  0  0  0  0
  -33.7840   58.1212   62.2901 C   0  0  0  0  0  0  0  0  0  0  0  0
  -32.9670   57.2284   61.5954 C   0  0  0  0  0  0  0  0  0  0  0  0
  -31.6870   56.9528   62.0446 C   0  0  0  0  0  0  0  0  0  0  0  0
  -31.2023   57.5567   63.1842 C   0  0  0  0  0  0  0  0  0  0  0  0
  -31.9934   58.4419   63.8936 C   0  0  0  0  0  0  0  0  0  0  0  0
  -33.2834   58.7302   63.4592 C   0  0  0  0  0  0  0  0  0  0  0  0
  -34.8965   59.8118   63.9327 H   0  0  0  0  0  0  0  0  0  0  0  0
  -40.2759   59.0000   65.9599 O   0  0  0  0  0  0  0  0  0  0  0  0
  -39.7746   59.8337   65.2572 C   0  0  0  0  0  0  0  0  0  0  0  0
  -38.9129   60.7737   65.6830 O   0  0  0  0  0  0  0  0  0  0  0  0
  -37.4774   60.4935   65.5798 C   0  0  0  0  0  0  0  0  0  0  0  0
  -37.2872   58.9988   65.6386 C   0  0  0  0  0  0  0  0  0  0  0  0
  -36.8380   61.2031   66.7575 C   0  0  0  0  0  0  0  0  0  0  0  0
  -35.1163   62.4189   65.5744 N   0  0  0  0  0  0  0  0  0  0  0  0
  -36.6219   63.5873   66.7700 O   0  0  0  0  0  0  0  0  0  0  0  0
  -36.1835   62.5113   66.3731 C   0  0  0  0  0  0  0  0  0  0  0  0
  -34.8095   61.5285   65.2876 H   0  0  0  0  0  0  0  0  0  0  0  0
  -33.5987   64.4159   62.9662 N   0  0  0  0  0  0  0  0  0  0  0  0
  -33.8941   62.2082   63.2302 O   0  0  0  0  0  0  0  0  0  0  0  0
  -34.3959   63.5944   65.1174 C   0  0  0  0  0  0  0  0  0  0  0  0
  -33.1741   63.8432   66.0088 C   0  0  0  0  0  0  0  0  0  0  0  0
  -32.6240   65.2619   65.9098 C   0  0  0  0  0  0  0  0  0  0  0  0
  -32.1238   65.6725   64.5391 C   0  0  0  0  0  0  0  0  0  0  0  0
  -33.2007   65.7238   63.4756 C   0  0  0  0  0  0  0  0  0  0  0  0
  -33.9403   63.3462   63.6881 C   0  0  0  0  0  0  0  0  0  0  0  0
  -33.6174   64.3112   61.9875 H   0  0  0  0  0  0  0  0  0  0  0  0
  -41.4913   59.6337   63.4328 C   0  0  0  0  0  0  0  0  0  0  0  0
  -41.5905   58.4768   62.4444 C   0  0  0  0  0  0  0  0  0  0  0  0
  -41.2964   57.1274   63.0731 C   0  0  0  0  0  0  0  0  0  0  0  0
  -42.5156   56.3802   63.5676 C   0  0  0  0  0  0  0  0  0  0  0  0
  -42.6099   56.4367   65.0176 N   0  0  0  0  0  0  0  0  0  0  0  0
  -43.5885   57.2509   66.8813 O   0  0  0  0  0  0  0  0  0  0  0  0
  -43.5179   57.1940   65.6426 C   0  0  0  0  0  0  0  0  0  0  0  0
  -41.9850   55.9001   65.5568 H   0  0  0  0  0  0  0  0  0  0  0  0
  -45.6702   58.3087   65.0959 C   0  0  0  0  0  0  0  0  0  0  0  0
  -44.4661   57.8830   64.7388 C   0  0  0  0  0  0  0  0  0  0  0  0
  -46.3144   58.2123   66.4436 C   0  0  0  0  0  0  0  0  0  0  0  0
  -47.2894   57.0438   66.5205 C   0  0  0  0  0  0  0  0  0  0  0  0
  -48.6330   57.3223   65.8691 C   0  0  0  0  0  0  0  0  0  0  0  0
  -49.1384   58.7370   66.0980 C   0  0  0  0  0  0  0  0  0  0  0  0
  -50.6224   58.9207   65.8421 C   0  0  0  0  0  0  0  0  0  0  0  0
  -50.9576   60.2215   65.1313 C   0  0  0  0  0  0  0  0  0  0  0  0
  -50.5805   60.2236   63.6628 C   0  0  0  0  0  0  0  0  0  0  0  0
  -51.1775   59.0621   62.8939 C   0  0  0  0  0  0  0  0  0  0  0  0
  -50.1544   58.1157   62.2958 C   0  0  0  0  0  0  0  0  0  0  0  0
  -50.6785   57.3800   61.0784 C   0  0  0  0  0  0  0  0  0  0  0  0
  -50.2057   57.9818   59.7652 C   0  0  0  0  0  0  0  0  0  0  0  0
  -48.7738   58.4875   59.7932 C   0  0  0  0  0  0  0  0  0  0  0  0
  -47.7308   57.3981   59.9887 C   0  0  0  0  0  0  0  0  0  0  0  0
  -46.6616   57.3652   58.9052 C   0  0  0  0  0  0  0  0  0  0  0  0
  -47.0759   58.0731   57.6252 C   0  0  0  0  0  0  0  0  0  0  0  0
  -47.1350   55.7399   56.6616 C   0  0  0  0  0  0  0  0  0  0  0  0
  -47.6361   57.1561   56.5532 C   0  0  0  0  0  0  0  0  0  0  0  0
 43 45  1  0  0  0
 43 42  1  0  0  0
 43 46  1  0  0  0
 64 65  1  0  0  0
 44 45  2  0  0  0
 65 63  1  0  0  0
  2  1  1  0  0  0
  2  4  1  0  0  0
  2  5  1  0  0  0
  3  4  2  0  0  0
 63 62  1  0  0  0
  6  8  1  0  0  0
  6 11  2  0  0  0
  7 10  1  0  0  0
  7 11  1  0  0  0
 62 61  1  0  0  0
 26 28  1  0  0  0
 26 32  1  0  0  0
 26 29  1  0  0  0
 12 18  1  0  0  0
 12 19  1  0  0  0
 61 60  1  0  0  0
 30 36  1  0  0  0
 30 37  1  0  0  0
 30 38  1  0  0  0
 20 21  2  0  0  0
 60 59  1  0  0  0
 22 21  1  0  0  0
 22 23  1  0  0  0
 59 58  1  0  0  0
 27 28  2  0  0  0
 58 57  1  0  0  0
 31 37  2  0  0  0
 57 56  1  0  0  0
 56 55  1  0  0  0
 55 54  1  0  0  0
 54 53  1  0  0  0
 53 52  1  0  0  0
 52 51  1  0  0  0
 51 50  1  0  0  0
 50 49  1  0  0  0
 49 47  1  0  0  0
 47 48  2  0  0  0
 48 45  1  0  0  0
 42 41  1  0  0  0
 41 40  1  0  0  0
 40 39  1  0  0  0
 39  1  1  0  0  0
  1 21  1  0  0  0
  8  4  1  0  0  0
  8  9  1  0  0  0
  8 10  1  0  0  0
 11 13  1  0  0  0
 13 14  2  0  0  0
 13 18  1  0  0  0
 14 15  1  0  0  0
 15 16  2  0  0  0
 16 17  1  0  0  0
 17 18  2  0  0  0
 23 24  1  0  0  0
 23 25  1  0  0  0
 25 28  1  0  0  0
 32 33  1  0  0  0
 32 37  1  0  0  0
 33 34  1  0  0  0
 34 35  1  0  0  0
 35 36  1  0  0  0
M  END
> <minimizedAffinity>
-10.93651

> <CNNscore>
0.1640659571

> <CNNaffinity>
7.4549660683

> <CNN_VS>
1.2231061459

> <CNNaffinity_variance>
1.3400690556

$$$$
/media/chris/experiments/cd1a-new-docking/inputs/ligands/7ryo_ligand.pdb


 65 67  0  0  0  0  0  0  0  0999 V2000
  -34.5606   58.3428   63.7565 C   0  0  0  0  0  0  0  0  0  0  0  0
  -35.5532   59.0754   62.9880 N   0  0  0  0  0  0  0  0  0  0  0  0
  -36.4240   57.2187   62.0673 O   0  0  0  0  0  0  0  0  0  0  0  0
  -36.4147   58.4340   62.1950 C   0  0  0  0  0  0  0  0  0  0  0  0
  -35.5906   60.0571   63.0530 H   0  0  0  0  0  0  0  0  0  0  0  0
  -38.7546   59.1827   62.0051 N   0  0  0  0  0  0  0  0  0  0  0  0
  -38.3684   61.3966   61.8235 O   0  0  0  0  0  0  0  0  0  0  0  0
  -37.4171   59.2854   61.3984 C   0  0  0  0  0  0  0  0  0  0  0  0
  -37.4796   58.7634   59.9662 C   0  0  0  0  0  0  0  0  0  0  0  0
  -37.1081   60.7892   61.4416 C   0  0  0  0  0  0  0  0  0  0  0  0
  -39.1721   60.3658   62.1940 C   0  0  0  0  0  0  0  0  0  0  0  0
  -39.4749   61.0840   64.9645 O   0  0  0  0  0  0  0  0  0  0  0  0
  -40.4616   60.7443   62.7768 C   0  0  0  0  0  0  0  0  0  0  0  0
  -41.5793   60.9085   61.9578 C   0  0  0  0  0  0  0  0  0  0  0  0
  -42.7312   61.4964   62.4514 C   0  0  0  0  0  0  0  0  0  0  0  0
  -42.7895   61.9275   63.7589 C   0  0  0  0  0  0  0  0  0  0  0  0
  -41.6939   61.7805   64.5900 C   0  0  0  0  0  0  0  0  0  0  0  0
  -40.5265   61.1939   64.1117 C   0  0  0  0  0  0  0  0  0  0  0  0
  -38.6744   60.6938   64.6734 H   0  0  0  0  0  0  0  0  0  0  0  0
  -33.8415   56.6671   62.1705 O   0  0  0  0  0  0  0  0  0  0  0  0
  -33.5777   57.6248   62.8440 C   0  0  0  0  0  0  0  0  0  0  0  0
  -32.3643   58.1996   62.9122 O   0  0  0  0  0  0  0  0  0  0  0  0
  -32.0296   59.2278   61.9220 C   0  0  0  0  0  0  0  0  0  0  0  0
  -31.4765   58.5383   60.7004 C   0  0  0  0  0  0  0  0  0  0  0  0
  -31.0051   60.1218   62.5933 C   0  0  0  0  0  0  0  0  0  0  0  0
  -31.7880   62.2879   63.3260 N   0  0  0  0  0  0  0  0  0  0  0  0
  -30.9322   62.1044   61.2535 O   0  0  0  0  0  0  0  0  0  0  0  0
  -31.2399   61.5918   62.3259 C   0  0  0  0  0  0  0  0  0  0  0  0
  -32.0144   61.8235   64.1641 H   0  0  0  0  0  0  0  0  0  0  0  0
  -32.8349   65.4571   64.7239 N   0  0  0  0  0  0  0  0  0  0  0  0
  -33.3847   63.3289   65.1701 O   0  0  0  0  0  0  0  0  0  0  0  0
  -32.0595   63.7103   63.2123 C   0  0  0  0  0  0  0  0  0  0  0  0
  -32.9106   63.9863   61.9677 C   0  0  0  0  0  0  0  0  0  0  0  0
  -32.8705   65.4403   61.5101 C   0  0  0  0  0  0  0  0  0  0  0  0
  -33.4017   66.4518   62.5062 C   0  0  0  0  0  0  0  0  0  0  0  0
  -32.5944   66.5467   63.7840 C   0  0  0  0  0  0  0  0  0  0  0  0
  -32.8181   64.1497   64.4546 C   0  0  0  0  0  0  0  0  0  0  0  0
  -33.0300   65.7128   65.6544 H   0  0  0  0  0  0  0  0  0  0  0  0
  -35.2219   57.3625   64.7264 C   0  0  0  0  0  0  0  0  0  0  0  0
  -36.3352   58.0132   65.5402 C   0  0  0  0  0  0  0  0  0  0  0  0
  -37.6212   57.2077   65.5438 C   0  0  0  0  0  0  0  0  0  0  0  0
  -38.7766   57.8565   64.8133 C   0  0  0  0  0  0  0  0  0  0  0  0
  -39.7448   58.4044   65.7499 N   0  0  0  0  0  0  0  0  0  0  0  0
  -41.8741   58.5863   66.4754 O   0  0  0  0  0  0  0  0  0  0  0  0
  -41.0470   58.1071   65.6825 C   0  0  0  0  0  0  0  0  0  0  0  0
  -39.4314   59.0141   66.4566 H   0  0  0  0  0  0  0  0  0  0  0  0
  -42.5367   57.0905   63.9735 C   0  0  0  0  0  0  0  0  0  0  0  0
  -41.3936   57.1097   64.6454 C   0  0  0  0  0  0  0  0  0  0  0  0
  -43.6847   58.0441   64.0899 C   0  0  0  0  0  0  0  0  0  0  0  0
  -44.7897   57.4905   64.9812 C   0  0  0  0  0  0  0  0  0  0  0  0
  -45.7817   58.5400   65.4520 C   0  0  0  0  0  0  0  0  0  0  0  0
  -46.6667   58.0711   66.5948 C   0  0  0  0  0  0  0  0  0  0  0  0
  -47.7550   57.0969   66.1847 C   0  0  0  0  0  0  0  0  0  0  0  0
  -48.7556   57.6852   65.2037 C   0  0  0  0  0  0  0  0  0  0  0  0
  -49.9216   58.3847   65.8745 C   0  0  0  0  0  0  0  0  0  0  0  0
  -50.7225   59.2510   64.9232 C   0  0  0  0  0  0  0  0  0  0  0  0
  -49.8969   59.9220   63.8424 C   0  0  0  0  0  0  0  0  0  0  0  0
  -50.4054   59.6222   62.4461 C   0  0  0  0  0  0  0  0  0  0  0  0
  -50.9001   58.1943   62.2825 C   0  0  0  0  0  0  0  0  0  0  0  0
  -50.7199   57.6307   60.8837 C   0  0  0  0  0  0  0  0  0  0  0  0
  -49.2888   57.2418   60.5470 C   0  0  0  0  0  0  0  0  0  0  0  0
  -48.6235   58.1571   59.5282 C   0  0  0  0  0  0  0  0  0  0  0  0
  -47.3040   57.6169   59.0007 C   0  0  0  0  0  0  0  0  0  0  0  0
  -47.6757   57.0623   56.5655 C   0  0  0  0  0  0  0  0  0  0  0  0
  -47.0089   57.9796   57.5567 C   0  0  0  0  0  0  0  0  0  0  0  0
 43 45  1  0  0  0
 43 42  1  0  0  0
 43 46  1  0  0  0
 64 65  1  0  0  0
 44 45  2  0  0  0
 65 63  1  0  0  0
  2  1  1  0  0  0
  2  4  1  0  0  0
  2  5  1  0  0  0
  3  4  2  0  0  0
 63 62  1  0  0  0
  6  8  1  0  0  0
  6 11  2  0  0  0
  7 10  1  0  0  0
  7 11  1  0  0  0
 62 61  1  0  0  0
 26 28  1  0  0  0
 26 32  1  0  0  0
 26 29  1  0  0  0
 12 18  1  0  0  0
 12 19  1  0  0  0
 61 60  1  0  0  0
 30 36  1  0  0  0
 30 37  1  0  0  0
 30 38  1  0  0  0
 20 21  2  0  0  0
 60 59  1  0  0  0
 22 21  1  0  0  0
 22 23  1  0  0  0
 59 58  1  0  0  0
 27 28  2  0  0  0
 58 57  1  0  0  0
 31 37  2  0  0  0
 57 56  1  0  0  0
 56 55  1  0  0  0
 55 54  1  0  0  0
 54 53  1  0  0  0
 53 52  1  0  0  0
 52 51  1  0  0  0
 51 50  1  0  0  0
 50 49  1  0  0  0
 49 47  1  0  0  0
 47 48  2  0  0  0
 48 45  1  0  0  0
 42 41  1  0  0  0
 41 40  1  0  0  0
 40 39  1  0  0  0
 39  1  1  0  0  0
  1 21  1  0  0  0
  8  4  1  0  0  0
  8  9  1  0  0  0
  8 10  1  0  0  0
 11 13  1  0  0  0
 13 14  2  0  0  0
 13 18  1  0  0  0
 14 15  1  0  0  0
 15 16  2  0  0  0
 16 17  1  0  0  0
 17 18  2  0  0  0
 23 24  1  0  0  0
 23 25  1  0  0  0
 25 28  1  0  0  0
 32 33  1  0  0  0
 32 37  1  0  0  0
 33 34  1  0  0  0
 34 35  1  0  0  0
 35 36  1  0  0  0
M  END
> <minimizedAffinity>
-7.99847

> <CNNscore>
0.1579239517

> <CNNaffinity>
7.1294198036

> <CNN_VS>
1.1259061098

> <CNNaffinity_variance>
0.7858185172

$$$$
/media/chris/experiments/cd1a-new-docking/inputs/ligands/7ryo_ligand.pdb


 65 67  0  0  0  0  0  0  0  0999 V2000
  -41.8287   56.7714   64.3015 C   0  0  0  0  0  0  0  0  0  0  0  0
  -41.4153   58.1239   64.6368 N   0  0  0  0  0  0  0  0  0  0  0  0
  -41.5858   57.7832   66.8523 O   0  0  0  0  0  0  0  0  0  0  0  0
  -41.3290   58.5173   65.9098 C   0  0  0  0  0  0  0  0  0  0  0  0
  -41.1961   58.7579   63.9162 H   0  0  0  0  0  0  0  0  0  0  0  0
  -39.4888   60.0169   66.5705 N   0  0  0  0  0  0  0  0  0  0  0  0
  -39.6732   61.5092   64.8905 O   0  0  0  0  0  0  0  0  0  0  0  0
  -40.9068   59.9714   66.1774 C   0  0  0  0  0  0  0  0  0  0  0  0
  -41.7561   60.5307   67.3148 C   0  0  0  0  0  0  0  0  0  0  0  0
  -40.9712   60.8637   64.9290 C   0  0  0  0  0  0  0  0  0  0  0  0
  -38.9191   60.8667   65.8202 C   0  0  0  0  0  0  0  0  0  0  0  0
  -37.3064   61.0837   63.4462 O   0  0  0  0  0  0  0  0  0  0  0  0
  -37.5032   61.2401   65.8571 C   0  0  0  0  0  0  0  0  0  0  0  0
  -36.9173   61.6481   67.0559 C   0  0  0  0  0  0  0  0  0  0  0  0
  -35.6618   62.2312   67.0613 C   0  0  0  0  0  0  0  0  0  0  0  0
  -34.9736   62.4165   65.8821 C   0  0  0  0  0  0  0  0  0  0  0  0
  -35.5339   62.0251   64.6798 C   0  0  0  0  0  0  0  0  0  0  0  0
  -36.7956   61.4391   64.6537 C   0  0  0  0  0  0  0  0  0  0  0  0
  -38.1536   60.6869   63.3944 H   0  0  0  0  0  0  0  0  0  0  0  0
  -40.9934   55.0607   62.8126 O   0  0  0  0  0  0  0  0  0  0  0  0
  -41.0014   56.2112   63.1542 C   0  0  0  0  0  0  0  0  0  0  0  0
  -40.2627   57.1812   62.5877 O   0  0  0  0  0  0  0  0  0  0  0  0
  -38.8027   57.0584   62.6402 C   0  0  0  0  0  0  0  0  0  0  0  0
  -38.3005   57.9251   63.7673 C   0  0  0  0  0  0  0  0  0  0  0  0
  -38.3055   57.5270   61.2865 C   0  0  0  0  0  0  0  0  0  0  0  0
  -35.9381   57.6274   61.7635 N   0  0  0  0  0  0  0  0  0  0  0  0
  -36.9736   59.5062   61.0859 O   0  0  0  0  0  0  0  0  0  0  0  0
  -37.0160   58.3128   61.3716 C   0  0  0  0  0  0  0  0  0  0  0  0
  -36.0320   56.6716   61.9801 H   0  0  0  0  0  0  0  0  0  0  0  0
  -32.3362   57.5757   61.4206 N   0  0  0  0  0  0  0  0  0  0  0  0
  -33.8570   55.9861   61.8580 O   0  0  0  0  0  0  0  0  0  0  0  0
  -34.6319   58.2519   61.8794 C   0  0  0  0  0  0  0  0  0  0  0  0
  -34.4843   58.9135   63.2542 C   0  0  0  0  0  0  0  0  0  0  0  0
  -33.3736   59.9564   63.3144 C   0  0  0  0  0  0  0  0  0  0  0  0
  -31.9757   59.4359   63.0450 C   0  0  0  0  0  0  0  0  0  0  0  0
  -31.7721   58.9029   61.6422 C   0  0  0  0  0  0  0  0  0  0  0  0
  -33.5734   57.1722   61.7185 C   0  0  0  0  0  0  0  0  0  0  0  0
  -31.7423   56.9076   61.0081 H   0  0  0  0  0  0  0  0  0  0  0  0
  -43.3223   56.7114   63.9781 C   0  0  0  0  0  0  0  0  0  0  0  0
  -44.0904   57.8925   64.5614 C   0  0  0  0  0  0  0  0  0  0  0  0
  -44.8165   57.5548   65.8503 C   0  0  0  0  0  0  0  0  0  0  0  0
  -46.2513   57.1094   65.6706 C   0  0  0  0  0  0  0  0  0  0  0  0
  -47.1460   57.8731   66.5255 N   0  0  0  0  0  0  0  0  0  0  0  0
  -48.5168   59.6389   66.8362 O   0  0  0  0  0  0  0  0  0  0  0  0
  -47.7632   58.9808   66.1004 C   0  0  0  0  0  0  0  0  0  0  0  0
  -47.3024   57.5648   67.4473 H   0  0  0  0  0  0  0  0  0  0  0  0
  -48.4038   59.0650   63.7012 C   0  0  0  0  0  0  0  0  0  0  0  0
  -47.5331   59.2997   64.6735 C   0  0  0  0  0  0  0  0  0  0  0  0
  -49.7706   58.4662   63.8193 C   0  0  0  0  0  0  0  0  0  0  0  0
  -50.7200   59.0147   62.7611 C   0  0  0  0  0  0  0  0  0  0  0  0
  -50.0886   60.0525   61.8492 C   0  0  0  0  0  0  0  0  0  0  0  0
  -49.5307   59.4712   60.5609 C   0  0  0  0  0  0  0  0  0  0  0  0
  -50.2248   58.2060   60.0928 C   0  0  0  0  0  0  0  0  0  0  0  0
  -49.3606   57.3396   59.1916 C   0  0  0  0  0  0  0  0  0  0  0  0
  -48.1970   56.6880   59.9127 C   0  0  0  0  0  0  0  0  0  0  0  0
  -47.4651   55.6695   59.0619 C   0  0  0  0  0  0  0  0  0  0  0  0
  -47.9094   55.6301   57.6124 C   0  0  0  0  0  0  0  0  0  0  0  0
  -46.8651   56.1861   56.6645 C   0  0  0  0  0  0  0  0  0  0  0  0
  -46.9849   57.6867   56.4545 C   0  0  0  0  0  0  0  0  0  0  0  0
  -46.1133   58.5155   57.3819 C   0  0  0  0  0  0  0  0  0  0  0  0
  -44.6813   58.0178   57.5030 C   0  0  0  0  0  0  0  0  0  0  0  0
  -43.7016   58.7240   56.5758 C   0  0  0  0  0  0  0  0  0  0  0  0
  -42.4963   59.3041   57.2982 C   0  0  0  0  0  0  0  0  0  0  0  0
  -40.8548   58.9442   59.1829 C   0  0  0  0  0  0  0  0  0  0  0  0
  -41.7205   58.3005   58.1319 C   0  0  0  0  0  0  0  0  0  0  0  0
 43 45  1  0  0  0
 43 42  1  0  0  0
 43 46  1  0  0  0
 64 65  1  0  0  0
 44 45  2  0  0  0
 65 63  1  0  0  0
  2  1  1  0  0  0
  2  4  1  0  0  0
  2  5  1  0  0  0
  3  4  2  0  0  0
 63 62  1  0  0  0
  6  8  1  0  0  0
  6 11  2  0  0  0
  7 10  1  0  0  0
  7 11  1  0  0  0
 62 61  1  0  0  0
 26 28  1  0  0  0
 26 32  1  0  0  0
 26 29  1  0  0  0
 12 18  1  0  0  0
 12 19  1  0  0  0
 61 60  1  0  0  0
 30 36  1  0  0  0
 30 37  1  0  0  0
 30 38  1  0  0  0
 20 21  2  0  0  0
 60 59  1  0  0  0
 22 21  1  0  0  0
 22 23  1  0  0  0
 59 58  1  0  0  0
 27 28  2  0  0  0
 58 57  1  0  0  0
 31 37  2  0  0  0
 57 56  1  0  0  0
 56 55  1  0  0  0
 55 54  1  0  0  0
 54 53  1  0  0  0
 53 52  1  0  0  0
 52 51  1  0  0  0
 51 50  1  0  0  0
 50 49  1  0  0  0
 49 47  1  0  0  0
 47 48  2  0  0  0
 48 45  1  0  0  0
 42 41  1  0  0  0
 41 40  1  0  0  0
 40 39  1  0  0  0
 39  1  1  0  0  0
  1 21  1  0  0  0
  8  4  1  0  0  0
  8  9  1  0  0  0
  8 10  1  0  0  0
 11 13  1  0  0  0
 13 14  2  0  0  0
 13 18  1  0  0  0
 14 15  1  0  0  0
 15 16  2  0  0  0
 16 17  1  0  0  0
 17 18  2  0  0  0
 23 24  1  0  0  0
 23 25  1  0  0  0
 25 28  1  0  0  0
 32 33  1  0  0  0
 32 37  1  0  0  0
 33 34  1  0  0  0
 34 35  1  0  0  0
 35 36  1  0  0  0
M  END
> <minimizedAffinity>
-7.80958

> <CNNscore>
0.1537022144

> <CNNaffinity>
7.6211309433

> <CNN_VS>
1.1713846922

> <CNNaffinity_variance>
1.5149657726

$$$$
