/media/chris/experiments/cd1a-new-docking/inputs/ligands/7ryo_ligand.pdb


 65 67  0  0  0  0  0  0  0  0999 V2000
  -35.0567   61.2661   63.8116 C   0  0  0  0  0  0  0  0  0  0  0  0
  -35.6018   60.2118   62.9729 N   0  0  0  0  0  0  0  0  0  0  0  0
  -34.9165   58.5667   64.3433 O   0  0  0  0  0  0  0  0  0  0  0  0
  -35.4803   58.9285   63.3213 C   0  0  0  0  0  0  0  0  0  0  0  0
  -36.0664   60.4467   62.1373 H   0  0  0  0  0  0  0  0  0  0  0  0
  -37.3801   57.4300   62.8551 N   0  0  0  0  0  0  0  0  0  0  0  0
  -37.7265   58.0120   60.7046 O   0  0  0  0  0  0  0  0  0  0  0  0
  -36.0644   57.8744   62.3663 C   0  0  0  0  0  0  0  0  0  0  0  0
  -35.1215   56.6760   62.3177 C   0  0  0  0  0  0  0  0  0  0  0  0
  -36.3595   58.4219   60.9620 C   0  0  0  0  0  0  0  0  0  0  0  0
  -38.1966   57.5459   61.8911 C   0  0  0  0  0  0  0  0  0  0  0  0
  -40.1091   58.7443   60.1050 O   0  0  0  0  0  0  0  0  0  0  0  0
  -39.6234   57.2163   61.9229 C   0  0  0  0  0  0  0  0  0  0  0  0
  -40.0863   56.1855   62.7418 C   0  0  0  0  0  0  0  0  0  0  0  0
  -41.3766   55.7040   62.6030 C   0  0  0  0  0  0  0  0  0  0  0  0
  -42.2218   56.2365   61.6540 C   0  0  0  0  0  0  0  0  0  0  0  0
  -41.7862   57.2557   60.8267 C   0  0  0  0  0  0  0  0  0  0  0  0
  -40.4920   57.7515   60.9495 C   0  0  0  0  0  0  0  0  0  0  0  0
  -39.2442   59.0999   60.1618 H   0  0  0  0  0  0  0  0  0  0  0  0
  -32.8510   61.6883   64.7047 O   0  0  0  0  0  0  0  0  0  0  0  0
  -33.5364   61.2168   63.8397 C   0  0  0  0  0  0  0  0  0  0  0  0
  -33.0645   60.5890   62.7486 O   0  0  0  0  0  0  0  0  0  0  0  0
  -32.0155   61.2528   61.9683 C   0  0  0  0  0  0  0  0  0  0  0  0
  -30.9279   60.2449   61.6945 C   0  0  0  0  0  0  0  0  0  0  0  0
  -31.5325   62.4030   62.8304 C   0  0  0  0  0  0  0  0  0  0  0  0
  -31.9265   64.7877   62.8406 N   0  0  0  0  0  0  0  0  0  0  0  0
  -31.2487   63.8233   60.9243 O   0  0  0  0  0  0  0  0  0  0  0  0
  -31.5585   63.7320   62.1089 C   0  0  0  0  0  0  0  0  0  0  0  0
  -31.9622   65.6750   62.4157 H   0  0  0  0  0  0  0  0  0  0  0  0
  -34.3455   64.4070   65.5047 N   0  0  0  0  0  0  0  0  0  0  0  0
  -34.4311   65.3767   63.4840 O   0  0  0  0  0  0  0  0  0  0  0  0
  -32.2754   64.6635   64.2451 C   0  0  0  0  0  0  0  0  0  0  0  0
  -31.5530   65.7388   65.0644 C   0  0  0  0  0  0  0  0  0  0  0  0
  -31.4848   65.4278   66.5557 C   0  0  0  0  0  0  0  0  0  0  0  0
  -32.8225   65.3170   67.2600 C   0  0  0  0  0  0  0  0  0  0  0  0
  -33.6817   64.1655   66.7813 C   0  0  0  0  0  0  0  0  0  0  0  0
  -33.7789   64.8469   64.3789 C   0  0  0  0  0  0  0  0  0  0  0  0
  -35.3127   64.2264   65.4697 H   0  0  0  0  0  0  0  0  0  0  0  0
  -35.6315   61.2025   65.2275 C   0  0  0  0  0  0  0  0  0  0  0  0
  -37.1379   61.4378   65.2534 C   0  0  0  0  0  0  0  0  0  0  0  0
  -37.9299   60.1965   65.6202 C   0  0  0  0  0  0  0  0  0  0  0  0
  -39.3760   60.4530   65.9840 C   0  0  0  0  0  0  0  0  0  0  0  0
  -40.1789   60.6913   64.7950 N   0  0  0  0  0  0  0  0  0  0  0  0
  -41.7376   59.9950   63.3187 O   0  0  0  0  0  0  0  0  0  0  0  0
  -41.0622   59.7951   64.3415 C   0  0  0  0  0  0  0  0  0  0  0  0
  -40.0687   61.5398   64.3081 H   0  0  0  0  0  0  0  0  0  0  0  0
  -42.3358   57.8991   65.3195 C   0  0  0  0  0  0  0  0  0  0  0  0
  -41.2161   58.5998   65.2004 C   0  0  0  0  0  0  0  0  0  0  0  0
  -43.6421   58.1337   64.6273 C   0  0  0  0  0  0  0  0  0  0  0  0
  -44.8093   57.5461   65.4110 C   0  0  0  0  0  0  0  0  0  0  0  0
  -46.0932   58.3491   65.2934 C   0  0  0  0  0  0  0  0  0  0  0  0
  -47.2807   57.7025   65.9870 C   0  0  0  0  0  0  0  0  0  0  0  0
  -48.5613   57.7106   65.1736 C   0  0  0  0  0  0  0  0  0  0  0  0
  -49.5606   58.7614   65.6285 C   0  0  0  0  0  0  0  0  0  0  0  0
  -49.3036   60.1355   65.0417 C   0  0  0  0  0  0  0  0  0  0  0  0
  -49.9286   60.3245   63.6740 C   0  0  0  0  0  0  0  0  0  0  0  0
  -51.1778   59.4976   63.4372 C   0  0  0  0  0  0  0  0  0  0  0  0
  -50.9595   58.3805   62.4361 C   0  0  0  0  0  0  0  0  0  0  0  0
  -49.8182   58.6556   61.4707 C   0  0  0  0  0  0  0  0  0  0  0  0
  -49.5282   57.5155   60.5102 C   0  0  0  0  0  0  0  0  0  0  0  0
  -48.0877   57.4584   60.0257 C   0  0  0  0  0  0  0  0  0  0  0  0
  -47.8683   58.1032   58.6640 C   0  0  0  0  0  0  0  0  0  0  0  0
  -46.4986   57.8134   58.0714 C   0  0  0  0  0  0  0  0  0  0  0  0
  -47.2693   55.7384   56.8562 C   0  0  0  0  0  0  0  0  0  0  0  0
  -46.5303   57.0473   56.7613 C   0  0  0  0  0  0  0  0  0  0  0  0
 43 45  1  0  0  0
 43 42  1  0  0  0
 43 46  1  0  0  0
 64 65  1  0  0  0
 44 45  2  0  0  0
 65 63  1  0  0  0
  2  1  1  0  0  0
  2  4  1  0  0  0
  2  5  1  0  0  0
  3  4  2  0  0  0
 63 62  1  0  0  0
  6  8  1  0  0  0
  6 11  2  0  0  0
  7 10  1  0  0  0
  7 11  1  0  0  0
 62 61  1  0  0  0
 26 28  1  0  0  0
 26 32  1  0  0  0
 26 29  1  0  0  0
 12 18  1  0  0  0
 12 19  1  0  0  0
 61 60  1  0  0  0
 30 36  1  0  0  0
 30 37  1  0  0  0
 30 38  1  0  0  0
 20 21  2  0  0  0
 60 59  1  0  0  0
 22 21  1  0  0  0
 22 23  1  0  0  0
 59 58  1  0  0  0
 27 28  2  0  0  0
 58 57  1  0  0  0
 31 37  2  0  0  0
 57 56  1  0  0  0
 56 55  1  0  0  0
 55 54  1  0  0  0
 54 53  1  0  0  0
 53 52  1  0  0  0
 52 51  1  0  0  0
 51 50  1  0  0  0
 50 49  1  0  0  0
 49 47  1  0  0  0
 47 48  2  0  0  0
 48 45  1  0  0  0
 42 41  1  0  0  0
 41 40  1  0  0  0
 40 39  1  0  0  0
 39  1  1  0  0  0
  1 21  1  0  0  0
  8  4  1  0  0  0
  8  9  1  0  0  0
  8 10  1  0  0  0
 11 13  1  0  0  0
 13 14  2  0  0  0
 13 18  1  0  0  0
 14 15  1  0  0  0
 15 16  2  0  0  0
 16 17  1  0  0  0
 17 18  2  0  0  0
 23 24  1  0  0  0
 23 25  1  0  0  0
 25 28  1  0  0  0
 32 33  1  0  0  0
 32 37  1  0  0  0
 33 34  1  0  0  0
 34 35  1  0  0  0
 35 36  1  0  0  0
M  END
> <minimizedAffinity>
-9.58581

> <CNNscore>
0.2626145482

> <CNNaffinity>
7.2988023758

> <CNN_VS>
1.9167716503

> <CNNaffinity_variance>
1.0301028490

$$$$
/media/chris/experiments/cd1a-new-docking/inputs/ligands/7ryo_ligand.pdb


 65 67  0  0  0  0  0  0  0  0999 V2000
  -34.3818   58.1029   63.7551 C   0  0  0  0  0  0  0  0  0  0  0  0
  -35.4761   59.0579   63.8081 N   0  0  0  0  0  0  0  0  0  0  0  0
  -36.6447   57.8571   65.3069 O   0  0  0  0  0  0  0  0  0  0  0  0
  -36.5326   58.8450   64.5963 C   0  0  0  0  0  0  0  0  0  0  0  0
  -35.4379   59.8720   63.2558 H   0  0  0  0  0  0  0  0  0  0  0  0
  -38.9532   59.2327   64.3458 N   0  0  0  0  0  0  0  0  0  0  0  0
  -39.2661   60.5002   66.1840 O   0  0  0  0  0  0  0  0  0  0  0  0
  -37.6575   59.8930   64.5757 C   0  0  0  0  0  0  0  0  0  0  0  0
  -37.3935   60.8782   63.4411 C   0  0  0  0  0  0  0  0  0  0  0  0
  -37.8446   60.6121   65.9198 C   0  0  0  0  0  0  0  0  0  0  0  0
  -39.7401   59.6229   65.2612 C   0  0  0  0  0  0  0  0  0  0  0  0
  -41.7253   60.0287   63.2171 O   0  0  0  0  0  0  0  0  0  0  0  0
  -41.1393   59.2222   65.4265 C   0  0  0  0  0  0  0  0  0  0  0  0
  -41.5302   58.4883   66.5471 C   0  0  0  0  0  0  0  0  0  0  0  0
  -42.7812   57.8981   66.5987 C   0  0  0  0  0  0  0  0  0  0  0  0
  -43.6579   58.0277   65.5436 C   0  0  0  0  0  0  0  0  0  0  0  0
  -43.2932   58.7459   64.4193 C   0  0  0  0  0  0  0  0  0  0  0  0
  -42.0393   59.3446   64.3479 C   0  0  0  0  0  0  0  0  0  0  0  0
  -40.8888   60.4433   63.1375 H   0  0  0  0  0  0  0  0  0  0  0  0
  -32.0299   58.2957   64.2769 O   0  0  0  0  0  0  0  0  0  0  0  0
  -33.0349   58.8024   63.8603 C   0  0  0  0  0  0  0  0  0  0  0  0
  -33.1308   60.0761   63.4410 O   0  0  0  0  0  0  0  0  0  0  0  0
  -32.3190   60.4887   62.2917 C   0  0  0  0  0  0  0  0  0  0  0  0
  -31.5578   59.2836   61.8000 C   0  0  0  0  0  0  0  0  0  0  0  0
  -31.4012   61.5782   62.8115 C   0  0  0  0  0  0  0  0  0  0  0  0
  -32.3240   63.8121   62.8303 N   0  0  0  0  0  0  0  0  0  0  0  0
  -31.1789   63.1426   61.0130 O   0  0  0  0  0  0  0  0  0  0  0  0
  -31.6254   62.9114   62.1332 C   0  0  0  0  0  0  0  0  0  0  0  0
  -32.4995   64.6946   62.4307 H   0  0  0  0  0  0  0  0  0  0  0  0
  -34.8189   62.4453   65.0665 N   0  0  0  0  0  0  0  0  0  0  0  0
  -34.9291   63.3520   63.0179 O   0  0  0  0  0  0  0  0  0  0  0  0
  -32.8319   63.5264   64.1607 C   0  0  0  0  0  0  0  0  0  0  0  0
  -32.7408   64.7790   65.0395 C   0  0  0  0  0  0  0  0  0  0  0  0
  -32.8134   64.4837   66.5338 C   0  0  0  0  0  0  0  0  0  0  0  0
  -34.1002   63.8382   67.0086 C   0  0  0  0  0  0  0  0  0  0  0  0
  -34.3436   62.4535   66.4458 C   0  0  0  0  0  0  0  0  0  0  0  0
  -34.2858   63.1000   64.0326 C   0  0  0  0  0  0  0  0  0  0  0  0
  -35.6165   61.8996   64.8784 H   0  0  0  0  0  0  0  0  0  0  0  0
  -34.4543   57.2447   62.4913 C   0  0  0  0  0  0  0  0  0  0  0  0
  -35.4435   57.7971   61.4706 C   0  0  0  0  0  0  0  0  0  0  0  0
  -36.8364   57.2117   61.6116 C   0  0  0  0  0  0  0  0  0  0  0  0
  -37.9540   58.1168   61.1414 C   0  0  0  0  0  0  0  0  0  0  0  0
  -39.2541   57.5580   61.4765 N   0  0  0  0  0  0  0  0  0  0  0  0
  -41.5058   57.6318   61.3405 O   0  0  0  0  0  0  0  0  0  0  0  0
  -40.3960   58.1030   61.0427 C   0  0  0  0  0  0  0  0  0  0  0  0
  -39.2952   56.7524   62.0409 H   0  0  0  0  0  0  0  0  0  0  0  0
  -40.8104   59.3706   58.9463 C   0  0  0  0  0  0  0  0  0  0  0  0
  -40.2160   59.2506   60.1258 C   0  0  0  0  0  0  0  0  0  0  0  0
  -41.7751   58.4224   58.3052 C   0  0  0  0  0  0  0  0  0  0  0  0
  -42.1605   58.8729   56.9015 C   0  0  0  0  0  0  0  0  0  0  0  0
  -43.6334   59.2107   56.7485 C   0  0  0  0  0  0  0  0  0  0  0  0
  -44.5615   58.0660   57.1195 C   0  0  0  0  0  0  0  0  0  0  0  0
  -46.0077   58.4749   57.3267 C   0  0  0  0  0  0  0  0  0  0  0  0
  -46.9934   57.3356   57.1266 C   0  0  0  0  0  0  0  0  0  0  0  0
  -46.9841   56.3219   58.2540 C   0  0  0  0  0  0  0  0  0  0  0  0
  -48.2190   56.3950   59.1296 C   0  0  0  0  0  0  0  0  0  0  0  0
  -48.2577   57.5936   60.0581 C   0  0  0  0  0  0  0  0  0  0  0  0
  -49.6338   58.2237   60.1437 C   0  0  0  0  0  0  0  0  0  0  0  0
  -50.5556   57.5187   61.1252 C   0  0  0  0  0  0  0  0  0  0  0  0
  -50.9920   58.3809   62.2970 C   0  0  0  0  0  0  0  0  0  0  0  0
  -50.3102   59.7389   62.3608 C   0  0  0  0  0  0  0  0  0  0  0  0
  -49.3765   59.9057   63.5518 C   0  0  0  0  0  0  0  0  0  0  0  0
  -48.5360   58.6719   63.8387 C   0  0  0  0  0  0  0  0  0  0  0  0
  -47.2757   58.2067   65.9768 C   0  0  0  0  0  0  0  0  0  0  0  0
  -47.2882   58.9389   64.6607 C   0  0  0  0  0  0  0  0  0  0  0  0
 43 45  1  0  0  0
 43 42  1  0  0  0
 43 46  1  0  0  0
 64 65  1  0  0  0
 44 45  2  0  0  0
 65 63  1  0  0  0
  2  1  1  0  0  0
  2  4  1  0  0  0
  2  5  1  0  0  0
  3  4  2  0  0  0
 63 62  1  0  0  0
  6  8  1  0  0  0
  6 11  2  0  0  0
  7 10  1  0  0  0
  7 11  1  0  0  0
 62 61  1  0  0  0
 26 28  1  0  0  0
 26 32  1  0  0  0
 26 29  1  0  0  0
 12 18  1  0  0  0
 12 19  1  0  0  0
 61 60  1  0  0  0
 30 36  1  0  0  0
 30 37  1  0  0  0
 30 38  1  0  0  0
 20 21  2  0  0  0
 60 59  1  0  0  0
 22 21  1  0  0  0
 22 23  1  0  0  0
 59 58  1  0  0  0
 27 28  2  0  0  0
 58 57  1  0  0  0
 31 37  2  0  0  0
 57 56  1  0  0  0
 56 55  1  0  0  0
 55 54  1  0  0  0
 54 53  1  0  0  0
 53 52  1  0  0  0
 52 51  1  0  0  0
 51 50  1  0  0  0
 50 49  1  0  0  0
 49 47  1  0  0  0
 47 48  2  0  0  0
 48 45  1  0  0  0
 42 41  1  0  0  0
 41 40  1  0  0  0
 40 39  1  0  0  0
 39  1  1  0  0  0
  1 21  1  0  0  0
  8  4  1  0  0  0
  8  9  1  0  0  0
  8 10  1  0  0  0
 11 13  1  0  0  0
 13 14  2  0  0  0
 13 18  1  0  0  0
 14 15  1  0  0  0
 15 16  2  0  0  0
 16 17  1  0  0  0
 17 18  2  0  0  0
 23 24  1  0  0  0
 23 25  1  0  0  0
 25 28  1  0  0  0
 32 33  1  0  0  0
 32 37  1  0  0  0
 33 34  1  0  0  0
 34 35  1  0  0  0
 35 36  1  0  0  0
M  END
> <minimizedAffinity>
-8.88617

> <CNNscore>
0.2580858767

> <CNNaffinity>
7.3441553116

> <CNN_VS>
1.8954228163

> <CNNaffinity_variance>
1.4549543858

$$$$
/media/chris/experiments/cd1a-new-docking/inputs/ligands/7ryo_ligand.pdb


 65 67  0  0  0  0  0  0  0  0999 V2000
  -42.6845   58.2123   65.3437 C   0  0  0  0  0  0  0  0  0  0  0  0
  -44.0163   58.4263   65.8850 N   0  0  0  0  0  0  0  0  0  0  0  0
  -44.7853   56.4388   65.1692 O   0  0  0  0  0  0  0  0  0  0  0  0
  -44.9683   57.5003   65.7463 C   0  0  0  0  0  0  0  0  0  0  0  0
  -44.2191   59.2645   66.3598 H   0  0  0  0  0  0  0  0  0  0  0  0
  -47.0578   58.7742   65.4580 N   0  0  0  0  0  0  0  0  0  0  0  0
  -48.5108   57.0727   65.7359 O   0  0  0  0  0  0  0  0  0  0  0  0
  -46.3564   57.8153   66.3276 C   0  0  0  0  0  0  0  0  0  0  0  0
  -46.1832   58.4339   67.7114 C   0  0  0  0  0  0  0  0  0  0  0  0
  -47.2924   56.5981   66.3630 C   0  0  0  0  0  0  0  0  0  0  0  0
  -48.1972   58.2805   65.1985 C   0  0  0  0  0  0  0  0  0  0  0  0
  -50.5839   59.4509   66.3020 O   0  0  0  0  0  0  0  0  0  0  0  0
  -49.2353   58.8936   64.3665 C   0  0  0  0  0  0  0  0  0  0  0  0
  -49.0285   59.0587   62.9965 C   0  0  0  0  0  0  0  0  0  0  0  0
  -49.8843   59.8474   62.2471 C   0  0  0  0  0  0  0  0  0  0  0  0
  -50.9528   60.4800   62.8443 C   0  0  0  0  0  0  0  0  0  0  0  0
  -51.1774   60.3364   64.2014 C   0  0  0  0  0  0  0  0  0  0  0  0
  -50.3269   59.5497   64.9718 C   0  0  0  0  0  0  0  0  0  0  0  0
  -50.0300   58.9289   66.8486 H   0  0  0  0  0  0  0  0  0  0  0  0
  -41.8067   59.0667   67.4272 O   0  0  0  0  0  0  0  0  0  0  0  0
  -41.6149   58.7394   66.2885 C   0  0  0  0  0  0  0  0  0  0  0  0
  -40.4264   58.8083   65.6641 O   0  0  0  0  0  0  0  0  0  0  0  0
  -39.4882   59.8570   66.0765 C   0  0  0  0  0  0  0  0  0  0  0  0
  -40.2394   61.1634   66.1258 C   0  0  0  0  0  0  0  0  0  0  0  0
  -38.3936   59.8601   65.0271 C   0  0  0  0  0  0  0  0  0  0  0  0
  -36.0291   59.4339   65.2912 N   0  0  0  0  0  0  0  0  0  0  0  0
  -37.4693   57.7477   65.6711 O   0  0  0  0  0  0  0  0  0  0  0  0
  -37.2589   58.9156   65.3559 C   0  0  0  0  0  0  0  0  0  0  0  0
  -35.2564   58.8584   65.4934 H   0  0  0  0  0  0  0  0  0  0  0  0
  -34.4876   61.9835   63.2377 N   0  0  0  0  0  0  0  0  0  0  0  0
  -33.8413   59.9333   63.8778 O   0  0  0  0  0  0  0  0  0  0  0  0
  -35.7997   60.8221   64.9310 C   0  0  0  0  0  0  0  0  0  0  0  0
  -35.4751   61.6445   66.1831 C   0  0  0  0  0  0  0  0  0  0  0  0
  -35.6632   63.1459   65.9939 C   0  0  0  0  0  0  0  0  0  0  0  0
  -34.7818   63.7852   64.9394 C   0  0  0  0  0  0  0  0  0  0  0  0
  -35.0480   63.2983   63.5304 C   0  0  0  0  0  0  0  0  0  0  0  0
  -34.6234   60.8750   63.9690 C   0  0  0  0  0  0  0  0  0  0  0  0
  -33.9533   61.9055   62.4145 H   0  0  0  0  0  0  0  0  0  0  0  0
  -42.5425   58.8368   63.9549 C   0  0  0  0  0  0  0  0  0  0  0  0
  -42.5013   60.3604   64.0052 C   0  0  0  0  0  0  0  0  0  0  0  0
  -41.9714   60.9858   62.7282 C   0  0  0  0  0  0  0  0  0  0  0  0
  -40.5287   60.6562   62.4133 C   0  0  0  0  0  0  0  0  0  0  0  0
  -40.3400   60.4501   60.9860 N   0  0  0  0  0  0  0  0  0  0  0  0
  -38.9667   60.1411   59.2219 O   0  0  0  0  0  0  0  0  0  0  0  0
  -39.1266   60.3041   60.4426 C   0  0  0  0  0  0  0  0  0  0  0  0
  -41.1310   60.4171   60.4009 H   0  0  0  0  0  0  0  0  0  0  0  0
  -37.3464   59.1830   61.7646 C   0  0  0  0  0  0  0  0  0  0  0  0
  -38.0175   60.2744   61.4221 C   0  0  0  0  0  0  0  0  0  0  0  0
  -37.5345   57.7911   61.2473 C   0  0  0  0  0  0  0  0  0  0  0  0
  -38.1450   56.8753   62.3012 C   0  0  0  0  0  0  0  0  0  0  0  0
  -39.5872   57.2082   62.6420 C   0  0  0  0  0  0  0  0  0  0  0  0
  -40.5279   56.0198   62.5325 C   0  0  0  0  0  0  0  0  0  0  0  0
  -41.5164   56.1075   61.3850 C   0  0  0  0  0  0  0  0  0  0  0  0
  -41.6000   57.4914   60.7627 C   0  0  0  0  0  0  0  0  0  0  0  0
  -41.3934   57.4933   59.2606 C   0  0  0  0  0  0  0  0  0  0  0  0
  -41.8038   58.7969   58.6055 C   0  0  0  0  0  0  0  0  0  0  0  0
  -42.0396   58.6989   57.1105 C   0  0  0  0  0  0  0  0  0  0  0  0
  -43.4518   59.0815   56.7141 C   0  0  0  0  0  0  0  0  0  0  0  0
  -44.4955   58.0747   57.1692 C   0  0  0  0  0  0  0  0  0  0  0  0
  -45.9144   58.6160   57.1881 C   0  0  0  0  0  0  0  0  0  0  0  0
  -46.9856   57.5530   57.3766 C   0  0  0  0  0  0  0  0  0  0  0  0
  -46.9379   56.8620   58.7325 C   0  0  0  0  0  0  0  0  0  0  0  0
  -47.7898   57.5457   59.7898 C   0  0  0  0  0  0  0  0  0  0  0  0
  -49.9835   56.5824   60.5871 C   0  0  0  0  0  0  0  0  0  0  0  0
  -49.2860   57.4346   59.5596 C   0  0  0  0  0  0  0  0  0  0  0  0
 43 45  1  0  0  0
 43 42  1  0  0  0
 43 46  1  0  0  0
 64 65  1  0  0  0
 44 45  2  0  0  0
 65 63  1  0  0  0
  2  1  1  0  0  0
  2  4  1  0  0  0
  2  5  1  0  0  0
  3  4  2  0  0  0
 63 62  1  0  0  0
  6  8  1  0  0  0
  6 11  2  0  0  0
  7 10  1  0  0  0
  7 11  1  0  0  0
 62 61  1  0  0  0
 26 28  1  0  0  0
 26 32  1  0  0  0
 26 29  1  0  0  0
 12 18  1  0  0  0
 12 19  1  0  0  0
 61 60  1  0  0  0
 30 36  1  0  0  0
 30 37  1  0  0  0
 30 38  1  0  0  0
 20 21  2  0  0  0
 60 59  1  0  0  0
 22 21  1  0  0  0
 22 23  1  0  0  0
 59 58  1  0  0  0
 27 28  2  0  0  0
 58 57  1  0  0  0
 31 37  2  0  0  0
 57 56  1  0  0  0
 56 55  1  0  0  0
 55 54  1  0  0  0
 54 53  1  0  0  0
 53 52  1  0  0  0
 52 51  1  0  0  0
 51 50  1  0  0  0
 50 49  1  0  0  0
 49 47  1  0  0  0
 47 48  2  0  0  0
 48 45  1  0  0  0
 42 41  1  0  0  0
 41 40  1  0  0  0
 40 39  1  0  0  0
 39  1  1  0  0  0
  1 21  1  0  0  0
  8  4  1  0  0  0
  8  9  1  0  0  0
  8 10  1  0  0  0
 11 13  1  0  0  0
 13 14  2  0  0  0
 13 18  1  0  0  0
 14 15  1  0  0  0
 15 16  2  0  0  0
 16 17  1  0  0  0
 17 18  2  0  0  0
 23 24  1  0  0  0
 23 25  1  0  0  0
 25 28  1  0  0  0
 32 33  1  0  0  0
 32 37  1  0  0  0
 33 34  1  0  0  0
 34 35  1  0  0  0
 35 36  1  0  0  0
M  END
> <minimizedAffinity>
-8.18450

> <CNNscore>
0.1802185327

> <CNNaffinity>
8.0138988495

> <CNN_VS>
1.4442530870

> <CNNaffinity_variance>
2.2117066383

$$$$
/media/chris/experiments/cd1a-new-docking/inputs/ligands/7ryo_ligand.pdb


 65 67  0  0  0  0  0  0  0  0999 V2000
  -36.0124   59.4774   63.1567 C   0  0  0  0  0  0  0  0  0  0  0  0
  -34.6201   59.8594   62.9899 N   0  0  0  0  0  0  0  0  0  0  0  0
  -34.1330   58.0776   61.7085 O   0  0  0  0  0  0  0  0  0  0  0  0
  -33.7868   59.1090   62.2650 C   0  0  0  0  0  0  0  0  0  0  0  0
  -34.2871   60.6816   63.4168 H   0  0  0  0  0  0  0  0  0  0  0  0
  -32.2751   61.0153   61.8739 N   0  0  0  0  0  0  0  0  0  0  0  0
  -30.9311   60.7298   63.6615 O   0  0  0  0  0  0  0  0  0  0  0  0
  -32.3243   59.5715   62.1581 C   0  0  0  0  0  0  0  0  0  0  0  0
  -31.6501   58.8170   61.0163 C   0  0  0  0  0  0  0  0  0  0  0  0
  -31.5428   59.4286   63.4725 C   0  0  0  0  0  0  0  0  0  0  0  0
  -31.5063   61.5407   62.7355 C   0  0  0  0  0  0  0  0  0  0  0  0
  -30.9549   63.1701   60.4280 O   0  0  0  0  0  0  0  0  0  0  0  0
  -31.1616   62.9609   62.8340 C   0  0  0  0  0  0  0  0  0  0  0  0
  -31.2300   63.6148   64.0648 C   0  0  0  0  0  0  0  0  0  0  0  0
  -31.1466   64.9948   64.1325 C   0  0  0  0  0  0  0  0  0  0  0  0
  -30.9944   65.7417   62.9847 C   0  0  0  0  0  0  0  0  0  0  0  0
  -30.9285   65.1185   61.7518 C   0  0  0  0  0  0  0  0  0  0  0  0
  -31.0127   63.7325   61.6632 C   0  0  0  0  0  0  0  0  0  0  0  0
  -31.0088   62.2394   60.3341 H   0  0  0  0  0  0  0  0  0  0  0  0
  -36.3539   61.6315   64.1979 O   0  0  0  0  0  0  0  0  0  0  0  0
  -36.8080   60.5802   63.8388 C   0  0  0  0  0  0  0  0  0  0  0  0
  -38.0886   60.2055   64.0032 O   0  0  0  0  0  0  0  0  0  0  0  0
  -38.7918   60.6562   65.2083 C   0  0  0  0  0  0  0  0  0  0  0  0
  -38.5590   59.6365   66.2944 C   0  0  0  0  0  0  0  0  0  0  0  0
  -40.2527   60.7561   64.8142 C   0  0  0  0  0  0  0  0  0  0  0  0
  -41.4737   59.3962   63.2324 N   0  0  0  0  0  0  0  0  0  0  0  0
  -39.8757   60.7734   62.4501 O   0  0  0  0  0  0  0  0  0  0  0  0
  -40.5117   60.3096   63.3925 C   0  0  0  0  0  0  0  0  0  0  0  0
  -41.6781   59.0710   62.3260 H   0  0  0  0  0  0  0  0  0  0  0  0
  -41.7615   57.3356   66.1928 N   0  0  0  0  0  0  0  0  0  0  0  0
  -40.5581   57.1521   64.3090 O   0  0  0  0  0  0  0  0  0  0  0  0
  -42.2263   58.8696   64.3575 C   0  0  0  0  0  0  0  0  0  0  0  0
  -43.5983   58.3734   63.8875 C   0  0  0  0  0  0  0  0  0  0  0  0
  -44.6152   58.2295   65.0147 C   0  0  0  0  0  0  0  0  0  0  0  0
  -44.2531   57.2298   66.0951 C   0  0  0  0  0  0  0  0  0  0  0  0
  -43.0168   57.5957   66.8894 C   0  0  0  0  0  0  0  0  0  0  0  0
  -41.4427   57.7099   64.9518 C   0  0  0  0  0  0  0  0  0  0  0  0
  -41.0779   56.8310   66.6902 H   0  0  0  0  0  0  0  0  0  0  0  0
  -36.1388   58.1593   63.9222 C   0  0  0  0  0  0  0  0  0  0  0  0
  -37.3587   57.3525   63.4908 C   0  0  0  0  0  0  0  0  0  0  0  0
  -37.4556   57.1744   61.9870 C   0  0  0  0  0  0  0  0  0  0  0  0
  -38.7973   57.5410   61.3913 C   0  0  0  0  0  0  0  0  0  0  0  0
  -38.7084   58.7731   60.6238 N   0  0  0  0  0  0  0  0  0  0  0  0
  -39.5747   60.1879   59.0935 O   0  0  0  0  0  0  0  0  0  0  0  0
  -39.6586   59.1418   59.7576 C   0  0  0  0  0  0  0  0  0  0  0  0
  -37.9235   59.3546   60.7456 H   0  0  0  0  0  0  0  0  0  0  0  0
  -41.7419   58.2318   58.7550 C   0  0  0  0  0  0  0  0  0  0  0  0
  -40.8358   58.2456   59.7233 C   0  0  0  0  0  0  0  0  0  0  0  0
  -41.7718   59.0703   57.5155 C   0  0  0  0  0  0  0  0  0  0  0  0
  -43.1214   58.9901   56.8125 C   0  0  0  0  0  0  0  0  0  0  0  0
  -44.1378   58.1217   57.5334 C   0  0  0  0  0  0  0  0  0  0  0  0
  -45.5602   58.3061   57.0314 C   0  0  0  0  0  0  0  0  0  0  0  0
  -46.5908   57.4491   57.7421 C   0  0  0  0  0  0  0  0  0  0  0  0
  -47.6796   58.2566   58.4291 C   0  0  0  0  0  0  0  0  0  0  0  0
  -48.5460   57.4338   59.3624 C   0  0  0  0  0  0  0  0  0  0  0  0
  -49.8213   58.1438   59.7705 C   0  0  0  0  0  0  0  0  0  0  0  0
  -50.6316   57.4170   60.8267 C   0  0  0  0  0  0  0  0  0  0  0  0
  -50.5702   58.0950   62.1811 C   0  0  0  0  0  0  0  0  0  0  0  0
  -49.6873   59.3321   62.1924 C   0  0  0  0  0  0  0  0  0  0  0  0
  -49.9339   60.2608   63.3686 C   0  0  0  0  0  0  0  0  0  0  0  0
  -51.0920   59.8432   64.2616 C   0  0  0  0  0  0  0  0  0  0  0  0
  -50.7246   59.7252   65.7344 C   0  0  0  0  0  0  0  0  0  0  0  0
  -49.9889   58.4387   66.0730 C   0  0  0  0  0  0  0  0  0  0  0  0
  -47.6749   58.9281   66.9571 C   0  0  0  0  0  0  0  0  0  0  0  0
  -48.4994   58.4716   65.7823 C   0  0  0  0  0  0  0  0  0  0  0  0
 43 45  1  0  0  0
 43 42  1  0  0  0
 43 46  1  0  0  0
 64 65  1  0  0  0
 44 45  2  0  0  0
 65 63  1  0  0  0
  2  1  1  0  0  0
  2  4  1  0  0  0
  2  5  1  0  0  0
  3  4  2  0  0  0
 63 62  1  0  0  0
  6  8  1  0  0  0
  6 11  2  0  0  0
  7 10  1  0  0  0
  7 11  1  0  0  0
 62 61  1  0  0  0
 26 28  1  0  0  0
 26 32  1  0  0  0
 26 29  1  0  0  0
 12 18  1  0  0  0
 12 19  1  0  0  0
 61 60  1  0  0  0
 30 36  1  0  0  0
 30 37  1  0  0  0
 30 38  1  0  0  0
 20 21  2  0  0  0
 60 59  1  0  0  0
 22 21  1  0  0  0
 22 23  1  0  0  0
 59 58  1  0  0  0
 27 28  2  0  0  0
 58 57  1  0  0  0
 31 37  2  0  0  0
 57 56  1  0  0  0
 56 55  1  0  0  0
 55 54  1  0  0  0
 54 53  1  0  0  0
 53 52  1  0  0  0
 52 51  1  0  0  0
 51 50  1  0  0  0
 50 49  1  0  0  0
 49 47  1  0  0  0
 47 48  2  0  0  0
 48 45  1  0  0  0
 42 41  1  0  0  0
 41 40  1  0  0  0
 40 39  1  0  0  0
 39  1  1  0  0  0
  1 21  1  0  0  0
  8  4  1  0  0  0
  8  9  1  0  0  0
  8 10  1  0  0  0
 11 13  1  0  0  0
 13 14  2  0  0  0
 13 18  1  0  0  0
 14 15  1  0  0  0
 15 16  2  0  0  0
 16 17  1  0  0  0
 17 18  2  0  0  0
 23 24  1  0  0  0
 23 25  1  0  0  0
 25 28  1  0  0  0
 32 33  1  0  0  0
 32 37  1  0  0  0
 33 34  1  0  0  0
 34 35  1  0  0  0
 35 36  1  0  0  0
M  END
> <minimizedAffinity>
-8.00725

> <CNNscore>
0.1799875647

> <CNNaffinity>
7.3802843094

> <CNN_VS>
1.3283593655

> <CNNaffinity_variance>
0.7281553745

$$$$
/media/chris/experiments/cd1a-new-docking/inputs/ligands/7ryo_ligand.pdb


 65 67  0  0  0  0  0  0  0  0999 V2000
  -36.7932   58.9988   63.7823 C   0  0  0  0  0  0  0  0  0  0  0  0
  -35.9932   59.9830   64.4920 N   0  0  0  0  0  0  0  0  0  0  0  0
  -36.2834   61.5658   62.9221 O   0  0  0  0  0  0  0  0  0  0  0  0
  -35.8058   61.2050   63.9875 C   0  0  0  0  0  0  0  0  0  0  0  0
  -35.5844   59.7457   65.3555 H   0  0  0  0  0  0  0  0  0  0  0  0
  -33.7484   62.5613   63.9952 N   0  0  0  0  0  0  0  0  0  0  0  0
  -34.6548   64.5135   64.6666 O   0  0  0  0  0  0  0  0  0  0  0  0
  -34.9268   62.1782   64.7903 C   0  0  0  0  0  0  0  0  0  0  0  0
  -34.4610   61.4844   66.0667 C   0  0  0  0  0  0  0  0  0  0  0  0
  -35.6181   63.5162   65.0913 C   0  0  0  0  0  0  0  0  0  0  0  0
  -33.6961   63.8288   63.9898 C   0  0  0  0  0  0  0  0  0  0  0  0
  -33.2775   63.7646   61.1430 O   0  0  0  0  0  0  0  0  0  0  0  0
  -32.6837   64.6489   63.3204 C   0  0  0  0  0  0  0  0  0  0  0  0
  -31.9731   65.6104   64.0399 C   0  0  0  0  0  0  0  0  0  0  0  0
  -31.1983   66.5497   63.3814 C   0  0  0  0  0  0  0  0  0  0  0  0
  -31.1183   66.5476   62.0058 C   0  0  0  0  0  0  0  0  0  0  0  0
  -31.8164   65.6083   61.2690 C   0  0  0  0  0  0  0  0  0  0  0  0
  -32.6022   64.6574   61.9126 C   0  0  0  0  0  0  0  0  0  0  0  0
  -33.8154   63.1116   61.5456 H   0  0  0  0  0  0  0  0  0  0  0  0
  -37.4011   57.4174   65.5059 O   0  0  0  0  0  0  0  0  0  0  0  0
  -37.7347   58.2686   64.7283 C   0  0  0  0  0  0  0  0  0  0  0  0
  -38.9983   58.6944   64.5580 O   0  0  0  0  0  0  0  0  0  0  0  0
  -39.3471   60.0350   65.0389 C   0  0  0  0  0  0  0  0  0  0  0  0
  -38.8683   60.1601   66.4632 C   0  0  0  0  0  0  0  0  0  0  0  0
  -40.8566   60.1279   64.9274 C   0  0  0  0  0  0  0  0  0  0  0  0
  -42.0232   58.2425   65.8899 N   0  0  0  0  0  0  0  0  0  0  0  0
  -41.7215   60.0755   67.1590 O   0  0  0  0  0  0  0  0  0  0  0  0
  -41.5746   59.4846   66.0928 C   0  0  0  0  0  0  0  0  0  0  0  0
  -42.5001   57.7815   66.6174 H   0  0  0  0  0  0  0  0  0  0  0  0
  -43.0519   57.3945   62.5259 N   0  0  0  0  0  0  0  0  0  0  0  0
  -44.1861   57.8950   64.3950 O   0  0  0  0  0  0  0  0  0  0  0  0
  -41.8273   57.5530   64.6266 C   0  0  0  0  0  0  0  0  0  0  0  0
  -41.4655   56.0849   64.8783 C   0  0  0  0  0  0  0  0  0  0  0  0
  -40.8094   55.4034   63.6824 C   0  0  0  0  0  0  0  0  0  0  0  0
  -41.6595   55.3255   62.4297 C   0  0  0  0  0  0  0  0  0  0  0  0
  -41.9962   56.6720   61.8242 C   0  0  0  0  0  0  0  0  0  0  0  0
  -43.1252   57.6286   63.8380 C   0  0  0  0  0  0  0  0  0  0  0  0
  -43.7872   57.7462   61.9738 H   0  0  0  0  0  0  0  0  0  0  0  0
  -35.9096   58.0101   63.0201 C   0  0  0  0  0  0  0  0  0  0  0  0
  -36.1886   58.0188   61.5209 C   0  0  0  0  0  0  0  0  0  0  0  0
  -37.6526   58.2378   61.1873 C   0  0  0  0  0  0  0  0  0  0  0  0
  -37.9021   59.0147   59.9131 C   0  0  0  0  0  0  0  0  0  0  0  0
  -38.8710   60.0771   60.1308 N   0  0  0  0  0  0  0  0  0  0  0  0
  -40.9934   60.8372   60.0236 O   0  0  0  0  0  0  0  0  0  0  0  0
  -40.1696   59.9244   59.8490 C   0  0  0  0  0  0  0  0  0  0  0  0
  -38.5612   60.9367   60.4974 H   0  0  0  0  0  0  0  0  0  0  0  0
  -41.4202   58.3083   58.4356 C   0  0  0  0  0  0  0  0  0  0  0  0
  -40.5409   58.5659   59.3945 C   0  0  0  0  0  0  0  0  0  0  0  0
  -42.1932   59.2910   57.6126 C   0  0  0  0  0  0  0  0  0  0  0  0
  -43.2450   58.6019   56.7518 C   0  0  0  0  0  0  0  0  0  0  0  0
  -44.6737   58.9113   57.1642 C   0  0  0  0  0  0  0  0  0  0  0  0
  -45.5963   57.7048   57.1129 C   0  0  0  0  0  0  0  0  0  0  0  0
  -46.2663   57.3726   58.4328 C   0  0  0  0  0  0  0  0  0  0  0  0
  -47.5579   58.1388   58.6657 C   0  0  0  0  0  0  0  0  0  0  0  0
  -48.2818   57.7338   59.9349 C   0  0  0  0  0  0  0  0  0  0  0  0
  -49.7794   57.9544   59.8615 C   0  0  0  0  0  0  0  0  0  0  0  0
  -50.5639   57.3000   60.9825 C   0  0  0  0  0  0  0  0  0  0  0  0
  -51.0958   58.3023   61.9876 C   0  0  0  0  0  0  0  0  0  0  0  0
  -50.1797   58.4937   63.1852 C   0  0  0  0  0  0  0  0  0  0  0  0
  -50.0236   59.9395   63.6234 C   0  0  0  0  0  0  0  0  0  0  0  0
  -48.7239   60.2326   64.3570 C   0  0  0  0  0  0  0  0  0  0  0  0
  -47.8758   58.9975   64.6278 C   0  0  0  0  0  0  0  0  0  0  0  0
  -48.0884   58.4099   66.0137 C   0  0  0  0  0  0  0  0  0  0  0  0
  -46.2276   57.4311   67.4119 C   0  0  0  0  0  0  0  0  0  0  0  0
  -46.9580   58.6789   66.9903 C   0  0  0  0  0  0  0  0  0  0  0  0
 43 45  1  0  0  0
 43 42  1  0  0  0
 43 46  1  0  0  0
 64 65  1  0  0  0
 44 45  2  0  0  0
 65 63  1  0  0  0
  2  1  1  0  0  0
  2  4  1  0  0  0
  2  5  1  0  0  0
  3  4  2  0  0  0
 63 62  1  0  0  0
  6  8  1  0  0  0
  6 11  2  0  0  0
  7 10  1  0  0  0
  7 11  1  0  0  0
 62 61  1  0  0  0
 26 28  1  0  0  0
 26 32  1  0  0  0
 26 29  1  0  0  0
 12 18  1  0  0  0
 12 19  1  0  0  0
 61 60  1  0  0  0
 30 36  1  0  0  0
 30 37  1  0  0  0
 30 38  1  0  0  0
 20 21  2  0  0  0
 60 59  1  0  0  0
 22 21  1  0  0  0
 22 23  1  0  0  0
 59 58  1  0  0  0
 27 28  2  0  0  0
 58 57  1  0  0  0
 31 37  2  0  0  0
 57 56  1  0  0  0
 56 55  1  0  0  0
 55 54  1  0  0  0
 54 53  1  0  0  0
 53 52  1  0  0  0
 52 51  1  0  0  0
 51 50  1  0  0  0
 50 49  1  0  0  0
 49 47  1  0  0  0
 47 48  2  0  0  0
 48 45  1  0  0  0
 42 41  1  0  0  0
 41 40  1  0  0  0
 40 39  1  0  0  0
 39  1  1  0  0  0
  1 21  1  0  0  0
  8  4  1  0  0  0
  8  9  1  0  0  0
  8 10  1  0  0  0
 11 13  1  0  0  0
 13 14  2  0  0  0
 13 18  1  0  0  0
 14 15  1  0  0  0
 15 16  2  0  0  0
 16 17  1  0  0  0
 17 18  2  0  0  0
 23 24  1  0  0  0
 23 25  1  0  0  0
 25 28  1  0  0  0
 32 33  1  0  0  0
 32 37  1  0  0  0
 33 34  1  0  0  0
 34 35  1  0  0  0
 35 36  1  0  0  0
M  END
> <minimizedAffinity>
-8.20027

> <CNNscore>
0.1798918098

> <CNNaffinity>
7.3077173233

> <CNN_VS>
1.3145984411

> <CNNaffinity_variance>
1.7633117437

$$$$
/media/chris/experiments/cd1a-new-docking/inputs/ligands/7ryo_ligand.pdb


 65 67  0  0  0  0  0  0  0  0999 V2000
  -39.4189   59.6784   64.7992 C   0  0  0  0  0  0  0  0  0  0  0  0
  -40.4882   59.1165   65.6075 N   0  0  0  0  0  0  0  0  0  0  0  0
  -41.1673   61.1215   66.3643 O   0  0  0  0  0  0  0  0  0  0  0  0
  -41.2840   59.9055   66.3336 C   0  0  0  0  0  0  0  0  0  0  0  0
  -40.6274   58.1420   65.6199 H   0  0  0  0  0  0  0  0  0  0  0  0
  -43.6917   59.4275   66.5497 N   0  0  0  0  0  0  0  0  0  0  0  0
  -43.5464   57.2053   66.9021 O   0  0  0  0  0  0  0  0  0  0  0  0
  -42.3756   59.2291   67.1791 C   0  0  0  0  0  0  0  0  0  0  0  0
  -42.3881   59.8622   68.5671 C   0  0  0  0  0  0  0  0  0  0  0  0
  -42.2299   57.7019   67.2530 C   0  0  0  0  0  0  0  0  0  0  0  0
  -44.2330   58.2849   66.4450 C   0  0  0  0  0  0  0  0  0  0  0  0
  -46.2665   56.8373   67.8779 O   0  0  0  0  0  0  0  0  0  0  0  0
  -45.5530   58.0031   65.8761 C   0  0  0  0  0  0  0  0  0  0  0  0
  -45.9221   58.5618   64.6518 C   0  0  0  0  0  0  0  0  0  0  0  0
  -47.2368   58.5064   64.2224 C   0  0  0  0  0  0  0  0  0  0  0  0
  -48.1993   57.8983   64.9986 C   0  0  0  0  0  0  0  0  0  0  0  0
  -47.8607   57.3410   66.2182 C   0  0  0  0  0  0  0  0  0  0  0  0
  -46.5448   57.3885   66.6679 C   0  0  0  0  0  0  0  0  0  0  0  0
  -45.3903   56.8529   68.2093 H   0  0  0  0  0  0  0  0  0  0  0  0
  -38.2083   61.3242   66.0901 O   0  0  0  0  0  0  0  0  0  0  0  0
  -38.2873   60.2026   65.6704 C   0  0  0  0  0  0  0  0  0  0  0  0
  -37.3750   59.2397   65.8885 O   0  0  0  0  0  0  0  0  0  0  0  0
  -36.4256   58.9304   64.8147 C   0  0  0  0  0  0  0  0  0  0  0  0
  -36.0684   57.4688   64.9130 C   0  0  0  0  0  0  0  0  0  0  0  0
  -35.2313   59.8336   65.0541 C   0  0  0  0  0  0  0  0  0  0  0  0
  -34.2507   60.6720   63.0102 N   0  0  0  0  0  0  0  0  0  0  0  0
  -35.7411   61.9652   64.0910 O   0  0  0  0  0  0  0  0  0  0  0  0
  -35.0975   60.9225   64.0129 C   0  0  0  0  0  0  0  0  0  0  0  0
  -34.1262   61.3513   62.3085 H   0  0  0  0  0  0  0  0  0  0  0  0
  -31.1564   58.8137   62.7542 N   0  0  0  0  0  0  0  0  0  0  0  0
  -31.7968   60.8330   62.0171 O   0  0  0  0  0  0  0  0  0  0  0  0
  -33.5086   59.4263   62.9258 C   0  0  0  0  0  0  0  0  0  0  0  0
  -34.1389   58.5079   61.8728 C   0  0  0  0  0  0  0  0  0  0  0  0
  -33.7370   57.0442   62.0191 C   0  0  0  0  0  0  0  0  0  0  0  0
  -32.2564   56.7568   61.8666 C   0  0  0  0  0  0  0  0  0  0  0  0
  -31.3892   57.3851   62.9373 C   0  0  0  0  0  0  0  0  0  0  0  0
  -32.0782   59.7518   62.5257 C   0  0  0  0  0  0  0  0  0  0  0  0
  -30.2214   59.1178   62.8043 H   0  0  0  0  0  0  0  0  0  0  0  0
  -39.9430   60.7724   63.8678 C   0  0  0  0  0  0  0  0  0  0  0  0
  -41.3400   60.4648   63.3396 C   0  0  0  0  0  0  0  0  0  0  0  0
  -41.4095   59.1682   62.5545 C   0  0  0  0  0  0  0  0  0  0  0  0
  -42.5828   58.2788   62.9038 C   0  0  0  0  0  0  0  0  0  0  0  0
  -42.2266   57.3311   63.9478 N   0  0  0  0  0  0  0  0  0  0  0  0
  -41.3110   55.3647   64.5714 O   0  0  0  0  0  0  0  0  0  0  0  0
  -41.6027   56.1787   63.6799 C   0  0  0  0  0  0  0  0  0  0  0  0
  -42.4521   57.5446   64.8820 H   0  0  0  0  0  0  0  0  0  0  0  0
  -40.0717   56.3888   61.7344 C   0  0  0  0  0  0  0  0  0  0  0  0
  -41.2268   56.0028   62.2594 C   0  0  0  0  0  0  0  0  0  0  0  0
  -38.9219   57.0462   62.4316 C   0  0  0  0  0  0  0  0  0  0  0  0
  -37.9290   57.6437   61.4421 C   0  0  0  0  0  0  0  0  0  0  0  0
  -37.7700   59.1491   61.5661 C   0  0  0  0  0  0  0  0  0  0  0  0
  -38.3379   59.9198   60.3859 C   0  0  0  0  0  0  0  0  0  0  0  0
  -39.1766   59.0838   59.4376 C   0  0  0  0  0  0  0  0  0  0  0  0
  -40.5649   59.6527   59.1956 C   0  0  0  0  0  0  0  0  0  0  0  0
  -41.5446   58.6406   58.6348 C   0  0  0  0  0  0  0  0  0  0  0  0
  -41.7662   58.7909   57.1431 C   0  0  0  0  0  0  0  0  0  0  0  0
  -43.2093   59.0367   56.7464 C   0  0  0  0  0  0  0  0  0  0  0  0
  -44.1910   58.2488   57.5910 C   0  0  0  0  0  0  0  0  0  0  0  0
  -45.5884   58.1986   56.9953 C   0  0  0  0  0  0  0  0  0  0  0  0
  -46.7038   58.3719   58.0115 C   0  0  0  0  0  0  0  0  0  0  0  0
  -47.7397   57.2586   57.9973 C   0  0  0  0  0  0  0  0  0  0  0  0
  -48.9327   57.5136   58.9083 C   0  0  0  0  0  0  0  0  0  0  0  0
  -48.5443   57.7732   60.3549 C   0  0  0  0  0  0  0  0  0  0  0  0
  -50.5063   58.1330   61.9033 C   0  0  0  0  0  0  0  0  0  0  0  0
  -49.4281   58.7775   61.0722 C   0  0  0  0  0  0  0  0  0  0  0  0
 43 45  1  0  0  0
 43 42  1  0  0  0
 43 46  1  0  0  0
 64 65  1  0  0  0
 44 45  2  0  0  0
 65 63  1  0  0  0
  2  1  1  0  0  0
  2  4  1  0  0  0
  2  5  1  0  0  0
  3  4  2  0  0  0
 63 62  1  0  0  0
  6  8  1  0  0  0
  6 11  2  0  0  0
  7 10  1  0  0  0
  7 11  1  0  0  0
 62 61  1  0  0  0
 26 28  1  0  0  0
 26 32  1  0  0  0
 26 29  1  0  0  0
 12 18  1  0  0  0
 12 19  1  0  0  0
 61 60  1  0  0  0
 30 36  1  0  0  0
 30 37  1  0  0  0
 30 38  1  0  0  0
 20 21  2  0  0  0
 60 59  1  0  0  0
 22 21  1  0  0  0
 22 23  1  0  0  0
 59 58  1  0  0  0
 27 28  2  0  0  0
 58 57  1  0  0  0
 31 37  2  0  0  0
 57 56  1  0  0  0
 56 55  1  0  0  0
 55 54  1  0  0  0
 54 53  1  0  0  0
 53 52  1  0  0  0
 52 51  1  0  0  0
 51 50  1  0  0  0
 50 49  1  0  0  0
 49 47  1  0  0  0
 47 48  2  0  0  0
 48 45  1  0  0  0
 42 41  1  0  0  0
 41 40  1  0  0  0
 40 39  1  0  0  0
 39  1  1  0  0  0
  1 21  1  0  0  0
  8  4  1  0  0  0
  8  9  1  0  0  0
  8 10  1  0  0  0
 11 13  1  0  0  0
 13 14  2  0  0  0
 13 18  1  0  0  0
 14 15  1  0  0  0
 15 16  2  0  0  0
 16 17  1  0  0  0
 17 18  2  0  0  0
 23 24  1  0  0  0
 23 25  1  0  0  0
 25 28  1  0  0  0
 32 33  1  0  0  0
 32 37  1  0  0  0
 33 34  1  0  0  0
 34 35  1  0  0  0
 35 36  1  0  0  0
M  END
> <minimizedAffinity>
-7.51091

> <CNNscore>
0.1761211008

> <CNNaffinity>
7.9582290649

> <CNN_VS>
1.4016120434

> <CNNaffinity_variance>
2.1542272568

$$$$
/media/chris/experiments/cd1a-new-docking/inputs/ligands/7ryo_ligand.pdb


 65 67  0  0  0  0  0  0  0  0999 V2000
  -39.7125   59.1128   64.9399 C   0  0  0  0  0  0  0  0  0  0  0  0
  -40.7980   58.3367   65.5159 N   0  0  0  0  0  0  0  0  0  0  0  0
  -42.3968   59.5392   64.4903 O   0  0  0  0  0  0  0  0  0  0  0  0
  -42.0707   58.6256   65.2335 C   0  0  0  0  0  0  0  0  0  0  0  0
  -40.5924   57.5887   66.1220 H   0  0  0  0  0  0  0  0  0  0  0  0
  -44.4025   58.5492   66.0266 N   0  0  0  0  0  0  0  0  0  0  0  0
  -45.0191   56.6270   65.0224 O   0  0  0  0  0  0  0  0  0  0  0  0
  -43.1591   57.7706   65.9030 C   0  0  0  0  0  0  0  0  0  0  0  0
  -42.6838   57.3688   67.2960 C   0  0  0  0  0  0  0  0  0  0  0  0
  -43.5718   56.5483   65.0696 C   0  0  0  0  0  0  0  0  0  0  0  0
  -45.3339   57.8497   65.5239 C   0  0  0  0  0  0  0  0  0  0  0  0
  -47.4635   56.1530   66.4565 O   0  0  0  0  0  0  0  0  0  0  0  0
  -46.7457   58.2291   65.4317 C   0  0  0  0  0  0  0  0  0  0  0  0
  -47.1008   59.5110   65.0099 C   0  0  0  0  0  0  0  0  0  0  0  0
  -48.4023   59.9609   65.1495 C   0  0  0  0  0  0  0  0  0  0  0  0
  -49.3655   59.1484   65.7068 C   0  0  0  0  0  0  0  0  0  0  0  0
  -49.0388   57.8752   66.1371 C   0  0  0  0  0  0  0  0  0  0  0  0
  -47.7354   57.4059   66.0073 C   0  0  0  0  0  0  0  0  0  0  0  0
  -46.5957   55.8074   66.3838 H   0  0  0  0  0  0  0  0  0  0  0  0
  -40.2269   61.2273   65.9913 O   0  0  0  0  0  0  0  0  0  0  0  0
  -39.4293   60.3597   65.7643 C   0  0  0  0  0  0  0  0  0  0  0  0
  -38.1532   60.3659   66.1870 O   0  0  0  0  0  0  0  0  0  0  0  0
  -37.0951   60.5523   65.1891 C   0  0  0  0  0  0  0  0  0  0  0  0
  -35.8896   59.7626   65.6329 C   0  0  0  0  0  0  0  0  0  0  0  0
  -36.8265   62.0443   65.1539 C   0  0  0  0  0  0  0  0  0  0  0  0
  -34.9245   63.1630   66.1403 N   0  0  0  0  0  0  0  0  0  0  0  0
  -36.5305   62.3773   67.5060 O   0  0  0  0  0  0  0  0  0  0  0  0
  -36.0823   62.5384   66.3743 C   0  0  0  0  0  0  0  0  0  0  0  0
  -34.4008   63.5007   66.9025 H   0  0  0  0  0  0  0  0  0  0  0  0
  -32.2090   63.4524   63.7663 N   0  0  0  0  0  0  0  0  0  0  0  0
  -32.4041   63.9640   65.9414 O   0  0  0  0  0  0  0  0  0  0  0  0
  -34.4166   63.3580   64.7936 C   0  0  0  0  0  0  0  0  0  0  0  0
  -35.1075   64.5594   64.1389 C   0  0  0  0  0  0  0  0  0  0  0  0
  -34.9927   64.5766   62.6184 C   0  0  0  0  0  0  0  0  0  0  0  0
  -33.5815   64.6674   62.0726 C   0  0  0  0  0  0  0  0  0  0  0  0
  -32.7129   63.4702   62.3972 C   0  0  0  0  0  0  0  0  0  0  0  0
  -32.9212   63.6182   64.8831 C   0  0  0  0  0  0  0  0  0  0  0  0
  -31.2425   63.3023   63.8783 H   0  0  0  0  0  0  0  0  0  0  0  0
  -40.0016   59.4756   63.4825 C   0  0  0  0  0  0  0  0  0  0  0  0
  -40.3040   58.2493   62.6282 C   0  0  0  0  0  0  0  0  0  0  0  0
  -39.3877   57.0760   62.9223 C   0  0  0  0  0  0  0  0  0  0  0  0
  -38.1147   57.0466   62.1051 C   0  0  0  0  0  0  0  0  0  0  0  0
  -37.1409   57.9953   62.6216 N   0  0  0  0  0  0  0  0  0  0  0  0
  -35.5575   59.5621   62.2584 O   0  0  0  0  0  0  0  0  0  0  0  0
  -36.3977   58.7618   61.8158 C   0  0  0  0  0  0  0  0  0  0  0  0
  -37.0249   58.0760   63.5958 H   0  0  0  0  0  0  0  0  0  0  0  0
  -37.6962   59.2832   59.7626 C   0  0  0  0  0  0  0  0  0  0  0  0
  -36.7200   58.6292   60.3775 C   0  0  0  0  0  0  0  0  0  0  0  0
  -38.6454   60.2793   60.3519 C   0  0  0  0  0  0  0  0  0  0  0  0
  -40.0221   60.1986   59.7038 C   0  0  0  0  0  0  0  0  0  0  0  0
  -40.2922   58.8802   58.9997 C   0  0  0  0  0  0  0  0  0  0  0  0
  -41.7477   58.6871   58.6077 C   0  0  0  0  0  0  0  0  0  0  0  0
  -42.0057   58.7390   57.1136 C   0  0  0  0  0  0  0  0  0  0  0  0
  -43.4330   59.1214   56.7588 C   0  0  0  0  0  0  0  0  0  0  0  0
  -44.4678   58.1364   57.2665 C   0  0  0  0  0  0  0  0  0  0  0  0
  -45.8763   58.6959   57.2572 C   0  0  0  0  0  0  0  0  0  0  0  0
  -46.9653   57.6518   57.4127 C   0  0  0  0  0  0  0  0  0  0  0  0
  -46.6798   56.6701   58.5319 C   0  0  0  0  0  0  0  0  0  0  0  0
  -47.9317   56.0022   59.0769 C   0  0  0  0  0  0  0  0  0  0  0  0
  -49.0404   56.9708   59.4502 C   0  0  0  0  0  0  0  0  0  0  0  0
  -49.8922   56.5210   60.6271 C   0  0  0  0  0  0  0  0  0  0  0  0
  -50.9373   57.5408   61.0584 C   0  0  0  0  0  0  0  0  0  0  0  0
  -50.6490   58.1658   62.4139 C   0  0  0  0  0  0  0  0  0  0  0  0
  -49.6428   60.2266   61.3571 C   0  0  0  0  0  0  0  0  0  0  0  0
  -50.5783   59.6821   62.4043 C   0  0  0  0  0  0  0  0  0  0  0  0
 43 45  1  0  0  0
 43 42  1  0  0  0
 43 46  1  0  0  0
 64 65  1  0  0  0
 44 45  2  0  0  0
 65 63  1  0  0  0
  2  1  1  0  0  0
  2  4  1  0  0  0
  2  5  1  0  0  0
  3  4  2  0  0  0
 63 62  1  0  0  0
  6  8  1  0  0  0
  6 11  2  0  0  0
  7 10  1  0  0  0
  7 11  1  0  0  0
 62 61  1  0  0  0
 26 28  1  0  0  0
 26 32  1  0  0  0
 26 29  1  0  0  0
 12 18  1  0  0  0
 12 19  1  0  0  0
 61 60  1  0  0  0
 30 36  1  0  0  0
 30 37  1  0  0  0
 30 38  1  0  0  0
 20 21  2  0  0  0
 60 59  1  0  0  0
 22 21  1  0  0  0
 22 23  1  0  0  0
 59 58  1  0  0  0
 27 28  2  0  0  0
 58 57  1  0  0  0
 31 37  2  0  0  0
 57 56  1  0  0  0
 56 55  1  0  0  0
 55 54  1  0  0  0
 54 53  1  0  0  0
 53 52  1  0  0  0
 52 51  1  0  0  0
 51 50  1  0  0  0
 50 49  1  0  0  0
 49 47  1  0  0  0
 47 48  2  0  0  0
 48 45  1  0  0  0
 42 41  1  0  0  0
 41 40  1  0  0  0
 40 39  1  0  0  0
 39  1  1  0  0  0
  1 21  1  0  0  0
  8  4  1  0  0  0
  8  9  1  0  0  0
  8 10  1  0  0  0
 11 13  1  0  0  0
 13 14  2  0  0  0
 13 18  1  0  0  0
 14 15  1  0  0  0
 15 16  2  0  0  0
 16 17  1  0  0  0
 17 18  2  0  0  0
 23 24  1  0  0  0
 23 25  1  0  0  0
 25 28  1  0  0  0
 32 33  1  0  0  0
 32 37  1  0  0  0
 33 34  1  0  0  0
 34 35  1  0  0  0
 35 36  1  0  0  0
M  END
> <minimizedAffinity>
-8.55259

> <CNNscore>
0.1750675291

> <CNNaffinity>
7.7438645363

> <CNN_VS>
1.3556991816

> <CNNaffinity_variance>
1.0407861471

$$$$
/media/chris/experiments/cd1a-new-docking/inputs/ligands/7ryo_ligand.pdb


 65 67  0  0  0  0  0  0  0  0999 V2000
  -38.3442   58.4648   64.7714 C   0  0  0  0  0  0  0  0  0  0  0  0
  -39.5843   57.7305   64.5835 N   0  0  0  0  0  0  0  0  0  0  0  0
  -39.1628   57.2841   62.4209 O   0  0  0  0  0  0  0  0  0  0  0  0
  -39.8894   57.1942   63.3993 C   0  0  0  0  0  0  0  0  0  0  0  0
  -40.2073   57.6273   65.3388 H   0  0  0  0  0  0  0  0  0  0  0  0
  -42.0278   56.6584   64.5002 N   0  0  0  0  0  0  0  0  0  0  0  0
  -43.4081   57.2172   62.8073 O   0  0  0  0  0  0  0  0  0  0  0  0
  -41.2315   56.4537   63.2790 C   0  0  0  0  0  0  0  0  0  0  0  0
  -40.9588   54.9624   63.1076 C   0  0  0  0  0  0  0  0  0  0  0  0
  -42.1295   56.9990   62.1587 C   0  0  0  0  0  0  0  0  0  0  0  0
  -43.1719   57.0689   64.1370 C   0  0  0  0  0  0  0  0  0  0  0  0
  -42.8708   57.3584   66.9847 O   0  0  0  0  0  0  0  0  0  0  0  0
  -44.2916   57.4007   65.0212 C   0  0  0  0  0  0  0  0  0  0  0  0
  -45.5353   57.7327   64.4825 C   0  0  0  0  0  0  0  0  0  0  0  0
  -46.5236   58.2800   65.2824 C   0  0  0  0  0  0  0  0  0  0  0  0
  -46.2924   58.5043   66.6221 C   0  0  0  0  0  0  0  0  0  0  0  0
  -45.0668   58.1885   67.1798 C   0  0  0  0  0  0  0  0  0  0  0  0
  -44.0602   57.6395   66.3916 C   0  0  0  0  0  0  0  0  0  0  0  0
  -42.1725   56.9882   66.4816 H   0  0  0  0  0  0  0  0  0  0  0  0
  -37.0621   56.9699   66.1723 O   0  0  0  0  0  0  0  0  0  0  0  0
  -37.1968   57.5280   65.1184 C   0  0  0  0  0  0  0  0  0  0  0  0
  -36.3410   57.4278   64.0865 O   0  0  0  0  0  0  0  0  0  0  0  0
  -35.8619   58.6653   63.4627 C   0  0  0  0  0  0  0  0  0  0  0  0
  -35.8402   58.4582   61.9693 C   0  0  0  0  0  0  0  0  0  0  0  0
  -34.4764   58.8991   64.0330 C   0  0  0  0  0  0  0  0  0  0  0  0
  -33.5482   61.0561   63.4601 N   0  0  0  0  0  0  0  0  0  0  0  0
  -32.9963   59.2824   62.1908 O   0  0  0  0  0  0  0  0  0  0  0  0
  -33.6094   59.7599   63.1414 C   0  0  0  0  0  0  0  0  0  0  0  0
  -32.9993   61.6588   62.9082 H   0  0  0  0  0  0  0  0  0  0  0  0
  -36.5645   62.2931   65.0303 N   0  0  0  0  0  0  0  0  0  0  0  0
  -35.8144   62.3221   62.9167 O   0  0  0  0  0  0  0  0  0  0  0  0
  -34.2685   61.6012   64.5975 C   0  0  0  0  0  0  0  0  0  0  0  0
  -33.4804   62.7633   65.2124 C   0  0  0  0  0  0  0  0  0  0  0  0
  -33.9014   63.1002   66.6387 C   0  0  0  0  0  0  0  0  0  0  0  0
  -35.3395   63.5501   66.8045 C   0  0  0  0  0  0  0  0  0  0  0  0
  -36.3644   62.4892   66.4621 C   0  0  0  0  0  0  0  0  0  0  0  0
  -35.6175   62.1042   64.1086 C   0  0  0  0  0  0  0  0  0  0  0  0
  -37.4955   62.3008   64.7102 H   0  0  0  0  0  0  0  0  0  0  0  0
  -38.4995   59.5548   65.8329 C   0  0  0  0  0  0  0  0  0  0  0  0
  -39.8150   59.4390   66.5955 C   0  0  0  0  0  0  0  0  0  0  0  0
  -40.9487   60.2155   65.9518 C   0  0  0  0  0  0  0  0  0  0  0  0
  -40.5085   61.3055   64.9992 C   0  0  0  0  0  0  0  0  0  0  0  0
  -41.5365   61.5784   64.0074 N   0  0  0  0  0  0  0  0  0  0  0  0
  -42.2206   61.5941   61.8567 O   0  0  0  0  0  0  0  0  0  0  0  0
  -41.3462   61.3484   62.7036 C   0  0  0  0  0  0  0  0  0  0  0  0
  -42.4006   61.9443   64.3052 H   0  0  0  0  0  0  0  0  0  0  0  0
  -39.7593   60.1562   61.2090 C   0  0  0  0  0  0  0  0  0  0  0  0
  -40.0511   60.7104   62.3780 C   0  0  0  0  0  0  0  0  0  0  0  0
  -40.6284   60.0686   59.9935 C   0  0  0  0  0  0  0  0  0  0  0  0
  -40.5257   58.7038   59.3237 C   0  0  0  0  0  0  0  0  0  0  0  0
  -41.7600   58.3168   58.5275 C   0  0  0  0  0  0  0  0  0  0  0  0
  -41.9219   59.1022   57.2367 C   0  0  0  0  0  0  0  0  0  0  0  0
  -43.3229   59.0691   56.6554 C   0  0  0  0  0  0  0  0  0  0  0  0
  -44.2858   58.1989   57.4462 C   0  0  0  0  0  0  0  0  0  0  0  0
  -45.7404   58.4171   57.0784 C   0  0  0  0  0  0  0  0  0  0  0  0
  -46.6717   57.4001   57.7072 C   0  0  0  0  0  0  0  0  0  0  0  0
  -47.5134   57.9426   58.8464 C   0  0  0  0  0  0  0  0  0  0  0  0
  -48.6207   56.9935   59.2598 C   0  0  0  0  0  0  0  0  0  0  0  0
  -49.8847   57.7074   59.7101 C   0  0  0  0  0  0  0  0  0  0  0  0
  -49.9558   57.9609   61.2059 C   0  0  0  0  0  0  0  0  0  0  0  0
  -49.6848   59.4022   61.6084 C   0  0  0  0  0  0  0  0  0  0  0  0
  -50.4946   59.8706   62.8097 C   0  0  0  0  0  0  0  0  0  0  0  0
  -50.6559   58.8057   63.8825 C   0  0  0  0  0  0  0  0  0  0  0  0
  -50.7245   60.8449   65.3701 C   0  0  0  0  0  0  0  0  0  0  0  0
  -50.6675   59.3414   65.3027 C   0  0  0  0  0  0  0  0  0  0  0  0
 43 45  1  0  0  0
 43 42  1  0  0  0
 43 46  1  0  0  0
 64 65  1  0  0  0
 44 45  2  0  0  0
 65 63  1  0  0  0
  2  1  1  0  0  0
  2  4  1  0  0  0
  2  5  1  0  0  0
  3  4  2  0  0  0
 63 62  1  0  0  0
  6  8  1  0  0  0
  6 11  2  0  0  0
  7 10  1  0  0  0
  7 11  1  0  0  0
 62 61  1  0  0  0
 26 28  1  0  0  0
 26 32  1  0  0  0
 26 29  1  0  0  0
 12 18  1  0  0  0
 12 19  1  0  0  0
 61 60  1  0  0  0
 30 36  1  0  0  0
 30 37  1  0  0  0
 30 38  1  0  0  0
 20 21  2  0  0  0
 60 59  1  0  0  0
 22 21  1  0  0  0
 22 23  1  0  0  0
 59 58  1  0  0  0
 27 28  2  0  0  0
 58 57  1  0  0  0
 31 37  2  0  0  0
 57 56  1  0  0  0
 56 55  1  0  0  0
 55 54  1  0  0  0
 54 53  1  0  0  0
 53 52  1  0  0  0
 52 51  1  0  0  0
 51 50  1  0  0  0
 50 49  1  0  0  0
 49 47  1  0  0  0
 47 48  2  0  0  0
 48 45  1  0  0  0
 42 41  1  0  0  0
 41 40  1  0  0  0
 40 39  1  0  0  0
 39  1  1  0  0  0
  1 21  1  0  0  0
  8  4  1  0  0  0
  8  9  1  0  0  0
  8 10  1  0  0  0
 11 13  1  0  0  0
 13 14  2  0  0  0
 13 18  1  0  0  0
 14 15  1  0  0  0
 15 16  2  0  0  0
 16 17  1  0  0  0
 17 18  2  0  0  0
 23 24  1  0  0  0
 23 25  1  0  0  0
 25 28  1  0  0  0
 32 33  1  0  0  0
 32 37  1  0  0  0
 33 34  1  0  0  0
 34 35  1  0  0  0
 35 36  1  0  0  0
M  END
> <minimizedAffinity>
-8.15261

> <CNNscore>
0.1619970798

> <CNNaffinity>
7.8603668213

> <CNN_VS>
1.2733564377

> <CNNaffinity_variance>
1.3304616213

$$$$
/media/chris/experiments/cd1a-new-docking/inputs/ligands/7ryo_ligand.pdb


 65 67  0  0  0  0  0  0  0  0999 V2000
  -37.5447   58.7920   63.4366 C   0  0  0  0  0  0  0  0  0  0  0  0
  -36.7269   59.5324   64.3828 N   0  0  0  0  0  0  0  0  0  0  0  0
  -36.3966   61.2531   62.9743 O   0  0  0  0  0  0  0  0  0  0  0  0
  -36.2148   60.7226   64.0600 C   0  0  0  0  0  0  0  0  0  0  0  0
  -36.5481   59.1516   65.2728 H   0  0  0  0  0  0  0  0  0  0  0  0
  -34.3568   62.2957   64.4413 N   0  0  0  0  0  0  0  0  0  0  0  0
  -35.3699   63.6270   65.9528 O   0  0  0  0  0  0  0  0  0  0  0  0
  -35.3413   61.4289   65.1098 C   0  0  0  0  0  0  0  0  0  0  0  0
  -34.6011   60.3741   65.9266 C   0  0  0  0  0  0  0  0  0  0  0  0
  -36.1295   62.3930   66.0089 C   0  0  0  0  0  0  0  0  0  0  0  0
  -34.4561   63.4476   64.9636 C   0  0  0  0  0  0  0  0  0  0  0  0
  -32.6218   64.7002   66.7939 O   0  0  0  0  0  0  0  0  0  0  0  0
  -33.6661   64.6286   64.6076 C   0  0  0  0  0  0  0  0  0  0  0  0
  -33.6734   65.1074   63.2969 C   0  0  0  0  0  0  0  0  0  0  0  0
  -32.7547   66.0606   62.8924 C   0  0  0  0  0  0  0  0  0  0  0  0
  -31.8205   66.5498   63.7792 C   0  0  0  0  0  0  0  0  0  0  0  0
  -31.7889   66.0885   65.0826 C   0  0  0  0  0  0  0  0  0  0  0  0
  -32.7026   65.1290   65.5074 C   0  0  0  0  0  0  0  0  0  0  0  0
  -33.2224   64.0548   67.1111 H   0  0  0  0  0  0  0  0  0  0  0  0
  -38.9002   58.0352   65.2889 O   0  0  0  0  0  0  0  0  0  0  0  0
  -38.7844   58.2214   64.1089 C   0  0  0  0  0  0  0  0  0  0  0  0
  -39.7269   57.9339   63.1944 O   0  0  0  0  0  0  0  0  0  0  0  0
  -40.2506   56.5651   63.1477 C   0  0  0  0  0  0  0  0  0  0  0  0
  -41.3257   56.5115   62.0918 C   0  0  0  0  0  0  0  0  0  0  0  0
  -40.7919   56.2883   64.5369 C   0  0  0  0  0  0  0  0  0  0  0  0
  -42.9154   57.4137   64.7948 N   0  0  0  0  0  0  0  0  0  0  0  0
  -42.9184   55.1945   64.4245 O   0  0  0  0  0  0  0  0  0  0  0  0
  -42.3031   56.2452   64.5830 C   0  0  0  0  0  0  0  0  0  0  0  0
  -43.8987   57.4376   64.8364 H   0  0  0  0  0  0  0  0  0  0  0  0
  -41.5300   60.0438   66.8579 N   0  0  0  0  0  0  0  0  0  0  0  0
  -43.3442   58.7392   67.0515 O   0  0  0  0  0  0  0  0  0  0  0  0
  -42.1717   58.6496   64.9653 C   0  0  0  0  0  0  0  0  0  0  0  0
  -42.6636   59.7026   63.9659 C   0  0  0  0  0  0  0  0  0  0  0  0
  -41.6789   60.8466   63.7493 C   0  0  0  0  0  0  0  0  0  0  0  0
  -41.3643   61.6768   64.9779 C   0  0  0  0  0  0  0  0  0  0  0  0
  -40.6562   60.9133   66.0775 C   0  0  0  0  0  0  0  0  0  0  0  0
  -42.3995   59.1491   66.3833 C   0  0  0  0  0  0  0  0  0  0  0  0
  -41.4722   60.1253   67.8373 H   0  0  0  0  0  0  0  0  0  0  0  0
  -36.7386   57.6883   62.7503 C   0  0  0  0  0  0  0  0  0  0  0  0
  -36.5516   57.9478   61.2593 C   0  0  0  0  0  0  0  0  0  0  0  0
  -37.8587   58.1861   60.5262 C   0  0  0  0  0  0  0  0  0  0  0  0
  -37.8849   59.4317   59.6676 C   0  0  0  0  0  0  0  0  0  0  0  0
  -38.9426   60.3354   60.0913 N   0  0  0  0  0  0  0  0  0  0  0  0
  -41.1392   60.8030   60.3148 O   0  0  0  0  0  0  0  0  0  0  0  0
  -40.2373   60.0246   59.9642 C   0  0  0  0  0  0  0  0  0  0  0  0
  -38.6978   61.2042   60.4843 H   0  0  0  0  0  0  0  0  0  0  0  0
  -41.2932   58.3759   58.4344 C   0  0  0  0  0  0  0  0  0  0  0  0
  -40.4909   58.6597   59.4516 C   0  0  0  0  0  0  0  0  0  0  0  0
  -42.0793   59.3319   57.5925 C   0  0  0  0  0  0  0  0  0  0  0  0
  -43.1216   58.6121   56.7454 C   0  0  0  0  0  0  0  0  0  0  0  0
  -44.5541   58.9757   57.0957 C   0  0  0  0  0  0  0  0  0  0  0  0
  -45.5060   57.7914   57.0686 C   0  0  0  0  0  0  0  0  0  0  0  0
  -46.1891   57.5070   58.3930 C   0  0  0  0  0  0  0  0  0  0  0  0
  -47.6312   57.9839   58.4450 C   0  0  0  0  0  0  0  0  0  0  0  0
  -48.3655   57.5558   59.7005 C   0  0  0  0  0  0  0  0  0  0  0  0
  -49.8357   57.9233   59.6840 C   0  0  0  0  0  0  0  0  0  0  0  0
  -50.3570   58.4776   60.9960 C   0  0  0  0  0  0  0  0  0  0  0  0
  -49.7912   59.8462   61.3195 C   0  0  0  0  0  0  0  0  0  0  0  0
  -49.6781   60.1103   62.8120 C   0  0  0  0  0  0  0  0  0  0  0  0
  -50.7452   59.4242   63.6471 C   0  0  0  0  0  0  0  0  0  0  0  0
  -50.9311   60.0198   65.0341 C   0  0  0  0  0  0  0  0  0  0  0  0
  -50.0367   59.3984   66.0980 C   0  0  0  0  0  0  0  0  0  0  0  0
  -49.5860   57.9864   65.7597 C   0  0  0  0  0  0  0  0  0  0  0  0
  -47.2458   58.7389   66.3368 C   0  0  0  0  0  0  0  0  0  0  0  0
  -48.2350   57.6032   66.3359 C   0  0  0  0  0  0  0  0  0  0  0  0
 43 45  1  0  0  0
 43 42  1  0  0  0
 43 46  1  0  0  0
 64 65  1  0  0  0
 44 45  2  0  0  0
 65 63  1  0  0  0
  2  1  1  0  0  0
  2  4  1  0  0  0
  2  5  1  0  0  0
  3  4  2  0  0  0
 63 62  1  0  0  0
  6  8  1  0  0  0
  6 11  2  0  0  0
  7 10  1  0  0  0
  7 11  1  0  0  0
 62 61  1  0  0  0
 26 28  1  0  0  0
 26 32  1  0  0  0
 26 29  1  0  0  0
 12 18  1  0  0  0
 12 19  1  0  0  0
 61 60  1  0  0  0
 30 36  1  0  0  0
 30 37  1  0  0  0
 30 38  1  0  0  0
 20 21  2  0  0  0
 60 59  1  0  0  0
 22 21  1  0  0  0
 22 23  1  0  0  0
 59 58  1  0  0  0
 27 28  2  0  0  0
 58 57  1  0  0  0
 31 37  2  0  0  0
 57 56  1  0  0  0
 56 55  1  0  0  0
 55 54  1  0  0  0
 54 53  1  0  0  0
 53 52  1  0  0  0
 52 51  1  0  0  0
 51 50  1  0  0  0
 50 49  1  0  0  0
 49 47  1  0  0  0
 47 48  2  0  0  0
 48 45  1  0  0  0
 42 41  1  0  0  0
 41 40  1  0  0  0
 40 39  1  0  0  0
 39  1  1  0  0  0
  1 21  1  0  0  0
  8  4  1  0  0  0
  8  9  1  0  0  0
  8 10  1  0  0  0
 11 13  1  0  0  0
 13 14  2  0  0  0
 13 18  1  0  0  0
 14 15  1  0  0  0
 15 16  2  0  0  0
 16 17  1  0  0  0
 17 18  2  0  0  0
 23 24  1  0  0  0
 23 25  1  0  0  0
 25 28  1  0  0  0
 32 33  1  0  0  0
 32 37  1  0  0  0
 33 34  1  0  0  0
 34 35  1  0  0  0
 35 36  1  0  0  0
M  END
> <minimizedAffinity>
-8.01877

> <CNNscore>
0.1434557140

> <CNNaffinity>
7.4580254555

> <CNN_VS>
1.0698963404

> <CNNaffinity_variance>
1.2927267551

$$$$
