/media/chris/experiments/cd1a-new-docking/inputs/ligands/7ryo_ligand.pdb


 65 67  0  0  0  0  0  0  0  0999 V2000
  -39.5502   59.3296   64.9352 C   0  0  0  0  0  0  0  0  0  0  0  0
  -38.3329   58.6712   64.4915 N   0  0  0  0  0  0  0  0  0  0  0  0
  -38.2943   59.7504   62.5198 O   0  0  0  0  0  0  0  0  0  0  0  0
  -37.8022   58.9465   63.2975 C   0  0  0  0  0  0  0  0  0  0  0  0
  -37.8940   58.0141   65.0786 H   0  0  0  0  0  0  0  0  0  0  0  0
  -35.5231   59.1353   62.3802 N   0  0  0  0  0  0  0  0  0  0  0  0
  -34.4419   57.9477   63.9625 O   0  0  0  0  0  0  0  0  0  0  0  0
  -36.5264   58.1888   62.8950 C   0  0  0  0  0  0  0  0  0  0  0  0
  -36.8728   57.1864   61.7983 C   0  0  0  0  0  0  0  0  0  0  0  0
  -35.8204   57.5127   64.0796 C   0  0  0  0  0  0  0  0  0  0  0  0
  -34.4472   58.9247   63.0186 C   0  0  0  0  0  0  0  0  0  0  0  0
  -32.0480   57.6204   62.1094 O   0  0  0  0  0  0  0  0  0  0  0  0
  -33.1803   59.6369   62.8354 C   0  0  0  0  0  0  0  0  0  0  0  0
  -33.1325   61.0256   62.9630 C   0  0  0  0  0  0  0  0  0  0  0  0
  -32.0118   61.7299   62.5576 C   0  0  0  0  0  0  0  0  0  0  0  0
  -30.9278   61.0685   62.0226 C   0  0  0  0  0  0  0  0  0  0  0  0
  -30.9516   59.6929   61.8812 C   0  0  0  0  0  0  0  0  0  0  0  0
  -32.0698   58.9678   62.2809 C   0  0  0  0  0  0  0  0  0  0  0  0
  -32.7853   57.1032   62.3682 H   0  0  0  0  0  0  0  0  0  0  0  0
  -40.0539   61.2303   66.3405 O   0  0  0  0  0  0  0  0  0  0  0  0
  -39.2425   60.4605   65.9053 C   0  0  0  0  0  0  0  0  0  0  0  0
  -37.9294   60.4917   66.1922 O   0  0  0  0  0  0  0  0  0  0  0  0
  -37.1583   61.6668   65.7751 C   0  0  0  0  0  0  0  0  0  0  0  0
  -36.0864   61.2076   64.8190 C   0  0  0  0  0  0  0  0  0  0  0  0
  -36.5820   62.2499   67.0508 C   0  0  0  0  0  0  0  0  0  0  0  0
  -35.1858   63.7455   65.7639 N   0  0  0  0  0  0  0  0  0  0  0  0
  -34.3180   62.7930   67.6083 O   0  0  0  0  0  0  0  0  0  0  0  0
  -35.2584   62.9491   66.8343 C   0  0  0  0  0  0  0  0  0  0  0  0
  -35.9723   63.8320   65.1781 H   0  0  0  0  0  0  0  0  0  0  0  0
  -33.2533   65.9008   63.5928 N   0  0  0  0  0  0  0  0  0  0  0  0
  -34.8377   64.3606   63.2078 O   0  0  0  0  0  0  0  0  0  0  0  0
  -33.9798   64.4873   65.4400 C   0  0  0  0  0  0  0  0  0  0  0  0
  -32.7453   63.6030   65.6491 C   0  0  0  0  0  0  0  0  0  0  0  0
  -31.4452   64.3894   65.7785 C   0  0  0  0  0  0  0  0  0  0  0  0
  -31.0603   65.2155   64.5674 C   0  0  0  0  0  0  0  0  0  0  0  0
  -32.0261   66.3378   64.2497 C   0  0  0  0  0  0  0  0  0  0  0  0
  -34.0603   64.9112   63.9819 C   0  0  0  0  0  0  0  0  0  0  0  0
  -33.5134   66.3866   62.7770 H   0  0  0  0  0  0  0  0  0  0  0  0
  -40.5285   58.3301   65.5540 C   0  0  0  0  0  0  0  0  0  0  0  0
  -41.8635   58.2931   64.8180 C   0  0  0  0  0  0  0  0  0  0  0  0
  -42.8163   57.2446   65.3617 C   0  0  0  0  0  0  0  0  0  0  0  0
  -43.8795   57.7793   66.2961 C   0  0  0  0  0  0  0  0  0  0  0  0
  -45.1958   57.2824   65.9279 N   0  0  0  0  0  0  0  0  0  0  0  0
  -46.2189   58.1467   67.7444 O   0  0  0  0  0  0  0  0  0  0  0  0
  -46.2768   57.5035   66.6835 C   0  0  0  0  0  0  0  0  0  0  0  0
  -45.2942   56.7664   65.0952 H   0  0  0  0  0  0  0  0  0  0  0  0
  -48.6473   57.4914   65.9391 C   0  0  0  0  0  0  0  0  0  0  0  0
  -47.5115   56.8541   66.1894 C   0  0  0  0  0  0  0  0  0  0  0  0
  -48.9259   58.9558   66.0743 C   0  0  0  0  0  0  0  0  0  0  0  0
  -49.3559   59.5729   64.7491 C   0  0  0  0  0  0  0  0  0  0  0  0
  -50.1978   58.6486   63.8865 C   0  0  0  0  0  0  0  0  0  0  0  0
  -49.5681   58.3321   62.5402 C   0  0  0  0  0  0  0  0  0  0  0  0
  -50.5521   57.8693   61.4822 C   0  0  0  0  0  0  0  0  0  0  0  0
  -49.9283   56.9711   60.4269 C   0  0  0  0  0  0  0  0  0  0  0  0
  -49.4295   57.7237   59.2091 C   0  0  0  0  0  0  0  0  0  0  0  0
  -48.0615   57.2650   58.7455 C   0  0  0  0  0  0  0  0  0  0  0  0
  -47.1786   58.3744   58.2072 C   0  0  0  0  0  0  0  0  0  0  0  0
  -46.0711   57.8582   57.3100 C   0  0  0  0  0  0  0  0  0  0  0  0
  -44.6861   58.3019   57.7517 C   0  0  0  0  0  0  0  0  0  0  0  0
  -43.7886   58.7604   56.6156 C   0  0  0  0  0  0  0  0  0  0  0  0
  -42.3304   58.9434   57.0070 C   0  0  0  0  0  0  0  0  0  0  0  0
  -42.0137   58.5061   58.4306 C   0  0  0  0  0  0  0  0  0  0  0  0
  -40.8142   59.2220   59.0304 C   0  0  0  0  0  0  0  0  0  0  0  0
  -41.0213   57.3746   60.7395 C   0  0  0  0  0  0  0  0  0  0  0  0
  -40.1807   58.5064   60.2096 C   0  0  0  0  0  0  0  0  0  0  0  0
 43 45  1  0  0  0
 43 42  1  0  0  0
 43 46  1  0  0  0
 64 65  1  0  0  0
 44 45  2  0  0  0
 65 63  1  0  0  0
  2  1  1  0  0  0
  2  4  1  0  0  0
  2  5  1  0  0  0
  3  4  2  0  0  0
 63 62  1  0  0  0
  6  8  1  0  0  0
  6 11  2  0  0  0
  7 10  1  0  0  0
  7 11  1  0  0  0
 62 61  1  0  0  0
 26 28  1  0  0  0
 26 32  1  0  0  0
 26 29  1  0  0  0
 12 18  1  0  0  0
 12 19  1  0  0  0
 61 60  1  0  0  0
 30 36  1  0  0  0
 30 37  1  0  0  0
 30 38  1  0  0  0
 20 21  2  0  0  0
 60 59  1  0  0  0
 22 21  1  0  0  0
 22 23  1  0  0  0
 59 58  1  0  0  0
 27 28  2  0  0  0
 58 57  1  0  0  0
 31 37  2  0  0  0
 57 56  1  0  0  0
 56 55  1  0  0  0
 55 54  1  0  0  0
 54 53  1  0  0  0
 53 52  1  0  0  0
 52 51  1  0  0  0
 51 50  1  0  0  0
 50 49  1  0  0  0
 49 47  1  0  0  0
 47 48  2  0  0  0
 48 45  1  0  0  0
 42 41  1  0  0  0
 41 40  1  0  0  0
 40 39  1  0  0  0
 39  1  1  0  0  0
  1 21  1  0  0  0
  8  4  1  0  0  0
  8  9  1  0  0  0
  8 10  1  0  0  0
 11 13  1  0  0  0
 13 14  2  0  0  0
 13 18  1  0  0  0
 14 15  1  0  0  0
 15 16  2  0  0  0
 16 17  1  0  0  0
 17 18  2  0  0  0
 23 24  1  0  0  0
 23 25  1  0  0  0
 25 28  1  0  0  0
 32 33  1  0  0  0
 32 37  1  0  0  0
 33 34  1  0  0  0
 34 35  1  0  0  0
 35 36  1  0  0  0
M  END
> <minimizedAffinity>
-8.42579

> <CNNscore>
0.3399517536

> <CNNaffinity>
7.5948791504

> <CNN_VS>
2.5818924904

> <CNNaffinity_variance>
0.6549193263

$$$$
/media/chris/experiments/cd1a-new-docking/inputs/ligands/7ryo_ligand.pdb


 65 67  0  0  0  0  0  0  0  0999 V2000
  -38.5203   60.5376   64.8604 C   0  0  0  0  0  0  0  0  0  0  0  0
  -37.7724   59.7278   63.9132 N   0  0  0  0  0  0  0  0  0  0  0  0
  -38.8230   60.5907   62.1228 O   0  0  0  0  0  0  0  0  0  0  0  0
  -37.9955   59.8290   62.6006 C   0  0  0  0  0  0  0  0  0  0  0  0
  -37.0928   59.0967   64.2435 H   0  0  0  0  0  0  0  0  0  0  0  0
  -35.7464   59.2443   61.7811 N   0  0  0  0  0  0  0  0  0  0  0  0
  -35.8617   57.0145   62.0934 O   0  0  0  0  0  0  0  0  0  0  0  0
  -37.1780   58.9196   61.6685 C   0  0  0  0  0  0  0  0  0  0  0  0
  -37.6290   59.1538   60.2300 C   0  0  0  0  0  0  0  0  0  0  0  0
  -37.2493   57.4339   62.0510 C   0  0  0  0  0  0  0  0  0  0  0  0
  -35.1328   58.1580   62.0110 C   0  0  0  0  0  0  0  0  0  0  0  0
  -33.6223   59.7566   63.8675 O   0  0  0  0  0  0  0  0  0  0  0  0
  -33.6877   58.0039   62.1944 C   0  0  0  0  0  0  0  0  0  0  0  0
  -33.0090   56.9598   61.5649 C   0  0  0  0  0  0  0  0  0  0  0  0
  -31.7051   56.6565   61.9172 C   0  0  0  0  0  0  0  0  0  0  0  0
  -31.0597   57.3821   62.8948 C   0  0  0  0  0  0  0  0  0  0  0  0
  -31.7115   58.4190   63.5371 C   0  0  0  0  0  0  0  0  0  0  0  0
  -33.0228   58.7376   63.1983 C   0  0  0  0  0  0  0  0  0  0  0  0
  -34.5049   59.9961   63.6632 H   0  0  0  0  0  0  0  0  0  0  0  0
  -37.9457   60.4369   67.2058 O   0  0  0  0  0  0  0  0  0  0  0  0
  -37.6940   60.8364   66.1024 C   0  0  0  0  0  0  0  0  0  0  0  0
  -36.6521   61.6289   65.7964 O   0  0  0  0  0  0  0  0  0  0  0  0
  -35.9432   62.2939   66.8940 C   0  0  0  0  0  0  0  0  0  0  0  0
  -36.1953   63.7765   66.7835 C   0  0  0  0  0  0  0  0  0  0  0  0
  -34.4801   61.9421   66.7066 C   0  0  0  0  0  0  0  0  0  0  0  0
  -33.8608   62.9646   64.6059 N   0  0  0  0  0  0  0  0  0  0  0  0
  -33.0134   63.8234   66.5050 O   0  0  0  0  0  0  0  0  0  0  0  0
  -33.7151   62.9934   65.9337 C   0  0  0  0  0  0  0  0  0  0  0  0
  -34.4369   62.2755   64.2029 H   0  0  0  0  0  0  0  0  0  0  0  0
  -33.6254   66.2091   63.0212 N   0  0  0  0  0  0  0  0  0  0  0  0
  -35.3592   64.9411   63.6668 O   0  0  0  0  0  0  0  0  0  0  0  0
  -33.1937   63.9212   63.7401 C   0  0  0  0  0  0  0  0  0  0  0  0
  -32.8103   63.2539   62.4145 C   0  0  0  0  0  0  0  0  0  0  0  0
  -31.7346   64.0075   61.6397 C   0  0  0  0  0  0  0  0  0  0  0  0
  -32.1059   65.4125   61.2087 C   0  0  0  0  0  0  0  0  0  0  0  0
  -32.3369   66.3727   62.3566 C   0  0  0  0  0  0  0  0  0  0  0  0
  -34.1540   65.0693   63.4721 C   0  0  0  0  0  0  0  0  0  0  0  0
  -34.1611   67.0249   63.1506 H   0  0  0  0  0  0  0  0  0  0  0  0
  -39.8466   59.8735   65.2334 C   0  0  0  0  0  0  0  0  0  0  0  0
  -40.8558   60.8686   65.7959 C   0  0  0  0  0  0  0  0  0  0  0  0
  -41.5706   60.3591   67.0337 C   0  0  0  0  0  0  0  0  0  0  0  0
  -41.9224   58.8878   67.0008 C   0  0  0  0  0  0  0  0  0  0  0  0
  -43.1620   58.6637   66.2740 N   0  0  0  0  0  0  0  0  0  0  0  0
  -42.4727   56.7208   65.3556 O   0  0  0  0  0  0  0  0  0  0  0  0
  -43.3484   57.5897   65.4992 C   0  0  0  0  0  0  0  0  0  0  0  0
  -43.8876   59.3243   66.3550 H   0  0  0  0  0  0  0  0  0  0  0  0
  -45.8265   57.4707   65.3626 C   0  0  0  0  0  0  0  0  0  0  0  0
  -44.6406   57.5729   64.7778 C   0  0  0  0  0  0  0  0  0  0  0  0
  -46.1212   57.3721   66.8268 C   0  0  0  0  0  0  0  0  0  0  0  0
  -46.9669   58.5430   67.3120 C   0  0  0  0  0  0  0  0  0  0  0  0
  -48.0689   58.9452   66.3472 C   0  0  0  0  0  0  0  0  0  0  0  0
  -49.1515   57.8909   66.1868 C   0  0  0  0  0  0  0  0  0  0  0  0
  -50.5418   58.4517   65.9539 C   0  0  0  0  0  0  0  0  0  0  0  0
  -50.5709   59.9663   65.8318 C   0  0  0  0  0  0  0  0  0  0  0  0
  -50.9496   60.4551   64.4476 C   0  0  0  0  0  0  0  0  0  0  0  0
  -49.9463   60.0606   63.3824 C   0  0  0  0  0  0  0  0  0  0  0  0
  -50.5651   59.4930   62.1194 C   0  0  0  0  0  0  0  0  0  0  0  0
  -50.6125   57.9778   62.1204 C   0  0  0  0  0  0  0  0  0  0  0  0
  -50.5624   57.3758   60.7257 C   0  0  0  0  0  0  0  0  0  0  0  0
  -49.1744   56.9457   60.2838 C   0  0  0  0  0  0  0  0  0  0  0  0
  -48.3535   58.0523   59.6399 C   0  0  0  0  0  0  0  0  0  0  0  0
  -47.0570   57.5692   59.0044 C   0  0  0  0  0  0  0  0  0  0  0  0
  -46.9344   57.9287   57.5324 C   0  0  0  0  0  0  0  0  0  0  0  0
  -47.3869   55.5351   56.8674 C   0  0  0  0  0  0  0  0  0  0  0  0
  -47.6683   56.9890   56.5931 C   0  0  0  0  0  0  0  0  0  0  0  0
 43 45  1  0  0  0
 43 42  1  0  0  0
 43 46  1  0  0  0
 64 65  1  0  0  0
 44 45  2  0  0  0
 65 63  1  0  0  0
  2  1  1  0  0  0
  2  4  1  0  0  0
  2  5  1  0  0  0
  3  4  2  0  0  0
 63 62  1  0  0  0
  6  8  1  0  0  0
  6 11  2  0  0  0
  7 10  1  0  0  0
  7 11  1  0  0  0
 62 61  1  0  0  0
 26 28  1  0  0  0
 26 32  1  0  0  0
 26 29  1  0  0  0
 12 18  1  0  0  0
 12 19  1  0  0  0
 61 60  1  0  0  0
 30 36  1  0  0  0
 30 37  1  0  0  0
 30 38  1  0  0  0
 20 21  2  0  0  0
 60 59  1  0  0  0
 22 21  1  0  0  0
 22 23  1  0  0  0
 59 58  1  0  0  0
 27 28  2  0  0  0
 58 57  1  0  0  0
 31 37  2  0  0  0
 57 56  1  0  0  0
 56 55  1  0  0  0
 55 54  1  0  0  0
 54 53  1  0  0  0
 53 52  1  0  0  0
 52 51  1  0  0  0
 51 50  1  0  0  0
 50 49  1  0  0  0
 49 47  1  0  0  0
 47 48  2  0  0  0
 48 45  1  0  0  0
 42 41  1  0  0  0
 41 40  1  0  0  0
 40 39  1  0  0  0
 39  1  1  0  0  0
  1 21  1  0  0  0
  8  4  1  0  0  0
  8  9  1  0  0  0
  8 10  1  0  0  0
 11 13  1  0  0  0
 13 14  2  0  0  0
 13 18  1  0  0  0
 14 15  1  0  0  0
 15 16  2  0  0  0
 16 17  1  0  0  0
 17 18  2  0  0  0
 23 24  1  0  0  0
 23 25  1  0  0  0
 25 28  1  0  0  0
 32 33  1  0  0  0
 32 37  1  0  0  0
 33 34  1  0  0  0
 34 35  1  0  0  0
 35 36  1  0  0  0
M  END
> <minimizedAffinity>
-10.69086

> <CNNscore>
0.2784993052

> <CNNaffinity>
7.2341871262

> <CNN_VS>
2.0147161484

> <CNNaffinity_variance>
0.8564260602

$$$$
/media/chris/experiments/cd1a-new-docking/inputs/ligands/7ryo_ligand.pdb


 65 67  0  0  0  0  0  0  0  0999 V2000
  -40.0311   57.6721   62.1264 C   0  0  0  0  0  0  0  0  0  0  0  0
  -39.2075   57.9068   63.3007 N   0  0  0  0  0  0  0  0  0  0  0  0
  -40.0343   59.9682   63.6485 O   0  0  0  0  0  0  0  0  0  0  0  0
  -39.2845   59.0589   63.9714 C   0  0  0  0  0  0  0  0  0  0  0  0
  -38.5851   57.2075   63.6056 H   0  0  0  0  0  0  0  0  0  0  0  0
  -37.2180   60.0904   64.8301 N   0  0  0  0  0  0  0  0  0  0  0  0
  -38.0767   61.0225   66.6948 O   0  0  0  0  0  0  0  0  0  0  0  0
  -38.3620   59.2357   65.1886 C   0  0  0  0  0  0  0  0  0  0  0  0
  -37.8439   57.8665   65.6184 C   0  0  0  0  0  0  0  0  0  0  0  0
  -39.0279   59.9821   66.3540 C   0  0  0  0  0  0  0  0  0  0  0  0
  -37.1557   61.0154   65.6962 C   0  0  0  0  0  0  0  0  0  0  0  0
  -36.4469   62.3849   68.1264 O   0  0  0  0  0  0  0  0  0  0  0  0
  -36.1682   62.0966   65.7359 C   0  0  0  0  0  0  0  0  0  0  0  0
  -35.4224   62.4063   64.5979 C   0  0  0  0  0  0  0  0  0  0  0  0
  -34.3273   63.2487   64.6839 C   0  0  0  0  0  0  0  0  0  0  0  0
  -33.9591   63.7931   65.8950 C   0  0  0  0  0  0  0  0  0  0  0  0
  -34.6789   63.4986   67.0386 C   0  0  0  0  0  0  0  0  0  0  0  0
  -35.7813   62.6523   66.9727 C   0  0  0  0  0  0  0  0  0  0  0  0
  -37.1935   61.8187   68.1160 H   0  0  0  0  0  0  0  0  0  0  0  0
  -40.5807   59.7014   60.9344 O   0  0  0  0  0  0  0  0  0  0  0  0
  -39.8398   58.7703   61.0911 C   0  0  0  0  0  0  0  0  0  0  0  0
  -38.7349   58.5421   60.3600 O   0  0  0  0  0  0  0  0  0  0  0  0
  -37.7764   59.6391   60.1946 C   0  0  0  0  0  0  0  0  0  0  0  0
  -36.7887   59.2403   59.1272 C   0  0  0  0  0  0  0  0  0  0  0  0
  -37.1205   59.8152   61.5505 C   0  0  0  0  0  0  0  0  0  0  0  0
  -34.7974   59.3366   62.0155 N   0  0  0  0  0  0  0  0  0  0  0  0
  -36.2267   57.6104   61.8171 O   0  0  0  0  0  0  0  0  0  0  0  0
  -36.0106   58.8190   61.8025 C   0  0  0  0  0  0  0  0  0  0  0  0
  -34.6837   60.3142   61.9917 H   0  0  0  0  0  0  0  0  0  0  0  0
  -31.5447   58.7641   63.4938 N   0  0  0  0  0  0  0  0  0  0  0  0
  -32.5669   60.5966   62.7015 O   0  0  0  0  0  0  0  0  0  0  0  0
  -33.6415   58.4982   62.2812 C   0  0  0  0  0  0  0  0  0  0  0  0
  -33.1604   57.8378   60.9843 C   0  0  0  0  0  0  0  0  0  0  0  0
  -32.2712   56.6201   61.2121 C   0  0  0  0  0  0  0  0  0  0  0  0
  -30.9739   56.8893   61.9483 C   0  0  0  0  0  0  0  0  0  0  0  0
  -31.1572   57.3625   63.3752 C   0  0  0  0  0  0  0  0  0  0  0  0
  -32.5363   59.3778   62.8441 C   0  0  0  0  0  0  0  0  0  0  0  0
  -31.0197   59.3150   64.1184 H   0  0  0  0  0  0  0  0  0  0  0  0
  -41.5064   57.5269   62.5025 C   0  0  0  0  0  0  0  0  0  0  0  0
  -41.9140   56.0710   62.7015 C   0  0  0  0  0  0  0  0  0  0  0  0
  -41.4883   55.5100   64.0456 C   0  0  0  0  0  0  0  0  0  0  0  0
  -42.2853   56.0210   65.2259 C   0  0  0  0  0  0  0  0  0  0  0  0
  -43.4622   56.7521   64.7837 N   0  0  0  0  0  0  0  0  0  0  0  0
  -43.2390   58.3841   66.3265 O   0  0  0  0  0  0  0  0  0  0  0  0
  -43.8561   57.8878   65.3698 C   0  0  0  0  0  0  0  0  0  0  0  0
  -43.9859   56.3994   64.0283 H   0  0  0  0  0  0  0  0  0  0  0  0
  -46.3059   58.3012   65.4078 C   0  0  0  0  0  0  0  0  0  0  0  0
  -45.1184   58.4459   64.8353 C   0  0  0  0  0  0  0  0  0  0  0  0
  -46.6279   57.5866   66.6830 C   0  0  0  0  0  0  0  0  0  0  0  0
  -47.9729   56.8747   66.6065 C   0  0  0  0  0  0  0  0  0  0  0  0
  -48.8644   57.3670   65.4796 C   0  0  0  0  0  0  0  0  0  0  0  0
  -50.0386   58.2062   65.9554 C   0  0  0  0  0  0  0  0  0  0  0  0
  -49.7090   59.6687   66.1884 C   0  0  0  0  0  0  0  0  0  0  0  0
  -49.8654   60.5297   64.9459 C   0  0  0  0  0  0  0  0  0  0  0  0
  -51.1767   60.3093   64.2176 C   0  0  0  0  0  0  0  0  0  0  0  0
  -50.9914   59.8615   62.7816 C   0  0  0  0  0  0  0  0  0  0  0  0
  -51.1724   58.3718   62.5624 C   0  0  0  0  0  0  0  0  0  0  0  0
  -49.9123   57.6968   62.0575 C   0  0  0  0  0  0  0  0  0  0  0  0
  -50.0854   57.0478   60.6941 C   0  0  0  0  0  0  0  0  0  0  0  0
  -49.8694   57.9920   59.5243 C   0  0  0  0  0  0  0  0  0  0  0  0
  -48.4506   58.5272   59.4079 C   0  0  0  0  0  0  0  0  0  0  0  0
  -47.4130   57.4608   59.0847 C   0  0  0  0  0  0  0  0  0  0  0  0
  -46.5389   57.8097   57.8909 C   0  0  0  0  0  0  0  0  0  0  0  0
  -47.3323   55.5692   57.0383 C   0  0  0  0  0  0  0  0  0  0  0  0
  -46.7273   56.9033   56.6881 C   0  0  0  0  0  0  0  0  0  0  0  0
 43 45  1  0  0  0
 43 42  1  0  0  0
 43 46  1  0  0  0
 64 65  1  0  0  0
 44 45  2  0  0  0
 65 63  1  0  0  0
  2  1  1  0  0  0
  2  4  1  0  0  0
  2  5  1  0  0  0
  3  4  2  0  0  0
 63 62  1  0  0  0
  6  8  1  0  0  0
  6 11  2  0  0  0
  7 10  1  0  0  0
  7 11  1  0  0  0
 62 61  1  0  0  0
 26 28  1  0  0  0
 26 32  1  0  0  0
 26 29  1  0  0  0
 12 18  1  0  0  0
 12 19  1  0  0  0
 61 60  1  0  0  0
 30 36  1  0  0  0
 30 37  1  0  0  0
 30 38  1  0  0  0
 20 21  2  0  0  0
 60 59  1  0  0  0
 22 21  1  0  0  0
 22 23  1  0  0  0
 59 58  1  0  0  0
 27 28  2  0  0  0
 58 57  1  0  0  0
 31 37  2  0  0  0
 57 56  1  0  0  0
 56 55  1  0  0  0
 55 54  1  0  0  0
 54 53  1  0  0  0
 53 52  1  0  0  0
 52 51  1  0  0  0
 51 50  1  0  0  0
 50 49  1  0  0  0
 49 47  1  0  0  0
 47 48  2  0  0  0
 48 45  1  0  0  0
 42 41  1  0  0  0
 41 40  1  0  0  0
 40 39  1  0  0  0
 39  1  1  0  0  0
  1 21  1  0  0  0
  8  4  1  0  0  0
  8  9  1  0  0  0
  8 10  1  0  0  0
 11 13  1  0  0  0
 13 14  2  0  0  0
 13 18  1  0  0  0
 14 15  1  0  0  0
 15 16  2  0  0  0
 16 17  1  0  0  0
 17 18  2  0  0  0
 23 24  1  0  0  0
 23 25  1  0  0  0
 25 28  1  0  0  0
 32 33  1  0  0  0
 32 37  1  0  0  0
 33 34  1  0  0  0
 34 35  1  0  0  0
 35 36  1  0  0  0
M  END
> <minimizedAffinity>
-10.54466

> <CNNscore>
0.2310182005

> <CNNaffinity>
7.7387542725

> <CNN_VS>
1.7877930403

> <CNNaffinity_variance>
1.5483815670

$$$$
/media/chris/experiments/cd1a-new-docking/inputs/ligands/7ryo_ligand.pdb


 65 67  0  0  0  0  0  0  0  0999 V2000
  -40.3810   60.1828   63.7097 C   0  0  0  0  0  0  0  0  0  0  0  0
  -39.5166   59.3394   62.9013 N   0  0  0  0  0  0  0  0  0  0  0  0
  -38.2333   61.0554   62.2215 O   0  0  0  0  0  0  0  0  0  0  0  0
  -38.4978   59.8624   62.2146 C   0  0  0  0  0  0  0  0  0  0  0  0
  -39.6842   58.3701   62.8595 H   0  0  0  0  0  0  0  0  0  0  0  0
  -36.2237   59.2667   61.4762 N   0  0  0  0  0  0  0  0  0  0  0  0
  -36.2995   57.0642   61.9519 O   0  0  0  0  0  0  0  0  0  0  0  0
  -37.6463   58.9041   61.3658 C   0  0  0  0  0  0  0  0  0  0  0  0
  -38.0772   59.0213   59.9069 C   0  0  0  0  0  0  0  0  0  0  0  0
  -37.6944   57.4496   61.8567 C   0  0  0  0  0  0  0  0  0  0  0  0
  -35.5925   58.2137   61.7959 C   0  0  0  0  0  0  0  0  0  0  0  0
  -34.0054   60.3863   62.8181 O   0  0  0  0  0  0  0  0  0  0  0  0
  -34.1479   58.1045   62.0129 C   0  0  0  0  0  0  0  0  0  0  0  0
  -33.5078   56.8739   61.8612 C   0  0  0  0  0  0  0  0  0  0  0  0
  -32.2044   56.7022   62.2948 C   0  0  0  0  0  0  0  0  0  0  0  0
  -31.5214   57.7449   62.8822 C   0  0  0  0  0  0  0  0  0  0  0  0
  -32.1345   58.9734   63.0482 C   0  0  0  0  0  0  0  0  0  0  0  0
  -33.4447   59.1647   62.6208 C   0  0  0  0  0  0  0  0  0  0  0  0
  -34.8861   60.5476   62.5417 H   0  0  0  0  0  0  0  0  0  0  0  0
  -40.1434   61.1165   65.9261 O   0  0  0  0  0  0  0  0  0  0  0  0
  -39.9128   60.2249   65.1566 C   0  0  0  0  0  0  0  0  0  0  0  0
  -39.1853   59.1328   65.4489 O   0  0  0  0  0  0  0  0  0  0  0  0
  -37.7369   59.1874   65.2286 C   0  0  0  0  0  0  0  0  0  0  0  0
  -37.1490   57.8654   65.6537 C   0  0  0  0  0  0  0  0  0  0  0  0
  -37.2386   60.3403   66.0783 C   0  0  0  0  0  0  0  0  0  0  0  0
  -35.5994   62.1160   66.1272 N   0  0  0  0  0  0  0  0  0  0  0  0
  -35.8833   60.9741   64.2094 O   0  0  0  0  0  0  0  0  0  0  0  0
  -36.1830   61.1716   65.3837 C   0  0  0  0  0  0  0  0  0  0  0  0
  -35.8807   62.2289   67.0638 H   0  0  0  0  0  0  0  0  0  0  0  0
  -32.5524   64.0354   66.4804 N   0  0  0  0  0  0  0  0  0  0  0  0
  -34.2074   63.5121   67.9009 O   0  0  0  0  0  0  0  0  0  0  0  0
  -34.5618   62.9807   65.5930 C   0  0  0  0  0  0  0  0  0  0  0  0
  -35.1920   64.1384   64.8106 C   0  0  0  0  0  0  0  0  0  0  0  0
  -34.2253   64.8259   63.8522 C   0  0  0  0  0  0  0  0  0  0  0  0
  -33.0208   65.4797   64.4996 C   0  0  0  0  0  0  0  0  0  0  0  0
  -32.0809   64.5090   65.1834 C   0  0  0  0  0  0  0  0  0  0  0  0
  -33.7575   63.5334   66.7590 C   0  0  0  0  0  0  0  0  0  0  0  0
  -31.9149   64.0922   67.2285 H   0  0  0  0  0  0  0  0  0  0  0  0
  -41.8394   59.7309   63.6204 C   0  0  0  0  0  0  0  0  0  0  0  0
  -42.3374   59.1165   64.9241 C   0  0  0  0  0  0  0  0  0  0  0  0
  -43.7277   58.5193   64.8101 C   0  0  0  0  0  0  0  0  0  0  0  0
  -43.8307   57.0701   65.2326 C   0  0  0  0  0  0  0  0  0  0  0  0
  -43.1935   56.1963   64.2602 N   0  0  0  0  0  0  0  0  0  0  0  0
  -41.2826   55.9893   65.4430 O   0  0  0  0  0  0  0  0  0  0  0  0
  -41.9578   55.7163   64.4371 C   0  0  0  0  0  0  0  0  0  0  0  0
  -43.6879   55.9503   63.4452 H   0  0  0  0  0  0  0  0  0  0  0  0
  -41.0720   55.4089   62.1361 C   0  0  0  0  0  0  0  0  0  0  0  0
  -41.4474   54.9097   63.3060 C   0  0  0  0  0  0  0  0  0  0  0  0
  -41.0600   56.8448   61.7134 C   0  0  0  0  0  0  0  0  0  0  0  0
  -41.6716   57.0307   60.3302 C   0  0  0  0  0  0  0  0  0  0  0  0
  -41.1530   58.2509   59.5891 C   0  0  0  0  0  0  0  0  0  0  0  0
  -41.4554   58.2319   58.1000 C   0  0  0  0  0  0  0  0  0  0  0  0
  -42.2971   59.3983   57.6173 C   0  0  0  0  0  0  0  0  0  0  0  0
  -43.3290   59.0083   56.5720 C   0  0  0  0  0  0  0  0  0  0  0  0
  -44.3211   57.9702   57.0584 C   0  0  0  0  0  0  0  0  0  0  0  0
  -45.6911   58.5482   57.3515 C   0  0  0  0  0  0  0  0  0  0  0  0
  -46.6594   57.5705   57.9891 C   0  0  0  0  0  0  0  0  0  0  0  0
  -47.6871   58.2540   58.8693 C   0  0  0  0  0  0  0  0  0  0  0  0
  -48.4855   57.2827   59.7234 C   0  0  0  0  0  0  0  0  0  0  0  0
  -48.9113   57.8435   61.0691 C   0  0  0  0  0  0  0  0  0  0  0  0
  -49.9430   58.9576   60.9828 C   0  0  0  0  0  0  0  0  0  0  0  0
  -49.6567   60.1367   61.9026 C   0  0  0  0  0  0  0  0  0  0  0  0
  -49.7085   59.7784   63.3791 C   0  0  0  0  0  0  0  0  0  0  0  0
  -47.6062   58.9293   64.4906 C   0  0  0  0  0  0  0  0  0  0  0  0
  -48.4522   60.1293   64.1552 C   0  0  0  0  0  0  0  0  0  0  0  0
 43 45  1  0  0  0
 43 42  1  0  0  0
 43 46  1  0  0  0
 64 65  1  0  0  0
 44 45  2  0  0  0
 65 63  1  0  0  0
  2  1  1  0  0  0
  2  4  1  0  0  0
  2  5  1  0  0  0
  3  4  2  0  0  0
 63 62  1  0  0  0
  6  8  1  0  0  0
  6 11  2  0  0  0
  7 10  1  0  0  0
  7 11  1  0  0  0
 62 61  1  0  0  0
 26 28  1  0  0  0
 26 32  1  0  0  0
 26 29  1  0  0  0
 12 18  1  0  0  0
 12 19  1  0  0  0
 61 60  1  0  0  0
 30 36  1  0  0  0
 30 37  1  0  0  0
 30 38  1  0  0  0
 20 21  2  0  0  0
 60 59  1  0  0  0
 22 21  1  0  0  0
 22 23  1  0  0  0
 59 58  1  0  0  0
 27 28  2  0  0  0
 58 57  1  0  0  0
 31 37  2  0  0  0
 57 56  1  0  0  0
 56 55  1  0  0  0
 55 54  1  0  0  0
 54 53  1  0  0  0
 53 52  1  0  0  0
 52 51  1  0  0  0
 51 50  1  0  0  0
 50 49  1  0  0  0
 49 47  1  0  0  0
 47 48  2  0  0  0
 48 45  1  0  0  0
 42 41  1  0  0  0
 41 40  1  0  0  0
 40 39  1  0  0  0
 39  1  1  0  0  0
  1 21  1  0  0  0
  8  4  1  0  0  0
  8  9  1  0  0  0
  8 10  1  0  0  0
 11 13  1  0  0  0
 13 14  2  0  0  0
 13 18  1  0  0  0
 14 15  1  0  0  0
 15 16  2  0  0  0
 16 17  1  0  0  0
 17 18  2  0  0  0
 23 24  1  0  0  0
 23 25  1  0  0  0
 25 28  1  0  0  0
 32 33  1  0  0  0
 32 37  1  0  0  0
 33 34  1  0  0  0
 34 35  1  0  0  0
 35 36  1  0  0  0
M  END
> <minimizedAffinity>
-8.00290

> <CNNscore>
0.2202655226

> <CNNaffinity>
7.6073770523

> <CNN_VS>
1.6756428480

> <CNNaffinity_variance>
1.9789575338

$$$$
/media/chris/experiments/cd1a-new-docking/inputs/ligands/7ryo_ligand.pdb


 65 67  0  0  0  0  0  0  0  0999 V2000
  -37.4056   59.3313   63.0862 C   0  0  0  0  0  0  0  0  0  0  0  0
  -38.5825   59.8347   63.7746 N   0  0  0  0  0  0  0  0  0  0  0  0
  -37.5580   61.7155   64.4578 O   0  0  0  0  0  0  0  0  0  0  0  0
  -38.5528   61.0073   64.4126 C   0  0  0  0  0  0  0  0  0  0  0  0
  -39.4120   59.3045   63.7703 H   0  0  0  0  0  0  0  0  0  0  0  0
  -40.8611   60.4065   65.0311 N   0  0  0  0  0  0  0  0  0  0  0  0
  -40.7361   60.8795   67.2320 O   0  0  0  0  0  0  0  0  0  0  0  0
  -39.8336   61.4558   65.1353 C   0  0  0  0  0  0  0  0  0  0  0  0
  -40.3540   62.7283   64.4736 C   0  0  0  0  0  0  0  0  0  0  0  0
  -39.6467   61.6387   66.6487 C   0  0  0  0  0  0  0  0  0  0  0  0
  -41.2762   60.1707   66.2066 C   0  0  0  0  0  0  0  0  0  0  0  0
  -41.8469   57.8302   64.6317 O   0  0  0  0  0  0  0  0  0  0  0  0
  -42.3044   59.1968   66.5806 C   0  0  0  0  0  0  0  0  0  0  0  0
  -42.9544   59.3020   67.8109 C   0  0  0  0  0  0  0  0  0  0  0  0
  -43.7423   58.2648   68.2798 C   0  0  0  0  0  0  0  0  0  0  0  0
  -43.8953   57.1141   67.5374 C   0  0  0  0  0  0  0  0  0  0  0  0
  -43.2582   56.9829   66.3169 C   0  0  0  0  0  0  0  0  0  0  0  0
  -42.4605   58.0136   65.8298 C   0  0  0  0  0  0  0  0  0  0  0  0
  -41.3028   58.5050   64.2759 H   0  0  0  0  0  0  0  0  0  0  0  0
  -37.9232   60.4546   61.0099 O   0  0  0  0  0  0  0  0  0  0  0  0
  -37.1090   60.1450   61.8354 C   0  0  0  0  0  0  0  0  0  0  0  0
  -35.8017   60.4522   61.7715 O   0  0  0  0  0  0  0  0  0  0  0  0
  -34.8275   59.3825   62.0086 C   0  0  0  0  0  0  0  0  0  0  0  0
  -35.5738   58.0732   62.0598 C   0  0  0  0  0  0  0  0  0  0  0  0
  -34.1645   59.7207   63.3298 C   0  0  0  0  0  0  0  0  0  0  0  0
  -32.8373   61.6922   63.7704 N   0  0  0  0  0  0  0  0  0  0  0  0
  -35.0680   61.9226   63.5880 O   0  0  0  0  0  0  0  0  0  0  0  0
  -34.0683   61.2098   63.5772 C   0  0  0  0  0  0  0  0  0  0  0  0
  -32.0725   61.0727   63.7509 H   0  0  0  0  0  0  0  0  0  0  0  0
  -32.0338   64.4681   65.9480 N   0  0  0  0  0  0  0  0  0  0  0  0
  -33.0991   62.5217   66.2757 O   0  0  0  0  0  0  0  0  0  0  0  0
  -32.5955   63.1045   64.0082 C   0  0  0  0  0  0  0  0  0  0  0  0
  -33.6987   63.9450   63.3556 C   0  0  0  0  0  0  0  0  0  0  0  0
  -33.3144   65.4069   63.1534 C   0  0  0  0  0  0  0  0  0  0  0  0
  -33.0121   66.1822   64.4203 C   0  0  0  0  0  0  0  0  0  0  0  0
  -31.7986   65.6844   65.1774 C   0  0  0  0  0  0  0  0  0  0  0  0
  -32.5981   63.3403   65.5103 C   0  0  0  0  0  0  0  0  0  0  0  0
  -31.7461   64.4805   66.8894 H   0  0  0  0  0  0  0  0  0  0  0  0
  -37.5513   57.8464   62.7501 C   0  0  0  0  0  0  0  0  0  0  0  0
  -37.3264   57.5619   61.2689 C   0  0  0  0  0  0  0  0  0  0  0  0
  -38.3736   56.6401   60.6722 C   0  0  0  0  0  0  0  0  0  0  0  0
  -39.6751   57.3168   60.3012 C   0  0  0  0  0  0  0  0  0  0  0  0
  -40.6662   57.1542   61.3530 N   0  0  0  0  0  0  0  0  0  0  0  0
  -39.1668   56.4752   62.8971 O   0  0  0  0  0  0  0  0  0  0  0  0
  -40.3381   56.7425   62.5824 C   0  0  0  0  0  0  0  0  0  0  0  0
  -41.6094   57.3535   61.1534 H   0  0  0  0  0  0  0  0  0  0  0  0
  -42.3742   57.5049   63.7851 C   0  0  0  0  0  0  0  0  0  0  0  0
  -41.4897   56.5606   63.4941 C   0  0  0  0  0  0  0  0  0  0  0  0
  -42.4216   58.9080   63.2660 C   0  0  0  0  0  0  0  0  0  0  0  0
  -43.8487   59.3511   62.9675 C   0  0  0  0  0  0  0  0  0  0  0  0
  -44.8625   58.8924   64.0013 C   0  0  0  0  0  0  0  0  0  0  0  0
  -45.2211   57.4199   63.8898 C   0  0  0  0  0  0  0  0  0  0  0  0
  -45.1381   56.8604   62.4820 C   0  0  0  0  0  0  0  0  0  0  0  0
  -43.7164   56.7550   61.9555 C   0  0  0  0  0  0  0  0  0  0  0  0
  -43.6354   56.6668   60.4441 C   0  0  0  0  0  0  0  0  0  0  0  0
  -44.7683   57.3906   59.7446 C   0  0  0  0  0  0  0  0  0  0  0  0
  -46.1411   57.1155   60.3276 C   0  0  0  0  0  0  0  0  0  0  0  0
  -47.2413   57.8845   59.6230 C   0  0  0  0  0  0  0  0  0  0  0  0
  -48.4283   58.1908   60.5216 C   0  0  0  0  0  0  0  0  0  0  0  0
  -48.3413   57.5631   61.9018 C   0  0  0  0  0  0  0  0  0  0  0  0
  -47.8396   58.5049   62.9854 C   0  0  0  0  0  0  0  0  0  0  0  0
  -48.4935   58.2880   64.3432 C   0  0  0  0  0  0  0  0  0  0  0  0
  -49.7877   59.0652   64.5223 C   0  0  0  0  0  0  0  0  0  0  0  0
  -50.6677   57.9954   62.4111 C   0  0  0  0  0  0  0  0  0  0  0  0
  -50.5939   59.2448   63.2489 C   0  0  0  0  0  0  0  0  0  0  0  0
 43 45  1  0  0  0
 43 42  1  0  0  0
 43 46  1  0  0  0
 64 65  1  0  0  0
 44 45  2  0  0  0
 65 63  1  0  0  0
  2  1  1  0  0  0
  2  4  1  0  0  0
  2  5  1  0  0  0
  3  4  2  0  0  0
 63 62  1  0  0  0
  6  8  1  0  0  0
  6 11  2  0  0  0
  7 10  1  0  0  0
  7 11  1  0  0  0
 62 61  1  0  0  0
 26 28  1  0  0  0
 26 32  1  0  0  0
 26 29  1  0  0  0
 12 18  1  0  0  0
 12 19  1  0  0  0
 61 60  1  0  0  0
 30 36  1  0  0  0
 30 37  1  0  0  0
 30 38  1  0  0  0
 20 21  2  0  0  0
 60 59  1  0  0  0
 22 21  1  0  0  0
 22 23  1  0  0  0
 59 58  1  0  0  0
 27 28  2  0  0  0
 58 57  1  0  0  0
 31 37  2  0  0  0
 57 56  1  0  0  0
 56 55  1  0  0  0
 55 54  1  0  0  0
 54 53  1  0  0  0
 53 52  1  0  0  0
 52 51  1  0  0  0
 51 50  1  0  0  0
 50 49  1  0  0  0
 49 47  1  0  0  0
 47 48  2  0  0  0
 48 45  1  0  0  0
 42 41  1  0  0  0
 41 40  1  0  0  0
 40 39  1  0  0  0
 39  1  1  0  0  0
  1 21  1  0  0  0
  8  4  1  0  0  0
  8  9  1  0  0  0
  8 10  1  0  0  0
 11 13  1  0  0  0
 13 14  2  0  0  0
 13 18  1  0  0  0
 14 15  1  0  0  0
 15 16  2  0  0  0
 16 17  1  0  0  0
 17 18  2  0  0  0
 23 24  1  0  0  0
 23 25  1  0  0  0
 25 28  1  0  0  0
 32 33  1  0  0  0
 32 37  1  0  0  0
 33 34  1  0  0  0
 34 35  1  0  0  0
 35 36  1  0  0  0
M  END
> <minimizedAffinity>
13.80157

> <CNNscore>
0.2202562392

> <CNNaffinity>
6.9978103638

> <CNN_VS>
1.5413113832

> <CNNaffinity_variance>
0.0856717676

$$$$
/media/chris/experiments/cd1a-new-docking/inputs/ligands/7ryo_ligand.pdb


 65 67  0  0  0  0  0  0  0  0999 V2000
  -43.0862   57.8153   64.5226 C   0  0  0  0  0  0  0  0  0  0  0  0
  -44.4621   58.0114   64.9478 N   0  0  0  0  0  0  0  0  0  0  0  0
  -44.0851   57.2340   67.0233 O   0  0  0  0  0  0  0  0  0  0  0  0
  -44.8468   57.6964   66.1871 C   0  0  0  0  0  0  0  0  0  0  0  0
  -45.1186   58.3811   64.3142 H   0  0  0  0  0  0  0  0  0  0  0  0
  -46.9918   58.6887   65.4898 N   0  0  0  0  0  0  0  0  0  0  0  0
  -48.2957   56.8735   65.7868 O   0  0  0  0  0  0  0  0  0  0  0  0
  -46.3254   57.9129   66.5488 C   0  0  0  0  0  0  0  0  0  0  0  0
  -46.4044   58.6906   67.8590 C   0  0  0  0  0  0  0  0  0  0  0  0
  -47.1338   56.6086   66.6133 C   0  0  0  0  0  0  0  0  0  0  0  0
  -48.0313   58.0449   65.1515 C   0  0  0  0  0  0  0  0  0  0  0  0
  -50.5904   59.1914   65.7999 O   0  0  0  0  0  0  0  0  0  0  0  0
  -49.0009   58.4451   64.1291 C   0  0  0  0  0  0  0  0  0  0  0  0
  -48.6490   58.4130   62.7791 C   0  0  0  0  0  0  0  0  0  0  0  0
  -49.4572   59.0122   61.8283 C   0  0  0  0  0  0  0  0  0  0  0  0
  -50.6208   59.6485   62.2025 C   0  0  0  0  0  0  0  0  0  0  0  0
  -50.9900   59.6983   63.5344 C   0  0  0  0  0  0  0  0  0  0  0  0
  -50.1897   59.1037   64.5049 C   0  0  0  0  0  0  0  0  0  0  0  0
  -50.0737   58.8016   66.4776 H   0  0  0  0  0  0  0  0  0  0  0  0
  -42.5467   59.9743   63.5801 O   0  0  0  0  0  0  0  0  0  0  0  0
  -42.3470   59.1411   64.4204 C   0  0  0  0  0  0  0  0  0  0  0  0
  -41.4224   59.2417   65.3912 O   0  0  0  0  0  0  0  0  0  0  0  0
  -40.0181   59.3875   64.9962 C   0  0  0  0  0  0  0  0  0  0  0  0
  -39.4198   58.0084   64.8781 C   0  0  0  0  0  0  0  0  0  0  0  0
  -39.3685   60.2059   66.0952 C   0  0  0  0  0  0  0  0  0  0  0  0
  -37.3686   61.4489   66.6412 N   0  0  0  0  0  0  0  0  0  0  0  0
  -37.5465   60.5583   64.5827 O   0  0  0  0  0  0  0  0  0  0  0  0
  -38.0153   60.7545   65.7005 C   0  0  0  0  0  0  0  0  0  0  0  0
  -37.7940   61.5743   67.5200 H   0  0  0  0  0  0  0  0  0  0  0  0
  -34.3949   63.1794   67.7616 N   0  0  0  0  0  0  0  0  0  0  0  0
  -36.5438   63.2548   68.3995 O   0  0  0  0  0  0  0  0  0  0  0  0
  -36.0561   62.0239   66.4040 C   0  0  0  0  0  0  0  0  0  0  0  0
  -36.0845   62.9012   65.1474 C   0  0  0  0  0  0  0  0  0  0  0  0
  -34.7032   63.1753   64.5622 C   0  0  0  0  0  0  0  0  0  0  0  0
  -33.7487   63.9259   65.4694 C   0  0  0  0  0  0  0  0  0  0  0  0
  -33.3666   63.1731   66.7266 C   0  0  0  0  0  0  0  0  0  0  0  0
  -35.6853   62.8739   67.6091 C   0  0  0  0  0  0  0  0  0  0  0  0
  -34.1067   63.4360   68.6673 H   0  0  0  0  0  0  0  0  0  0  0  0
  -43.0171   57.0481   63.2014 C   0  0  0  0  0  0  0  0  0  0  0  0
  -41.7974   56.1361   63.1230 C   0  0  0  0  0  0  0  0  0  0  0  0
  -40.9299   56.4024   61.9068 C   0  0  0  0  0  0  0  0  0  0  0  0
  -41.4069   57.5355   61.0249 C   0  0  0  0  0  0  0  0  0  0  0  0
  -40.2981   58.1336   60.2982 N   0  0  0  0  0  0  0  0  0  0  0  0
  -40.2012   59.9658   61.6124 O   0  0  0  0  0  0  0  0  0  0  0  0
  -39.7724   59.3129   60.6469 C   0  0  0  0  0  0  0  0  0  0  0  0
  -39.9224   57.6548   59.5244 H   0  0  0  0  0  0  0  0  0  0  0  0
  -37.4539   59.3577   59.7548 C   0  0  0  0  0  0  0  0  0  0  0  0
  -38.7050   59.7976   59.7436 C   0  0  0  0  0  0  0  0  0  0  0  0
  -36.8617   58.3004   60.6334 C   0  0  0  0  0  0  0  0  0  0  0  0
  -36.5714   58.8276   62.0332 C   0  0  0  0  0  0  0  0  0  0  0  0
  -36.0346   57.7740   62.9866 C   0  0  0  0  0  0  0  0  0  0  0  0
  -34.5269   57.8302   63.1685 C   0  0  0  0  0  0  0  0  0  0  0  0
  -33.7455   56.9802   62.1843 C   0  0  0  0  0  0  0  0  0  0  0  0
  -33.1688   57.7738   61.0236 C   0  0  0  0  0  0  0  0  0  0  0  0
  -31.6534   57.7705   60.9815 C   0  0  0  0  0  0  0  0  0  0  0  0
  -31.0536   59.1608   61.0454 C   0  0  0  0  0  0  0  0  0  0  0  0
  -31.4298   59.9483   62.2857 C   0  0  0  0  0  0  0  0  0  0  0  0
  -30.9280   61.3782   62.2461 C   0  0  0  0  0  0  0  0  0  0  0  0
  -32.0473   62.4046   62.1852 C   0  0  0  0  0  0  0  0  0  0  0  0
  -31.5910   63.7994   61.7939 C   0  0  0  0  0  0  0  0  0  0  0  0
  -31.3143   64.7193   62.9729 C   0  0  0  0  0  0  0  0  0  0  0  0
  -31.7907   66.1503   62.7646 C   0  0  0  0  0  0  0  0  0  0  0  0
  -32.8839   66.2771   61.7159 C   0  0  0  0  0  0  0  0  0  0  0  0
  -35.1420   65.1506   61.6242 C   0  0  0  0  0  0  0  0  0  0  0  0
  -34.2958   66.2162   62.2697 C   0  0  0  0  0  0  0  0  0  0  0  0
 43 45  1  0  0  0
 43 42  1  0  0  0
 43 46  1  0  0  0
 64 65  1  0  0  0
 44 45  2  0  0  0
 65 63  1  0  0  0
  2  1  1  0  0  0
  2  4  1  0  0  0
  2  5  1  0  0  0
  3  4  2  0  0  0
 63 62  1  0  0  0
  6  8  1  0  0  0
  6 11  2  0  0  0
  7 10  1  0  0  0
  7 11  1  0  0  0
 62 61  1  0  0  0
 26 28  1  0  0  0
 26 32  1  0  0  0
 26 29  1  0  0  0
 12 18  1  0  0  0
 12 19  1  0  0  0
 61 60  1  0  0  0
 30 36  1  0  0  0
 30 37  1  0  0  0
 30 38  1  0  0  0
 20 21  2  0  0  0
 60 59  1  0  0  0
 22 21  1  0  0  0
 22 23  1  0  0  0
 59 58  1  0  0  0
 27 28  2  0  0  0
 58 57  1  0  0  0
 31 37  2  0  0  0
 57 56  1  0  0  0
 56 55  1  0  0  0
 55 54  1  0  0  0
 54 53  1  0  0  0
 53 52  1  0  0  0
 52 51  1  0  0  0
 51 50  1  0  0  0
 50 49  1  0  0  0
 49 47  1  0  0  0
 47 48  2  0  0  0
 48 45  1  0  0  0
 42 41  1  0  0  0
 41 40  1  0  0  0
 40 39  1  0  0  0
 39  1  1  0  0  0
  1 21  1  0  0  0
  8  4  1  0  0  0
  8  9  1  0  0  0
  8 10  1  0  0  0
 11 13  1  0  0  0
 13 14  2  0  0  0
 13 18  1  0  0  0
 14 15  1  0  0  0
 15 16  2  0  0  0
 16 17  1  0  0  0
 17 18  2  0  0  0
 23 24  1  0  0  0
 23 25  1  0  0  0
 25 28  1  0  0  0
 32 33  1  0  0  0
 32 37  1  0  0  0
 33 34  1  0  0  0
 34 35  1  0  0  0
 35 36  1  0  0  0
M  END
> <minimizedAffinity>
-9.38733

> <CNNscore>
0.2149086297

> <CNNaffinity>
7.8068361282

> <CNN_VS>
1.6777564287

> <CNNaffinity_variance>
1.4835922718

$$$$
/media/chris/experiments/cd1a-new-docking/inputs/ligands/7ryo_ligand.pdb


 65 67  0  0  0  0  0  0  0  0999 V2000
  -38.2148   58.2985   64.8665 C   0  0  0  0  0  0  0  0  0  0  0  0
  -39.4894   57.6113   64.7421 N   0  0  0  0  0  0  0  0  0  0  0  0
  -39.2400   57.2401   62.5390 O   0  0  0  0  0  0  0  0  0  0  0  0
  -39.8968   57.1331   63.5639 C   0  0  0  0  0  0  0  0  0  0  0  0
  -40.0595   57.4968   65.5365 H   0  0  0  0  0  0  0  0  0  0  0  0
  -41.9620   56.6089   64.8016 N   0  0  0  0  0  0  0  0  0  0  0  0
  -43.4476   57.2904   63.2485 O   0  0  0  0  0  0  0  0  0  0  0  0
  -41.2683   56.4400   63.5140 C   0  0  0  0  0  0  0  0  0  0  0  0
  -41.0599   54.9512   63.2534 C   0  0  0  0  0  0  0  0  0  0  0  0
  -42.2302   57.0657   62.4931 C   0  0  0  0  0  0  0  0  0  0  0  0
  -43.1160   57.0707   64.5475 C   0  0  0  0  0  0  0  0  0  0  0  0
  -42.5415   58.3980   67.0360 O   0  0  0  0  0  0  0  0  0  0  0  0
  -44.1534   57.3928   65.5304 C   0  0  0  0  0  0  0  0  0  0  0  0
  -45.4988   57.1888   65.2213 C   0  0  0  0  0  0  0  0  0  0  0  0
  -46.4923   57.7094   66.0325 C   0  0  0  0  0  0  0  0  0  0  0  0
  -46.1658   58.4362   67.1567 C   0  0  0  0  0  0  0  0  0  0  0  0
  -44.8400   58.6564   67.4829 C   0  0  0  0  0  0  0  0  0  0  0  0
  -43.8272   58.1431   66.6788 C   0  0  0  0  0  0  0  0  0  0  0  0
  -41.8363   58.0666   66.5155 H   0  0  0  0  0  0  0  0  0  0  0  0
  -36.9212   56.8180   66.2720 O   0  0  0  0  0  0  0  0  0  0  0  0
  -37.0940   57.3246   65.1979 C   0  0  0  0  0  0  0  0  0  0  0  0
  -36.3093   57.1255   64.1245 O   0  0  0  0  0  0  0  0  0  0  0  0
  -35.8204   58.3012   63.3978 C   0  0  0  0  0  0  0  0  0  0  0  0
  -35.6612   57.9216   61.9471 C   0  0  0  0  0  0  0  0  0  0  0  0
  -34.4987   58.6617   64.0480 C   0  0  0  0  0  0  0  0  0  0  0  0
  -34.4564   61.0513   64.4094 N   0  0  0  0  0  0  0  0  0  0  0  0
  -33.2358   60.2026   62.7206 O   0  0  0  0  0  0  0  0  0  0  0  0
  -34.0077   60.0391   63.6615 C   0  0  0  0  0  0  0  0  0  0  0  0
  -35.0743   60.8601   65.1515 H   0  0  0  0  0  0  0  0  0  0  0  0
  -33.2017   64.2605   65.5139 N   0  0  0  0  0  0  0  0  0  0  0  0
  -34.4194   62.6644   66.5141 O   0  0  0  0  0  0  0  0  0  0  0  0
  -34.0586   62.4255   64.1587 C   0  0  0  0  0  0  0  0  0  0  0  0
  -35.1268   63.1390   63.3225 C   0  0  0  0  0  0  0  0  0  0  0  0
  -34.6208   64.4018   62.6334 C   0  0  0  0  0  0  0  0  0  0  0  0
  -34.1364   65.4996   63.5594 C   0  0  0  0  0  0  0  0  0  0  0  0
  -32.9165   65.1286   64.3764 C   0  0  0  0  0  0  0  0  0  0  0  0
  -33.9088   63.1284   65.4988 C   0  0  0  0  0  0  0  0  0  0  0  0
  -32.8342   64.5390   66.3837 H   0  0  0  0  0  0  0  0  0  0  0  0
  -38.2876   59.4207   65.9031 C   0  0  0  0  0  0  0  0  0  0  0  0
  -38.9472   60.6795   65.3503 C   0  0  0  0  0  0  0  0  0  0  0  0
  -38.6884   60.8882   63.8697 C   0  0  0  0  0  0  0  0  0  0  0  0
  -39.9146   60.7743   62.9906 C   0  0  0  0  0  0  0  0  0  0  0  0
  -39.6009   60.0970   61.7425 N   0  0  0  0  0  0  0  0  0  0  0  0
  -37.5174   60.9531   61.6025 O   0  0  0  0  0  0  0  0  0  0  0  0
  -38.4176   60.2364   61.1351 C   0  0  0  0  0  0  0  0  0  0  0  0
  -40.2819   59.5170   61.3312 H   0  0  0  0  0  0  0  0  0  0  0  0
  -39.3441   59.0869   59.1367 C   0  0  0  0  0  0  0  0  0  0  0  0
  -38.3104   59.5348   59.8364 C   0  0  0  0  0  0  0  0  0  0  0  0
  -40.7979   59.1996   59.4747 C   0  0  0  0  0  0  0  0  0  0  0  0
  -41.6645   58.3960   58.5129 C   0  0  0  0  0  0  0  0  0  0  0  0
  -41.8696   59.0663   57.1655 C   0  0  0  0  0  0  0  0  0  0  0  0
  -43.2950   58.9676   56.6478 C   0  0  0  0  0  0  0  0  0  0  0  0
  -44.2772   58.3591   57.6310 C   0  0  0  0  0  0  0  0  0  0  0  0
  -45.6217   58.0174   57.0104 C   0  0  0  0  0  0  0  0  0  0  0  0
  -46.8026   58.3595   57.8975 C   0  0  0  0  0  0  0  0  0  0  0  0
  -46.9421   57.4303   59.0866 C   0  0  0  0  0  0  0  0  0  0  0  0
  -48.3231   56.8250   59.2493 C   0  0  0  0  0  0  0  0  0  0  0  0
  -49.3679   57.8488   59.6472 C   0  0  0  0  0  0  0  0  0  0  0  0
  -50.3808   57.3141   60.6464 C   0  0  0  0  0  0  0  0  0  0  0  0
  -50.4630   58.1124   61.9358 C   0  0  0  0  0  0  0  0  0  0  0  0
  -49.4794   59.2694   62.0174 C   0  0  0  0  0  0  0  0  0  0  0  0
  -49.7497   60.2297   63.1676 C   0  0  0  0  0  0  0  0  0  0  0  0
  -48.9146   59.9417   64.4048 C   0  0  0  0  0  0  0  0  0  0  0  0
  -50.1703   58.3414   65.9010 C   0  0  0  0  0  0  0  0  0  0  0  0
  -49.7202   59.7614   65.6785 C   0  0  0  0  0  0  0  0  0  0  0  0
 43 45  1  0  0  0
 43 42  1  0  0  0
 43 46  1  0  0  0
 64 65  1  0  0  0
 44 45  2  0  0  0
 65 63  1  0  0  0
  2  1  1  0  0  0
  2  4  1  0  0  0
  2  5  1  0  0  0
  3  4  2  0  0  0
 63 62  1  0  0  0
  6  8  1  0  0  0
  6 11  2  0  0  0
  7 10  1  0  0  0
  7 11  1  0  0  0
 62 61  1  0  0  0
 26 28  1  0  0  0
 26 32  1  0  0  0
 26 29  1  0  0  0
 12 18  1  0  0  0
 12 19  1  0  0  0
 61 60  1  0  0  0
 30 36  1  0  0  0
 30 37  1  0  0  0
 30 38  1  0  0  0
 20 21  2  0  0  0
 60 59  1  0  0  0
 22 21  1  0  0  0
 22 23  1  0  0  0
 59 58  1  0  0  0
 27 28  2  0  0  0
 58 57  1  0  0  0
 31 37  2  0  0  0
 57 56  1  0  0  0
 56 55  1  0  0  0
 55 54  1  0  0  0
 54 53  1  0  0  0
 53 52  1  0  0  0
 52 51  1  0  0  0
 51 50  1  0  0  0
 50 49  1  0  0  0
 49 47  1  0  0  0
 47 48  2  0  0  0
 48 45  1  0  0  0
 42 41  1  0  0  0
 41 40  1  0  0  0
 40 39  1  0  0  0
 39  1  1  0  0  0
  1 21  1  0  0  0
  8  4  1  0  0  0
  8  9  1  0  0  0
  8 10  1  0  0  0
 11 13  1  0  0  0
 13 14  2  0  0  0
 13 18  1  0  0  0
 14 15  1  0  0  0
 15 16  2  0  0  0
 16 17  1  0  0  0
 17 18  2  0  0  0
 23 24  1  0  0  0
 23 25  1  0  0  0
 25 28  1  0  0  0
 32 33  1  0  0  0
 32 37  1  0  0  0
 33 34  1  0  0  0
 34 35  1  0  0  0
 35 36  1  0  0  0
M  END
> <minimizedAffinity>
-7.84073

> <CNNscore>
0.1957815439

> <CNNaffinity>
7.7240052223

> <CNN_VS>
1.5122176409

> <CNNaffinity_variance>
1.1765172482

$$$$
/media/chris/experiments/cd1a-new-docking/inputs/ligands/7ryo_ligand.pdb


 65 67  0  0  0  0  0  0  0  0999 V2000
  -43.2685   56.7114   65.2965 C   0  0  0  0  0  0  0  0  0  0  0  0
  -42.5121   57.6892   66.0607 N   0  0  0  0  0  0  0  0  0  0  0  0
  -42.4804   59.1892   64.3866 O   0  0  0  0  0  0  0  0  0  0  0  0
  -42.1785   58.8663   65.5258 C   0  0  0  0  0  0  0  0  0  0  0  0
  -42.2424   57.4812   66.9844 H   0  0  0  0  0  0  0  0  0  0  0  0
  -39.9650   59.3661   66.4861 N   0  0  0  0  0  0  0  0  0  0  0  0
  -39.8112   61.5184   65.8326 O   0  0  0  0  0  0  0  0  0  0  0  0
  -41.3578   59.8343   66.3937 C   0  0  0  0  0  0  0  0  0  0  0  0
  -41.9622   59.8755   67.7939 C   0  0  0  0  0  0  0  0  0  0  0  0
  -41.2338   61.2400   65.7874 C   0  0  0  0  0  0  0  0  0  0  0  0
  -39.2199   60.3410   66.1636 C   0  0  0  0  0  0  0  0  0  0  0  0
  -37.6963   57.9438   65.6982 O   0  0  0  0  0  0  0  0  0  0  0  0
  -37.7559   60.3307   66.1161 C   0  0  0  0  0  0  0  0  0  0  0  0
  -37.0453   61.5310   66.1549 C   0  0  0  0  0  0  0  0  0  0  0  0
  -35.6914   61.5551   65.8676 C   0  0  0  0  0  0  0  0  0  0  0  0
  -35.0269   60.3934   65.5396 C   0  0  0  0  0  0  0  0  0  0  0  0
  -35.7089   59.1913   65.4898 C   0  0  0  0  0  0  0  0  0  0  0  0
  -37.0704   59.1472   65.7732 C   0  0  0  0  0  0  0  0  0  0  0  0
  -38.6128   57.8802   65.8831 H   0  0  0  0  0  0  0  0  0  0  0  0
  -41.4528   55.2090   64.7609 O   0  0  0  0  0  0  0  0  0  0  0  0
  -42.3586   55.9010   64.3855 C   0  0  0  0  0  0  0  0  0  0  0  0
  -42.6967   56.0840   63.0972 O   0  0  0  0  0  0  0  0  0  0  0  0
  -41.7400   56.7677   62.2216 C   0  0  0  0  0  0  0  0  0  0  0  0
  -42.2571   56.6834   60.8076 C   0  0  0  0  0  0  0  0  0  0  0  0
  -40.4261   56.0319   62.4002 C   0  0  0  0  0  0  0  0  0  0  0  0
  -38.1349   56.7454   62.1112 N   0  0  0  0  0  0  0  0  0  0  0  0
  -39.4131   57.8323   63.6101 O   0  0  0  0  0  0  0  0  0  0  0  0
  -39.2812   56.9500   62.7664 C   0  0  0  0  0  0  0  0  0  0  0  0
  -38.0876   56.0223   61.4448 H   0  0  0  0  0  0  0  0  0  0  0  0
  -36.2088   59.7779   61.6780 N   0  0  0  0  0  0  0  0  0  0  0  0
  -37.6786   58.6965   60.3738 O   0  0  0  0  0  0  0  0  0  0  0  0
  -36.9567   57.5594   62.3539 C   0  0  0  0  0  0  0  0  0  0  0  0
  -35.6877   56.7298   62.1288 C   0  0  0  0  0  0  0  0  0  0  0  0
  -34.4439   57.3273   62.7780 C   0  0  0  0  0  0  0  0  0  0  0  0
  -34.0388   58.6972   62.2713 C   0  0  0  0  0  0  0  0  0  0  0  0
  -35.0476   59.7889   62.5611 C   0  0  0  0  0  0  0  0  0  0  0  0
  -36.9788   58.7285   61.3818 C   0  0  0  0  0  0  0  0  0  0  0  0
  -36.4497   60.6343   61.2562 H   0  0  0  0  0  0  0  0  0  0  0  0
  -44.3892   57.3775   64.4968 C   0  0  0  0  0  0  0  0  0  0  0  0
  -45.7184   57.3708   65.2442 C   0  0  0  0  0  0  0  0  0  0  0  0
  -45.5707   57.6525   66.7279 C   0  0  0  0  0  0  0  0  0  0  0  0
  -46.7851   58.2795   67.3771 C   0  0  0  0  0  0  0  0  0  0  0  0
  -47.9980   57.9447   66.6479 N   0  0  0  0  0  0  0  0  0  0  0  0
  -48.7487   60.0720   66.5792 O   0  0  0  0  0  0  0  0  0  0  0  0
  -48.8975   58.8711   66.2997 C   0  0  0  0  0  0  0  0  0  0  0  0
  -48.1623   57.0054   66.4027 H   0  0  0  0  0  0  0  0  0  0  0  0
  -50.5661   58.7499   64.4626 C   0  0  0  0  0  0  0  0  0  0  0  0
  -50.1040   58.3319   65.6334 C   0  0  0  0  0  0  0  0  0  0  0  0
  -49.9879   59.8056   63.5728 C   0  0  0  0  0  0  0  0  0  0  0  0
  -49.8131   59.3055   62.1441 C   0  0  0  0  0  0  0  0  0  0  0  0
  -50.5146   57.9875   61.8653 C   0  0  0  0  0  0  0  0  0  0  0  0
  -50.1972   57.4072   60.4972 C   0  0  0  0  0  0  0  0  0  0  0  0
  -48.7317   57.4792   60.1114 C   0  0  0  0  0  0  0  0  0  0  0  0
  -48.2409   56.2492   59.3659 C   0  0  0  0  0  0  0  0  0  0  0  0
  -47.4254   56.5755   58.1301 C   0  0  0  0  0  0  0  0  0  0  0  0
  -46.7527   57.9316   58.2024 C   0  0  0  0  0  0  0  0  0  0  0  0
  -45.7972   58.2178   57.0600 C   0  0  0  0  0  0  0  0  0  0  0  0
  -44.3473   58.2446   57.5021 C   0  0  0  0  0  0  0  0  0  0  0  0
  -43.4471   59.0240   56.5575 C   0  0  0  0  0  0  0  0  0  0  0  0
  -41.9768   58.9974   56.9367 C   0  0  0  0  0  0  0  0  0  0  0  0
  -41.7116   58.5992   58.3804 C   0  0  0  0  0  0  0  0  0  0  0  0
  -40.4532   59.2204   58.9710 C   0  0  0  0  0  0  0  0  0  0  0  0
  -40.7304   60.4325   59.8457 C   0  0  0  0  0  0  0  0  0  0  0  0
  -41.3771   61.1700   62.1726 C   0  0  0  0  0  0  0  0  0  0  0  0
  -40.6239   60.1688   61.3367 C   0  0  0  0  0  0  0  0  0  0  0  0
 43 45  1  0  0  0
 43 42  1  0  0  0
 43 46  1  0  0  0
 64 65  1  0  0  0
 44 45  2  0  0  0
 65 63  1  0  0  0
  2  1  1  0  0  0
  2  4  1  0  0  0
  2  5  1  0  0  0
  3  4  2  0  0  0
 63 62  1  0  0  0
  6  8  1  0  0  0
  6 11  2  0  0  0
  7 10  1  0  0  0
  7 11  1  0  0  0
 62 61  1  0  0  0
 26 28  1  0  0  0
 26 32  1  0  0  0
 26 29  1  0  0  0
 12 18  1  0  0  0
 12 19  1  0  0  0
 61 60  1  0  0  0
 30 36  1  0  0  0
 30 37  1  0  0  0
 30 38  1  0  0  0
 20 21  2  0  0  0
 60 59  1  0  0  0
 22 21  1  0  0  0
 22 23  1  0  0  0
 59 58  1  0  0  0
 27 28  2  0  0  0
 58 57  1  0  0  0
 31 37  2  0  0  0
 57 56  1  0  0  0
 56 55  1  0  0  0
 55 54  1  0  0  0
 54 53  1  0  0  0
 53 52  1  0  0  0
 52 51  1  0  0  0
 51 50  1  0  0  0
 50 49  1  0  0  0
 49 47  1  0  0  0
 47 48  2  0  0  0
 48 45  1  0  0  0
 42 41  1  0  0  0
 41 40  1  0  0  0
 40 39  1  0  0  0
 39  1  1  0  0  0
  1 21  1  0  0  0
  8  4  1  0  0  0
  8  9  1  0  0  0
  8 10  1  0  0  0
 11 13  1  0  0  0
 13 14  2  0  0  0
 13 18  1  0  0  0
 14 15  1  0  0  0
 15 16  2  0  0  0
 16 17  1  0  0  0
 17 18  2  0  0  0
 23 24  1  0  0  0
 23 25  1  0  0  0
 25 28  1  0  0  0
 32 33  1  0  0  0
 32 37  1  0  0  0
 33 34  1  0  0  0
 34 35  1  0  0  0
 35 36  1  0  0  0
M  END
> <minimizedAffinity>
-8.37616

> <CNNscore>
0.1919177622

> <CNNaffinity>
7.8266892433

> <CNN_VS>
1.5020806789

> <CNNaffinity_variance>
2.7223088741

$$$$
/media/chris/experiments/cd1a-new-docking/inputs/ligands/7ryo_ligand.pdb


 65 67  0  0  0  0  0  0  0  0999 V2000
  -38.6811   60.0441   64.6149 C   0  0  0  0  0  0  0  0  0  0  0  0
  -37.5428   60.7802   65.1389 N   0  0  0  0  0  0  0  0  0  0  0  0
  -36.6541   61.1406   63.1057 O   0  0  0  0  0  0  0  0  0  0  0  0
  -36.6108   61.2735   64.3197 C   0  0  0  0  0  0  0  0  0  0  0  0
  -37.4578   60.9170   66.1102 H   0  0  0  0  0  0  0  0  0  0  0  0
  -34.5167   62.5045   63.9065 N   0  0  0  0  0  0  0  0  0  0  0  0
  -34.9539   64.3151   65.1770 O   0  0  0  0  0  0  0  0  0  0  0  0
  -35.4270   62.0193   64.9570 C   0  0  0  0  0  0  0  0  0  0  0  0
  -34.6687   61.0567   65.8659 C   0  0  0  0  0  0  0  0  0  0  0  0
  -35.8420   63.2962   65.7027 C   0  0  0  0  0  0  0  0  0  0  0  0
  -34.3310   63.7422   64.1142 C   0  0  0  0  0  0  0  0  0  0  0  0
  -31.6713   63.0360   63.2710 O   0  0  0  0  0  0  0  0  0  0  0  0
  -33.4913   64.6362   63.3133 C   0  0  0  0  0  0  0  0  0  0  0  0
  -34.0188   65.8238   62.8047 C   0  0  0  0  0  0  0  0  0  0  0  0
  -33.3228   66.5511   61.8545 C   0  0  0  0  0  0  0  0  0  0  0  0
  -32.0991   66.1117   61.3980 C   0  0  0  0  0  0  0  0  0  0  0  0
  -31.5563   64.9357   61.8827 C   0  0  0  0  0  0  0  0  0  0  0  0
  -32.2417   64.1898   62.8365 C   0  0  0  0  0  0  0  0  0  0  0  0
  -32.1072   62.5106   63.9129 H   0  0  0  0  0  0  0  0  0  0  0  0
  -40.2632   61.2986   65.9431 O   0  0  0  0  0  0  0  0  0  0  0  0
  -39.9146   60.2469   65.4820 C   0  0  0  0  0  0  0  0  0  0  0  0
  -40.5503   59.0787   65.6785 O   0  0  0  0  0  0  0  0  0  0  0  0
  -41.9512   59.1176   66.1092 C   0  0  0  0  0  0  0  0  0  0  0  0
  -41.9755   59.2128   67.6139 C   0  0  0  0  0  0  0  0  0  0  0  0
  -42.5692   57.8287   65.6027 C   0  0  0  0  0  0  0  0  0  0  0  0
  -44.8670   58.1618   66.2748 N   0  0  0  0  0  0  0  0  0  0  0  0
  -44.4155   57.9343   64.0824 O   0  0  0  0  0  0  0  0  0  0  0  0
  -44.0323   57.9758   65.2482 C   0  0  0  0  0  0  0  0  0  0  0  0
  -44.5026   58.1862   67.1889 H   0  0  0  0  0  0  0  0  0  0  0  0
  -48.1223   59.3036   67.3670 N   0  0  0  0  0  0  0  0  0  0  0  0
  -46.3089   58.5682   68.4632 O   0  0  0  0  0  0  0  0  0  0  0  0
  -46.2966   58.3291   66.0804 C   0  0  0  0  0  0  0  0  0  0  0  0
  -46.9231   57.0094   65.6163 C   0  0  0  0  0  0  0  0  0  0  0  0
  -48.2897   57.1789   64.9611 C   0  0  0  0  0  0  0  0  0  0  0  0
  -49.3696   57.7647   65.8488 C   0  0  0  0  0  0  0  0  0  0  0  0
  -49.1030   59.1877   66.2931 C   0  0  0  0  0  0  0  0  0  0  0  0
  -46.9109   58.7442   67.4080 C   0  0  0  0  0  0  0  0  0  0  0  0
  -48.3811   59.8517   68.1428 H   0  0  0  0  0  0  0  0  0  0  0  0
  -38.3586   58.5568   64.4630 C   0  0  0  0  0  0  0  0  0  0  0  0
  -37.4372   58.0472   65.5660 C   0  0  0  0  0  0  0  0  0  0  0  0
  -35.9971   57.8881   65.1151 C   0  0  0  0  0  0  0  0  0  0  0  0
  -35.8253   57.2105   63.7731 C   0  0  0  0  0  0  0  0  0  0  0  0
  -36.5067   57.9512   62.7234 N   0  0  0  0  0  0  0  0  0  0  0  0
  -34.9211   57.5438   61.1699 O   0  0  0  0  0  0  0  0  0  0  0  0
  -36.0020   58.0649   61.4901 C   0  0  0  0  0  0  0  0  0  0  0  0
  -37.3677   58.3831   62.9273 H   0  0  0  0  0  0  0  0  0  0  0  0
  -38.1119   58.8441   60.4344 C   0  0  0  0  0  0  0  0  0  0  0  0
  -36.7961   58.9211   60.5809 C   0  0  0  0  0  0  0  0  0  0  0  0
  -39.0606   57.9253   61.1389 C   0  0  0  0  0  0  0  0  0  0  0  0
  -40.5063   58.1913   60.7375 C   0  0  0  0  0  0  0  0  0  0  0  0
  -40.6504   58.9379   59.4226 C   0  0  0  0  0  0  0  0  0  0  0  0
  -41.6652   58.3155   58.4780 C   0  0  0  0  0  0  0  0  0  0  0  0
  -41.8507   59.0687   57.1741 C   0  0  0  0  0  0  0  0  0  0  0  0
  -43.2819   59.0511   56.6633 C   0  0  0  0  0  0  0  0  0  0  0  0
  -44.2450   58.3290   57.5850 C   0  0  0  0  0  0  0  0  0  0  0  0
  -45.5563   57.9727   56.9139 C   0  0  0  0  0  0  0  0  0  0  0  0
  -46.7904   58.3868   57.6921 C   0  0  0  0  0  0  0  0  0  0  0  0
  -47.0131   57.5409   58.9302 C   0  0  0  0  0  0  0  0  0  0  0  0
  -48.4402   57.6030   59.4496 C   0  0  0  0  0  0  0  0  0  0  0  0
  -48.9782   56.2736   59.9493 C   0  0  0  0  0  0  0  0  0  0  0  0
  -49.9954   56.3947   61.0734 C   0  0  0  0  0  0  0  0  0  0  0  0
  -50.9214   57.5961   60.9413 C   0  0  0  0  0  0  0  0  0  0  0  0
  -51.1778   58.3097   62.2590 C   0  0  0  0  0  0  0  0  0  0  0  0
  -50.6663   60.3954   63.5873 C   0  0  0  0  0  0  0  0  0  0  0  0
  -50.1530   59.3739   62.6068 C   0  0  0  0  0  0  0  0  0  0  0  0
 43 45  1  0  0  0
 43 42  1  0  0  0
 43 46  1  0  0  0
 64 65  1  0  0  0
 44 45  2  0  0  0
 65 63  1  0  0  0
  2  1  1  0  0  0
  2  4  1  0  0  0
  2  5  1  0  0  0
  3  4  2  0  0  0
 63 62  1  0  0  0
  6  8  1  0  0  0
  6 11  2  0  0  0
  7 10  1  0  0  0
  7 11  1  0  0  0
 62 61  1  0  0  0
 26 28  1  0  0  0
 26 32  1  0  0  0
 26 29  1  0  0  0
 12 18  1  0  0  0
 12 19  1  0  0  0
 61 60  1  0  0  0
 30 36  1  0  0  0
 30 37  1  0  0  0
 30 38  1  0  0  0
 20 21  2  0  0  0
 60 59  1  0  0  0
 22 21  1  0  0  0
 22 23  1  0  0  0
 59 58  1  0  0  0
 27 28  2  0  0  0
 58 57  1  0  0  0
 31 37  2  0  0  0
 57 56  1  0  0  0
 56 55  1  0  0  0
 55 54  1  0  0  0
 54 53  1  0  0  0
 53 52  1  0  0  0
 52 51  1  0  0  0
 51 50  1  0  0  0
 50 49  1  0  0  0
 49 47  1  0  0  0
 47 48  2  0  0  0
 48 45  1  0  0  0
 42 41  1  0  0  0
 41 40  1  0  0  0
 40 39  1  0  0  0
 39  1  1  0  0  0
  1 21  1  0  0  0
  8  4  1  0  0  0
  8  9  1  0  0  0
  8 10  1  0  0  0
 11 13  1  0  0  0
 13 14  2  0  0  0
 13 18  1  0  0  0
 14 15  1  0  0  0
 15 16  2  0  0  0
 16 17  1  0  0  0
 17 18  2  0  0  0
 23 24  1  0  0  0
 23 25  1  0  0  0
 25 28  1  0  0  0
 32 33  1  0  0  0
 32 37  1  0  0  0
 33 34  1  0  0  0
 34 35  1  0  0  0
 35 36  1  0  0  0
M  END
> <minimizedAffinity>
-8.58959

> <CNNscore>
0.1917177886

> <CNNaffinity>
7.4108133316

> <CNN_VS>
1.4207847118

> <CNNaffinity_variance>
1.3864146471

$$$$
