/media/chris/experiments/cd1a-new-docking/inputs/ligands/7ryo_ligand.pdb


 65 67  0  0  0  0  0  0  0  0999 V2000
  -35.3868   58.6683   62.5230 C   0  0  0  0  0  0  0  0  0  0  0  0
  -33.9387   58.7560   62.4351 N   0  0  0  0  0  0  0  0  0  0  0  0
  -33.6799   56.5501   62.0877 O   0  0  0  0  0  0  0  0  0  0  0  0
  -33.1987   57.6655   62.2207 C   0  0  0  0  0  0  0  0  0  0  0  0
  -33.4979   59.6306   62.5350 H   0  0  0  0  0  0  0  0  0  0  0  0
  -31.3391   59.1150   61.5046 N   0  0  0  0  0  0  0  0  0  0  0  0
  -30.1961   59.1525   63.4475 O   0  0  0  0  0  0  0  0  0  0  0  0
  -31.6723   57.8419   62.1648 C   0  0  0  0  0  0  0  0  0  0  0  0
  -31.0718   56.6928   61.3604 C   0  0  0  0  0  0  0  0  0  0  0  0
  -31.0223   57.9651   63.5507 C   0  0  0  0  0  0  0  0  0  0  0  0
  -30.5476   59.7400   62.2742 C   0  0  0  0  0  0  0  0  0  0  0  0
  -29.5244   60.5134   59.6977 O   0  0  0  0  0  0  0  0  0  0  0  0
  -29.9551   61.0554   62.0206 C   0  0  0  0  0  0  0  0  0  0  0  0
  -29.9981   62.0446   63.0038 C   0  0  0  0  0  0  0  0  0  0  0  0
  -29.6664   63.3534   62.6984 C   0  0  0  0  0  0  0  0  0  0  0  0
  -29.2888   63.6969   61.4185 C   0  0  0  0  0  0  0  0  0  0  0  0
  -29.2424   62.7363   60.4246 C   0  0  0  0  0  0  0  0  0  0  0  0
  -29.5742   61.4160   60.7117 C   0  0  0  0  0  0  0  0  0  0  0  0
  -29.7419   59.6161   59.8580 H   0  0  0  0  0  0  0  0  0  0  0  0
  -35.4934   57.6376   64.7063 O   0  0  0  0  0  0  0  0  0  0  0  0
  -35.8426   58.5155   63.9663 C   0  0  0  0  0  0  0  0  0  0  0  0
  -36.7091   59.4901   64.2931 O   0  0  0  0  0  0  0  0  0  0  0  0
  -37.5149   59.3209   65.5062 C   0  0  0  0  0  0  0  0  0  0  0  0
  -38.6234   58.3457   65.1992 C   0  0  0  0  0  0  0  0  0  0  0  0
  -38.0396   60.7033   65.8429 C   0  0  0  0  0  0  0  0  0  0  0  0
  -36.2223   62.0723   65.0271 N   0  0  0  0  0  0  0  0  0  0  0  0
  -36.7273   62.1588   67.2178 O   0  0  0  0  0  0  0  0  0  0  0  0
  -36.9368   61.7071   66.0955 C   0  0  0  0  0  0  0  0  0  0  0  0
  -36.4355   61.6764   64.1513 H   0  0  0  0  0  0  0  0  0  0  0  0
  -33.4608   63.9173   63.5905 N   0  0  0  0  0  0  0  0  0  0  0  0
  -34.3226   61.8865   63.1857 O   0  0  0  0  0  0  0  0  0  0  0  0
  -35.1399   63.0363   65.1209 C   0  0  0  0  0  0  0  0  0  0  0  0
  -34.2966   62.7614   66.3710 C   0  0  0  0  0  0  0  0  0  0  0  0
  -33.4418   63.9474   66.8044 C   0  0  0  0  0  0  0  0  0  0  0  0
  -32.4043   64.4050   65.7984 C   0  0  0  0  0  0  0  0  0  0  0  0
  -32.9868   64.9464   64.5097 C   0  0  0  0  0  0  0  0  0  0  0  0
  -34.2711   62.8969   63.8809 C   0  0  0  0  0  0  0  0  0  0  0  0
  -33.1504   63.9821   62.6584 H   0  0  0  0  0  0  0  0  0  0  0  0
  -35.9279   57.5305   61.6559 C   0  0  0  0  0  0  0  0  0  0  0  0
  -37.4469   57.4178   61.7283 C   0  0  0  0  0  0  0  0  0  0  0  0
  -38.1634   58.4411   60.8669 C   0  0  0  0  0  0  0  0  0  0  0  0
  -39.6721   58.3267   60.8708 C   0  0  0  0  0  0  0  0  0  0  0  0
  -40.1264   57.4513   61.9395 N   0  0  0  0  0  0  0  0  0  0  0  0
  -41.8793   56.6466   60.7672 O   0  0  0  0  0  0  0  0  0  0  0  0
  -41.2040   56.6698   61.8094 C   0  0  0  0  0  0  0  0  0  0  0  0
  -39.6246   57.4334   62.7862 H   0  0  0  0  0  0  0  0  0  0  0  0
  -42.0791   56.4448   64.1239 C   0  0  0  0  0  0  0  0  0  0  0  0
  -41.5582   55.9089   63.0284 C   0  0  0  0  0  0  0  0  0  0  0  0
  -42.4322   57.8795   64.3640 C   0  0  0  0  0  0  0  0  0  0  0  0
  -43.4832   58.0264   65.4575 C   0  0  0  0  0  0  0  0  0  0  0  0
  -44.8382   57.4482   65.0876 C   0  0  0  0  0  0  0  0  0  0  0  0
  -45.8916   57.6279   66.1680 C   0  0  0  0  0  0  0  0  0  0  0  0
  -47.3198   57.6261   65.6561 C   0  0  0  0  0  0  0  0  0  0  0  0
  -47.6822   58.8746   64.8691 C   0  0  0  0  0  0  0  0  0  0  0  0
  -48.5715   59.8355   65.6336 C   0  0  0  0  0  0  0  0  0  0  0  0
  -49.4563   60.6726   64.7318 C   0  0  0  0  0  0  0  0  0  0  0  0
  -50.9422   60.4289   64.9119 C   0  0  0  0  0  0  0  0  0  0  0  0
  -51.6250   59.9988   63.6286 C   0  0  0  0  0  0  0  0  0  0  0  0
  -50.6496   59.5575   62.5498 C   0  0  0  0  0  0  0  0  0  0  0  0
  -50.7821   58.0977   62.1517 C   0  0  0  0  0  0  0  0  0  0  0  0
  -50.3553   57.7992   60.7227 C   0  0  0  0  0  0  0  0  0  0  0  0
  -49.0220   58.4227   60.3336 C   0  0  0  0  0  0  0  0  0  0  0  0
  -48.1493   57.5072   59.4902 C   0  0  0  0  0  0  0  0  0  0  0  0
  -46.9429   57.4502   57.2726 C   0  0  0  0  0  0  0  0  0  0  0  0
  -47.2238   58.2313   58.5295 C   0  0  0  0  0  0  0  0  0  0  0  0
 43 45  1  0  0  0
 43 42  1  0  0  0
 43 46  1  0  0  0
 64 65  1  0  0  0
 44 45  2  0  0  0
 65 63  1  0  0  0
  2  1  1  0  0  0
  2  4  1  0  0  0
  2  5  1  0  0  0
  3  4  2  0  0  0
 63 62  1  0  0  0
  6  8  1  0  0  0
  6 11  2  0  0  0
  7 10  1  0  0  0
  7 11  1  0  0  0
 62 61  1  0  0  0
 26 28  1  0  0  0
 26 32  1  0  0  0
 26 29  1  0  0  0
 12 18  1  0  0  0
 12 19  1  0  0  0
 61 60  1  0  0  0
 30 36  1  0  0  0
 30 37  1  0  0  0
 30 38  1  0  0  0
 20 21  2  0  0  0
 60 59  1  0  0  0
 22 21  1  0  0  0
 22 23  1  0  0  0
 59 58  1  0  0  0
 27 28  2  0  0  0
 58 57  1  0  0  0
 31 37  2  0  0  0
 57 56  1  0  0  0
 56 55  1  0  0  0
 55 54  1  0  0  0
 54 53  1  0  0  0
 53 52  1  0  0  0
 52 51  1  0  0  0
 51 50  1  0  0  0
 50 49  1  0  0  0
 49 47  1  0  0  0
 47 48  2  0  0  0
 48 45  1  0  0  0
 42 41  1  0  0  0
 41 40  1  0  0  0
 40 39  1  0  0  0
 39  1  1  0  0  0
  1 21  1  0  0  0
  8  4  1  0  0  0
  8  9  1  0  0  0
  8 10  1  0  0  0
 11 13  1  0  0  0
 13 14  2  0  0  0
 13 18  1  0  0  0
 14 15  1  0  0  0
 15 16  2  0  0  0
 16 17  1  0  0  0
 17 18  2  0  0  0
 23 24  1  0  0  0
 23 25  1  0  0  0
 25 28  1  0  0  0
 32 33  1  0  0  0
 32 37  1  0  0  0
 33 34  1  0  0  0
 34 35  1  0  0  0
 35 36  1  0  0  0
M  END
> <minimizedAffinity>
-11.19040

> <CNNscore>
0.4665110707

> <CNNaffinity>
7.3583250046

> <CNN_VS>
3.4327399731

> <CNNaffinity_variance>
1.2839031219

$$$$
/media/chris/experiments/cd1a-new-docking/inputs/ligands/7ryo_ligand.pdb


 65 67  0  0  0  0  0  0  0  0999 V2000
  -35.3292   58.6473   62.7060 C   0  0  0  0  0  0  0  0  0  0  0  0
  -33.8818   58.7280   62.6018 N   0  0  0  0  0  0  0  0  0  0  0  0
  -33.6559   56.5654   62.0311 O   0  0  0  0  0  0  0  0  0  0  0  0
  -33.1589   57.6568   62.2664 C   0  0  0  0  0  0  0  0  0  0  0  0
  -33.4287   59.5835   62.7807 H   0  0  0  0  0  0  0  0  0  0  0  0
  -31.2927   59.0896   61.5341 N   0  0  0  0  0  0  0  0  0  0  0  0
  -30.1387   59.1265   63.4706 O   0  0  0  0  0  0  0  0  0  0  0  0
  -31.6316   57.8217   62.2013 C   0  0  0  0  0  0  0  0  0  0  0  0
  -31.0440   56.6650   61.3984 C   0  0  0  0  0  0  0  0  0  0  0  0
  -30.9730   57.9457   63.5832 C   0  0  0  0  0  0  0  0  0  0  0  0
  -30.4924   59.7119   62.2968 C   0  0  0  0  0  0  0  0  0  0  0  0
  -29.5769   60.5078   59.6869 O   0  0  0  0  0  0  0  0  0  0  0  0
  -29.8917   61.0218   62.0346 C   0  0  0  0  0  0  0  0  0  0  0  0
  -29.8739   61.9969   63.0326 C   0  0  0  0  0  0  0  0  0  0  0  0
  -29.5362   63.3050   62.7306 C   0  0  0  0  0  0  0  0  0  0  0  0
  -29.2126   63.6617   61.4397 C   0  0  0  0  0  0  0  0  0  0  0  0
  -29.2270   62.7153   60.4312 C   0  0  0  0  0  0  0  0  0  0  0  0
  -29.5658   61.3960   60.7147 C   0  0  0  0  0  0  0  0  0  0  0  0
  -29.8008   59.6117   59.8445 H   0  0  0  0  0  0  0  0  0  0  0  0
  -35.4032   57.6172   64.8910 O   0  0  0  0  0  0  0  0  0  0  0  0
  -35.7691   58.4908   64.1539 C   0  0  0  0  0  0  0  0  0  0  0  0
  -36.6427   59.4563   64.4886 O   0  0  0  0  0  0  0  0  0  0  0  0
  -36.1166   60.6895   65.0819 C   0  0  0  0  0  0  0  0  0  0  0  0
  -37.1158   61.1830   66.0978 C   0  0  0  0  0  0  0  0  0  0  0  0
  -35.9436   61.6561   63.9263 C   0  0  0  0  0  0  0  0  0  0  0  0
  -34.4037   63.3548   64.6914 N   0  0  0  0  0  0  0  0  0  0  0  0
  -33.6780   61.8552   63.1792 O   0  0  0  0  0  0  0  0  0  0  0  0
  -34.5738   62.2966   63.8934 C   0  0  0  0  0  0  0  0  0  0  0  0
  -35.1585   63.6645   65.2422 H   0  0  0  0  0  0  0  0  0  0  0  0
  -31.5682   64.6244   66.5467 N   0  0  0  0  0  0  0  0  0  0  0  0
  -33.7179   64.2744   67.0826 O   0  0  0  0  0  0  0  0  0  0  0  0
  -33.1370   64.0612   64.7691 C   0  0  0  0  0  0  0  0  0  0  0  0
  -33.2283   65.3912   64.0125 C   0  0  0  0  0  0  0  0  0  0  0  0
  -31.8703   65.9819   63.6490 C   0  0  0  0  0  0  0  0  0  0  0  0
  -30.9754   66.3285   64.8224 C   0  0  0  0  0  0  0  0  0  0  0  0
  -30.5406   65.1336   65.6448 C   0  0  0  0  0  0  0  0  0  0  0  0
  -32.8323   64.3299   66.2344 C   0  0  0  0  0  0  0  0  0  0  0  0
  -31.3014   64.4830   67.4838 H   0  0  0  0  0  0  0  0  0  0  0  0
  -35.8861   57.5159   61.8406 C   0  0  0  0  0  0  0  0  0  0  0  0
  -37.4103   57.5172   61.7943 C   0  0  0  0  0  0  0  0  0  0  0  0
  -37.9849   58.7248   61.0772 C   0  0  0  0  0  0  0  0  0  0  0  0
  -39.3223   58.4878   60.4104 C   0  0  0  0  0  0  0  0  0  0  0  0
  -40.3827   59.2087   61.0965 N   0  0  0  0  0  0  0  0  0  0  0  0
  -38.9774   60.6547   62.1105 O   0  0  0  0  0  0  0  0  0  0  0  0
  -40.1317   60.2465   61.9020 C   0  0  0  0  0  0  0  0  0  0  0  0
  -41.3155   58.9236   60.9637 H   0  0  0  0  0  0  0  0  0  0  0  0
  -41.8159   60.3627   63.7250 C   0  0  0  0  0  0  0  0  0  0  0  0
  -41.3277   60.8028   62.5731 C   0  0  0  0  0  0  0  0  0  0  0  0
  -41.2818   59.2609   64.5859 C   0  0  0  0  0  0  0  0  0  0  0  0
  -41.8319   57.9023   64.1692 C   0  0  0  0  0  0  0  0  0  0  0  0
  -43.2932   57.6957   64.5285 C   0  0  0  0  0  0  0  0  0  0  0  0
  -43.5291   57.4734   66.0131 C   0  0  0  0  0  0  0  0  0  0  0  0
  -44.8829   57.9451   66.5093 C   0  0  0  0  0  0  0  0  0  0  0  0
  -46.0478   57.4002   65.6996 C   0  0  0  0  0  0  0  0  0  0  0  0
  -47.3262   58.1984   65.8650 C   0  0  0  0  0  0  0  0  0  0  0  0
  -47.4956   59.2750   64.8119 C   0  0  0  0  0  0  0  0  0  0  0  0
  -48.4206   58.8950   63.6718 C   0  0  0  0  0  0  0  0  0  0  0  0
  -49.8764   59.1881   63.9762 C   0  0  0  0  0  0  0  0  0  0  0  0
  -50.8347   58.5733   62.9693 C   0  0  0  0  0  0  0  0  0  0  0  0
  -50.3506   58.6379   61.5311 C   0  0  0  0  0  0  0  0  0  0  0  0
  -50.5516   57.3507   60.7463 C   0  0  0  0  0  0  0  0  0  0  0  0
  -49.2648   56.7637   60.1829 C   0  0  0  0  0  0  0  0  0  0  0  0
  -48.8634   57.3605   58.8436 C   0  0  0  0  0  0  0  0  0  0  0  0
  -46.6459   58.0637   57.8613 C   0  0  0  0  0  0  0  0  0  0  0  0
  -47.6938   58.3256   58.9111 C   0  0  0  0  0  0  0  0  0  0  0  0
 43 45  1  0  0  0
 43 42  1  0  0  0
 43 46  1  0  0  0
 64 65  1  0  0  0
 44 45  2  0  0  0
 65 63  1  0  0  0
  2  1  1  0  0  0
  2  4  1  0  0  0
  2  5  1  0  0  0
  3  4  2  0  0  0
 63 62  1  0  0  0
  6  8  1  0  0  0
  6 11  2  0  0  0
  7 10  1  0  0  0
  7 11  1  0  0  0
 62 61  1  0  0  0
 26 28  1  0  0  0
 26 32  1  0  0  0
 26 29  1  0  0  0
 12 18  1  0  0  0
 12 19  1  0  0  0
 61 60  1  0  0  0
 30 36  1  0  0  0
 30 37  1  0  0  0
 30 38  1  0  0  0
 20 21  2  0  0  0
 60 59  1  0  0  0
 22 21  1  0  0  0
 22 23  1  0  0  0
 59 58  1  0  0  0
 27 28  2  0  0  0
 58 57  1  0  0  0
 31 37  2  0  0  0
 57 56  1  0  0  0
 56 55  1  0  0  0
 55 54  1  0  0  0
 54 53  1  0  0  0
 53 52  1  0  0  0
 52 51  1  0  0  0
 51 50  1  0  0  0
 50 49  1  0  0  0
 49 47  1  0  0  0
 47 48  2  0  0  0
 48 45  1  0  0  0
 42 41  1  0  0  0
 41 40  1  0  0  0
 40 39  1  0  0  0
 39  1  1  0  0  0
  1 21  1  0  0  0
  8  4  1  0  0  0
  8  9  1  0  0  0
  8 10  1  0  0  0
 11 13  1  0  0  0
 13 14  2  0  0  0
 13 18  1  0  0  0
 14 15  1  0  0  0
 15 16  2  0  0  0
 16 17  1  0  0  0
 17 18  2  0  0  0
 23 24  1  0  0  0
 23 25  1  0  0  0
 25 28  1  0  0  0
 32 33  1  0  0  0
 32 37  1  0  0  0
 33 34  1  0  0  0
 34 35  1  0  0  0
 35 36  1  0  0  0
M  END
> <minimizedAffinity>
-10.33084

> <CNNscore>
0.3807584643

> <CNNaffinity>
7.5784072876

> <CNN_VS>
2.8855426311

> <CNNaffinity_variance>
0.7571989298

$$$$
/media/chris/experiments/cd1a-new-docking/inputs/ligands/7ryo_ligand.pdb


 65 67  0  0  0  0  0  0  0  0999 V2000
  -38.4423   59.1289   61.8719 C   0  0  0  0  0  0  0  0  0  0  0  0
  -37.2440   58.9661   62.6780 N   0  0  0  0  0  0  0  0  0  0  0  0
  -36.0108   58.2141   60.9554 O   0  0  0  0  0  0  0  0  0  0  0  0
  -36.1108   58.5135   62.1359 C   0  0  0  0  0  0  0  0  0  0  0  0
  -37.2681   59.1925   63.6358 H   0  0  0  0  0  0  0  0  0  0  0  0
  -33.7056   57.9954   62.2714 N   0  0  0  0  0  0  0  0  0  0  0  0
  -33.0681   59.7599   63.5217 O   0  0  0  0  0  0  0  0  0  0  0  0
  -34.8956   58.3483   63.0633 C   0  0  0  0  0  0  0  0  0  0  0  0
  -35.1818   57.2264   64.0570 C   0  0  0  0  0  0  0  0  0  0  0  0
  -34.4916   59.6477   63.7752 C   0  0  0  0  0  0  0  0  0  0  0  0
  -32.7882   58.8118   62.5900 C   0  0  0  0  0  0  0  0  0  0  0  0
  -31.1687   56.4441   62.3560 O   0  0  0  0  0  0  0  0  0  0  0  0
  -31.4266   58.8347   62.0504 C   0  0  0  0  0  0  0  0  0  0  0  0
  -30.9144   60.0059   61.4906 C   0  0  0  0  0  0  0  0  0  0  0  0
  -29.7361   59.9803   60.7645 C   0  0  0  0  0  0  0  0  0  0  0  0
  -29.0528   58.7973   60.5850 C   0  0  0  0  0  0  0  0  0  0  0  0
  -29.5414   57.6218   61.1255 C   0  0  0  0  0  0  0  0  0  0  0  0
  -30.7251   57.6270   61.8567 C   0  0  0  0  0  0  0  0  0  0  0  0
  -31.9627   56.4135   62.8528 H   0  0  0  0  0  0  0  0  0  0  0  0
  -40.0492   60.9245   61.6862 O   0  0  0  0  0  0  0  0  0  0  0  0
  -39.2824   60.2979   62.3642 C   0  0  0  0  0  0  0  0  0  0  0  0
  -39.0312   60.5462   63.6613 O   0  0  0  0  0  0  0  0  0  0  0  0
  -40.0160   60.1042   64.6534 C   0  0  0  0  0  0  0  0  0  0  0  0
  -41.2349   60.9829   64.5262 C   0  0  0  0  0  0  0  0  0  0  0  0
  -39.3343   60.2549   65.9995 C   0  0  0  0  0  0  0  0  0  0  0  0
  -37.4543   61.7704   66.1063 N   0  0  0  0  0  0  0  0  0  0  0  0
  -37.0619   59.6120   65.6069 O   0  0  0  0  0  0  0  0  0  0  0  0
  -37.8486   60.5135   65.8824 C   0  0  0  0  0  0  0  0  0  0  0  0
  -38.1306   62.4522   66.3233 H   0  0  0  0  0  0  0  0  0  0  0  0
  -34.4177   63.0319   67.6167 N   0  0  0  0  0  0  0  0  0  0  0  0
  -36.5944   63.3943   68.0187 O   0  0  0  0  0  0  0  0  0  0  0  0
  -36.0567   62.1596   66.0385 C   0  0  0  0  0  0  0  0  0  0  0  0
  -35.8203   63.0648   64.8243 C   0  0  0  0  0  0  0  0  0  0  0  0
  -34.3568   63.1558   64.4056 C   0  0  0  0  0  0  0  0  0  0  0  0
  -33.4175   63.7394   65.4424 C   0  0  0  0  0  0  0  0  0  0  0  0
  -33.2889   62.9071   66.7009 C   0  0  0  0  0  0  0  0  0  0  0  0
  -35.7122   62.9164   67.3115 C   0  0  0  0  0  0  0  0  0  0  0  0
  -34.2023   63.2211   68.5586 H   0  0  0  0  0  0  0  0  0  0  0  0
  -39.2665   57.8411   61.8357 C   0  0  0  0  0  0  0  0  0  0  0  0
  -40.6851   58.0740   61.3269 C   0  0  0  0  0  0  0  0  0  0  0  0
  -41.4658   56.7886   61.1254 C   0  0  0  0  0  0  0  0  0  0  0  0
  -41.8156   56.0538   62.4010 C   0  0  0  0  0  0  0  0  0  0  0  0
  -42.0794   56.9866   63.4851 N   0  0  0  0  0  0  0  0  0  0  0  0
  -41.7398   55.4587   65.1111 O   0  0  0  0  0  0  0  0  0  0  0  0
  -42.0221   56.6190   64.7697 C   0  0  0  0  0  0  0  0  0  0  0  0
  -42.3077   57.9188   63.2662 H   0  0  0  0  0  0  0  0  0  0  0  0
  -43.6432   57.9656   66.0857 C   0  0  0  0  0  0  0  0  0  0  0  0
  -42.3981   57.6828   65.7274 C   0  0  0  0  0  0  0  0  0  0  0  0
  -44.9018   57.2903   65.6381 C   0  0  0  0  0  0  0  0  0  0  0  0
  -45.6057   58.0791   64.5407 C   0  0  0  0  0  0  0  0  0  0  0  0
  -46.8459   58.8168   65.0146 C   0  0  0  0  0  0  0  0  0  0  0  0
  -48.0998   57.9582   65.0192 C   0  0  0  0  0  0  0  0  0  0  0  0
  -49.0284   58.2129   66.1915 C   0  0  0  0  0  0  0  0  0  0  0  0
  -50.4406   58.5887   65.7744 C   0  0  0  0  0  0  0  0  0  0  0  0
  -50.6588   60.0843   65.6545 C   0  0  0  0  0  0  0  0  0  0  0  0
  -50.7747   60.5552   64.2187 C   0  0  0  0  0  0  0  0  0  0  0  0
  -51.4930   59.5870   63.2987 C   0  0  0  0  0  0  0  0  0  0  0  0
  -50.6064   59.0736   62.1814 C   0  0  0  0  0  0  0  0  0  0  0  0
  -50.9938   57.6852   61.6990 C   0  0  0  0  0  0  0  0  0  0  0  0
  -49.9472   57.0167   60.8247 C   0  0  0  0  0  0  0  0  0  0  0  0
  -48.7473   57.8950   60.5050 C   0  0  0  0  0  0  0  0  0  0  0  0
  -48.4117   57.9658   59.0217 C   0  0  0  0  0  0  0  0  0  0  0  0
  -46.9204   57.8964   58.7351 C   0  0  0  0  0  0  0  0  0  0  0  0
  -47.6879   57.0187   56.4952 C   0  0  0  0  0  0  0  0  0  0  0  0
  -46.5713   57.6593   57.2770 C   0  0  0  0  0  0  0  0  0  0  0  0
 43 45  1  0  0  0
 43 42  1  0  0  0
 43 46  1  0  0  0
 64 65  1  0  0  0
 44 45  2  0  0  0
 65 63  1  0  0  0
  2  1  1  0  0  0
  2  4  1  0  0  0
  2  5  1  0  0  0
  3  4  2  0  0  0
 63 62  1  0  0  0
  6  8  1  0  0  0
  6 11  2  0  0  0
  7 10  1  0  0  0
  7 11  1  0  0  0
 62 61  1  0  0  0
 26 28  1  0  0  0
 26 32  1  0  0  0
 26 29  1  0  0  0
 12 18  1  0  0  0
 12 19  1  0  0  0
 61 60  1  0  0  0
 30 36  1  0  0  0
 30 37  1  0  0  0
 30 38  1  0  0  0
 20 21  2  0  0  0
 60 59  1  0  0  0
 22 21  1  0  0  0
 22 23  1  0  0  0
 59 58  1  0  0  0
 27 28  2  0  0  0
 58 57  1  0  0  0
 31 37  2  0  0  0
 57 56  1  0  0  0
 56 55  1  0  0  0
 55 54  1  0  0  0
 54 53  1  0  0  0
 53 52  1  0  0  0
 52 51  1  0  0  0
 51 50  1  0  0  0
 50 49  1  0  0  0
 49 47  1  0  0  0
 47 48  2  0  0  0
 48 45  1  0  0  0
 42 41  1  0  0  0
 41 40  1  0  0  0
 40 39  1  0  0  0
 39  1  1  0  0  0
  1 21  1  0  0  0
  8  4  1  0  0  0
  8  9  1  0  0  0
  8 10  1  0  0  0
 11 13  1  0  0  0
 13 14  2  0  0  0
 13 18  1  0  0  0
 14 15  1  0  0  0
 15 16  2  0  0  0
 16 17  1  0  0  0
 17 18  2  0  0  0
 23 24  1  0  0  0
 23 25  1  0  0  0
 25 28  1  0  0  0
 32 33  1  0  0  0
 32 37  1  0  0  0
 33 34  1  0  0  0
 34 35  1  0  0  0
 35 36  1  0  0  0
M  END
> <minimizedAffinity>
-11.00506

> <CNNscore>
0.3487324715

> <CNNaffinity>
7.7014760971

> <CNN_VS>
2.6857547760

> <CNNaffinity_variance>
1.8043718338

$$$$
/media/chris/experiments/cd1a-new-docking/inputs/ligands/7ryo_ligand.pdb


 65 67  0  0  0  0  0  0  0  0999 V2000
  -35.8649   58.6335   62.6783 C   0  0  0  0  0  0  0  0  0  0  0  0
  -34.4174   58.7182   62.5777 N   0  0  0  0  0  0  0  0  0  0  0  0
  -34.1875   56.5661   61.9700 O   0  0  0  0  0  0  0  0  0  0  0  0
  -33.6925   57.6540   62.2250 C   0  0  0  0  0  0  0  0  0  0  0  0
  -33.9659   59.5712   62.7722 H   0  0  0  0  0  0  0  0  0  0  0  0
  -31.8263   59.0757   61.4712 N   0  0  0  0  0  0  0  0  0  0  0  0
  -30.6840   59.1605   63.4132 O   0  0  0  0  0  0  0  0  0  0  0  0
  -32.1653   57.8222   62.1652 C   0  0  0  0  0  0  0  0  0  0  0  0
  -31.5693   56.6494   61.3924 C   0  0  0  0  0  0  0  0  0  0  0  0
  -31.5154   57.9799   63.5478 C   0  0  0  0  0  0  0  0  0  0  0  0
  -31.0324   59.7178   62.2242 C   0  0  0  0  0  0  0  0  0  0  0  0
  -29.4010   60.2012   59.9030 O   0  0  0  0  0  0  0  0  0  0  0  0
  -30.4342   61.0233   61.9357 C   0  0  0  0  0  0  0  0  0  0  0  0
  -30.7598   62.1317   62.7184 C   0  0  0  0  0  0  0  0  0  0  0  0
  -30.3998   63.4062   62.3156 C   0  0  0  0  0  0  0  0  0  0  0  0
  -29.7143   63.5974   61.1357 C   0  0  0  0  0  0  0  0  0  0  0  0
  -29.3835   62.5161   60.3393 C   0  0  0  0  0  0  0  0  0  0  0  0
  -29.7385   61.2277   60.7263 C   0  0  0  0  0  0  0  0  0  0  0  0
  -29.6256   59.3215   60.1347 H   0  0  0  0  0  0  0  0  0  0  0  0
  -35.7998   57.2682   64.6713 O   0  0  0  0  0  0  0  0  0  0  0  0
  -36.2948   58.1776   64.0645 C   0  0  0  0  0  0  0  0  0  0  0  0
  -37.3223   58.9223   64.5086 O   0  0  0  0  0  0  0  0  0  0  0  0
  -37.0205   60.0902   65.3419 C   0  0  0  0  0  0  0  0  0  0  0  0
  -38.0638   60.1723   66.4276 C   0  0  0  0  0  0  0  0  0  0  0  0
  -37.0675   61.2820   64.4055 C   0  0  0  0  0  0  0  0  0  0  0  0
  -35.3757   62.8441   65.1406 N   0  0  0  0  0  0  0  0  0  0  0  0
  -34.9862   61.6425   63.2787 O   0  0  0  0  0  0  0  0  0  0  0  0
  -35.7179   61.9390   64.2191 C   0  0  0  0  0  0  0  0  0  0  0  0
  -36.0032   63.0415   65.8729 H   0  0  0  0  0  0  0  0  0  0  0  0
  -32.4226   64.2067   66.7269 N   0  0  0  0  0  0  0  0  0  0  0  0
  -34.5343   63.9059   67.4206 O   0  0  0  0  0  0  0  0  0  0  0  0
  -34.1045   63.5450   65.0925 C   0  0  0  0  0  0  0  0  0  0  0  0
  -34.2404   64.8259   64.2615 C   0  0  0  0  0  0  0  0  0  0  0  0
  -32.9069   65.3832   63.7754 C   0  0  0  0  0  0  0  0  0  0  0  0
  -31.9371   65.7959   64.8649 C   0  0  0  0  0  0  0  0  0  0  0  0
  -31.4538   64.6515   65.7309 C   0  0  0  0  0  0  0  0  0  0  0  0
  -33.7051   63.9023   66.5154 C   0  0  0  0  0  0  0  0  0  0  0  0
  -32.0964   64.1221   67.6520 H   0  0  0  0  0  0  0  0  0  0  0  0
  -36.4441   57.7186   61.5982 C   0  0  0  0  0  0  0  0  0  0  0  0
  -37.7979   57.1387   61.9937 C   0  0  0  0  0  0  0  0  0  0  0  0
  -38.9693   57.8963   61.3967 C   0  0  0  0  0  0  0  0  0  0  0  0
  -40.3289   57.3153   61.7185 C   0  0  0  0  0  0  0  0  0  0  0  0
  -41.0712   58.1887   62.6135 N   0  0  0  0  0  0  0  0  0  0  0  0
  -40.3030   57.2008   64.4918 O   0  0  0  0  0  0  0  0  0  0  0  0
  -41.0040   58.0673   63.9437 C   0  0  0  0  0  0  0  0  0  0  0  0
  -41.6416   58.8921   62.2277 H   0  0  0  0  0  0  0  0  0  0  0  0
  -42.9083   58.6100   65.4445 C   0  0  0  0  0  0  0  0  0  0  0  0
  -41.8886   58.9917   64.6875 C   0  0  0  0  0  0  0  0  0  0  0  0
  -43.3693   57.2138   65.7255 C   0  0  0  0  0  0  0  0  0  0  0  0
  -44.8163   57.0008   65.2978 C   0  0  0  0  0  0  0  0  0  0  0  0
  -45.5518   58.2861   64.9603 C   0  0  0  0  0  0  0  0  0  0  0  0
  -46.6967   58.5990   65.9092 C   0  0  0  0  0  0  0  0  0  0  0  0
  -47.8488   59.3534   65.2727 C   0  0  0  0  0  0  0  0  0  0  0  0
  -49.1119   59.3546   66.1178 C   0  0  0  0  0  0  0  0  0  0  0  0
  -50.3438   58.8893   65.3663 C   0  0  0  0  0  0  0  0  0  0  0  0
  -51.0151   59.9978   64.5806 C   0  0  0  0  0  0  0  0  0  0  0  0
  -51.3115   59.6488   63.1348 C   0  0  0  0  0  0  0  0  0  0  0  0
  -50.7271   58.3120   62.7232 C   0  0  0  0  0  0  0  0  0  0  0  0
  -49.3827   58.4353   62.0249 C   0  0  0  0  0  0  0  0  0  0  0  0
  -49.4686   58.9471   60.5975 C   0  0  0  0  0  0  0  0  0  0  0  0
  -49.9128   57.9024   59.5854 C   0  0  0  0  0  0  0  0  0  0  0  0
  -48.8477   57.5466   58.5573 C   0  0  0  0  0  0  0  0  0  0  0  0
  -47.5335   58.2808   58.7692 C   0  0  0  0  0  0  0  0  0  0  0  0
  -46.8864   56.9057   56.7526 C   0  0  0  0  0  0  0  0  0  0  0  0
  -46.4487   57.9289   57.7675 C   0  0  0  0  0  0  0  0  0  0  0  0
 43 45  1  0  0  0
 43 42  1  0  0  0
 43 46  1  0  0  0
 64 65  1  0  0  0
 44 45  2  0  0  0
 65 63  1  0  0  0
  2  1  1  0  0  0
  2  4  1  0  0  0
  2  5  1  0  0  0
  3  4  2  0  0  0
 63 62  1  0  0  0
  6  8  1  0  0  0
  6 11  2  0  0  0
  7 10  1  0  0  0
  7 11  1  0  0  0
 62 61  1  0  0  0
 26 28  1  0  0  0
 26 32  1  0  0  0
 26 29  1  0  0  0
 12 18  1  0  0  0
 12 19  1  0  0  0
 61 60  1  0  0  0
 30 36  1  0  0  0
 30 37  1  0  0  0
 30 38  1  0  0  0
 20 21  2  0  0  0
 60 59  1  0  0  0
 22 21  1  0  0  0
 22 23  1  0  0  0
 59 58  1  0  0  0
 27 28  2  0  0  0
 58 57  1  0  0  0
 31 37  2  0  0  0
 57 56  1  0  0  0
 56 55  1  0  0  0
 55 54  1  0  0  0
 54 53  1  0  0  0
 53 52  1  0  0  0
 52 51  1  0  0  0
 51 50  1  0  0  0
 50 49  1  0  0  0
 49 47  1  0  0  0
 47 48  2  0  0  0
 48 45  1  0  0  0
 42 41  1  0  0  0
 41 40  1  0  0  0
 40 39  1  0  0  0
 39  1  1  0  0  0
  1 21  1  0  0  0
  8  4  1  0  0  0
  8  9  1  0  0  0
  8 10  1  0  0  0
 11 13  1  0  0  0
 13 14  2  0  0  0
 13 18  1  0  0  0
 14 15  1  0  0  0
 15 16  2  0  0  0
 16 17  1  0  0  0
 17 18  2  0  0  0
 23 24  1  0  0  0
 23 25  1  0  0  0
 25 28  1  0  0  0
 32 33  1  0  0  0
 32 37  1  0  0  0
 33 34  1  0  0  0
 34 35  1  0  0  0
 35 36  1  0  0  0
M  END
> <minimizedAffinity>
-10.85931

> <CNNscore>
0.3435412943

> <CNNaffinity>
7.2477922440

> <CNN_VS>
2.4899158478

> <CNNaffinity_variance>
0.8159686923

$$$$
/media/chris/experiments/cd1a-new-docking/inputs/ligands/7ryo_ligand.pdb


 65 67  0  0  0  0  0  0  0  0999 V2000
  -39.1022   59.8936   65.0692 C   0  0  0  0  0  0  0  0  0  0  0  0
  -38.2671   59.3315   64.0209 N   0  0  0  0  0  0  0  0  0  0  0  0
  -39.1910   60.5935   62.4062 O   0  0  0  0  0  0  0  0  0  0  0  0
  -38.3888   59.7405   62.7558 C   0  0  0  0  0  0  0  0  0  0  0  0
  -37.6033   58.6403   64.2466 H   0  0  0  0  0  0  0  0  0  0  0  0
  -36.0772   59.4314   61.9599 N   0  0  0  0  0  0  0  0  0  0  0  0
  -36.0908   57.1824   61.8031 O   0  0  0  0  0  0  0  0  0  0  0  0
  -37.4834   59.0780   61.7043 C   0  0  0  0  0  0  0  0  0  0  0  0
  -37.8800   59.5856   60.3212 C   0  0  0  0  0  0  0  0  0  0  0  0
  -37.4949   57.5436   61.7705 C   0  0  0  0  0  0  0  0  0  0  0  0
  -35.4193   58.3473   61.9965 C   0  0  0  0  0  0  0  0  0  0  0  0
  -34.1360   59.2773   64.3990 O   0  0  0  0  0  0  0  0  0  0  0  0
  -33.9780   58.2188   62.2242 C   0  0  0  0  0  0  0  0  0  0  0  0
  -33.1882   57.4995   61.3264 C   0  0  0  0  0  0  0  0  0  0  0  0
  -31.8846   57.1645   61.6500 C   0  0  0  0  0  0  0  0  0  0  0  0
  -31.3492   57.5374   62.8635 C   0  0  0  0  0  0  0  0  0  0  0  0
  -32.1123   58.2469   63.7730 C   0  0  0  0  0  0  0  0  0  0  0  0
  -33.4251   58.5910   63.4668 C   0  0  0  0  0  0  0  0  0  0  0  0
  -35.0229   59.5241   64.2237 H   0  0  0  0  0  0  0  0  0  0  0  0
  -38.1316   60.2076   67.2601 O   0  0  0  0  0  0  0  0  0  0  0  0
  -38.2614   60.5888   66.1296 C   0  0  0  0  0  0  0  0  0  0  0  0
  -37.6993   61.7032   65.6301 O   0  0  0  0  0  0  0  0  0  0  0  0
  -36.2380   61.8162   65.6655 C   0  0  0  0  0  0  0  0  0  0  0  0
  -35.8642   62.6821   66.8422 C   0  0  0  0  0  0  0  0  0  0  0  0
  -35.8455   62.4419   64.3412 C   0  0  0  0  0  0  0  0  0  0  0  0
  -34.1216   64.1259   64.5281 N   0  0  0  0  0  0  0  0  0  0  0  0
  -33.5087   62.0165   64.0415 O   0  0  0  0  0  0  0  0  0  0  0  0
  -34.3870   62.8389   64.2859 C   0  0  0  0  0  0  0  0  0  0  0  0
  -34.8670   64.7402   64.7182 H   0  0  0  0  0  0  0  0  0  0  0  0
  -30.9778   64.8642   66.1607 N   0  0  0  0  0  0  0  0  0  0  0  0
  -33.0983   64.7777   66.8865 O   0  0  0  0  0  0  0  0  0  0  0  0
  -32.7649   64.6444   64.5188 C   0  0  0  0  0  0  0  0  0  0  0  0
  -32.7323   66.0226   63.8486 C   0  0  0  0  0  0  0  0  0  0  0  0
  -31.3420   66.4442   63.3855 C   0  0  0  0  0  0  0  0  0  0  0  0
  -30.3045   66.5838   64.4819 C   0  0  0  0  0  0  0  0  0  0  0  0
  -29.9733   65.2873   65.1909 C   0  0  0  0  0  0  0  0  0  0  0  0
  -32.2940   64.7684   65.9592 C   0  0  0  0  0  0  0  0  0  0  0  0
  -30.6507   64.6241   67.0577 H   0  0  0  0  0  0  0  0  0  0  0  0
  -39.9996   58.8260   65.6969 C   0  0  0  0  0  0  0  0  0  0  0  0
  -41.1079   58.3715   64.7534 C   0  0  0  0  0  0  0  0  0  0  0  0
  -41.1302   56.8696   64.5379 C   0  0  0  0  0  0  0  0  0  0  0  0
  -42.5136   56.2618   64.4595 C   0  0  0  0  0  0  0  0  0  0  0  0
  -43.3457   56.7139   65.5632 N   0  0  0  0  0  0  0  0  0  0  0  0
  -44.8112   57.8034   64.2368 O   0  0  0  0  0  0  0  0  0  0  0  0
  -44.4411   57.4567   65.3705 C   0  0  0  0  0  0  0  0  0  0  0  0
  -43.0944   56.4651   66.4819 H   0  0  0  0  0  0  0  0  0  0  0  0
  -46.3235   57.4926   66.9918 C   0  0  0  0  0  0  0  0  0  0  0  0
  -45.1145   57.8874   66.6160 C   0  0  0  0  0  0  0  0  0  0  0  0
  -47.2401   56.5451   66.2829 C   0  0  0  0  0  0  0  0  0  0  0  0
  -48.2068   57.2787   65.3612 C   0  0  0  0  0  0  0  0  0  0  0  0
  -49.4271   57.8379   66.0720 C   0  0  0  0  0  0  0  0  0  0  0  0
  -49.2948   59.3052   66.4447 C   0  0  0  0  0  0  0  0  0  0  0  0
  -48.7797   60.1911   65.3260 C   0  0  0  0  0  0  0  0  0  0  0  0
  -49.8355   61.1260   64.7595 C   0  0  0  0  0  0  0  0  0  0  0  0
  -51.2189   60.5090   64.6950 C   0  0  0  0  0  0  0  0  0  0  0  0
  -51.6185   60.0900   63.2944 C   0  0  0  0  0  0  0  0  0  0  0  0
  -51.2696   58.6556   62.9470 C   0  0  0  0  0  0  0  0  0  0  0  0
  -49.9451   58.5347   62.2195 C   0  0  0  0  0  0  0  0  0  0  0  0
  -50.0992   58.1849   60.7484 C   0  0  0  0  0  0  0  0  0  0  0  0
  -49.8726   56.7168   60.4318 C   0  0  0  0  0  0  0  0  0  0  0  0
  -48.5990   56.4364   59.6491 C   0  0  0  0  0  0  0  0  0  0  0  0
  -47.5835   57.5697   59.6959 C   0  0  0  0  0  0  0  0  0  0  0  0
  -47.2055   58.1002   58.3223 C   0  0  0  0  0  0  0  0  0  0  0  0
  -46.7149   56.4361   56.4876 C   0  0  0  0  0  0  0  0  0  0  0  0
  -47.7558   57.2900   57.1627 C   0  0  0  0  0  0  0  0  0  0  0  0
 43 45  1  0  0  0
 43 42  1  0  0  0
 43 46  1  0  0  0
 64 65  1  0  0  0
 44 45  2  0  0  0
 65 63  1  0  0  0
  2  1  1  0  0  0
  2  4  1  0  0  0
  2  5  1  0  0  0
  3  4  2  0  0  0
 63 62  1  0  0  0
  6  8  1  0  0  0
  6 11  2  0  0  0
  7 10  1  0  0  0
  7 11  1  0  0  0
 62 61  1  0  0  0
 26 28  1  0  0  0
 26 32  1  0  0  0
 26 29  1  0  0  0
 12 18  1  0  0  0
 12 19  1  0  0  0
 61 60  1  0  0  0
 30 36  1  0  0  0
 30 37  1  0  0  0
 30 38  1  0  0  0
 20 21  2  0  0  0
 60 59  1  0  0  0
 22 21  1  0  0  0
 22 23  1  0  0  0
 59 58  1  0  0  0
 27 28  2  0  0  0
 58 57  1  0  0  0
 31 37  2  0  0  0
 57 56  1  0  0  0
 56 55  1  0  0  0
 55 54  1  0  0  0
 54 53  1  0  0  0
 53 52  1  0  0  0
 52 51  1  0  0  0
 51 50  1  0  0  0
 50 49  1  0  0  0
 49 47  1  0  0  0
 47 48  2  0  0  0
 48 45  1  0  0  0
 42 41  1  0  0  0
 41 40  1  0  0  0
 40 39  1  0  0  0
 39  1  1  0  0  0
  1 21  1  0  0  0
  8  4  1  0  0  0
  8  9  1  0  0  0
  8 10  1  0  0  0
 11 13  1  0  0  0
 13 14  2  0  0  0
 13 18  1  0  0  0
 14 15  1  0  0  0
 15 16  2  0  0  0
 16 17  1  0  0  0
 17 18  2  0  0  0
 23 24  1  0  0  0
 23 25  1  0  0  0
 25 28  1  0  0  0
 32 33  1  0  0  0
 32 37  1  0  0  0
 33 34  1  0  0  0
 34 35  1  0  0  0
 35 36  1  0  0  0
M  END
> <minimizedAffinity>
-10.48073

> <CNNscore>
0.2990409434

> <CNNaffinity>
7.1082205772

> <CNN_VS>
2.1256489754

> <CNNaffinity_variance>
1.0232012272

$$$$
/media/chris/experiments/cd1a-new-docking/inputs/ligands/7ryo_ligand.pdb


 65 67  0  0  0  0  0  0  0  0999 V2000
  -33.8674   57.9639   62.7774 C   0  0  0  0  0  0  0  0  0  0  0  0
  -34.5504   59.1533   63.2583 N   0  0  0  0  0  0  0  0  0  0  0  0
  -35.1250   58.2097   65.2161 O   0  0  0  0  0  0  0  0  0  0  0  0
  -35.1307   59.1702   64.4606 C   0  0  0  0  0  0  0  0  0  0  0  0
  -34.5854   59.9566   62.6903 H   0  0  0  0  0  0  0  0  0  0  0  0
  -34.9287   61.3280   65.6332 N   0  0  0  0  0  0  0  0  0  0  0  0
  -35.7868   62.6499   64.0210 O   0  0  0  0  0  0  0  0  0  0  0  0
  -35.8523   60.4604   64.8836 C   0  0  0  0  0  0  0  0  0  0  0  0
  -37.0305   60.0952   65.7817 C   0  0  0  0  0  0  0  0  0  0  0  0
  -36.2917   61.3297   63.6963 C   0  0  0  0  0  0  0  0  0  0  0  0
  -34.9667   62.4736   65.0895 C   0  0  0  0  0  0  0  0  0  0  0  0
  -34.0982   62.8828   67.8027 O   0  0  0  0  0  0  0  0  0  0  0  0
  -34.2062   63.6538   65.5073 C   0  0  0  0  0  0  0  0  0  0  0  0
  -33.7481   64.5653   64.5552 C   0  0  0  0  0  0  0  0  0  0  0  0
  -32.8310   65.5424   64.9026 C   0  0  0  0  0  0  0  0  0  0  0  0
  -32.3582   65.6280   66.1939 C   0  0  0  0  0  0  0  0  0  0  0  0
  -32.7928   64.7338   67.1555 C   0  0  0  0  0  0  0  0  0  0  0  0
  -33.7127   63.7436   66.8251 C   0  0  0  0  0  0  0  0  0  0  0  0
  -34.7163   62.2046   67.6128 H   0  0  0  0  0  0  0  0  0  0  0  0
  -32.2972   58.3255   60.9761 O   0  0  0  0  0  0  0  0  0  0  0  0
  -32.5243   58.3142   62.1545 C   0  0  0  0  0  0  0  0  0  0  0  0
  -31.6189   58.5896   63.1093 O   0  0  0  0  0  0  0  0  0  0  0  0
  -30.2648   58.0492   62.9549 C   0  0  0  0  0  0  0  0  0  0  0  0
  -30.1158   56.8835   63.8999 C   0  0  0  0  0  0  0  0  0  0  0  0
  -29.3285   59.1920   63.2965 C   0  0  0  0  0  0  0  0  0  0  0  0
  -29.9930   61.5134   63.1867 N   0  0  0  0  0  0  0  0  0  0  0  0
  -29.4665   60.4592   61.2701 O   0  0  0  0  0  0  0  0  0  0  0  0
  -29.6044   60.4415   62.4900 C   0  0  0  0  0  0  0  0  0  0  0  0
  -30.0866   61.4402   64.1640 H   0  0  0  0  0  0  0  0  0  0  0  0
  -29.7834   65.1217   63.0141 N   0  0  0  0  0  0  0  0  0  0  0  0
  -29.8342   63.6696   64.7228 O   0  0  0  0  0  0  0  0  0  0  0  0
  -30.2814   62.7833   62.5435 C   0  0  0  0  0  0  0  0  0  0  0  0
  -31.7658   62.8587   62.1686 C   0  0  0  0  0  0  0  0  0  0  0  0
  -32.0766   63.9143   61.1131 C   0  0  0  0  0  0  0  0  0  0  0  0
  -31.7611   65.3434   61.5081 C   0  0  0  0  0  0  0  0  0  0  0  0
  -30.2886   65.6129   61.7366 C   0  0  0  0  0  0  0  0  0  0  0  0
  -29.9469   63.8981   63.5220 C   0  0  0  0  0  0  0  0  0  0  0  0
  -29.2678   65.7596   63.5587 H   0  0  0  0  0  0  0  0  0  0  0  0
  -34.7390   57.1828   61.7929 C   0  0  0  0  0  0  0  0  0  0  0  0
  -36.2276   57.4268   62.0157 C   0  0  0  0  0  0  0  0  0  0  0  0
  -36.8655   58.2644   60.9229 C   0  0  0  0  0  0  0  0  0  0  0  0
  -38.3684   58.4042   61.0284 C   0  0  0  0  0  0  0  0  0  0  0  0
  -38.7974   58.3934   62.4179 N   0  0  0  0  0  0  0  0  0  0  0  0
  -40.9751   58.7257   61.9267 O   0  0  0  0  0  0  0  0  0  0  0  0
  -40.0778   58.5561   62.7685 C   0  0  0  0  0  0  0  0  0  0  0  0
  -38.1235   58.2622   63.1234 H   0  0  0  0  0  0  0  0  0  0  0  0
  -41.2631   57.9171   64.8567 C   0  0  0  0  0  0  0  0  0  0  0  0
  -40.3115   58.5952   64.2294 C   0  0  0  0  0  0  0  0  0  0  0  0
  -42.2664   56.9801   64.2600 C   0  0  0  0  0  0  0  0  0  0  0  0
  -43.6238   57.6483   64.0780 C   0  0  0  0  0  0  0  0  0  0  0  0
  -44.4860   57.6363   65.3284 C   0  0  0  0  0  0  0  0  0  0  0  0
  -45.9739   57.7523   65.0424 C   0  0  0  0  0  0  0  0  0  0  0  0
  -46.7188   58.6912   65.9726 C   0  0  0  0  0  0  0  0  0  0  0  0
  -47.9942   59.2555   65.3690 C   0  0  0  0  0  0  0  0  0  0  0  0
  -49.2258   59.0119   66.2190 C   0  0  0  0  0  0  0  0  0  0  0  0
  -50.4706   59.6769   65.6667 C   0  0  0  0  0  0  0  0  0  0  0  0
  -50.2589   60.4112   64.3568 C   0  0  0  0  0  0  0  0  0  0  0  0
  -51.0934   59.8435   63.2257 C   0  0  0  0  0  0  0  0  0  0  0  0
  -50.8365   58.3666   62.9743 C   0  0  0  0  0  0  0  0  0  0  0  0
  -49.7517   58.0905   61.9477 C   0  0  0  0  0  0  0  0  0  0  0  0
  -50.2766   57.7156   60.5704 C   0  0  0  0  0  0  0  0  0  0  0  0
  -49.3063   58.0174   59.4367 C   0  0  0  0  0  0  0  0  0  0  0  0
  -48.3742   56.8606   59.1142 C   0  0  0  0  0  0  0  0  0  0  0  0
  -46.8163   58.4225   57.8856 C   0  0  0  0  0  0  0  0  0  0  0  0
  -46.9370   57.2679   58.8453 C   0  0  0  0  0  0  0  0  0  0  0  0
 43 45  1  0  0  0
 43 42  1  0  0  0
 43 46  1  0  0  0
 64 65  1  0  0  0
 44 45  2  0  0  0
 65 63  1  0  0  0
  2  1  1  0  0  0
  2  4  1  0  0  0
  2  5  1  0  0  0
  3  4  2  0  0  0
 63 62  1  0  0  0
  6  8  1  0  0  0
  6 11  2  0  0  0
  7 10  1  0  0  0
  7 11  1  0  0  0
 62 61  1  0  0  0
 26 28  1  0  0  0
 26 32  1  0  0  0
 26 29  1  0  0  0
 12 18  1  0  0  0
 12 19  1  0  0  0
 61 60  1  0  0  0
 30 36  1  0  0  0
 30 37  1  0  0  0
 30 38  1  0  0  0
 20 21  2  0  0  0
 60 59  1  0  0  0
 22 21  1  0  0  0
 22 23  1  0  0  0
 59 58  1  0  0  0
 27 28  2  0  0  0
 58 57  1  0  0  0
 31 37  2  0  0  0
 57 56  1  0  0  0
 56 55  1  0  0  0
 55 54  1  0  0  0
 54 53  1  0  0  0
 53 52  1  0  0  0
 52 51  1  0  0  0
 51 50  1  0  0  0
 50 49  1  0  0  0
 49 47  1  0  0  0
 47 48  2  0  0  0
 48 45  1  0  0  0
 42 41  1  0  0  0
 41 40  1  0  0  0
 40 39  1  0  0  0
 39  1  1  0  0  0
  1 21  1  0  0  0
  8  4  1  0  0  0
  8  9  1  0  0  0
  8 10  1  0  0  0
 11 13  1  0  0  0
 13 14  2  0  0  0
 13 18  1  0  0  0
 14 15  1  0  0  0
 15 16  2  0  0  0
 16 17  1  0  0  0
 17 18  2  0  0  0
 23 24  1  0  0  0
 23 25  1  0  0  0
 25 28  1  0  0  0
 32 33  1  0  0  0
 32 37  1  0  0  0
 33 34  1  0  0  0
 34 35  1  0  0  0
 35 36  1  0  0  0
M  END
> <minimizedAffinity>
-10.16924

> <CNNscore>
0.2817857563

> <CNNaffinity>
7.2272453308

> <CNN_VS>
2.0365347862

> <CNNaffinity_variance>
0.7906985283

$$$$
/media/chris/experiments/cd1a-new-docking/inputs/ligands/7ryo_ligand.pdb


 65 67  0  0  0  0  0  0  0  0999 V2000
  -36.0772   60.7871   64.9769 C   0  0  0  0  0  0  0  0  0  0  0  0
  -35.6680   59.6985   64.1052 N   0  0  0  0  0  0  0  0  0  0  0  0
  -36.7364   60.5368   62.3138 O   0  0  0  0  0  0  0  0  0  0  0  0
  -36.0423   59.6700   62.8239 C   0  0  0  0  0  0  0  0  0  0  0  0
  -35.1077   58.9729   64.4642 H   0  0  0  0  0  0  0  0  0  0  0  0
  -34.2436   58.7268   61.4285 N   0  0  0  0  0  0  0  0  0  0  0  0
  -34.0884   56.7110   62.4261 O   0  0  0  0  0  0  0  0  0  0  0  0
  -35.5860   58.4710   61.9765 C   0  0  0  0  0  0  0  0  0  0  0  0
  -36.5659   58.2806   60.8226 C   0  0  0  0  0  0  0  0  0  0  0  0
  -35.4109   57.1809   62.7912 C   0  0  0  0  0  0  0  0  0  0  0  0
  -33.5208   57.7277   61.7264 C   0  0  0  0  0  0  0  0  0  0  0  0
  -31.6885   59.9344   61.4884 O   0  0  0  0  0  0  0  0  0  0  0  0
  -32.1085   57.5496   61.3812 C   0  0  0  0  0  0  0  0  0  0  0  0
  -31.5647   56.2675   61.2942 C   0  0  0  0  0  0  0  0  0  0  0  0
  -30.1943   56.0899   61.2116 C   0  0  0  0  0  0  0  0  0  0  0  0
  -29.3485   57.1776   61.2139 C   0  0  0  0  0  0  0  0  0  0  0  0
  -29.8616   58.4587   61.3038 C   0  0  0  0  0  0  0  0  0  0  0  0
  -31.2360   58.6574   61.3896 C   0  0  0  0  0  0  0  0  0  0  0  0
  -32.6085   60.1022   61.5479 H   0  0  0  0  0  0  0  0  0  0  0  0
  -34.3425   61.3237   66.5717 O   0  0  0  0  0  0  0  0  0  0  0  0
  -34.8723   61.5425   65.5173 C   0  0  0  0  0  0  0  0  0  0  0  0
  -34.4946   62.5051   64.6581 O   0  0  0  0  0  0  0  0  0  0  0  0
  -34.6791   63.9027   65.0608 C   0  0  0  0  0  0  0  0  0  0  0  0
  -35.7883   63.9530   66.0812 C   0  0  0  0  0  0  0  0  0  0  0  0
  -35.0309   64.6501   63.7891 C   0  0  0  0  0  0  0  0  0  0  0  0
  -32.7786   64.2591   63.0038 N   0  0  0  0  0  0  0  0  0  0  0  0
  -34.4509   64.2647   61.4987 O   0  0  0  0  0  0  0  0  0  0  0  0
  -34.0639   64.3776   62.6584 C   0  0  0  0  0  0  0  0  0  0  0  0
  -32.5266   64.3596   63.9501 H   0  0  0  0  0  0  0  0  0  0  0  0
  -29.8912   62.4125   61.8433 N   0  0  0  0  0  0  0  0  0  0  0  0
  -30.6408   62.9603   63.8851 O   0  0  0  0  0  0  0  0  0  0  0  0
  -31.7426   63.9866   62.0229 C   0  0  0  0  0  0  0  0  0  0  0  0
  -31.0721   65.2946   61.5877 C   0  0  0  0  0  0  0  0  0  0  0  0
  -30.3133   65.1832   60.2698 C   0  0  0  0  0  0  0  0  0  0  0  0
  -29.1591   64.2006   60.2635 C   0  0  0  0  0  0  0  0  0  0  0  0
  -29.5723   62.7573   60.4619 C   0  0  0  0  0  0  0  0  0  0  0  0
  -30.7090   63.0746   62.6647 C   0  0  0  0  0  0  0  0  0  0  0  0
  -29.4578   61.6072   62.2078 H   0  0  0  0  0  0  0  0  0  0  0  0
  -36.9622   60.2826   66.1177 C   0  0  0  0  0  0  0  0  0  0  0  0
  -38.4463   60.4932   65.8375 C   0  0  0  0  0  0  0  0  0  0  0  0
  -39.1163   59.2781   65.2233 C   0  0  0  0  0  0  0  0  0  0  0  0
  -39.4982   59.4341   63.7675 C   0  0  0  0  0  0  0  0  0  0  0  0
  -40.7049   58.6825   63.4610 N   0  0  0  0  0  0  0  0  0  0  0  0
  -39.5927   56.9197   62.5953 O   0  0  0  0  0  0  0  0  0  0  0  0
  -40.6644   57.4722   62.8934 C   0  0  0  0  0  0  0  0  0  0  0  0
  -41.5800   59.0776   63.6783 H   0  0  0  0  0  0  0  0  0  0  0  0
  -42.8570   56.4712   63.4964 C   0  0  0  0  0  0  0  0  0  0  0  0
  -41.9925   56.8967   62.5852 C   0  0  0  0  0  0  0  0  0  0  0  0
  -42.7040   56.4913   64.9853 C   0  0  0  0  0  0  0  0  0  0  0  0
  -43.5896   57.5511   65.6291 C   0  0  0  0  0  0  0  0  0  0  0  0
  -44.7650   57.9753   64.7657 C   0  0  0  0  0  0  0  0  0  0  0  0
  -46.1152   57.7667   65.4311 C   0  0  0  0  0  0  0  0  0  0  0  0
  -47.3026   58.1721   64.5783 C   0  0  0  0  0  0  0  0  0  0  0  0
  -47.8029   59.5778   64.8665 C   0  0  0  0  0  0  0  0  0  0  0  0
  -48.8629   59.6333   65.9491 C   0  0  0  0  0  0  0  0  0  0  0  0
  -50.2366   59.2228   65.4581 C   0  0  0  0  0  0  0  0  0  0  0  0
  -51.1337   60.3816   65.0680 C   0  0  0  0  0  0  0  0  0  0  0  0
  -51.6423   60.2749   63.6439 C   0  0  0  0  0  0  0  0  0  0  0  0
  -50.6674   59.5763   62.7103 C   0  0  0  0  0  0  0  0  0  0  0  0
  -51.1262   58.2049   62.2457 C   0  0  0  0  0  0  0  0  0  0  0  0
  -50.0538   57.3965   61.5319 C   0  0  0  0  0  0  0  0  0  0  0  0
  -49.9356   57.7041   60.0456 C   0  0  0  0  0  0  0  0  0  0  0  0
  -48.6101   58.3428   59.6636 C   0  0  0  0  0  0  0  0  0  0  0  0
  -46.8141   58.3715   57.8887 C   0  0  0  0  0  0  0  0  0  0  0  0
  -47.7827   57.5337   58.6815 C   0  0  0  0  0  0  0  0  0  0  0  0
 43 45  1  0  0  0
 43 42  1  0  0  0
 43 46  1  0  0  0
 64 65  1  0  0  0
 44 45  2  0  0  0
 65 63  1  0  0  0
  2  1  1  0  0  0
  2  4  1  0  0  0
  2  5  1  0  0  0
  3  4  2  0  0  0
 63 62  1  0  0  0
  6  8  1  0  0  0
  6 11  2  0  0  0
  7 10  1  0  0  0
  7 11  1  0  0  0
 62 61  1  0  0  0
 26 28  1  0  0  0
 26 32  1  0  0  0
 26 29  1  0  0  0
 12 18  1  0  0  0
 12 19  1  0  0  0
 61 60  1  0  0  0
 30 36  1  0  0  0
 30 37  1  0  0  0
 30 38  1  0  0  0
 20 21  2  0  0  0
 60 59  1  0  0  0
 22 21  1  0  0  0
 22 23  1  0  0  0
 59 58  1  0  0  0
 27 28  2  0  0  0
 58 57  1  0  0  0
 31 37  2  0  0  0
 57 56  1  0  0  0
 56 55  1  0  0  0
 55 54  1  0  0  0
 54 53  1  0  0  0
 53 52  1  0  0  0
 52 51  1  0  0  0
 51 50  1  0  0  0
 50 49  1  0  0  0
 49 47  1  0  0  0
 47 48  2  0  0  0
 48 45  1  0  0  0
 42 41  1  0  0  0
 41 40  1  0  0  0
 40 39  1  0  0  0
 39  1  1  0  0  0
  1 21  1  0  0  0
  8  4  1  0  0  0
  8  9  1  0  0  0
  8 10  1  0  0  0
 11 13  1  0  0  0
 13 14  2  0  0  0
 13 18  1  0  0  0
 14 15  1  0  0  0
 15 16  2  0  0  0
 16 17  1  0  0  0
 17 18  2  0  0  0
 23 24  1  0  0  0
 23 25  1  0  0  0
 25 28  1  0  0  0
 32 33  1  0  0  0
 32 37  1  0  0  0
 33 34  1  0  0  0
 34 35  1  0  0  0
 35 36  1  0  0  0
M  END
> <minimizedAffinity>
-9.93692

> <CNNscore>
0.2661621869

> <CNNaffinity>
7.2100195885

> <CNN_VS>
1.9190346003

> <CNNaffinity_variance>
0.4473175406

$$$$
/media/chris/experiments/cd1a-new-docking/inputs/ligands/7ryo_ligand.pdb


 65 67  0  0  0  0  0  0  0  0999 V2000
  -38.2990   59.9201   65.3143 C   0  0  0  0  0  0  0  0  0  0  0  0
  -37.3923   60.9234   65.8469 N   0  0  0  0  0  0  0  0  0  0  0  0
  -36.4826   61.3769   63.8419 O   0  0  0  0  0  0  0  0  0  0  0  0
  -36.5469   61.5762   65.0459 C   0  0  0  0  0  0  0  0  0  0  0  0
  -37.4018   61.1242   66.8107 H   0  0  0  0  0  0  0  0  0  0  0  0
  -34.2052   62.2562   65.4006 N   0  0  0  0  0  0  0  0  0  0  0  0
  -34.4039   64.4178   64.7915 O   0  0  0  0  0  0  0  0  0  0  0  0
  -35.6053   62.6051   65.6931 C   0  0  0  0  0  0  0  0  0  0  0  0
  -35.8170   62.5859   67.2041 C   0  0  0  0  0  0  0  0  0  0  0  0
  -35.7602   64.0199   65.1162 C   0  0  0  0  0  0  0  0  0  0  0  0
  -33.6534   63.2929   64.9205 C   0  0  0  0  0  0  0  0  0  0  0  0
  -32.6968   62.1732   62.4478 O   0  0  0  0  0  0  0  0  0  0  0  0
  -32.2588   63.4072   64.4875 C   0  0  0  0  0  0  0  0  0  0  0  0
  -31.3645   64.2005   65.2072 C   0  0  0  0  0  0  0  0  0  0  0  0
  -30.1223   64.5123   64.6817 C   0  0  0  0  0  0  0  0  0  0  0  0
  -29.7522   64.0429   63.4403 C   0  0  0  0  0  0  0  0  0  0  0  0
  -30.6218   63.2585   62.7046 C   0  0  0  0  0  0  0  0  0  0  0  0
  -31.8754   62.9361   63.2150 C   0  0  0  0  0  0  0  0  0  0  0  0
  -33.5477   61.9386   62.7625 H   0  0  0  0  0  0  0  0  0  0  0  0
  -40.2027   61.2992   65.8751 O   0  0  0  0  0  0  0  0  0  0  0  0
  -39.7364   60.2038   65.7240 C   0  0  0  0  0  0  0  0  0  0  0  0
  -40.4082   59.0549   65.9144 O   0  0  0  0  0  0  0  0  0  0  0  0
  -41.8564   59.1284   66.1303 C   0  0  0  0  0  0  0  0  0  0  0  0
  -42.1043   59.2111   67.6155 C   0  0  0  0  0  0  0  0  0  0  0  0
  -42.4242   57.8614   65.5205 C   0  0  0  0  0  0  0  0  0  0  0  0
  -44.7240   58.0234   66.2466 N   0  0  0  0  0  0  0  0  0  0  0  0
  -44.2969   58.0187   64.0376 O   0  0  0  0  0  0  0  0  0  0  0  0
  -43.8978   57.9714   65.1977 C   0  0  0  0  0  0  0  0  0  0  0  0
  -44.3467   57.9811   67.1549 H   0  0  0  0  0  0  0  0  0  0  0  0
  -47.9407   59.3806   67.1977 N   0  0  0  0  0  0  0  0  0  0  0  0
  -46.0722   58.9168   68.3485 O   0  0  0  0  0  0  0  0  0  0  0  0
  -46.1626   58.1404   66.0848 C   0  0  0  0  0  0  0  0  0  0  0  0
  -46.7938   56.7490   65.9627 C   0  0  0  0  0  0  0  0  0  0  0  0
  -48.1898   56.7629   65.3494 C   0  0  0  0  0  0  0  0  0  0  0  0
  -49.2362   57.5347   66.1287 C   0  0  0  0  0  0  0  0  0  0  0  0
  -48.9665   59.0217   66.2243 C   0  0  0  0  0  0  0  0  0  0  0  0
  -46.7223   58.8467   67.3096 C   0  0  0  0  0  0  0  0  0  0  0  0
  -48.1711   60.0910   67.8392 H   0  0  0  0  0  0  0  0  0  0  0  0
  -37.8785   58.5115   65.7364 C   0  0  0  0  0  0  0  0  0  0  0  0
  -37.0545   57.8062   64.6646 C   0  0  0  0  0  0  0  0  0  0  0  0
  -35.5604   57.8691   64.9223 C   0  0  0  0  0  0  0  0  0  0  0  0
  -34.7454   58.4433   63.7842 C   0  0  0  0  0  0  0  0  0  0  0  0
  -35.6073   58.9356   62.7214 N   0  0  0  0  0  0  0  0  0  0  0  0
  -35.6326   56.9763   61.6011 O   0  0  0  0  0  0  0  0  0  0  0  0
  -35.9908   58.1614   61.7004 C   0  0  0  0  0  0  0  0  0  0  0  0
  -35.9186   59.8689   62.7545 H   0  0  0  0  0  0  0  0  0  0  0  0
  -38.1126   58.7214   60.5350 C   0  0  0  0  0  0  0  0  0  0  0  0
  -36.8010   58.8576   60.6760 C   0  0  0  0  0  0  0  0  0  0  0  0
  -39.0407   57.8824   61.3567 C   0  0  0  0  0  0  0  0  0  0  0  0
  -40.4630   57.9147   60.8107 C   0  0  0  0  0  0  0  0  0  0  0  0
  -40.6162   58.7426   59.5465 C   0  0  0  0  0  0  0  0  0  0  0  0
  -41.7744   58.3016   58.6672 C   0  0  0  0  0  0  0  0  0  0  0  0
  -41.8709   59.0372   57.3438 C   0  0  0  0  0  0  0  0  0  0  0  0
  -43.2557   58.9818   56.7202 C   0  0  0  0  0  0  0  0  0  0  0  0
  -44.2944   58.3261   57.6091 C   0  0  0  0  0  0  0  0  0  0  0  0
  -45.5913   58.0242   56.8853 C   0  0  0  0  0  0  0  0  0  0  0  0
  -46.8313   58.1338   57.7515 C   0  0  0  0  0  0  0  0  0  0  0  0
  -46.8646   57.1003   58.8600 C   0  0  0  0  0  0  0  0  0  0  0  0
  -48.2511   56.8977   59.4489 C   0  0  0  0  0  0  0  0  0  0  0  0
  -49.1830   58.0831   59.2664 C   0  0  0  0  0  0  0  0  0  0  0  0
  -49.6631   58.7059   60.5683 C   0  0  0  0  0  0  0  0  0  0  0  0
  -50.6806   57.8586   61.3196 C   0  0  0  0  0  0  0  0  0  0  0  0
  -50.7620   58.1843   62.8023 C   0  0  0  0  0  0  0  0  0  0  0  0
  -50.7151   60.5254   63.7476 C   0  0  0  0  0  0  0  0  0  0  0  0
  -51.5531   59.4382   63.1275 C   0  0  0  0  0  0  0  0  0  0  0  0
 43 45  1  0  0  0
 43 42  1  0  0  0
 43 46  1  0  0  0
 64 65  1  0  0  0
 44 45  2  0  0  0
 65 63  1  0  0  0
  2  1  1  0  0  0
  2  4  1  0  0  0
  2  5  1  0  0  0
  3  4  2  0  0  0
 63 62  1  0  0  0
  6  8  1  0  0  0
  6 11  2  0  0  0
  7 10  1  0  0  0
  7 11  1  0  0  0
 62 61  1  0  0  0
 26 28  1  0  0  0
 26 32  1  0  0  0
 26 29  1  0  0  0
 12 18  1  0  0  0
 12 19  1  0  0  0
 61 60  1  0  0  0
 30 36  1  0  0  0
 30 37  1  0  0  0
 30 38  1  0  0  0
 20 21  2  0  0  0
 60 59  1  0  0  0
 22 21  1  0  0  0
 22 23  1  0  0  0
 59 58  1  0  0  0
 27 28  2  0  0  0
 58 57  1  0  0  0
 31 37  2  0  0  0
 57 56  1  0  0  0
 56 55  1  0  0  0
 55 54  1  0  0  0
 54 53  1  0  0  0
 53 52  1  0  0  0
 52 51  1  0  0  0
 51 50  1  0  0  0
 50 49  1  0  0  0
 49 47  1  0  0  0
 47 48  2  0  0  0
 48 45  1  0  0  0
 42 41  1  0  0  0
 41 40  1  0  0  0
 40 39  1  0  0  0
 39  1  1  0  0  0
  1 21  1  0  0  0
  8  4  1  0  0  0
  8  9  1  0  0  0
  8 10  1  0  0  0
 11 13  1  0  0  0
 13 14  2  0  0  0
 13 18  1  0  0  0
 14 15  1  0  0  0
 15 16  2  0  0  0
 16 17  1  0  0  0
 17 18  2  0  0  0
 23 24  1  0  0  0
 23 25  1  0  0  0
 25 28  1  0  0  0
 32 33  1  0  0  0
 32 37  1  0  0  0
 33 34  1  0  0  0
 34 35  1  0  0  0
 35 36  1  0  0  0
M  END
> <minimizedAffinity>
-8.94969

> <CNNscore>
0.2376071662

> <CNNaffinity>
7.4800233841

> <CNN_VS>
1.7773071527

> <CNNaffinity_variance>
1.2875840664

$$$$
/media/chris/experiments/cd1a-new-docking/inputs/ligands/7ryo_ligand.pdb


 65 67  0  0  0  0  0  0  0  0999 V2000
  -40.9776   58.2521   62.7876 C   0  0  0  0  0  0  0  0  0  0  0  0
  -39.9239   58.3344   63.7852 N   0  0  0  0  0  0  0  0  0  0  0  0
  -39.8107   60.5777   63.6926 O   0  0  0  0  0  0  0  0  0  0  0  0
  -39.4238   59.5153   64.1565 C   0  0  0  0  0  0  0  0  0  0  0  0
  -39.5745   57.5089   64.1922 H   0  0  0  0  0  0  0  0  0  0  0  0
  -37.2183   60.4231   64.7762 N   0  0  0  0  0  0  0  0  0  0  0  0
  -37.7116   61.0508   66.8847 O   0  0  0  0  0  0  0  0  0  0  0  0
  -38.2949   59.5128   65.2004 C   0  0  0  0  0  0  0  0  0  0  0  0
  -37.7332   58.0989   65.3167 C   0  0  0  0  0  0  0  0  0  0  0  0
  -38.7272   60.0658   66.5664 C   0  0  0  0  0  0  0  0  0  0  0  0
  -36.9848   61.2053   65.7474 C   0  0  0  0  0  0  0  0  0  0  0  0
  -36.2082   62.5492   68.1710 O   0  0  0  0  0  0  0  0  0  0  0  0
  -35.9866   62.2769   65.7727 C   0  0  0  0  0  0  0  0  0  0  0  0
  -35.2638   62.5887   64.6205 C   0  0  0  0  0  0  0  0  0  0  0  0
  -34.1592   63.4202   64.6879 C   0  0  0  0  0  0  0  0  0  0  0  0
  -33.7586   63.9518   65.8943 C   0  0  0  0  0  0  0  0  0  0  0  0
  -34.4549   63.6549   67.0518 C   0  0  0  0  0  0  0  0  0  0  0  0
  -35.5665   62.8194   67.0046 C   0  0  0  0  0  0  0  0  0  0  0  0
  -36.9602   61.9901   68.1734 H   0  0  0  0  0  0  0  0  0  0  0  0
  -42.4759   56.4156   63.2604 O   0  0  0  0  0  0  0  0  0  0  0  0
  -42.2217   57.5847   63.3546 C   0  0  0  0  0  0  0  0  0  0  0  0
  -43.0093   58.4911   63.9592 O   0  0  0  0  0  0  0  0  0  0  0  0
  -43.3808   58.2607   65.3586 C   0  0  0  0  0  0  0  0  0  0  0  0
  -42.2176   57.5926   66.0474 C   0  0  0  0  0  0  0  0  0  0  0  0
  -44.6106   57.3746   65.3131 C   0  0  0  0  0  0  0  0  0  0  0  0
  -46.7853   58.1497   64.5974 N   0  0  0  0  0  0  0  0  0  0  0  0
  -46.0901   58.6778   66.6710 O   0  0  0  0  0  0  0  0  0  0  0  0
  -45.8917   58.1293   65.5905 C   0  0  0  0  0  0  0  0  0  0  0  0
  -46.5714   57.6922   63.7523 H   0  0  0  0  0  0  0  0  0  0  0  0
  -50.0062   58.6052   66.1822 N   0  0  0  0  0  0  0  0  0  0  0  0
  -48.6995   56.8119   65.8544 O   0  0  0  0  0  0  0  0  0  0  0  0
  -48.0630   58.8276   64.7288 C   0  0  0  0  0  0  0  0  0  0  0  0
  -48.7269   58.9713   63.3546 C   0  0  0  0  0  0  0  0  0  0  0  0
  -49.8166   60.0369   63.3109 C   0  0  0  0  0  0  0  0  0  0  0  0
  -50.9999   59.7969   64.2275 C   0  0  0  0  0  0  0  0  0  0  0  0
  -50.6565   59.8198   65.7022 C   0  0  0  0  0  0  0  0  0  0  0  0
  -48.9518   57.9936   65.6379 C   0  0  0  0  0  0  0  0  0  0  0  0
  -50.3847   58.1934   66.9925 H   0  0  0  0  0  0  0  0  0  0  0  0
  -40.4956   57.5292   61.5289 C   0  0  0  0  0  0  0  0  0  0  0  0
  -40.6475   58.3836   60.2750 C   0  0  0  0  0  0  0  0  0  0  0  0
  -39.8027   59.6438   60.3051 C   0  0  0  0  0  0  0  0  0  0  0  0
  -38.4012   59.4794   59.7592 C   0  0  0  0  0  0  0  0  0  0  0  0
  -37.7011   58.3987   60.4351 N   0  0  0  0  0  0  0  0  0  0  0  0
  -36.6103   59.7671   61.8605 O   0  0  0  0  0  0  0  0  0  0  0  0
  -36.8510   58.6223   61.4431 C   0  0  0  0  0  0  0  0  0  0  0  0
  -37.8581   57.4724   60.1410 H   0  0  0  0  0  0  0  0  0  0  0  0
  -34.8638   57.2927   62.1186 C   0  0  0  0  0  0  0  0  0  0  0  0
  -36.1744   57.4088   61.9529 C   0  0  0  0  0  0  0  0  0  0  0  0
  -33.8117   58.3250   61.8577 C   0  0  0  0  0  0  0  0  0  0  0  0
  -32.7219   57.7983   60.9319 C   0  0  0  0  0  0  0  0  0  0  0  0
  -32.2693   56.3857   61.2587 C   0  0  0  0  0  0  0  0  0  0  0  0
  -30.8485   56.3104   61.7925 C   0  0  0  0  0  0  0  0  0  0  0  0
  -29.9538   57.4546   61.3544 C   0  0  0  0  0  0  0  0  0  0  0  0
  -29.3756   58.2489   62.5139 C   0  0  0  0  0  0  0  0  0  0  0  0
  -29.1424   59.7115   62.1894 C   0  0  0  0  0  0  0  0  0  0  0  0
  -30.2840   60.3380   61.4141 C   0  0  0  0  0  0  0  0  0  0  0  0
  -30.7176   61.6974   61.9280 C   0  0  0  0  0  0  0  0  0  0  0  0
  -29.9373   62.1373   63.1510 C   0  0  0  0  0  0  0  0  0  0  0  0
  -29.6826   63.6352   63.1924 C   0  0  0  0  0  0  0  0  0  0  0  0
  -30.3339   64.3439   64.3673 C   0  0  0  0  0  0  0  0  0  0  0  0
  -31.0732   65.6198   63.9947 C   0  0  0  0  0  0  0  0  0  0  0  0
  -30.6127   66.2393   62.6824 C   0  0  0  0  0  0  0  0  0  0  0  0
  -31.6170   66.0788   61.5525 C   0  0  0  0  0  0  0  0  0  0  0  0
  -34.0506   66.5101   62.0705 C   0  0  0  0  0  0  0  0  0  0  0  0
  -32.9493   65.4870   61.9755 C   0  0  0  0  0  0  0  0  0  0  0  0
 43 45  1  0  0  0
 43 42  1  0  0  0
 43 46  1  0  0  0
 64 65  1  0  0  0
 44 45  2  0  0  0
 65 63  1  0  0  0
  2  1  1  0  0  0
  2  4  1  0  0  0
  2  5  1  0  0  0
  3  4  2  0  0  0
 63 62  1  0  0  0
  6  8  1  0  0  0
  6 11  2  0  0  0
  7 10  1  0  0  0
  7 11  1  0  0  0
 62 61  1  0  0  0
 26 28  1  0  0  0
 26 32  1  0  0  0
 26 29  1  0  0  0
 12 18  1  0  0  0
 12 19  1  0  0  0
 61 60  1  0  0  0
 30 36  1  0  0  0
 30 37  1  0  0  0
 30 38  1  0  0  0
 20 21  2  0  0  0
 60 59  1  0  0  0
 22 21  1  0  0  0
 22 23  1  0  0  0
 59 58  1  0  0  0
 27 28  2  0  0  0
 58 57  1  0  0  0
 31 37  2  0  0  0
 57 56  1  0  0  0
 56 55  1  0  0  0
 55 54  1  0  0  0
 54 53  1  0  0  0
 53 52  1  0  0  0
 52 51  1  0  0  0
 51 50  1  0  0  0
 50 49  1  0  0  0
 49 47  1  0  0  0
 47 48  2  0  0  0
 48 45  1  0  0  0
 42 41  1  0  0  0
 41 40  1  0  0  0
 40 39  1  0  0  0
 39  1  1  0  0  0
  1 21  1  0  0  0
  8  4  1  0  0  0
  8  9  1  0  0  0
  8 10  1  0  0  0
 11 13  1  0  0  0
 13 14  2  0  0  0
 13 18  1  0  0  0
 14 15  1  0  0  0
 15 16  2  0  0  0
 16 17  1  0  0  0
 17 18  2  0  0  0
 23 24  1  0  0  0
 23 25  1  0  0  0
 25 28  1  0  0  0
 32 33  1  0  0  0
 32 37  1  0  0  0
 33 34  1  0  0  0
 34 35  1  0  0  0
 35 36  1  0  0  0
M  END
> <minimizedAffinity>
-9.91590

> <CNNscore>
0.2266865820

> <CNNaffinity>
7.4993834496

> <CNN_VS>
1.7000095844

> <CNNaffinity_variance>
1.9891932011

$$$$
