/media/chris/experiments/cd1a-new-docking/inputs/ligands/7ryo_ligand.pdb


 65 67  0  0  0  0  0  0  0  0999 V2000
  -39.9933   58.5073   59.8910 C   0  0  0  0  0  0  0  0  0  0  0  0
  -40.3981   58.0093   61.1950 N   0  0  0  0  0  0  0  0  0  0  0  0
  -41.5937   56.3098   60.3372 O   0  0  0  0  0  0  0  0  0  0  0  0
  -41.1790   56.9318   61.3040 C   0  0  0  0  0  0  0  0  0  0  0  0
  -40.0926   58.4724   62.0083 H   0  0  0  0  0  0  0  0  0  0  0  0
  -40.9704   57.3779   63.7184 N   0  0  0  0  0  0  0  0  0  0  0  0
  -43.1627   57.3317   64.2429 O   0  0  0  0  0  0  0  0  0  0  0  0
  -41.5802   56.4848   62.7193 C   0  0  0  0  0  0  0  0  0  0  0  0
  -41.0757   55.0634   62.9497 C   0  0  0  0  0  0  0  0  0  0  0  0
  -43.0871   56.6032   62.9911 C   0  0  0  0  0  0  0  0  0  0  0  0
  -41.9018   57.7774   64.4816 C   0  0  0  0  0  0  0  0  0  0  0  0
  -40.4889   60.2788   64.3073 O   0  0  0  0  0  0  0  0  0  0  0  0
  -41.7546   58.6841   65.6226 C   0  0  0  0  0  0  0  0  0  0  0  0
  -42.4297   58.4240   66.8158 C   0  0  0  0  0  0  0  0  0  0  0  0
  -42.4967   59.3860   67.8089 C   0  0  0  0  0  0  0  0  0  0  0  0
  -41.8969   60.6139   67.6325 C   0  0  0  0  0  0  0  0  0  0  0  0
  -41.2256   60.8986   66.4573 C   0  0  0  0  0  0  0  0  0  0  0  0
  -41.1492   59.9454   65.4466 C   0  0  0  0  0  0  0  0  0  0  0  0
  -40.4195   59.6594   63.6076 H   0  0  0  0  0  0  0  0  0  0  0  0
  -38.1205   59.8018   59.0798 O   0  0  0  0  0  0  0  0  0  0  0  0
  -38.7919   59.4338   60.0041 C   0  0  0  0  0  0  0  0  0  0  0  0
  -38.5728   59.7677   61.2878 O   0  0  0  0  0  0  0  0  0  0  0  0
  -37.1883   59.7901   61.7699 C   0  0  0  0  0  0  0  0  0  0  0  0
  -36.6295   58.3946   61.6521 C   0  0  0  0  0  0  0  0  0  0  0  0
  -37.2657   60.2610   63.2092 C   0  0  0  0  0  0  0  0  0  0  0  0
  -36.1843   61.9216   64.5931 N   0  0  0  0  0  0  0  0  0  0  0  0
  -34.9109   60.6926   63.2040 O   0  0  0  0  0  0  0  0  0  0  0  0
  -36.0134   60.9776   63.6632 C   0  0  0  0  0  0  0  0  0  0  0  0
  -37.0925   62.1074   64.9247 H   0  0  0  0  0  0  0  0  0  0  0  0
  -34.4932   63.6266   67.2999 N   0  0  0  0  0  0  0  0  0  0  0  0
  -36.6571   63.2932   66.8133 O   0  0  0  0  0  0  0  0  0  0  0  0
  -35.0686   62.6818   65.1287 C   0  0  0  0  0  0  0  0  0  0  0  0
  -34.7252   63.8448   64.1911 C   0  0  0  0  0  0  0  0  0  0  0  0
  -33.3275   64.4139   64.4100 C   0  0  0  0  0  0  0  0  0  0  0  0
  -33.0730   65.0072   65.7813 C   0  0  0  0  0  0  0  0  0  0  0  0
  -33.1376   64.0031   66.9132 C   0  0  0  0  0  0  0  0  0  0  0  0
  -35.4752   63.2280   66.4883 C   0  0  0  0  0  0  0  0  0  0  0  0
  -34.7059   63.6714   68.2602 H   0  0  0  0  0  0  0  0  0  0  0  0
  -41.1537   59.2023   59.1771 C   0  0  0  0  0  0  0  0  0  0  0  0
  -41.4179   58.6173   57.7939 C   0  0  0  0  0  0  0  0  0  0  0  0
  -42.5966   59.2617   57.0882 C   0  0  0  0  0  0  0  0  0  0  0  0
  -43.7216   58.3121   56.7391 C   0  0  0  0  0  0  0  0  0  0  0  0
  -44.9826   58.7670   57.3028 N   0  0  0  0  0  0  0  0  0  0  0  0
  -46.1382   56.9514   56.6233 O   0  0  0  0  0  0  0  0  0  0  0  0
  -46.1066   58.0491   57.2034 C   0  0  0  0  0  0  0  0  0  0  0  0
  -45.0098   59.6316   57.7730 H   0  0  0  0  0  0  0  0  0  0  0  0
  -47.9076   58.3398   58.8903 C   0  0  0  0  0  0  0  0  0  0  0  0
  -47.3053   58.7085   57.7678 C   0  0  0  0  0  0  0  0  0  0  0  0
  -47.5195   57.2304   59.8172 C   0  0  0  0  0  0  0  0  0  0  0  0
  -48.2926   55.9513   59.5209 C   0  0  0  0  0  0  0  0  0  0  0  0
  -49.5629   55.7987   60.3396 C   0  0  0  0  0  0  0  0  0  0  0  0
  -49.7093   56.8416   61.4352 C   0  0  0  0  0  0  0  0  0  0  0  0
  -51.0538   57.5440   61.4552 C   0  0  0  0  0  0  0  0  0  0  0  0
  -51.1424   58.6522   62.4913 C   0  0  0  0  0  0  0  0  0  0  0  0
  -50.2393   59.8331   62.1936 C   0  0  0  0  0  0  0  0  0  0  0  0
  -48.9335   59.7916   62.9618 C   0  0  0  0  0  0  0  0  0  0  0  0
  -48.8878   60.7093   64.1684 C   0  0  0  0  0  0  0  0  0  0  0  0
  -50.2645   61.0134   64.7253 C   0  0  0  0  0  0  0  0  0  0  0  0
  -50.6824   60.0680   65.8396 C   0  0  0  0  0  0  0  0  0  0  0  0
  -49.5578   59.1945   66.3677 C   0  0  0  0  0  0  0  0  0  0  0  0
  -49.6795   57.7257   65.9923 C   0  0  0  0  0  0  0  0  0  0  0  0
  -48.3417   57.0210   65.8143 C   0  0  0  0  0  0  0  0  0  0  0  0
  -47.3173   57.3911   66.8748 C   0  0  0  0  0  0  0  0  0  0  0  0
  -46.1182   58.4822   64.9390 C   0  0  0  0  0  0  0  0  0  0  0  0
  -45.9984   57.9010   66.3233 C   0  0  0  0  0  0  0  0  0  0  0  0
 43 45  1  0  0  0
 43 42  1  0  0  0
 43 46  1  0  0  0
 64 65  1  0  0  0
 44 45  2  0  0  0
 65 63  1  0  0  0
  2  1  1  0  0  0
  2  4  1  0  0  0
  2  5  1  0  0  0
  3  4  2  0  0  0
 63 62  1  0  0  0
  6  8  1  0  0  0
  6 11  2  0  0  0
  7 10  1  0  0  0
  7 11  1  0  0  0
 62 61  1  0  0  0
 26 28  1  0  0  0
 26 32  1  0  0  0
 26 29  1  0  0  0
 12 18  1  0  0  0
 12 19  1  0  0  0
 61 60  1  0  0  0
 30 36  1  0  0  0
 30 37  1  0  0  0
 30 38  1  0  0  0
 20 21  2  0  0  0
 60 59  1  0  0  0
 22 21  1  0  0  0
 22 23  1  0  0  0
 59 58  1  0  0  0
 27 28  2  0  0  0
 58 57  1  0  0  0
 31 37  2  0  0  0
 57 56  1  0  0  0
 56 55  1  0  0  0
 55 54  1  0  0  0
 54 53  1  0  0  0
 53 52  1  0  0  0
 52 51  1  0  0  0
 51 50  1  0  0  0
 50 49  1  0  0  0
 49 47  1  0  0  0
 47 48  2  0  0  0
 48 45  1  0  0  0
 42 41  1  0  0  0
 41 40  1  0  0  0
 40 39  1  0  0  0
 39  1  1  0  0  0
  1 21  1  0  0  0
  8  4  1  0  0  0
  8  9  1  0  0  0
  8 10  1  0  0  0
 11 13  1  0  0  0
 13 14  2  0  0  0
 13 18  1  0  0  0
 14 15  1  0  0  0
 15 16  2  0  0  0
 16 17  1  0  0  0
 17 18  2  0  0  0
 23 24  1  0  0  0
 23 25  1  0  0  0
 25 28  1  0  0  0
 32 33  1  0  0  0
 32 37  1  0  0  0
 33 34  1  0  0  0
 34 35  1  0  0  0
 35 36  1  0  0  0
M  END
> <minimizedAffinity>
-8.15655

> <CNNscore>
0.2107714266

> <CNNaffinity>
7.8218245506

> <CNN_VS>
1.6486171484

> <CNNaffinity_variance>
1.2831726074

$$$$
/media/chris/experiments/cd1a-new-docking/inputs/ligands/7ryo_ligand.pdb


 65 67  0  0  0  0  0  0  0  0999 V2000
  -38.9163   57.0810   64.3543 C   0  0  0  0  0  0  0  0  0  0  0  0
  -39.9110   57.7945   65.1377 N   0  0  0  0  0  0  0  0  0  0  0  0
  -39.7392   59.6731   63.9150 O   0  0  0  0  0  0  0  0  0  0  0  0
  -40.2407   59.0540   64.8417 C   0  0  0  0  0  0  0  0  0  0  0  0
  -40.3472   57.3433   65.8962 H   0  0  0  0  0  0  0  0  0  0  0  0
  -42.6408   59.3615   65.3076 N   0  0  0  0  0  0  0  0  0  0  0  0
  -42.5923   58.9478   67.5233 O   0  0  0  0  0  0  0  0  0  0  0  0
  -41.2848   59.7442   65.7348 C   0  0  0  0  0  0  0  0  0  0  0  0
  -41.1288   61.2559   65.5986 C   0  0  0  0  0  0  0  0  0  0  0  0
  -41.2217   59.2970   67.2027 C   0  0  0  0  0  0  0  0  0  0  0  0
  -43.2550   58.9475   66.3375 C   0  0  0  0  0  0  0  0  0  0  0  0
  -44.4755   57.5194   64.1569 O   0  0  0  0  0  0  0  0  0  0  0  0
  -44.6372   58.4646   66.3831 C   0  0  0  0  0  0  0  0  0  0  0  0
  -45.3741   58.5601   67.5643 C   0  0  0  0  0  0  0  0  0  0  0  0
  -46.5813   57.8955   67.6945 C   0  0  0  0  0  0  0  0  0  0  0  0
  -47.0719   57.1304   66.6588 C   0  0  0  0  0  0  0  0  0  0  0  0
  -46.3589   57.0156   65.4793 C   0  0  0  0  0  0  0  0  0  0  0  0
  -45.1425   57.6745   65.3302 C   0  0  0  0  0  0  0  0  0  0  0  0
  -43.6537   57.9497   64.0248 H   0  0  0  0  0  0  0  0  0  0  0  0
  -37.1844   58.5436   65.1924 O   0  0  0  0  0  0  0  0  0  0  0  0
  -37.5995   57.8418   64.3117 C   0  0  0  0  0  0  0  0  0  0  0  0
  -36.9732   57.6358   63.1401 O   0  0  0  0  0  0  0  0  0  0  0  0
  -36.4769   58.8041   62.4064 C   0  0  0  0  0  0  0  0  0  0  0  0
  -37.0138   58.7354   60.9990 C   0  0  0  0  0  0  0  0  0  0  0  0
  -34.9647   58.7021   62.4527 C   0  0  0  0  0  0  0  0  0  0  0  0
  -34.6430   60.8866   63.4359 N   0  0  0  0  0  0  0  0  0  0  0  0
  -33.6248   59.1226   64.3915 O   0  0  0  0  0  0  0  0  0  0  0  0
  -34.3463   59.5861   63.5129 C   0  0  0  0  0  0  0  0  0  0  0  0
  -35.2274   61.2015   62.7089 H   0  0  0  0  0  0  0  0  0  0  0  0
  -34.8287   62.6710   66.5783 N   0  0  0  0  0  0  0  0  0  0  0  0
  -36.3852   61.8394   65.1939 O   0  0  0  0  0  0  0  0  0  0  0  0
  -34.1280   61.8490   64.3941 C   0  0  0  0  0  0  0  0  0  0  0  0
  -33.7594   63.1555   63.6822 C   0  0  0  0  0  0  0  0  0  0  0  0
  -32.8128   64.0423   64.4840 C   0  0  0  0  0  0  0  0  0  0  0  0
  -33.3480   64.5297   65.8157 C   0  0  0  0  0  0  0  0  0  0  0  0
  -33.6050   63.4274   66.8218 C   0  0  0  0  0  0  0  0  0  0  0  0
  -35.2127   62.1201   65.4246 C   0  0  0  0  0  0  0  0  0  0  0  0
  -35.4348   62.5548   67.3454 H   0  0  0  0  0  0  0  0  0  0  0  0
  -39.4254   56.7909   62.9416 C   0  0  0  0  0  0  0  0  0  0  0  0
  -40.4535   55.6650   62.9150 C   0  0  0  0  0  0  0  0  0  0  0  0
  -41.8035   56.1017   62.3771 C   0  0  0  0  0  0  0  0  0  0  0  0
  -41.9224   57.5829   62.0922 C   0  0  0  0  0  0  0  0  0  0  0  0
  -41.2243   57.9364   60.8664 N   0  0  0  0  0  0  0  0  0  0  0  0
  -40.9182   60.0923   61.4600 O   0  0  0  0  0  0  0  0  0  0  0  0
  -40.7699   59.1733   60.6378 C   0  0  0  0  0  0  0  0  0  0  0  0
  -41.0815   57.2427   60.1827 H   0  0  0  0  0  0  0  0  0  0  0  0
  -40.7392   59.0432   58.1567 C   0  0  0  0  0  0  0  0  0  0  0  0
  -40.1565   59.3627   59.3043 C   0  0  0  0  0  0  0  0  0  0  0  0
  -42.1023   58.4595   57.9519 C   0  0  0  0  0  0  0  0  0  0  0  0
  -42.7326   58.9414   56.6510 C   0  0  0  0  0  0  0  0  0  0  0  0
  -44.2414   59.1013   56.7227 C   0  0  0  0  0  0  0  0  0  0  0  0
  -44.9440   57.9408   57.4075 C   0  0  0  0  0  0  0  0  0  0  0  0
  -46.4157   58.1784   57.6891 C   0  0  0  0  0  0  0  0  0  0  0  0
  -47.3400   57.5021   56.6903 C   0  0  0  0  0  0  0  0  0  0  0  0
  -48.2398   56.4523   57.3124 C   0  0  0  0  0  0  0  0  0  0  0  0
  -47.6513   55.8301   58.5627 C   0  0  0  0  0  0  0  0  0  0  0  0
  -48.6017   55.7800   59.7436 C   0  0  0  0  0  0  0  0  0  0  0  0
  -49.1522   57.1440   60.1105 C   0  0  0  0  0  0  0  0  0  0  0  0
  -50.5195   57.0803   60.7713 C   0  0  0  0  0  0  0  0  0  0  0  0
  -50.7623   58.1680   61.8030 C   0  0  0  0  0  0  0  0  0  0  0  0
  -49.4938   58.8057   62.3481 C   0  0  0  0  0  0  0  0  0  0  0  0
  -49.7369   60.0777   63.1487 C   0  0  0  0  0  0  0  0  0  0  0  0
  -50.9658   60.0053   64.0406 C   0  0  0  0  0  0  0  0  0  0  0  0
  -50.3893   58.5211   66.0005 C   0  0  0  0  0  0  0  0  0  0  0  0
  -50.6605   59.9244   65.5253 C   0  0  0  0  0  0  0  0  0  0  0  0
 43 45  1  0  0  0
 43 42  1  0  0  0
 43 46  1  0  0  0
 64 65  1  0  0  0
 44 45  2  0  0  0
 65 63  1  0  0  0
  2  1  1  0  0  0
  2  4  1  0  0  0
  2  5  1  0  0  0
  3  4  2  0  0  0
 63 62  1  0  0  0
  6  8  1  0  0  0
  6 11  2  0  0  0
  7 10  1  0  0  0
  7 11  1  0  0  0
 62 61  1  0  0  0
 26 28  1  0  0  0
 26 32  1  0  0  0
 26 29  1  0  0  0
 12 18  1  0  0  0
 12 19  1  0  0  0
 61 60  1  0  0  0
 30 36  1  0  0  0
 30 37  1  0  0  0
 30 38  1  0  0  0
 20 21  2  0  0  0
 60 59  1  0  0  0
 22 21  1  0  0  0
 22 23  1  0  0  0
 59 58  1  0  0  0
 27 28  2  0  0  0
 58 57  1  0  0  0
 31 37  2  0  0  0
 57 56  1  0  0  0
 56 55  1  0  0  0
 55 54  1  0  0  0
 54 53  1  0  0  0
 53 52  1  0  0  0
 52 51  1  0  0  0
 51 50  1  0  0  0
 50 49  1  0  0  0
 49 47  1  0  0  0
 47 48  2  0  0  0
 48 45  1  0  0  0
 42 41  1  0  0  0
 41 40  1  0  0  0
 40 39  1  0  0  0
 39  1  1  0  0  0
  1 21  1  0  0  0
  8  4  1  0  0  0
  8  9  1  0  0  0
  8 10  1  0  0  0
 11 13  1  0  0  0
 13 14  2  0  0  0
 13 18  1  0  0  0
 14 15  1  0  0  0
 15 16  2  0  0  0
 16 17  1  0  0  0
 17 18  2  0  0  0
 23 24  1  0  0  0
 23 25  1  0  0  0
 25 28  1  0  0  0
 32 33  1  0  0  0
 32 37  1  0  0  0
 33 34  1  0  0  0
 34 35  1  0  0  0
 35 36  1  0  0  0
M  END
> <minimizedAffinity>
-7.32970

> <CNNscore>
0.1798909605

> <CNNaffinity>
7.8739967346

> <CNN_VS>
1.4164608717

> <CNNaffinity_variance>
0.9915010333

$$$$
/media/chris/experiments/cd1a-new-docking/inputs/ligands/7ryo_ligand.pdb


 65 67  0  0  0  0  0  0  0  0999 V2000
  -41.9335   59.4833   65.5393 C   0  0  0  0  0  0  0  0  0  0  0  0
  -41.3778   58.7015   64.4473 N   0  0  0  0  0  0  0  0  0  0  0  0
  -43.3924   58.0359   63.7046 O   0  0  0  0  0  0  0  0  0  0  0  0
  -42.1741   58.0333   63.6095 C   0  0  0  0  0  0  0  0  0  0  0  0
  -40.4017   58.6642   64.3239 H   0  0  0  0  0  0  0  0  0  0  0  0
  -40.3376   57.9389   61.9693 N   0  0  0  0  0  0  0  0  0  0  0  0
  -39.5603   55.8844   62.4770 O   0  0  0  0  0  0  0  0  0  0  0  0
  -41.5046   57.2117   62.4955 C   0  0  0  0  0  0  0  0  0  0  0  0
  -42.5090   57.0003   61.3665 C   0  0  0  0  0  0  0  0  0  0  0  0
  -40.9171   55.8814   62.9891 C   0  0  0  0  0  0  0  0  0  0  0  0
  -39.3518   57.1412   62.0052 C   0  0  0  0  0  0  0  0  0  0  0  0
  -38.7610   58.9188   59.8200 O   0  0  0  0  0  0  0  0  0  0  0  0
  -37.9836   57.4388   61.5752 C   0  0  0  0  0  0  0  0  0  0  0  0
  -36.8985   56.9708   62.3174 C   0  0  0  0  0  0  0  0  0  0  0  0
  -35.6211   57.4420   62.0674 C   0  0  0  0  0  0  0  0  0  0  0  0
  -35.4039   58.3798   61.0815 C   0  0  0  0  0  0  0  0  0  0  0  0
  -36.4628   58.8633   60.3347 C   0  0  0  0  0  0  0  0  0  0  0  0
  -37.7543   58.4034   60.5725 C   0  0  0  0  0  0  0  0  0  0  0  0
  -39.6421   58.6301   59.9553 H   0  0  0  0  0  0  0  0  0  0  0  0
  -41.0783   61.5759   66.3940 O   0  0  0  0  0  0  0  0  0  0  0  0
  -40.8913   60.4197   66.1321 C   0  0  0  0  0  0  0  0  0  0  0  0
  -39.7227   59.7773   66.3032 O   0  0  0  0  0  0  0  0  0  0  0  0
  -38.5788   60.1933   65.4857 C   0  0  0  0  0  0  0  0  0  0  0  0
  -37.8600   58.9520   65.0210 C   0  0  0  0  0  0  0  0  0  0  0  0
  -37.7198   61.0516   66.3940 C   0  0  0  0  0  0  0  0  0  0  0  0
  -36.2502   62.7675   65.5349 N   0  0  0  0  0  0  0  0  0  0  0  0
  -35.5522   60.6297   65.4694 O   0  0  0  0  0  0  0  0  0  0  0  0
  -36.4110   61.4595   65.7549 C   0  0  0  0  0  0  0  0  0  0  0  0
  -36.9736   63.3869   65.7845 H   0  0  0  0  0  0  0  0  0  0  0  0
  -32.8034   63.8498   65.7378 N   0  0  0  0  0  0  0  0  0  0  0  0
  -34.5002   63.8555   67.2045 O   0  0  0  0  0  0  0  0  0  0  0  0
  -35.0388   63.3018   64.9378 C   0  0  0  0  0  0  0  0  0  0  0  0
  -35.3690   64.5362   64.0910 C   0  0  0  0  0  0  0  0  0  0  0  0
  -34.2827   64.8936   63.0823 C   0  0  0  0  0  0  0  0  0  0  0  0
  -32.9342   65.2495   63.6757 C   0  0  0  0  0  0  0  0  0  0  0  0
  -32.2591   64.1096   64.4093 C   0  0  0  0  0  0  0  0  0  0  0  0
  -34.0895   63.6938   66.0591 C   0  0  0  0  0  0  0  0  0  0  0  0
  -32.1538   63.7826   66.4747 H   0  0  0  0  0  0  0  0  0  0  0  0
  -42.5344   58.5814   66.6184 C   0  0  0  0  0  0  0  0  0  0  0  0
  -43.5598   59.3110   67.4796 C   0  0  0  0  0  0  0  0  0  0  0  0
  -44.9123   58.6237   67.5088 C   0  0  0  0  0  0  0  0  0  0  0  0
  -45.0543   57.4647   66.5466 C   0  0  0  0  0  0  0  0  0  0  0  0
  -46.2557   57.6012   65.7385 N   0  0  0  0  0  0  0  0  0  0  0  0
  -47.3969   56.0089   66.8591 O   0  0  0  0  0  0  0  0  0  0  0  0
  -47.3468   56.8587   65.9548 C   0  0  0  0  0  0  0  0  0  0  0  0
  -46.2661   58.2617   65.0086 H   0  0  0  0  0  0  0  0  0  0  0  0
  -49.4088   57.9761   65.1342 C   0  0  0  0  0  0  0  0  0  0  0  0
  -48.4409   57.0822   64.9835 C   0  0  0  0  0  0  0  0  0  0  0  0
  -49.5999   58.9386   66.2645 C   0  0  0  0  0  0  0  0  0  0  0  0
  -49.0433   60.3174   65.9314 C   0  0  0  0  0  0  0  0  0  0  0  0
  -49.9563   61.1507   65.0487 C   0  0  0  0  0  0  0  0  0  0  0  0
  -51.0915   60.3553   64.4256 C   0  0  0  0  0  0  0  0  0  0  0  0
  -51.1667   60.4513   62.9134 C   0  0  0  0  0  0  0  0  0  0  0  0
  -50.3153   59.4155   62.1981 C   0  0  0  0  0  0  0  0  0  0  0  0
  -51.0030   58.0741   62.0354 C   0  0  0  0  0  0  0  0  0  0  0  0
  -50.4452   57.2550   60.8888 C   0  0  0  0  0  0  0  0  0  0  0  0
  -49.5694   58.0372   59.9290 C   0  0  0  0  0  0  0  0  0  0  0  0
  -48.1420   57.5281   59.8911 C   0  0  0  0  0  0  0  0  0  0  0  0
  -47.9855   56.2421   59.0962 C   0  0  0  0  0  0  0  0  0  0  0  0
  -47.7732   56.4539   57.6073 C   0  0  0  0  0  0  0  0  0  0  0  0
  -47.0872   57.7647   57.2548 C   0  0  0  0  0  0  0  0  0  0  0  0
  -45.6499   57.6013   56.7800 C   0  0  0  0  0  0  0  0  0  0  0  0
  -44.7012   58.6407   57.3549 C   0  0  0  0  0  0  0  0  0  0  0  0
  -42.1873   58.8626   57.4413 C   0  0  0  0  0  0  0  0  0  0  0  0
  -43.4147   58.8196   56.5694 C   0  0  0  0  0  0  0  0  0  0  0  0
 43 45  1  0  0  0
 43 42  1  0  0  0
 43 46  1  0  0  0
 64 65  1  0  0  0
 44 45  2  0  0  0
 65 63  1  0  0  0
  2  1  1  0  0  0
  2  4  1  0  0  0
  2  5  1  0  0  0
  3  4  2  0  0  0
 63 62  1  0  0  0
  6  8  1  0  0  0
  6 11  2  0  0  0
  7 10  1  0  0  0
  7 11  1  0  0  0
 62 61  1  0  0  0
 26 28  1  0  0  0
 26 32  1  0  0  0
 26 29  1  0  0  0
 12 18  1  0  0  0
 12 19  1  0  0  0
 61 60  1  0  0  0
 30 36  1  0  0  0
 30 37  1  0  0  0
 30 38  1  0  0  0
 20 21  2  0  0  0
 60 59  1  0  0  0
 22 21  1  0  0  0
 22 23  1  0  0  0
 59 58  1  0  0  0
 27 28  2  0  0  0
 58 57  1  0  0  0
 31 37  2  0  0  0
 57 56  1  0  0  0
 56 55  1  0  0  0
 55 54  1  0  0  0
 54 53  1  0  0  0
 53 52  1  0  0  0
 52 51  1  0  0  0
 51 50  1  0  0  0
 50 49  1  0  0  0
 49 47  1  0  0  0
 47 48  2  0  0  0
 48 45  1  0  0  0
 42 41  1  0  0  0
 41 40  1  0  0  0
 40 39  1  0  0  0
 39  1  1  0  0  0
  1 21  1  0  0  0
  8  4  1  0  0  0
  8  9  1  0  0  0
  8 10  1  0  0  0
 11 13  1  0  0  0
 13 14  2  0  0  0
 13 18  1  0  0  0
 14 15  1  0  0  0
 15 16  2  0  0  0
 16 17  1  0  0  0
 17 18  2  0  0  0
 23 24  1  0  0  0
 23 25  1  0  0  0
 25 28  1  0  0  0
 32 33  1  0  0  0
 32 37  1  0  0  0
 33 34  1  0  0  0
 34 35  1  0  0  0
 35 36  1  0  0  0
M  END
> <minimizedAffinity>
-8.15033

> <CNNscore>
0.1754837185

> <CNNaffinity>
7.5735945702

> <CNN_VS>
1.3290425539

> <CNNaffinity_variance>
1.1383157969

$$$$
/media/chris/experiments/cd1a-new-docking/inputs/ligands/7ryo_ligand.pdb


 65 67  0  0  0  0  0  0  0  0999 V2000
  -34.7591   59.8757   63.9999 C   0  0  0  0  0  0  0  0  0  0  0  0
  -36.0102   59.7776   63.2668 N   0  0  0  0  0  0  0  0  0  0  0  0
  -35.0673   58.7440   61.5071 O   0  0  0  0  0  0  0  0  0  0  0  0
  -36.0534   59.2082   62.0599 C   0  0  0  0  0  0  0  0  0  0  0  0
  -36.8363   60.1354   63.6653 H   0  0  0  0  0  0  0  0  0  0  0  0
  -38.1787   57.9909   61.7890 N   0  0  0  0  0  0  0  0  0  0  0  0
  -39.5826   59.7346   62.0561 O   0  0  0  0  0  0  0  0  0  0  0  0
  -37.4125   59.1660   61.3421 C   0  0  0  0  0  0  0  0  0  0  0  0
  -37.1736   59.0612   59.8387 C   0  0  0  0  0  0  0  0  0  0  0  0
  -38.3226   60.3529   61.6908 C   0  0  0  0  0  0  0  0  0  0  0  0
  -39.3217   58.4049   62.1519 C   0  0  0  0  0  0  0  0  0  0  0  0
  -41.4920   57.4880   60.4989 O   0  0  0  0  0  0  0  0  0  0  0  0
  -40.4155   57.5792   62.6687 C   0  0  0  0  0  0  0  0  0  0  0  0
  -40.3638   57.0836   63.9722 C   0  0  0  0  0  0  0  0  0  0  0  0
  -41.2576   56.1129   64.3904 C   0  0  0  0  0  0  0  0  0  0  0  0
  -42.2111   55.6228   63.5247 C   0  0  0  0  0  0  0  0  0  0  0  0
  -42.2807   56.0938   62.2263 C   0  0  0  0  0  0  0  0  0  0  0  0
  -41.3897   57.0679   61.7867 C   0  0  0  0  0  0  0  0  0  0  0  0
  -40.9071   58.1429   60.1718 H   0  0  0  0  0  0  0  0  0  0  0  0
  -34.9092   57.5967   64.7902 O   0  0  0  0  0  0  0  0  0  0  0  0
  -34.2335   58.4992   64.3789 C   0  0  0  0  0  0  0  0  0  0  0  0
  -32.9012   58.4397   64.2088 O   0  0  0  0  0  0  0  0  0  0  0  0
  -32.3624   58.7018   62.8707 C   0  0  0  0  0  0  0  0  0  0  0  0
  -31.8968   57.3910   62.2889 C   0  0  0  0  0  0  0  0  0  0  0  0
  -31.2218   59.6799   63.0752 C   0  0  0  0  0  0  0  0  0  0  0  0
  -31.9580   61.9691   63.3202 N   0  0  0  0  0  0  0  0  0  0  0  0
  -31.2977   61.2693   61.2865 O   0  0  0  0  0  0  0  0  0  0  0  0
  -31.4978   61.0411   62.4762 C   0  0  0  0  0  0  0  0  0  0  0  0
  -32.0995   61.7287   64.2644 H   0  0  0  0  0  0  0  0  0  0  0  0
  -31.2735   65.5216   63.2539 N   0  0  0  0  0  0  0  0  0  0  0  0
  -30.9449   63.9262   64.7957 O   0  0  0  0  0  0  0  0  0  0  0  0
  -32.2555   63.3224   62.8846 C   0  0  0  0  0  0  0  0  0  0  0  0
  -33.7472   63.6205   63.0735 C   0  0  0  0  0  0  0  0  0  0  0  0
  -34.2422   64.8058   62.2518 C   0  0  0  0  0  0  0  0  0  0  0  0
  -33.5943   66.1378   62.5735 C   0  0  0  0  0  0  0  0  0  0  0  0
  -32.1120   66.1961   62.2687 C   0  0  0  0  0  0  0  0  0  0  0  0
  -31.4340   64.2843   63.7283 C   0  0  0  0  0  0  0  0  0  0  0  0
  -30.5090   66.0328   63.6057 H   0  0  0  0  0  0  0  0  0  0  0  0
  -34.9081   60.7630   65.2367 C   0  0  0  0  0  0  0  0  0  0  0  0
  -36.2404   61.5045   65.2617 C   0  0  0  0  0  0  0  0  0  0  0  0
  -37.3380   60.7364   65.9743 C   0  0  0  0  0  0  0  0  0  0  0  0
  -38.6626   60.7012   65.2439 C   0  0  0  0  0  0  0  0  0  0  0  0
  -39.6342   59.8930   65.9635 N   0  0  0  0  0  0  0  0  0  0  0  0
  -41.1360   61.5662   66.1600 O   0  0  0  0  0  0  0  0  0  0  0  0
  -40.8078   60.3872   66.3720 C   0  0  0  0  0  0  0  0  0  0  0  0
  -39.4209   58.9514   66.1563 H   0  0  0  0  0  0  0  0  0  0  0  0
  -42.6673   58.7672   66.6746 C   0  0  0  0  0  0  0  0  0  0  0  0
  -41.6307   59.4396   67.1563 C   0  0  0  0  0  0  0  0  0  0  0  0
  -43.2102   58.7953   65.2799 C   0  0  0  0  0  0  0  0  0  0  0  0
  -44.5248   58.0325   65.1708 C   0  0  0  0  0  0  0  0  0  0  0  0
  -45.2095   57.7964   66.5059 C   0  0  0  0  0  0  0  0  0  0  0  0
  -46.5897   58.4252   66.6011 C   0  0  0  0  0  0  0  0  0  0  0  0
  -47.7335   57.4716   66.3109 C   0  0  0  0  0  0  0  0  0  0  0  0
  -48.8675   58.1082   65.5246 C   0  0  0  0  0  0  0  0  0  0  0  0
  -49.3833   59.3944   66.1395 C   0  0  0  0  0  0  0  0  0  0  0  0
  -49.8951   60.3821   65.1103 C   0  0  0  0  0  0  0  0  0  0  0  0
  -51.1776   59.9587   64.4202 C   0  0  0  0  0  0  0  0  0  0  0  0
  -50.9930   59.7246   62.9339 C   0  0  0  0  0  0  0  0  0  0  0  0
  -50.8737   58.2540   62.5692 C   0  0  0  0  0  0  0  0  0  0  0  0
  -49.7545   57.9455   61.5899 C   0  0  0  0  0  0  0  0  0  0  0  0
  -50.1972   57.8803   60.1364 C   0  0  0  0  0  0  0  0  0  0  0  0
  -49.0464   57.8858   59.1396 C   0  0  0  0  0  0  0  0  0  0  0  0
  -47.8307   57.1068   59.6150 C   0  0  0  0  0  0  0  0  0  0  0  0
  -46.7421   58.3855   57.7293 C   0  0  0  0  0  0  0  0  0  0  0  0
  -46.5858   57.3083   58.7704 C   0  0  0  0  0  0  0  0  0  0  0  0
 43 45  1  0  0  0
 43 42  1  0  0  0
 43 46  1  0  0  0
 64 65  1  0  0  0
 44 45  2  0  0  0
 65 63  1  0  0  0
  2  1  1  0  0  0
  2  4  1  0  0  0
  2  5  1  0  0  0
  3  4  2  0  0  0
 63 62  1  0  0  0
  6  8  1  0  0  0
  6 11  2  0  0  0
  7 10  1  0  0  0
  7 11  1  0  0  0
 62 61  1  0  0  0
 26 28  1  0  0  0
 26 32  1  0  0  0
 26 29  1  0  0  0
 12 18  1  0  0  0
 12 19  1  0  0  0
 61 60  1  0  0  0
 30 36  1  0  0  0
 30 37  1  0  0  0
 30 38  1  0  0  0
 20 21  2  0  0  0
 60 59  1  0  0  0
 22 21  1  0  0  0
 22 23  1  0  0  0
 59 58  1  0  0  0
 27 28  2  0  0  0
 58 57  1  0  0  0
 31 37  2  0  0  0
 57 56  1  0  0  0
 56 55  1  0  0  0
 55 54  1  0  0  0
 54 53  1  0  0  0
 53 52  1  0  0  0
 52 51  1  0  0  0
 51 50  1  0  0  0
 50 49  1  0  0  0
 49 47  1  0  0  0
 47 48  2  0  0  0
 48 45  1  0  0  0
 42 41  1  0  0  0
 41 40  1  0  0  0
 40 39  1  0  0  0
 39  1  1  0  0  0
  1 21  1  0  0  0
  8  4  1  0  0  0
  8  9  1  0  0  0
  8 10  1  0  0  0
 11 13  1  0  0  0
 13 14  2  0  0  0
 13 18  1  0  0  0
 14 15  1  0  0  0
 15 16  2  0  0  0
 16 17  1  0  0  0
 17 18  2  0  0  0
 23 24  1  0  0  0
 23 25  1  0  0  0
 25 28  1  0  0  0
 32 33  1  0  0  0
 32 37  1  0  0  0
 33 34  1  0  0  0
 34 35  1  0  0  0
 35 36  1  0  0  0
M  END
> <minimizedAffinity>
-9.69168

> <CNNscore>
0.1673204303

> <CNNaffinity>
7.4951047897

> <CNN_VS>
1.2540841103

> <CNNaffinity_variance>
1.5685253143

$$$$
/media/chris/experiments/cd1a-new-docking/inputs/ligands/7ryo_ligand.pdb


 65 67  0  0  0  0  0  0  0  0999 V2000
  -39.1326   60.6092   64.2856 C   0  0  0  0  0  0  0  0  0  0  0  0
  -38.4571   59.6144   63.4692 N   0  0  0  0  0  0  0  0  0  0  0  0
  -37.5826   61.1425   62.0714 O   0  0  0  0  0  0  0  0  0  0  0  0
  -37.7268   59.9778   62.4123 C   0  0  0  0  0  0  0  0  0  0  0  0
  -38.5392   58.6605   63.6986 H   0  0  0  0  0  0  0  0  0  0  0  0
  -35.6142   59.0987   61.4979 N   0  0  0  0  0  0  0  0  0  0  0  0
  -35.8101   56.9738   62.2255 O   0  0  0  0  0  0  0  0  0  0  0  0
  -37.0644   58.8614   61.5882 C   0  0  0  0  0  0  0  0  0  0  0  0
  -37.6575   58.8675   60.1824 C   0  0  0  0  0  0  0  0  0  0  0  0
  -37.1704   57.4763   62.2430 C   0  0  0  0  0  0  0  0  0  0  0  0
  -35.0363   58.0298   61.8626 C   0  0  0  0  0  0  0  0  0  0  0  0
  -33.2227   59.9425   63.0184 O   0  0  0  0  0  0  0  0  0  0  0  0
  -33.5898   57.8089   61.9284 C   0  0  0  0  0  0  0  0  0  0  0  0
  -33.0514   56.5774   61.5532 C   0  0  0  0  0  0  0  0  0  0  0  0
  -31.7314   56.2722   61.8373 C   0  0  0  0  0  0  0  0  0  0  0  0
  -30.9310   57.1810   62.4946 C   0  0  0  0  0  0  0  0  0  0  0  0
  -31.4415   58.4068   62.8814 C   0  0  0  0  0  0  0  0  0  0  0  0
  -32.7665   58.7310   62.6066 C   0  0  0  0  0  0  0  0  0  0  0  0
  -34.1100   60.1913   62.8489 H   0  0  0  0  0  0  0  0  0  0  0  0
  -39.8853   60.4505   66.5767 O   0  0  0  0  0  0  0  0  0  0  0  0
  -39.0177   60.2770   65.7658 C   0  0  0  0  0  0  0  0  0  0  0  0
  -37.7999   59.7806   66.0447 O   0  0  0  0  0  0  0  0  0  0  0  0
  -36.6312   60.4478   65.4627 C   0  0  0  0  0  0  0  0  0  0  0  0
  -35.5583   59.4100   65.2492 C   0  0  0  0  0  0  0  0  0  0  0  0
  -36.2205   61.5033   66.4711 C   0  0  0  0  0  0  0  0  0  0  0  0
  -34.6376   62.4088   64.8848 N   0  0  0  0  0  0  0  0  0  0  0  0
  -34.0527   62.3338   67.0560 O   0  0  0  0  0  0  0  0  0  0  0  0
  -34.8713   62.1156   66.1672 C   0  0  0  0  0  0  0  0  0  0  0  0
  -35.3314   62.2112   64.2149 H   0  0  0  0  0  0  0  0  0  0  0  0
  -32.0729   64.9512   65.1138 N   0  0  0  0  0  0  0  0  0  0  0  0
  -34.2775   64.9568   65.5266 O   0  0  0  0  0  0  0  0  0  0  0  0
  -33.3889   63.0106   64.4506 C   0  0  0  0  0  0  0  0  0  0  0  0
  -33.3686   63.1378   62.9232 C   0  0  0  0  0  0  0  0  0  0  0  0
  -31.9703   63.3238   62.3441 C   0  0  0  0  0  0  0  0  0  0  0  0
  -31.2411   64.5752   62.7910 C   0  0  0  0  0  0  0  0  0  0  0  0
  -30.9292   64.6157   64.2723 C   0  0  0  0  0  0  0  0  0  0  0  0
  -33.2845   64.3921   65.0772 C   0  0  0  0  0  0  0  0  0  0  0  0
  -31.9367   65.6648   65.7783 H   0  0  0  0  0  0  0  0  0  0  0  0
  -40.5970   60.7650   63.8728 C   0  0  0  0  0  0  0  0  0  0  0  0
  -40.7689   60.8359   62.3593 C   0  0  0  0  0  0  0  0  0  0  0  0
  -41.6358   59.7212   61.8039 C   0  0  0  0  0  0  0  0  0  0  0  0
  -41.0730   58.3291   61.9901 C   0  0  0  0  0  0  0  0  0  0  0  0
  -41.9514   57.5172   62.8172 N   0  0  0  0  0  0  0  0  0  0  0  0
  -40.4948   57.3867   64.5362 O   0  0  0  0  0  0  0  0  0  0  0  0
  -41.5964   57.1023   64.0381 C   0  0  0  0  0  0  0  0  0  0  0  0
  -42.8363   57.2648   62.4671 H   0  0  0  0  0  0  0  0  0  0  0  0
  -43.5413   56.6433   65.5145 C   0  0  0  0  0  0  0  0  0  0  0  0
  -42.5867   56.2213   64.6965 C   0  0  0  0  0  0  0  0  0  0  0  0
  -43.8379   58.0509   65.9286 C   0  0  0  0  0  0  0  0  0  0  0  0
  -45.2597   58.1957   66.4572 C   0  0  0  0  0  0  0  0  0  0  0  0
  -46.3142   57.5707   65.5604 C   0  0  0  0  0  0  0  0  0  0  0  0
  -47.1878   58.5896   64.8476 C   0  0  0  0  0  0  0  0  0  0  0  0
  -47.9362   59.5296   65.7739 C   0  0  0  0  0  0  0  0  0  0  0  0
  -49.4335   59.5679   65.5166 C   0  0  0  0  0  0  0  0  0  0  0  0
  -49.8394   60.5669   64.4508 C   0  0  0  0  0  0  0  0  0  0  0  0
  -51.1115   60.1778   63.7247 C   0  0  0  0  0  0  0  0  0  0  0  0
  -51.1627   58.7271   63.2856 C   0  0  0  0  0  0  0  0  0  0  0  0
  -50.1448   58.4046   62.2095 C   0  0  0  0  0  0  0  0  0  0  0  0
  -50.7294   57.6173   61.0483 C   0  0  0  0  0  0  0  0  0  0  0  0
  -49.9799   56.3362   60.7262 C   0  0  0  0  0  0  0  0  0  0  0  0
  -48.7610   56.5326   59.8381 C   0  0  0  0  0  0  0  0  0  0  0  0
  -48.9690   57.5434   58.7188 C   0  0  0  0  0  0  0  0  0  0  0  0
  -47.8654   57.5239   57.6735 C   0  0  0  0  0  0  0  0  0  0  0  0
  -45.5102   58.2708   57.1527 C   0  0  0  0  0  0  0  0  0  0  0  0
  -46.4809   57.8286   58.2160 C   0  0  0  0  0  0  0  0  0  0  0  0
 43 45  1  0  0  0
 43 42  1  0  0  0
 43 46  1  0  0  0
 64 65  1  0  0  0
 44 45  2  0  0  0
 65 63  1  0  0  0
  2  1  1  0  0  0
  2  4  1  0  0  0
  2  5  1  0  0  0
  3  4  2  0  0  0
 63 62  1  0  0  0
  6  8  1  0  0  0
  6 11  2  0  0  0
  7 10  1  0  0  0
  7 11  1  0  0  0
 62 61  1  0  0  0
 26 28  1  0  0  0
 26 32  1  0  0  0
 26 29  1  0  0  0
 12 18  1  0  0  0
 12 19  1  0  0  0
 61 60  1  0  0  0
 30 36  1  0  0  0
 30 37  1  0  0  0
 30 38  1  0  0  0
 20 21  2  0  0  0
 60 59  1  0  0  0
 22 21  1  0  0  0
 22 23  1  0  0  0
 59 58  1  0  0  0
 27 28  2  0  0  0
 58 57  1  0  0  0
 31 37  2  0  0  0
 57 56  1  0  0  0
 56 55  1  0  0  0
 55 54  1  0  0  0
 54 53  1  0  0  0
 53 52  1  0  0  0
 52 51  1  0  0  0
 51 50  1  0  0  0
 50 49  1  0  0  0
 49 47  1  0  0  0
 47 48  2  0  0  0
 48 45  1  0  0  0
 42 41  1  0  0  0
 41 40  1  0  0  0
 40 39  1  0  0  0
 39  1  1  0  0  0
  1 21  1  0  0  0
  8  4  1  0  0  0
  8  9  1  0  0  0
  8 10  1  0  0  0
 11 13  1  0  0  0
 13 14  2  0  0  0
 13 18  1  0  0  0
 14 15  1  0  0  0
 15 16  2  0  0  0
 16 17  1  0  0  0
 17 18  2  0  0  0
 23 24  1  0  0  0
 23 25  1  0  0  0
 25 28  1  0  0  0
 32 33  1  0  0  0
 32 37  1  0  0  0
 33 34  1  0  0  0
 34 35  1  0  0  0
 35 36  1  0  0  0
M  END
> <minimizedAffinity>
-9.16576

> <CNNscore>
0.1529281735

> <CNNaffinity>
7.5158996582

> <CNN_VS>
1.1493928432

> <CNNaffinity_variance>
0.7277750969

$$$$
/media/chris/experiments/cd1a-new-docking/inputs/ligands/7ryo_ligand.pdb


 65 67  0  0  0  0  0  0  0  0999 V2000
  -34.3797   57.9734   64.1407 C   0  0  0  0  0  0  0  0  0  0  0  0
  -35.3900   58.8586   63.5857 N   0  0  0  0  0  0  0  0  0  0  0  0
  -34.9368   60.5206   65.0299 O   0  0  0  0  0  0  0  0  0  0  0  0
  -35.5824   60.0794   64.0908 C   0  0  0  0  0  0  0  0  0  0  0  0
  -35.9394   58.5540   62.8277 H   0  0  0  0  0  0  0  0  0  0  0  0
  -37.0791   60.3830   62.1570 N   0  0  0  0  0  0  0  0  0  0  0  0
  -39.0144   60.6328   63.2863 O   0  0  0  0  0  0  0  0  0  0  0  0
  -36.6873   60.9434   63.4608 C   0  0  0  0  0  0  0  0  0  0  0  0
  -36.1507   62.3566   63.2533 C   0  0  0  0  0  0  0  0  0  0  0  0
  -37.9938   60.9452   64.2681 C   0  0  0  0  0  0  0  0  0  0  0  0
  -38.3411   60.2539   62.1688 C   0  0  0  0  0  0  0  0  0  0  0  0
  -38.8351   57.4430   61.7969 O   0  0  0  0  0  0  0  0  0  0  0  0
  -39.1666   59.7335   61.0765 C   0  0  0  0  0  0  0  0  0  0  0  0
  -39.8689   60.6111   60.2495 C   0  0  0  0  0  0  0  0  0  0  0  0
  -40.8342   60.1351   59.3790 C   0  0  0  0  0  0  0  0  0  0  0  0
  -41.1145   58.7874   59.3173 C   0  0  0  0  0  0  0  0  0  0  0  0
  -40.4361   57.8971   60.1295 C   0  0  0  0  0  0  0  0  0  0  0  0
  -39.4638   58.3566   61.0124 C   0  0  0  0  0  0  0  0  0  0  0  0
  -38.1754   57.7199   62.4020 H   0  0  0  0  0  0  0  0  0  0  0  0
  -33.8781   56.5098   62.2840 O   0  0  0  0  0  0  0  0  0  0  0  0
  -33.5177   57.3657   63.0443 C   0  0  0  0  0  0  0  0  0  0  0  0
  -32.2868   57.9061   63.0579 O   0  0  0  0  0  0  0  0  0  0  0  0
  -31.7597   58.4573   61.8057 C   0  0  0  0  0  0  0  0  0  0  0  0
  -30.9279   57.3910   61.1388 C   0  0  0  0  0  0  0  0  0  0  0  0
  -30.9353   59.6650   62.2073 C   0  0  0  0  0  0  0  0  0  0  0  0
  -31.1177   61.9619   62.9377 N   0  0  0  0  0  0  0  0  0  0  0  0
  -33.0072   60.8366   62.4632 O   0  0  0  0  0  0  0  0  0  0  0  0
  -31.7830   60.8700   62.5499 C   0  0  0  0  0  0  0  0  0  0  0  0
  -30.1350   61.9302   62.9886 H   0  0  0  0  0  0  0  0  0  0  0  0
  -32.8592   65.0055   62.0451 N   0  0  0  0  0  0  0  0  0  0  0  0
  -31.2532   63.8071   61.0375 O   0  0  0  0  0  0  0  0  0  0  0  0
  -31.8028   63.1942   63.2864 C   0  0  0  0  0  0  0  0  0  0  0  0
  -30.9893   63.9731   64.3261 C   0  0  0  0  0  0  0  0  0  0  0  0
  -31.8034   65.0186   65.0808 C   0  0  0  0  0  0  0  0  0  0  0  0
  -32.3960   66.1228   64.2282 C   0  0  0  0  0  0  0  0  0  0  0  0
  -33.4270   65.6472   63.2261 C   0  0  0  0  0  0  0  0  0  0  0  0
  -31.9482   64.0302   62.0245 C   0  0  0  0  0  0  0  0  0  0  0  0
  -33.1820   65.3256   61.1717 H   0  0  0  0  0  0  0  0  0  0  0  0
  -35.0120   56.8824   65.0062 C   0  0  0  0  0  0  0  0  0  0  0  0
  -36.3052   57.3443   65.6692 C   0  0  0  0  0  0  0  0  0  0  0  0
  -37.5140   57.2391   64.7580 C   0  0  0  0  0  0  0  0  0  0  0  0
  -38.7626   57.9140   65.2825 C   0  0  0  0  0  0  0  0  0  0  0  0
  -39.9161   57.5911   64.4578 N   0  0  0  0  0  0  0  0  0  0  0  0
  -41.2376   59.1662   65.3885 O   0  0  0  0  0  0  0  0  0  0  0  0
  -41.0773   58.2447   64.5713 C   0  0  0  0  0  0  0  0  0  0  0  0
  -39.8397   56.8678   63.7943 H   0  0  0  0  0  0  0  0  0  0  0  0
  -43.4123   57.5399   64.0975 C   0  0  0  0  0  0  0  0  0  0  0  0
  -42.1590   57.7247   63.7054 C   0  0  0  0  0  0  0  0  0  0  0  0
  -44.0025   57.8209   65.4441 C   0  0  0  0  0  0  0  0  0  0  0  0
  -45.4318   58.3380   65.3368 C   0  0  0  0  0  0  0  0  0  0  0  0
  -46.4111   57.6297   66.2567 C   0  0  0  0  0  0  0  0  0  0  0  0
  -47.6785   57.1683   65.5564 C   0  0  0  0  0  0  0  0  0  0  0  0
  -48.9494   57.8188   66.0696 C   0  0  0  0  0  0  0  0  0  0  0  0
  -49.0110   59.3149   65.8101 C   0  0  0  0  0  0  0  0  0  0  0  0
  -50.3973   59.9032   65.9853 C   0  0  0  0  0  0  0  0  0  0  0  0
  -51.0203   60.3563   64.6802 C   0  0  0  0  0  0  0  0  0  0  0  0
  -51.0847   59.2823   63.6114 C   0  0  0  0  0  0  0  0  0  0  0  0
  -50.2066   59.5929   62.4153 C   0  0  0  0  0  0  0  0  0  0  0  0
  -50.2571   58.5199   61.3401 C   0  0  0  0  0  0  0  0  0  0  0  0
  -49.3156   58.7643   60.1736 C   0  0  0  0  0  0  0  0  0  0  0  0
  -49.1276   57.5625   59.2608 C   0  0  0  0  0  0  0  0  0  0  0  0
  -47.6812   57.1050   59.1323 C   0  0  0  0  0  0  0  0  0  0  0  0
  -46.8735   57.9249   58.1392 C   0  0  0  0  0  0  0  0  0  0  0  0
  -46.9885   55.7661   56.8345 C   0  0  0  0  0  0  0  0  0  0  0  0
  -46.5858   57.2174   56.8275 C   0  0  0  0  0  0  0  0  0  0  0  0
 43 45  1  0  0  0
 43 42  1  0  0  0
 43 46  1  0  0  0
 64 65  1  0  0  0
 44 45  2  0  0  0
 65 63  1  0  0  0
  2  1  1  0  0  0
  2  4  1  0  0  0
  2  5  1  0  0  0
  3  4  2  0  0  0
 63 62  1  0  0  0
  6  8  1  0  0  0
  6 11  2  0  0  0
  7 10  1  0  0  0
  7 11  1  0  0  0
 62 61  1  0  0  0
 26 28  1  0  0  0
 26 32  1  0  0  0
 26 29  1  0  0  0
 12 18  1  0  0  0
 12 19  1  0  0  0
 61 60  1  0  0  0
 30 36  1  0  0  0
 30 37  1  0  0  0
 30 38  1  0  0  0
 20 21  2  0  0  0
 60 59  1  0  0  0
 22 21  1  0  0  0
 22 23  1  0  0  0
 59 58  1  0  0  0
 27 28  2  0  0  0
 58 57  1  0  0  0
 31 37  2  0  0  0
 57 56  1  0  0  0
 56 55  1  0  0  0
 55 54  1  0  0  0
 54 53  1  0  0  0
 53 52  1  0  0  0
 52 51  1  0  0  0
 51 50  1  0  0  0
 50 49  1  0  0  0
 49 47  1  0  0  0
 47 48  2  0  0  0
 48 45  1  0  0  0
 42 41  1  0  0  0
 41 40  1  0  0  0
 40 39  1  0  0  0
 39  1  1  0  0  0
  1 21  1  0  0  0
  8  4  1  0  0  0
  8  9  1  0  0  0
  8 10  1  0  0  0
 11 13  1  0  0  0
 13 14  2  0  0  0
 13 18  1  0  0  0
 14 15  1  0  0  0
 15 16  2  0  0  0
 16 17  1  0  0  0
 17 18  2  0  0  0
 23 24  1  0  0  0
 23 25  1  0  0  0
 25 28  1  0  0  0
 32 33  1  0  0  0
 32 37  1  0  0  0
 33 34  1  0  0  0
 34 35  1  0  0  0
 35 36  1  0  0  0
M  END
> <minimizedAffinity>
-8.32815

> <CNNscore>
0.1524262279

> <CNNaffinity>
7.3018851280

> <CNN_VS>
1.1129988432

> <CNNaffinity_variance>
0.5108478665

$$$$
/media/chris/experiments/cd1a-new-docking/inputs/ligands/7ryo_ligand.pdb


 65 67  0  0  0  0  0  0  0  0999 V2000
  -37.5809   58.7343   61.2194 C   0  0  0  0  0  0  0  0  0  0  0  0
  -37.7462   59.2645   62.5624 N   0  0  0  0  0  0  0  0  0  0  0  0
  -38.5227   57.3242   63.3905 O   0  0  0  0  0  0  0  0  0  0  0  0
  -38.2124   58.4955   63.5493 C   0  0  0  0  0  0  0  0  0  0  0  0
  -37.5114   60.2026   62.7468 H   0  0  0  0  0  0  0  0  0  0  0  0
  -37.0737   59.6059   65.4313 N   0  0  0  0  0  0  0  0  0  0  0  0
  -38.4366   61.3918   65.6213 O   0  0  0  0  0  0  0  0  0  0  0  0
  -38.3793   59.1405   64.9350 C   0  0  0  0  0  0  0  0  0  0  0  0
  -38.9354   58.0984   65.9008 C   0  0  0  0  0  0  0  0  0  0  0  0
  -39.2398   60.4124   64.9151 C   0  0  0  0  0  0  0  0  0  0  0  0
  -37.2129   60.8207   65.7694 C   0  0  0  0  0  0  0  0  0  0  0  0
  -34.4392   60.0572   65.8551 O   0  0  0  0  0  0  0  0  0  0  0  0
  -36.1701   61.6888   66.3212 C   0  0  0  0  0  0  0  0  0  0  0  0
  -36.4752   62.9966   66.7004 C   0  0  0  0  0  0  0  0  0  0  0  0
  -35.4651   63.8976   66.9902 C   0  0  0  0  0  0  0  0  0  0  0  0
  -34.1440   63.5149   66.9083 C   0  0  0  0  0  0  0  0  0  0  0  0
  -33.8145   62.2259   66.5303 C   0  0  0  0  0  0  0  0  0  0  0  0
  -34.8157   61.3065   66.2331 C   0  0  0  0  0  0  0  0  0  0  0  0
  -35.0890   59.4146   65.6481 H   0  0  0  0  0  0  0  0  0  0  0  0
  -35.6398   58.7147   59.7796 O   0  0  0  0  0  0  0  0  0  0  0  0
  -36.1097   58.5607   60.8732 C   0  0  0  0  0  0  0  0  0  0  0  0
  -35.4100   58.1896   61.9595 O   0  0  0  0  0  0  0  0  0  0  0  0
  -33.9461   58.2065   61.8783 C   0  0  0  0  0  0  0  0  0  0  0  0
  -33.4720   56.7881   61.6862 C   0  0  0  0  0  0  0  0  0  0  0  0
  -33.4721   58.8007   63.1904 C   0  0  0  0  0  0  0  0  0  0  0  0
  -33.3146   61.2124   63.1614 N   0  0  0  0  0  0  0  0  0  0  0  0
  -31.4579   60.0137   62.7402 O   0  0  0  0  0  0  0  0  0  0  0  0
  -32.6556   60.0605   63.0063 C   0  0  0  0  0  0  0  0  0  0  0  0
  -34.2755   61.1887   63.3745 H   0  0  0  0  0  0  0  0  0  0  0  0
  -33.2538   64.8166   63.4773 N   0  0  0  0  0  0  0  0  0  0  0  0
  -34.8952   63.3405   63.0801 O   0  0  0  0  0  0  0  0  0  0  0  0
  -32.6540   62.4987   63.0244 C   0  0  0  0  0  0  0  0  0  0  0  0
  -32.0133   62.6166   61.6369 C   0  0  0  0  0  0  0  0  0  0  0  0
  -30.9393   63.6956   61.5495 C   0  0  0  0  0  0  0  0  0  0  0  0
  -31.4134   65.1101   61.8173 C   0  0  0  0  0  0  0  0  0  0  0  0
  -31.9148   65.3396   63.2278 C   0  0  0  0  0  0  0  0  0  0  0  0
  -33.6989   63.5899   63.1963 C   0  0  0  0  0  0  0  0  0  0  0  0
  -33.8965   65.4332   63.8971 H   0  0  0  0  0  0  0  0  0  0  0  0
  -38.2855   59.6130   60.1847 C   0  0  0  0  0  0  0  0  0  0  0  0
  -39.7828   59.7320   60.4475 C   0  0  0  0  0  0  0  0  0  0  0  0
  -40.5878   58.5990   59.8384 C   0  0  0  0  0  0  0  0  0  0  0  0
  -41.0901   57.5741   60.8317 C   0  0  0  0  0  0  0  0  0  0  0  0
  -41.3911   58.1927   62.1130 N   0  0  0  0  0  0  0  0  0  0  0  0
  -42.1073   56.2754   63.0641 O   0  0  0  0  0  0  0  0  0  0  0  0
  -41.8810   57.4941   63.1428 C   0  0  0  0  0  0  0  0  0  0  0  0
  -41.2290   59.1572   62.2259 H   0  0  0  0  0  0  0  0  0  0  0  0
  -43.3551   58.2709   64.9859 C   0  0  0  0  0  0  0  0  0  0  0  0
  -42.1988   58.3076   64.3376 C   0  0  0  0  0  0  0  0  0  0  0  0
  -44.5491   57.4202   64.6836 C   0  0  0  0  0  0  0  0  0  0  0  0
  -45.7036   57.7100   65.6350 C   0  0  0  0  0  0  0  0  0  0  0  0
  -46.9346   58.2786   64.9505 C   0  0  0  0  0  0  0  0  0  0  0  0
  -48.2136   58.0974   65.7509 C   0  0  0  0  0  0  0  0  0  0  0  0
  -48.8916   59.3948   66.1495 C   0  0  0  0  0  0  0  0  0  0  0  0
  -49.1333   60.3354   64.9806 C   0  0  0  0  0  0  0  0  0  0  0  0
  -50.5989   60.6439   64.7447 C   0  0  0  0  0  0  0  0  0  0  0  0
  -51.1111   60.1187   63.4185 C   0  0  0  0  0  0  0  0  0  0  0  0
  -50.9868   58.6166   63.2502 C   0  0  0  0  0  0  0  0  0  0  0  0
  -50.0169   58.2287   62.1516 C   0  0  0  0  0  0  0  0  0  0  0  0
  -50.6906   57.5526   60.9688 C   0  0  0  0  0  0  0  0  0  0  0  0
  -49.9786   57.7639   59.6440 C   0  0  0  0  0  0  0  0  0  0  0  0
  -48.4838   57.4869   59.6875 C   0  0  0  0  0  0  0  0  0  0  0  0
  -47.6600   58.4012   58.7912 C   0  0  0  0  0  0  0  0  0  0  0  0
  -46.6116   57.6630   57.9746 C   0  0  0  0  0  0  0  0  0  0  0  0
  -47.2032   55.5032   56.8080 C   0  0  0  0  0  0  0  0  0  0  0  0
  -47.1449   57.0053   56.7149 C   0  0  0  0  0  0  0  0  0  0  0  0
 43 45  1  0  0  0
 43 42  1  0  0  0
 43 46  1  0  0  0
 64 65  1  0  0  0
 44 45  2  0  0  0
 65 63  1  0  0  0
  2  1  1  0  0  0
  2  4  1  0  0  0
  2  5  1  0  0  0
  3  4  2  0  0  0
 63 62  1  0  0  0
  6  8  1  0  0  0
  6 11  2  0  0  0
  7 10  1  0  0  0
  7 11  1  0  0  0
 62 61  1  0  0  0
 26 28  1  0  0  0
 26 32  1  0  0  0
 26 29  1  0  0  0
 12 18  1  0  0  0
 12 19  1  0  0  0
 61 60  1  0  0  0
 30 36  1  0  0  0
 30 37  1  0  0  0
 30 38  1  0  0  0
 20 21  2  0  0  0
 60 59  1  0  0  0
 22 21  1  0  0  0
 22 23  1  0  0  0
 59 58  1  0  0  0
 27 28  2  0  0  0
 58 57  1  0  0  0
 31 37  2  0  0  0
 57 56  1  0  0  0
 56 55  1  0  0  0
 55 54  1  0  0  0
 54 53  1  0  0  0
 53 52  1  0  0  0
 52 51  1  0  0  0
 51 50  1  0  0  0
 50 49  1  0  0  0
 49 47  1  0  0  0
 47 48  2  0  0  0
 48 45  1  0  0  0
 42 41  1  0  0  0
 41 40  1  0  0  0
 40 39  1  0  0  0
 39  1  1  0  0  0
  1 21  1  0  0  0
  8  4  1  0  0  0
  8  9  1  0  0  0
  8 10  1  0  0  0
 11 13  1  0  0  0
 13 14  2  0  0  0
 13 18  1  0  0  0
 14 15  1  0  0  0
 15 16  2  0  0  0
 16 17  1  0  0  0
 17 18  2  0  0  0
 23 24  1  0  0  0
 23 25  1  0  0  0
 25 28  1  0  0  0
 32 33  1  0  0  0
 32 37  1  0  0  0
 33 34  1  0  0  0
 34 35  1  0  0  0
 35 36  1  0  0  0
M  END
> <minimizedAffinity>
-9.31457

> <CNNscore>
0.1476858705

> <CNNaffinity>
7.4165925980

> <CNN_VS>
1.0953259468

> <CNNaffinity_variance>
0.8437454104

$$$$
/media/chris/experiments/cd1a-new-docking/inputs/ligands/7ryo_ligand.pdb


 65 67  0  0  0  0  0  0  0  0999 V2000
  -38.5310   57.4070   64.3818 C   0  0  0  0  0  0  0  0  0  0  0  0
  -37.5061   58.0695   63.5927 N   0  0  0  0  0  0  0  0  0  0  0  0
  -35.8133   57.1615   64.7605 O   0  0  0  0  0  0  0  0  0  0  0  0
  -36.2109   57.8836   63.8583 C   0  0  0  0  0  0  0  0  0  0  0  0
  -37.7702   58.6629   62.8528 H   0  0  0  0  0  0  0  0  0  0  0  0
  -35.3987   60.0915   63.1252 N   0  0  0  0  0  0  0  0  0  0  0  0
  -33.2043   59.7782   63.5370 O   0  0  0  0  0  0  0  0  0  0  0  0
  -35.1915   58.6401   62.9907 C   0  0  0  0  0  0  0  0  0  0  0  0
  -35.3935   58.2423   61.5316 C   0  0  0  0  0  0  0  0  0  0  0  0
  -33.7373   58.4330   63.4394 C   0  0  0  0  0  0  0  0  0  0  0  0
  -34.2766   60.6042   63.4208 C   0  0  0  0  0  0  0  0  0  0  0  0
  -36.1923   62.3689   64.6453 O   0  0  0  0  0  0  0  0  0  0  0  0
  -34.0097   62.0264   63.6484 C   0  0  0  0  0  0  0  0  0  0  0  0
  -32.7393   62.5489   63.4027 C   0  0  0  0  0  0  0  0  0  0  0  0
  -32.4062   63.8197   63.8388 C   0  0  0  0  0  0  0  0  0  0  0  0
  -33.3253   64.5863   64.5216 C   0  0  0  0  0  0  0  0  0  0  0  0
  -34.5897   64.0901   64.7821 C   0  0  0  0  0  0  0  0  0  0  0  0
  -34.9425   62.8142   64.3536 C   0  0  0  0  0  0  0  0  0  0  0  0
  -36.4611   61.5142   64.3709 H   0  0  0  0  0  0  0  0  0  0  0  0
  -39.7948   56.6716   62.4574 O   0  0  0  0  0  0  0  0  0  0  0  0
  -39.7837   57.1538   63.5564 C   0  0  0  0  0  0  0  0  0  0  0  0
  -40.8776   57.5651   64.2209 O   0  0  0  0  0  0  0  0  0  0  0  0
  -41.9612   56.6004   64.4333 C   0  0  0  0  0  0  0  0  0  0  0  0
  -42.8827   56.6623   63.2414 C   0  0  0  0  0  0  0  0  0  0  0  0
  -42.6460   57.0328   65.7153 C   0  0  0  0  0  0  0  0  0  0  0  0
  -45.0272   57.1956   66.0972 N   0  0  0  0  0  0  0  0  0  0  0  0
  -44.0533   58.7122   64.7507 O   0  0  0  0  0  0  0  0  0  0  0  0
  -43.9701   57.7226   65.4727 C   0  0  0  0  0  0  0  0  0  0  0  0
  -44.9004   56.4007   66.6641 H   0  0  0  0  0  0  0  0  0  0  0  0
  -47.6064   59.5427   67.0627 N   0  0  0  0  0  0  0  0  0  0  0  0
  -45.9441   58.5434   68.1892 O   0  0  0  0  0  0  0  0  0  0  0  0
  -46.3580   57.7619   65.9637 C   0  0  0  0  0  0  0  0  0  0  0  0
  -47.4043   56.6427   65.9161 C   0  0  0  0  0  0  0  0  0  0  0  0
  -48.7437   57.0828   65.3350 C   0  0  0  0  0  0  0  0  0  0  0  0
  -49.4606   58.1745   66.1042 C   0  0  0  0  0  0  0  0  0  0  0  0
  -48.7272   59.4992   66.1296 C   0  0  0  0  0  0  0  0  0  0  0  0
  -46.6191   58.6508   67.1695 C   0  0  0  0  0  0  0  0  0  0  0  0
  -47.5751   60.3105   67.6783 H   0  0  0  0  0  0  0  0  0  0  0  0
  -38.8610   58.2036   65.6450 C   0  0  0  0  0  0  0  0  0  0  0  0
  -38.6573   59.7029   65.4553 C   0  0  0  0  0  0  0  0  0  0  0  0
  -39.5203   60.5441   66.3773 C   0  0  0  0  0  0  0  0  0  0  0  0
  -41.0104   60.3892   66.1656 C   0  0  0  0  0  0  0  0  0  0  0  0
  -41.3383   60.3806   64.7488 N   0  0  0  0  0  0  0  0  0  0  0  0
  -41.7188   62.6029   64.6481 O   0  0  0  0  0  0  0  0  0  0  0  0
  -41.6708   61.4951   64.0886 C   0  0  0  0  0  0  0  0  0  0  0  0
  -41.3147   59.5265   64.2597 H   0  0  0  0  0  0  0  0  0  0  0  0
  -41.2258   60.8240   61.7381 C   0  0  0  0  0  0  0  0  0  0  0  0
  -42.0480   61.2785   62.6740 C   0  0  0  0  0  0  0  0  0  0  0  0
  -39.7918   60.4235   61.8933 C   0  0  0  0  0  0  0  0  0  0  0  0
  -39.3011   59.6104   60.7017 C   0  0  0  0  0  0  0  0  0  0  0  0
  -40.3437   58.6626   60.1346 C   0  0  0  0  0  0  0  0  0  0  0  0
  -40.6626   58.9149   58.6704 C   0  0  0  0  0  0  0  0  0  0  0  0
  -42.0913   58.5911   58.2760 C   0  0  0  0  0  0  0  0  0  0  0  0
  -42.4562   59.0664   56.8795 C   0  0  0  0  0  0  0  0  0  0  0  0
  -43.9117   58.8365   56.5226 C   0  0  0  0  0  0  0  0  0  0  0  0
  -44.6910   58.1425   57.6217 C   0  0  0  0  0  0  0  0  0  0  0  0
  -46.1554   57.9124   57.3011 C   0  0  0  0  0  0  0  0  0  0  0  0
  -47.0760   58.3458   58.4247 C   0  0  0  0  0  0  0  0  0  0  0  0
  -47.7463   57.1802   59.1334 C   0  0  0  0  0  0  0  0  0  0  0  0
  -49.2494   57.3301   59.2911 C   0  0  0  0  0  0  0  0  0  0  0  0
  -49.8003   56.7641   60.5907 C   0  0  0  0  0  0  0  0  0  0  0  0
  -50.9959   57.5301   61.1401 C   0  0  0  0  0  0  0  0  0  0  0  0
  -50.7055   58.2468   62.4489 C   0  0  0  0  0  0  0  0  0  0  0  0
  -49.5960   60.2412   61.3686 C   0  0  0  0  0  0  0  0  0  0  0  0
  -49.4924   59.1583   62.4102 C   0  0  0  0  0  0  0  0  0  0  0  0
 43 45  1  0  0  0
 43 42  1  0  0  0
 43 46  1  0  0  0
 64 65  1  0  0  0
 44 45  2  0  0  0
 65 63  1  0  0  0
  2  1  1  0  0  0
  2  4  1  0  0  0
  2  5  1  0  0  0
  3  4  2  0  0  0
 63 62  1  0  0  0
  6  8  1  0  0  0
  6 11  2  0  0  0
  7 10  1  0  0  0
  7 11  1  0  0  0
 62 61  1  0  0  0
 26 28  1  0  0  0
 26 32  1  0  0  0
 26 29  1  0  0  0
 12 18  1  0  0  0
 12 19  1  0  0  0
 61 60  1  0  0  0
 30 36  1  0  0  0
 30 37  1  0  0  0
 30 38  1  0  0  0
 20 21  2  0  0  0
 60 59  1  0  0  0
 22 21  1  0  0  0
 22 23  1  0  0  0
 59 58  1  0  0  0
 27 28  2  0  0  0
 58 57  1  0  0  0
 31 37  2  0  0  0
 57 56  1  0  0  0
 56 55  1  0  0  0
 55 54  1  0  0  0
 54 53  1  0  0  0
 53 52  1  0  0  0
 52 51  1  0  0  0
 51 50  1  0  0  0
 50 49  1  0  0  0
 49 47  1  0  0  0
 47 48  2  0  0  0
 48 45  1  0  0  0
 42 41  1  0  0  0
 41 40  1  0  0  0
 40 39  1  0  0  0
 39  1  1  0  0  0
  1 21  1  0  0  0
  8  4  1  0  0  0
  8  9  1  0  0  0
  8 10  1  0  0  0
 11 13  1  0  0  0
 13 14  2  0  0  0
 13 18  1  0  0  0
 14 15  1  0  0  0
 15 16  2  0  0  0
 16 17  1  0  0  0
 17 18  2  0  0  0
 23 24  1  0  0  0
 23 25  1  0  0  0
 25 28  1  0  0  0
 32 33  1  0  0  0
 32 37  1  0  0  0
 33 34  1  0  0  0
 34 35  1  0  0  0
 35 36  1  0  0  0
M  END
> <minimizedAffinity>
-8.45323

> <CNNscore>
0.1419735849

> <CNNaffinity>
7.7407999039

> <CNN_VS>
1.0989891291

> <CNNaffinity_variance>
2.0695447922

$$$$
/media/chris/experiments/cd1a-new-docking/inputs/ligands/7ryo_ligand.pdb


 65 67  0  0  0  0  0  0  0  0999 V2000
  -38.8067   60.3669   65.0631 C   0  0  0  0  0  0  0  0  0  0  0  0
  -37.9901   59.7923   64.0071 N   0  0  0  0  0  0  0  0  0  0  0  0
  -39.4860   60.2596   62.3954 O   0  0  0  0  0  0  0  0  0  0  0  0
  -38.4118   59.7899   62.7403 C   0  0  0  0  0  0  0  0  0  0  0  0
  -37.1148   59.3999   64.2287 H   0  0  0  0  0  0  0  0  0  0  0  0
  -36.0896   59.4469   61.9908 N   0  0  0  0  0  0  0  0  0  0  0  0
  -36.1583   57.2061   61.7514 O   0  0  0  0  0  0  0  0  0  0  0  0
  -37.4976   59.1413   61.6879 C   0  0  0  0  0  0  0  0  0  0  0  0
  -37.8451   59.7090   60.3149 C   0  0  0  0  0  0  0  0  0  0  0  0
  -37.5512   57.6064   61.6975 C   0  0  0  0  0  0  0  0  0  0  0  0
  -35.4616   58.3446   62.0039 C   0  0  0  0  0  0  0  0  0  0  0  0
  -34.1397   59.5018   64.2836 O   0  0  0  0  0  0  0  0  0  0  0  0
  -34.0305   58.1688   62.2622 C   0  0  0  0  0  0  0  0  0  0  0  0
  -33.2775   57.2998   61.4715 C   0  0  0  0  0  0  0  0  0  0  0  0
  -31.9956   56.9390   61.8495 C   0  0  0  0  0  0  0  0  0  0  0  0
  -31.4457   57.4337   63.0121 C   0  0  0  0  0  0  0  0  0  0  0  0
  -32.1726   58.2929   63.8158 C   0  0  0  0  0  0  0  0  0  0  0  0
  -33.4634   58.6655   63.4538 C   0  0  0  0  0  0  0  0  0  0  0  0
  -35.0108   59.7718   64.0686 H   0  0  0  0  0  0  0  0  0  0  0  0
  -37.8779   60.4257   67.2936 O   0  0  0  0  0  0  0  0  0  0  0  0
  -37.9443   60.9048   66.1952 C   0  0  0  0  0  0  0  0  0  0  0  0
  -37.2811   62.0057   65.8009 O   0  0  0  0  0  0  0  0  0  0  0  0
  -36.0890   62.4027   66.5565 C   0  0  0  0  0  0  0  0  0  0  0  0
  -36.4728   62.5153   68.0104 C   0  0  0  0  0  0  0  0  0  0  0  0
  -35.6582   63.7326   65.9688 C   0  0  0  0  0  0  0  0  0  0  0  0
  -34.3687   63.7051   63.9246 N   0  0  0  0  0  0  0  0  0  0  0  0
  -33.2711   63.5726   65.8841 O   0  0  0  0  0  0  0  0  0  0  0  0
  -34.3245   63.6592   65.2592 C   0  0  0  0  0  0  0  0  0  0  0  0
  -35.2430   63.7747   63.4773 H   0  0  0  0  0  0  0  0  0  0  0  0
  -32.3979   64.7399   61.0719 N   0  0  0  0  0  0  0  0  0  0  0  0
  -34.6047   64.5371   61.4175 O   0  0  0  0  0  0  0  0  0  0  0  0
  -33.1639   63.6552   63.1149 C   0  0  0  0  0  0  0  0  0  0  0  0
  -32.7655   62.1985   62.8528 C   0  0  0  0  0  0  0  0  0  0  0  0
  -31.3133   62.0308   62.4189 C   0  0  0  0  0  0  0  0  0  0  0  0
  -30.9380   62.7162   61.1201 C   0  0  0  0  0  0  0  0  0  0  0  0
  -31.0352   64.2268   61.1655 C   0  0  0  0  0  0  0  0  0  0  0  0
  -33.4511   64.3494   61.7929 C   0  0  0  0  0  0  0  0  0  0  0  0
  -32.5571   65.4485   60.4071 H   0  0  0  0  0  0  0  0  0  0  0  0
  -39.8283   59.3566   65.5873 C   0  0  0  0  0  0  0  0  0  0  0  0
  -41.1422   60.0165   65.9916 C   0  0  0  0  0  0  0  0  0  0  0  0
  -41.6608   59.5402   67.3358 C   0  0  0  0  0  0  0  0  0  0  0  0
  -42.4917   58.2769   67.2822 C   0  0  0  0  0  0  0  0  0  0  0  0
  -43.5625   58.3975   66.3055 N   0  0  0  0  0  0  0  0  0  0  0  0
  -43.0383   56.4785   65.2396 O   0  0  0  0  0  0  0  0  0  0  0  0
  -43.7594   57.4838   65.3490 C   0  0  0  0  0  0  0  0  0  0  0  0
  -44.1620   59.1772   66.3500 H   0  0  0  0  0  0  0  0  0  0  0  0
  -46.1395   57.7265   64.6783 C   0  0  0  0  0  0  0  0  0  0  0  0
  -44.8458   57.8158   64.4005 C   0  0  0  0  0  0  0  0  0  0  0  0
  -46.7734   57.3056   65.9673 C   0  0  0  0  0  0  0  0  0  0  0  0
  -47.0708   58.4996   66.8660 C   0  0  0  0  0  0  0  0  0  0  0  0
  -48.3882   59.1886   66.5548 C   0  0  0  0  0  0  0  0  0  0  0  0
  -49.5363   58.2235   66.3103 C   0  0  0  0  0  0  0  0  0  0  0  0
  -50.8254   58.8852   65.8609 C   0  0  0  0  0  0  0  0  0  0  0  0
  -50.6402   60.3221   65.4022 C   0  0  0  0  0  0  0  0  0  0  0  0
  -50.6605   60.4840   63.8949 C   0  0  0  0  0  0  0  0  0  0  0  0
  -51.1770   59.2563   63.1719 C   0  0  0  0  0  0  0  0  0  0  0  0
  -50.1387   58.1711   62.9610 C   0  0  0  0  0  0  0  0  0  0  0  0
  -49.0127   58.6080   62.0449 C   0  0  0  0  0  0  0  0  0  0  0  0
  -49.4940   59.0502   60.6727 C   0  0  0  0  0  0  0  0  0  0  0  0
  -49.1711   58.0726   59.5562 C   0  0  0  0  0  0  0  0  0  0  0  0
  -47.9523   57.2025   59.8214 C   0  0  0  0  0  0  0  0  0  0  0  0
  -46.7523   57.5374   58.9462 C   0  0  0  0  0  0  0  0  0  0  0  0
  -47.1336   58.1049   57.5884 C   0  0  0  0  0  0  0  0  0  0  0  0
  -46.9806   55.7678   56.6446 C   0  0  0  0  0  0  0  0  0  0  0  0
  -47.7082   57.0864   56.6208 C   0  0  0  0  0  0  0  0  0  0  0  0
 43 45  1  0  0  0
 43 42  1  0  0  0
 43 46  1  0  0  0
 64 65  1  0  0  0
 44 45  2  0  0  0
 65 63  1  0  0  0
  2  1  1  0  0  0
  2  4  1  0  0  0
  2  5  1  0  0  0
  3  4  2  0  0  0
 63 62  1  0  0  0
  6  8  1  0  0  0
  6 11  2  0  0  0
  7 10  1  0  0  0
  7 11  1  0  0  0
 62 61  1  0  0  0
 26 28  1  0  0  0
 26 32  1  0  0  0
 26 29  1  0  0  0
 12 18  1  0  0  0
 12 19  1  0  0  0
 61 60  1  0  0  0
 30 36  1  0  0  0
 30 37  1  0  0  0
 30 38  1  0  0  0
 20 21  2  0  0  0
 60 59  1  0  0  0
 22 21  1  0  0  0
 22 23  1  0  0  0
 59 58  1  0  0  0
 27 28  2  0  0  0
 58 57  1  0  0  0
 31 37  2  0  0  0
 57 56  1  0  0  0
 56 55  1  0  0  0
 55 54  1  0  0  0
 54 53  1  0  0  0
 53 52  1  0  0  0
 52 51  1  0  0  0
 51 50  1  0  0  0
 50 49  1  0  0  0
 49 47  1  0  0  0
 47 48  2  0  0  0
 48 45  1  0  0  0
 42 41  1  0  0  0
 41 40  1  0  0  0
 40 39  1  0  0  0
 39  1  1  0  0  0
  1 21  1  0  0  0
  8  4  1  0  0  0
  8  9  1  0  0  0
  8 10  1  0  0  0
 11 13  1  0  0  0
 13 14  2  0  0  0
 13 18  1  0  0  0
 14 15  1  0  0  0
 15 16  2  0  0  0
 16 17  1  0  0  0
 17 18  2  0  0  0
 23 24  1  0  0  0
 23 25  1  0  0  0
 25 28  1  0  0  0
 32 33  1  0  0  0
 32 37  1  0  0  0
 33 34  1  0  0  0
 34 35  1  0  0  0
 35 36  1  0  0  0
M  END
> <minimizedAffinity>
-10.26437

> <CNNscore>
0.1397123486

> <CNNaffinity>
7.0433206558

> <CNN_VS>
0.9840388894

> <CNNaffinity_variance>
1.0199012756

$$$$
