/media/chris/experiments/cd1a-new-docking/inputs/ligands/7ryo_ligand.pdb


 65 67  0  0  0  0  0  0  0  0999 V2000
  -37.3794   58.9856   61.4522 C   0  0  0  0  0  0  0  0  0  0  0  0
  -37.3003   59.4650   62.8220 N   0  0  0  0  0  0  0  0  0  0  0  0
  -38.5834   57.8059   63.6312 O   0  0  0  0  0  0  0  0  0  0  0  0
  -37.9229   58.8183   63.8105 C   0  0  0  0  0  0  0  0  0  0  0  0
  -36.7811   60.2768   63.0237 H   0  0  0  0  0  0  0  0  0  0  0  0
  -36.4751   60.0016   65.4154 N   0  0  0  0  0  0  0  0  0  0  0  0
  -37.9251   61.6177   66.0229 O   0  0  0  0  0  0  0  0  0  0  0  0
  -37.8079   59.4051   65.2269 C   0  0  0  0  0  0  0  0  0  0  0  0
  -37.9985   58.2831   66.2431 C   0  0  0  0  0  0  0  0  0  0  0  0
  -38.7728   60.5724   65.4827 C   0  0  0  0  0  0  0  0  0  0  0  0
  -36.6506   61.1841   65.8400 C   0  0  0  0  0  0  0  0  0  0  0  0
  -37.1259   63.5078   67.4704 O   0  0  0  0  0  0  0  0  0  0  0  0
  -35.5988   62.1498   66.1668 C   0  0  0  0  0  0  0  0  0  0  0  0
  -34.2752   61.8925   65.8078 C   0  0  0  0  0  0  0  0  0  0  0  0
  -33.2463   62.6660   66.3170 C   0  0  0  0  0  0  0  0  0  0  0  0
  -33.5158   63.7011   67.1855 C   0  0  0  0  0  0  0  0  0  0  0  0
  -34.8186   63.9742   67.5608 C   0  0  0  0  0  0  0  0  0  0  0  0
  -35.8660   63.2067   67.0613 C   0  0  0  0  0  0  0  0  0  0  0  0
  -37.8532   63.0100   67.1525 H   0  0  0  0  0  0  0  0  0  0  0  0
  -35.6580   58.6390   59.7917 O   0  0  0  0  0  0  0  0  0  0  0  0
  -36.0114   58.5650   60.9362 C   0  0  0  0  0  0  0  0  0  0  0  0
  -35.2586   58.0783   61.9380 O   0  0  0  0  0  0  0  0  0  0  0  0
  -33.8332   58.4212   61.9614 C   0  0  0  0  0  0  0  0  0  0  0  0
  -33.0440   57.1372   62.0066 C   0  0  0  0  0  0  0  0  0  0  0  0
  -33.6370   59.2632   63.2072 C   0  0  0  0  0  0  0  0  0  0  0  0
  -33.3895   61.6501   62.9188 N   0  0  0  0  0  0  0  0  0  0  0  0
  -31.5438   60.3659   62.8419 O   0  0  0  0  0  0  0  0  0  0  0  0
  -32.7603   60.4725   62.9694 C   0  0  0  0  0  0  0  0  0  0  0  0
  -34.3676   61.6749   63.0278 H   0  0  0  0  0  0  0  0  0  0  0  0
  -33.1535   65.2585   63.0534 N   0  0  0  0  0  0  0  0  0  0  0  0
  -34.8693   63.8450   62.7558 O   0  0  0  0  0  0  0  0  0  0  0  0
  -32.6716   62.8951   62.7075 C   0  0  0  0  0  0  0  0  0  0  0  0
  -32.0508   62.9139   61.3062 C   0  0  0  0  0  0  0  0  0  0  0  0
  -30.9289   63.9345   61.1485 C   0  0  0  0  0  0  0  0  0  0  0  0
  -31.3311   65.3817   61.3527 C   0  0  0  0  0  0  0  0  0  0  0  0
  -31.7960   65.7038   62.7575 C   0  0  0  0  0  0  0  0  0  0  0  0
  -33.6607   64.0422   62.8408 C   0  0  0  0  0  0  0  0  0  0  0  0
  -33.7589   65.9250   63.4517 H   0  0  0  0  0  0  0  0  0  0  0  0
  -38.0119   60.0318   60.5332 C   0  0  0  0  0  0  0  0  0  0  0  0
  -39.1297   59.4500   59.6745 C   0  0  0  0  0  0  0  0  0  0  0  0
  -40.1880   58.7237   60.4838 C   0  0  0  0  0  0  0  0  0  0  0  0
  -40.8632   59.5662   61.5439 C   0  0  0  0  0  0  0  0  0  0  0  0
  -41.0934   58.7951   62.7552 N   0  0  0  0  0  0  0  0  0  0  0  0
  -42.4750   60.3262   63.6721 O   0  0  0  0  0  0  0  0  0  0  0  0
  -41.8877   59.2339   63.7377 C   0  0  0  0  0  0  0  0  0  0  0  0
  -40.6501   57.9218   62.8553 H   0  0  0  0  0  0  0  0  0  0  0  0
  -42.9615   57.5677   65.2359 C   0  0  0  0  0  0  0  0  0  0  0  0
  -41.9376   58.3506   64.9242 C   0  0  0  0  0  0  0  0  0  0  0  0
  -44.2420   57.3893   64.4814 C   0  0  0  0  0  0  0  0  0  0  0  0
  -45.3871   58.1638   65.1224 C   0  0  0  0  0  0  0  0  0  0  0  0
  -45.3590   58.1555   66.6410 C   0  0  0  0  0  0  0  0  0  0  0  0
  -46.7313   58.3094   67.2755 C   0  0  0  0  0  0  0  0  0  0  0  0
  -47.8850   57.9041   66.3776 C   0  0  0  0  0  0  0  0  0  0  0  0
  -49.0130   58.9221   66.3448 C   0  0  0  0  0  0  0  0  0  0  0  0
  -48.6963   60.1504   65.5144 C   0  0  0  0  0  0  0  0  0  0  0  0
  -49.9147   60.7348   64.8284 C   0  0  0  0  0  0  0  0  0  0  0  0
  -50.9906   59.7200   64.4925 C   0  0  0  0  0  0  0  0  0  0  0  0
  -51.1720   59.5313   62.9994 C   0  0  0  0  0  0  0  0  0  0  0  0
  -50.2013   58.5268   62.4002 C   0  0  0  0  0  0  0  0  0  0  0  0
  -49.6466   58.9308   61.0452 C   0  0  0  0  0  0  0  0  0  0  0  0
  -50.0474   58.0067   59.9058 C   0  0  0  0  0  0  0  0  0  0  0  0
  -48.9055   57.1521   59.3731 C   0  0  0  0  0  0  0  0  0  0  0  0
  -47.5552   57.8490   59.4209 C   0  0  0  0  0  0  0  0  0  0  0  0
  -45.8520   57.7824   57.5580 C   0  0  0  0  0  0  0  0  0  0  0  0
  -47.1012   58.4305   58.0944 C   0  0  0  0  0  0  0  0  0  0  0  0
 43 45  1  0  0  0
 43 42  1  0  0  0
 43 46  1  0  0  0
 64 65  1  0  0  0
 44 45  2  0  0  0
 65 63  1  0  0  0
  2  1  1  0  0  0
  2  4  1  0  0  0
  2  5  1  0  0  0
  3  4  2  0  0  0
 63 62  1  0  0  0
  6  8  1  0  0  0
  6 11  2  0  0  0
  7 10  1  0  0  0
  7 11  1  0  0  0
 62 61  1  0  0  0
 26 28  1  0  0  0
 26 32  1  0  0  0
 26 29  1  0  0  0
 12 18  1  0  0  0
 12 19  1  0  0  0
 61 60  1  0  0  0
 30 36  1  0  0  0
 30 37  1  0  0  0
 30 38  1  0  0  0
 20 21  2  0  0  0
 60 59  1  0  0  0
 22 21  1  0  0  0
 22 23  1  0  0  0
 59 58  1  0  0  0
 27 28  2  0  0  0
 58 57  1  0  0  0
 31 37  2  0  0  0
 57 56  1  0  0  0
 56 55  1  0  0  0
 55 54  1  0  0  0
 54 53  1  0  0  0
 53 52  1  0  0  0
 52 51  1  0  0  0
 51 50  1  0  0  0
 50 49  1  0  0  0
 49 47  1  0  0  0
 47 48  2  0  0  0
 48 45  1  0  0  0
 42 41  1  0  0  0
 41 40  1  0  0  0
 40 39  1  0  0  0
 39  1  1  0  0  0
  1 21  1  0  0  0
  8  4  1  0  0  0
  8  9  1  0  0  0
  8 10  1  0  0  0
 11 13  1  0  0  0
 13 14  2  0  0  0
 13 18  1  0  0  0
 14 15  1  0  0  0
 15 16  2  0  0  0
 16 17  1  0  0  0
 17 18  2  0  0  0
 23 24  1  0  0  0
 23 25  1  0  0  0
 25 28  1  0  0  0
 32 33  1  0  0  0
 32 37  1  0  0  0
 33 34  1  0  0  0
 34 35  1  0  0  0
 35 36  1  0  0  0
M  END
> <minimizedAffinity>
-9.08673

> <CNNscore>
0.3131665885

> <CNNaffinity>
7.5335454941

> <CNN_VS>
2.3592548370

> <CNNaffinity_variance>
1.2120208740

$$$$
/media/chris/experiments/cd1a-new-docking/inputs/ligands/7ryo_ligand.pdb


 65 67  0  0  0  0  0  0  0  0999 V2000
  -36.5013   57.5263   62.5840 C   0  0  0  0  0  0  0  0  0  0  0  0
  -37.1524   58.6419   63.2503 N   0  0  0  0  0  0  0  0  0  0  0  0
  -36.2133   58.1898   65.2421 O   0  0  0  0  0  0  0  0  0  0  0  0
  -36.9456   58.8791   64.5479 C   0  0  0  0  0  0  0  0  0  0  0  0
  -37.7533   59.2301   62.7384 H   0  0  0  0  0  0  0  0  0  0  0  0
  -38.4982   60.7528   64.1595 N   0  0  0  0  0  0  0  0  0  0  0  0
  -39.9331   60.3344   65.8476 O   0  0  0  0  0  0  0  0  0  0  0  0
  -37.6911   60.0654   65.1812 C   0  0  0  0  0  0  0  0  0  0  0  0
  -36.6683   61.0451   65.7486 C   0  0  0  0  0  0  0  0  0  0  0  0
  -38.7203   59.6427   66.2399 C   0  0  0  0  0  0  0  0  0  0  0  0
  -39.6793   60.8431   64.6136 C   0  0  0  0  0  0  0  0  0  0  0  0
  -39.9969   60.7930   61.7535 O   0  0  0  0  0  0  0  0  0  0  0  0
  -40.8218   61.4580   63.9336 C   0  0  0  0  0  0  0  0  0  0  0  0
  -41.8845   61.9740   64.6762 C   0  0  0  0  0  0  0  0  0  0  0  0
  -43.0677   62.3324   64.0536 C   0  0  0  0  0  0  0  0  0  0  0  0
  -43.2118   62.1845   62.6913 C   0  0  0  0  0  0  0  0  0  0  0  0
  -42.1754   61.6712   61.9329 C   0  0  0  0  0  0  0  0  0  0  0  0
  -40.9792   61.3034   62.5409 C   0  0  0  0  0  0  0  0  0  0  0  0
  -39.1794   60.5357   62.1321 H   0  0  0  0  0  0  0  0  0  0  0  0
  -35.3252   58.4675   60.6942 O   0  0  0  0  0  0  0  0  0  0  0  0
  -35.2863   57.9895   61.7943 C   0  0  0  0  0  0  0  0  0  0  0  0
  -34.1584   57.7697   62.4921 O   0  0  0  0  0  0  0  0  0  0  0  0
  -33.0610   58.7321   62.3538 C   0  0  0  0  0  0  0  0  0  0  0  0
  -31.7604   57.9752   62.4482 C   0  0  0  0  0  0  0  0  0  0  0  0
  -33.2384   59.7187   63.4916 C   0  0  0  0  0  0  0  0  0  0  0  0
  -33.4763   62.1044   63.7975 N   0  0  0  0  0  0  0  0  0  0  0  0
  -32.0533   61.3646   62.2198 O   0  0  0  0  0  0  0  0  0  0  0  0
  -32.8696   61.1343   63.1075 C   0  0  0  0  0  0  0  0  0  0  0  0
  -34.1226   61.8601   64.4988 H   0  0  0  0  0  0  0  0  0  0  0  0
  -32.6270   65.4424   64.9068 N   0  0  0  0  0  0  0  0  0  0  0  0
  -33.7278   63.7414   65.8689 O   0  0  0  0  0  0  0  0  0  0  0  0
  -33.2095   63.5093   63.5425 C   0  0  0  0  0  0  0  0  0  0  0  0
  -34.2961   64.0954   62.6341 C   0  0  0  0  0  0  0  0  0  0  0  0
  -33.8851   65.3946   61.9496 C   0  0  0  0  0  0  0  0  0  0  0  0
  -33.5713   66.5499   62.8794 C   0  0  0  0  0  0  0  0  0  0  0  0
  -32.3684   66.3197   63.7702 C   0  0  0  0  0  0  0  0  0  0  0  0
  -33.2107   64.2423   64.8747 C   0  0  0  0  0  0  0  0  0  0  0  0
  -32.3409   65.7698   65.7902 H   0  0  0  0  0  0  0  0  0  0  0  0
  -37.4799   56.7681   61.6858 C   0  0  0  0  0  0  0  0  0  0  0  0
  -38.6809   56.2327   62.4580 C   0  0  0  0  0  0  0  0  0  0  0  0
  -40.0038   56.7901   61.9662 C   0  0  0  0  0  0  0  0  0  0  0  0
  -40.4870   58.0186   62.7056 C   0  0  0  0  0  0  0  0  0  0  0  0
  -41.0180   57.6659   64.0127 N   0  0  0  0  0  0  0  0  0  0  0  0
  -42.9640   58.7681   63.7095 O   0  0  0  0  0  0  0  0  0  0  0  0
  -42.2256   58.0688   64.4225 C   0  0  0  0  0  0  0  0  0  0  0  0
  -40.4706   57.1127   64.6157 H   0  0  0  0  0  0  0  0  0  0  0  0
  -43.7521   57.2448   66.2014 C   0  0  0  0  0  0  0  0  0  0  0  0
  -42.5619   57.6795   65.8102 C   0  0  0  0  0  0  0  0  0  0  0  0
  -44.9739   57.0380   65.3618 C   0  0  0  0  0  0  0  0  0  0  0  0
  -45.8780   58.2645   65.3695 C   0  0  0  0  0  0  0  0  0  0  0  0
  -47.3304   57.9541   65.6878 C   0  0  0  0  0  0  0  0  0  0  0  0
  -47.9669   58.9430   66.6502 C   0  0  0  0  0  0  0  0  0  0  0  0
  -49.4078   59.2913   66.3276 C   0  0  0  0  0  0  0  0  0  0  0  0
  -49.8097   58.9459   64.9032 C   0  0  0  0  0  0  0  0  0  0  0  0
  -50.1016   60.1610   64.0447 C   0  0  0  0  0  0  0  0  0  0  0  0
  -50.6806   59.8066   62.6898 C   0  0  0  0  0  0  0  0  0  0  0  0
  -51.1022   58.3566   62.5493 C   0  0  0  0  0  0  0  0  0  0  0  0
  -50.2551   57.5947   61.5493 C   0  0  0  0  0  0  0  0  0  0  0  0
  -50.1302   58.3007   60.2090 C   0  0  0  0  0  0  0  0  0  0  0  0
  -49.1419   57.6526   59.2551 C   0  0  0  0  0  0  0  0  0  0  0  0
  -47.7538   57.4443   59.8407 C   0  0  0  0  0  0  0  0  0  0  0  0
  -46.6438   57.4054   58.7995 C   0  0  0  0  0  0  0  0  0  0  0  0
  -47.0769   57.9151   57.4343 C   0  0  0  0  0  0  0  0  0  0  0  0
  -47.3167   55.4578   56.9046 C   0  0  0  0  0  0  0  0  0  0  0  0
  -47.1366   56.8487   56.3557 C   0  0  0  0  0  0  0  0  0  0  0  0
 43 45  1  0  0  0
 43 42  1  0  0  0
 43 46  1  0  0  0
 64 65  1  0  0  0
 44 45  2  0  0  0
 65 63  1  0  0  0
  2  1  1  0  0  0
  2  4  1  0  0  0
  2  5  1  0  0  0
  3  4  2  0  0  0
 63 62  1  0  0  0
  6  8  1  0  0  0
  6 11  2  0  0  0
  7 10  1  0  0  0
  7 11  1  0  0  0
 62 61  1  0  0  0
 26 28  1  0  0  0
 26 32  1  0  0  0
 26 29  1  0  0  0
 12 18  1  0  0  0
 12 19  1  0  0  0
 61 60  1  0  0  0
 30 36  1  0  0  0
 30 37  1  0  0  0
 30 38  1  0  0  0
 20 21  2  0  0  0
 60 59  1  0  0  0
 22 21  1  0  0  0
 22 23  1  0  0  0
 59 58  1  0  0  0
 27 28  2  0  0  0
 58 57  1  0  0  0
 31 37  2  0  0  0
 57 56  1  0  0  0
 56 55  1  0  0  0
 55 54  1  0  0  0
 54 53  1  0  0  0
 53 52  1  0  0  0
 52 51  1  0  0  0
 51 50  1  0  0  0
 50 49  1  0  0  0
 49 47  1  0  0  0
 47 48  2  0  0  0
 48 45  1  0  0  0
 42 41  1  0  0  0
 41 40  1  0  0  0
 40 39  1  0  0  0
 39  1  1  0  0  0
  1 21  1  0  0  0
  8  4  1  0  0  0
  8  9  1  0  0  0
  8 10  1  0  0  0
 11 13  1  0  0  0
 13 14  2  0  0  0
 13 18  1  0  0  0
 14 15  1  0  0  0
 15 16  2  0  0  0
 16 17  1  0  0  0
 17 18  2  0  0  0
 23 24  1  0  0  0
 23 25  1  0  0  0
 25 28  1  0  0  0
 32 33  1  0  0  0
 32 37  1  0  0  0
 33 34  1  0  0  0
 34 35  1  0  0  0
 35 36  1  0  0  0
M  END
> <minimizedAffinity>
-7.49796

> <CNNscore>
0.2905522287

> <CNNaffinity>
7.4085869789

> <CNN_VS>
2.1525814533

> <CNNaffinity_variance>
0.7560405731

$$$$
/media/chris/experiments/cd1a-new-docking/inputs/ligands/7ryo_ligand.pdb


 65 67  0  0  0  0  0  0  0  0999 V2000
  -38.4919   60.6871   64.7666 C   0  0  0  0  0  0  0  0  0  0  0  0
  -37.7866   59.7672   63.8897 N   0  0  0  0  0  0  0  0  0  0  0  0
  -38.4352   60.8262   62.0158 O   0  0  0  0  0  0  0  0  0  0  0  0
  -37.8220   59.9224   62.5640 C   0  0  0  0  0  0  0  0  0  0  0  0
  -37.2763   59.0204   64.2782 H   0  0  0  0  0  0  0  0  0  0  0  0
  -35.6269   59.1923   61.7151 N   0  0  0  0  0  0  0  0  0  0  0  0
  -35.7691   57.0168   62.2900 O   0  0  0  0  0  0  0  0  0  0  0  0
  -37.0683   58.8919   61.7074 C   0  0  0  0  0  0  0  0  0  0  0  0
  -37.5844   58.9695   60.2738 C   0  0  0  0  0  0  0  0  0  0  0  0
  -37.1490   57.4624   62.2631 C   0  0  0  0  0  0  0  0  0  0  0  0
  -35.0236   58.1250   62.0413 C   0  0  0  0  0  0  0  0  0  0  0  0
  -33.4051   59.8456   63.6856 O   0  0  0  0  0  0  0  0  0  0  0  0
  -33.5745   57.9579   62.1745 C   0  0  0  0  0  0  0  0  0  0  0  0
  -32.9419   56.8502   61.6087 C   0  0  0  0  0  0  0  0  0  0  0  0
  -31.6287   56.5518   61.9291 C   0  0  0  0  0  0  0  0  0  0  0  0
  -30.9282   57.3452   62.8113 C   0  0  0  0  0  0  0  0  0  0  0  0
  -31.5334   58.4462   63.3894 C   0  0  0  0  0  0  0  0  0  0  0  0
  -32.8531   58.7613   63.0816 C   0  0  0  0  0  0  0  0  0  0  0  0
  -34.2918   60.0846   63.4997 H   0  0  0  0  0  0  0  0  0  0  0  0
  -38.0365   60.5638   67.1368 O   0  0  0  0  0  0  0  0  0  0  0  0
  -37.7076   60.9395   66.0455 C   0  0  0  0  0  0  0  0  0  0  0  0
  -36.6032   61.6612   65.7869 O   0  0  0  0  0  0  0  0  0  0  0  0
  -35.9250   62.3142   66.9109 C   0  0  0  0  0  0  0  0  0  0  0  0
  -36.1656   63.7988   66.8036 C   0  0  0  0  0  0  0  0  0  0  0  0
  -34.4589   61.9553   66.7664 C   0  0  0  0  0  0  0  0  0  0  0  0
  -33.8340   62.9053   64.6335 N   0  0  0  0  0  0  0  0  0  0  0  0
  -32.9611   63.8041   66.5021 O   0  0  0  0  0  0  0  0  0  0  0  0
  -33.6802   62.9701   65.9592 C   0  0  0  0  0  0  0  0  0  0  0  0
  -34.4242   62.2148   64.2537 H   0  0  0  0  0  0  0  0  0  0  0  0
  -33.5715   66.0835   62.9236 N   0  0  0  0  0  0  0  0  0  0  0  0
  -35.3161   64.8483   63.6031 O   0  0  0  0  0  0  0  0  0  0  0  0
  -33.1554   63.8244   63.7365 C   0  0  0  0  0  0  0  0  0  0  0  0
  -32.7625   63.1036   62.4421 C   0  0  0  0  0  0  0  0  0  0  0  0
  -31.6770   63.8221   61.6479 C   0  0  0  0  0  0  0  0  0  0  0  0
  -32.0388   65.2102   61.1581 C   0  0  0  0  0  0  0  0  0  0  0  0
  -32.2765   66.2160   62.2650 C   0  0  0  0  0  0  0  0  0  0  0  0
  -34.1087   64.9644   63.4145 C   0  0  0  0  0  0  0  0  0  0  0  0
  -34.1053   66.9057   63.0155 H   0  0  0  0  0  0  0  0  0  0  0  0
  -39.9018   60.1844   65.0806 C   0  0  0  0  0  0  0  0  0  0  0  0
  -40.9825   61.1347   64.5762 C   0  0  0  0  0  0  0  0  0  0  0  0
  -41.7067   60.6170   63.3474 C   0  0  0  0  0  0  0  0  0  0  0  0
  -41.4063   59.1763   62.9956 C   0  0  0  0  0  0  0  0  0  0  0  0
  -42.4397   58.2884   63.5043 N   0  0  0  0  0  0  0  0  0  0  0  0
  -41.0018   57.0139   64.6882 O   0  0  0  0  0  0  0  0  0  0  0  0
  -42.1606   57.2651   64.3189 C   0  0  0  0  0  0  0  0  0  0  0  0
  -43.3750   58.4457   63.2403 H   0  0  0  0  0  0  0  0  0  0  0  0
  -44.3073   56.8011   65.4808 C   0  0  0  0  0  0  0  0  0  0  0  0
  -43.3285   56.4259   64.6686 C   0  0  0  0  0  0  0  0  0  0  0  0
  -44.4609   58.1119   66.1870 C   0  0  0  0  0  0  0  0  0  0  0  0
  -45.8113   58.2222   66.8843 C   0  0  0  0  0  0  0  0  0  0  0  0
  -46.9062   57.3932   66.2356 C   0  0  0  0  0  0  0  0  0  0  0  0
  -47.5593   58.0737   65.0441 C   0  0  0  0  0  0  0  0  0  0  0  0
  -48.0622   59.4775   65.3233 C   0  0  0  0  0  0  0  0  0  0  0  0
  -49.2798   59.5146   66.2321 C   0  0  0  0  0  0  0  0  0  0  0  0
  -50.5748   59.1686   65.5239 C   0  0  0  0  0  0  0  0  0  0  0  0
  -50.9757   60.1943   64.4827 C   0  0  0  0  0  0  0  0  0  0  0  0
  -51.1763   59.6274   63.0905 C   0  0  0  0  0  0  0  0  0  0  0  0
  -49.9667   59.8243   62.1982 C   0  0  0  0  0  0  0  0  0  0  0  0
  -49.2244   58.5315   61.9013 C   0  0  0  0  0  0  0  0  0  0  0  0
  -49.9771   57.5780   60.9897 C   0  0  0  0  0  0  0  0  0  0  0  0
  -50.0348   58.0196   59.5355 C   0  0  0  0  0  0  0  0  0  0  0  0
  -48.9117   57.4580   58.6747 C   0  0  0  0  0  0  0  0  0  0  0  0
  -47.5562   58.0814   58.9667 C   0  0  0  0  0  0  0  0  0  0  0  0
  -47.0256   57.1212   56.6924 C   0  0  0  0  0  0  0  0  0  0  0  0
  -46.5782   58.0300   57.8070 C   0  0  0  0  0  0  0  0  0  0  0  0
 43 45  1  0  0  0
 43 42  1  0  0  0
 43 46  1  0  0  0
 64 65  1  0  0  0
 44 45  2  0  0  0
 65 63  1  0  0  0
  2  1  1  0  0  0
  2  4  1  0  0  0
  2  5  1  0  0  0
  3  4  2  0  0  0
 63 62  1  0  0  0
  6  8  1  0  0  0
  6 11  2  0  0  0
  7 10  1  0  0  0
  7 11  1  0  0  0
 62 61  1  0  0  0
 26 28  1  0  0  0
 26 32  1  0  0  0
 26 29  1  0  0  0
 12 18  1  0  0  0
 12 19  1  0  0  0
 61 60  1  0  0  0
 30 36  1  0  0  0
 30 37  1  0  0  0
 30 38  1  0  0  0
 20 21  2  0  0  0
 60 59  1  0  0  0
 22 21  1  0  0  0
 22 23  1  0  0  0
 59 58  1  0  0  0
 27 28  2  0  0  0
 58 57  1  0  0  0
 31 37  2  0  0  0
 57 56  1  0  0  0
 56 55  1  0  0  0
 55 54  1  0  0  0
 54 53  1  0  0  0
 53 52  1  0  0  0
 52 51  1  0  0  0
 51 50  1  0  0  0
 50 49  1  0  0  0
 49 47  1  0  0  0
 47 48  2  0  0  0
 48 45  1  0  0  0
 42 41  1  0  0  0
 41 40  1  0  0  0
 40 39  1  0  0  0
 39  1  1  0  0  0
  1 21  1  0  0  0
  8  4  1  0  0  0
  8  9  1  0  0  0
  8 10  1  0  0  0
 11 13  1  0  0  0
 13 14  2  0  0  0
 13 18  1  0  0  0
 14 15  1  0  0  0
 15 16  2  0  0  0
 16 17  1  0  0  0
 17 18  2  0  0  0
 23 24  1  0  0  0
 23 25  1  0  0  0
 25 28  1  0  0  0
 32 33  1  0  0  0
 32 37  1  0  0  0
 33 34  1  0  0  0
 34 35  1  0  0  0
 35 36  1  0  0  0
M  END
> <minimizedAffinity>
-10.25444

> <CNNscore>
0.2745427489

> <CNNaffinity>
7.4283967018

> <CNN_VS>
2.0394124985

> <CNNaffinity_variance>
0.9204715490

$$$$
/media/chris/experiments/cd1a-new-docking/inputs/ligands/7ryo_ligand.pdb


 65 67  0  0  0  0  0  0  0  0999 V2000
  -39.2353   58.3876   62.2204 C   0  0  0  0  0  0  0  0  0  0  0  0
  -37.9093   58.2160   62.7903 N   0  0  0  0  0  0  0  0  0  0  0  0
  -38.6938   57.4954   64.7699 O   0  0  0  0  0  0  0  0  0  0  0  0
  -37.7537   57.7757   64.0412 C   0  0  0  0  0  0  0  0  0  0  0  0
  -37.1158   58.4270   62.2471 H   0  0  0  0  0  0  0  0  0  0  0  0
  -35.4093   57.2638   63.4809 N   0  0  0  0  0  0  0  0  0  0  0  0
  -34.4521   59.0729   64.4266 O   0  0  0  0  0  0  0  0  0  0  0  0
  -36.3179   57.6446   64.5751 C   0  0  0  0  0  0  0  0  0  0  0  0
  -36.2869   56.5596   65.6473 C   0  0  0  0  0  0  0  0  0  0  0  0
  -35.7368   58.9693   65.0914 C   0  0  0  0  0  0  0  0  0  0  0  0
  -34.4480   58.0915   63.4871 C   0  0  0  0  0  0  0  0  0  0  0  0
  -31.7202   58.1521   64.4032 O   0  0  0  0  0  0  0  0  0  0  0  0
  -33.3054   58.0955   62.5704 C   0  0  0  0  0  0  0  0  0  0  0  0
  -33.5058   57.9237   61.2002 C   0  0  0  0  0  0  0  0  0  0  0  0
  -32.4337   57.6824   60.3584 C   0  0  0  0  0  0  0  0  0  0  0  0
  -31.1536   57.6089   60.8627 C   0  0  0  0  0  0  0  0  0  0  0  0
  -30.9283   57.7712   62.2176 C   0  0  0  0  0  0  0  0  0  0  0  0
  -31.9932   58.0124   63.0799 C   0  0  0  0  0  0  0  0  0  0  0  0
  -32.4151   58.3153   65.0102 H   0  0  0  0  0  0  0  0  0  0  0  0
  -40.0827   60.3773   61.1417 O   0  0  0  0  0  0  0  0  0  0  0  0
  -39.6018   59.8602   62.1121 C   0  0  0  0  0  0  0  0  0  0  0  0
  -39.2923   60.5082   63.2486 O   0  0  0  0  0  0  0  0  0  0  0  0
  -40.2527   60.4603   64.3553 C   0  0  0  0  0  0  0  0  0  0  0  0
  -41.2542   61.5693   64.1538 C   0  0  0  0  0  0  0  0  0  0  0  0
  -39.4312   60.6468   65.6162 C   0  0  0  0  0  0  0  0  0  0  0  0
  -37.4345   61.7921   66.3536 N   0  0  0  0  0  0  0  0  0  0  0  0
  -37.4973   60.9981   64.2495 O   0  0  0  0  0  0  0  0  0  0  0  0
  -38.0364   61.1627   65.3402 C   0  0  0  0  0  0  0  0  0  0  0  0
  -37.9158   61.8948   67.2062 H   0  0  0  0  0  0  0  0  0  0  0  0
  -34.3731   63.0786   67.7911 N   0  0  0  0  0  0  0  0  0  0  0  0
  -36.5175   63.1394   68.4458 O   0  0  0  0  0  0  0  0  0  0  0  0
  -36.0903   62.3292   66.2332 C   0  0  0  0  0  0  0  0  0  0  0  0
  -36.0627   63.4507   65.1888 C   0  0  0  0  0  0  0  0  0  0  0  0
  -34.6653   63.7632   64.6644 C   0  0  0  0  0  0  0  0  0  0  0  0
  -33.6742   64.2517   65.7021 C   0  0  0  0  0  0  0  0  0  0  0  0
  -33.3417   63.2315   66.7707 C   0  0  0  0  0  0  0  0  0  0  0  0
  -35.6780   62.8851   67.5871 C   0  0  0  0  0  0  0  0  0  0  0  0
  -34.0754   63.1227   68.7286 H   0  0  0  0  0  0  0  0  0  0  0  0
  -40.2878   57.6204   63.0220 C   0  0  0  0  0  0  0  0  0  0  0  0
  -40.8286   56.4130   62.2635 C   0  0  0  0  0  0  0  0  0  0  0  0
  -41.1507   55.2363   63.1657 C   0  0  0  0  0  0  0  0  0  0  0  0
  -41.8436   55.6022   64.4601 C   0  0  0  0  0  0  0  0  0  0  0  0
  -43.0751   56.3323   64.2048 N   0  0  0  0  0  0  0  0  0  0  0  0
  -42.5689   58.0194   65.6158 O   0  0  0  0  0  0  0  0  0  0  0  0
  -43.3502   57.4954   64.8050 C   0  0  0  0  0  0  0  0  0  0  0  0
  -43.7275   55.9582   63.5695 H   0  0  0  0  0  0  0  0  0  0  0  0
  -45.6872   58.1455   65.3424 C   0  0  0  0  0  0  0  0  0  0  0  0
  -44.6834   58.0503   64.4811 C   0  0  0  0  0  0  0  0  0  0  0  0
  -45.6978   57.7482   66.7855 C   0  0  0  0  0  0  0  0  0  0  0  0
  -46.9719   58.2032   67.4866 C   0  0  0  0  0  0  0  0  0  0  0  0
  -47.9978   58.8229   66.5535 C   0  0  0  0  0  0  0  0  0  0  0  0
  -48.9384   57.8087   65.9241 C   0  0  0  0  0  0  0  0  0  0  0  0
  -50.3443   58.3248   65.6823 C   0  0  0  0  0  0  0  0  0  0  0  0
  -50.5102   59.8015   66.0010 C   0  0  0  0  0  0  0  0  0  0  0  0
  -50.9061   60.6392   64.8009 C   0  0  0  0  0  0  0  0  0  0  0  0
  -50.8859   59.8616   63.5002 C   0  0  0  0  0  0  0  0  0  0  0  0
  -49.6752   60.1326   62.6279 C   0  0  0  0  0  0  0  0  0  0  0  0
  -49.7172   59.3743   61.3160 C   0  0  0  0  0  0  0  0  0  0  0  0
  -49.9660   57.8852   61.4923 C   0  0  0  0  0  0  0  0  0  0  0  0
  -49.5847   57.0444   60.2862 C   0  0  0  0  0  0  0  0  0  0  0  0
  -48.1220   57.1563   59.8846 C   0  0  0  0  0  0  0  0  0  0  0  0
  -47.8686   58.1283   58.7405 C   0  0  0  0  0  0  0  0  0  0  0  0
  -46.6079   57.8165   57.9500 C   0  0  0  0  0  0  0  0  0  0  0  0
  -47.0962   55.6095   56.8247 C   0  0  0  0  0  0  0  0  0  0  0  0
  -46.8512   57.0843   56.6429 C   0  0  0  0  0  0  0  0  0  0  0  0
 43 45  1  0  0  0
 43 42  1  0  0  0
 43 46  1  0  0  0
 64 65  1  0  0  0
 44 45  2  0  0  0
 65 63  1  0  0  0
  2  1  1  0  0  0
  2  4  1  0  0  0
  2  5  1  0  0  0
  3  4  2  0  0  0
 63 62  1  0  0  0
  6  8  1  0  0  0
  6 11  2  0  0  0
  7 10  1  0  0  0
  7 11  1  0  0  0
 62 61  1  0  0  0
 26 28  1  0  0  0
 26 32  1  0  0  0
 26 29  1  0  0  0
 12 18  1  0  0  0
 12 19  1  0  0  0
 61 60  1  0  0  0
 30 36  1  0  0  0
 30 37  1  0  0  0
 30 38  1  0  0  0
 20 21  2  0  0  0
 60 59  1  0  0  0
 22 21  1  0  0  0
 22 23  1  0  0  0
 59 58  1  0  0  0
 27 28  2  0  0  0
 58 57  1  0  0  0
 31 37  2  0  0  0
 57 56  1  0  0  0
 56 55  1  0  0  0
 55 54  1  0  0  0
 54 53  1  0  0  0
 53 52  1  0  0  0
 52 51  1  0  0  0
 51 50  1  0  0  0
 50 49  1  0  0  0
 49 47  1  0  0  0
 47 48  2  0  0  0
 48 45  1  0  0  0
 42 41  1  0  0  0
 41 40  1  0  0  0
 40 39  1  0  0  0
 39  1  1  0  0  0
  1 21  1  0  0  0
  8  4  1  0  0  0
  8  9  1  0  0  0
  8 10  1  0  0  0
 11 13  1  0  0  0
 13 14  2  0  0  0
 13 18  1  0  0  0
 14 15  1  0  0  0
 15 16  2  0  0  0
 16 17  1  0  0  0
 17 18  2  0  0  0
 23 24  1  0  0  0
 23 25  1  0  0  0
 25 28  1  0  0  0
 32 33  1  0  0  0
 32 37  1  0  0  0
 33 34  1  0  0  0
 34 35  1  0  0  0
 35 36  1  0  0  0
M  END
> <minimizedAffinity>
-10.18356

> <CNNscore>
0.2443305850

> <CNNaffinity>
7.8216643333

> <CNN_VS>
1.9110717773

> <CNNaffinity_variance>
0.9279353023

$$$$
/media/chris/experiments/cd1a-new-docking/inputs/ligands/7ryo_ligand.pdb


 65 67  0  0  0  0  0  0  0  0999 V2000
  -35.8294   57.7576   61.8687 C   0  0  0  0  0  0  0  0  0  0  0  0
  -36.3367   58.4747   63.0267 N   0  0  0  0  0  0  0  0  0  0  0  0
  -38.2744   57.3357   63.0658 O   0  0  0  0  0  0  0  0  0  0  0  0
  -37.5399   58.1935   63.5328 C   0  0  0  0  0  0  0  0  0  0  0  0
  -35.7862   59.1765   63.4433 H   0  0  0  0  0  0  0  0  0  0  0  0
  -36.8467   59.5085   65.4981 N   0  0  0  0  0  0  0  0  0  0  0  0
  -38.1123   61.3362   65.1226 O   0  0  0  0  0  0  0  0  0  0  0  0
  -38.0110   59.0146   64.7442 C   0  0  0  0  0  0  0  0  0  0  0  0
  -38.8477   58.1188   65.6526 C   0  0  0  0  0  0  0  0  0  0  0  0
  -38.7673   60.2937   64.3560 C   0  0  0  0  0  0  0  0  0  0  0  0
  -36.9981   60.7595   65.6438 C   0  0  0  0  0  0  0  0  0  0  0  0
  -34.1938   60.9102   65.0136 O   0  0  0  0  0  0  0  0  0  0  0  0
  -36.0792   61.6661   66.3362 C   0  0  0  0  0  0  0  0  0  0  0  0
  -36.5721   62.6047   67.2436 C   0  0  0  0  0  0  0  0  0  0  0  0
  -35.7577   63.6193   67.7165 C   0  0  0  0  0  0  0  0  0  0  0  0
  -34.4486   63.7157   67.2975 C   0  0  0  0  0  0  0  0  0  0  0  0
  -33.9369   62.8008   66.3953 C   0  0  0  0  0  0  0  0  0  0  0  0
  -34.7405   61.7753   65.9070 C   0  0  0  0  0  0  0  0  0  0  0  0
  -34.7084   60.2087   64.6658 H   0  0  0  0  0  0  0  0  0  0  0  0
  -33.9003   56.3033   61.8041 O   0  0  0  0  0  0  0  0  0  0  0  0
  -34.3667   57.3810   62.0515 C   0  0  0  0  0  0  0  0  0  0  0  0
  -33.6713   58.4182   62.5495 O   0  0  0  0  0  0  0  0  0  0  0  0
  -32.4753   58.8601   61.8256 C   0  0  0  0  0  0  0  0  0  0  0  0
  -31.6204   57.6487   61.5512 C   0  0  0  0  0  0  0  0  0  0  0  0
  -31.7891   59.8551   62.7412 C   0  0  0  0  0  0  0  0  0  0  0  0
  -32.7016   62.0854   62.9287 N   0  0  0  0  0  0  0  0  0  0  0  0
  -31.2418   61.6625   61.2698 O   0  0  0  0  0  0  0  0  0  0  0  0
  -31.8862   61.2797   62.2423 C   0  0  0  0  0  0  0  0  0  0  0  0
  -33.1935   61.7231   63.7007 H   0  0  0  0  0  0  0  0  0  0  0  0
  -31.5982   65.5309   62.8570 N   0  0  0  0  0  0  0  0  0  0  0  0
  -31.2743   63.8477   64.3037 O   0  0  0  0  0  0  0  0  0  0  0  0
  -32.8832   63.4808   62.5684 C   0  0  0  0  0  0  0  0  0  0  0  0
  -34.2901   63.9470   62.9593 C   0  0  0  0  0  0  0  0  0  0  0  0
  -34.7362   65.2145   62.2382 C   0  0  0  0  0  0  0  0  0  0  0  0
  -33.8930   66.4459   62.5033 C   0  0  0  0  0  0  0  0  0  0  0  0
  -32.4662   66.3390   62.0073 C   0  0  0  0  0  0  0  0  0  0  0  0
  -31.8481   64.3037   63.3190 C   0  0  0  0  0  0  0  0  0  0  0  0
  -30.7378   65.9328   63.1170 H   0  0  0  0  0  0  0  0  0  0  0  0
  -36.0295   58.5639   60.5847 C   0  0  0  0  0  0  0  0  0  0  0  0
  -37.4908   58.6124   60.1516 C   0  0  0  0  0  0  0  0  0  0  0  0
  -38.1553   59.9456   60.4408 C   0  0  0  0  0  0  0  0  0  0  0  0
  -39.6672   59.9250   60.3830 C   0  0  0  0  0  0  0  0  0  0  0  0
  -40.1759   58.5685   60.5099 N   0  0  0  0  0  0  0  0  0  0  0  0
  -41.2831   58.9808   62.4329 O   0  0  0  0  0  0  0  0  0  0  0  0
  -40.9520   58.1925   61.5322 C   0  0  0  0  0  0  0  0  0  0  0  0
  -39.9414   57.9055   59.8210 H   0  0  0  0  0  0  0  0  0  0  0  0
  -41.6345   56.0640   62.6172 C   0  0  0  0  0  0  0  0  0  0  0  0
  -41.3069   56.7557   61.5342 C   0  0  0  0  0  0  0  0  0  0  0  0
  -41.7356   56.5598   64.0259 C   0  0  0  0  0  0  0  0  0  0  0  0
  -43.1526   56.4273   64.5704 C   0  0  0  0  0  0  0  0  0  0  0  0
  -43.9916   57.6832   64.4096 C   0  0  0  0  0  0  0  0  0  0  0  0
  -45.1540   57.7669   65.3847 C   0  0  0  0  0  0  0  0  0  0  0  0
  -46.4091   58.3962   64.8099 C   0  0  0  0  0  0  0  0  0  0  0  0
  -47.6930   57.8029   65.3661 C   0  0  0  0  0  0  0  0  0  0  0  0
  -48.9404   58.5521   64.9406 C   0  0  0  0  0  0  0  0  0  0  0  0
  -48.7012   59.4924   63.7763 C   0  0  0  0  0  0  0  0  0  0  0  0
  -49.9097   59.7048   62.8850 C   0  0  0  0  0  0  0  0  0  0  0  0
  -50.6650   58.4202   62.6067 C   0  0  0  0  0  0  0  0  0  0  0  0
  -50.1639   57.6855   61.3740 C   0  0  0  0  0  0  0  0  0  0  0  0
  -49.4879   58.5801   60.3495 C   0  0  0  0  0  0  0  0  0  0  0  0
  -48.9561   57.8420   59.1306 C   0  0  0  0  0  0  0  0  0  0  0  0
  -47.4366   57.8138   59.0403 C   0  0  0  0  0  0  0  0  0  0  0  0
  -46.9120   57.9687   57.6218 C   0  0  0  0  0  0  0  0  0  0  0  0
  -47.1678   55.6009   56.7829 C   0  0  0  0  0  0  0  0  0  0  0  0
  -47.5608   57.0442   56.6078 C   0  0  0  0  0  0  0  0  0  0  0  0
 43 45  1  0  0  0
 43 42  1  0  0  0
 43 46  1  0  0  0
 64 65  1  0  0  0
 44 45  2  0  0  0
 65 63  1  0  0  0
  2  1  1  0  0  0
  2  4  1  0  0  0
  2  5  1  0  0  0
  3  4  2  0  0  0
 63 62  1  0  0  0
  6  8  1  0  0  0
  6 11  2  0  0  0
  7 10  1  0  0  0
  7 11  1  0  0  0
 62 61  1  0  0  0
 26 28  1  0  0  0
 26 32  1  0  0  0
 26 29  1  0  0  0
 12 18  1  0  0  0
 12 19  1  0  0  0
 61 60  1  0  0  0
 30 36  1  0  0  0
 30 37  1  0  0  0
 30 38  1  0  0  0
 20 21  2  0  0  0
 60 59  1  0  0  0
 22 21  1  0  0  0
 22 23  1  0  0  0
 59 58  1  0  0  0
 27 28  2  0  0  0
 58 57  1  0  0  0
 31 37  2  0  0  0
 57 56  1  0  0  0
 56 55  1  0  0  0
 55 54  1  0  0  0
 54 53  1  0  0  0
 53 52  1  0  0  0
 52 51  1  0  0  0
 51 50  1  0  0  0
 50 49  1  0  0  0
 49 47  1  0  0  0
 47 48  2  0  0  0
 48 45  1  0  0  0
 42 41  1  0  0  0
 41 40  1  0  0  0
 40 39  1  0  0  0
 39  1  1  0  0  0
  1 21  1  0  0  0
  8  4  1  0  0  0
  8  9  1  0  0  0
  8 10  1  0  0  0
 11 13  1  0  0  0
 13 14  2  0  0  0
 13 18  1  0  0  0
 14 15  1  0  0  0
 15 16  2  0  0  0
 16 17  1  0  0  0
 17 18  2  0  0  0
 23 24  1  0  0  0
 23 25  1  0  0  0
 25 28  1  0  0  0
 32 33  1  0  0  0
 32 37  1  0  0  0
 33 34  1  0  0  0
 34 35  1  0  0  0
 35 36  1  0  0  0
M  END
> <minimizedAffinity>
-9.51319

> <CNNscore>
0.2301164865

> <CNNaffinity>
7.4894762039

> <CNN_VS>
1.7234519720

> <CNNaffinity_variance>
1.0856230259

$$$$
/media/chris/experiments/cd1a-new-docking/inputs/ligands/7ryo_ligand.pdb


 65 67  0  0  0  0  0  0  0  0999 V2000
  -41.1721   59.6921   62.6972 C   0  0  0  0  0  0  0  0  0  0  0  0
  -39.9742   59.0391   62.1960 N   0  0  0  0  0  0  0  0  0  0  0  0
  -39.2072   60.8962   61.1878 O   0  0  0  0  0  0  0  0  0  0  0  0
  -39.0794   59.7142   61.4705 C   0  0  0  0  0  0  0  0  0  0  0  0
  -39.8205   58.0871   62.3941 H   0  0  0  0  0  0  0  0  0  0  0  0
  -36.6536   59.3534   61.7104 N   0  0  0  0  0  0  0  0  0  0  0  0
  -36.6762   57.1026   61.8393 O   0  0  0  0  0  0  0  0  0  0  0  0
  -37.8516   58.9430   60.9592 C   0  0  0  0  0  0  0  0  0  0  0  0
  -37.6463   59.2648   59.4820 C   0  0  0  0  0  0  0  0  0  0  0  0
  -37.9381   57.4292   61.2035 C   0  0  0  0  0  0  0  0  0  0  0  0
  -36.1005   58.2958   62.1402 C   0  0  0  0  0  0  0  0  0  0  0  0
  -33.5048   57.8711   60.9715 O   0  0  0  0  0  0  0  0  0  0  0  0
  -34.8749   58.2252   62.9395 C   0  0  0  0  0  0  0  0  0  0  0  0
  -34.9118   58.5087   64.3053 C   0  0  0  0  0  0  0  0  0  0  0  0
  -33.7383   58.6843   65.0181 C   0  0  0  0  0  0  0  0  0  0  0  0
  -32.5173   58.5812   64.3880 C   0  0  0  0  0  0  0  0  0  0  0  0
  -32.4532   58.3054   63.0342 C   0  0  0  0  0  0  0  0  0  0  0  0
  -33.6217   58.1278   62.3004 C   0  0  0  0  0  0  0  0  0  0  0  0
  -34.2726   57.7465   60.4492 H   0  0  0  0  0  0  0  0  0  0  0  0
  -41.2291   61.9184   63.6355 O   0  0  0  0  0  0  0  0  0  0  0  0
  -40.8258   60.7896   63.6922 C   0  0  0  0  0  0  0  0  0  0  0  0
  -39.9868   60.3247   64.6341 O   0  0  0  0  0  0  0  0  0  0  0  0
  -40.5439   59.9741   65.9442 C   0  0  0  0  0  0  0  0  0  0  0  0
  -41.2697   61.1814   66.4820 C   0  0  0  0  0  0  0  0  0  0  0  0
  -39.3552   59.5860   66.8020 C   0  0  0  0  0  0  0  0  0  0  0  0
  -37.5662   61.1647   66.4159 N   0  0  0  0  0  0  0  0  0  0  0  0
  -37.4197   59.1290   65.4693 O   0  0  0  0  0  0  0  0  0  0  0  0
  -38.0289   59.9366   66.1650 C   0  0  0  0  0  0  0  0  0  0  0  0
  -38.0982   61.7701   66.9812 H   0  0  0  0  0  0  0  0  0  0  0  0
  -34.6335   63.2806   66.5429 N   0  0  0  0  0  0  0  0  0  0  0  0
  -36.7466   63.5464   67.2463 O   0  0  0  0  0  0  0  0  0  0  0  0
  -36.3004   61.6323   65.8782 C   0  0  0  0  0  0  0  0  0  0  0  0
  -36.4418   61.9303   64.3814 C   0  0  0  0  0  0  0  0  0  0  0  0
  -35.1100   61.9846   63.6406 C   0  0  0  0  0  0  0  0  0  0  0  0
  -34.1500   63.0622   64.1042 C   0  0  0  0  0  0  0  0  0  0  0  0
  -33.6625   62.8878   65.5274 C   0  0  0  0  0  0  0  0  0  0  0  0
  -35.9121   62.9042   66.6154 C   0  0  0  0  0  0  0  0  0  0  0  0
  -34.3119   63.8870   67.2488 H   0  0  0  0  0  0  0  0  0  0  0  0
  -42.1392   58.6806   63.3142 C   0  0  0  0  0  0  0  0  0  0  0  0
  -41.9664   57.2822   62.7311 C   0  0  0  0  0  0  0  0  0  0  0  0
  -42.2552   56.1782   63.7314 C   0  0  0  0  0  0  0  0  0  0  0  0
  -42.3519   56.6370   65.1700 C   0  0  0  0  0  0  0  0  0  0  0  0
  -43.7236   56.5700   65.6482 N   0  0  0  0  0  0  0  0  0  0  0  0
  -43.5996   58.5101   66.7946 O   0  0  0  0  0  0  0  0  0  0  0  0
  -44.2514   57.5175   66.4308 C   0  0  0  0  0  0  0  0  0  0  0  0
  -44.2819   55.8022   65.3874 H   0  0  0  0  0  0  0  0  0  0  0  0
  -46.7189   57.8019   66.3692 C   0  0  0  0  0  0  0  0  0  0  0  0
  -45.6332   57.2387   66.8815 C   0  0  0  0  0  0  0  0  0  0  0  0
  -46.7963   58.7938   65.2509 C   0  0  0  0  0  0  0  0  0  0  0  0
  -48.0229   59.6893   65.3749 C   0  0  0  0  0  0  0  0  0  0  0  0
  -49.0586   59.1780   66.3614 C   0  0  0  0  0  0  0  0  0  0  0  0
  -50.4697   59.1437   65.7985 C   0  0  0  0  0  0  0  0  0  0  0  0
  -51.0401   60.5070   65.4556 C   0  0  0  0  0  0  0  0  0  0  0  0
  -51.1759   60.7478   63.9612 C   0  0  0  0  0  0  0  0  0  0  0  0
  -50.9616   59.5014   63.1250 C   0  0  0  0  0  0  0  0  0  0  0  0
  -49.7153   59.5689   62.2655 C   0  0  0  0  0  0  0  0  0  0  0  0
  -49.9457   59.2424   60.8025 C   0  0  0  0  0  0  0  0  0  0  0  0
  -50.0660   57.7530   60.5469 C   0  0  0  0  0  0  0  0  0  0  0  0
  -49.2127   57.2739   59.3838 C   0  0  0  0  0  0  0  0  0  0  0  0
  -48.6401   55.8790   59.5664 C   0  0  0  0  0  0  0  0  0  0  0  0
  -47.3540   55.6263   58.7950 C   0  0  0  0  0  0  0  0  0  0  0  0
  -47.5621   55.4055   57.3031 C   0  0  0  0  0  0  0  0  0  0  0  0
  -47.3949   56.6697   56.4754 C   0  0  0  0  0  0  0  0  0  0  0  0
  -46.5882   58.7169   57.7141 C   0  0  0  0  0  0  0  0  0  0  0  0
  -46.2072   57.5276   56.8722 C   0  0  0  0  0  0  0  0  0  0  0  0
 43 45  1  0  0  0
 43 42  1  0  0  0
 43 46  1  0  0  0
 64 65  1  0  0  0
 44 45  2  0  0  0
 65 63  1  0  0  0
  2  1  1  0  0  0
  2  4  1  0  0  0
  2  5  1  0  0  0
  3  4  2  0  0  0
 63 62  1  0  0  0
  6  8  1  0  0  0
  6 11  2  0  0  0
  7 10  1  0  0  0
  7 11  1  0  0  0
 62 61  1  0  0  0
 26 28  1  0  0  0
 26 32  1  0  0  0
 26 29  1  0  0  0
 12 18  1  0  0  0
 12 19  1  0  0  0
 61 60  1  0  0  0
 30 36  1  0  0  0
 30 37  1  0  0  0
 30 38  1  0  0  0
 20 21  2  0  0  0
 60 59  1  0  0  0
 22 21  1  0  0  0
 22 23  1  0  0  0
 59 58  1  0  0  0
 27 28  2  0  0  0
 58 57  1  0  0  0
 31 37  2  0  0  0
 57 56  1  0  0  0
 56 55  1  0  0  0
 55 54  1  0  0  0
 54 53  1  0  0  0
 53 52  1  0  0  0
 52 51  1  0  0  0
 51 50  1  0  0  0
 50 49  1  0  0  0
 49 47  1  0  0  0
 47 48  2  0  0  0
 48 45  1  0  0  0
 42 41  1  0  0  0
 41 40  1  0  0  0
 40 39  1  0  0  0
 39  1  1  0  0  0
  1 21  1  0  0  0
  8  4  1  0  0  0
  8  9  1  0  0  0
  8 10  1  0  0  0
 11 13  1  0  0  0
 13 14  2  0  0  0
 13 18  1  0  0  0
 14 15  1  0  0  0
 15 16  2  0  0  0
 16 17  1  0  0  0
 17 18  2  0  0  0
 23 24  1  0  0  0
 23 25  1  0  0  0
 25 28  1  0  0  0
 32 33  1  0  0  0
 32 37  1  0  0  0
 33 34  1  0  0  0
 34 35  1  0  0  0
 35 36  1  0  0  0
M  END
> <minimizedAffinity>
-9.71629

> <CNNscore>
0.2025861889

> <CNNaffinity>
7.8429465294

> <CNN_VS>
1.5888726711

> <CNNaffinity_variance>
1.2953655720

$$$$
/media/chris/experiments/cd1a-new-docking/inputs/ligands/7ryo_ligand.pdb


 65 67  0  0  0  0  0  0  0  0999 V2000
  -39.6399   59.2266   60.8780 C   0  0  0  0  0  0  0  0  0  0  0  0
  -38.2794   59.0218   61.3465 N   0  0  0  0  0  0  0  0  0  0  0  0
  -38.5271   60.3880   63.1145 O   0  0  0  0  0  0  0  0  0  0  0  0
  -37.8350   59.6340   62.4468 C   0  0  0  0  0  0  0  0  0  0  0  0
  -37.6779   58.4240   60.8464 H   0  0  0  0  0  0  0  0  0  0  0  0
  -35.6884   60.6647   63.0809 N   0  0  0  0  0  0  0  0  0  0  0  0
  -35.3006   59.4698   64.9531 O   0  0  0  0  0  0  0  0  0  0  0  0
  -36.3759   59.3815   62.8605 C   0  0  0  0  0  0  0  0  0  0  0  0
  -35.6689   58.6249   61.7400 C   0  0  0  0  0  0  0  0  0  0  0  0
  -36.2417   58.6563   64.2077 C   0  0  0  0  0  0  0  0  0  0  0  0
  -35.1495   60.6087   64.2279 C   0  0  0  0  0  0  0  0  0  0  0  0
  -33.3101   62.2678   62.7625 O   0  0  0  0  0  0  0  0  0  0  0  0
  -34.3583   61.6651   64.8633 C   0  0  0  0  0  0  0  0  0  0  0  0
  -34.5813   62.0002   66.1994 C   0  0  0  0  0  0  0  0  0  0  0  0
  -34.0218   63.1456   66.7390 C   0  0  0  0  0  0  0  0  0  0  0  0
  -33.2366   63.9705   65.9635 C   0  0  0  0  0  0  0  0  0  0  0  0
  -33.0036   63.6635   64.6353 C   0  0  0  0  0  0  0  0  0  0  0  0
  -33.5590   62.5178   64.0743 C   0  0  0  0  0  0  0  0  0  0  0  0
  -33.6693   61.5046   62.3547 H   0  0  0  0  0  0  0  0  0  0  0  0
  -41.7207   58.6504   61.9637 O   0  0  0  0  0  0  0  0  0  0  0  0
  -40.6183   58.3263   61.6174 C   0  0  0  0  0  0  0  0  0  0  0  0
  -40.0685   57.1214   61.8484 O   0  0  0  0  0  0  0  0  0  0  0  0
  -40.9262   55.9374   61.7386 C   0  0  0  0  0  0  0  0  0  0  0  0
  -42.2207   56.3563   61.0887 C   0  0  0  0  0  0  0  0  0  0  0  0
  -41.1263   55.4458   63.1590 C   0  0  0  0  0  0  0  0  0  0  0  0
  -40.9634   57.4176   64.5473 N   0  0  0  0  0  0  0  0  0  0  0  0
  -42.9782   56.4483   64.2976 O   0  0  0  0  0  0  0  0  0  0  0  0
  -41.7752   56.4779   64.0542 C   0  0  0  0  0  0  0  0  0  0  0  0
  -40.0064   57.3913   64.3179 H   0  0  0  0  0  0  0  0  0  0  0  0
  -40.5076   60.5029   66.3824 N   0  0  0  0  0  0  0  0  0  0  0  0
  -39.1212   58.8278   65.8324 O   0  0  0  0  0  0  0  0  0  0  0  0
  -41.4525   58.4772   65.4122 C   0  0  0  0  0  0  0  0  0  0  0  0
  -42.1860   57.8773   66.6170 C   0  0  0  0  0  0  0  0  0  0  0  0
  -43.1072   58.8647   67.3252 C   0  0  0  0  0  0  0  0  0  0  0  0
  -42.4245   60.0788   67.9233 C   0  0  0  0  0  0  0  0  0  0  0  0
  -41.7795   60.9930   66.9027 C   0  0  0  0  0  0  0  0  0  0  0  0
  -40.2585   59.2855   65.8948 C   0  0  0  0  0  0  0  0  0  0  0  0
  -39.7541   61.1365   66.3918 H   0  0  0  0  0  0  0  0  0  0  0  0
  -39.7436   59.0206   59.3661 C   0  0  0  0  0  0  0  0  0  0  0  0
  -41.0836   58.4218   58.9525 C   0  0  0  0  0  0  0  0  0  0  0  0
  -41.8753   59.3179   58.0183 C   0  0  0  0  0  0  0  0  0  0  0  0
  -42.5069   58.6056   56.8422 C   0  0  0  0  0  0  0  0  0  0  0  0
  -43.9357   58.8691   56.7784 N   0  0  0  0  0  0  0  0  0  0  0  0
  -44.4529   57.4022   58.4138 O   0  0  0  0  0  0  0  0  0  0  0  0
  -44.8106   58.2443   57.5740 C   0  0  0  0  0  0  0  0  0  0  0  0
  -44.2698   59.5288   56.1285 H   0  0  0  0  0  0  0  0  0  0  0  0
  -47.1215   57.7401   56.8130 C   0  0  0  0  0  0  0  0  0  0  0  0
  -46.2270   58.5832   57.3104 C   0  0  0  0  0  0  0  0  0  0  0  0
  -46.9191   56.3055   56.4366 C   0  0  0  0  0  0  0  0  0  0  0  0
  -47.6609   55.3651   57.3784 C   0  0  0  0  0  0  0  0  0  0  0  0
  -47.3935   55.6333   58.8494 C   0  0  0  0  0  0  0  0  0  0  0  0
  -48.6094   56.1420   59.6057 C   0  0  0  0  0  0  0  0  0  0  0  0
  -48.4670   57.5537   60.1427 C   0  0  0  0  0  0  0  0  0  0  0  0
  -49.7501   58.3642   60.0626 C   0  0  0  0  0  0  0  0  0  0  0  0
  -50.8625   57.8252   60.9405 C   0  0  0  0  0  0  0  0  0  0  0  0
  -50.5343   57.8830   62.4189 C   0  0  0  0  0  0  0  0  0  0  0  0
  -51.1777   59.0406   63.1579 C   0  0  0  0  0  0  0  0  0  0  0  0
  -50.2195   60.1920   63.3904 C   0  0  0  0  0  0  0  0  0  0  0  0
  -49.7988   60.3372   64.8438 C   0  0  0  0  0  0  0  0  0  0  0  0
  -48.3126   60.1358   65.0837 C   0  0  0  0  0  0  0  0  0  0  0  0
  -47.7258   58.9213   64.3809 C   0  0  0  0  0  0  0  0  0  0  0  0
  -46.2851   58.6193   64.7695 C   0  0  0  0  0  0  0  0  0  0  0  0
  -46.1274   57.3217   65.5457 C   0  0  0  0  0  0  0  0  0  0  0  0
  -46.6043   58.0101   67.9278 C   0  0  0  0  0  0  0  0  0  0  0  0
  -47.0489   57.1910   66.7447 C   0  0  0  0  0  0  0  0  0  0  0  0
 43 45  1  0  0  0
 43 42  1  0  0  0
 43 46  1  0  0  0
 64 65  1  0  0  0
 44 45  2  0  0  0
 65 63  1  0  0  0
  2  1  1  0  0  0
  2  4  1  0  0  0
  2  5  1  0  0  0
  3  4  2  0  0  0
 63 62  1  0  0  0
  6  8  1  0  0  0
  6 11  2  0  0  0
  7 10  1  0  0  0
  7 11  1  0  0  0
 62 61  1  0  0  0
 26 28  1  0  0  0
 26 32  1  0  0  0
 26 29  1  0  0  0
 12 18  1  0  0  0
 12 19  1  0  0  0
 61 60  1  0  0  0
 30 36  1  0  0  0
 30 37  1  0  0  0
 30 38  1  0  0  0
 20 21  2  0  0  0
 60 59  1  0  0  0
 22 21  1  0  0  0
 22 23  1  0  0  0
 59 58  1  0  0  0
 27 28  2  0  0  0
 58 57  1  0  0  0
 31 37  2  0  0  0
 57 56  1  0  0  0
 56 55  1  0  0  0
 55 54  1  0  0  0
 54 53  1  0  0  0
 53 52  1  0  0  0
 52 51  1  0  0  0
 51 50  1  0  0  0
 50 49  1  0  0  0
 49 47  1  0  0  0
 47 48  2  0  0  0
 48 45  1  0  0  0
 42 41  1  0  0  0
 41 40  1  0  0  0
 40 39  1  0  0  0
 39  1  1  0  0  0
  1 21  1  0  0  0
  8  4  1  0  0  0
  8  9  1  0  0  0
  8 10  1  0  0  0
 11 13  1  0  0  0
 13 14  2  0  0  0
 13 18  1  0  0  0
 14 15  1  0  0  0
 15 16  2  0  0  0
 16 17  1  0  0  0
 17 18  2  0  0  0
 23 24  1  0  0  0
 23 25  1  0  0  0
 25 28  1  0  0  0
 32 33  1  0  0  0
 32 37  1  0  0  0
 33 34  1  0  0  0
 34 35  1  0  0  0
 35 36  1  0  0  0
M  END
> <minimizedAffinity>
-7.41951

> <CNNscore>
0.1900263131

> <CNNaffinity>
7.6636948586

> <CNN_VS>
1.4563037157

> <CNNaffinity_variance>
1.9886795282

$$$$
/media/chris/experiments/cd1a-new-docking/inputs/ligands/7ryo_ligand.pdb


 65 67  0  0  0  0  0  0  0  0999 V2000
  -38.5384   58.6801   65.0671 C   0  0  0  0  0  0  0  0  0  0  0  0
  -39.7439   57.8876   64.8907 N   0  0  0  0  0  0  0  0  0  0  0  0
  -39.2511   57.3439   62.7659 O   0  0  0  0  0  0  0  0  0  0  0  0
  -39.9980   57.2770   63.7307 C   0  0  0  0  0  0  0  0  0  0  0  0
  -40.3812   57.7998   65.6359 H   0  0  0  0  0  0  0  0  0  0  0  0
  -42.1637   56.7560   64.7844 N   0  0  0  0  0  0  0  0  0  0  0  0
  -43.4852   57.1138   62.9930 O   0  0  0  0  0  0  0  0  0  0  0  0
  -41.3067   56.4779   63.6199 C   0  0  0  0  0  0  0  0  0  0  0  0
  -40.9751   54.9889   63.5912 C   0  0  0  0  0  0  0  0  0  0  0  0
  -42.1720   56.8898   62.4197 C   0  0  0  0  0  0  0  0  0  0  0  0
  -43.3039   57.0894   64.3392 C   0  0  0  0  0  0  0  0  0  0  0  0
  -43.1766   57.4511   67.1917 O   0  0  0  0  0  0  0  0  0  0  0  0
  -44.4730   57.4528   65.1435 C   0  0  0  0  0  0  0  0  0  0  0  0
  -45.6779   57.7799   64.5205 C   0  0  0  0  0  0  0  0  0  0  0  0
  -46.7087   58.3554   65.2432 C   0  0  0  0  0  0  0  0  0  0  0  0
  -46.5586   58.6129   66.5885 C   0  0  0  0  0  0  0  0  0  0  0  0
  -45.3728   58.3024   67.2289 C   0  0  0  0  0  0  0  0  0  0  0  0
  -44.3245   57.7254   66.5190 C   0  0  0  0  0  0  0  0  0  0  0  0
  -42.4520   57.0624   66.7425 H   0  0  0  0  0  0  0  0  0  0  0  0
  -37.3592   56.8689   66.1487 O   0  0  0  0  0  0  0  0  0  0  0  0
  -37.3415   57.7977   65.3889 C   0  0  0  0  0  0  0  0  0  0  0  0
  -36.2535   58.2159   64.7191 O   0  0  0  0  0  0  0  0  0  0  0  0
  -36.2682   58.1325   63.2554 C   0  0  0  0  0  0  0  0  0  0  0  0
  -35.1125   57.2651   62.8247 C   0  0  0  0  0  0  0  0  0  0  0  0
  -36.1320   59.5607   62.7644 C   0  0  0  0  0  0  0  0  0  0  0  0
  -35.6580   61.2378   64.4391 N   0  0  0  0  0  0  0  0  0  0  0  0
  -33.9273   60.2176   63.4266 O   0  0  0  0  0  0  0  0  0  0  0  0
  -35.1375   60.3683   63.5683 C   0  0  0  0  0  0  0  0  0  0  0  0
  -36.6368   61.3159   64.5098 H   0  0  0  0  0  0  0  0  0  0  0  0
  -34.9918   62.9858   67.5366 N   0  0  0  0  0  0  0  0  0  0  0  0
  -36.8802   62.4868   66.4341 O   0  0  0  0  0  0  0  0  0  0  0  0
  -34.8210   62.0711   65.2846 C   0  0  0  0  0  0  0  0  0  0  0  0
  -34.3269   63.2906   64.4984 C   0  0  0  0  0  0  0  0  0  0  0  0
  -33.1116   63.9684   65.1221 C   0  0  0  0  0  0  0  0  0  0  0  0
  -33.3230   64.5335   66.5127 C   0  0  0  0  0  0  0  0  0  0  0  0
  -33.6228   63.4890   67.5675 C   0  0  0  0  0  0  0  0  0  0  0  0
  -35.6541   62.5335   66.4695 C   0  0  0  0  0  0  0  0  0  0  0  0
  -35.4783   62.9791   68.3926 H   0  0  0  0  0  0  0  0  0  0  0  0
  -38.7307   59.7524   66.1406 C   0  0  0  0  0  0  0  0  0  0  0  0
  -40.2009   59.9841   66.4725 C   0  0  0  0  0  0  0  0  0  0  0  0
  -40.7526   61.2661   65.8770 C   0  0  0  0  0  0  0  0  0  0  0  0
  -41.3040   61.1268   64.4749 C   0  0  0  0  0  0  0  0  0  0  0  0
  -40.2356   60.9051   63.5135 N   0  0  0  0  0  0  0  0  0  0  0  0
  -41.6073   60.9449   61.7217 O   0  0  0  0  0  0  0  0  0  0  0  0
  -40.4662   60.8298   62.1982 C   0  0  0  0  0  0  0  0  0  0  0  0
  -39.3125   60.8071   63.8415 H   0  0  0  0  0  0  0  0  0  0  0  0
  -39.2279   59.6059   60.4256 C   0  0  0  0  0  0  0  0  0  0  0  0
  -39.2693   60.5213   61.3842 C   0  0  0  0  0  0  0  0  0  0  0  0
  -40.3403   58.7235   59.9520 C   0  0  0  0  0  0  0  0  0  0  0  0
  -40.7296   59.0306   58.5111 C   0  0  0  0  0  0  0  0  0  0  0  0
  -42.1281   58.5673   58.1415 C   0  0  0  0  0  0  0  0  0  0  0  0
  -42.6042   59.0853   56.7945 C   0  0  0  0  0  0  0  0  0  0  0  0
  -44.0492   58.7544   56.4718 C   0  0  0  0  0  0  0  0  0  0  0  0
  -44.7962   58.1127   57.6294 C   0  0  0  0  0  0  0  0  0  0  0  0
  -46.2566   57.8375   57.3293 C   0  0  0  0  0  0  0  0  0  0  0  0
  -47.1953   58.3998   58.3779 C   0  0  0  0  0  0  0  0  0  0  0  0
  -47.4985   57.4497   59.5204 C   0  0  0  0  0  0  0  0  0  0  0  0
  -48.8945   56.8642   59.4404 C   0  0  0  0  0  0  0  0  0  0  0  0
  -49.7592   57.2105   60.6415 C   0  0  0  0  0  0  0  0  0  0  0  0
  -49.0851   58.1248   61.6496 C   0  0  0  0  0  0  0  0  0  0  0  0
  -49.9346   59.3092   62.0840 C   0  0  0  0  0  0  0  0  0  0  0  0
  -50.9500   58.9760   63.1684 C   0  0  0  0  0  0  0  0  0  0  0  0
  -50.3394   58.8691   64.5565 C   0  0  0  0  0  0  0  0  0  0  0  0
  -50.7419   61.2930   65.1386 C   0  0  0  0  0  0  0  0  0  0  0  0
  -50.8965   59.8569   65.5654 C   0  0  0  0  0  0  0  0  0  0  0  0
 43 45  1  0  0  0
 43 42  1  0  0  0
 43 46  1  0  0  0
 64 65  1  0  0  0
 44 45  2  0  0  0
 65 63  1  0  0  0
  2  1  1  0  0  0
  2  4  1  0  0  0
  2  5  1  0  0  0
  3  4  2  0  0  0
 63 62  1  0  0  0
  6  8  1  0  0  0
  6 11  2  0  0  0
  7 10  1  0  0  0
  7 11  1  0  0  0
 62 61  1  0  0  0
 26 28  1  0  0  0
 26 32  1  0  0  0
 26 29  1  0  0  0
 12 18  1  0  0  0
 12 19  1  0  0  0
 61 60  1  0  0  0
 30 36  1  0  0  0
 30 37  1  0  0  0
 30 38  1  0  0  0
 20 21  2  0  0  0
 60 59  1  0  0  0
 22 21  1  0  0  0
 22 23  1  0  0  0
 59 58  1  0  0  0
 27 28  2  0  0  0
 58 57  1  0  0  0
 31 37  2  0  0  0
 57 56  1  0  0  0
 56 55  1  0  0  0
 55 54  1  0  0  0
 54 53  1  0  0  0
 53 52  1  0  0  0
 52 51  1  0  0  0
 51 50  1  0  0  0
 50 49  1  0  0  0
 49 47  1  0  0  0
 47 48  2  0  0  0
 48 45  1  0  0  0
 42 41  1  0  0  0
 41 40  1  0  0  0
 40 39  1  0  0  0
 39  1  1  0  0  0
  1 21  1  0  0  0
  8  4  1  0  0  0
  8  9  1  0  0  0
  8 10  1  0  0  0
 11 13  1  0  0  0
 13 14  2  0  0  0
 13 18  1  0  0  0
 14 15  1  0  0  0
 15 16  2  0  0  0
 16 17  1  0  0  0
 17 18  2  0  0  0
 23 24  1  0  0  0
 23 25  1  0  0  0
 25 28  1  0  0  0
 32 33  1  0  0  0
 32 37  1  0  0  0
 33 34  1  0  0  0
 34 35  1  0  0  0
 35 36  1  0  0  0
M  END
> <minimizedAffinity>
-8.26729

> <CNNscore>
0.1852440387

> <CNNaffinity>
7.9195036888

> <CNN_VS>
1.4670408964

> <CNNaffinity_variance>
1.3052701950

$$$$
/media/chris/experiments/cd1a-new-docking/inputs/ligands/7ryo_ligand.pdb


 65 67  0  0  0  0  0  0  0  0999 V2000
  -38.4778   57.7632   61.6698 C   0  0  0  0  0  0  0  0  0  0  0  0
  -38.3809   58.0455   63.0923 N   0  0  0  0  0  0  0  0  0  0  0  0
  -38.2938   60.2718   62.7932 O   0  0  0  0  0  0  0  0  0  0  0  0
  -38.2958   59.3018   63.5365 C   0  0  0  0  0  0  0  0  0  0  0  0
  -38.3782   57.3010   63.7364 H   0  0  0  0  0  0  0  0  0  0  0  0
  -36.8548   60.0844   65.3758 N   0  0  0  0  0  0  0  0  0  0  0  0
  -38.3403   61.4442   66.3895 O   0  0  0  0  0  0  0  0  0  0  0  0
  -38.1728   59.5121   65.0545 C   0  0  0  0  0  0  0  0  0  0  0  0
  -38.3124   58.1628   65.7528 C   0  0  0  0  0  0  0  0  0  0  0  0
  -39.1666   60.5436   65.6089 C   0  0  0  0  0  0  0  0  0  0  0  0
  -37.0572   61.1134   66.0896 C   0  0  0  0  0  0  0  0  0  0  0  0
  -34.2921   60.3423   66.2966 O   0  0  0  0  0  0  0  0  0  0  0  0
  -36.0284   61.9981   66.6415 C   0  0  0  0  0  0  0  0  0  0  0  0
  -36.3387   63.3208   66.9596 C   0  0  0  0  0  0  0  0  0  0  0  0
  -35.3338   64.2282   67.2476 C   0  0  0  0  0  0  0  0  0  0  0  0
  -34.0129   63.8370   67.2242 C   0  0  0  0  0  0  0  0  0  0  0  0
  -33.6782   62.5329   66.9077 C   0  0  0  0  0  0  0  0  0  0  0  0
  -34.6739   61.6069   66.6132 C   0  0  0  0  0  0  0  0  0  0  0  0
  -34.9382   59.6949   66.0932 H   0  0  0  0  0  0  0  0  0  0  0  0
  -37.0948   58.9268   60.0656 O   0  0  0  0  0  0  0  0  0  0  0  0
  -37.1865   58.1192   60.9485 C   0  0  0  0  0  0  0  0  0  0  0  0
  -36.1637   57.3874   61.4235 O   0  0  0  0  0  0  0  0  0  0  0  0
  -34.8815   58.0596   61.6553 C   0  0  0  0  0  0  0  0  0  0  0  0
  -33.8014   57.0079   61.6886 C   0  0  0  0  0  0  0  0  0  0  0  0
  -35.0310   58.7754   62.9837 C   0  0  0  0  0  0  0  0  0  0  0  0
  -34.2841   61.0650   63.1887 N   0  0  0  0  0  0  0  0  0  0  0  0
  -32.7811   59.4181   63.4898 O   0  0  0  0  0  0  0  0  0  0  0  0
  -33.9281   59.7781   63.2405 C   0  0  0  0  0  0  0  0  0  0  0  0
  -35.2192   61.2947   62.9841 H   0  0  0  0  0  0  0  0  0  0  0  0
  -33.4760   64.5330   63.8321 N   0  0  0  0  0  0  0  0  0  0  0  0
  -35.1446   63.5292   62.7190 O   0  0  0  0  0  0  0  0  0  0  0  0
  -33.3305   62.1348   63.4257 C   0  0  0  0  0  0  0  0  0  0  0  0
  -32.1989   62.0700   62.3939 C   0  0  0  0  0  0  0  0  0  0  0  0
  -30.9464   62.8328   62.8120 C   0  0  0  0  0  0  0  0  0  0  0  0
  -31.1282   64.3244   63.0117 C   0  0  0  0  0  0  0  0  0  0  0  0
  -32.0603   64.6887   64.1483 C   0  0  0  0  0  0  0  0  0  0  0  0
  -34.0626   63.4611   63.2947 C   0  0  0  0  0  0  0  0  0  0  0  0
  -34.0600   65.2989   64.0365 H   0  0  0  0  0  0  0  0  0  0  0  0
  -39.6714   58.4835   61.0407 C   0  0  0  0  0  0  0  0  0  0  0  0
  -40.6911   57.5133   60.4539 C   0  0  0  0  0  0  0  0  0  0  0  0
  -41.8129   57.1715   61.4169 C   0  0  0  0  0  0  0  0  0  0  0  0
  -41.5161   56.0186   62.3508 C   0  0  0  0  0  0  0  0  0  0  0  0
  -42.3533   56.0800   63.5383 N   0  0  0  0  0  0  0  0  0  0  0  0
  -41.3013   57.8832   64.3959 O   0  0  0  0  0  0  0  0  0  0  0  0
  -42.1841   57.0138   64.4807 C   0  0  0  0  0  0  0  0  0  0  0  0
  -43.0678   55.4124   63.6522 H   0  0  0  0  0  0  0  0  0  0  0  0
  -44.2527   57.4697   65.7794 C   0  0  0  0  0  0  0  0  0  0  0  0
  -43.0772   56.8693   65.6520 C   0  0  0  0  0  0  0  0  0  0  0  0
  -44.9285   58.3789   64.8011 C   0  0  0  0  0  0  0  0  0  0  0  0
  -46.4309   58.1309   64.7454 C   0  0  0  0  0  0  0  0  0  0  0  0
  -47.0662   57.9041   66.1063 C   0  0  0  0  0  0  0  0  0  0  0  0
  -47.9534   59.0506   66.5619 C   0  0  0  0  0  0  0  0  0  0  0  0
  -49.1363   59.3263   65.6528 C   0  0  0  0  0  0  0  0  0  0  0  0
  -48.9828   60.5929   64.8271 C   0  0  0  0  0  0  0  0  0  0  0  0
  -49.2206   60.3819   63.3447 C   0  0  0  0  0  0  0  0  0  0  0  0
  -50.5813   59.7885   63.0393 C   0  0  0  0  0  0  0  0  0  0  0  0
  -50.6323   58.2742   63.1039 C   0  0  0  0  0  0  0  0  0  0  0  0
  -49.8590   57.6138   61.9796 C   0  0  0  0  0  0  0  0  0  0  0  0
  -50.2996   58.0727   60.5991 C   0  0  0  0  0  0  0  0  0  0  0  0
  -49.1602   58.2520   59.6109 C   0  0  0  0  0  0  0  0  0  0  0  0
  -47.8261   57.7005   60.0896 C   0  0  0  0  0  0  0  0  0  0  0  0
  -46.8733   57.3248   58.9632 C   0  0  0  0  0  0  0  0  0  0  0  0
  -47.2092   57.9921   57.6391 C   0  0  0  0  0  0  0  0  0  0  0  0
  -47.1629   55.6097   56.8033 C   0  0  0  0  0  0  0  0  0  0  0  0
  -47.5856   57.0288   56.5280 C   0  0  0  0  0  0  0  0  0  0  0  0
 43 45  1  0  0  0
 43 42  1  0  0  0
 43 46  1  0  0  0
 64 65  1  0  0  0
 44 45  2  0  0  0
 65 63  1  0  0  0
  2  1  1  0  0  0
  2  4  1  0  0  0
  2  5  1  0  0  0
  3  4  2  0  0  0
 63 62  1  0  0  0
  6  8  1  0  0  0
  6 11  2  0  0  0
  7 10  1  0  0  0
  7 11  1  0  0  0
 62 61  1  0  0  0
 26 28  1  0  0  0
 26 32  1  0  0  0
 26 29  1  0  0  0
 12 18  1  0  0  0
 12 19  1  0  0  0
 61 60  1  0  0  0
 30 36  1  0  0  0
 30 37  1  0  0  0
 30 38  1  0  0  0
 20 21  2  0  0  0
 60 59  1  0  0  0
 22 21  1  0  0  0
 22 23  1  0  0  0
 59 58  1  0  0  0
 27 28  2  0  0  0
 58 57  1  0  0  0
 31 37  2  0  0  0
 57 56  1  0  0  0
 56 55  1  0  0  0
 55 54  1  0  0  0
 54 53  1  0  0  0
 53 52  1  0  0  0
 52 51  1  0  0  0
 51 50  1  0  0  0
 50 49  1  0  0  0
 49 47  1  0  0  0
 47 48  2  0  0  0
 48 45  1  0  0  0
 42 41  1  0  0  0
 41 40  1  0  0  0
 40 39  1  0  0  0
 39  1  1  0  0  0
  1 21  1  0  0  0
  8  4  1  0  0  0
  8  9  1  0  0  0
  8 10  1  0  0  0
 11 13  1  0  0  0
 13 14  2  0  0  0
 13 18  1  0  0  0
 14 15  1  0  0  0
 15 16  2  0  0  0
 16 17  1  0  0  0
 17 18  2  0  0  0
 23 24  1  0  0  0
 23 25  1  0  0  0
 25 28  1  0  0  0
 32 33  1  0  0  0
 32 37  1  0  0  0
 33 34  1  0  0  0
 34 35  1  0  0  0
 35 36  1  0  0  0
M  END
> <minimizedAffinity>
-9.85293

> <CNNscore>
0.1779667735

> <CNNaffinity>
7.4678816795

> <CNN_VS>
1.3290348053

> <CNNaffinity_variance>
1.2188704014

$$$$
