/media/chris/experiments/cd1a-new-docking/inputs/ligands/7ryo_ligand.pdb


 65 67  0  0  0  0  0  0  0  0999 V2000
  -34.2495   57.9482   62.8233 C   0  0  0  0  0  0  0  0  0  0  0  0
  -34.8524   59.2084   63.2245 N   0  0  0  0  0  0  0  0  0  0  0  0
  -34.3679   58.9156   65.4001 O   0  0  0  0  0  0  0  0  0  0  0  0
  -34.8578   59.5876   64.5047 C   0  0  0  0  0  0  0  0  0  0  0  0
  -35.2620   59.7897   62.5436 H   0  0  0  0  0  0  0  0  0  0  0  0
  -34.5596   61.8405   65.4572 N   0  0  0  0  0  0  0  0  0  0  0  0
  -35.4972   63.0229   63.7820 O   0  0  0  0  0  0  0  0  0  0  0  0
  -35.5369   60.9238   64.8474 C   0  0  0  0  0  0  0  0  0  0  0  0
  -36.6633   60.6639   65.8433 C   0  0  0  0  0  0  0  0  0  0  0  0
  -36.0365   61.6875   63.6121 C   0  0  0  0  0  0  0  0  0  0  0  0
  -34.6163   62.9316   64.8122 C   0  0  0  0  0  0  0  0  0  0  0  0
  -33.2906   63.4019   67.3232 O   0  0  0  0  0  0  0  0  0  0  0  0
  -33.8178   64.1317   65.0728 C   0  0  0  0  0  0  0  0  0  0  0  0
  -33.5535   65.0346   64.0421 C   0  0  0  0  0  0  0  0  0  0  0  0
  -32.6093   66.0331   64.2083 C   0  0  0  0  0  0  0  0  0  0  0  0
  -31.9176   66.1489   65.3944 C   0  0  0  0  0  0  0  0  0  0  0  0
  -32.1575   65.2640   66.4298 C   0  0  0  0  0  0  0  0  0  0  0  0
  -33.1012   64.2524   66.2811 C   0  0  0  0  0  0  0  0  0  0  0  0
  -33.9187   62.7100   67.2549 H   0  0  0  0  0  0  0  0  0  0  0  0
  -32.6046   58.7099   61.2249 O   0  0  0  0  0  0  0  0  0  0  0  0
  -32.8511   58.1605   62.2630 C   0  0  0  0  0  0  0  0  0  0  0  0
  -31.9285   57.6280   63.0831 O   0  0  0  0  0  0  0  0  0  0  0  0
  -30.6012   57.3351   62.5334 C   0  0  0  0  0  0  0  0  0  0  0  0
  -30.4891   55.8424   62.3519 C   0  0  0  0  0  0  0  0  0  0  0  0
  -29.6117   57.8683   63.5512 C   0  0  0  0  0  0  0  0  0  0  0  0
  -29.9545   59.9466   62.3657 N   0  0  0  0  0  0  0  0  0  0  0  0
  -28.5481   59.9357   64.1218 O   0  0  0  0  0  0  0  0  0  0  0  0
  -29.3186   59.3414   63.3731 C   0  0  0  0  0  0  0  0  0  0  0  0
  -30.5611   59.4190   61.7975 H   0  0  0  0  0  0  0  0  0  0  0  0
  -30.8238   63.4270   62.8394 N   0  0  0  0  0  0  0  0  0  0  0  0
  -32.0078   61.5247   62.9378 O   0  0  0  0  0  0  0  0  0  0  0  0
  -29.7761   61.3604   62.0850 C   0  0  0  0  0  0  0  0  0  0  0  0
  -29.7038   61.5919   60.5714 C   0  0  0  0  0  0  0  0  0  0  0  0
  -29.0787   62.9285   60.1868 C   0  0  0  0  0  0  0  0  0  0  0  0
  -29.8179   64.1582   60.6755 C   0  0  0  0  0  0  0  0  0  0  0  0
  -29.8568   64.3002   62.1827 C   0  0  0  0  0  0  0  0  0  0  0  0
  -30.9670   62.1123   62.6579 C   0  0  0  0  0  0  0  0  0  0  0  0
  -31.4346   63.8521   63.4841 H   0  0  0  0  0  0  0  0  0  0  0  0
  -35.1326   57.2044   61.8204 C   0  0  0  0  0  0  0  0  0  0  0  0
  -36.3813   57.9963   61.4477 C   0  0  0  0  0  0  0  0  0  0  0  0
  -37.6643   57.3584   61.9473 C   0  0  0  0  0  0  0  0  0  0  0  0
  -38.2336   57.9814   63.2032 C   0  0  0  0  0  0  0  0  0  0  0  0
  -39.6676   58.1891   63.0790 N   0  0  0  0  0  0  0  0  0  0  0  0
  -39.6210   60.2522   63.9926 O   0  0  0  0  0  0  0  0  0  0  0  0
  -40.2611   59.3166   63.4853 C   0  0  0  0  0  0  0  0  0  0  0  0
  -40.2194   57.4764   62.6829 H   0  0  0  0  0  0  0  0  0  0  0  0
  -42.5743   58.8972   64.2895 C   0  0  0  0  0  0  0  0  0  0  0  0
  -41.7351   59.3144   63.3513 C   0  0  0  0  0  0  0  0  0  0  0  0
  -42.2401   58.3723   65.6509 C   0  0  0  0  0  0  0  0  0  0  0  0
  -43.4391   57.6965   66.3048 C   0  0  0  0  0  0  0  0  0  0  0  0
  -44.5188   57.2781   65.3219 C   0  0  0  0  0  0  0  0  0  0  0  0
  -45.9207   57.6768   65.7521 C   0  0  0  0  0  0  0  0  0  0  0  0
  -46.6036   58.6634   64.8237 C   0  0  0  0  0  0  0  0  0  0  0  0
  -47.9780   59.0966   65.3061 C   0  0  0  0  0  0  0  0  0  0  0  0
  -49.0765   58.1055   64.9743 C   0  0  0  0  0  0  0  0  0  0  0  0
  -50.4660   58.7020   65.0757 C   0  0  0  0  0  0  0  0  0  0  0  0
  -50.8151   59.6680   63.9598 C   0  0  0  0  0  0  0  0  0  0  0  0
  -50.7060   59.0387   62.5850 C   0  0  0  0  0  0  0  0  0  0  0  0
  -49.7255   59.7578   61.6730 C   0  0  0  0  0  0  0  0  0  0  0  0
  -49.4583   59.0420   60.3602 C   0  0  0  0  0  0  0  0  0  0  0  0
  -49.0369   57.5891   60.5161 C   0  0  0  0  0  0  0  0  0  0  0  0
  -47.9606   57.1495   59.5329 C   0  0  0  0  0  0  0  0  0  0  0  0
  -47.4122   58.2880   58.6879 C   0  0  0  0  0  0  0  0  0  0  0  0
  -47.3251   56.7662   56.6748 C   0  0  0  0  0  0  0  0  0  0  0  0
  -46.6297   57.8428   57.4657 C   0  0  0  0  0  0  0  0  0  0  0  0
 43 45  1  0  0  0
 43 42  1  0  0  0
 43 46  1  0  0  0
 64 65  1  0  0  0
 44 45  2  0  0  0
 65 63  1  0  0  0
  2  1  1  0  0  0
  2  4  1  0  0  0
  2  5  1  0  0  0
  3  4  2  0  0  0
 63 62  1  0  0  0
  6  8  1  0  0  0
  6 11  2  0  0  0
  7 10  1  0  0  0
  7 11  1  0  0  0
 62 61  1  0  0  0
 26 28  1  0  0  0
 26 32  1  0  0  0
 26 29  1  0  0  0
 12 18  1  0  0  0
 12 19  1  0  0  0
 61 60  1  0  0  0
 30 36  1  0  0  0
 30 37  1  0  0  0
 30 38  1  0  0  0
 20 21  2  0  0  0
 60 59  1  0  0  0
 22 21  1  0  0  0
 22 23  1  0  0  0
 59 58  1  0  0  0
 27 28  2  0  0  0
 58 57  1  0  0  0
 31 37  2  0  0  0
 57 56  1  0  0  0
 56 55  1  0  0  0
 55 54  1  0  0  0
 54 53  1  0  0  0
 53 52  1  0  0  0
 52 51  1  0  0  0
 51 50  1  0  0  0
 50 49  1  0  0  0
 49 47  1  0  0  0
 47 48  2  0  0  0
 48 45  1  0  0  0
 42 41  1  0  0  0
 41 40  1  0  0  0
 40 39  1  0  0  0
 39  1  1  0  0  0
  1 21  1  0  0  0
  8  4  1  0  0  0
  8  9  1  0  0  0
  8 10  1  0  0  0
 11 13  1  0  0  0
 13 14  2  0  0  0
 13 18  1  0  0  0
 14 15  1  0  0  0
 15 16  2  0  0  0
 16 17  1  0  0  0
 17 18  2  0  0  0
 23 24  1  0  0  0
 23 25  1  0  0  0
 25 28  1  0  0  0
 32 33  1  0  0  0
 32 37  1  0  0  0
 33 34  1  0  0  0
 34 35  1  0  0  0
 35 36  1  0  0  0
M  END
> <minimizedAffinity>
-10.29620

> <CNNscore>
0.5215923190

> <CNNaffinity>
7.3835372925

> <CNN_VS>
3.8511962891

> <CNNaffinity_variance>
0.7296065092

$$$$
/media/chris/experiments/cd1a-new-docking/inputs/ligands/7ryo_ligand.pdb


 65 67  0  0  0  0  0  0  0  0999 V2000
  -35.8058   58.5372   62.4063 C   0  0  0  0  0  0  0  0  0  0  0  0
  -34.3626   58.4808   62.2443 N   0  0  0  0  0  0  0  0  0  0  0  0
  -34.0439   60.5534   63.0545 O   0  0  0  0  0  0  0  0  0  0  0  0
  -33.5941   59.5164   62.5903 C   0  0  0  0  0  0  0  0  0  0  0  0
  -33.9464   57.6687   61.8748 H   0  0  0  0  0  0  0  0  0  0  0  0
  -31.5088   58.4357   63.3360 N   0  0  0  0  0  0  0  0  0  0  0  0
  -30.7873   57.7115   61.3265 O   0  0  0  0  0  0  0  0  0  0  0  0
  -32.0789   59.3839   62.3647 C   0  0  0  0  0  0  0  0  0  0  0  0
  -31.4290   60.7499   62.5633 C   0  0  0  0  0  0  0  0  0  0  0  0
  -31.7171   58.7760   61.0015 C   0  0  0  0  0  0  0  0  0  0  0  0
  -30.8398   57.5821   62.6778 C   0  0  0  0  0  0  0  0  0  0  0  0
  -29.4965   55.6405   61.0318 O   0  0  0  0  0  0  0  0  0  0  0  0
  -30.0961   56.4504   63.2362 C   0  0  0  0  0  0  0  0  0  0  0  0
  -29.8932   56.3567   64.6137 C   0  0  0  0  0  0  0  0  0  0  0  0
  -28.9958   55.4380   65.1304 C   0  0  0  0  0  0  0  0  0  0  0  0
  -28.2908   54.6033   64.2909 C   0  0  0  0  0  0  0  0  0  0  0  0
  -28.4701   54.6791   62.9217 C   0  0  0  0  0  0  0  0  0  0  0  0
  -29.3660   55.5974   62.3833 C   0  0  0  0  0  0  0  0  0  0  0  0
  -30.0914   56.2477   60.6377 H   0  0  0  0  0  0  0  0  0  0  0  0
  -35.5142   57.2528   64.4326 O   0  0  0  0  0  0  0  0  0  0  0  0
  -36.2418   57.8625   63.6983 C   0  0  0  0  0  0  0  0  0  0  0  0
  -37.5618   58.0261   63.8937 O   0  0  0  0  0  0  0  0  0  0  0  0
  -38.0005   58.7138   65.1120 C   0  0  0  0  0  0  0  0  0  0  0  0
  -39.4152   58.2840   65.4080 C   0  0  0  0  0  0  0  0  0  0  0  0
  -37.9004   60.1948   64.8025 C   0  0  0  0  0  0  0  0  0  0  0  0
  -36.4177   62.0968   64.9643 N   0  0  0  0  0  0  0  0  0  0  0  0
  -35.7597   60.1467   65.8730 O   0  0  0  0  0  0  0  0  0  0  0  0
  -36.5945   60.8058   65.2598 C   0  0  0  0  0  0  0  0  0  0  0  0
  -37.1221   62.5750   64.4700 H   0  0  0  0  0  0  0  0  0  0  0  0
  -34.3452   63.7541   67.4244 N   0  0  0  0  0  0  0  0  0  0  0  0
  -36.5637   63.5064   67.2060 O   0  0  0  0  0  0  0  0  0  0  0  0
  -35.2159   62.8148   65.3514 C   0  0  0  0  0  0  0  0  0  0  0  0
  -34.9417   63.9542   64.3633 C   0  0  0  0  0  0  0  0  0  0  0  0
  -33.5062   64.4667   64.4047 C   0  0  0  0  0  0  0  0  0  0  0  0
  -33.0643   65.0610   65.7272 C   0  0  0  0  0  0  0  0  0  0  0  0
  -33.0323   64.0705   66.8723 C   0  0  0  0  0  0  0  0  0  0  0  0
  -35.4332   63.3893   66.7423 C   0  0  0  0  0  0  0  0  0  0  0  0
  -34.4385   63.8160   68.4025 H   0  0  0  0  0  0  0  0  0  0  0  0
  -36.5242   57.9269   61.2019 C   0  0  0  0  0  0  0  0  0  0  0  0
  -37.2188   58.9801   60.3455 C   0  0  0  0  0  0  0  0  0  0  0  0
  -38.2438   59.7935   61.1139 C   0  0  0  0  0  0  0  0  0  0  0  0
  -39.6729   59.3224   60.9564 C   0  0  0  0  0  0  0  0  0  0  0  0
  -39.9581   58.2117   61.8508 N   0  0  0  0  0  0  0  0  0  0  0  0
  -41.4923   57.2803   60.4826 O   0  0  0  0  0  0  0  0  0  0  0  0
  -40.8528   57.2651   61.5471 C   0  0  0  0  0  0  0  0  0  0  0  0
  -39.4768   58.1547   62.7077 H   0  0  0  0  0  0  0  0  0  0  0  0
  -42.0249   56.3251   63.5259 C   0  0  0  0  0  0  0  0  0  0  0  0
  -41.0655   56.2603   62.6126 C   0  0  0  0  0  0  0  0  0  0  0  0
  -43.0817   57.3749   63.6727 C   0  0  0  0  0  0  0  0  0  0  0  0
  -44.0380   57.0568   64.8156 C   0  0  0  0  0  0  0  0  0  0  0  0
  -45.2051   58.0225   64.9255 C   0  0  0  0  0  0  0  0  0  0  0  0
  -46.0152   57.8551   66.2002 C   0  0  0  0  0  0  0  0  0  0  0  0
  -47.4194   58.4250   66.1290 C   0  0  0  0  0  0  0  0  0  0  0  0
  -47.9447   58.5645   64.7098 C   0  0  0  0  0  0  0  0  0  0  0  0
  -49.4437   58.3665   64.5967 C   0  0  0  0  0  0  0  0  0  0  0  0
  -50.1952   59.6551   64.3297 C   0  0  0  0  0  0  0  0  0  0  0  0
  -50.8705   59.7159   62.9731 C   0  0  0  0  0  0  0  0  0  0  0  0
  -50.5699   58.5033   62.1144 C   0  0  0  0  0  0  0  0  0  0  0  0
  -49.6489   58.8107   60.9450 C   0  0  0  0  0  0  0  0  0  0  0  0
  -49.9874   58.0544   59.6720 C   0  0  0  0  0  0  0  0  0  0  0  0
  -48.8603   57.1777   59.1485 C   0  0  0  0  0  0  0  0  0  0  0  0
  -47.5019   57.8652   59.1281 C   0  0  0  0  0  0  0  0  0  0  0  0
  -46.9700   58.1118   57.7256 C   0  0  0  0  0  0  0  0  0  0  0  0
  -46.9922   55.7725   56.7753 C   0  0  0  0  0  0  0  0  0  0  0  0
  -47.5277   57.1761   56.6685 C   0  0  0  0  0  0  0  0  0  0  0  0
 43 45  1  0  0  0
 43 42  1  0  0  0
 43 46  1  0  0  0
 64 65  1  0  0  0
 44 45  2  0  0  0
 65 63  1  0  0  0
  2  1  1  0  0  0
  2  4  1  0  0  0
  2  5  1  0  0  0
  3  4  2  0  0  0
 63 62  1  0  0  0
  6  8  1  0  0  0
  6 11  2  0  0  0
  7 10  1  0  0  0
  7 11  1  0  0  0
 62 61  1  0  0  0
 26 28  1  0  0  0
 26 32  1  0  0  0
 26 29  1  0  0  0
 12 18  1  0  0  0
 12 19  1  0  0  0
 61 60  1  0  0  0
 30 36  1  0  0  0
 30 37  1  0  0  0
 30 38  1  0  0  0
 20 21  2  0  0  0
 60 59  1  0  0  0
 22 21  1  0  0  0
 22 23  1  0  0  0
 59 58  1  0  0  0
 27 28  2  0  0  0
 58 57  1  0  0  0
 31 37  2  0  0  0
 57 56  1  0  0  0
 56 55  1  0  0  0
 55 54  1  0  0  0
 54 53  1  0  0  0
 53 52  1  0  0  0
 52 51  1  0  0  0
 51 50  1  0  0  0
 50 49  1  0  0  0
 49 47  1  0  0  0
 47 48  2  0  0  0
 48 45  1  0  0  0
 42 41  1  0  0  0
 41 40  1  0  0  0
 40 39  1  0  0  0
 39  1  1  0  0  0
  1 21  1  0  0  0
  8  4  1  0  0  0
  8  9  1  0  0  0
  8 10  1  0  0  0
 11 13  1  0  0  0
 13 14  2  0  0  0
 13 18  1  0  0  0
 14 15  1  0  0  0
 15 16  2  0  0  0
 16 17  1  0  0  0
 17 18  2  0  0  0
 23 24  1  0  0  0
 23 25  1  0  0  0
 25 28  1  0  0  0
 32 33  1  0  0  0
 32 37  1  0  0  0
 33 34  1  0  0  0
 34 35  1  0  0  0
 35 36  1  0  0  0
M  END
> <minimizedAffinity>
-11.54313

> <CNNscore>
0.4152429700

> <CNNaffinity>
7.6016983986

> <CNN_VS>
3.1565518379

> <CNNaffinity_variance>
0.8102440834

$$$$
/media/chris/experiments/cd1a-new-docking/inputs/ligands/7ryo_ligand.pdb


 65 67  0  0  0  0  0  0  0  0999 V2000
  -34.5270   62.1228   63.8834 C   0  0  0  0  0  0  0  0  0  0  0  0
  -34.8606   60.7228   63.6806 N   0  0  0  0  0  0  0  0  0  0  0  0
  -36.7519   61.1850   62.5568 O   0  0  0  0  0  0  0  0  0  0  0  0
  -35.9672   60.3715   63.0212 C   0  0  0  0  0  0  0  0  0  0  0  0
  -34.2631   60.0247   64.0339 H   0  0  0  0  0  0  0  0  0  0  0  0
  -37.6745   58.6011   63.1718 N   0  0  0  0  0  0  0  0  0  0  0  0
  -37.3155   57.6387   61.1647 O   0  0  0  0  0  0  0  0  0  0  0  0
  -36.2585   58.8693   62.8710 C   0  0  0  0  0  0  0  0  0  0  0  0
  -35.3862   58.0964   63.8557 C   0  0  0  0  0  0  0  0  0  0  0  0
  -36.0840   58.3558   61.4341 C   0  0  0  0  0  0  0  0  0  0  0  0
  -38.1461   57.9411   62.1963 C   0  0  0  0  0  0  0  0  0  0  0  0
  -39.9294   58.8537   60.1298 O   0  0  0  0  0  0  0  0  0  0  0  0
  -39.5218   57.4549   62.0668 C   0  0  0  0  0  0  0  0  0  0  0  0
  -39.9736   56.4082   62.8717 C   0  0  0  0  0  0  0  0  0  0  0  0
  -41.1765   55.7804   62.5976 C   0  0  0  0  0  0  0  0  0  0  0  0
  -41.9443   56.1811   61.5259 C   0  0  0  0  0  0  0  0  0  0  0  0
  -41.5171   57.2129   60.7100 C   0  0  0  0  0  0  0  0  0  0  0  0
  -40.3098   57.8547   60.9680 C   0  0  0  0  0  0  0  0  0  0  0  0
  -39.1219   59.3059   60.2759 H   0  0  0  0  0  0  0  0  0  0  0  0
  -32.3550   63.1371   64.1906 O   0  0  0  0  0  0  0  0  0  0  0  0
  -33.0622   62.3906   63.5718 C   0  0  0  0  0  0  0  0  0  0  0  0
  -32.6739   61.6900   62.4921 O   0  0  0  0  0  0  0  0  0  0  0  0
  -31.2762   61.7991   62.0629 C   0  0  0  0  0  0  0  0  0  0  0  0
  -31.1525   63.0131   61.1771 C   0  0  0  0  0  0  0  0  0  0  0  0
  -30.9758   60.5110   61.3214 C   0  0  0  0  0  0  0  0  0  0  0  0
  -30.4422   58.2880   62.1061 N   0  0  0  0  0  0  0  0  0  0  0  0
  -29.0838   59.9837   62.6902 O   0  0  0  0  0  0  0  0  0  0  0  0
  -30.0822   59.5747   62.1042 C   0  0  0  0  0  0  0  0  0  0  0  0
  -31.2534   58.0177   61.6184 H   0  0  0  0  0  0  0  0  0  0  0  0
  -28.7603   55.0872   62.2465 N   0  0  0  0  0  0  0  0  0  0  0  0
  -30.5420   55.8334   61.1067 O   0  0  0  0  0  0  0  0  0  0  0  0
  -29.6708   57.2766   62.8075 C   0  0  0  0  0  0  0  0  0  0  0  0
  -30.2868   57.0053   64.1847 C   0  0  0  0  0  0  0  0  0  0  0  0
  -29.3312   56.3235   65.1578 C   0  0  0  0  0  0  0  0  0  0  0  0
  -28.8418   54.9519   64.7373 C   0  0  0  0  0  0  0  0  0  0  0  0
  -27.9952   54.9537   63.4816 C   0  0  0  0  0  0  0  0  0  0  0  0
  -29.6953   56.0016   61.9794 C   0  0  0  0  0  0  0  0  0  0  0  0
  -28.5665   54.4343   61.5355 H   0  0  0  0  0  0  0  0  0  0  0  0
  -34.8757   62.5771   65.3015 C   0  0  0  0  0  0  0  0  0  0  0  0
  -35.5838   61.4891   66.1018 C   0  0  0  0  0  0  0  0  0  0  0  0
  -37.0781   61.7194   66.2307 C   0  0  0  0  0  0  0  0  0  0  0  0
  -37.9216   60.4664   66.1425 C   0  0  0  0  0  0  0  0  0  0  0  0
  -38.8551   60.5428   65.0300 N   0  0  0  0  0  0  0  0  0  0  0  0
  -40.6254   61.0659   66.3283 O   0  0  0  0  0  0  0  0  0  0  0  0
  -40.1476   60.8389   65.2047 C   0  0  0  0  0  0  0  0  0  0  0  0
  -38.5248   60.3709   64.1186 H   0  0  0  0  0  0  0  0  0  0  0  0
  -41.8472   59.8496   63.6862 C   0  0  0  0  0  0  0  0  0  0  0  0
  -40.9582   60.7926   63.9673 C   0  0  0  0  0  0  0  0  0  0  0  0
  -42.2342   58.6741   64.5282 C   0  0  0  0  0  0  0  0  0  0  0  0
  -43.6889   58.2772   64.3083 C   0  0  0  0  0  0  0  0  0  0  0  0
  -44.3306   57.6079   65.5113 C   0  0  0  0  0  0  0  0  0  0  0  0
  -45.8407   57.7689   65.5635 C   0  0  0  0  0  0  0  0  0  0  0  0
  -46.3868   58.1105   66.9370 C   0  0  0  0  0  0  0  0  0  0  0  0
  -47.6346   58.9768   66.8940 C   0  0  0  0  0  0  0  0  0  0  0  0
  -47.9769   59.4771   65.5042 C   0  0  0  0  0  0  0  0  0  0  0  0
  -49.4688   59.5927   65.2646 C   0  0  0  0  0  0  0  0  0  0  0  0
  -50.0587   58.4667   64.4372 C   0  0  0  0  0  0  0  0  0  0  0  0
  -51.0202   58.9621   63.3751 C   0  0  0  0  0  0  0  0  0  0  0  0
  -50.3860   59.9447   62.4042 C   0  0  0  0  0  0  0  0  0  0  0  0
  -49.6235   59.2890   61.2659 C   0  0  0  0  0  0  0  0  0  0  0  0
  -50.2490   57.9996   60.7568 C   0  0  0  0  0  0  0  0  0  0  0  0
  -49.2547   57.0439   60.1115 C   0  0  0  0  0  0  0  0  0  0  0  0
  -48.5949   57.6092   58.8641 C   0  0  0  0  0  0  0  0  0  0  0  0
  -46.3308   58.0228   57.8254 C   0  0  0  0  0  0  0  0  0  0  0  0
  -47.2072   57.0614   58.5843 C   0  0  0  0  0  0  0  0  0  0  0  0
 43 45  1  0  0  0
 43 42  1  0  0  0
 43 46  1  0  0  0
 64 65  1  0  0  0
 44 45  2  0  0  0
 65 63  1  0  0  0
  2  1  1  0  0  0
  2  4  1  0  0  0
  2  5  1  0  0  0
  3  4  2  0  0  0
 63 62  1  0  0  0
  6  8  1  0  0  0
  6 11  2  0  0  0
  7 10  1  0  0  0
  7 11  1  0  0  0
 62 61  1  0  0  0
 26 28  1  0  0  0
 26 32  1  0  0  0
 26 29  1  0  0  0
 12 18  1  0  0  0
 12 19  1  0  0  0
 61 60  1  0  0  0
 30 36  1  0  0  0
 30 37  1  0  0  0
 30 38  1  0  0  0
 20 21  2  0  0  0
 60 59  1  0  0  0
 22 21  1  0  0  0
 22 23  1  0  0  0
 59 58  1  0  0  0
 27 28  2  0  0  0
 58 57  1  0  0  0
 31 37  2  0  0  0
 57 56  1  0  0  0
 56 55  1  0  0  0
 55 54  1  0  0  0
 54 53  1  0  0  0
 53 52  1  0  0  0
 52 51  1  0  0  0
 51 50  1  0  0  0
 50 49  1  0  0  0
 49 47  1  0  0  0
 47 48  2  0  0  0
 48 45  1  0  0  0
 42 41  1  0  0  0
 41 40  1  0  0  0
 40 39  1  0  0  0
 39  1  1  0  0  0
  1 21  1  0  0  0
  8  4  1  0  0  0
  8  9  1  0  0  0
  8 10  1  0  0  0
 11 13  1  0  0  0
 13 14  2  0  0  0
 13 18  1  0  0  0
 14 15  1  0  0  0
 15 16  2  0  0  0
 16 17  1  0  0  0
 17 18  2  0  0  0
 23 24  1  0  0  0
 23 25  1  0  0  0
 25 28  1  0  0  0
 32 33  1  0  0  0
 32 37  1  0  0  0
 33 34  1  0  0  0
 34 35  1  0  0  0
 35 36  1  0  0  0
M  END
> <minimizedAffinity>
-10.84958

> <CNNscore>
0.4151743948

> <CNNaffinity>
7.7371215820

> <CNN_VS>
3.2122547626

> <CNNaffinity_variance>
1.2186940908

$$$$
/media/chris/experiments/cd1a-new-docking/inputs/ligands/7ryo_ligand.pdb


 65 67  0  0  0  0  0  0  0  0999 V2000
  -36.0979   60.9153   64.4293 C   0  0  0  0  0  0  0  0  0  0  0  0
  -35.2736   62.0791   64.1489 N   0  0  0  0  0  0  0  0  0  0  0  0
  -33.6157   60.8667   63.2350 O   0  0  0  0  0  0  0  0  0  0  0  0
  -34.0804   61.9479   63.5643 C   0  0  0  0  0  0  0  0  0  0  0  0
  -35.5992   62.9755   64.3932 H   0  0  0  0  0  0  0  0  0  0  0  0
  -33.9121   64.0521   62.2931 N   0  0  0  0  0  0  0  0  0  0  0  0
  -33.5815   65.4501   64.0307 O   0  0  0  0  0  0  0  0  0  0  0  0
  -33.2617   63.2271   63.3245 C   0  0  0  0  0  0  0  0  0  0  0  0
  -31.8672   62.8377   62.8434 C   0  0  0  0  0  0  0  0  0  0  0  0
  -33.2019   64.1505   64.5504 C   0  0  0  0  0  0  0  0  0  0  0  0
  -34.0387   65.2199   62.7724 C   0  0  0  0  0  0  0  0  0  0  0  0
  -32.5834   67.6525   62.2745 O   0  0  0  0  0  0  0  0  0  0  0  0
  -34.6338   66.3729   62.0926 C   0  0  0  0  0  0  0  0  0  0  0  0
  -35.9062   66.2734   61.5282 C   0  0  0  0  0  0  0  0  0  0  0  0
  -36.3777   67.2611   60.6806 C   0  0  0  0  0  0  0  0  0  0  0  0
  -35.5964   68.3564   60.3829 C   0  0  0  0  0  0  0  0  0  0  0  0
  -34.3300   68.4767   60.9255 C   0  0  0  0  0  0  0  0  0  0  0  0
  -33.8377   67.4933   61.7779 C   0  0  0  0  0  0  0  0  0  0  0  0
  -32.2226   67.0082   62.8511 H   0  0  0  0  0  0  0  0  0  0  0  0
  -37.3054   60.9888   62.3371 O   0  0  0  0  0  0  0  0  0  0  0  0
  -36.7023   60.3483   63.1534 C   0  0  0  0  0  0  0  0  0  0  0  0
  -36.4853   59.0238   63.0767 O   0  0  0  0  0  0  0  0  0  0  0  0
  -35.8593   58.4949   61.8609 C   0  0  0  0  0  0  0  0  0  0  0  0
  -36.9444   58.2595   60.8407 C   0  0  0  0  0  0  0  0  0  0  0  0
  -35.1741   57.2093   62.2815 C   0  0  0  0  0  0  0  0  0  0  0  0
  -32.8456   56.9751   61.6771 N   0  0  0  0  0  0  0  0  0  0  0  0
  -33.3478   57.9247   63.6539 O   0  0  0  0  0  0  0  0  0  0  0  0
  -33.7088   57.4003   62.6041 C   0  0  0  0  0  0  0  0  0  0  0  0
  -33.1931   56.5618   60.8539 H   0  0  0  0  0  0  0  0  0  0  0  0
  -29.7951   58.9213   61.6684 N   0  0  0  0  0  0  0  0  0  0  0  0
  -31.7073   59.0641   60.5050 O   0  0  0  0  0  0  0  0  0  0  0  0
  -31.4092   57.1049   61.8493 C   0  0  0  0  0  0  0  0  0  0  0  0
  -30.6852   55.9799   61.1011 C   0  0  0  0  0  0  0  0  0  0  0  0
  -29.2531   55.7546   61.5738 C   0  0  0  0  0  0  0  0  0  0  0  0
  -28.3145   56.9310   61.3928 C   0  0  0  0  0  0  0  0  0  0  0  0
  -28.6827   58.1499   62.2127 C   0  0  0  0  0  0  0  0  0  0  0  0
  -30.9825   58.4495   61.2820 C   0  0  0  0  0  0  0  0  0  0  0  0
  -29.6552   59.8915   61.5766 H   0  0  0  0  0  0  0  0  0  0  0  0
  -37.1872   61.2397   65.4526 C   0  0  0  0  0  0  0  0  0  0  0  0
  -37.7726   59.9862   66.0940 C   0  0  0  0  0  0  0  0  0  0  0  0
  -39.1852   59.6824   65.6306 C   0  0  0  0  0  0  0  0  0  0  0  0
  -39.3832   58.2891   65.0748 C   0  0  0  0  0  0  0  0  0  0  0  0
  -40.7668   58.0758   64.6810 N   0  0  0  0  0  0  0  0  0  0  0  0
  -40.2413   56.7991   62.8957 O   0  0  0  0  0  0  0  0  0  0  0  0
  -41.0976   57.3416   63.6132 C   0  0  0  0  0  0  0  0  0  0  0  0
  -41.4832   58.4852   65.2180 H   0  0  0  0  0  0  0  0  0  0  0  0
  -43.4960   57.1952   64.2453 C   0  0  0  0  0  0  0  0  0  0  0  0
  -42.5485   57.3025   63.3237 C   0  0  0  0  0  0  0  0  0  0  0  0
  -43.3257   57.1116   65.7300 C   0  0  0  0  0  0  0  0  0  0  0  0
  -44.2944   58.0327   66.4617 C   0  0  0  0  0  0  0  0  0  0  0  0
  -45.7529   57.6400   66.3023 C   0  0  0  0  0  0  0  0  0  0  0  0
  -46.6634   58.2392   67.3612 C   0  0  0  0  0  0  0  0  0  0  0  0
  -47.8466   59.0096   66.8062 C   0  0  0  0  0  0  0  0  0  0  0  0
  -48.4714   58.3605   65.5823 C   0  0  0  0  0  0  0  0  0  0  0  0
  -49.9870   58.4006   65.5829 C   0  0  0  0  0  0  0  0  0  0  0  0
  -50.5448   59.7971   65.7709 C   0  0  0  0  0  0  0  0  0  0  0  0
  -51.2152   60.3742   64.5389 C   0  0  0  0  0  0  0  0  0  0  0  0
  -51.2233   59.4087   63.3703 C   0  0  0  0  0  0  0  0  0  0  0  0
  -50.2307   59.7789   62.2803 C   0  0  0  0  0  0  0  0  0  0  0  0
  -49.4300   58.6048   61.7442 C   0  0  0  0  0  0  0  0  0  0  0  0
  -50.0768   57.8949   60.5649 C   0  0  0  0  0  0  0  0  0  0  0  0
  -49.2298   56.7732   59.9796 C   0  0  0  0  0  0  0  0  0  0  0  0
  -48.4867   57.1731   58.7151 C   0  0  0  0  0  0  0  0  0  0  0  0
  -46.3870   58.1776   57.7363 C   0  0  0  0  0  0  0  0  0  0  0  0
  -47.0214   57.5076   58.9267 C   0  0  0  0  0  0  0  0  0  0  0  0
 43 45  1  0  0  0
 43 42  1  0  0  0
 43 46  1  0  0  0
 64 65  1  0  0  0
 44 45  2  0  0  0
 65 63  1  0  0  0
  2  1  1  0  0  0
  2  4  1  0  0  0
  2  5  1  0  0  0
  3  4  2  0  0  0
 63 62  1  0  0  0
  6  8  1  0  0  0
  6 11  2  0  0  0
  7 10  1  0  0  0
  7 11  1  0  0  0
 62 61  1  0  0  0
 26 28  1  0  0  0
 26 32  1  0  0  0
 26 29  1  0  0  0
 12 18  1  0  0  0
 12 19  1  0  0  0
 61 60  1  0  0  0
 30 36  1  0  0  0
 30 37  1  0  0  0
 30 38  1  0  0  0
 20 21  2  0  0  0
 60 59  1  0  0  0
 22 21  1  0  0  0
 22 23  1  0  0  0
 59 58  1  0  0  0
 27 28  2  0  0  0
 58 57  1  0  0  0
 31 37  2  0  0  0
 57 56  1  0  0  0
 56 55  1  0  0  0
 55 54  1  0  0  0
 54 53  1  0  0  0
 53 52  1  0  0  0
 52 51  1  0  0  0
 51 50  1  0  0  0
 50 49  1  0  0  0
 49 47  1  0  0  0
 47 48  2  0  0  0
 48 45  1  0  0  0
 42 41  1  0  0  0
 41 40  1  0  0  0
 40 39  1  0  0  0
 39  1  1  0  0  0
  1 21  1  0  0  0
  8  4  1  0  0  0
  8  9  1  0  0  0
  8 10  1  0  0  0
 11 13  1  0  0  0
 13 14  2  0  0  0
 13 18  1  0  0  0
 14 15  1  0  0  0
 15 16  2  0  0  0
 16 17  1  0  0  0
 17 18  2  0  0  0
 23 24  1  0  0  0
 23 25  1  0  0  0
 25 28  1  0  0  0
 32 33  1  0  0  0
 32 37  1  0  0  0
 33 34  1  0  0  0
 34 35  1  0  0  0
 35 36  1  0  0  0
M  END
> <minimizedAffinity>
-10.56252

> <CNNscore>
0.4032747447

> <CNNaffinity>
7.3488717079

> <CNN_VS>
2.9636144638

> <CNNaffinity_variance>
0.3965812325

$$$$
/media/chris/experiments/cd1a-new-docking/inputs/ligands/7ryo_ligand.pdb


 65 67  0  0  0  0  0  0  0  0999 V2000
  -34.2098   57.9580   62.9170 C   0  0  0  0  0  0  0  0  0  0  0  0
  -34.6451   59.2820   63.3294 N   0  0  0  0  0  0  0  0  0  0  0  0
  -35.5576   58.5445   65.2470 O   0  0  0  0  0  0  0  0  0  0  0  0
  -35.2941   59.4607   64.4825 C   0  0  0  0  0  0  0  0  0  0  0  0
  -34.4590   60.0568   62.7513 H   0  0  0  0  0  0  0  0  0  0  0  0
  -34.6158   61.6355   65.4218 N   0  0  0  0  0  0  0  0  0  0  0  0
  -35.3794   62.9540   63.7600 O   0  0  0  0  0  0  0  0  0  0  0  0
  -35.7404   60.8898   64.8329 C   0  0  0  0  0  0  0  0  0  0  0  0
  -36.8754   60.8169   65.8499 C   0  0  0  0  0  0  0  0  0  0  0  0
  -36.1318   61.7241   63.6043 C   0  0  0  0  0  0  0  0  0  0  0  0
  -34.5062   62.7210   64.7743 C   0  0  0  0  0  0  0  0  0  0  0  0
  -33.9222   64.7762   62.8460 O   0  0  0  0  0  0  0  0  0  0  0  0
  -33.5185   63.7753   65.0163 C   0  0  0  0  0  0  0  0  0  0  0  0
  -32.9207   63.9006   66.2710 C   0  0  0  0  0  0  0  0  0  0  0  0
  -32.1787   65.0259   66.5861 C   0  0  0  0  0  0  0  0  0  0  0  0
  -32.0203   66.0378   65.6643 C   0  0  0  0  0  0  0  0  0  0  0  0
  -32.6062   65.9402   64.4154 C   0  0  0  0  0  0  0  0  0  0  0  0
  -33.3575   64.8179   64.0808 C   0  0  0  0  0  0  0  0  0  0  0  0
  -34.4341   64.0345   62.5898 H   0  0  0  0  0  0  0  0  0  0  0  0
  -32.6511   58.3735   61.1174 O   0  0  0  0  0  0  0  0  0  0  0  0
  -32.8460   58.0113   62.2448 C   0  0  0  0  0  0  0  0  0  0  0  0
  -31.8896   57.5757   63.0832 O   0  0  0  0  0  0  0  0  0  0  0  0
  -30.5510   57.3307   62.5377 C   0  0  0  0  0  0  0  0  0  0  0  0
  -30.3572   55.8395   62.4258 C   0  0  0  0  0  0  0  0  0  0  0  0
  -29.5874   57.9653   63.5217 C   0  0  0  0  0  0  0  0  0  0  0  0
  -30.1489   60.0123   62.3654 N   0  0  0  0  0  0  0  0  0  0  0  0
  -28.3652   60.0125   63.7367 O   0  0  0  0  0  0  0  0  0  0  0  0
  -29.3072   59.4202   63.2176 C   0  0  0  0  0  0  0  0  0  0  0  0
  -30.8869   59.4871   61.9799 H   0  0  0  0  0  0  0  0  0  0  0  0
  -31.3592   63.4199   62.2374 N   0  0  0  0  0  0  0  0  0  0  0  0
  -32.3883   61.4271   62.2347 O   0  0  0  0  0  0  0  0  0  0  0  0
  -30.0061   61.4085   61.9915 C   0  0  0  0  0  0  0  0  0  0  0  0
  -29.5609   61.5192   60.5288 C   0  0  0  0  0  0  0  0  0  0  0  0
  -28.9553   62.8732   60.1753 C   0  0  0  0  0  0  0  0  0  0  0  0
  -29.8823   64.0623   60.3308 C   0  0  0  0  0  0  0  0  0  0  0  0
  -30.3205   64.3247   61.7565 C   0  0  0  0  0  0  0  0  0  0  0  0
  -31.3557   62.0870   62.1649 C   0  0  0  0  0  0  0  0  0  0  0  0
  -32.1451   63.8362   62.6598 H   0  0  0  0  0  0  0  0  0  0  0  0
  -35.2423   57.2928   62.0057 C   0  0  0  0  0  0  0  0  0  0  0  0
  -36.1145   58.3098   61.2775 C   0  0  0  0  0  0  0  0  0  0  0  0
  -37.4201   58.5990   61.9946 C   0  0  0  0  0  0  0  0  0  0  0  0
  -38.6633   58.3681   61.1637 C   0  0  0  0  0  0  0  0  0  0  0  0
  -39.3957   57.2025   61.6327 N   0  0  0  0  0  0  0  0  0  0  0  0
  -41.3405   57.8246   60.6714 O   0  0  0  0  0  0  0  0  0  0  0  0
  -40.6894   57.0141   61.3508 C   0  0  0  0  0  0  0  0  0  0  0  0
  -38.9237   56.5302   62.1754 H   0  0  0  0  0  0  0  0  0  0  0  0
  -41.5125   55.6803   63.2787 C   0  0  0  0  0  0  0  0  0  0  0  0
  -41.2836   55.8131   61.9792 C   0  0  0  0  0  0  0  0  0  0  0  0
  -41.2518   56.6794   64.3624 C   0  0  0  0  0  0  0  0  0  0  0  0
  -42.5269   57.0425   65.1136 C   0  0  0  0  0  0  0  0  0  0  0  0
  -42.3420   58.1505   66.1359 C   0  0  0  0  0  0  0  0  0  0  0  0
  -43.6101   58.4897   66.9014 C   0  0  0  0  0  0  0  0  0  0  0  0
  -44.7925   57.5944   66.5819 C   0  0  0  0  0  0  0  0  0  0  0  0
  -46.1370   58.2773   66.7705 C   0  0  0  0  0  0  0  0  0  0  0  0
  -47.2929   57.3076   66.9208 C   0  0  0  0  0  0  0  0  0  0  0  0
  -48.2907   57.3909   65.7832 C   0  0  0  0  0  0  0  0  0  0  0  0
  -49.5909   58.0851   66.1410 C   0  0  0  0  0  0  0  0  0  0  0  0
  -49.5739   59.5651   65.8134 C   0  0  0  0  0  0  0  0  0  0  0  0
  -50.9590   60.1396   65.5645 C   0  0  0  0  0  0  0  0  0  0  0  0
  -51.2035   60.5721   64.1292 C   0  0  0  0  0  0  0  0  0  0  0  0
  -51.3676   59.4204   63.1496 C   0  0  0  0  0  0  0  0  0  0  0  0
  -50.2833   59.3583   62.0826 C   0  0  0  0  0  0  0  0  0  0  0  0
  -50.0787   57.9655   61.5086 C   0  0  0  0  0  0  0  0  0  0  0  0
  -48.1522   57.5836   59.9215 C   0  0  0  0  0  0  0  0  0  0  0  0
  -49.6075   57.9436   60.0659 C   0  0  0  0  0  0  0  0  0  0  0  0
 43 45  1  0  0  0
 43 42  1  0  0  0
 43 46  1  0  0  0
 64 65  1  0  0  0
 44 45  2  0  0  0
 65 63  1  0  0  0
  2  1  1  0  0  0
  2  4  1  0  0  0
  2  5  1  0  0  0
  3  4  2  0  0  0
 63 62  1  0  0  0
  6  8  1  0  0  0
  6 11  2  0  0  0
  7 10  1  0  0  0
  7 11  1  0  0  0
 62 61  1  0  0  0
 26 28  1  0  0  0
 26 32  1  0  0  0
 26 29  1  0  0  0
 12 18  1  0  0  0
 12 19  1  0  0  0
 61 60  1  0  0  0
 30 36  1  0  0  0
 30 37  1  0  0  0
 30 38  1  0  0  0
 20 21  2  0  0  0
 60 59  1  0  0  0
 22 21  1  0  0  0
 22 23  1  0  0  0
 59 58  1  0  0  0
 27 28  2  0  0  0
 58 57  1  0  0  0
 31 37  2  0  0  0
 57 56  1  0  0  0
 56 55  1  0  0  0
 55 54  1  0  0  0
 54 53  1  0  0  0
 53 52  1  0  0  0
 52 51  1  0  0  0
 51 50  1  0  0  0
 50 49  1  0  0  0
 49 47  1  0  0  0
 47 48  2  0  0  0
 48 45  1  0  0  0
 42 41  1  0  0  0
 41 40  1  0  0  0
 40 39  1  0  0  0
 39  1  1  0  0  0
  1 21  1  0  0  0
  8  4  1  0  0  0
  8  9  1  0  0  0
  8 10  1  0  0  0
 11 13  1  0  0  0
 13 14  2  0  0  0
 13 18  1  0  0  0
 14 15  1  0  0  0
 15 16  2  0  0  0
 16 17  1  0  0  0
 17 18  2  0  0  0
 23 24  1  0  0  0
 23 25  1  0  0  0
 25 28  1  0  0  0
 32 33  1  0  0  0
 32 37  1  0  0  0
 33 34  1  0  0  0
 34 35  1  0  0  0
 35 36  1  0  0  0
M  END
> <minimizedAffinity>
-9.68111

> <CNNscore>
0.3996510208

> <CNNaffinity>
7.2740888596

> <CNN_VS>
2.9070971012

> <CNNaffinity_variance>
0.7224500775

$$$$
/media/chris/experiments/cd1a-new-docking/inputs/ligands/7ryo_ligand.pdb


 65 67  0  0  0  0  0  0  0  0999 V2000
  -38.7732   60.3076   64.9256 C   0  0  0  0  0  0  0  0  0  0  0  0
  -38.0564   59.4011   64.0442 N   0  0  0  0  0  0  0  0  0  0  0  0
  -37.9024   60.9061   62.3814 O   0  0  0  0  0  0  0  0  0  0  0  0
  -37.6769   59.7898   62.8245 C   0  0  0  0  0  0  0  0  0  0  0  0
  -37.8481   58.4889   64.3503 H   0  0  0  0  0  0  0  0  0  0  0  0
  -35.5082   59.0828   61.8924 N   0  0  0  0  0  0  0  0  0  0  0  0
  -35.5949   56.9111   62.4918 O   0  0  0  0  0  0  0  0  0  0  0  0
  -36.9440   58.7620   61.9467 C   0  0  0  0  0  0  0  0  0  0  0  0
  -37.5198   58.8187   60.5350 C   0  0  0  0  0  0  0  0  0  0  0  0
  -36.9810   57.3368   62.5179 C   0  0  0  0  0  0  0  0  0  0  0  0
  -34.8765   58.0273   62.2029 C   0  0  0  0  0  0  0  0  0  0  0  0
  -33.2334   59.6838   63.8880 O   0  0  0  0  0  0  0  0  0  0  0  0
  -33.4208   57.8821   62.2776 C   0  0  0  0  0  0  0  0  0  0  0  0
  -32.7884   56.8211   61.6281 C   0  0  0  0  0  0  0  0  0  0  0  0
  -31.4597   56.5313   61.8865 C   0  0  0  0  0  0  0  0  0  0  0  0
  -30.7435   57.2872   62.7889 C   0  0  0  0  0  0  0  0  0  0  0  0
  -31.3480   58.3413   63.4493 C   0  0  0  0  0  0  0  0  0  0  0  0
  -32.6832   58.6468   63.2045 C   0  0  0  0  0  0  0  0  0  0  0  0
  -34.1302   59.9151   63.7462 H   0  0  0  0  0  0  0  0  0  0  0  0
  -37.6993   60.2304   67.0893 O   0  0  0  0  0  0  0  0  0  0  0  0
  -37.8777   60.8046   66.0507 C   0  0  0  0  0  0  0  0  0  0  0  0
  -37.3289   61.9888   65.7286 O   0  0  0  0  0  0  0  0  0  0  0  0
  -35.8664   62.0896   65.7045 C   0  0  0  0  0  0  0  0  0  0  0  0
  -35.4257   62.7977   66.9607 C   0  0  0  0  0  0  0  0  0  0  0  0
  -35.5326   62.8760   64.4517 C   0  0  0  0  0  0  0  0  0  0  0  0
  -33.8723   64.6277   64.5817 N   0  0  0  0  0  0  0  0  0  0  0  0
  -33.1770   62.5191   64.2178 O   0  0  0  0  0  0  0  0  0  0  0  0
  -34.0880   63.3213   64.4025 C   0  0  0  0  0  0  0  0  0  0  0  0
  -34.6421   65.2241   64.7256 H   0  0  0  0  0  0  0  0  0  0  0  0
  -30.7241   65.4057   66.1871 N   0  0  0  0  0  0  0  0  0  0  0  0
  -32.8258   65.2152   66.9467 O   0  0  0  0  0  0  0  0  0  0  0  0
  -32.5344   65.1930   64.5699 C   0  0  0  0  0  0  0  0  0  0  0  0
  -32.5617   66.5984   63.9585 C   0  0  0  0  0  0  0  0  0  0  0  0
  -31.1958   67.0871   63.4888 C   0  0  0  0  0  0  0  0  0  0  0  0
  -30.1426   67.2166   64.5711 C   0  0  0  0  0  0  0  0  0  0  0  0
  -29.7536   65.9038   65.2182 C   0  0  0  0  0  0  0  0  0  0  0  0
  -32.0399   65.2727   66.0056 C   0  0  0  0  0  0  0  0  0  0  0  0
  -30.3715   65.1396   67.0670 H   0  0  0  0  0  0  0  0  0  0  0  0
  -40.0392   59.6552   65.4828 C   0  0  0  0  0  0  0  0  0  0  0  0
  -41.2960   60.4548   65.1564 C   0  0  0  0  0  0  0  0  0  0  0  0
  -41.3388   60.9395   63.7191 C   0  0  0  0  0  0  0  0  0  0  0  0
  -41.4656   59.8426   62.6847 C   0  0  0  0  0  0  0  0  0  0  0  0
  -42.0856   58.6569   63.2545 N   0  0  0  0  0  0  0  0  0  0  0  0
  -40.3708   57.2921   62.7159 O   0  0  0  0  0  0  0  0  0  0  0  0
  -41.4895   57.4600   63.2286 C   0  0  0  0  0  0  0  0  0  0  0  0
  -42.9731   58.7380   63.6730 H   0  0  0  0  0  0  0  0  0  0  0  0
  -43.3226   56.5238   64.6203 C   0  0  0  0  0  0  0  0  0  0  0  0
  -42.3058   56.3581   63.7852 C   0  0  0  0  0  0  0  0  0  0  0  0
  -43.8691   57.8105   65.1555 C   0  0  0  0  0  0  0  0  0  0  0  0
  -45.3764   57.7385   65.3671 C   0  0  0  0  0  0  0  0  0  0  0  0
  -45.8430   58.3606   66.6717 C   0  0  0  0  0  0  0  0  0  0  0  0
  -47.2729   58.8726   66.6244 C   0  0  0  0  0  0  0  0  0  0  0  0
  -48.1209   58.2606   65.5253 C   0  0  0  0  0  0  0  0  0  0  0  0
  -49.5092   57.8513   65.9888 C   0  0  0  0  0  0  0  0  0  0  0  0
  -50.5754   58.8892   65.6974 C   0  0  0  0  0  0  0  0  0  0  0  0
  -50.2548   59.7483   64.4908 C   0  0  0  0  0  0  0  0  0  0  0  0
  -51.3195   59.7325   63.4108 C   0  0  0  0  0  0  0  0  0  0  0  0
  -51.2731   58.4780   62.5611 C   0  0  0  0  0  0  0  0  0  0  0  0
  -49.8586   58.0148   62.2534 C   0  0  0  0  0  0  0  0  0  0  0  0
  -49.6357   57.6196   60.8038 C   0  0  0  0  0  0  0  0  0  0  0  0
  -48.2510   57.9547   60.2714 C   0  0  0  0  0  0  0  0  0  0  0  0
  -47.8042   57.0717   59.1143 C   0  0  0  0  0  0  0  0  0  0  0  0
  -47.1907   57.8501   57.9615 C   0  0  0  0  0  0  0  0  0  0  0  0
  -47.2852   55.5763   56.8675 C   0  0  0  0  0  0  0  0  0  0  0  0
  -46.8064   57.0005   56.7638 C   0  0  0  0  0  0  0  0  0  0  0  0
 43 45  1  0  0  0
 43 42  1  0  0  0
 43 46  1  0  0  0
 64 65  1  0  0  0
 44 45  2  0  0  0
 65 63  1  0  0  0
  2  1  1  0  0  0
  2  4  1  0  0  0
  2  5  1  0  0  0
  3  4  2  0  0  0
 63 62  1  0  0  0
  6  8  1  0  0  0
  6 11  2  0  0  0
  7 10  1  0  0  0
  7 11  1  0  0  0
 62 61  1  0  0  0
 26 28  1  0  0  0
 26 32  1  0  0  0
 26 29  1  0  0  0
 12 18  1  0  0  0
 12 19  1  0  0  0
 61 60  1  0  0  0
 30 36  1  0  0  0
 30 37  1  0  0  0
 30 38  1  0  0  0
 20 21  2  0  0  0
 60 59  1  0  0  0
 22 21  1  0  0  0
 22 23  1  0  0  0
 59 58  1  0  0  0
 27 28  2  0  0  0
 58 57  1  0  0  0
 31 37  2  0  0  0
 57 56  1  0  0  0
 56 55  1  0  0  0
 55 54  1  0  0  0
 54 53  1  0  0  0
 53 52  1  0  0  0
 52 51  1  0  0  0
 51 50  1  0  0  0
 50 49  1  0  0  0
 49 47  1  0  0  0
 47 48  2  0  0  0
 48 45  1  0  0  0
 42 41  1  0  0  0
 41 40  1  0  0  0
 40 39  1  0  0  0
 39  1  1  0  0  0
  1 21  1  0  0  0
  8  4  1  0  0  0
  8  9  1  0  0  0
  8 10  1  0  0  0
 11 13  1  0  0  0
 13 14  2  0  0  0
 13 18  1  0  0  0
 14 15  1  0  0  0
 15 16  2  0  0  0
 16 17  1  0  0  0
 17 18  2  0  0  0
 23 24  1  0  0  0
 23 25  1  0  0  0
 25 28  1  0  0  0
 32 33  1  0  0  0
 32 37  1  0  0  0
 33 34  1  0  0  0
 34 35  1  0  0  0
 35 36  1  0  0  0
M  END
> <minimizedAffinity>
-10.26510

> <CNNscore>
0.3885959983

> <CNNaffinity>
7.4631814957

> <CNN_VS>
2.9001624584

> <CNNaffinity_variance>
0.8307366371

$$$$
/media/chris/experiments/cd1a-new-docking/inputs/ligands/7ryo_ligand.pdb


 65 67  0  0  0  0  0  0  0  0999 V2000
  -35.2883   59.5228   63.5475 C   0  0  0  0  0  0  0  0  0  0  0  0
  -33.8577   59.6224   63.3111 N   0  0  0  0  0  0  0  0  0  0  0  0
  -33.8500   57.9843   61.7717 O   0  0  0  0  0  0  0  0  0  0  0  0
  -33.2534   58.8270   62.4252 C   0  0  0  0  0  0  0  0  0  0  0  0
  -33.3275   60.2848   63.8106 H   0  0  0  0  0  0  0  0  0  0  0  0
  -31.0303   58.0492   63.1497 N   0  0  0  0  0  0  0  0  0  0  0  0
  -30.1432   57.6724   61.1114 O   0  0  0  0  0  0  0  0  0  0  0  0
  -31.7333   58.9810   62.2525 C   0  0  0  0  0  0  0  0  0  0  0  0
  -31.3380   60.4102   62.6114 C   0  0  0  0  0  0  0  0  0  0  0  0
  -31.2367   58.5892   60.8529 C   0  0  0  0  0  0  0  0  0  0  0  0
  -30.2058   57.3963   62.4401 C   0  0  0  0  0  0  0  0  0  0  0  0
  -29.9374   56.7169   65.2239 O   0  0  0  0  0  0  0  0  0  0  0  0
  -29.2895   56.3574   62.9162 C   0  0  0  0  0  0  0  0  0  0  0  0
  -28.6087   55.5514   62.0027 C   0  0  0  0  0  0  0  0  0  0  0  0
  -27.9366   54.4191   62.4298 C   0  0  0  0  0  0  0  0  0  0  0  0
  -27.9308   54.0727   63.7635 C   0  0  0  0  0  0  0  0  0  0  0  0
  -28.6014   54.8520   64.6884 C   0  0  0  0  0  0  0  0  0  0  0  0
  -29.2844   55.9926   64.2782 C   0  0  0  0  0  0  0  0  0  0  0  0
  -30.4069   57.4903   64.9804 H   0  0  0  0  0  0  0  0  0  0  0  0
  -36.9406   61.2857   63.4924 O   0  0  0  0  0  0  0  0  0  0  0  0
  -35.8851   60.8788   63.8933 C   0  0  0  0  0  0  0  0  0  0  0  0
  -35.0552   61.5688   64.6950 O   0  0  0  0  0  0  0  0  0  0  0  0
  -35.3454   61.5955   66.1319 C   0  0  0  0  0  0  0  0  0  0  0  0
  -36.4911   62.5490   66.3600 C   0  0  0  0  0  0  0  0  0  0  0  0
  -34.0653   62.0621   66.7976 C   0  0  0  0  0  0  0  0  0  0  0  0
  -33.2719   63.6596   65.1664 N   0  0  0  0  0  0  0  0  0  0  0  0
  -33.7731   64.3981   67.2317 O   0  0  0  0  0  0  0  0  0  0  0  0
  -33.6882   63.4781   66.4231 C   0  0  0  0  0  0  0  0  0  0  0  0
  -33.2239   62.8840   64.5620 H   0  0  0  0  0  0  0  0  0  0  0  0
  -33.4472   66.3150   62.7146 N   0  0  0  0  0  0  0  0  0  0  0  0
  -33.6560   64.0861   62.5772 O   0  0  0  0  0  0  0  0  0  0  0  0
  -32.8881   64.9683   64.6668 C   0  0  0  0  0  0  0  0  0  0  0  0
  -31.3641   65.1251   64.7173 C   0  0  0  0  0  0  0  0  0  0  0  0
  -30.8966   66.5751   64.6530 C   0  0  0  0  0  0  0  0  0  0  0  0
  -31.2653   67.3230   63.3872 C   0  0  0  0  0  0  0  0  0  0  0  0
  -32.7551   67.5089   63.1884 C   0  0  0  0  0  0  0  0  0  0  0  0
  -33.3638   65.0854   63.2274 C   0  0  0  0  0  0  0  0  0  0  0  0
  -34.0377   66.4283   61.9350 H   0  0  0  0  0  0  0  0  0  0  0  0
  -35.6011   58.4948   64.6358 C   0  0  0  0  0  0  0  0  0  0  0  0
  -37.0939   58.3997   64.9324 C   0  0  0  0  0  0  0  0  0  0  0  0
  -37.8803   57.7205   63.8265 C   0  0  0  0  0  0  0  0  0  0  0  0
  -39.2167   58.3587   63.5164 C   0  0  0  0  0  0  0  0  0  0  0  0
  -40.1398   58.2041   64.6295 N   0  0  0  0  0  0  0  0  0  0  0  0
  -40.4311   60.4233   64.9191 O   0  0  0  0  0  0  0  0  0  0  0  0
  -40.6836   59.2543   65.2541 C   0  0  0  0  0  0  0  0  0  0  0  0
  -40.3721   57.2968   64.9331 H   0  0  0  0  0  0  0  0  0  0  0  0
  -42.6851   58.2474   66.3281 C   0  0  0  0  0  0  0  0  0  0  0  0
  -41.5355   58.9032   66.4123 C   0  0  0  0  0  0  0  0  0  0  0  0
  -43.3494   57.7160   65.0965 C   0  0  0  0  0  0  0  0  0  0  0  0
  -44.8261   58.0889   65.0467 C   0  0  0  0  0  0  0  0  0  0  0  0
  -45.5362   57.9618   66.3834 C   0  0  0  0  0  0  0  0  0  0  0  0
  -46.9523   58.5128   66.3747 C   0  0  0  0  0  0  0  0  0  0  0  0
  -47.5664   58.6393   64.9932 C   0  0  0  0  0  0  0  0  0  0  0  0
  -48.8247   57.8068   64.8116 C   0  0  0  0  0  0  0  0  0  0  0  0
  -50.1051   58.6090   64.9377 C   0  0  0  0  0  0  0  0  0  0  0  0
  -50.3080   59.5879   63.7987 C   0  0  0  0  0  0  0  0  0  0  0  0
  -51.3747   59.1759   62.8023 C   0  0  0  0  0  0  0  0  0  0  0  0
  -50.9034   58.0898   61.8556 C   0  0  0  0  0  0  0  0  0  0  0  0
  -49.8694   58.5759   60.8532 C   0  0  0  0  0  0  0  0  0  0  0  0
  -48.5264   57.8741   60.9560 C   0  0  0  0  0  0  0  0  0  0  0  0
  -48.0752   57.1983   59.6704 C   0  0  0  0  0  0  0  0  0  0  0  0
  -47.2901   58.1093   58.7367 C   0  0  0  0  0  0  0  0  0  0  0  0
  -47.5507   57.8357   57.2643 C   0  0  0  0  0  0  0  0  0  0  0  0
  -47.3746   55.3322   56.9855 C   0  0  0  0  0  0  0  0  0  0  0  0
  -46.7585   56.6746   56.6912 C   0  0  0  0  0  0  0  0  0  0  0  0
 43 45  1  0  0  0
 43 42  1  0  0  0
 43 46  1  0  0  0
 64 65  1  0  0  0
 44 45  2  0  0  0
 65 63  1  0  0  0
  2  1  1  0  0  0
  2  4  1  0  0  0
  2  5  1  0  0  0
  3  4  2  0  0  0
 63 62  1  0  0  0
  6  8  1  0  0  0
  6 11  2  0  0  0
  7 10  1  0  0  0
  7 11  1  0  0  0
 62 61  1  0  0  0
 26 28  1  0  0  0
 26 32  1  0  0  0
 26 29  1  0  0  0
 12 18  1  0  0  0
 12 19  1  0  0  0
 61 60  1  0  0  0
 30 36  1  0  0  0
 30 37  1  0  0  0
 30 38  1  0  0  0
 20 21  2  0  0  0
 60 59  1  0  0  0
 22 21  1  0  0  0
 22 23  1  0  0  0
 59 58  1  0  0  0
 27 28  2  0  0  0
 58 57  1  0  0  0
 31 37  2  0  0  0
 57 56  1  0  0  0
 56 55  1  0  0  0
 55 54  1  0  0  0
 54 53  1  0  0  0
 53 52  1  0  0  0
 52 51  1  0  0  0
 51 50  1  0  0  0
 50 49  1  0  0  0
 49 47  1  0  0  0
 47 48  2  0  0  0
 48 45  1  0  0  0
 42 41  1  0  0  0
 41 40  1  0  0  0
 40 39  1  0  0  0
 39  1  1  0  0  0
  1 21  1  0  0  0
  8  4  1  0  0  0
  8  9  1  0  0  0
  8 10  1  0  0  0
 11 13  1  0  0  0
 13 14  2  0  0  0
 13 18  1  0  0  0
 14 15  1  0  0  0
 15 16  2  0  0  0
 16 17  1  0  0  0
 17 18  2  0  0  0
 23 24  1  0  0  0
 23 25  1  0  0  0
 25 28  1  0  0  0
 32 33  1  0  0  0
 32 37  1  0  0  0
 33 34  1  0  0  0
 34 35  1  0  0  0
 35 36  1  0  0  0
M  END
> <minimizedAffinity>
-10.62371

> <CNNscore>
0.3419944942

> <CNNaffinity>
7.2866716385

> <CNN_VS>
2.4920015335

> <CNNaffinity_variance>
0.5274641514

$$$$
/media/chris/experiments/cd1a-new-docking/inputs/ligands/7ryo_ligand.pdb


 65 67  0  0  0  0  0  0  0  0999 V2000
  -35.7187   59.4367   63.4102 C   0  0  0  0  0  0  0  0  0  0  0  0
  -34.3135   59.5770   63.0662 N   0  0  0  0  0  0  0  0  0  0  0  0
  -34.1423   57.4734   62.2921 O   0  0  0  0  0  0  0  0  0  0  0  0
  -33.6364   58.5609   62.5263 C   0  0  0  0  0  0  0  0  0  0  0  0
  -33.8553   60.4322   63.2334 H   0  0  0  0  0  0  0  0  0  0  0  0
  -31.3183   57.9657   63.1131 N   0  0  0  0  0  0  0  0  0  0  0  0
  -30.5773   57.4819   61.0394 O   0  0  0  0  0  0  0  0  0  0  0  0
  -32.1476   58.7849   62.2139 C   0  0  0  0  0  0  0  0  0  0  0  0
  -31.8134   60.2573   62.4331 C   0  0  0  0  0  0  0  0  0  0  0  0
  -31.7425   58.3140   60.8092 C   0  0  0  0  0  0  0  0  0  0  0  0
  -30.5152   57.3064   62.3851 C   0  0  0  0  0  0  0  0  0  0  0  0
  -30.0991   56.7329   65.1746 O   0  0  0  0  0  0  0  0  0  0  0  0
  -29.5011   56.3598   62.8555 C   0  0  0  0  0  0  0  0  0  0  0  0
  -28.7873   55.5855   61.9399 C   0  0  0  0  0  0  0  0  0  0  0  0
  -28.0105   54.5246   62.3725 C   0  0  0  0  0  0  0  0  0  0  0  0
  -27.9316   54.2189   63.7138 C   0  0  0  0  0  0  0  0  0  0  0  0
  -28.6328   54.9678   64.6412 C   0  0  0  0  0  0  0  0  0  0  0  0
  -29.4207   56.0367   64.2256 C   0  0  0  0  0  0  0  0  0  0  0  0
  -30.6384   57.4581   64.9276 H   0  0  0  0  0  0  0  0  0  0  0  0
  -37.6425   60.8907   63.2502 O   0  0  0  0  0  0  0  0  0  0  0  0
  -36.4497   60.7658   63.2932 C   0  0  0  0  0  0  0  0  0  0  0  0
  -35.5723   61.7821   63.2233 O   0  0  0  0  0  0  0  0  0  0  0  0
  -35.1754   62.4400   64.4719 C   0  0  0  0  0  0  0  0  0  0  0  0
  -36.2900   62.2583   65.4711 C   0  0  0  0  0  0  0  0  0  0  0  0
  -34.9545   63.8966   64.1127 C   0  0  0  0  0  0  0  0  0  0  0  0
  -32.7308   63.9857   63.1696 N   0  0  0  0  0  0  0  0  0  0  0  0
  -34.4881   64.2876   61.7975 O   0  0  0  0  0  0  0  0  0  0  0  0
  -34.0405   64.0781   62.9214 C   0  0  0  0  0  0  0  0  0  0  0  0
  -32.4297   63.8164   64.0915 H   0  0  0  0  0  0  0  0  0  0  0  0
  -29.4901   63.2763   61.7247 N   0  0  0  0  0  0  0  0  0  0  0  0
  -30.2248   63.4322   63.8381 O   0  0  0  0  0  0  0  0  0  0  0  0
  -31.7388   64.1282   62.1183 C   0  0  0  0  0  0  0  0  0  0  0  0
  -31.5725   65.6063   61.7478 C   0  0  0  0  0  0  0  0  0  0  0  0
  -30.9196   65.8255   60.3874 C   0  0  0  0  0  0  0  0  0  0  0  0
  -29.5094   65.2877   60.2472 C   0  0  0  0  0  0  0  0  0  0  0  0
  -29.4065   63.7809   60.3583 C   0  0  0  0  0  0  0  0  0  0  0  0
  -30.4173   63.5818   62.6351 C   0  0  0  0  0  0  0  0  0  0  0  0
  -28.7891   62.6442   62.0046 H   0  0  0  0  0  0  0  0  0  0  0  0
  -35.8913   58.8396   64.8076 C   0  0  0  0  0  0  0  0  0  0  0  0
  -37.3266   58.4011   65.0780 C   0  0  0  0  0  0  0  0  0  0  0  0
  -37.9043   57.5348   63.9742 C   0  0  0  0  0  0  0  0  0  0  0  0
  -39.3233   57.8786   63.5770 C   0  0  0  0  0  0  0  0  0  0  0  0
  -40.2064   57.8659   64.7323 N   0  0  0  0  0  0  0  0  0  0  0  0
  -41.0870   59.8976   64.2962 O   0  0  0  0  0  0  0  0  0  0  0  0
  -41.0295   58.8829   65.0099 C   0  0  0  0  0  0  0  0  0  0  0  0
  -40.1982   57.0833   65.3295 H   0  0  0  0  0  0  0  0  0  0  0  0
  -42.8715   57.9654   66.4023 C   0  0  0  0  0  0  0  0  0  0  0  0
  -41.7932   58.7256   66.2679 C   0  0  0  0  0  0  0  0  0  0  0  0
  -43.5269   57.1117   65.3621 C   0  0  0  0  0  0  0  0  0  0  0  0
  -45.0401   57.2914   65.3562 C   0  0  0  0  0  0  0  0  0  0  0  0
  -45.6294   57.5745   66.7272 C   0  0  0  0  0  0  0  0  0  0  0  0
  -46.7714   58.5767   66.7033 C   0  0  0  0  0  0  0  0  0  0  0  0
  -47.6803   58.4613   65.4941 C   0  0  0  0  0  0  0  0  0  0  0  0
  -49.0033   57.7765   65.7946 C   0  0  0  0  0  0  0  0  0  0  0  0
  -50.1553   58.7430   65.9879 C   0  0  0  0  0  0  0  0  0  0  0  0
  -49.9304   60.0794   65.3095 C   0  0  0  0  0  0  0  0  0  0  0  0
  -51.1773   60.6874   64.6962 C   0  0  0  0  0  0  0  0  0  0  0  0
  -51.6271   59.9620   63.4434 C   0  0  0  0  0  0  0  0  0  0  0  0
  -50.4710   59.4816   62.5814 C   0  0  0  0  0  0  0  0  0  0  0  0
  -50.5541   58.0162   62.1909 C   0  0  0  0  0  0  0  0  0  0  0  0
  -50.4845   57.7647   60.6926 C   0  0  0  0  0  0  0  0  0  0  0  0
  -49.1693   57.1531   60.2297 C   0  0  0  0  0  0  0  0  0  0  0  0
  -48.3293   58.0952   59.3824 C   0  0  0  0  0  0  0  0  0  0  0  0
  -46.4834   58.3326   57.6759 C   0  0  0  0  0  0  0  0  0  0  0  0
  -47.1639   57.4310   58.6720 C   0  0  0  0  0  0  0  0  0  0  0  0
 43 45  1  0  0  0
 43 42  1  0  0  0
 43 46  1  0  0  0
 64 65  1  0  0  0
 44 45  2  0  0  0
 65 63  1  0  0  0
  2  1  1  0  0  0
  2  4  1  0  0  0
  2  5  1  0  0  0
  3  4  2  0  0  0
 63 62  1  0  0  0
  6  8  1  0  0  0
  6 11  2  0  0  0
  7 10  1  0  0  0
  7 11  1  0  0  0
 62 61  1  0  0  0
 26 28  1  0  0  0
 26 32  1  0  0  0
 26 29  1  0  0  0
 12 18  1  0  0  0
 12 19  1  0  0  0
 61 60  1  0  0  0
 30 36  1  0  0  0
 30 37  1  0  0  0
 30 38  1  0  0  0
 20 21  2  0  0  0
 60 59  1  0  0  0
 22 21  1  0  0  0
 22 23  1  0  0  0
 59 58  1  0  0  0
 27 28  2  0  0  0
 58 57  1  0  0  0
 31 37  2  0  0  0
 57 56  1  0  0  0
 56 55  1  0  0  0
 55 54  1  0  0  0
 54 53  1  0  0  0
 53 52  1  0  0  0
 52 51  1  0  0  0
 51 50  1  0  0  0
 50 49  1  0  0  0
 49 47  1  0  0  0
 47 48  2  0  0  0
 48 45  1  0  0  0
 42 41  1  0  0  0
 41 40  1  0  0  0
 40 39  1  0  0  0
 39  1  1  0  0  0
  1 21  1  0  0  0
  8  4  1  0  0  0
  8  9  1  0  0  0
  8 10  1  0  0  0
 11 13  1  0  0  0
 13 14  2  0  0  0
 13 18  1  0  0  0
 14 15  1  0  0  0
 15 16  2  0  0  0
 16 17  1  0  0  0
 17 18  2  0  0  0
 23 24  1  0  0  0
 23 25  1  0  0  0
 25 28  1  0  0  0
 32 33  1  0  0  0
 32 37  1  0  0  0
 33 34  1  0  0  0
 34 35  1  0  0  0
 35 36  1  0  0  0
M  END
> <minimizedAffinity>
-10.89635

> <CNNscore>
0.3230649829

> <CNNaffinity>
7.2012977600

> <CNN_VS>
2.3264870644

> <CNNaffinity_variance>
0.3759892583

$$$$
/media/chris/experiments/cd1a-new-docking/inputs/ligands/7ryo_ligand.pdb


 65 67  0  0  0  0  0  0  0  0999 V2000
  -35.5796   60.2278   64.0893 C   0  0  0  0  0  0  0  0  0  0  0  0
  -34.3790   60.0563   63.2883 N   0  0  0  0  0  0  0  0  0  0  0  0
  -33.6149   58.3489   64.5351 O   0  0  0  0  0  0  0  0  0  0  0  0
  -33.4847   59.1117   63.5894 C   0  0  0  0  0  0  0  0  0  0  0  0
  -34.2233   60.6440   62.5140 H   0  0  0  0  0  0  0  0  0  0  0  0
  -31.1465   58.3472   63.4467 N   0  0  0  0  0  0  0  0  0  0  0  0
  -31.2974   57.2174   61.5014 O   0  0  0  0  0  0  0  0  0  0  0  0
  -32.2306   59.0125   62.7054 C   0  0  0  0  0  0  0  0  0  0  0  0
  -31.7818   60.4204   62.3256 C   0  0  0  0  0  0  0  0  0  0  0  0
  -32.4272   58.1260   61.4667 C   0  0  0  0  0  0  0  0  0  0  0  0
  -30.7189   57.4017   62.7167 C   0  0  0  0  0  0  0  0  0  0  0  0
  -30.1158   56.6320   65.4235 O   0  0  0  0  0  0  0  0  0  0  0  0
  -29.6381   56.4718   63.0526 C   0  0  0  0  0  0  0  0  0  0  0  0
  -28.9452   55.8076   62.0397 C   0  0  0  0  0  0  0  0  0  0  0  0
  -28.0982   54.7553   62.3417 C   0  0  0  0  0  0  0  0  0  0  0  0
  -27.9277   54.3495   63.6475 C   0  0  0  0  0  0  0  0  0  0  0  0
  -28.6062   54.9881   64.6694 C   0  0  0  0  0  0  0  0  0  0  0  0
  -29.4636   56.0465   64.3856 C   0  0  0  0  0  0  0  0  0  0  0  0
  -30.7002   57.3471   65.2660 H   0  0  0  0  0  0  0  0  0  0  0  0
  -36.0776   61.4169   66.1336 O   0  0  0  0  0  0  0  0  0  0  0  0
  -35.3747   61.2780   65.1708 C   0  0  0  0  0  0  0  0  0  0  0  0
  -34.3071   62.0445   64.8877 O   0  0  0  0  0  0  0  0  0  0  0  0
  -34.5106   63.4899   64.7499 C   0  0  0  0  0  0  0  0  0  0  0  0
  -34.7247   63.7948   63.2887 C   0  0  0  0  0  0  0  0  0  0  0  0
  -33.2498   64.1328   65.2945 C   0  0  0  0  0  0  0  0  0  0  0  0
  -32.0612   65.4290   63.6365 N   0  0  0  0  0  0  0  0  0  0  0  0
  -31.3944   63.3151   64.0218 O   0  0  0  0  0  0  0  0  0  0  0  0
  -32.1534   64.2505   64.2593 C   0  0  0  0  0  0  0  0  0  0  0  0
  -32.6978   66.1433   63.8681 H   0  0  0  0  0  0  0  0  0  0  0  0
  -28.7647   66.5355   62.6355 N   0  0  0  0  0  0  0  0  0  0  0  0
  -30.1337   67.1203   64.3130 O   0  0  0  0  0  0  0  0  0  0  0  0
  -31.0486   65.6863   62.6275 C   0  0  0  0  0  0  0  0  0  0  0  0
  -31.6579   66.4655   61.4564 C   0  0  0  0  0  0  0  0  0  0  0  0
  -30.8307   66.3923   60.1776 C   0  0  0  0  0  0  0  0  0  0  0  0
  -29.4337   66.9729   60.2711 C   0  0  0  0  0  0  0  0  0  0  0  0
  -28.5193   66.2374   61.2284 C   0  0  0  0  0  0  0  0  0  0  0  0
  -29.9414   66.5105   63.2652 C   0  0  0  0  0  0  0  0  0  0  0  0
  -27.9800   66.7807   63.1772 H   0  0  0  0  0  0  0  0  0  0  0  0
  -36.0367   58.9006   64.6964 C   0  0  0  0  0  0  0  0  0  0  0  0
  -37.2424   58.3146   63.9696 C   0  0  0  0  0  0  0  0  0  0  0  0
  -38.5019   59.1441   64.1375 C   0  0  0  0  0  0  0  0  0  0  0  0
  -38.9461   59.8796   62.8920 C   0  0  0  0  0  0  0  0  0  0  0  0
  -40.0107   59.1591   62.2121 N   0  0  0  0  0  0  0  0  0  0  0  0
  -38.6104   58.0387   60.8419 O   0  0  0  0  0  0  0  0  0  0  0  0
  -39.7641   58.2852   61.2300 C   0  0  0  0  0  0  0  0  0  0  0  0
  -40.9433   59.3197   62.4835 H   0  0  0  0  0  0  0  0  0  0  0  0
  -41.8101   56.8757   61.2108 C   0  0  0  0  0  0  0  0  0  0  0  0
  -40.9759   57.7098   60.6049 C   0  0  0  0  0  0  0  0  0  0  0  0
  -41.7331   56.3602   62.6139 C   0  0  0  0  0  0  0  0  0  0  0  0
  -42.6217   57.1604   63.5584 C   0  0  0  0  0  0  0  0  0  0  0  0
  -42.9563   56.4331   64.8492 C   0  0  0  0  0  0  0  0  0  0  0  0
  -44.0058   57.1395   65.6910 C   0  0  0  0  0  0  0  0  0  0  0  0
  -44.8691   58.1210   64.9210 C   0  0  0  0  0  0  0  0  0  0  0  0
  -46.3579   57.8401   65.0397 C   0  0  0  0  0  0  0  0  0  0  0  0
  -47.1387   58.9719   65.6785 C   0  0  0  0  0  0  0  0  0  0  0  0
  -48.6065   58.9688   65.3014 C   0  0  0  0  0  0  0  0  0  0  0  0
  -48.9755   57.9587   64.2318 C   0  0  0  0  0  0  0  0  0  0  0  0
  -49.4610   58.6114   62.9526 C   0  0  0  0  0  0  0  0  0  0  0  0
  -50.7287   57.9795   62.4013 C   0  0  0  0  0  0  0  0  0  0  0  0
  -50.7339   57.8126   60.8916 C   0  0  0  0  0  0  0  0  0  0  0  0
  -49.5269   57.0683   60.3418 C   0  0  0  0  0  0  0  0  0  0  0  0
  -48.9465   57.6835   59.0757 C   0  0  0  0  0  0  0  0  0  0  0  0
  -47.4284   57.7624   59.0827 C   0  0  0  0  0  0  0  0  0  0  0  0
  -46.7035   56.9148   56.8172 C   0  0  0  0  0  0  0  0  0  0  0  0
  -46.8107   58.1016   57.7383 C   0  0  0  0  0  0  0  0  0  0  0  0
 43 45  1  0  0  0
 43 42  1  0  0  0
 43 46  1  0  0  0
 64 65  1  0  0  0
 44 45  2  0  0  0
 65 63  1  0  0  0
  2  1  1  0  0  0
  2  4  1  0  0  0
  2  5  1  0  0  0
  3  4  2  0  0  0
 63 62  1  0  0  0
  6  8  1  0  0  0
  6 11  2  0  0  0
  7 10  1  0  0  0
  7 11  1  0  0  0
 62 61  1  0  0  0
 26 28  1  0  0  0
 26 32  1  0  0  0
 26 29  1  0  0  0
 12 18  1  0  0  0
 12 19  1  0  0  0
 61 60  1  0  0  0
 30 36  1  0  0  0
 30 37  1  0  0  0
 30 38  1  0  0  0
 20 21  2  0  0  0
 60 59  1  0  0  0
 22 21  1  0  0  0
 22 23  1  0  0  0
 59 58  1  0  0  0
 27 28  2  0  0  0
 58 57  1  0  0  0
 31 37  2  0  0  0
 57 56  1  0  0  0
 56 55  1  0  0  0
 55 54  1  0  0  0
 54 53  1  0  0  0
 53 52  1  0  0  0
 52 51  1  0  0  0
 51 50  1  0  0  0
 50 49  1  0  0  0
 49 47  1  0  0  0
 47 48  2  0  0  0
 48 45  1  0  0  0
 42 41  1  0  0  0
 41 40  1  0  0  0
 40 39  1  0  0  0
 39  1  1  0  0  0
  1 21  1  0  0  0
  8  4  1  0  0  0
  8  9  1  0  0  0
  8 10  1  0  0  0
 11 13  1  0  0  0
 13 14  2  0  0  0
 13 18  1  0  0  0
 14 15  1  0  0  0
 15 16  2  0  0  0
 16 17  1  0  0  0
 17 18  2  0  0  0
 23 24  1  0  0  0
 23 25  1  0  0  0
 25 28  1  0  0  0
 32 33  1  0  0  0
 32 37  1  0  0  0
 33 34  1  0  0  0
 34 35  1  0  0  0
 35 36  1  0  0  0
M  END
> <minimizedAffinity>
-10.13802

> <CNNscore>
0.3024823964

> <CNNaffinity>
7.4182610512

> <CNN_VS>
2.2438933849

> <CNNaffinity_variance>
0.3886112869

$$$$
