/media/chris/experiments/cd1a-new-docking/inputs/ligands/7ryo_ligand.pdb


 65 67  0  0  0  0  0  0  0  0999 V2000
  -36.3136   58.5946   62.1321 C   0  0  0  0  0  0  0  0  0  0  0  0
  -36.5622   59.8133   62.8839 N   0  0  0  0  0  0  0  0  0  0  0  0
  -37.5455   60.7947   64.6513 O   0  0  0  0  0  0  0  0  0  0  0  0
  -37.3011   59.7927   63.9958 C   0  0  0  0  0  0  0  0  0  0  0  0
  -36.1809   60.6647   62.5694 H   0  0  0  0  0  0  0  0  0  0  0  0
  -39.1524   58.6077   65.1095 N   0  0  0  0  0  0  0  0  0  0  0  0
  -39.4741   56.9951   63.5670 O   0  0  0  0  0  0  0  0  0  0  0  0
  -37.8399   58.4316   64.4662 C   0  0  0  0  0  0  0  0  0  0  0  0
  -36.8654   57.8384   65.4793 C   0  0  0  0  0  0  0  0  0  0  0  0
  -38.1231   57.4573   63.3132 C   0  0  0  0  0  0  0  0  0  0  0  0
  -39.9536   57.7959   64.5541 C   0  0  0  0  0  0  0  0  0  0  0  0
  -41.6710   60.0024   65.2366 O   0  0  0  0  0  0  0  0  0  0  0  0
  -41.3718   57.6238   64.8779 C   0  0  0  0  0  0  0  0  0  0  0  0
  -41.9794   56.3771   64.7242 C   0  0  0  0  0  0  0  0  0  0  0  0
  -43.3566   56.2542   64.7898 C   0  0  0  0  0  0  0  0  0  0  0  0
  -44.1464   57.3620   65.0081 C   0  0  0  0  0  0  0  0  0  0  0  0
  -43.5694   58.6098   65.1592 C   0  0  0  0  0  0  0  0  0  0  0  0
  -42.1871   58.7539   65.0942 C   0  0  0  0  0  0  0  0  0  0  0  0
  -40.7440   60.1333   65.1979 H   0  0  0  0  0  0  0  0  0  0  0  0
  -34.4362   57.0960   61.8666 O   0  0  0  0  0  0  0  0  0  0  0  0
  -34.8828   58.1131   62.3207 C   0  0  0  0  0  0  0  0  0  0  0  0
  -34.1919   58.9760   63.0857 O   0  0  0  0  0  0  0  0  0  0  0  0
  -32.8872   59.4378   62.6016 C   0  0  0  0  0  0  0  0  0  0  0  0
  -31.8171   58.6816   63.3475 C   0  0  0  0  0  0  0  0  0  0  0  0
  -32.8491   60.9261   62.8896 C   0  0  0  0  0  0  0  0  0  0  0  0
  -33.4832   62.5783   64.5360 N   0  0  0  0  0  0  0  0  0  0  0  0
  -34.2238   60.4699   64.7958 O   0  0  0  0  0  0  0  0  0  0  0  0
  -33.5785   61.2995   64.1610 C   0  0  0  0  0  0  0  0  0  0  0  0
  -33.9381   62.8706   65.3587 H   0  0  0  0  0  0  0  0  0  0  0  0
  -31.4830   65.5822   64.2720 N   0  0  0  0  0  0  0  0  0  0  0  0
  -33.1214   64.9497   65.6669 O   0  0  0  0  0  0  0  0  0  0  0  0
  -32.7277   63.5497   63.7645 C   0  0  0  0  0  0  0  0  0  0  0  0
  -33.5315   63.9854   62.5342 C   0  0  0  0  0  0  0  0  0  0  0  0
  -32.6808   64.6303   61.4454 C   0  0  0  0  0  0  0  0  0  0  0  0
  -31.9686   65.9071   61.8456 C   0  0  0  0  0  0  0  0  0  0  0  0
  -30.9279   65.7229   62.9302 C   0  0  0  0  0  0  0  0  0  0  0  0
  -32.4607   64.7561   64.6507 C   0  0  0  0  0  0  0  0  0  0  0  0
  -31.0959   66.1568   64.9715 H   0  0  0  0  0  0  0  0  0  0  0  0
  -36.6359   58.7816   60.6487 C   0  0  0  0  0  0  0  0  0  0  0  0
  -38.0993   58.4925   60.3319 C   0  0  0  0  0  0  0  0  0  0  0  0
  -38.7702   59.6023   59.5440 C   0  0  0  0  0  0  0  0  0  0  0  0
  -40.2111   59.8659   59.9232 C   0  0  0  0  0  0  0  0  0  0  0  0
  -41.0604   59.9154   58.7437 N   0  0  0  0  0  0  0  0  0  0  0  0
  -41.7030   57.7580   58.9054 O   0  0  0  0  0  0  0  0  0  0  0  0
  -41.7492   58.8510   58.3178 C   0  0  0  0  0  0  0  0  0  0  0  0
  -41.1308   60.7599   58.2426 H   0  0  0  0  0  0  0  0  0  0  0  0
  -43.7474   58.6868   56.8501 C   0  0  0  0  0  0  0  0  0  0  0  0
  -42.4947   59.0694   57.0580 C   0  0  0  0  0  0  0  0  0  0  0  0
  -44.6647   57.9923   57.8074 C   0  0  0  0  0  0  0  0  0  0  0  0
  -46.1269   58.1683   57.4162 C   0  0  0  0  0  0  0  0  0  0  0  0
  -46.6140   57.1574   56.3926 C   0  0  0  0  0  0  0  0  0  0  0  0
  -47.4328   56.0278   56.9952 C   0  0  0  0  0  0  0  0  0  0  0  0
  -47.5643   56.0867   58.5054 C   0  0  0  0  0  0  0  0  0  0  0  0
  -48.6490   57.0385   58.9819 C   0  0  0  0  0  0  0  0  0  0  0  0
  -49.0521   56.8223   60.4274 C   0  0  0  0  0  0  0  0  0  0  0  0
  -50.4099   57.4074   60.7601 C   0  0  0  0  0  0  0  0  0  0  0  0
  -50.3571   58.7220   61.5144 C   0  0  0  0  0  0  0  0  0  0  0  0
  -51.1312   58.6811   62.8171 C   0  0  0  0  0  0  0  0  0  0  0  0
  -51.1742   60.0224   63.5309 C   0  0  0  0  0  0  0  0  0  0  0  0
  -50.0947   60.2007   64.5842 C   0  0  0  0  0  0  0  0  0  0  0  0
  -49.2733   58.9495   64.8543 C   0  0  0  0  0  0  0  0  0  0  0  0
  -47.8398   59.2324   65.2824 C   0  0  0  0  0  0  0  0  0  0  0  0
  -47.6085   59.0564   66.7746 C   0  0  0  0  0  0  0  0  0  0  0  0
  -47.5305   56.5694   66.3447 C   0  0  0  0  0  0  0  0  0  0  0  0
  -47.0046   57.7192   67.1632 C   0  0  0  0  0  0  0  0  0  0  0  0
 43 45  1  0  0  0
 43 42  1  0  0  0
 43 46  1  0  0  0
 64 65  1  0  0  0
 44 45  2  0  0  0
 65 63  1  0  0  0
  2  1  1  0  0  0
  2  4  1  0  0  0
  2  5  1  0  0  0
  3  4  2  0  0  0
 63 62  1  0  0  0
  6  8  1  0  0  0
  6 11  2  0  0  0
  7 10  1  0  0  0
  7 11  1  0  0  0
 62 61  1  0  0  0
 26 28  1  0  0  0
 26 32  1  0  0  0
 26 29  1  0  0  0
 12 18  1  0  0  0
 12 19  1  0  0  0
 61 60  1  0  0  0
 30 36  1  0  0  0
 30 37  1  0  0  0
 30 38  1  0  0  0
 20 21  2  0  0  0
 60 59  1  0  0  0
 22 21  1  0  0  0
 22 23  1  0  0  0
 59 58  1  0  0  0
 27 28  2  0  0  0
 58 57  1  0  0  0
 31 37  2  0  0  0
 57 56  1  0  0  0
 56 55  1  0  0  0
 55 54  1  0  0  0
 54 53  1  0  0  0
 53 52  1  0  0  0
 52 51  1  0  0  0
 51 50  1  0  0  0
 50 49  1  0  0  0
 49 47  1  0  0  0
 47 48  2  0  0  0
 48 45  1  0  0  0
 42 41  1  0  0  0
 41 40  1  0  0  0
 40 39  1  0  0  0
 39  1  1  0  0  0
  1 21  1  0  0  0
  8  4  1  0  0  0
  8  9  1  0  0  0
  8 10  1  0  0  0
 11 13  1  0  0  0
 13 14  2  0  0  0
 13 18  1  0  0  0
 14 15  1  0  0  0
 15 16  2  0  0  0
 16 17  1  0  0  0
 17 18  2  0  0  0
 23 24  1  0  0  0
 23 25  1  0  0  0
 25 28  1  0  0  0
 32 33  1  0  0  0
 32 37  1  0  0  0
 33 34  1  0  0  0
 34 35  1  0  0  0
 35 36  1  0  0  0
M  END
> <minimizedAffinity>
-8.08025

> <CNNscore>
0.5435743928

> <CNNaffinity>
7.8055930138

> <CNN_VS>
4.2429203987

> <CNNaffinity_variance>
0.3650391996

$$$$
/media/chris/experiments/cd1a-new-docking/inputs/ligands/7ryo_ligand.pdb


 65 67  0  0  0  0  0  0  0  0999 V2000
  -36.1695   58.5808   62.0595 C   0  0  0  0  0  0  0  0  0  0  0  0
  -36.3510   59.8441   62.7548 N   0  0  0  0  0  0  0  0  0  0  0  0
  -37.3148   60.9660   64.4478 O   0  0  0  0  0  0  0  0  0  0  0  0
  -37.1245   59.9229   63.8402 C   0  0  0  0  0  0  0  0  0  0  0  0
  -35.8977   60.6519   62.4213 H   0  0  0  0  0  0  0  0  0  0  0  0
  -38.9614   58.9434   65.1586 N   0  0  0  0  0  0  0  0  0  0  0  0
  -39.6914   57.4532   63.6324 O   0  0  0  0  0  0  0  0  0  0  0  0
  -37.7774   58.6250   64.3436 C   0  0  0  0  0  0  0  0  0  0  0  0
  -36.7707   57.8675   65.2042 C   0  0  0  0  0  0  0  0  0  0  0  0
  -38.3339   57.7455   63.2142 C   0  0  0  0  0  0  0  0  0  0  0  0
  -39.9290   58.2672   64.6938 C   0  0  0  0  0  0  0  0  0  0  0  0
  -42.1178   57.0938   63.2391 O   0  0  0  0  0  0  0  0  0  0  0  0
  -41.3045   58.2680   65.1975 C   0  0  0  0  0  0  0  0  0  0  0  0
  -41.5775   58.7214   66.4887 C   0  0  0  0  0  0  0  0  0  0  0  0
  -42.8186   58.5033   67.0617 C   0  0  0  0  0  0  0  0  0  0  0  0
  -43.8016   57.8355   66.3642 C   0  0  0  0  0  0  0  0  0  0  0  0
  -43.5550   57.3720   65.0847 C   0  0  0  0  0  0  0  0  0  0  0  0
  -42.3132   57.5795   64.4926 C   0  0  0  0  0  0  0  0  0  0  0  0
  -41.2927   57.2169   62.8124 H   0  0  0  0  0  0  0  0  0  0  0  0
  -34.2495   57.2535   61.4330 O   0  0  0  0  0  0  0  0  0  0  0  0
  -34.7173   58.1299   62.1063 C   0  0  0  0  0  0  0  0  0  0  0  0
  -34.0335   58.8362   63.0232 O   0  0  0  0  0  0  0  0  0  0  0  0
  -32.9194   59.6710   62.5632 C   0  0  0  0  0  0  0  0  0  0  0  0
  -31.6611   58.8419   62.6155 C   0  0  0  0  0  0  0  0  0  0  0  0
  -32.8734   60.8501   63.5155 C   0  0  0  0  0  0  0  0  0  0  0  0
  -33.0526   63.2584   63.4146 N   0  0  0  0  0  0  0  0  0  0  0  0
  -31.9374   62.1987   61.7730 O   0  0  0  0  0  0  0  0  0  0  0  0
  -32.5802   62.1600   62.8184 C   0  0  0  0  0  0  0  0  0  0  0  0
  -32.8905   64.1357   62.9983 H   0  0  0  0  0  0  0  0  0  0  0  0
  -36.1136   63.5728   65.3185 N   0  0  0  0  0  0  0  0  0  0  0  0
  -35.3381   64.6019   63.4827 O   0  0  0  0  0  0  0  0  0  0  0  0
  -33.7984   63.1952   64.6593 C   0  0  0  0  0  0  0  0  0  0  0  0
  -33.0427   63.9416   65.7646 C   0  0  0  0  0  0  0  0  0  0  0  0
  -33.4884   63.5627   67.1728 C   0  0  0  0  0  0  0  0  0  0  0  0
  -34.9375   63.8631   67.5005 C   0  0  0  0  0  0  0  0  0  0  0  0
  -35.9356   63.0750   66.6782 C   0  0  0  0  0  0  0  0  0  0  0  0
  -35.1515   63.8517   64.4362 C   0  0  0  0  0  0  0  0  0  0  0  0
  -37.0406   63.7182   65.0203 H   0  0  0  0  0  0  0  0  0  0  0  0
  -36.6694   58.6642   60.6165 C   0  0  0  0  0  0  0  0  0  0  0  0
  -38.1895   58.5871   60.5235 C   0  0  0  0  0  0  0  0  0  0  0  0
  -38.8004   59.7459   59.7576 C   0  0  0  0  0  0  0  0  0  0  0  0
  -40.2646   59.9944   60.0475 C   0  0  0  0  0  0  0  0  0  0  0  0
  -41.0390   60.0441   58.8175 N   0  0  0  0  0  0  0  0  0  0  0  0
  -41.5411   57.8439   58.8428 O   0  0  0  0  0  0  0  0  0  0  0  0
  -41.6248   58.9583   58.3012 C   0  0  0  0  0  0  0  0  0  0  0  0
  -41.1352   60.9050   58.3498 H   0  0  0  0  0  0  0  0  0  0  0  0
  -43.5361   58.7916   56.7223 C   0  0  0  0  0  0  0  0  0  0  0  0
  -42.3023   59.1870   57.0054 C   0  0  0  0  0  0  0  0  0  0  0  0
  -44.4954   58.0702   57.6165 C   0  0  0  0  0  0  0  0  0  0  0  0
  -45.9421   58.4247   57.2950 C   0  0  0  0  0  0  0  0  0  0  0  0
  -46.8220   57.2184   57.0167 C   0  0  0  0  0  0  0  0  0  0  0  0
  -48.1841   57.2914   57.6867 C   0  0  0  0  0  0  0  0  0  0  0  0
  -48.1879   58.0156   59.0198 C   0  0  0  0  0  0  0  0  0  0  0  0
  -49.4978   57.8802   59.7784 C   0  0  0  0  0  0  0  0  0  0  0  0
  -49.4144   58.3465   61.2186 C   0  0  0  0  0  0  0  0  0  0  0  0
  -50.6636   58.0347   62.0180 C   0  0  0  0  0  0  0  0  0  0  0  0
  -51.1775   59.1919   62.8527 C   0  0  0  0  0  0  0  0  0  0  0  0
  -50.7366   59.1105   64.3008 C   0  0  0  0  0  0  0  0  0  0  0  0
  -50.3977   60.4653   64.9009 C   0  0  0  0  0  0  0  0  0  0  0  0
  -48.9213   60.6610   65.1990 C   0  0  0  0  0  0  0  0  0  0  0  0
  -47.9895   59.9348   64.2412 C   0  0  0  0  0  0  0  0  0  0  0  0
  -47.0329   58.9675   64.9248 C   0  0  0  0  0  0  0  0  0  0  0  0
  -47.3770   58.7054   66.3822 C   0  0  0  0  0  0  0  0  0  0  0  0
  -47.9783   56.2587   66.2136 C   0  0  0  0  0  0  0  0  0  0  0  0
  -47.0868   57.2915   66.8517 C   0  0  0  0  0  0  0  0  0  0  0  0
 43 45  1  0  0  0
 43 42  1  0  0  0
 43 46  1  0  0  0
 64 65  1  0  0  0
 44 45  2  0  0  0
 65 63  1  0  0  0
  2  1  1  0  0  0
  2  4  1  0  0  0
  2  5  1  0  0  0
  3  4  2  0  0  0
 63 62  1  0  0  0
  6  8  1  0  0  0
  6 11  2  0  0  0
  7 10  1  0  0  0
  7 11  1  0  0  0
 62 61  1  0  0  0
 26 28  1  0  0  0
 26 32  1  0  0  0
 26 29  1  0  0  0
 12 18  1  0  0  0
 12 19  1  0  0  0
 61 60  1  0  0  0
 30 36  1  0  0  0
 30 37  1  0  0  0
 30 38  1  0  0  0
 20 21  2  0  0  0
 60 59  1  0  0  0
 22 21  1  0  0  0
 22 23  1  0  0  0
 59 58  1  0  0  0
 27 28  2  0  0  0
 58 57  1  0  0  0
 31 37  2  0  0  0
 57 56  1  0  0  0
 56 55  1  0  0  0
 55 54  1  0  0  0
 54 53  1  0  0  0
 53 52  1  0  0  0
 52 51  1  0  0  0
 51 50  1  0  0  0
 50 49  1  0  0  0
 49 47  1  0  0  0
 47 48  2  0  0  0
 48 45  1  0  0  0
 42 41  1  0  0  0
 41 40  1  0  0  0
 40 39  1  0  0  0
 39  1  1  0  0  0
  1 21  1  0  0  0
  8  4  1  0  0  0
  8  9  1  0  0  0
  8 10  1  0  0  0
 11 13  1  0  0  0
 13 14  2  0  0  0
 13 18  1  0  0  0
 14 15  1  0  0  0
 15 16  2  0  0  0
 16 17  1  0  0  0
 17 18  2  0  0  0
 23 24  1  0  0  0
 23 25  1  0  0  0
 25 28  1  0  0  0
 32 33  1  0  0  0
 32 37  1  0  0  0
 33 34  1  0  0  0
 34 35  1  0  0  0
 35 36  1  0  0  0
M  END
> <minimizedAffinity>
-9.10645

> <CNNscore>
0.4155790508

> <CNNaffinity>
7.8402900696

> <CNN_VS>
3.2582602501

> <CNNaffinity_variance>
0.6588743329

$$$$
/media/chris/experiments/cd1a-new-docking/inputs/ligands/7ryo_ligand.pdb


 65 67  0  0  0  0  0  0  0  0999 V2000
  -35.8775   58.1967   62.6544 C   0  0  0  0  0  0  0  0  0  0  0  0
  -35.8438   59.6111   62.3215 N   0  0  0  0  0  0  0  0  0  0  0  0
  -36.2308   61.7299   62.9655 O   0  0  0  0  0  0  0  0  0  0  0  0
  -36.2310   60.5320   63.2074 C   0  0  0  0  0  0  0  0  0  0  0  0
  -35.5315   59.8936   61.4317 H   0  0  0  0  0  0  0  0  0  0  0  0
  -38.1395   60.0897   64.7020 N   0  0  0  0  0  0  0  0  0  0  0  0
  -37.5820   57.9948   65.3214 O   0  0  0  0  0  0  0  0  0  0  0  0
  -36.6718   60.0413   64.5963 C   0  0  0  0  0  0  0  0  0  0  0  0
  -36.0667   60.9552   65.6577 C   0  0  0  0  0  0  0  0  0  0  0  0
  -36.3327   58.5663   64.8570 C   0  0  0  0  0  0  0  0  0  0  0  0
  -38.5246   58.9463   65.0940 C   0  0  0  0  0  0  0  0  0  0  0  0
  -40.3801   60.5609   66.5887 O   0  0  0  0  0  0  0  0  0  0  0  0
  -39.9101   58.5381   65.3385 C   0  0  0  0  0  0  0  0  0  0  0  0
  -40.4236   57.3968   64.7212 C   0  0  0  0  0  0  0  0  0  0  0  0
  -41.7829   57.1365   64.7460 C   0  0  0  0  0  0  0  0  0  0  0  0
  -42.6475   58.0012   65.3811 C   0  0  0  0  0  0  0  0  0  0  0  0
  -42.1646   59.1417   65.9965 C   0  0  0  0  0  0  0  0  0  0  0  0
  -40.8020   59.4218   65.9805 C   0  0  0  0  0  0  0  0  0  0  0  0
  -39.4687   60.7783   66.5957 H   0  0  0  0  0  0  0  0  0  0  0  0
  -34.1755   56.6974   61.8202 O   0  0  0  0  0  0  0  0  0  0  0  0
  -34.4900   57.5782   62.5722 C   0  0  0  0  0  0  0  0  0  0  0  0
  -33.6683   58.1415   63.4748 O   0  0  0  0  0  0  0  0  0  0  0  0
  -32.3503   58.5963   63.0211 C   0  0  0  0  0  0  0  0  0  0  0  0
  -31.3087   57.9876   63.9254 C   0  0  0  0  0  0  0  0  0  0  0  0
  -32.3856   60.1092   63.1181 C   0  0  0  0  0  0  0  0  0  0  0  0
  -31.6763   62.1255   61.9896 N   0  0  0  0  0  0  0  0  0  0  0  0
  -31.0387   60.1426   61.1392 O   0  0  0  0  0  0  0  0  0  0  0  0
  -31.6418   60.7899   61.9906 C   0  0  0  0  0  0  0  0  0  0  0  0
  -31.2097   62.6154   61.2744 H   0  0  0  0  0  0  0  0  0  0  0  0
  -34.3790   64.2709   63.0788 N   0  0  0  0  0  0  0  0  0  0  0  0
  -33.2842   64.0530   61.1335 O   0  0  0  0  0  0  0  0  0  0  0  0
  -32.3825   62.8755   63.0136 C   0  0  0  0  0  0  0  0  0  0  0  0
  -31.3936   63.7228   63.8221 C   0  0  0  0  0  0  0  0  0  0  0  0
  -31.9402   64.1798   65.1703 C   0  0  0  0  0  0  0  0  0  0  0  0
  -33.1662   65.0692   65.1087 C   0  0  0  0  0  0  0  0  0  0  0  0
  -34.3934   64.3945   64.5324 C   0  0  0  0  0  0  0  0  0  0  0  0
  -33.3887   63.7854   62.3269 C   0  0  0  0  0  0  0  0  0  0  0  0
  -35.1843   64.5776   62.6025 H   0  0  0  0  0  0  0  0  0  0  0  0
  -36.8663   57.4404   61.7659 C   0  0  0  0  0  0  0  0  0  0  0  0
  -38.2551   58.0699   61.7766 C   0  0  0  0  0  0  0  0  0  0  0  0
  -38.6352   58.7003   60.4496 C   0  0  0  0  0  0  0  0  0  0  0  0
  -39.8220   59.6369   60.5107 C   0  0  0  0  0  0  0  0  0  0  0  0
  -40.4624   59.7534   59.2101 N   0  0  0  0  0  0  0  0  0  0  0  0
  -41.5638   57.7914   59.3859 O   0  0  0  0  0  0  0  0  0  0  0  0
  -41.2922   58.8162   58.7391 C   0  0  0  0  0  0  0  0  0  0  0  0
  -40.2793   60.5480   58.6586 H   0  0  0  0  0  0  0  0  0  0  0  0
  -43.0117   58.7938   56.9458 C   0  0  0  0  0  0  0  0  0  0  0  0
  -41.7847   59.0696   57.3668 C   0  0  0  0  0  0  0  0  0  0  0  0
  -44.1404   58.2051   57.7331 C   0  0  0  0  0  0  0  0  0  0  0  0
  -45.4812   58.4140   57.0400 C   0  0  0  0  0  0  0  0  0  0  0  0
  -46.4523   57.2605   57.2222 C   0  0  0  0  0  0  0  0  0  0  0  0
  -47.8142   57.6883   57.7433 C   0  0  0  0  0  0  0  0  0  0  0  0
  -48.1287   57.2026   59.1456 C   0  0  0  0  0  0  0  0  0  0  0  0
  -49.4108   57.7869   59.7152 C   0  0  0  0  0  0  0  0  0  0  0  0
  -49.7861   57.2179   61.0695 C   0  0  0  0  0  0  0  0  0  0  0  0
  -50.8691   58.0140   61.7696 C   0  0  0  0  0  0  0  0  0  0  0  0
  -50.3991   59.3337   62.3507 C   0  0  0  0  0  0  0  0  0  0  0  0
  -51.1764   59.7389   63.5874 C   0  0  0  0  0  0  0  0  0  0  0  0
  -50.3520   60.5490   64.5745 C   0  0  0  0  0  0  0  0  0  0  0  0
  -50.1918   59.8938   65.9353 C   0  0  0  0  0  0  0  0  0  0  0  0
  -50.2778   58.3755   65.9111 C   0  0  0  0  0  0  0  0  0  0  0  0
  -48.9232   57.6805   65.8953 C   0  0  0  0  0  0  0  0  0  0  0  0
  -47.9510   58.2736   64.8882 C   0  0  0  0  0  0  0  0  0  0  0  0
  -46.4796   58.4995   66.9279 C   0  0  0  0  0  0  0  0  0  0  0  0
  -46.5474   58.4917   65.4233 C   0  0  0  0  0  0  0  0  0  0  0  0
 43 45  1  0  0  0
 43 42  1  0  0  0
 43 46  1  0  0  0
 64 65  1  0  0  0
 44 45  2  0  0  0
 65 63  1  0  0  0
  2  1  1  0  0  0
  2  4  1  0  0  0
  2  5  1  0  0  0
  3  4  2  0  0  0
 63 62  1  0  0  0
  6  8  1  0  0  0
  6 11  2  0  0  0
  7 10  1  0  0  0
  7 11  1  0  0  0
 62 61  1  0  0  0
 26 28  1  0  0  0
 26 32  1  0  0  0
 26 29  1  0  0  0
 12 18  1  0  0  0
 12 19  1  0  0  0
 61 60  1  0  0  0
 30 36  1  0  0  0
 30 37  1  0  0  0
 30 38  1  0  0  0
 20 21  2  0  0  0
 60 59  1  0  0  0
 22 21  1  0  0  0
 22 23  1  0  0  0
 59 58  1  0  0  0
 27 28  2  0  0  0
 58 57  1  0  0  0
 31 37  2  0  0  0
 57 56  1  0  0  0
 56 55  1  0  0  0
 55 54  1  0  0  0
 54 53  1  0  0  0
 53 52  1  0  0  0
 52 51  1  0  0  0
 51 50  1  0  0  0
 50 49  1  0  0  0
 49 47  1  0  0  0
 47 48  2  0  0  0
 48 45  1  0  0  0
 42 41  1  0  0  0
 41 40  1  0  0  0
 40 39  1  0  0  0
 39  1  1  0  0  0
  1 21  1  0  0  0
  8  4  1  0  0  0
  8  9  1  0  0  0
  8 10  1  0  0  0
 11 13  1  0  0  0
 13 14  2  0  0  0
 13 18  1  0  0  0
 14 15  1  0  0  0
 15 16  2  0  0  0
 16 17  1  0  0  0
 17 18  2  0  0  0
 23 24  1  0  0  0
 23 25  1  0  0  0
 25 28  1  0  0  0
 32 33  1  0  0  0
 32 37  1  0  0  0
 33 34  1  0  0  0
 34 35  1  0  0  0
 35 36  1  0  0  0
M  END
> <minimizedAffinity>
-9.01984

> <CNNscore>
0.3418812156

> <CNNaffinity>
7.4464063644

> <CNN_VS>
2.5457863808

> <CNNaffinity_variance>
0.8215896487

$$$$
/media/chris/experiments/cd1a-new-docking/inputs/ligands/7ryo_ligand.pdb


 65 67  0  0  0  0  0  0  0  0999 V2000
  -35.8640   58.8388   64.7303 C   0  0  0  0  0  0  0  0  0  0  0  0
  -36.4459   59.7360   63.7461 N   0  0  0  0  0  0  0  0  0  0  0  0
  -38.1933   61.0056   63.1228 O   0  0  0  0  0  0  0  0  0  0  0  0
  -37.6612   60.2577   63.9295 C   0  0  0  0  0  0  0  0  0  0  0  0
  -35.9375   59.9620   62.9338 H   0  0  0  0  0  0  0  0  0  0  0  0
  -39.8494   60.0506   65.0434 N   0  0  0  0  0  0  0  0  0  0  0  0
  -39.5800   57.9809   65.8959 O   0  0  0  0  0  0  0  0  0  0  0  0
  -38.3967   59.9052   65.2330 C   0  0  0  0  0  0  0  0  0  0  0  0
  -37.9406   60.8612   66.3311 C   0  0  0  0  0  0  0  0  0  0  0  0
  -38.2254   58.4373   65.6510 C   0  0  0  0  0  0  0  0  0  0  0  0
  -40.3873   58.9669   65.4253 C   0  0  0  0  0  0  0  0  0  0  0  0
  -41.9030   58.6843   62.9949 O   0  0  0  0  0  0  0  0  0  0  0  0
  -41.8205   58.6640   65.4174 C   0  0  0  0  0  0  0  0  0  0  0  0
  -42.4783   58.3570   66.6091 C   0  0  0  0  0  0  0  0  0  0  0  0
  -43.7604   57.8354   66.5892 C   0  0  0  0  0  0  0  0  0  0  0  0
  -44.4045   57.6126   65.3917 C   0  0  0  0  0  0  0  0  0  0  0  0
  -43.7729   57.9040   64.1964 C   0  0  0  0  0  0  0  0  0  0  0  0
  -42.4836   58.4268   64.1957 C   0  0  0  0  0  0  0  0  0  0  0  0
  -41.0354   59.0368   62.9600 H   0  0  0  0  0  0  0  0  0  0  0  0
  -34.2709   60.3775   65.6972 O   0  0  0  0  0  0  0  0  0  0  0  0
  -34.4903   59.3213   65.1715 C   0  0  0  0  0  0  0  0  0  0  0  0
  -33.5508   58.4079   64.8713 O   0  0  0  0  0  0  0  0  0  0  0  0
  -32.7747   58.5926   63.6411 C   0  0  0  0  0  0  0  0  0  0  0  0
  -31.3428   58.2195   63.9309 C   0  0  0  0  0  0  0  0  0  0  0  0
  -32.9273   60.0572   63.2791 C   0  0  0  0  0  0  0  0  0  0  0  0
  -31.7184   61.7828   62.0946 N   0  0  0  0  0  0  0  0  0  0  0  0
  -31.5855   59.6694   61.3348 O   0  0  0  0  0  0  0  0  0  0  0  0
  -32.0198   60.4822   62.1461 C   0  0  0  0  0  0  0  0  0  0  0  0
  -31.1331   62.1099   61.3736 H   0  0  0  0  0  0  0  0  0  0  0  0
  -33.9120   64.4904   63.0695 N   0  0  0  0  0  0  0  0  0  0  0  0
  -32.9478   63.9235   61.1254 O   0  0  0  0  0  0  0  0  0  0  0  0
  -32.2293   62.7280   63.0719 C   0  0  0  0  0  0  0  0  0  0  0  0
  -31.0671   63.4192   63.7938 C   0  0  0  0  0  0  0  0  0  0  0  0
  -31.4676   64.0695   65.1136 C   0  0  0  0  0  0  0  0  0  0  0  0
  -32.4980   65.1763   65.0083 C   0  0  0  0  0  0  0  0  0  0  0  0
  -33.8522   64.7174   64.5094 C   0  0  0  0  0  0  0  0  0  0  0  0
  -33.0616   63.7672   62.3376 C   0  0  0  0  0  0  0  0  0  0  0  0
  -34.6578   64.9152   62.5871 H   0  0  0  0  0  0  0  0  0  0  0  0
  -35.7959   57.4047   64.2030 C   0  0  0  0  0  0  0  0  0  0  0  0
  -36.5247   57.2400   62.8737 C   0  0  0  0  0  0  0  0  0  0  0  0
  -35.6039   57.3388   61.6717 C   0  0  0  0  0  0  0  0  0  0  0  0
  -36.0420   58.3333   60.6188 C   0  0  0  0  0  0  0  0  0  0  0  0
  -37.4084   58.7729   60.8525 N   0  0  0  0  0  0  0  0  0  0  0  0
  -37.6554   59.6642   58.7938 O   0  0  0  0  0  0  0  0  0  0  0  0
  -38.1205   59.4105   59.9170 C   0  0  0  0  0  0  0  0  0  0  0  0
  -37.8228   58.5952   61.7276 H   0  0  0  0  0  0  0  0  0  0  0  0
  -40.5983   59.5174   59.7659 C   0  0  0  0  0  0  0  0  0  0  0  0
  -39.4617   59.8495   60.3630 C   0  0  0  0  0  0  0  0  0  0  0  0
  -40.7815   58.6431   58.5649 C   0  0  0  0  0  0  0  0  0  0  0  0
  -42.2555   58.4190   58.2497 C   0  0  0  0  0  0  0  0  0  0  0  0
  -42.6918   58.9960   56.9141 C   0  0  0  0  0  0  0  0  0  0  0  0
  -44.1751   58.8236   56.6324 C   0  0  0  0  0  0  0  0  0  0  0  0
  -44.8911   57.8943   57.5944 C   0  0  0  0  0  0  0  0  0  0  0  0
  -46.3784   57.7605   57.3125 C   0  0  0  0  0  0  0  0  0  0  0  0
  -47.1712   57.2220   58.4873 C   0  0  0  0  0  0  0  0  0  0  0  0
  -47.9875   58.2868   59.1921 C   0  0  0  0  0  0  0  0  0  0  0  0
  -48.5798   57.8464   60.5169 C   0  0  0  0  0  0  0  0  0  0  0  0
  -50.0695   57.5790   60.4323 C   0  0  0  0  0  0  0  0  0  0  0  0
  -50.8095   57.8962   61.7216 C   0  0  0  0  0  0  0  0  0  0  0  0
  -50.2069   59.0401   62.5185 C   0  0  0  0  0  0  0  0  0  0  0  0
  -51.1771   59.7112   63.4785 C   0  0  0  0  0  0  0  0  0  0  0  0
  -50.6255   59.8951   64.8857 C   0  0  0  0  0  0  0  0  0  0  0  0
  -50.3420   58.5835   65.6002 C   0  0  0  0  0  0  0  0  0  0  0  0
  -47.8876   58.4000   65.0356 C   0  0  0  0  0  0  0  0  0  0  0  0
  -48.9248   58.4485   66.1267 C   0  0  0  0  0  0  0  0  0  0  0  0
 43 45  1  0  0  0
 43 42  1  0  0  0
 43 46  1  0  0  0
 64 65  1  0  0  0
 44 45  2  0  0  0
 65 63  1  0  0  0
  2  1  1  0  0  0
  2  4  1  0  0  0
  2  5  1  0  0  0
  3  4  2  0  0  0
 63 62  1  0  0  0
  6  8  1  0  0  0
  6 11  2  0  0  0
  7 10  1  0  0  0
  7 11  1  0  0  0
 62 61  1  0  0  0
 26 28  1  0  0  0
 26 32  1  0  0  0
 26 29  1  0  0  0
 12 18  1  0  0  0
 12 19  1  0  0  0
 61 60  1  0  0  0
 30 36  1  0  0  0
 30 37  1  0  0  0
 30 38  1  0  0  0
 20 21  2  0  0  0
 60 59  1  0  0  0
 22 21  1  0  0  0
 22 23  1  0  0  0
 59 58  1  0  0  0
 27 28  2  0  0  0
 58 57  1  0  0  0
 31 37  2  0  0  0
 57 56  1  0  0  0
 56 55  1  0  0  0
 55 54  1  0  0  0
 54 53  1  0  0  0
 53 52  1  0  0  0
 52 51  1  0  0  0
 51 50  1  0  0  0
 50 49  1  0  0  0
 49 47  1  0  0  0
 47 48  2  0  0  0
 48 45  1  0  0  0
 42 41  1  0  0  0
 41 40  1  0  0  0
 40 39  1  0  0  0
 39  1  1  0  0  0
  1 21  1  0  0  0
  8  4  1  0  0  0
  8  9  1  0  0  0
  8 10  1  0  0  0
 11 13  1  0  0  0
 13 14  2  0  0  0
 13 18  1  0  0  0
 14 15  1  0  0  0
 15 16  2  0  0  0
 16 17  1  0  0  0
 17 18  2  0  0  0
 23 24  1  0  0  0
 23 25  1  0  0  0
 25 28  1  0  0  0
 32 33  1  0  0  0
 32 37  1  0  0  0
 33 34  1  0  0  0
 34 35  1  0  0  0
 35 36  1  0  0  0
M  END
> <minimizedAffinity>
-8.39165

> <CNNscore>
0.2827198207

> <CNNaffinity>
7.3861188889

> <CNN_VS>
2.0882022381

> <CNNaffinity_variance>
1.0684328079

$$$$
/media/chris/experiments/cd1a-new-docking/inputs/ligands/7ryo_ligand.pdb


 65 67  0  0  0  0  0  0  0  0999 V2000
  -38.7452   58.6309   64.0129 C   0  0  0  0  0  0  0  0  0  0  0  0
  -39.5973   58.4473   62.8499 N   0  0  0  0  0  0  0  0  0  0  0  0
  -41.4720   57.5607   61.9821 O   0  0  0  0  0  0  0  0  0  0  0  0
  -40.7327   57.7502   62.9365 C   0  0  0  0  0  0  0  0  0  0  0  0
  -39.3339   58.8420   61.9873 H   0  0  0  0  0  0  0  0  0  0  0  0
  -42.2309   57.9703   64.8804 N   0  0  0  0  0  0  0  0  0  0  0  0
  -42.9066   55.8232   65.0084 O   0  0  0  0  0  0  0  0  0  0  0  0
  -41.1187   57.1888   64.3149 C   0  0  0  0  0  0  0  0  0  0  0  0
  -39.9141   57.2934   65.2455 C   0  0  0  0  0  0  0  0  0  0  0  0
  -41.6682   55.7559   64.2567 C   0  0  0  0  0  0  0  0  0  0  0  0
  -43.1347   57.1461   65.2169 C   0  0  0  0  0  0  0  0  0  0  0  0
  -43.3781   58.9247   67.4666 O   0  0  0  0  0  0  0  0  0  0  0  0
  -44.4245   57.4793   65.8261 C   0  0  0  0  0  0  0  0  0  0  0  0
  -45.6117   57.0473   65.2336 C   0  0  0  0  0  0  0  0  0  0  0  0
  -46.8303   57.5527   65.6530 C   0  0  0  0  0  0  0  0  0  0  0  0
  -46.8872   58.4895   66.6618 C   0  0  0  0  0  0  0  0  0  0  0  0
  -45.7248   58.9376   67.2625 C   0  0  0  0  0  0  0  0  0  0  0  0
  -44.4904   58.4432   66.8533 C   0  0  0  0  0  0  0  0  0  0  0  0
  -42.5315   58.6122   67.2142 H   0  0  0  0  0  0  0  0  0  0  0  0
  -39.5154   60.7080   64.9790 O   0  0  0  0  0  0  0  0  0  0  0  0
  -38.6561   60.0983   64.4044 C   0  0  0  0  0  0  0  0  0  0  0  0
  -37.4876   60.6246   63.9983 O   0  0  0  0  0  0  0  0  0  0  0  0
  -36.4324   60.8190   64.9975 C   0  0  0  0  0  0  0  0  0  0  0  0
  -37.0683   61.3719   66.2479 C   0  0  0  0  0  0  0  0  0  0  0  0
  -35.4517   61.7911   64.3707 C   0  0  0  0  0  0  0  0  0  0  0  0
  -33.3089   61.9084   63.2586 N   0  0  0  0  0  0  0  0  0  0  0  0
  -34.1707   59.8797   63.7096 O   0  0  0  0  0  0  0  0  0  0  0  0
  -34.2568   61.1039   63.7480 C   0  0  0  0  0  0  0  0  0  0  0  0
  -32.5121   61.5092   62.8402 H   0  0  0  0  0  0  0  0  0  0  0  0
  -33.3925   65.1768   61.7081 N   0  0  0  0  0  0  0  0  0  0  0  0
  -32.3605   63.2565   61.1810 O   0  0  0  0  0  0  0  0  0  0  0  0
  -33.4203   63.3549   63.3261 C   0  0  0  0  0  0  0  0  0  0  0  0
  -32.4947   63.9042   64.4174 C   0  0  0  0  0  0  0  0  0  0  0  0
  -32.8575   65.3130   64.8745 C   0  0  0  0  0  0  0  0  0  0  0  0
  -32.7820   66.3846   63.8051 C   0  0  0  0  0  0  0  0  0  0  0  0
  -33.7720   66.2025   62.6737 C   0  0  0  0  0  0  0  0  0  0  0  0
  -33.0113   63.9262   61.9777 C   0  0  0  0  0  0  0  0  0  0  0  0
  -33.4205   65.4340   60.7582 H   0  0  0  0  0  0  0  0  0  0  0  0
  -37.3530   58.0422   63.7800 C   0  0  0  0  0  0  0  0  0  0  0  0
  -37.2963   57.1603   62.5372 C   0  0  0  0  0  0  0  0  0  0  0  0
  -36.1041   57.4588   61.6471 C   0  0  0  0  0  0  0  0  0  0  0  0
  -36.0055   58.8951   61.1818 C   0  0  0  0  0  0  0  0  0  0  0  0
  -37.3212   59.5094   61.1020 N   0  0  0  0  0  0  0  0  0  0  0  0
  -37.4779   59.2868   58.8615 O   0  0  0  0  0  0  0  0  0  0  0  0
  -37.9661   59.6616   59.9401 C   0  0  0  0  0  0  0  0  0  0  0  0
  -37.7513   59.8233   61.9300 H   0  0  0  0  0  0  0  0  0  0  0  0
  -40.4026   59.9412   59.5415 C   0  0  0  0  0  0  0  0  0  0  0  0
  -39.2567   60.3780   60.0465 C   0  0  0  0  0  0  0  0  0  0  0  0
  -40.6491   58.6673   58.7953 C   0  0  0  0  0  0  0  0  0  0  0  0
  -42.1147   58.5157   58.4066 C   0  0  0  0  0  0  0  0  0  0  0  0
  -42.4441   59.0653   57.0295 C   0  0  0  0  0  0  0  0  0  0  0  0
  -43.8740   58.7943   56.5924 C   0  0  0  0  0  0  0  0  0  0  0  0
  -44.7263   58.0976   57.6363 C   0  0  0  0  0  0  0  0  0  0  0  0
  -46.1719   57.9063   57.2081 C   0  0  0  0  0  0  0  0  0  0  0  0
  -47.1672   58.6234   58.0990 C   0  0  0  0  0  0  0  0  0  0  0  0
  -48.2169   57.6990   58.6824 C   0  0  0  0  0  0  0  0  0  0  0  0
  -48.1760   57.5805   60.1938 C   0  0  0  0  0  0  0  0  0  0  0  0
  -49.3017   56.7279   60.7450 C   0  0  0  0  0  0  0  0  0  0  0  0
  -50.6603   57.4048   60.6655 C   0  0  0  0  0  0  0  0  0  0  0  0
  -51.1156   58.0392   61.9681 C   0  0  0  0  0  0  0  0  0  0  0  0
  -50.3357   59.2838   62.3625 C   0  0  0  0  0  0  0  0  0  0  0  0
  -50.9762   60.0826   63.4894 C   0  0  0  0  0  0  0  0  0  0  0  0
  -50.0013   60.4596   64.5933 C   0  0  0  0  0  0  0  0  0  0  0  0
  -50.5137   58.3800   65.9308 C   0  0  0  0  0  0  0  0  0  0  0  0
  -50.3362   59.8755   65.9536 C   0  0  0  0  0  0  0  0  0  0  0  0
 43 45  1  0  0  0
 43 42  1  0  0  0
 43 46  1  0  0  0
 64 65  1  0  0  0
 44 45  2  0  0  0
 65 63  1  0  0  0
  2  1  1  0  0  0
  2  4  1  0  0  0
  2  5  1  0  0  0
  3  4  2  0  0  0
 63 62  1  0  0  0
  6  8  1  0  0  0
  6 11  2  0  0  0
  7 10  1  0  0  0
  7 11  1  0  0  0
 62 61  1  0  0  0
 26 28  1  0  0  0
 26 32  1  0  0  0
 26 29  1  0  0  0
 12 18  1  0  0  0
 12 19  1  0  0  0
 61 60  1  0  0  0
 30 36  1  0  0  0
 30 37  1  0  0  0
 30 38  1  0  0  0
 20 21  2  0  0  0
 60 59  1  0  0  0
 22 21  1  0  0  0
 22 23  1  0  0  0
 59 58  1  0  0  0
 27 28  2  0  0  0
 58 57  1  0  0  0
 31 37  2  0  0  0
 57 56  1  0  0  0
 56 55  1  0  0  0
 55 54  1  0  0  0
 54 53  1  0  0  0
 53 52  1  0  0  0
 52 51  1  0  0  0
 51 50  1  0  0  0
 50 49  1  0  0  0
 49 47  1  0  0  0
 47 48  2  0  0  0
 48 45  1  0  0  0
 42 41  1  0  0  0
 41 40  1  0  0  0
 40 39  1  0  0  0
 39  1  1  0  0  0
  1 21  1  0  0  0
  8  4  1  0  0  0
  8  9  1  0  0  0
  8 10  1  0  0  0
 11 13  1  0  0  0
 13 14  2  0  0  0
 13 18  1  0  0  0
 14 15  1  0  0  0
 15 16  2  0  0  0
 16 17  1  0  0  0
 17 18  2  0  0  0
 23 24  1  0  0  0
 23 25  1  0  0  0
 25 28  1  0  0  0
 32 33  1  0  0  0
 32 37  1  0  0  0
 33 34  1  0  0  0
 34 35  1  0  0  0
 35 36  1  0  0  0
M  END
> <minimizedAffinity>
-8.06148

> <CNNscore>
0.2708343863

> <CNNaffinity>
7.6436767578

> <CNN_VS>
2.0701704025

> <CNNaffinity_variance>
0.9153068662

$$$$
/media/chris/experiments/cd1a-new-docking/inputs/ligands/7ryo_ligand.pdb


 65 67  0  0  0  0  0  0  0  0999 V2000
  -36.4247   58.9047   63.6299 C   0  0  0  0  0  0  0  0  0  0  0  0
  -37.3006   59.8854   63.0107 N   0  0  0  0  0  0  0  0  0  0  0  0
  -39.3146   60.8833   62.9677 O   0  0  0  0  0  0  0  0  0  0  0  0
  -38.5408   60.0791   63.4656 C   0  0  0  0  0  0  0  0  0  0  0  0
  -36.9752   60.4136   62.2462 H   0  0  0  0  0  0  0  0  0  0  0  0
  -40.4268   59.4515   64.9220 N   0  0  0  0  0  0  0  0  0  0  0  0
  -40.1439   57.2154   64.8663 O   0  0  0  0  0  0  0  0  0  0  0  0
  -38.9865   59.2577   64.6866 C   0  0  0  0  0  0  0  0  0  0  0  0
  -38.2138   59.7362   65.9122 C   0  0  0  0  0  0  0  0  0  0  0  0
  -38.8475   57.7416   64.4844 C   0  0  0  0  0  0  0  0  0  0  0  0
  -40.9520   58.2992   64.9997 C   0  0  0  0  0  0  0  0  0  0  0  0
  -42.2596   58.8283   67.5086 O   0  0  0  0  0  0  0  0  0  0  0  0
  -42.3693   58.0095   65.2298 C   0  0  0  0  0  0  0  0  0  0  0  0
  -43.1794   57.5912   64.1733 C   0  0  0  0  0  0  0  0  0  0  0  0
  -44.5555   57.5498   64.3174 C   0  0  0  0  0  0  0  0  0  0  0  0
  -45.1441   57.9210   65.5067 C   0  0  0  0  0  0  0  0  0  0  0  0
  -44.3641   58.3437   66.5676 C   0  0  0  0  0  0  0  0  0  0  0  0
  -42.9795   58.3943   66.4415 C   0  0  0  0  0  0  0  0  0  0  0  0
  -41.3251   58.8740   67.4559 H   0  0  0  0  0  0  0  0  0  0  0  0
  -34.6399   59.4801   65.1544 O   0  0  0  0  0  0  0  0  0  0  0  0
  -35.1038   59.5327   64.0489 C   0  0  0  0  0  0  0  0  0  0  0  0
  -34.5367   60.1740   63.0125 O   0  0  0  0  0  0  0  0  0  0  0  0
  -33.1427   59.8600   62.6839 C   0  0  0  0  0  0  0  0  0  0  0  0
  -32.8698   58.4402   63.1118 C   0  0  0  0  0  0  0  0  0  0  0  0
  -32.3067   60.8650   63.4523 C   0  0  0  0  0  0  0  0  0  0  0  0
  -32.8447   63.2146   63.2725 N   0  0  0  0  0  0  0  0  0  0  0  0
  -31.4797   62.3084   61.7307 O   0  0  0  0  0  0  0  0  0  0  0  0
  -32.1735   62.1910   62.7368 C   0  0  0  0  0  0  0  0  0  0  0  0
  -32.7925   64.0983   62.8418 H   0  0  0  0  0  0  0  0  0  0  0  0
  -36.0309   62.8915   64.9568 N   0  0  0  0  0  0  0  0  0  0  0  0
  -35.3885   63.9392   63.0806 O   0  0  0  0  0  0  0  0  0  0  0  0
  -33.6489   63.0609   64.4722 C   0  0  0  0  0  0  0  0  0  0  0  0
  -33.1912   64.0562   65.5443 C   0  0  0  0  0  0  0  0  0  0  0  0
  -33.6409   63.6861   66.9536 C   0  0  0  0  0  0  0  0  0  0  0  0
  -35.1409   63.6355   67.1666 C   0  0  0  0  0  0  0  0  0  0  0  0
  -35.8451   62.5604   66.3655 C   0  0  0  0  0  0  0  0  0  0  0  0
  -35.0998   63.3356   64.1097 C   0  0  0  0  0  0  0  0  0  0  0  0
  -36.9383   62.7751   64.5928 H   0  0  0  0  0  0  0  0  0  0  0  0
  -36.1919   57.7071   62.7076 C   0  0  0  0  0  0  0  0  0  0  0  0
  -37.0759   57.7505   61.4658 C   0  0  0  0  0  0  0  0  0  0  0  0
  -36.5190   58.6367   60.3671 C   0  0  0  0  0  0  0  0  0  0  0  0
  -37.5613   59.4054   59.5846 C   0  0  0  0  0  0  0  0  0  0  0  0
  -38.8102   58.6639   59.5105 N   0  0  0  0  0  0  0  0  0  0  0  0
  -40.1070   60.5108   59.5376 O   0  0  0  0  0  0  0  0  0  0  0  0
  -40.0000   59.2744   59.4922 C   0  0  0  0  0  0  0  0  0  0  0  0
  -38.7788   57.6807   59.4724 H   0  0  0  0  0  0  0  0  0  0  0  0
  -42.0494   58.2646   58.5154 C   0  0  0  0  0  0  0  0  0  0  0  0
  -41.1593   58.3544   59.4945 C   0  0  0  0  0  0  0  0  0  0  0  0
  -42.0756   59.0269   57.2276 C   0  0  0  0  0  0  0  0  0  0  0  0
  -43.4696   59.0478   56.6125 C   0  0  0  0  0  0  0  0  0  0  0  0
  -44.4480   58.0955   57.2780 C   0  0  0  0  0  0  0  0  0  0  0  0
  -45.8644   58.6396   57.3625 C   0  0  0  0  0  0  0  0  0  0  0  0
  -46.9467   57.6137   57.0839 C   0  0  0  0  0  0  0  0  0  0  0  0
  -48.0055   57.5403   58.1717 C   0  0  0  0  0  0  0  0  0  0  0  0
  -47.8442   56.3480   59.0942 C   0  0  0  0  0  0  0  0  0  0  0  0
  -49.0575   56.1044   59.9689 C   0  0  0  0  0  0  0  0  0  0  0  0
  -49.3033   57.1782   61.0112 C   0  0  0  0  0  0  0  0  0  0  0  0
  -50.7369   57.6708   61.0177 C   0  0  0  0  0  0  0  0  0  0  0  0
  -51.1772   58.2155   62.3667 C   0  0  0  0  0  0  0  0  0  0  0  0
  -50.8035   59.6686   62.6022 C   0  0  0  0  0  0  0  0  0  0  0  0
  -49.3149   59.9054   62.8050 C   0  0  0  0  0  0  0  0  0  0  0  0
  -48.9297   60.2164   64.2448 C   0  0  0  0  0  0  0  0  0  0  0  0
  -50.1261   60.4245   65.1594 C   0  0  0  0  0  0  0  0  0  0  0  0
  -49.4332   58.1289   65.9509 C   0  0  0  0  0  0  0  0  0  0  0  0
  -50.4329   59.2492   66.0696 C   0  0  0  0  0  0  0  0  0  0  0  0
 43 45  1  0  0  0
 43 42  1  0  0  0
 43 46  1  0  0  0
 64 65  1  0  0  0
 44 45  2  0  0  0
 65 63  1  0  0  0
  2  1  1  0  0  0
  2  4  1  0  0  0
  2  5  1  0  0  0
  3  4  2  0  0  0
 63 62  1  0  0  0
  6  8  1  0  0  0
  6 11  2  0  0  0
  7 10  1  0  0  0
  7 11  1  0  0  0
 62 61  1  0  0  0
 26 28  1  0  0  0
 26 32  1  0  0  0
 26 29  1  0  0  0
 12 18  1  0  0  0
 12 19  1  0  0  0
 61 60  1  0  0  0
 30 36  1  0  0  0
 30 37  1  0  0  0
 30 38  1  0  0  0
 20 21  2  0  0  0
 60 59  1  0  0  0
 22 21  1  0  0  0
 22 23  1  0  0  0
 59 58  1  0  0  0
 27 28  2  0  0  0
 58 57  1  0  0  0
 31 37  2  0  0  0
 57 56  1  0  0  0
 56 55  1  0  0  0
 55 54  1  0  0  0
 54 53  1  0  0  0
 53 52  1  0  0  0
 52 51  1  0  0  0
 51 50  1  0  0  0
 50 49  1  0  0  0
 49 47  1  0  0  0
 47 48  2  0  0  0
 48 45  1  0  0  0
 42 41  1  0  0  0
 41 40  1  0  0  0
 40 39  1  0  0  0
 39  1  1  0  0  0
  1 21  1  0  0  0
  8  4  1  0  0  0
  8  9  1  0  0  0
  8 10  1  0  0  0
 11 13  1  0  0  0
 13 14  2  0  0  0
 13 18  1  0  0  0
 14 15  1  0  0  0
 15 16  2  0  0  0
 16 17  1  0  0  0
 17 18  2  0  0  0
 23 24  1  0  0  0
 23 25  1  0  0  0
 25 28  1  0  0  0
 32 33  1  0  0  0
 32 37  1  0  0  0
 33 34  1  0  0  0
 34 35  1  0  0  0
 35 36  1  0  0  0
M  END
> <minimizedAffinity>
-8.70126

> <CNNscore>
0.2634292245

> <CNNaffinity>
7.4595174789

> <CNN_VS>
1.9650548697

> <CNNaffinity_variance>
1.0815978050

$$$$
/media/chris/experiments/cd1a-new-docking/inputs/ligands/7ryo_ligand.pdb


 65 67  0  0  0  0  0  0  0  0999 V2000
  -35.8008   59.0127   64.4094 C   0  0  0  0  0  0  0  0  0  0  0  0
  -34.8861   57.9984   63.9125 N   0  0  0  0  0  0  0  0  0  0  0  0
  -34.2302   56.6987   62.1995 O   0  0  0  0  0  0  0  0  0  0  0  0
  -34.9699   57.5584   62.6547 C   0  0  0  0  0  0  0  0  0  0  0  0
  -34.1960   57.6312   64.5110 H   0  0  0  0  0  0  0  0  0  0  0  0
  -37.2004   57.2949   61.6413 N   0  0  0  0  0  0  0  0  0  0  0  0
  -38.0628   59.2894   62.2424 O   0  0  0  0  0  0  0  0  0  0  0  0
  -36.0387   58.1928   61.7495 C   0  0  0  0  0  0  0  0  0  0  0  0
  -35.4451   58.4070   60.3603 C   0  0  0  0  0  0  0  0  0  0  0  0
  -36.6287   59.4904   62.3210 C   0  0  0  0  0  0  0  0  0  0  0  0
  -38.2301   57.9786   61.9272 C   0  0  0  0  0  0  0  0  0  0  0  0
  -40.2073   58.8365   60.0196 O   0  0  0  0  0  0  0  0  0  0  0  0
  -39.6119   57.4926   61.9470 C   0  0  0  0  0  0  0  0  0  0  0  0
  -39.9826   56.4707   62.8219 C   0  0  0  0  0  0  0  0  0  0  0  0
  -41.2066   55.8387   62.6849 C   0  0  0  0  0  0  0  0  0  0  0  0
  -42.0757   56.2107   61.6825 C   0  0  0  0  0  0  0  0  0  0  0  0
  -41.7303   57.2175   60.7995 C   0  0  0  0  0  0  0  0  0  0  0  0
  -40.5038   57.8630   60.9195 C   0  0  0  0  0  0  0  0  0  0  0  0
  -39.3893   59.2906   60.0731 H   0  0  0  0  0  0  0  0  0  0  0  0
  -34.2849   59.7865   66.1251 O   0  0  0  0  0  0  0  0  0  0  0  0
  -35.0716   60.0448   65.2564 C   0  0  0  0  0  0  0  0  0  0  0  0
  -35.4466   61.2886   64.9109 O   0  0  0  0  0  0  0  0  0  0  0  0
  -35.1541   62.3829   65.8418 C   0  0  0  0  0  0  0  0  0  0  0  0
  -36.4380   63.1280   66.1060 C   0  0  0  0  0  0  0  0  0  0  0  0
  -34.1195   63.2452   65.1450 C   0  0  0  0  0  0  0  0  0  0  0  0
  -32.0279   64.3656   65.6051 N   0  0  0  0  0  0  0  0  0  0  0  0
  -33.5091   64.1335   67.2826 O   0  0  0  0  0  0  0  0  0  0  0  0
  -33.1932   63.9508   66.1103 C   0  0  0  0  0  0  0  0  0  0  0  0
  -31.3888   64.8279   66.1943 H   0  0  0  0  0  0  0  0  0  0  0  0
  -31.5557   65.5519   62.2194 N   0  0  0  0  0  0  0  0  0  0  0  0
  -32.9301   66.1678   63.8814 O   0  0  0  0  0  0  0  0  0  0  0  0
  -31.6770   64.1542   64.2117 C   0  0  0  0  0  0  0  0  0  0  0  0
  -32.3974   62.9147   63.6693 C   0  0  0  0  0  0  0  0  0  0  0  0
  -31.7701   62.3500   62.3994 C   0  0  0  0  0  0  0  0  0  0  0  0
  -31.7675   63.2820   61.2039 C   0  0  0  0  0  0  0  0  0  0  0  0
  -30.9278   64.5283   61.3909 C   0  0  0  0  0  0  0  0  0  0  0  0
  -32.1090   65.3795   63.4219 C   0  0  0  0  0  0  0  0  0  0  0  0
  -31.5731   66.4657   61.8532 H   0  0  0  0  0  0  0  0  0  0  0  0
  -36.9567   58.3842   65.1893 C   0  0  0  0  0  0  0  0  0  0  0  0
  -37.7738   59.4214   65.9521 C   0  0  0  0  0  0  0  0  0  0  0  0
  -38.6554   60.2669   65.0518 C   0  0  0  0  0  0  0  0  0  0  0  0
  -40.0458   60.5258   65.5897 C   0  0  0  0  0  0  0  0  0  0  0  0
  -40.7161   59.2796   65.9252 N   0  0  0  0  0  0  0  0  0  0  0  0
  -42.1214   59.3613   64.1611 O   0  0  0  0  0  0  0  0  0  0  0  0
  -41.7116   58.7846   65.1818 C   0  0  0  0  0  0  0  0  0  0  0  0
  -40.4276   58.7842   66.7255 H   0  0  0  0  0  0  0  0  0  0  0  0
  -43.4913   57.0574   65.3339 C   0  0  0  0  0  0  0  0  0  0  0  0
  -42.3230   57.5500   65.7226 C   0  0  0  0  0  0  0  0  0  0  0  0
  -44.4140   57.6023   64.2889 C   0  0  0  0  0  0  0  0  0  0  0  0
  -45.7835   57.9396   64.8658 C   0  0  0  0  0  0  0  0  0  0  0  0
  -45.7930   58.0868   66.3775 C   0  0  0  0  0  0  0  0  0  0  0  0
  -47.1850   58.0354   66.9849 C   0  0  0  0  0  0  0  0  0  0  0  0
  -48.0174   59.2815   66.7489 C   0  0  0  0  0  0  0  0  0  0  0  0
  -49.3018   59.0150   65.9815 C   0  0  0  0  0  0  0  0  0  0  0  0
  -49.9853   60.2753   65.4885 C   0  0  0  0  0  0  0  0  0  0  0  0
  -51.1413   59.9965   64.5491 C   0  0  0  0  0  0  0  0  0  0  0  0
  -50.8296   58.9957   63.4531 C   0  0  0  0  0  0  0  0  0  0  0  0
  -49.9673   59.5820   62.3528 C   0  0  0  0  0  0  0  0  0  0  0  0
  -49.3482   58.5271   61.4504 C   0  0  0  0  0  0  0  0  0  0  0  0
  -50.1071   58.2940   60.1556 C   0  0  0  0  0  0  0  0  0  0  0  0
  -49.2582   57.7285   59.0275 C   0  0  0  0  0  0  0  0  0  0  0  0
  -47.7928   58.1367   59.0932 C   0  0  0  0  0  0  0  0  0  0  0  0
  -46.9772   57.6555   57.9040 C   0  0  0  0  0  0  0  0  0  0  0  0
  -47.3418   55.3787   56.8747 C   0  0  0  0  0  0  0  0  0  0  0  0
  -46.6318   56.1778   57.9358 C   0  0  0  0  0  0  0  0  0  0  0  0
 43 45  1  0  0  0
 43 42  1  0  0  0
 43 46  1  0  0  0
 64 65  1  0  0  0
 44 45  2  0  0  0
 65 63  1  0  0  0
  2  1  1  0  0  0
  2  4  1  0  0  0
  2  5  1  0  0  0
  3  4  2  0  0  0
 63 62  1  0  0  0
  6  8  1  0  0  0
  6 11  2  0  0  0
  7 10  1  0  0  0
  7 11  1  0  0  0
 62 61  1  0  0  0
 26 28  1  0  0  0
 26 32  1  0  0  0
 26 29  1  0  0  0
 12 18  1  0  0  0
 12 19  1  0  0  0
 61 60  1  0  0  0
 30 36  1  0  0  0
 30 37  1  0  0  0
 30 38  1  0  0  0
 20 21  2  0  0  0
 60 59  1  0  0  0
 22 21  1  0  0  0
 22 23  1  0  0  0
 59 58  1  0  0  0
 27 28  2  0  0  0
 58 57  1  0  0  0
 31 37  2  0  0  0
 57 56  1  0  0  0
 56 55  1  0  0  0
 55 54  1  0  0  0
 54 53  1  0  0  0
 53 52  1  0  0  0
 52 51  1  0  0  0
 51 50  1  0  0  0
 50 49  1  0  0  0
 49 47  1  0  0  0
 47 48  2  0  0  0
 48 45  1  0  0  0
 42 41  1  0  0  0
 41 40  1  0  0  0
 40 39  1  0  0  0
 39  1  1  0  0  0
  1 21  1  0  0  0
  8  4  1  0  0  0
  8  9  1  0  0  0
  8 10  1  0  0  0
 11 13  1  0  0  0
 13 14  2  0  0  0
 13 18  1  0  0  0
 14 15  1  0  0  0
 15 16  2  0  0  0
 16 17  1  0  0  0
 17 18  2  0  0  0
 23 24  1  0  0  0
 23 25  1  0  0  0
 25 28  1  0  0  0
 32 33  1  0  0  0
 32 37  1  0  0  0
 33 34  1  0  0  0
 34 35  1  0  0  0
 35 36  1  0  0  0
M  END
> <minimizedAffinity>
-9.61569

> <CNNscore>
0.2282129079

> <CNNaffinity>
7.4881653786

> <CNN_VS>
1.7088960409

> <CNNaffinity_variance>
1.0061175823

$$$$
/media/chris/experiments/cd1a-new-docking/inputs/ligands/7ryo_ligand.pdb


 65 67  0  0  0  0  0  0  0  0999 V2000
  -34.4187   59.9717   63.7090 C   0  0  0  0  0  0  0  0  0  0  0  0
  -34.6991   58.8240   64.5555 N   0  0  0  0  0  0  0  0  0  0  0  0
  -35.8172   56.8946   64.8409 O   0  0  0  0  0  0  0  0  0  0  0  0
  -35.5431   57.8694   64.1566 C   0  0  0  0  0  0  0  0  0  0  0  0
  -34.2611   58.7495   65.4341 H   0  0  0  0  0  0  0  0  0  0  0  0
  -37.3754   57.1734   62.6632 N   0  0  0  0  0  0  0  0  0  0  0  0
  -38.0395   59.2218   61.9953 O   0  0  0  0  0  0  0  0  0  0  0  0
  -36.1697   58.0127   62.7598 C   0  0  0  0  0  0  0  0  0  0  0  0
  -35.1578   57.5513   61.7153 C   0  0  0  0  0  0  0  0  0  0  0  0
  -36.6834   59.4298   62.4653 C   0  0  0  0  0  0  0  0  0  0  0  0
  -38.3165   57.9162   62.2485 C   0  0  0  0  0  0  0  0  0  0  0  0
  -39.8201   58.7988   59.9585 O   0  0  0  0  0  0  0  0  0  0  0  0
  -39.6999   57.5018   62.0028 C   0  0  0  0  0  0  0  0  0  0  0  0
  -40.2960   56.5345   62.8129 C   0  0  0  0  0  0  0  0  0  0  0  0
  -41.5021   55.9605   62.4495 C   0  0  0  0  0  0  0  0  0  0  0  0
  -42.1306   56.3370   61.2825 C   0  0  0  0  0  0  0  0  0  0  0  0
  -41.5586   57.2902   60.4597 C   0  0  0  0  0  0  0  0  0  0  0  0
  -40.3458   57.8770   60.8067 C   0  0  0  0  0  0  0  0  0  0  0  0
  -39.0047   59.2125   60.1632 H   0  0  0  0  0  0  0  0  0  0  0  0
  -32.2232   59.0967   63.2041 O   0  0  0  0  0  0  0  0  0  0  0  0
  -32.9412   60.0465   63.3541 C   0  0  0  0  0  0  0  0  0  0  0  0
  -32.5449   61.3270   63.2522 O   0  0  0  0  0  0  0  0  0  0  0  0
  -31.8199   61.7324   62.0440 C   0  0  0  0  0  0  0  0  0  0  0  0
  -31.0246   60.5479   61.5562 C   0  0  0  0  0  0  0  0  0  0  0  0
  -30.9334   62.8870   62.4688 C   0  0  0  0  0  0  0  0  0  0  0  0
  -31.9061   65.0975   62.5684 N   0  0  0  0  0  0  0  0  0  0  0  0
  -31.0435   64.3951   60.6129 O   0  0  0  0  0  0  0  0  0  0  0  0
  -31.3006   64.1909   61.7960 C   0  0  0  0  0  0  0  0  0  0  0  0
  -32.1679   65.9617   62.1761 H   0  0  0  0  0  0  0  0  0  0  0  0
  -34.1927   64.4108   65.2875 N   0  0  0  0  0  0  0  0  0  0  0  0
  -34.3976   65.5414   63.3613 O   0  0  0  0  0  0  0  0  0  0  0  0
  -32.1890   64.8446   63.9704 C   0  0  0  0  0  0  0  0  0  0  0  0
  -31.4662   65.8732   64.8475 C   0  0  0  0  0  0  0  0  0  0  0  0
  -31.3229   65.4419   66.3030 C   0  0  0  0  0  0  0  0  0  0  0  0
  -32.6242   65.2253   67.0496 C   0  0  0  0  0  0  0  0  0  0  0  0
  -33.4663   64.0879   66.5108 C   0  0  0  0  0  0  0  0  0  0  0  0
  -33.6903   64.9626   64.1807 C   0  0  0  0  0  0  0  0  0  0  0  0
  -35.1543   64.1995   65.2771 H   0  0  0  0  0  0  0  0  0  0  0  0
  -34.8902   61.2719   64.3619 C   0  0  0  0  0  0  0  0  0  0  0  0
  -35.4347   61.0504   65.7689 C   0  0  0  0  0  0  0  0  0  0  0  0
  -36.8885   61.4589   65.9177 C   0  0  0  0  0  0  0  0  0  0  0  0
  -37.8837   60.4828   65.3293 C   0  0  0  0  0  0  0  0  0  0  0  0
  -39.0387   60.3269   66.1992 N   0  0  0  0  0  0  0  0  0  0  0  0
  -40.5396   60.4990   64.5225 O   0  0  0  0  0  0  0  0  0  0  0  0
  -40.2909   60.3464   65.7296 C   0  0  0  0  0  0  0  0  0  0  0  0
  -38.8942   60.2028   67.1650 H   0  0  0  0  0  0  0  0  0  0  0  0
  -42.1891   59.2434   66.8931 C   0  0  0  0  0  0  0  0  0  0  0  0
  -41.3365   60.2520   66.7727 C   0  0  0  0  0  0  0  0  0  0  0  0
  -42.2751   58.0101   66.0493 C   0  0  0  0  0  0  0  0  0  0  0  0
  -43.2700   58.1762   64.9070 C   0  0  0  0  0  0  0  0  0  0  0  0
  -44.5652   57.4080   65.1050 C   0  0  0  0  0  0  0  0  0  0  0  0
  -45.6818   58.2434   65.7087 C   0  0  0  0  0  0  0  0  0  0  0  0
  -46.8401   58.5141   64.7671 C   0  0  0  0  0  0  0  0  0  0  0  0
  -48.0228   59.1899   65.4411 C   0  0  0  0  0  0  0  0  0  0  0  0
  -48.4588   60.4708   64.7571 C   0  0  0  0  0  0  0  0  0  0  0  0
  -49.9288   60.7806   64.9561 C   0  0  0  0  0  0  0  0  0  0  0  0
  -50.8714   59.7601   64.3478 C   0  0  0  0  0  0  0  0  0  0  0  0
  -50.5808   59.4941   62.8840 C   0  0  0  0  0  0  0  0  0  0  0  0
  -50.5222   58.0137   62.5441 C   0  0  0  0  0  0  0  0  0  0  0  0
  -50.8203   57.6981   61.0887 C   0  0  0  0  0  0  0  0  0  0  0  0
  -49.8739   56.6851   60.4631 C   0  0  0  0  0  0  0  0  0  0  0  0
  -48.4960   57.2457   60.1388 C   0  0  0  0  0  0  0  0  0  0  0  0
  -48.3018   57.5574   58.6635 C   0  0  0  0  0  0  0  0  0  0  0  0
  -46.1530   57.8784   57.3767 C   0  0  0  0  0  0  0  0  0  0  0  0
  -47.1258   58.4688   58.3635 C   0  0  0  0  0  0  0  0  0  0  0  0
 43 45  1  0  0  0
 43 42  1  0  0  0
 43 46  1  0  0  0
 64 65  1  0  0  0
 44 45  2  0  0  0
 65 63  1  0  0  0
  2  1  1  0  0  0
  2  4  1  0  0  0
  2  5  1  0  0  0
  3  4  2  0  0  0
 63 62  1  0  0  0
  6  8  1  0  0  0
  6 11  2  0  0  0
  7 10  1  0  0  0
  7 11  1  0  0  0
 62 61  1  0  0  0
 26 28  1  0  0  0
 26 32  1  0  0  0
 26 29  1  0  0  0
 12 18  1  0  0  0
 12 19  1  0  0  0
 61 60  1  0  0  0
 30 36  1  0  0  0
 30 37  1  0  0  0
 30 38  1  0  0  0
 20 21  2  0  0  0
 60 59  1  0  0  0
 22 21  1  0  0  0
 22 23  1  0  0  0
 59 58  1  0  0  0
 27 28  2  0  0  0
 58 57  1  0  0  0
 31 37  2  0  0  0
 57 56  1  0  0  0
 56 55  1  0  0  0
 55 54  1  0  0  0
 54 53  1  0  0  0
 53 52  1  0  0  0
 52 51  1  0  0  0
 51 50  1  0  0  0
 50 49  1  0  0  0
 49 47  1  0  0  0
 47 48  2  0  0  0
 48 45  1  0  0  0
 42 41  1  0  0  0
 41 40  1  0  0  0
 40 39  1  0  0  0
 39  1  1  0  0  0
  1 21  1  0  0  0
  8  4  1  0  0  0
  8  9  1  0  0  0
  8 10  1  0  0  0
 11 13  1  0  0  0
 13 14  2  0  0  0
 13 18  1  0  0  0
 14 15  1  0  0  0
 15 16  2  0  0  0
 16 17  1  0  0  0
 17 18  2  0  0  0
 23 24  1  0  0  0
 23 25  1  0  0  0
 25 28  1  0  0  0
 32 33  1  0  0  0
 32 37  1  0  0  0
 33 34  1  0  0  0
 34 35  1  0  0  0
 35 36  1  0  0  0
M  END
> <minimizedAffinity>
-10.26762

> <CNNscore>
0.2239951938

> <CNNaffinity>
7.2588872910

> <CNN_VS>
1.6259558201

> <CNNaffinity_variance>
1.7292823792

$$$$
/media/chris/experiments/cd1a-new-docking/inputs/ligands/7ryo_ligand.pdb


 65 67  0  0  0  0  0  0  0  0999 V2000
  -42.6609   57.6072   64.8783 C   0  0  0  0  0  0  0  0  0  0  0  0
  -42.3930   58.3056   66.1245 N   0  0  0  0  0  0  0  0  0  0  0  0
  -41.1843   59.8524   67.2201 O   0  0  0  0  0  0  0  0  0  0  0  0
  -41.4510   59.2494   66.1911 C   0  0  0  0  0  0  0  0  0  0  0  0
  -42.9128   58.0800   66.9295 H   0  0  0  0  0  0  0  0  0  0  0  0
  -39.6916   60.6356   65.1640 N   0  0  0  0  0  0  0  0  0  0  0  0
  -38.5552   58.9904   64.1224 O   0  0  0  0  0  0  0  0  0  0  0  0
  -40.6955   59.5924   64.8966 C   0  0  0  0  0  0  0  0  0  0  0  0
  -41.6927   60.1147   63.8667 C   0  0  0  0  0  0  0  0  0  0  0  0
  -39.8703   58.4208   64.3444 C   0  0  0  0  0  0  0  0  0  0  0  0
  -38.5834   60.2132   64.7136 C   0  0  0  0  0  0  0  0  0  0  0  0
  -37.4760   61.2623   67.1543 O   0  0  0  0  0  0  0  0  0  0  0  0
  -37.3040   60.9251   64.7601 C   0  0  0  0  0  0  0  0  0  0  0  0
  -36.4988   60.9940   63.6225 C   0  0  0  0  0  0  0  0  0  0  0  0
  -35.1931   61.4449   63.7127 C   0  0  0  0  0  0  0  0  0  0  0  0
  -34.6709   61.8320   64.9276 C   0  0  0  0  0  0  0  0  0  0  0  0
  -35.4466   61.7691   66.0708 C   0  0  0  0  0  0  0  0  0  0  0  0
  -36.7604   61.3167   66.0009 C   0  0  0  0  0  0  0  0  0  0  0  0
  -38.3636   60.9623   67.1411 H   0  0  0  0  0  0  0  0  0  0  0  0
  -44.5690   56.1270   64.7858 O   0  0  0  0  0  0  0  0  0  0  0  0
  -44.1333   57.2447   64.7556 C   0  0  0  0  0  0  0  0  0  0  0  0
  -44.8788   58.3506   64.5871 O   0  0  0  0  0  0  0  0  0  0  0  0
  -46.0613   58.5235   65.4366 C   0  0  0  0  0  0  0  0  0  0  0  0
  -45.9137   57.6186   66.6336 C   0  0  0  0  0  0  0  0  0  0  0  0
  -47.2455   58.1439   64.5689 C   0  0  0  0  0  0  0  0  0  0  0  0
  -49.6351   58.4960   64.4808 N   0  0  0  0  0  0  0  0  0  0  0  0
  -48.6567   58.2954   66.4967 O   0  0  0  0  0  0  0  0  0  0  0  0
  -48.5728   58.3215   65.2721 C   0  0  0  0  0  0  0  0  0  0  0  0
  -50.5217   58.6190   64.8908 H   0  0  0  0  0  0  0  0  0  0  0  0
  -49.5629   60.2239   61.3024 N   0  0  0  0  0  0  0  0  0  0  0  0
  -50.6057   60.6326   63.2455 O   0  0  0  0  0  0  0  0  0  0  0  0
  -49.5195   58.5091   63.0330 C   0  0  0  0  0  0  0  0  0  0  0  0
  -50.4305   57.4384   62.4221 C   0  0  0  0  0  0  0  0  0  0  0  0
  -50.0588   57.0636   60.9915 C   0  0  0  0  0  0  0  0  0  0  0  0
  -50.1448   58.1890   59.9798 C   0  0  0  0  0  0  0  0  0  0  0  0
  -49.1692   59.3206   60.2265 C   0  0  0  0  0  0  0  0  0  0  0  0
  -49.9436   59.8818   62.5352 C   0  0  0  0  0  0  0  0  0  0  0  0
  -49.5459   61.1868   61.0977 H   0  0  0  0  0  0  0  0  0  0  0  0
  -41.7790   56.3657   64.7368 C   0  0  0  0  0  0  0  0  0  0  0  0
  -41.7279   55.8507   63.3024 C   0  0  0  0  0  0  0  0  0  0  0  0
  -42.2900   56.8355   62.2940 C   0  0  0  0  0  0  0  0  0  0  0  0
  -41.4233   57.0555   61.0733 C   0  0  0  0  0  0  0  0  0  0  0  0
  -40.5410   58.1967   61.2585 N   0  0  0  0  0  0  0  0  0  0  0  0
  -40.6037   58.8147   59.0887 O   0  0  0  0  0  0  0  0  0  0  0  0
  -40.1931   58.9986   60.2462 C   0  0  0  0  0  0  0  0  0  0  0  0
  -40.1886   58.3851   62.1581 H   0  0  0  0  0  0  0  0  0  0  0  0
  -37.9111   59.8950   60.6494 C   0  0  0  0  0  0  0  0  0  0  0  0
  -39.2266   60.0586   60.6104 C   0  0  0  0  0  0  0  0  0  0  0  0
  -37.1312   58.6583   60.3291 C   0  0  0  0  0  0  0  0  0  0  0  0
  -37.1432   57.6679   61.4872 C   0  0  0  0  0  0  0  0  0  0  0  0
  -35.8959   57.7207   62.3523 C   0  0  0  0  0  0  0  0  0  0  0  0
  -34.6085   57.8545   61.5561 C   0  0  0  0  0  0  0  0  0  0  0  0
  -33.4976   56.9221   62.0011 C   0  0  0  0  0  0  0  0  0  0  0  0
  -32.2158   57.0825   61.2005 C   0  0  0  0  0  0  0  0  0  0  0  0
  -31.9301   58.5154   60.7956 C   0  0  0  0  0  0  0  0  0  0  0  0
  -31.6140   59.4146   61.9738 C   0  0  0  0  0  0  0  0  0  0  0  0
  -31.0708   60.7782   61.5923 C   0  0  0  0  0  0  0  0  0  0  0  0
  -31.7589   61.9099   62.3296 C   0  0  0  0  0  0  0  0  0  0  0  0
  -31.1929   63.2788   61.9887 C   0  0  0  0  0  0  0  0  0  0  0  0
  -32.2168   64.2541   61.4345 C   0  0  0  0  0  0  0  0  0  0  0  0
  -33.5656   64.2086   62.1357 C   0  0  0  0  0  0  0  0  0  0  0  0
  -33.8293   65.4011   63.0449 C   0  0  0  0  0  0  0  0  0  0  0  0
  -32.5691   66.1606   63.4270 C   0  0  0  0  0  0  0  0  0  0  0  0
  -32.3999   64.6984   65.4787 C   0  0  0  0  0  0  0  0  0  0  0  0
  -32.2054   66.0745   64.8981 C   0  0  0  0  0  0  0  0  0  0  0  0
 43 45  1  0  0  0
 43 42  1  0  0  0
 43 46  1  0  0  0
 64 65  1  0  0  0
 44 45  2  0  0  0
 65 63  1  0  0  0
  2  1  1  0  0  0
  2  4  1  0  0  0
  2  5  1  0  0  0
  3  4  2  0  0  0
 63 62  1  0  0  0
  6  8  1  0  0  0
  6 11  2  0  0  0
  7 10  1  0  0  0
  7 11  1  0  0  0
 62 61  1  0  0  0
 26 28  1  0  0  0
 26 32  1  0  0  0
 26 29  1  0  0  0
 12 18  1  0  0  0
 12 19  1  0  0  0
 61 60  1  0  0  0
 30 36  1  0  0  0
 30 37  1  0  0  0
 30 38  1  0  0  0
 20 21  2  0  0  0
 60 59  1  0  0  0
 22 21  1  0  0  0
 22 23  1  0  0  0
 59 58  1  0  0  0
 27 28  2  0  0  0
 58 57  1  0  0  0
 31 37  2  0  0  0
 57 56  1  0  0  0
 56 55  1  0  0  0
 55 54  1  0  0  0
 54 53  1  0  0  0
 53 52  1  0  0  0
 52 51  1  0  0  0
 51 50  1  0  0  0
 50 49  1  0  0  0
 49 47  1  0  0  0
 47 48  2  0  0  0
 48 45  1  0  0  0
 42 41  1  0  0  0
 41 40  1  0  0  0
 40 39  1  0  0  0
 39  1  1  0  0  0
  1 21  1  0  0  0
  8  4  1  0  0  0
  8  9  1  0  0  0
  8 10  1  0  0  0
 11 13  1  0  0  0
 13 14  2  0  0  0
 13 18  1  0  0  0
 14 15  1  0  0  0
 15 16  2  0  0  0
 16 17  1  0  0  0
 17 18  2  0  0  0
 23 24  1  0  0  0
 23 25  1  0  0  0
 25 28  1  0  0  0
 32 33  1  0  0  0
 32 37  1  0  0  0
 33 34  1  0  0  0
 34 35  1  0  0  0
 35 36  1  0  0  0
M  END
> <minimizedAffinity>
-8.87453

> <CNNscore>
0.1985816658

> <CNNaffinity>
7.6128478050

> <CNN_VS>
1.5117720366

> <CNNaffinity_variance>
2.2238790989

$$$$
