/media/chris/experiments/cd1a-new-docking/inputs/ligands/7ryo_ligand.pdb


 65 67  0  0  0  0  0  0  0  0999 V2000
  -34.8801   58.3114   63.8963 C   0  0  0  0  0  0  0  0  0  0  0  0
  -36.0579   59.1528   64.0268 N   0  0  0  0  0  0  0  0  0  0  0  0
  -37.0830   57.7481   65.4516 O   0  0  0  0  0  0  0  0  0  0  0  0
  -37.0762   58.7880   64.8098 C   0  0  0  0  0  0  0  0  0  0  0  0
  -36.1057   60.0024   63.5317 H   0  0  0  0  0  0  0  0  0  0  0  0
  -39.5276   58.9585   64.6265 N   0  0  0  0  0  0  0  0  0  0  0  0
  -39.9146   60.0785   66.5445 O   0  0  0  0  0  0  0  0  0  0  0  0
  -38.2944   59.7239   64.8737 C   0  0  0  0  0  0  0  0  0  0  0  0
  -38.1506   60.7956   63.7973 C   0  0  0  0  0  0  0  0  0  0  0  0
  -38.5164   60.3405   66.2626 C   0  0  0  0  0  0  0  0  0  0  0  0
  -40.3259   59.2170   65.5779 C   0  0  0  0  0  0  0  0  0  0  0  0
  -41.5593   57.4929   63.6311 O   0  0  0  0  0  0  0  0  0  0  0  0
  -41.6772   58.6762   65.7431 C   0  0  0  0  0  0  0  0  0  0  0  0
  -42.3677   58.8698   66.9403 C   0  0  0  0  0  0  0  0  0  0  0  0
  -43.5313   58.1668   67.2014 C   0  0  0  0  0  0  0  0  0  0  0  0
  -44.0235   57.2662   66.2820 C   0  0  0  0  0  0  0  0  0  0  0  0
  -43.3557   57.0526   65.0899 C   0  0  0  0  0  0  0  0  0  0  0  0
  -42.1836   57.7481   64.8103 C   0  0  0  0  0  0  0  0  0  0  0  0
  -40.7678   57.9446   63.4127 H   0  0  0  0  0  0  0  0  0  0  0  0
  -32.5521   58.9299   64.0924 O   0  0  0  0  0  0  0  0  0  0  0  0
  -33.6361   59.1438   63.6240 C   0  0  0  0  0  0  0  0  0  0  0  0
  -33.9240   60.1670   62.8009 O   0  0  0  0  0  0  0  0  0  0  0  0
  -33.3252   61.4744   63.0870 C   0  0  0  0  0  0  0  0  0  0  0  0
  -31.9289   61.4839   62.5178 C   0  0  0  0  0  0  0  0  0  0  0  0
  -33.3332   61.6045   64.5978 C   0  0  0  0  0  0  0  0  0  0  0  0
  -34.5826   63.6482   64.9210 N   0  0  0  0  0  0  0  0  0  0  0  0
  -35.4625   61.7237   65.6852 O   0  0  0  0  0  0  0  0  0  0  0  0
  -34.5544   62.3275   65.1209 C   0  0  0  0  0  0  0  0  0  0  0  0
  -35.3553   64.1646   65.2458 H   0  0  0  0  0  0  0  0  0  0  0  0
  -31.3712   65.3154   64.8987 N   0  0  0  0  0  0  0  0  0  0  0  0
  -32.9865   65.1214   66.4427 O   0  0  0  0  0  0  0  0  0  0  0  0
  -33.5059   64.3439   64.2381 C   0  0  0  0  0  0  0  0  0  0  0  0
  -34.0776   65.4483   63.3419 C   0  0  0  0  0  0  0  0  0  0  0  0
  -33.1090   65.9232   62.2641 C   0  0  0  0  0  0  0  0  0  0  0  0
  -31.8213   66.5411   62.7717 C   0  0  0  0  0  0  0  0  0  0  0  0
  -30.9311   65.5815   63.5333 C   0  0  0  0  0  0  0  0  0  0  0  0
  -32.5976   64.9616   65.2894 C   0  0  0  0  0  0  0  0  0  0  0  0
  -30.6925   65.4064   65.6060 H   0  0  0  0  0  0  0  0  0  0  0  0
  -35.0740   57.2487   62.8136 C   0  0  0  0  0  0  0  0  0  0  0  0
  -36.0874   57.6750   61.7568 C   0  0  0  0  0  0  0  0  0  0  0  0
  -37.3588   56.8470   61.7804 C   0  0  0  0  0  0  0  0  0  0  0  0
  -38.6346   57.6412   61.6046 C   0  0  0  0  0  0  0  0  0  0  0  0
  -38.4390   58.7449   60.6780 N   0  0  0  0  0  0  0  0  0  0  0  0
  -39.2421   60.1143   59.0738 O   0  0  0  0  0  0  0  0  0  0  0  0
  -39.4149   59.1800   59.8736 C   0  0  0  0  0  0  0  0  0  0  0  0
  -37.5596   59.1860   60.6416 H   0  0  0  0  0  0  0  0  0  0  0  0
  -41.5899   58.2513   59.1117 C   0  0  0  0  0  0  0  0  0  0  0  0
  -40.7193   58.5113   60.0778 C   0  0  0  0  0  0  0  0  0  0  0  0
  -41.4522   58.5441   57.6503 C   0  0  0  0  0  0  0  0  0  0  0  0
  -42.6410   59.3355   57.1190 C   0  0  0  0  0  0  0  0  0  0  0  0
  -43.7899   58.4669   56.6368 C   0  0  0  0  0  0  0  0  0  0  0  0
  -44.7864   58.1152   57.7289 C   0  0  0  0  0  0  0  0  0  0  0  0
  -46.2167   57.9639   57.2461 C   0  0  0  0  0  0  0  0  0  0  0  0
  -47.2301   58.6832   58.1210 C   0  0  0  0  0  0  0  0  0  0  0  0
  -47.7805   57.8234   59.2420 C   0  0  0  0  0  0  0  0  0  0  0  0
  -49.2369   57.4527   59.0467 C   0  0  0  0  0  0  0  0  0  0  0  0
  -50.1162   57.7129   60.2547 C   0  0  0  0  0  0  0  0  0  0  0  0
  -49.3503   58.3094   61.4190 C   0  0  0  0  0  0  0  0  0  0  0  0
  -49.9174   59.6381   61.8915 C   0  0  0  0  0  0  0  0  0  0  0  0
  -50.9279   59.5166   63.0189 C   0  0  0  0  0  0  0  0  0  0  0  0
  -50.5570   60.2889   64.2755 C   0  0  0  0  0  0  0  0  0  0  0  0
  -50.6992   59.4835   65.5597 C   0  0  0  0  0  0  0  0  0  0  0  0
  -49.3722   58.9933   66.1162 C   0  0  0  0  0  0  0  0  0  0  0  0
  -47.1650   58.7867   64.9070 C   0  0  0  0  0  0  0  0  0  0  0  0
  -48.5333   58.1986   65.1320 C   0  0  0  0  0  0  0  0  0  0  0  0
 43 45  1  0  0  0
 43 42  1  0  0  0
 43 46  1  0  0  0
 64 65  1  0  0  0
 44 45  2  0  0  0
 65 63  1  0  0  0
  2  1  1  0  0  0
  2  4  1  0  0  0
  2  5  1  0  0  0
  3  4  2  0  0  0
 63 62  1  0  0  0
  6  8  1  0  0  0
  6 11  2  0  0  0
  7 10  1  0  0  0
  7 11  1  0  0  0
 62 61  1  0  0  0
 26 28  1  0  0  0
 26 32  1  0  0  0
 26 29  1  0  0  0
 12 18  1  0  0  0
 12 19  1  0  0  0
 61 60  1  0  0  0
 30 36  1  0  0  0
 30 37  1  0  0  0
 30 38  1  0  0  0
 20 21  2  0  0  0
 60 59  1  0  0  0
 22 21  1  0  0  0
 22 23  1  0  0  0
 59 58  1  0  0  0
 27 28  2  0  0  0
 58 57  1  0  0  0
 31 37  2  0  0  0
 57 56  1  0  0  0
 56 55  1  0  0  0
 55 54  1  0  0  0
 54 53  1  0  0  0
 53 52  1  0  0  0
 52 51  1  0  0  0
 51 50  1  0  0  0
 50 49  1  0  0  0
 49 47  1  0  0  0
 47 48  2  0  0  0
 48 45  1  0  0  0
 42 41  1  0  0  0
 41 40  1  0  0  0
 40 39  1  0  0  0
 39  1  1  0  0  0
  1 21  1  0  0  0
  8  4  1  0  0  0
  8  9  1  0  0  0
  8 10  1  0  0  0
 11 13  1  0  0  0
 13 14  2  0  0  0
 13 18  1  0  0  0
 14 15  1  0  0  0
 15 16  2  0  0  0
 16 17  1  0  0  0
 17 18  2  0  0  0
 23 24  1  0  0  0
 23 25  1  0  0  0
 25 28  1  0  0  0
 32 33  1  0  0  0
 32 37  1  0  0  0
 33 34  1  0  0  0
 34 35  1  0  0  0
 35 36  1  0  0  0
M  END
> <minimizedAffinity>
-8.11479

> <CNNscore>
0.3117530942

> <CNNaffinity>
7.4562354088

> <CNN_VS>
2.3245043755

> <CNNaffinity_variance>
0.8392155766

$$$$
/media/chris/experiments/cd1a-new-docking/inputs/ligands/7ryo_ligand.pdb


 65 67  0  0  0  0  0  0  0  0999 V2000
  -35.1108   57.9930   64.0160 C   0  0  0  0  0  0  0  0  0  0  0  0
  -36.2516   58.8934   64.0044 N   0  0  0  0  0  0  0  0  0  0  0  0
  -37.2675   57.8632   65.7251 O   0  0  0  0  0  0  0  0  0  0  0  0
  -37.2497   58.7447   64.8789 C   0  0  0  0  0  0  0  0  0  0  0  0
  -36.2892   59.6220   63.3434 H   0  0  0  0  0  0  0  0  0  0  0  0
  -39.6828   58.9817   64.5693 N   0  0  0  0  0  0  0  0  0  0  0  0
  -40.1000   60.3256   66.3308 O   0  0  0  0  0  0  0  0  0  0  0  0
  -38.4302   59.7251   64.7836 C   0  0  0  0  0  0  0  0  0  0  0  0
  -38.1998   60.6618   63.6015 C   0  0  0  0  0  0  0  0  0  0  0  0
  -38.6821   60.5032   66.0836 C   0  0  0  0  0  0  0  0  0  0  0  0
  -40.5072   59.3752   65.4495 C   0  0  0  0  0  0  0  0  0  0  0  0
  -42.2815   58.9508   63.2234 O   0  0  0  0  0  0  0  0  0  0  0  0
  -41.8850   58.9059   65.6142 C   0  0  0  0  0  0  0  0  0  0  0  0
  -42.3437   58.5067   66.8702 C   0  0  0  0  0  0  0  0  0  0  0  0
  -43.5491   57.8381   66.9977 C   0  0  0  0  0  0  0  0  0  0  0  0
  -44.3127   57.5580   65.8854 C   0  0  0  0  0  0  0  0  0  0  0  0
  -43.8784   57.9387   64.6287 C   0  0  0  0  0  0  0  0  0  0  0  0
  -42.6687   58.6097   64.4800 C   0  0  0  0  0  0  0  0  0  0  0  0
  -41.4721   59.4033   63.0892 H   0  0  0  0  0  0  0  0  0  0  0  0
  -33.7927   59.3160   65.5500 O   0  0  0  0  0  0  0  0  0  0  0  0
  -33.8607   58.6947   64.5255 C   0  0  0  0  0  0  0  0  0  0  0  0
  -32.8460   58.5399   63.6574 O   0  0  0  0  0  0  0  0  0  0  0  0
  -32.6936   59.5311   62.5878 C   0  0  0  0  0  0  0  0  0  0  0  0
  -31.9766   58.8710   61.4372 C   0  0  0  0  0  0  0  0  0  0  0  0
  -31.8897   60.6648   63.1943 C   0  0  0  0  0  0  0  0  0  0  0  0
  -32.6030   62.9629   62.9658 N   0  0  0  0  0  0  0  0  0  0  0  0
  -31.4635   62.0224   61.2691 O   0  0  0  0  0  0  0  0  0  0  0  0
  -31.9671   61.9409   62.3859 C   0  0  0  0  0  0  0  0  0  0  0  0
  -32.6827   63.8148   62.4787 H   0  0  0  0  0  0  0  0  0  0  0  0
  -35.2760   62.0179   65.2142 N   0  0  0  0  0  0  0  0  0  0  0  0
  -35.2408   62.7144   63.0824 O   0  0  0  0  0  0  0  0  0  0  0  0
  -33.1800   62.8532   64.2942 C   0  0  0  0  0  0  0  0  0  0  0  0
  -33.0257   64.1797   65.0466 C   0  0  0  0  0  0  0  0  0  0  0  0
  -33.1758   64.0459   66.5582 C   0  0  0  0  0  0  0  0  0  0  0  0
  -34.5247   63.5476   67.0374 C   0  0  0  0  0  0  0  0  0  0  0  0
  -34.8526   62.1337   66.6056 C   0  0  0  0  0  0  0  0  0  0  0  0
  -34.6565   62.5223   64.1448 C   0  0  0  0  0  0  0  0  0  0  0  0
  -36.1056   61.5149   65.0464 H   0  0  0  0  0  0  0  0  0  0  0  0
  -34.8702   57.3835   62.6341 C   0  0  0  0  0  0  0  0  0  0  0  0
  -36.0055   57.6844   61.6615 C   0  0  0  0  0  0  0  0  0  0  0  0
  -37.2446   56.8452   61.9121 C   0  0  0  0  0  0  0  0  0  0  0  0
  -38.5514   57.5301   61.5767 C   0  0  0  0  0  0  0  0  0  0  0  0
  -38.3363   58.6538   60.6787 N   0  0  0  0  0  0  0  0  0  0  0  0
  -39.1477   60.1654   59.2123 O   0  0  0  0  0  0  0  0  0  0  0  0
  -39.3355   59.2142   59.9884 C   0  0  0  0  0  0  0  0  0  0  0  0
  -37.4258   59.0135   60.5756 H   0  0  0  0  0  0  0  0  0  0  0  0
  -41.5628   58.3005   59.3737 C   0  0  0  0  0  0  0  0  0  0  0  0
  -40.6738   58.6591   60.2902 C   0  0  0  0  0  0  0  0  0  0  0  0
  -41.4170   58.3537   57.8849 C   0  0  0  0  0  0  0  0  0  0  0  0
  -42.3931   59.3414   57.2574 C   0  0  0  0  0  0  0  0  0  0  0  0
  -43.5764   58.6819   56.5705 C   0  0  0  0  0  0  0  0  0  0  0  0
  -44.6094   58.1274   57.5373 C   0  0  0  0  0  0  0  0  0  0  0  0
  -46.0484   58.3545   57.1138 C   0  0  0  0  0  0  0  0  0  0  0  0
  -46.8150   57.0669   56.8601 C   0  0  0  0  0  0  0  0  0  0  0  0
  -48.1570   57.0126   57.5634 C   0  0  0  0  0  0  0  0  0  0  0  0
  -48.0630   56.4941   58.9844 C   0  0  0  0  0  0  0  0  0  0  0  0
  -48.0407   57.5773   60.0456 C   0  0  0  0  0  0  0  0  0  0  0  0
  -49.3520   58.3323   60.1395 C   0  0  0  0  0  0  0  0  0  0  0  0
  -50.4969   57.4814   60.6640 C   0  0  0  0  0  0  0  0  0  0  0  0
  -51.0761   57.9636   61.9827 C   0  0  0  0  0  0  0  0  0  0  0  0
  -50.2370   59.0207   62.6837 C   0  0  0  0  0  0  0  0  0  0  0  0
  -50.8456   59.5305   63.9829 C   0  0  0  0  0  0  0  0  0  0  0  0
  -50.4267   58.7267   65.2033 C   0  0  0  0  0  0  0  0  0  0  0  0
  -48.0221   59.4273   65.5247 C   0  0  0  0  0  0  0  0  0  0  0  0
  -49.4155   59.4218   66.0966 C   0  0  0  0  0  0  0  0  0  0  0  0
 43 45  1  0  0  0
 43 42  1  0  0  0
 43 46  1  0  0  0
 64 65  1  0  0  0
 44 45  2  0  0  0
 65 63  1  0  0  0
  2  1  1  0  0  0
  2  4  1  0  0  0
  2  5  1  0  0  0
  3  4  2  0  0  0
 63 62  1  0  0  0
  6  8  1  0  0  0
  6 11  2  0  0  0
  7 10  1  0  0  0
  7 11  1  0  0  0
 62 61  1  0  0  0
 26 28  1  0  0  0
 26 32  1  0  0  0
 26 29  1  0  0  0
 12 18  1  0  0  0
 12 19  1  0  0  0
 61 60  1  0  0  0
 30 36  1  0  0  0
 30 37  1  0  0  0
 30 38  1  0  0  0
 20 21  2  0  0  0
 60 59  1  0  0  0
 22 21  1  0  0  0
 22 23  1  0  0  0
 59 58  1  0  0  0
 27 28  2  0  0  0
 58 57  1  0  0  0
 31 37  2  0  0  0
 57 56  1  0  0  0
 56 55  1  0  0  0
 55 54  1  0  0  0
 54 53  1  0  0  0
 53 52  1  0  0  0
 52 51  1  0  0  0
 51 50  1  0  0  0
 50 49  1  0  0  0
 49 47  1  0  0  0
 47 48  2  0  0  0
 48 45  1  0  0  0
 42 41  1  0  0  0
 41 40  1  0  0  0
 40 39  1  0  0  0
 39  1  1  0  0  0
  1 21  1  0  0  0
  8  4  1  0  0  0
  8  9  1  0  0  0
  8 10  1  0  0  0
 11 13  1  0  0  0
 13 14  2  0  0  0
 13 18  1  0  0  0
 14 15  1  0  0  0
 15 16  2  0  0  0
 16 17  1  0  0  0
 17 18  2  0  0  0
 23 24  1  0  0  0
 23 25  1  0  0  0
 25 28  1  0  0  0
 32 33  1  0  0  0
 32 37  1  0  0  0
 33 34  1  0  0  0
 34 35  1  0  0  0
 35 36  1  0  0  0
M  END
> <minimizedAffinity>
-8.65915

> <CNNscore>
0.2929071188

> <CNNaffinity>
7.5014204979

> <CNN_VS>
2.1972193718

> <CNNaffinity_variance>
1.2378350496

$$$$
/media/chris/experiments/cd1a-new-docking/inputs/ligands/7ryo_ligand.pdb


 65 67  0  0  0  0  0  0  0  0999 V2000
  -36.5636   60.0762   63.0487 C   0  0  0  0  0  0  0  0  0  0  0  0
  -35.6291   61.1024   63.4796 N   0  0  0  0  0  0  0  0  0  0  0  0
  -36.9101   61.7480   65.2106 O   0  0  0  0  0  0  0  0  0  0  0  0
  -35.8916   61.8632   64.5452 C   0  0  0  0  0  0  0  0  0  0  0  0
  -34.7920   61.2386   62.9796 H   0  0  0  0  0  0  0  0  0  0  0  0
  -33.7204   62.8883   63.9910 N   0  0  0  0  0  0  0  0  0  0  0  0
  -34.3787   65.0446   63.9784 O   0  0  0  0  0  0  0  0  0  0  0  0
  -34.8616   62.9415   64.9198 C   0  0  0  0  0  0  0  0  0  0  0  0
  -34.3619   62.6758   66.3367 C   0  0  0  0  0  0  0  0  0  0  0  0
  -35.3952   64.3733   64.7653 C   0  0  0  0  0  0  0  0  0  0  0  0
  -33.5480   64.0622   63.5420 C   0  0  0  0  0  0  0  0  0  0  0  0
  -31.9865   62.1833   62.0204 O   0  0  0  0  0  0  0  0  0  0  0  0
  -32.5196   64.4792   62.5858 C   0  0  0  0  0  0  0  0  0  0  0  0
  -32.3603   65.8298   62.2729 C   0  0  0  0  0  0  0  0  0  0  0  0
  -31.5704   66.2143   61.2032 C   0  0  0  0  0  0  0  0  0  0  0  0
  -30.9302   65.2680   60.4328 C   0  0  0  0  0  0  0  0  0  0  0  0
  -31.0753   63.9228   60.7191 C   0  0  0  0  0  0  0  0  0  0  0  0
  -31.8667   63.5165   61.7889 C   0  0  0  0  0  0  0  0  0  0  0  0
  -32.5123   61.8770   62.7330 H   0  0  0  0  0  0  0  0  0  0  0  0
  -34.8389   58.4779   62.4907 O   0  0  0  0  0  0  0  0  0  0  0  0
  -35.8983   58.7088   63.0051 C   0  0  0  0  0  0  0  0  0  0  0  0
  -36.6724   57.7881   63.6055 O   0  0  0  0  0  0  0  0  0  0  0  0
  -36.9040   57.9135   65.0479 C   0  0  0  0  0  0  0  0  0  0  0  0
  -36.2461   56.7411   65.7308 C   0  0  0  0  0  0  0  0  0  0  0  0
  -38.4105   57.9107   65.2205 C   0  0  0  0  0  0  0  0  0  0  0  0
  -40.2531   59.2849   65.9678 N   0  0  0  0  0  0  0  0  0  0  0  0
  -38.1581   59.9529   66.4439 O   0  0  0  0  0  0  0  0  0  0  0  0
  -38.9251   59.1435   65.9298 C   0  0  0  0  0  0  0  0  0  0  0  0
  -40.6374   60.0728   66.4158 H   0  0  0  0  0  0  0  0  0  0  0  0
  -41.7977   57.7189   63.0947 N   0  0  0  0  0  0  0  0  0  0  0  0
  -41.0579   59.7984   63.4935 O   0  0  0  0  0  0  0  0  0  0  0  0
  -41.1460   58.3095   65.3671 C   0  0  0  0  0  0  0  0  0  0  0  0
  -42.5048   58.3325   66.0761 C   0  0  0  0  0  0  0  0  0  0  0  0
  -43.3377   57.0768   65.8418 C   0  0  0  0  0  0  0  0  0  0  0  0
  -43.7203   56.8086   64.3998 C   0  0  0  0  0  0  0  0  0  0  0  0
  -42.5442   56.5286   63.4879 C   0  0  0  0  0  0  0  0  0  0  0  0
  -41.3307   58.6735   63.9024 C   0  0  0  0  0  0  0  0  0  0  0  0
  -41.6197   57.8296   62.1327 H   0  0  0  0  0  0  0  0  0  0  0  0
  -37.1857   60.4243   61.6956 C   0  0  0  0  0  0  0  0  0  0  0  0
  -37.2483   59.2223   60.7592 C   0  0  0  0  0  0  0  0  0  0  0  0
  -38.0718   59.4800   59.5110 C   0  0  0  0  0  0  0  0  0  0  0  0
  -39.5117   59.8653   59.7709 C   0  0  0  0  0  0  0  0  0  0  0  0
  -40.2631   58.7431   60.3104 N   0  0  0  0  0  0  0  0  0  0  0  0
  -41.8849   57.1897   60.0858 O   0  0  0  0  0  0  0  0  0  0  0  0
  -41.2357   58.1397   59.6184 C   0  0  0  0  0  0  0  0  0  0  0  0
  -40.0489   58.4169   61.2143 H   0  0  0  0  0  0  0  0  0  0  0  0
  -42.5596   58.6493   57.5785 C   0  0  0  0  0  0  0  0  0  0  0  0
  -41.4094   58.6465   58.2389 C   0  0  0  0  0  0  0  0  0  0  0  0
  -43.8955   58.1783   58.0622 C   0  0  0  0  0  0  0  0  0  0  0  0
  -44.9804   58.3843   57.0122 C   0  0  0  0  0  0  0  0  0  0  0  0
  -46.3765   58.0316   57.4953 C   0  0  0  0  0  0  0  0  0  0  0  0
  -46.3871   57.1402   58.7261 C   0  0  0  0  0  0  0  0  0  0  0  0
  -47.6615   57.2195   59.5454 C   0  0  0  0  0  0  0  0  0  0  0  0
  -48.8707   57.6686   58.7417 C   0  0  0  0  0  0  0  0  0  0  0  0
  -49.9735   58.2690   59.5914 C   0  0  0  0  0  0  0  0  0  0  0  0
  -49.5604   58.4892   61.0328 C   0  0  0  0  0  0  0  0  0  0  0  0
  -50.2085   59.6910   61.6929 C   0  0  0  0  0  0  0  0  0  0  0  0
  -51.1068   59.3087   62.8526 C   0  0  0  0  0  0  0  0  0  0  0  0
  -50.9394   60.2123   64.0633 C   0  0  0  0  0  0  0  0  0  0  0  0
  -50.0242   59.6495   65.1369 C   0  0  0  0  0  0  0  0  0  0  0  0
  -49.3163   58.3626   64.7421 C   0  0  0  0  0  0  0  0  0  0  0  0
  -47.8988   58.5708   64.2269 C   0  0  0  0  0  0  0  0  0  0  0  0
  -46.8829   58.8108   65.3320 C   0  0  0  0  0  0  0  0  0  0  0  0
  -46.2365   58.4641   67.7483 C   0  0  0  0  0  0  0  0  0  0  0  0
  -47.2773   58.2412   66.6825 C   0  0  0  0  0  0  0  0  0  0  0  0
 43 45  1  0  0  0
 43 42  1  0  0  0
 43 46  1  0  0  0
 64 65  1  0  0  0
 44 45  2  0  0  0
 65 63  1  0  0  0
  2  1  1  0  0  0
  2  4  1  0  0  0
  2  5  1  0  0  0
  3  4  2  0  0  0
 63 62  1  0  0  0
  6  8  1  0  0  0
  6 11  2  0  0  0
  7 10  1  0  0  0
  7 11  1  0  0  0
 62 61  1  0  0  0
 26 28  1  0  0  0
 26 32  1  0  0  0
 26 29  1  0  0  0
 12 18  1  0  0  0
 12 19  1  0  0  0
 61 60  1  0  0  0
 30 36  1  0  0  0
 30 37  1  0  0  0
 30 38  1  0  0  0
 20 21  2  0  0  0
 60 59  1  0  0  0
 22 21  1  0  0  0
 22 23  1  0  0  0
 59 58  1  0  0  0
 27 28  2  0  0  0
 58 57  1  0  0  0
 31 37  2  0  0  0
 57 56  1  0  0  0
 56 55  1  0  0  0
 55 54  1  0  0  0
 54 53  1  0  0  0
 53 52  1  0  0  0
 52 51  1  0  0  0
 51 50  1  0  0  0
 50 49  1  0  0  0
 49 47  1  0  0  0
 47 48  2  0  0  0
 48 45  1  0  0  0
 42 41  1  0  0  0
 41 40  1  0  0  0
 40 39  1  0  0  0
 39  1  1  0  0  0
  1 21  1  0  0  0
  8  4  1  0  0  0
  8  9  1  0  0  0
  8 10  1  0  0  0
 11 13  1  0  0  0
 13 14  2  0  0  0
 13 18  1  0  0  0
 14 15  1  0  0  0
 15 16  2  0  0  0
 16 17  1  0  0  0
 17 18  2  0  0  0
 23 24  1  0  0  0
 23 25  1  0  0  0
 25 28  1  0  0  0
 32 33  1  0  0  0
 32 37  1  0  0  0
 33 34  1  0  0  0
 34 35  1  0  0  0
 35 36  1  0  0  0
M  END
> <minimizedAffinity>
-7.66589

> <CNNscore>
0.2797782719

> <CNNaffinity>
7.6009225845

> <CNN_VS>
2.1265730858

> <CNNaffinity_variance>
0.8024255633

$$$$
/media/chris/experiments/cd1a-new-docking/inputs/ligands/7ryo_ligand.pdb


 65 67  0  0  0  0  0  0  0  0999 V2000
  -38.1687   60.4689   64.4444 C   0  0  0  0  0  0  0  0  0  0  0  0
  -36.9261   61.1787   64.6983 N   0  0  0  0  0  0  0  0  0  0  0  0
  -37.3727   61.4774   66.8813 O   0  0  0  0  0  0  0  0  0  0  0  0
  -36.6329   61.6294   65.9206 C   0  0  0  0  0  0  0  0  0  0  0  0
  -36.2927   61.3293   63.9599 H   0  0  0  0  0  0  0  0  0  0  0  0
  -34.7378   62.7173   64.7817 N   0  0  0  0  0  0  0  0  0  0  0  0
  -34.7733   64.6746   65.9000 O   0  0  0  0  0  0  0  0  0  0  0  0
  -35.3090   62.3907   66.0988 C   0  0  0  0  0  0  0  0  0  0  0  0
  -34.3281   61.5038   66.8598 C   0  0  0  0  0  0  0  0  0  0  0  0
  -35.4796   63.7589   66.7752 C   0  0  0  0  0  0  0  0  0  0  0  0
  -34.4896   63.9613   64.7791 C   0  0  0  0  0  0  0  0  0  0  0  0
  -35.5358   63.8503   62.1001 O   0  0  0  0  0  0  0  0  0  0  0  0
  -33.9103   64.7246   63.6712 C   0  0  0  0  0  0  0  0  0  0  0  0
  -32.9008   65.6568   63.9150 C   0  0  0  0  0  0  0  0  0  0  0  0
  -32.5178   66.5508   62.9300 C   0  0  0  0  0  0  0  0  0  0  0  0
  -33.1283   66.5320   61.6948 C   0  0  0  0  0  0  0  0  0  0  0  0
  -34.1346   65.6211   61.4293 C   0  0  0  0  0  0  0  0  0  0  0  0
  -34.5349   64.7159   62.4071 C   0  0  0  0  0  0  0  0  0  0  0  0
  -35.8287   63.2281   62.7366 H   0  0  0  0  0  0  0  0  0  0  0  0
  -38.9855   58.2447   64.9204 O   0  0  0  0  0  0  0  0  0  0  0  0
  -38.0614   59.0074   64.8531 C   0  0  0  0  0  0  0  0  0  0  0  0
  -36.7884   58.6927   65.1496 O   0  0  0  0  0  0  0  0  0  0  0  0
  -36.1718   57.5659   64.4427 C   0  0  0  0  0  0  0  0  0  0  0  0
  -35.9635   56.4493   65.4343 C   0  0  0  0  0  0  0  0  0  0  0  0
  -34.8639   58.0981   63.8899 C   0  0  0  0  0  0  0  0  0  0  0  0
  -32.6125   58.6316   64.5886 N   0  0  0  0  0  0  0  0  0  0  0  0
  -34.2529   58.6913   66.1272 O   0  0  0  0  0  0  0  0  0  0  0  0
  -33.8852   58.4969   64.9719 C   0  0  0  0  0  0  0  0  0  0  0  0
  -31.9362   58.8871   65.2570 H   0  0  0  0  0  0  0  0  0  0  0  0
  -31.3778   59.8185   61.4010 N   0  0  0  0  0  0  0  0  0  0  0  0
  -32.6392   60.7561   63.0013 O   0  0  0  0  0  0  0  0  0  0  0  0
  -32.1978   58.4120   63.2140 C   0  0  0  0  0  0  0  0  0  0  0  0
  -33.2320   57.5478   62.4837 C   0  0  0  0  0  0  0  0  0  0  0  0
  -32.6947   56.8924   61.2160 C   0  0  0  0  0  0  0  0  0  0  0  0
  -32.2363   57.8481   60.1324 C   0  0  0  0  0  0  0  0  0  0  0  0
  -31.0478   58.7024   60.5212 C   0  0  0  0  0  0  0  0  0  0  0  0
  -32.0907   59.7649   62.5283 C   0  0  0  0  0  0  0  0  0  0  0  0
  -31.0392   60.7040   61.1354 H   0  0  0  0  0  0  0  0  0  0  0  0
  -38.5924   60.5970   62.9805 C   0  0  0  0  0  0  0  0  0  0  0  0
  -40.1026   60.4843   62.8015 C   0  0  0  0  0  0  0  0  0  0  0  0
  -40.5427   60.6021   61.3541 C   0  0  0  0  0  0  0  0  0  0  0  0
  -40.3920   59.3347   60.5415 C   0  0  0  0  0  0  0  0  0  0  0  0
  -39.4014   58.4498   61.1336 N   0  0  0  0  0  0  0  0  0  0  0  0
  -38.8832   56.5117   62.1675 O   0  0  0  0  0  0  0  0  0  0  0  0
  -39.7285   57.2604   61.6508 C   0  0  0  0  0  0  0  0  0  0  0  0
  -38.4595   58.7354   61.1545 H   0  0  0  0  0  0  0  0  0  0  0  0
  -42.0335   56.8236   62.4691 C   0  0  0  0  0  0  0  0  0  0  0  0
  -41.1514   56.8904   61.4811 C   0  0  0  0  0  0  0  0  0  0  0  0
  -41.8084   57.1137   63.9202 C   0  0  0  0  0  0  0  0  0  0  0  0
  -42.8634   56.4518   64.7982 C   0  0  0  0  0  0  0  0  0  0  0  0
  -43.7178   57.4361   65.5780 C   0  0  0  0  0  0  0  0  0  0  0  0
  -44.9600   57.8897   64.8292 C   0  0  0  0  0  0  0  0  0  0  0  0
  -46.2677   57.5070   65.4965 C   0  0  0  0  0  0  0  0  0  0  0  0
  -47.4069   58.4650   65.1896 C   0  0  0  0  0  0  0  0  0  0  0  0
  -48.7650   57.9498   65.6238 C   0  0  0  0  0  0  0  0  0  0  0  0
  -49.9168   58.6717   64.9537 C   0  0  0  0  0  0  0  0  0  0  0  0
  -49.8525   58.6814   63.4385 C   0  0  0  0  0  0  0  0  0  0  0  0
  -51.1778   58.3260   62.7938 C   0  0  0  0  0  0  0  0  0  0  0  0
  -51.0280   57.7452   61.3973 C   0  0  0  0  0  0  0  0  0  0  0  0
  -49.5881   57.5953   60.9378 C   0  0  0  0  0  0  0  0  0  0  0  0
  -49.2850   58.2645   59.6061 C   0  0  0  0  0  0  0  0  0  0  0  0
  -48.2928   57.4983   58.7418 C   0  0  0  0  0  0  0  0  0  0  0  0
  -47.0834   58.3236   58.3332 C   0  0  0  0  0  0  0  0  0  0  0  0
  -46.7745   56.4685   56.6481 C   0  0  0  0  0  0  0  0  0  0  0  0
  -46.1351   57.6192   57.3801 C   0  0  0  0  0  0  0  0  0  0  0  0
 43 45  1  0  0  0
 43 42  1  0  0  0
 43 46  1  0  0  0
 64 65  1  0  0  0
 44 45  2  0  0  0
 65 63  1  0  0  0
  2  1  1  0  0  0
  2  4  1  0  0  0
  2  5  1  0  0  0
  3  4  2  0  0  0
 63 62  1  0  0  0
  6  8  1  0  0  0
  6 11  2  0  0  0
  7 10  1  0  0  0
  7 11  1  0  0  0
 62 61  1  0  0  0
 26 28  1  0  0  0
 26 32  1  0  0  0
 26 29  1  0  0  0
 12 18  1  0  0  0
 12 19  1  0  0  0
 61 60  1  0  0  0
 30 36  1  0  0  0
 30 37  1  0  0  0
 30 38  1  0  0  0
 20 21  2  0  0  0
 60 59  1  0  0  0
 22 21  1  0  0  0
 22 23  1  0  0  0
 59 58  1  0  0  0
 27 28  2  0  0  0
 58 57  1  0  0  0
 31 37  2  0  0  0
 57 56  1  0  0  0
 56 55  1  0  0  0
 55 54  1  0  0  0
 54 53  1  0  0  0
 53 52  1  0  0  0
 52 51  1  0  0  0
 51 50  1  0  0  0
 50 49  1  0  0  0
 49 47  1  0  0  0
 47 48  2  0  0  0
 48 45  1  0  0  0
 42 41  1  0  0  0
 41 40  1  0  0  0
 40 39  1  0  0  0
 39  1  1  0  0  0
  1 21  1  0  0  0
  8  4  1  0  0  0
  8  9  1  0  0  0
  8 10  1  0  0  0
 11 13  1  0  0  0
 13 14  2  0  0  0
 13 18  1  0  0  0
 14 15  1  0  0  0
 15 16  2  0  0  0
 16 17  1  0  0  0
 17 18  2  0  0  0
 23 24  1  0  0  0
 23 25  1  0  0  0
 25 28  1  0  0  0
 32 33  1  0  0  0
 32 37  1  0  0  0
 33 34  1  0  0  0
 34 35  1  0  0  0
 35 36  1  0  0  0
M  END
> <minimizedAffinity>
-8.57818

> <CNNscore>
0.1937479824

> <CNNaffinity>
7.4354376793

> <CNN_VS>
1.4406009912

> <CNNaffinity_variance>
0.3678040206

$$$$
/media/chris/experiments/cd1a-new-docking/inputs/ligands/7ryo_ligand.pdb


 65 67  0  0  0  0  0  0  0  0999 V2000
  -36.6032   59.0738   62.0580 C   0  0  0  0  0  0  0  0  0  0  0  0
  -35.1651   59.2834   62.0387 N   0  0  0  0  0  0  0  0  0  0  0  0
  -34.7049   57.1055   61.7239 O   0  0  0  0  0  0  0  0  0  0  0  0
  -34.3264   58.2582   61.8698 C   0  0  0  0  0  0  0  0  0  0  0  0
  -34.8048   60.1926   62.1517 H   0  0  0  0  0  0  0  0  0  0  0  0
  -32.5899   59.9737   61.5327 N   0  0  0  0  0  0  0  0  0  0  0  0
  -31.4576   59.6654   63.4578 O   0  0  0  0  0  0  0  0  0  0  0  0
  -32.8194   58.5629   61.8854 C   0  0  0  0  0  0  0  0  0  0  0  0
  -32.1255   57.6745   60.8572 C   0  0  0  0  0  0  0  0  0  0  0  0
  -32.1842   58.4235   63.2767 C   0  0  0  0  0  0  0  0  0  0  0  0
  -31.8536   60.4711   62.4382 C   0  0  0  0  0  0  0  0  0  0  0  0
  -31.1535   61.9740   60.0855 O   0  0  0  0  0  0  0  0  0  0  0  0
  -31.3699   61.8525   62.4966 C   0  0  0  0  0  0  0  0  0  0  0  0
  -31.3683   62.5435   63.7090 C   0  0  0  0  0  0  0  0  0  0  0  0
  -31.1486   63.9100   63.7382 C   0  0  0  0  0  0  0  0  0  0  0  0
  -30.9282   64.6063   62.5698 C   0  0  0  0  0  0  0  0  0  0  0  0
  -30.9292   63.9459   61.3547 C   0  0  0  0  0  0  0  0  0  0  0  0
  -31.1502   62.5731   61.3047 C   0  0  0  0  0  0  0  0  0  0  0  0
  -31.2994   61.0509   60.0175 H   0  0  0  0  0  0  0  0  0  0  0  0
  -37.2693   56.9126   62.9102 O   0  0  0  0  0  0  0  0  0  0  0  0
  -36.9979   58.0620   63.1234 C   0  0  0  0  0  0  0  0  0  0  0  0
  -37.0212   58.6397   64.3370 O   0  0  0  0  0  0  0  0  0  0  0  0
  -35.7533   59.1095   64.9039 C   0  0  0  0  0  0  0  0  0  0  0  0
  -34.9627   57.9035   65.3446 C   0  0  0  0  0  0  0  0  0  0  0  0
  -36.1339   60.0060   66.0661 C   0  0  0  0  0  0  0  0  0  0  0  0
  -37.1178   62.1792   65.6774 N   0  0  0  0  0  0  0  0  0  0  0  0
  -38.4593   60.3736   65.6324 O   0  0  0  0  0  0  0  0  0  0  0  0
  -37.3437   60.8661   65.7760 C   0  0  0  0  0  0  0  0  0  0  0  0
  -37.8740   62.7820   65.4923 H   0  0  0  0  0  0  0  0  0  0  0  0
  -34.3428   63.2811   67.7215 N   0  0  0  0  0  0  0  0  0  0  0  0
  -36.5607   63.2234   68.0507 O   0  0  0  0  0  0  0  0  0  0  0  0
  -35.7886   62.7430   65.8354 C   0  0  0  0  0  0  0  0  0  0  0  0
  -35.6451   64.0028   64.9740 C   0  0  0  0  0  0  0  0  0  0  0  0
  -34.1969   64.4030   64.7131 C   0  0  0  0  0  0  0  0  0  0  0  0
  -33.3846   64.7491   65.9451 C   0  0  0  0  0  0  0  0  0  0  0  0
  -33.1788   63.5902   66.8980 C   0  0  0  0  0  0  0  0  0  0  0  0
  -35.5969   63.1041   67.2999 C   0  0  0  0  0  0  0  0  0  0  0  0
  -34.1870   63.1940   68.6897 H   0  0  0  0  0  0  0  0  0  0  0  0
  -37.1211   58.6493   60.6830 C   0  0  0  0  0  0  0  0  0  0  0  0
  -38.6434   58.6822   60.6007 C   0  0  0  0  0  0  0  0  0  0  0  0
  -39.2447   59.9547   61.1681 C   0  0  0  0  0  0  0  0  0  0  0  0
  -40.4706   59.7460   62.0300 C   0  0  0  0  0  0  0  0  0  0  0  0
  -40.1037   59.2578   63.3499 N   0  0  0  0  0  0  0  0  0  0  0  0
  -40.4643   57.8612   65.0858 O   0  0  0  0  0  0  0  0  0  0  0  0
  -40.7711   58.2681   63.9532 C   0  0  0  0  0  0  0  0  0  0  0  0
  -39.3394   59.6691   63.8144 H   0  0  0  0  0  0  0  0  0  0  0  0
  -42.9786   57.1809   63.6089 C   0  0  0  0  0  0  0  0  0  0  0  0
  -41.8386   57.6590   63.1287 C   0  0  0  0  0  0  0  0  0  0  0  0
  -43.4384   57.1649   65.0333 C   0  0  0  0  0  0  0  0  0  0  0  0
  -44.8825   57.6330   65.1652 C   0  0  0  0  0  0  0  0  0  0  0  0
  -45.3346   57.8301   66.6017 C   0  0  0  0  0  0  0  0  0  0  0  0
  -46.6937   58.4987   66.7254 C   0  0  0  0  0  0  0  0  0  0  0  0
  -47.5726   58.3621   65.4963 C   0  0  0  0  0  0  0  0  0  0  0  0
  -48.8688   59.1502   65.5885 C   0  0  0  0  0  0  0  0  0  0  0  0
  -48.9358   60.3201   64.6264 C   0  0  0  0  0  0  0  0  0  0  0  0
  -48.7384   59.9126   63.1801 C   0  0  0  0  0  0  0  0  0  0  0  0
  -49.9662   60.0883   62.3074 C   0  0  0  0  0  0  0  0  0  0  0  0
  -51.0476   59.0687   62.6058 C   0  0  0  0  0  0  0  0  0  0  0  0
  -50.8272   57.7387   61.9041 C   0  0  0  0  0  0  0  0  0  0  0  0
  -50.4072   57.8655   60.4499 C   0  0  0  0  0  0  0  0  0  0  0  0
  -49.2877   56.9217   60.0389 C   0  0  0  0  0  0  0  0  0  0  0  0
  -47.9017   57.5504   60.0861 C   0  0  0  0  0  0  0  0  0  0  0  0
  -47.0203   57.1601   58.9107 C   0  0  0  0  0  0  0  0  0  0  0  0
  -47.5423   57.1423   56.4401 C   0  0  0  0  0  0  0  0  0  0  0  0
  -47.2471   57.9822   57.6551 C   0  0  0  0  0  0  0  0  0  0  0  0
 43 45  1  0  0  0
 43 42  1  0  0  0
 43 46  1  0  0  0
 64 65  1  0  0  0
 44 45  2  0  0  0
 65 63  1  0  0  0
  2  1  1  0  0  0
  2  4  1  0  0  0
  2  5  1  0  0  0
  3  4  2  0  0  0
 63 62  1  0  0  0
  6  8  1  0  0  0
  6 11  2  0  0  0
  7 10  1  0  0  0
  7 11  1  0  0  0
 62 61  1  0  0  0
 26 28  1  0  0  0
 26 32  1  0  0  0
 26 29  1  0  0  0
 12 18  1  0  0  0
 12 19  1  0  0  0
 61 60  1  0  0  0
 30 36  1  0  0  0
 30 37  1  0  0  0
 30 38  1  0  0  0
 20 21  2  0  0  0
 60 59  1  0  0  0
 22 21  1  0  0  0
 22 23  1  0  0  0
 59 58  1  0  0  0
 27 28  2  0  0  0
 58 57  1  0  0  0
 31 37  2  0  0  0
 57 56  1  0  0  0
 56 55  1  0  0  0
 55 54  1  0  0  0
 54 53  1  0  0  0
 53 52  1  0  0  0
 52 51  1  0  0  0
 51 50  1  0  0  0
 50 49  1  0  0  0
 49 47  1  0  0  0
 47 48  2  0  0  0
 48 45  1  0  0  0
 42 41  1  0  0  0
 41 40  1  0  0  0
 40 39  1  0  0  0
 39  1  1  0  0  0
  1 21  1  0  0  0
  8  4  1  0  0  0
  8  9  1  0  0  0
  8 10  1  0  0  0
 11 13  1  0  0  0
 13 14  2  0  0  0
 13 18  1  0  0  0
 14 15  1  0  0  0
 15 16  2  0  0  0
 16 17  1  0  0  0
 17 18  2  0  0  0
 23 24  1  0  0  0
 23 25  1  0  0  0
 25 28  1  0  0  0
 32 33  1  0  0  0
 32 37  1  0  0  0
 33 34  1  0  0  0
 34 35  1  0  0  0
 35 36  1  0  0  0
M  END
> <minimizedAffinity>
-9.06451

> <CNNscore>
0.1907196194

> <CNNaffinity>
7.3302969933

> <CNN_VS>
1.3980314732

> <CNNaffinity_variance>
0.6413767338

$$$$
/media/chris/experiments/cd1a-new-docking/inputs/ligands/7ryo_ligand.pdb


 65 67  0  0  0  0  0  0  0  0999 V2000
  -38.0956   60.8018   64.9742 C   0  0  0  0  0  0  0  0  0  0  0  0
  -37.4588   59.8981   64.0307 N   0  0  0  0  0  0  0  0  0  0  0  0
  -38.7013   60.6017   62.2942 O   0  0  0  0  0  0  0  0  0  0  0  0
  -37.8267   59.8784   62.7472 C   0  0  0  0  0  0  0  0  0  0  0  0
  -36.7474   59.2928   64.3417 H   0  0  0  0  0  0  0  0  0  0  0  0
  -35.6796   59.1790   61.7608 N   0  0  0  0  0  0  0  0  0  0  0  0
  -35.7903   56.9867   62.2750 O   0  0  0  0  0  0  0  0  0  0  0  0
  -37.1191   58.8762   61.8204 C   0  0  0  0  0  0  0  0  0  0  0  0
  -37.7108   58.9969   60.4192 C   0  0  0  0  0  0  0  0  0  0  0  0
  -37.1698   57.4301   62.3352 C   0  0  0  0  0  0  0  0  0  0  0  0
  -35.0595   58.1035   62.0214 C   0  0  0  0  0  0  0  0  0  0  0  0
  -33.3695   59.6881   63.7292 O   0  0  0  0  0  0  0  0  0  0  0  0
  -33.6052   57.9351   62.0721 C   0  0  0  0  0  0  0  0  0  0  0  0
  -32.9973   56.8837   61.3847 C   0  0  0  0  0  0  0  0  0  0  0  0
  -31.6698   56.5675   61.6168 C   0  0  0  0  0  0  0  0  0  0  0  0
  -30.9304   57.2874   62.5299 C   0  0  0  0  0  0  0  0  0  0  0  0
  -31.5104   58.3311   63.2275 C   0  0  0  0  0  0  0  0  0  0  0  0
  -32.8439   58.6627   63.0097 C   0  0  0  0  0  0  0  0  0  0  0  0
  -34.2646   59.9363   63.6061 H   0  0  0  0  0  0  0  0  0  0  0  0
  -37.3305   61.3003   67.2118 O   0  0  0  0  0  0  0  0  0  0  0  0
  -37.1109   61.2766   66.0322 C   0  0  0  0  0  0  0  0  0  0  0  0
  -35.9655   61.6869   65.4603 O   0  0  0  0  0  0  0  0  0  0  0  0
  -35.9524   62.9957   64.7996 C   0  0  0  0  0  0  0  0  0  0  0  0
  -35.4146   62.8093   63.4032 C   0  0  0  0  0  0  0  0  0  0  0  0
  -35.0552   63.8731   65.6509 C   0  0  0  0  0  0  0  0  0  0  0  0
  -32.7006   63.3326   65.5749 N   0  0  0  0  0  0  0  0  0  0  0  0
  -33.9617   62.3978   67.1866 O   0  0  0  0  0  0  0  0  0  0  0  0
  -33.8603   63.1309   66.2069 C   0  0  0  0  0  0  0  0  0  0  0  0
  -31.8937   62.8695   65.8969 H   0  0  0  0  0  0  0  0  0  0  0  0
  -32.2846   63.9162   62.0280 N   0  0  0  0  0  0  0  0  0  0  0  0
  -31.5453   62.3160   63.4149 O   0  0  0  0  0  0  0  0  0  0  0  0
  -32.5963   64.2153   64.4261 C   0  0  0  0  0  0  0  0  0  0  0  0
  -31.6081   65.3493   64.7214 C   0  0  0  0  0  0  0  0  0  0  0  0
  -31.7611   66.5501   63.7941 C   0  0  0  0  0  0  0  0  0  0  0  0
  -31.5183   66.2729   62.3238 C   0  0  0  0  0  0  0  0  0  0  0  0
  -32.5152   65.3190   61.6997 C   0  0  0  0  0  0  0  0  0  0  0  0
  -32.0958   63.3998   63.2444 C   0  0  0  0  0  0  0  0  0  0  0  0
  -32.2663   63.2842   61.2733 H   0  0  0  0  0  0  0  0  0  0  0  0
  -39.3223   60.1561   65.6202 C   0  0  0  0  0  0  0  0  0  0  0  0
  -40.5808   60.9996   65.4474 C   0  0  0  0  0  0  0  0  0  0  0  0
  -41.2181   60.8479   64.0786 C   0  0  0  0  0  0  0  0  0  0  0  0
  -42.2722   59.7663   63.9876 C   0  0  0  0  0  0  0  0  0  0  0  0
  -41.7728   58.6107   63.2593 N   0  0  0  0  0  0  0  0  0  0  0  0
  -41.0768   56.4638   63.2424 O   0  0  0  0  0  0  0  0  0  0  0  0
  -41.5154   57.4456   63.8637 C   0  0  0  0  0  0  0  0  0  0  0  0
  -41.6191   58.6885   62.2900 H   0  0  0  0  0  0  0  0  0  0  0  0
  -43.0818   57.1364   65.7675 C   0  0  0  0  0  0  0  0  0  0  0  0
  -41.8713   57.4101   65.2998 C   0  0  0  0  0  0  0  0  0  0  0  0
  -44.3114   56.7953   64.9850 C   0  0  0  0  0  0  0  0  0  0  0  0
  -45.3231   57.9347   64.9991 C   0  0  0  0  0  0  0  0  0  0  0  0
  -46.0083   58.1301   66.3405 C   0  0  0  0  0  0  0  0  0  0  0  0
  -47.1442   57.1523   66.5914 C   0  0  0  0  0  0  0  0  0  0  0  0
  -48.3539   57.3558   65.6987 C   0  0  0  0  0  0  0  0  0  0  0  0
  -49.1612   58.5956   66.0468 C   0  0  0  0  0  0  0  0  0  0  0  0
  -50.5359   58.6220   65.4080 C   0  0  0  0  0  0  0  0  0  0  0  0
  -50.8143   59.9040   64.6491 C   0  0  0  0  0  0  0  0  0  0  0  0
  -51.0504   59.7129   63.1632 C   0  0  0  0  0  0  0  0  0  0  0  0
  -50.4924   58.4019   62.6455 C   0  0  0  0  0  0  0  0  0  0  0  0
  -49.6784   58.5586   61.3715 C   0  0  0  0  0  0  0  0  0  0  0  0
  -50.1462   57.6812   60.2234 C   0  0  0  0  0  0  0  0  0  0  0  0
  -49.0339   56.8987   59.5425 C   0  0  0  0  0  0  0  0  0  0  0  0
  -47.6863   57.6072   59.5505 C   0  0  0  0  0  0  0  0  0  0  0  0
  -47.2620   58.1151   58.1819 C   0  0  0  0  0  0  0  0  0  0  0  0
  -46.9042   56.0730   56.7404 C   0  0  0  0  0  0  0  0  0  0  0  0
  -47.7628   57.2789   57.0184 C   0  0  0  0  0  0  0  0  0  0  0  0
 43 45  1  0  0  0
 43 42  1  0  0  0
 43 46  1  0  0  0
 64 65  1  0  0  0
 44 45  2  0  0  0
 65 63  1  0  0  0
  2  1  1  0  0  0
  2  4  1  0  0  0
  2  5  1  0  0  0
  3  4  2  0  0  0
 63 62  1  0  0  0
  6  8  1  0  0  0
  6 11  2  0  0  0
  7 10  1  0  0  0
  7 11  1  0  0  0
 62 61  1  0  0  0
 26 28  1  0  0  0
 26 32  1  0  0  0
 26 29  1  0  0  0
 12 18  1  0  0  0
 12 19  1  0  0  0
 61 60  1  0  0  0
 30 36  1  0  0  0
 30 37  1  0  0  0
 30 38  1  0  0  0
 20 21  2  0  0  0
 60 59  1  0  0  0
 22 21  1  0  0  0
 22 23  1  0  0  0
 59 58  1  0  0  0
 27 28  2  0  0  0
 58 57  1  0  0  0
 31 37  2  0  0  0
 57 56  1  0  0  0
 56 55  1  0  0  0
 55 54  1  0  0  0
 54 53  1  0  0  0
 53 52  1  0  0  0
 52 51  1  0  0  0
 51 50  1  0  0  0
 50 49  1  0  0  0
 49 47  1  0  0  0
 47 48  2  0  0  0
 48 45  1  0  0  0
 42 41  1  0  0  0
 41 40  1  0  0  0
 40 39  1  0  0  0
 39  1  1  0  0  0
  1 21  1  0  0  0
  8  4  1  0  0  0
  8  9  1  0  0  0
  8 10  1  0  0  0
 11 13  1  0  0  0
 13 14  2  0  0  0
 13 18  1  0  0  0
 14 15  1  0  0  0
 15 16  2  0  0  0
 16 17  1  0  0  0
 17 18  2  0  0  0
 23 24  1  0  0  0
 23 25  1  0  0  0
 25 28  1  0  0  0
 32 33  1  0  0  0
 32 37  1  0  0  0
 33 34  1  0  0  0
 34 35  1  0  0  0
 35 36  1  0  0  0
M  END
> <minimizedAffinity>
-9.82441

> <CNNscore>
0.1904020607

> <CNNaffinity>
7.1777749062

> <CNN_VS>
1.3666630983

> <CNNaffinity_variance>
1.0724680424

$$$$
/media/chris/experiments/cd1a-new-docking/inputs/ligands/7ryo_ligand.pdb


 65 67  0  0  0  0  0  0  0  0999 V2000
  -35.4560   58.6119   63.5215 C   0  0  0  0  0  0  0  0  0  0  0  0
  -35.4311   60.0125   63.9087 N   0  0  0  0  0  0  0  0  0  0  0  0
  -34.1430   59.6416   65.7135 O   0  0  0  0  0  0  0  0  0  0  0  0
  -34.7624   60.4108   64.9937 C   0  0  0  0  0  0  0  0  0  0  0  0
  -35.9135   60.6760   63.3643 H   0  0  0  0  0  0  0  0  0  0  0  0
  -33.5098   62.5323   65.0375 N   0  0  0  0  0  0  0  0  0  0  0  0
  -35.0396   63.8284   64.0065 O   0  0  0  0  0  0  0  0  0  0  0  0
  -34.8062   61.9067   65.3463 C   0  0  0  0  0  0  0  0  0  0  0  0
  -35.0861   62.0540   66.8389 C   0  0  0  0  0  0  0  0  0  0  0  0
  -35.8099   62.7029   64.4993 C   0  0  0  0  0  0  0  0  0  0  0  0
  -33.7466   63.5481   64.3153 C   0  0  0  0  0  0  0  0  0  0  0  0
  -33.0921   63.6633   61.5149 O   0  0  0  0  0  0  0  0  0  0  0  0
  -32.7497   64.4743   63.7732 C   0  0  0  0  0  0  0  0  0  0  0  0
  -32.1774   65.4468   64.5943 C   0  0  0  0  0  0  0  0  0  0  0  0
  -31.4267   66.4737   64.0482 C   0  0  0  0  0  0  0  0  0  0  0  0
  -31.2341   66.5491   62.6859 C   0  0  0  0  0  0  0  0  0  0  0  0
  -31.7943   65.6004   61.8499 C   0  0  0  0  0  0  0  0  0  0  0  0
  -32.5537   64.5620   62.3796 C   0  0  0  0  0  0  0  0  0  0  0  0
  -33.6088   62.9522   61.8397 H   0  0  0  0  0  0  0  0  0  0  0  0
  -34.8692   57.6695   61.3748 O   0  0  0  0  0  0  0  0  0  0  0  0
  -35.5126   58.4596   62.0089 C   0  0  0  0  0  0  0  0  0  0  0  0
  -36.3693   59.3487   61.4770 O   0  0  0  0  0  0  0  0  0  0  0  0
  -37.4617   58.8417   60.6407 C   0  0  0  0  0  0  0  0  0  0  0  0
  -37.2038   59.2769   59.2202 C   0  0  0  0  0  0  0  0  0  0  0  0
  -38.7278   59.4517   61.2101 C   0  0  0  0  0  0  0  0  0  0  0  0
  -40.8188   58.5675   60.3807 N   0  0  0  0  0  0  0  0  0  0  0  0
  -39.9018   60.3239   59.3149 O   0  0  0  0  0  0  0  0  0  0  0  0
  -39.8649   59.4878   60.2133 C   0  0  0  0  0  0  0  0  0  0  0  0
  -41.5791   58.5477   59.7555 H   0  0  0  0  0  0  0  0  0  0  0  0
  -41.6424   55.3499   61.8168 N   0  0  0  0  0  0  0  0  0  0  0  0
  -42.6969   56.6950   60.3643 O   0  0  0  0  0  0  0  0  0  0  0  0
  -40.7663   57.5952   61.4584 C   0  0  0  0  0  0  0  0  0  0  0  0
  -41.1045   58.2694   62.7929 C   0  0  0  0  0  0  0  0  0  0  0  0
  -40.6464   57.4759   64.0118 C   0  0  0  0  0  0  0  0  0  0  0  0
  -41.2689   56.1026   64.1668 C   0  0  0  0  0  0  0  0  0  0  0  0
  -40.9120   55.1316   63.0608 C   0  0  0  0  0  0  0  0  0  0  0  0
  -41.7866   56.5064   61.1660 C   0  0  0  0  0  0  0  0  0  0  0  0
  -42.0742   54.5615   61.4151 H   0  0  0  0  0  0  0  0  0  0  0  0
  -36.6162   57.8717   64.1888 C   0  0  0  0  0  0  0  0  0  0  0  0
  -37.7725   58.8018   64.5401 C   0  0  0  0  0  0  0  0  0  0  0  0
  -38.0192   58.9101   66.0334 C   0  0  0  0  0  0  0  0  0  0  0  0
  -38.5216   60.2604   66.4956 C   0  0  0  0  0  0  0  0  0  0  0  0
  -39.3935   60.8620   65.4991 N   0  0  0  0  0  0  0  0  0  0  0  0
  -41.4689   61.3508   64.7593 O   0  0  0  0  0  0  0  0  0  0  0  0
  -40.7256   60.8479   65.6178 C   0  0  0  0  0  0  0  0  0  0  0  0
  -38.9901   61.2935   64.7115 H   0  0  0  0  0  0  0  0  0  0  0  0
  -42.1796   59.3474   66.9624 C   0  0  0  0  0  0  0  0  0  0  0  0
  -41.2206   60.2601   66.8825 C   0  0  0  0  0  0  0  0  0  0  0  0
  -42.9376   58.7134   65.8383 C   0  0  0  0  0  0  0  0  0  0  0  0
  -44.0561   57.8133   66.3490 C   0  0  0  0  0  0  0  0  0  0  0  0
  -45.2187   57.6709   65.3820 C   0  0  0  0  0  0  0  0  0  0  0  0
  -46.5570   58.0784   65.9756 C   0  0  0  0  0  0  0  0  0  0  0  0
  -47.3585   59.0358   65.1138 C   0  0  0  0  0  0  0  0  0  0  0  0
  -48.4811   59.7317   65.8655 C   0  0  0  0  0  0  0  0  0  0  0  0
  -49.3376   60.6219   64.9865 C   0  0  0  0  0  0  0  0  0  0  0  0
  -50.7470   60.0962   64.8019 C   0  0  0  0  0  0  0  0  0  0  0  0
  -51.1285   59.8212   63.3601 C   0  0  0  0  0  0  0  0  0  0  0  0
  -50.6927   58.4471   62.8909 C   0  0  0  0  0  0  0  0  0  0  0  0
  -49.3893   58.4663   62.1094 C   0  0  0  0  0  0  0  0  0  0  0  0
  -49.5674   58.6052   60.6074 C   0  0  0  0  0  0  0  0  0  0  0  0
  -49.6716   57.2813   59.8661 C   0  0  0  0  0  0  0  0  0  0  0  0
  -48.4016   56.8874   59.1243 C   0  0  0  0  0  0  0  0  0  0  0  0
  -47.3880   58.0155   59.0194 C   0  0  0  0  0  0  0  0  0  0  0  0
  -47.0463   57.0601   56.7070 C   0  0  0  0  0  0  0  0  0  0  0  0
  -46.8382   58.2382   57.6222 C   0  0  0  0  0  0  0  0  0  0  0  0
 43 45  1  0  0  0
 43 42  1  0  0  0
 43 46  1  0  0  0
 64 65  1  0  0  0
 44 45  2  0  0  0
 65 63  1  0  0  0
  2  1  1  0  0  0
  2  4  1  0  0  0
  2  5  1  0  0  0
  3  4  2  0  0  0
 63 62  1  0  0  0
  6  8  1  0  0  0
  6 11  2  0  0  0
  7 10  1  0  0  0
  7 11  1  0  0  0
 62 61  1  0  0  0
 26 28  1  0  0  0
 26 32  1  0  0  0
 26 29  1  0  0  0
 12 18  1  0  0  0
 12 19  1  0  0  0
 61 60  1  0  0  0
 30 36  1  0  0  0
 30 37  1  0  0  0
 30 38  1  0  0  0
 20 21  2  0  0  0
 60 59  1  0  0  0
 22 21  1  0  0  0
 22 23  1  0  0  0
 59 58  1  0  0  0
 27 28  2  0  0  0
 58 57  1  0  0  0
 31 37  2  0  0  0
 57 56  1  0  0  0
 56 55  1  0  0  0
 55 54  1  0  0  0
 54 53  1  0  0  0
 53 52  1  0  0  0
 52 51  1  0  0  0
 51 50  1  0  0  0
 50 49  1  0  0  0
 49 47  1  0  0  0
 47 48  2  0  0  0
 48 45  1  0  0  0
 42 41  1  0  0  0
 41 40  1  0  0  0
 40 39  1  0  0  0
 39  1  1  0  0  0
  1 21  1  0  0  0
  8  4  1  0  0  0
  8  9  1  0  0  0
  8 10  1  0  0  0
 11 13  1  0  0  0
 13 14  2  0  0  0
 13 18  1  0  0  0
 14 15  1  0  0  0
 15 16  2  0  0  0
 16 17  1  0  0  0
 17 18  2  0  0  0
 23 24  1  0  0  0
 23 25  1  0  0  0
 25 28  1  0  0  0
 32 33  1  0  0  0
 32 37  1  0  0  0
 33 34  1  0  0  0
 34 35  1  0  0  0
 35 36  1  0  0  0
M  END
> <minimizedAffinity>
-9.97840

> <CNNscore>
0.1542499959

> <CNNaffinity>
7.4683084488

> <CNN_VS>
1.1519865990

> <CNNaffinity_variance>
2.1648705006

$$$$
/media/chris/experiments/cd1a-new-docking/inputs/ligands/7ryo_ligand.pdb


 65 67  0  0  0  0  0  0  0  0999 V2000
  -37.6094   59.7574   64.6848 C   0  0  0  0  0  0  0  0  0  0  0  0
  -36.2579   60.2729   64.8258 N   0  0  0  0  0  0  0  0  0  0  0  0
  -35.9761   60.5490   62.6125 O   0  0  0  0  0  0  0  0  0  0  0  0
  -35.5466   60.6303   63.7537 C   0  0  0  0  0  0  0  0  0  0  0  0
  -35.8617   60.3596   65.7229 H   0  0  0  0  0  0  0  0  0  0  0  0
  -33.7373   62.0783   62.9159 N   0  0  0  0  0  0  0  0  0  0  0  0
  -33.3007   63.1852   64.8309 O   0  0  0  0  0  0  0  0  0  0  0  0
  -34.1164   61.1437   63.9885 C   0  0  0  0  0  0  0  0  0  0  0  0
  -33.1576   59.9570   63.9756 C   0  0  0  0  0  0  0  0  0  0  0  0
  -33.9713   61.9768   65.2706 C   0  0  0  0  0  0  0  0  0  0  0  0
  -33.3174   63.1377   63.4733 C   0  0  0  0  0  0  0  0  0  0  0  0
  -32.8815   65.6333   64.8393 O   0  0  0  0  0  0  0  0  0  0  0  0
  -32.8321   64.3393   62.7904 C   0  0  0  0  0  0  0  0  0  0  0  0
  -32.4230   64.2708   61.4580 C   0  0  0  0  0  0  0  0  0  0  0  0
  -31.7406   65.3262   60.8778 C   0  0  0  0  0  0  0  0  0  0  0  0
  -31.4561   66.4592   61.6086 C   0  0  0  0  0  0  0  0  0  0  0  0
  -31.8464   66.5503   62.9323 C   0  0  0  0  0  0  0  0  0  0  0  0
  -32.5314   65.4992   63.5336 C   0  0  0  0  0  0  0  0  0  0  0  0
  -33.3436   64.9435   65.2737 H   0  0  0  0  0  0  0  0  0  0  0  0
  -38.4966   61.2680   66.3497 O   0  0  0  0  0  0  0  0  0  0  0  0
  -38.6278   60.7077   65.2966 C   0  0  0  0  0  0  0  0  0  0  0  0
  -39.7072   60.8173   64.5026 O   0  0  0  0  0  0  0  0  0  0  0  0
  -41.0232   60.5282   65.0807 C   0  0  0  0  0  0  0  0  0  0  0  0
  -41.5496   61.7968   65.7029 C   0  0  0  0  0  0  0  0  0  0  0  0
  -40.7868   59.4373   66.1070 C   0  0  0  0  0  0  0  0  0  0  0  0
  -42.7090   57.9720   66.0960 N   0  0  0  0  0  0  0  0  0  0  0  0
  -42.4696   59.4104   67.8094 O   0  0  0  0  0  0  0  0  0  0  0  0
  -42.0647   58.9439   66.7482 C   0  0  0  0  0  0  0  0  0  0  0  0
  -43.5478   57.6188   66.4714 H   0  0  0  0  0  0  0  0  0  0  0  0
  -42.8686   57.5415   62.5068 N   0  0  0  0  0  0  0  0  0  0  0  0
  -44.4314   57.8693   64.0820 O   0  0  0  0  0  0  0  0  0  0  0  0
  -42.2074   57.4216   64.8490 C   0  0  0  0  0  0  0  0  0  0  0  0
  -41.9286   55.9229   65.0092 C   0  0  0  0  0  0  0  0  0  0  0  0
  -40.9983   55.3569   63.9418 C   0  0  0  0  0  0  0  0  0  0  0  0
  -41.5085   55.4491   62.5174 C   0  0  0  0  0  0  0  0  0  0  0  0
  -41.6753   56.8657   62.0089 C   0  0  0  0  0  0  0  0  0  0  0  0
  -43.2664   57.6300   63.7779 C   0  0  0  0  0  0  0  0  0  0  0  0
  -43.4405   57.9781   61.8347 H   0  0  0  0  0  0  0  0  0  0  0  0
  -37.7360   58.3582   65.2893 C   0  0  0  0  0  0  0  0  0  0  0  0
  -38.2103   57.3269   64.2710 C   0  0  0  0  0  0  0  0  0  0  0  0
  -37.4871   57.4249   62.9406 C   0  0  0  0  0  0  0  0  0  0  0  0
  -38.3392   57.9185   61.7918 C   0  0  0  0  0  0  0  0  0  0  0  0
  -37.5114   58.3876   60.6919 N   0  0  0  0  0  0  0  0  0  0  0  0
  -37.2091   59.7489   58.9174 O   0  0  0  0  0  0  0  0  0  0  0  0
  -37.9120   59.3585   59.8639 C   0  0  0  0  0  0  0  0  0  0  0  0
  -36.6276   57.9771   60.5523 H   0  0  0  0  0  0  0  0  0  0  0  0
  -40.3859   59.5637   59.7572 C   0  0  0  0  0  0  0  0  0  0  0  0
  -39.2117   59.9694   60.2214 C   0  0  0  0  0  0  0  0  0  0  0  0
  -40.6586   58.4295   58.8192 C   0  0  0  0  0  0  0  0  0  0  0  0
  -42.1317   58.3558   58.4363 C   0  0  0  0  0  0  0  0  0  0  0  0
  -42.4810   59.1463   57.1873 C   0  0  0  0  0  0  0  0  0  0  0  0
  -43.8263   58.7726   56.5874 C   0  0  0  0  0  0  0  0  0  0  0  0
  -44.7804   58.1030   57.5586 C   0  0  0  0  0  0  0  0  0  0  0  0
  -46.2445   58.3003   57.2018 C   0  0  0  0  0  0  0  0  0  0  0  0
  -47.1560   58.3855   58.4103 C   0  0  0  0  0  0  0  0  0  0  0  0
  -47.0715   57.1658   59.3059 C   0  0  0  0  0  0  0  0  0  0  0  0
  -48.3998   56.4759   59.5504 C   0  0  0  0  0  0  0  0  0  0  0  0
  -49.5243   57.4530   59.8310 C   0  0  0  0  0  0  0  0  0  0  0  0
  -50.3488   57.0828   61.0531 C   0  0  0  0  0  0  0  0  0  0  0  0
  -50.9550   58.2723   61.7773 C   0  0  0  0  0  0  0  0  0  0  0  0
  -50.2291   58.6608   63.0560 C   0  0  0  0  0  0  0  0  0  0  0  0
  -50.9929   59.6528   63.9226 C   0  0  0  0  0  0  0  0  0  0  0  0
  -50.7310   59.4830   65.4103 C   0  0  0  0  0  0  0  0  0  0  0  0
  -48.5465   58.6830   66.3924 C   0  0  0  0  0  0  0  0  0  0  0  0
  -49.8579   58.2925   65.7628 C   0  0  0  0  0  0  0  0  0  0  0  0
 43 45  1  0  0  0
 43 42  1  0  0  0
 43 46  1  0  0  0
 64 65  1  0  0  0
 44 45  2  0  0  0
 65 63  1  0  0  0
  2  1  1  0  0  0
  2  4  1  0  0  0
  2  5  1  0  0  0
  3  4  2  0  0  0
 63 62  1  0  0  0
  6  8  1  0  0  0
  6 11  2  0  0  0
  7 10  1  0  0  0
  7 11  1  0  0  0
 62 61  1  0  0  0
 26 28  1  0  0  0
 26 32  1  0  0  0
 26 29  1  0  0  0
 12 18  1  0  0  0
 12 19  1  0  0  0
 61 60  1  0  0  0
 30 36  1  0  0  0
 30 37  1  0  0  0
 30 38  1  0  0  0
 20 21  2  0  0  0
 60 59  1  0  0  0
 22 21  1  0  0  0
 22 23  1  0  0  0
 59 58  1  0  0  0
 27 28  2  0  0  0
 58 57  1  0  0  0
 31 37  2  0  0  0
 57 56  1  0  0  0
 56 55  1  0  0  0
 55 54  1  0  0  0
 54 53  1  0  0  0
 53 52  1  0  0  0
 52 51  1  0  0  0
 51 50  1  0  0  0
 50 49  1  0  0  0
 49 47  1  0  0  0
 47 48  2  0  0  0
 48 45  1  0  0  0
 42 41  1  0  0  0
 41 40  1  0  0  0
 40 39  1  0  0  0
 39  1  1  0  0  0
  1 21  1  0  0  0
  8  4  1  0  0  0
  8  9  1  0  0  0
  8 10  1  0  0  0
 11 13  1  0  0  0
 13 14  2  0  0  0
 13 18  1  0  0  0
 14 15  1  0  0  0
 15 16  2  0  0  0
 16 17  1  0  0  0
 17 18  2  0  0  0
 23 24  1  0  0  0
 23 25  1  0  0  0
 25 28  1  0  0  0
 32 33  1  0  0  0
 32 37  1  0  0  0
 33 34  1  0  0  0
 34 35  1  0  0  0
 35 36  1  0  0  0
M  END
> <minimizedAffinity>
-7.68257

> <CNNscore>
0.1530300230

> <CNNaffinity>
7.2578039169

> <CNN_VS>
1.1106618643

> <CNNaffinity_variance>
1.1265050173

$$$$
/media/chris/experiments/cd1a-new-docking/inputs/ligands/7ryo_ligand.pdb


 65 67  0  0  0  0  0  0  0  0999 V2000
  -34.8205   58.4485   63.0123 C   0  0  0  0  0  0  0  0  0  0  0  0
  -35.9383   59.1021   62.3523 N   0  0  0  0  0  0  0  0  0  0  0  0
  -37.0081   57.1703   61.9310 O   0  0  0  0  0  0  0  0  0  0  0  0
  -36.9542   58.3890   61.8600 C   0  0  0  0  0  0  0  0  0  0  0  0
  -35.9466   60.0829   62.2671 H   0  0  0  0  0  0  0  0  0  0  0  0
  -39.2844   59.1761   62.0107 N   0  0  0  0  0  0  0  0  0  0  0  0
  -38.9300   61.3329   61.4580 O   0  0  0  0  0  0  0  0  0  0  0  0
  -38.0857   59.1561   61.1561 C   0  0  0  0  0  0  0  0  0  0  0  0
  -38.4209   58.4492   59.8462 C   0  0  0  0  0  0  0  0  0  0  0  0
  -37.7676   60.6421   60.9339 C   0  0  0  0  0  0  0  0  0  0  0  0
  -39.6533   60.3858   62.1102 C   0  0  0  0  0  0  0  0  0  0  0  0
  -39.5186   61.0194   64.9145 O   0  0  0  0  0  0  0  0  0  0  0  0
  -40.8072   60.8778   62.8666 C   0  0  0  0  0  0  0  0  0  0  0  0
  -41.9944   61.1954   62.2055 C   0  0  0  0  0  0  0  0  0  0  0  0
  -43.0006   61.8842   62.8608 C   0  0  0  0  0  0  0  0  0  0  0  0
  -42.8431   62.2654   64.1756 C   0  0  0  0  0  0  0  0  0  0  0  0
  -41.6744   61.9669   64.8521 C   0  0  0  0  0  0  0  0  0  0  0  0
  -40.6509   61.2771   64.2098 C   0  0  0  0  0  0  0  0  0  0  0  0
  -38.8106   60.5568   64.5109 H   0  0  0  0  0  0  0  0  0  0  0  0
  -33.9941   57.8628   60.8180 O   0  0  0  0  0  0  0  0  0  0  0  0
  -33.8043   57.9405   62.0005 C   0  0  0  0  0  0  0  0  0  0  0  0
  -32.6689   57.5699   62.6175 O   0  0  0  0  0  0  0  0  0  0  0  0
  -31.7736   58.6218   63.1090 C   0  0  0  0  0  0  0  0  0  0  0  0
  -30.9464   58.0457   64.2304 C   0  0  0  0  0  0  0  0  0  0  0  0
  -32.6808   59.7426   63.5784 C   0  0  0  0  0  0  0  0  0  0  0  0
  -33.1514   62.0924   63.2637 N   0  0  0  0  0  0  0  0  0  0  0  0
  -31.6427   61.1129   61.9124 O   0  0  0  0  0  0  0  0  0  0  0  0
  -32.4450   61.0409   62.8391 C   0  0  0  0  0  0  0  0  0  0  0  0
  -33.0356   62.9599   62.8128 H   0  0  0  0  0  0  0  0  0  0  0  0
  -36.5063   61.8257   64.5932 N   0  0  0  0  0  0  0  0  0  0  0  0
  -35.6600   62.7826   62.7496 O   0  0  0  0  0  0  0  0  0  0  0  0
  -34.0854   61.9924   64.3716 C   0  0  0  0  0  0  0  0  0  0  0  0
  -33.7551   63.0452   65.4356 C   0  0  0  0  0  0  0  0  0  0  0  0
  -34.3597   62.7432   66.8025 C   0  0  0  0  0  0  0  0  0  0  0  0
  -35.8739   62.6895   66.8477 C   0  0  0  0  0  0  0  0  0  0  0  0
  -36.4793   61.5685   66.0291 C   0  0  0  0  0  0  0  0  0  0  0  0
  -35.4871   62.2349   63.8345 C   0  0  0  0  0  0  0  0  0  0  0  0
  -37.3663   61.6825   64.1359 H   0  0  0  0  0  0  0  0  0  0  0  0
  -35.2979   57.3161   63.9227 C   0  0  0  0  0  0  0  0  0  0  0  0
  -35.8040   57.8268   65.2674 C   0  0  0  0  0  0  0  0  0  0  0  0
  -37.1501   57.2457   65.6586 C   0  0  0  0  0  0  0  0  0  0  0  0
  -38.3269   58.1710   65.4388 C   0  0  0  0  0  0  0  0  0  0  0  0
  -39.2696   57.6001   64.4898 N   0  0  0  0  0  0  0  0  0  0  0  0
  -41.3942   57.1376   63.8851 O   0  0  0  0  0  0  0  0  0  0  0  0
  -40.5914   57.6370   64.6904 C   0  0  0  0  0  0  0  0  0  0  0  0
  -38.9235   57.1725   63.6734 H   0  0  0  0  0  0  0  0  0  0  0  0
  -42.1784   58.2468   66.5023 C   0  0  0  0  0  0  0  0  0  0  0  0
  -41.0060   58.3852   65.8981 C   0  0  0  0  0  0  0  0  0  0  0  0
  -43.2988   57.3268   66.1298 C   0  0  0  0  0  0  0  0  0  0  0  0
  -44.4007   58.0574   65.3723 C   0  0  0  0  0  0  0  0  0  0  0  0
  -45.7682   57.4095   65.5027 C   0  0  0  0  0  0  0  0  0  0  0  0
  -46.9212   58.3650   65.2440 C   0  0  0  0  0  0  0  0  0  0  0  0
  -48.2802   57.6964   65.1546 C   0  0  0  0  0  0  0  0  0  0  0  0
  -49.2831   58.2266   66.1659 C   0  0  0  0  0  0  0  0  0  0  0  0
  -50.6311   58.5666   65.5608 C   0  0  0  0  0  0  0  0  0  0  0  0
  -50.7025   59.9827   65.0258 C   0  0  0  0  0  0  0  0  0  0  0  0
  -51.1068   60.0811   63.5674 C   0  0  0  0  0  0  0  0  0  0  0  0
  -51.0210   58.7510   62.8450 C   0  0  0  0  0  0  0  0  0  0  0  0
  -50.1121   58.7882   61.6273 C   0  0  0  0  0  0  0  0  0  0  0  0
  -50.2494   57.5835   60.7125 C   0  0  0  0  0  0  0  0  0  0  0  0
  -49.4856   57.7040   59.4029 C   0  0  0  0  0  0  0  0  0  0  0  0
  -47.9729   57.7417   59.5716 C   0  0  0  0  0  0  0  0  0  0  0  0
  -47.2527   58.4233   58.4194 C   0  0  0  0  0  0  0  0  0  0  0  0
  -47.7058   56.9551   56.4155 C   0  0  0  0  0  0  0  0  0  0  0  0
  -46.6769   57.4712   57.3870 C   0  0  0  0  0  0  0  0  0  0  0  0
 43 45  1  0  0  0
 43 42  1  0  0  0
 43 46  1  0  0  0
 64 65  1  0  0  0
 44 45  2  0  0  0
 65 63  1  0  0  0
  2  1  1  0  0  0
  2  4  1  0  0  0
  2  5  1  0  0  0
  3  4  2  0  0  0
 63 62  1  0  0  0
  6  8  1  0  0  0
  6 11  2  0  0  0
  7 10  1  0  0  0
  7 11  1  0  0  0
 62 61  1  0  0  0
 26 28  1  0  0  0
 26 32  1  0  0  0
 26 29  1  0  0  0
 12 18  1  0  0  0
 12 19  1  0  0  0
 61 60  1  0  0  0
 30 36  1  0  0  0
 30 37  1  0  0  0
 30 38  1  0  0  0
 20 21  2  0  0  0
 60 59  1  0  0  0
 22 21  1  0  0  0
 22 23  1  0  0  0
 59 58  1  0  0  0
 27 28  2  0  0  0
 58 57  1  0  0  0
 31 37  2  0  0  0
 57 56  1  0  0  0
 56 55  1  0  0  0
 55 54  1  0  0  0
 54 53  1  0  0  0
 53 52  1  0  0  0
 52 51  1  0  0  0
 51 50  1  0  0  0
 50 49  1  0  0  0
 49 47  1  0  0  0
 47 48  2  0  0  0
 48 45  1  0  0  0
 42 41  1  0  0  0
 41 40  1  0  0  0
 40 39  1  0  0  0
 39  1  1  0  0  0
  1 21  1  0  0  0
  8  4  1  0  0  0
  8  9  1  0  0  0
  8 10  1  0  0  0
 11 13  1  0  0  0
 13 14  2  0  0  0
 13 18  1  0  0  0
 14 15  1  0  0  0
 15 16  2  0  0  0
 16 17  1  0  0  0
 17 18  2  0  0  0
 23 24  1  0  0  0
 23 25  1  0  0  0
 25 28  1  0  0  0
 32 33  1  0  0  0
 32 37  1  0  0  0
 33 34  1  0  0  0
 34 35  1  0  0  0
 35 36  1  0  0  0
M  END
> <minimizedAffinity>
-8.29681

> <CNNscore>
0.1511903852

> <CNNaffinity>
7.4088239670

> <CNN_VS>
1.1201429367

> <CNNaffinity_variance>
1.1720355749

$$$$
