/media/chris/experiments/cd1a-new-docking/inputs/ligands/7ryo_ligand.pdb


 65 67  0  0  0  0  0  0  0  0999 V2000
  -38.3452   60.1831   64.9528 C   0  0  0  0  0  0  0  0  0  0  0  0
  -37.6607   59.3705   63.9611 N   0  0  0  0  0  0  0  0  0  0  0  0
  -38.3548   60.6327   62.2350 O   0  0  0  0  0  0  0  0  0  0  0  0
  -37.7282   59.6746   62.6626 C   0  0  0  0  0  0  0  0  0  0  0  0
  -37.1408   58.5861   64.2501 H   0  0  0  0  0  0  0  0  0  0  0  0
  -35.5703   59.1160   61.6122 N   0  0  0  0  0  0  0  0  0  0  0  0
  -35.5813   56.8984   62.0181 O   0  0  0  0  0  0  0  0  0  0  0  0
  -36.9948   58.7500   61.6771 C   0  0  0  0  0  0  0  0  0  0  0  0
  -37.6137   58.9143   60.2922 C   0  0  0  0  0  0  0  0  0  0  0  0
  -36.9768   57.2795   62.1200 C   0  0  0  0  0  0  0  0  0  0  0  0
  -34.9018   58.0561   61.8101 C   0  0  0  0  0  0  0  0  0  0  0  0
  -33.1962   60.1985   62.6962 O   0  0  0  0  0  0  0  0  0  0  0  0
  -33.4412   57.9474   61.8317 C   0  0  0  0  0  0  0  0  0  0  0  0
  -32.8253   56.7269   61.5514 C   0  0  0  0  0  0  0  0  0  0  0  0
  -31.4762   56.5468   61.8036 C   0  0  0  0  0  0  0  0  0  0  0  0
  -30.7229   57.5709   62.3350 C   0  0  0  0  0  0  0  0  0  0  0  0
  -31.3101   58.7888   62.6260 C   0  0  0  0  0  0  0  0  0  0  0  0
  -32.6651   58.9884   62.3815 C   0  0  0  0  0  0  0  0  0  0  0  0
  -34.1056   60.3649   62.5440 H   0  0  0  0  0  0  0  0  0  0  0  0
  -37.6449   61.6874   66.7099 O   0  0  0  0  0  0  0  0  0  0  0  0
  -37.3545   60.8693   65.8813 C   0  0  0  0  0  0  0  0  0  0  0  0
  -36.1029   60.4473   65.6307 O   0  0  0  0  0  0  0  0  0  0  0  0
  -35.1001   61.4459   65.2474 C   0  0  0  0  0  0  0  0  0  0  0  0
  -34.6598   62.1693   66.4949 C   0  0  0  0  0  0  0  0  0  0  0  0
  -35.7961   62.3652   64.2627 C   0  0  0  0  0  0  0  0  0  0  0  0
  -33.8931   63.2261   63.0463 N   0  0  0  0  0  0  0  0  0  0  0  0
  -35.1861   64.6786   64.1776 O   0  0  0  0  0  0  0  0  0  0  0  0
  -34.9320   63.5287   63.8301 C   0  0  0  0  0  0  0  0  0  0  0  0
  -33.7380   62.2856   62.7997 H   0  0  0  0  0  0  0  0  0  0  0  0
  -31.3694   64.3922   60.7301 N   0  0  0  0  0  0  0  0  0  0  0  0
  -31.8695   62.3699   61.5611 O   0  0  0  0  0  0  0  0  0  0  0  0
  -32.9859   64.2449   62.5474 C   0  0  0  0  0  0  0  0  0  0  0  0
  -32.1950   64.8596   63.7076 C   0  0  0  0  0  0  0  0  0  0  0  0
  -31.5698   66.2097   63.3734 C   0  0  0  0  0  0  0  0  0  0  0  0
  -30.5532   66.1964   62.2490 C   0  0  0  0  0  0  0  0  0  0  0  0
  -31.1269   65.8209   60.8987 C   0  0  0  0  0  0  0  0  0  0  0  0
  -32.0252   63.5874   61.5693 C   0  0  0  0  0  0  0  0  0  0  0  0
  -31.0118   63.9781   59.9115 H   0  0  0  0  0  0  0  0  0  0  0  0
  -39.3555   59.3548   65.7480 C   0  0  0  0  0  0  0  0  0  0  0  0
  -40.7512   59.9689   65.7304 C   0  0  0  0  0  0  0  0  0  0  0  0
  -40.9876   60.8805   64.5406 C   0  0  0  0  0  0  0  0  0  0  0  0
  -41.6266   60.2082   63.3452 C   0  0  0  0  0  0  0  0  0  0  0  0
  -41.4060   58.7711   63.3748 N   0  0  0  0  0  0  0  0  0  0  0  0
  -40.9497   58.6230   61.1694 O   0  0  0  0  0  0  0  0  0  0  0  0
  -41.0814   58.0783   62.2777 C   0  0  0  0  0  0  0  0  0  0  0  0
  -41.4985   58.2926   64.2301 H   0  0  0  0  0  0  0  0  0  0  0  0
  -41.3835   55.9820   63.5767 C   0  0  0  0  0  0  0  0  0  0  0  0
  -40.9749   56.6170   62.4866 C   0  0  0  0  0  0  0  0  0  0  0  0
  -42.0366   56.5688   64.7891 C   0  0  0  0  0  0  0  0  0  0  0  0
  -43.5516   56.4102   64.7461 C   0  0  0  0  0  0  0  0  0  0  0  0
  -44.3111   57.6935   65.0351 C   0  0  0  0  0  0  0  0  0  0  0  0
  -45.1435   57.6346   66.3051 C   0  0  0  0  0  0  0  0  0  0  0  0
  -46.5127   58.2772   66.1863 C   0  0  0  0  0  0  0  0  0  0  0  0
  -46.9301   58.5516   64.7511 C   0  0  0  0  0  0  0  0  0  0  0  0
  -47.8149   59.7736   64.6009 C   0  0  0  0  0  0  0  0  0  0  0  0
  -48.8613   59.8879   65.6911 C   0  0  0  0  0  0  0  0  0  0  0  0
  -50.2826   59.6413   65.2228 C   0  0  0  0  0  0  0  0  0  0  0  0
  -50.5155   60.0942   63.7950 C   0  0  0  0  0  0  0  0  0  0  0  0
  -51.1331   59.0173   62.9180 C   0  0  0  0  0  0  0  0  0  0  0  0
  -50.1229   58.0757   62.2858 C   0  0  0  0  0  0  0  0  0  0  0  0
  -50.6236   57.3720   61.0340 C   0  0  0  0  0  0  0  0  0  0  0  0
  -49.9921   57.8805   59.7454 C   0  0  0  0  0  0  0  0  0  0  0  0
  -48.6425   57.2493   59.4430 C   0  0  0  0  0  0  0  0  0  0  0  0
  -46.8065   57.6400   57.7539 C   0  0  0  0  0  0  0  0  0  0  0  0
  -47.6070   58.2135   58.8937 C   0  0  0  0  0  0  0  0  0  0  0  0
 43 45  1  0  0  0
 43 42  1  0  0  0
 43 46  1  0  0  0
 64 65  1  0  0  0
 44 45  2  0  0  0
 65 63  1  0  0  0
  2  1  1  0  0  0
  2  4  1  0  0  0
  2  5  1  0  0  0
  3  4  2  0  0  0
 63 62  1  0  0  0
  6  8  1  0  0  0
  6 11  2  0  0  0
  7 10  1  0  0  0
  7 11  1  0  0  0
 62 61  1  0  0  0
 26 28  1  0  0  0
 26 32  1  0  0  0
 26 29  1  0  0  0
 12 18  1  0  0  0
 12 19  1  0  0  0
 61 60  1  0  0  0
 30 36  1  0  0  0
 30 37  1  0  0  0
 30 38  1  0  0  0
 20 21  2  0  0  0
 60 59  1  0  0  0
 22 21  1  0  0  0
 22 23  1  0  0  0
 59 58  1  0  0  0
 27 28  2  0  0  0
 58 57  1  0  0  0
 31 37  2  0  0  0
 57 56  1  0  0  0
 56 55  1  0  0  0
 55 54  1  0  0  0
 54 53  1  0  0  0
 53 52  1  0  0  0
 52 51  1  0  0  0
 51 50  1  0  0  0
 50 49  1  0  0  0
 49 47  1  0  0  0
 47 48  2  0  0  0
 48 45  1  0  0  0
 42 41  1  0  0  0
 41 40  1  0  0  0
 40 39  1  0  0  0
 39  1  1  0  0  0
  1 21  1  0  0  0
  8  4  1  0  0  0
  8  9  1  0  0  0
  8 10  1  0  0  0
 11 13  1  0  0  0
 13 14  2  0  0  0
 13 18  1  0  0  0
 14 15  1  0  0  0
 15 16  2  0  0  0
 16 17  1  0  0  0
 17 18  2  0  0  0
 23 24  1  0  0  0
 23 25  1  0  0  0
 25 28  1  0  0  0
 32 33  1  0  0  0
 32 37  1  0  0  0
 33 34  1  0  0  0
 34 35  1  0  0  0
 35 36  1  0  0  0
M  END
> <minimizedAffinity>
-10.36817

> <CNNscore>
0.5035153031

> <CNNaffinity>
7.7303590775

> <CNN_VS>
3.8923540115

> <CNNaffinity_variance>
1.4148056507

$$$$
/media/chris/experiments/cd1a-new-docking/inputs/ligands/7ryo_ligand.pdb


 65 67  0  0  0  0  0  0  0  0999 V2000
  -39.1628   60.1000   64.7719 C   0  0  0  0  0  0  0  0  0  0  0  0
  -38.3717   59.3590   63.8037 N   0  0  0  0  0  0  0  0  0  0  0  0
  -39.0107   60.6485   62.0766 O   0  0  0  0  0  0  0  0  0  0  0  0
  -38.3662   59.7071   62.5147 C   0  0  0  0  0  0  0  0  0  0  0  0
  -37.8330   58.5908   64.1020 H   0  0  0  0  0  0  0  0  0  0  0  0
  -36.1098   59.2693   61.6265 N   0  0  0  0  0  0  0  0  0  0  0  0
  -36.0768   57.0347   61.9241 O   0  0  0  0  0  0  0  0  0  0  0  0
  -37.5210   58.8565   61.5523 C   0  0  0  0  0  0  0  0  0  0  0  0
  -38.0275   59.0710   60.1292 C   0  0  0  0  0  0  0  0  0  0  0  0
  -37.4885   57.3668   61.9248 C   0  0  0  0  0  0  0  0  0  0  0  0
  -35.4233   58.2220   61.8300 C   0  0  0  0  0  0  0  0  0  0  0  0
  -33.8704   60.3824   62.9277 O   0  0  0  0  0  0  0  0  0  0  0  0
  -33.9667   58.1576   61.9707 C   0  0  0  0  0  0  0  0  0  0  0  0
  -33.2889   56.9676   61.7025 C   0  0  0  0  0  0  0  0  0  0  0  0
  -31.9601   56.8202   62.0612 C   0  0  0  0  0  0  0  0  0  0  0  0
  -31.2884   57.8471   62.6880 C   0  0  0  0  0  0  0  0  0  0  0  0
  -31.9385   59.0350   62.9692 C   0  0  0  0  0  0  0  0  0  0  0  0
  -33.2746   59.2015   62.6184 C   0  0  0  0  0  0  0  0  0  0  0  0
  -34.7692   60.5261   62.7051 H   0  0  0  0  0  0  0  0  0  0  0  0
  -38.2360   59.8993   66.9949 O   0  0  0  0  0  0  0  0  0  0  0  0
  -38.3204   60.5158   65.9686 C   0  0  0  0  0  0  0  0  0  0  0  0
  -37.6987   61.6826   65.7254 O   0  0  0  0  0  0  0  0  0  0  0  0
  -36.2416   61.6690   65.5626 C   0  0  0  0  0  0  0  0  0  0  0  0
  -35.7875   60.2315   65.5337 C   0  0  0  0  0  0  0  0  0  0  0  0
  -35.6911   62.4241   66.7568 C   0  0  0  0  0  0  0  0  0  0  0  0
  -34.2055   63.3877   65.1117 N   0  0  0  0  0  0  0  0  0  0  0  0
  -33.8358   63.8423   67.2838 O   0  0  0  0  0  0  0  0  0  0  0  0
  -34.4922   63.2793   66.4122 C   0  0  0  0  0  0  0  0  0  0  0  0
  -34.7673   62.9133   64.4569 H   0  0  0  0  0  0  0  0  0  0  0  0
  -32.8396   66.3546   63.5543 N   0  0  0  0  0  0  0  0  0  0  0  0
  -34.7761   65.2494   63.3111 O   0  0  0  0  0  0  0  0  0  0  0  0
  -33.0888   64.1854   64.6361 C   0  0  0  0  0  0  0  0  0  0  0  0
  -32.1407   63.3187   63.7997 C   0  0  0  0  0  0  0  0  0  0  0  0
  -30.7470   63.9166   63.6400 C   0  0  0  0  0  0  0  0  0  0  0  0
  -30.6893   65.2535   62.9279 C   0  0  0  0  0  0  0  0  0  0  0  0
  -31.3850   66.3790   63.6645 C   0  0  0  0  0  0  0  0  0  0  0  0
  -33.6414   65.3104   63.7752 C   0  0  0  0  0  0  0  0  0  0  0  0
  -33.2756   67.1966   63.2891 H   0  0  0  0  0  0  0  0  0  0  0  0
  -40.3874   59.2995   65.2177 C   0  0  0  0  0  0  0  0  0  0  0  0
  -40.9232   58.3953   64.1129 C   0  0  0  0  0  0  0  0  0  0  0  0
  -41.0888   56.9518   64.5504 C   0  0  0  0  0  0  0  0  0  0  0  0
  -42.4482   56.3542   64.2598 C   0  0  0  0  0  0  0  0  0  0  0  0
  -43.3461   56.5252   65.3910 N   0  0  0  0  0  0  0  0  0  0  0  0
  -44.3776   58.3330   64.5182 O   0  0  0  0  0  0  0  0  0  0  0  0
  -44.2515   57.5084   65.4384 C   0  0  0  0  0  0  0  0  0  0  0  0
  -43.2856   55.8968   66.1463 H   0  0  0  0  0  0  0  0  0  0  0  0
  -46.3346   57.7338   66.7737 C   0  0  0  0  0  0  0  0  0  0  0  0
  -45.0205   57.5712   66.7013 C   0  0  0  0  0  0  0  0  0  0  0  0
  -47.3057   57.8667   65.6423 C   0  0  0  0  0  0  0  0  0  0  0  0
  -48.6230   57.1626   65.9439 C   0  0  0  0  0  0  0  0  0  0  0  0
  -49.8286   58.0864   65.9336 C   0  0  0  0  0  0  0  0  0  0  0  0
  -49.4882   59.5341   66.2459 C   0  0  0  0  0  0  0  0  0  0  0  0
  -49.8427   60.5127   65.1421 C   0  0  0  0  0  0  0  0  0  0  0  0
  -48.8412   60.5247   63.9992 C   0  0  0  0  0  0  0  0  0  0  0  0
  -49.4192   60.0445   62.6824 C   0  0  0  0  0  0  0  0  0  0  0  0
  -50.8917   59.6971   62.7708 C   0  0  0  0  0  0  0  0  0  0  0  0
  -51.2079   58.2385   62.5014 C   0  0  0  0  0  0  0  0  0  0  0  0
  -50.1917   57.5775   61.5911 C   0  0  0  0  0  0  0  0  0  0  0  0
  -50.3823   57.9295   60.1248 C   0  0  0  0  0  0  0  0  0  0  0  0
  -49.2571   57.4565   59.2209 C   0  0  0  0  0  0  0  0  0  0  0  0
  -47.8759   57.5290   59.8534 C   0  0  0  0  0  0  0  0  0  0  0  0
  -46.7355   57.5525   58.8449 C   0  0  0  0  0  0  0  0  0  0  0  0
  -47.1838   57.8933   57.4328 C   0  0  0  0  0  0  0  0  0  0  0  0
  -47.3108   55.4236   56.9217 C   0  0  0  0  0  0  0  0  0  0  0  0
  -46.9432   56.7935   56.4147 C   0  0  0  0  0  0  0  0  0  0  0  0
 43 45  1  0  0  0
 43 42  1  0  0  0
 43 46  1  0  0  0
 64 65  1  0  0  0
 44 45  2  0  0  0
 65 63  1  0  0  0
  2  1  1  0  0  0
  2  4  1  0  0  0
  2  5  1  0  0  0
  3  4  2  0  0  0
 63 62  1  0  0  0
  6  8  1  0  0  0
  6 11  2  0  0  0
  7 10  1  0  0  0
  7 11  1  0  0  0
 62 61  1  0  0  0
 26 28  1  0  0  0
 26 32  1  0  0  0
 26 29  1  0  0  0
 12 18  1  0  0  0
 12 19  1  0  0  0
 61 60  1  0  0  0
 30 36  1  0  0  0
 30 37  1  0  0  0
 30 38  1  0  0  0
 20 21  2  0  0  0
 60 59  1  0  0  0
 22 21  1  0  0  0
 22 23  1  0  0  0
 59 58  1  0  0  0
 27 28  2  0  0  0
 58 57  1  0  0  0
 31 37  2  0  0  0
 57 56  1  0  0  0
 56 55  1  0  0  0
 55 54  1  0  0  0
 54 53  1  0  0  0
 53 52  1  0  0  0
 52 51  1  0  0  0
 51 50  1  0  0  0
 50 49  1  0  0  0
 49 47  1  0  0  0
 47 48  2  0  0  0
 48 45  1  0  0  0
 42 41  1  0  0  0
 41 40  1  0  0  0
 40 39  1  0  0  0
 39  1  1  0  0  0
  1 21  1  0  0  0
  8  4  1  0  0  0
  8  9  1  0  0  0
  8 10  1  0  0  0
 11 13  1  0  0  0
 13 14  2  0  0  0
 13 18  1  0  0  0
 14 15  1  0  0  0
 15 16  2  0  0  0
 16 17  1  0  0  0
 17 18  2  0  0  0
 23 24  1  0  0  0
 23 25  1  0  0  0
 25 28  1  0  0  0
 32 33  1  0  0  0
 32 37  1  0  0  0
 33 34  1  0  0  0
 34 35  1  0  0  0
 35 36  1  0  0  0
M  END
> <minimizedAffinity>
-10.57274

> <CNNscore>
0.3410748839

> <CNNaffinity>
7.2997617722

> <CNN_VS>
2.4897654057

> <CNNaffinity_variance>
1.1390067339

$$$$
/media/chris/experiments/cd1a-new-docking/inputs/ligands/7ryo_ligand.pdb


 65 67  0  0  0  0  0  0  0  0999 V2000
  -35.7539   58.8111   62.5269 C   0  0  0  0  0  0  0  0  0  0  0  0
  -34.3483   59.1332   62.3455 N   0  0  0  0  0  0  0  0  0  0  0  0
  -33.7277   56.9798   62.1664 O   0  0  0  0  0  0  0  0  0  0  0  0
  -33.4413   58.1678   62.1778 C   0  0  0  0  0  0  0  0  0  0  0  0
  -34.0613   60.0749   62.3463 H   0  0  0  0  0  0  0  0  0  0  0  0
  -31.9029   59.9901   61.5576 N   0  0  0  0  0  0  0  0  0  0  0  0
  -30.5614   59.9064   63.3677 O   0  0  0  0  0  0  0  0  0  0  0  0
  -31.9725   58.5928   62.0163 C   0  0  0  0  0  0  0  0  0  0  0  0
  -31.3102   57.6946   60.9759 C   0  0  0  0  0  0  0  0  0  0  0  0
  -31.1918   58.6007   63.3389 C   0  0  0  0  0  0  0  0  0  0  0  0
  -31.1258   60.6059   62.3490 C   0  0  0  0  0  0  0  0  0  0  0  0
  -30.6662   61.9613   59.8519 O   0  0  0  0  0  0  0  0  0  0  0  0
  -30.7608   62.0225   62.2731 C   0  0  0  0  0  0  0  0  0  0  0  0
  -30.7632   62.8093   63.4257 C   0  0  0  0  0  0  0  0  0  0  0  0
  -30.6609   64.1868   63.3357 C   0  0  0  0  0  0  0  0  0  0  0  0
  -30.5551   64.7999   62.1063 C   0  0  0  0  0  0  0  0  0  0  0  0
  -30.5548   64.0432   60.9485 C   0  0  0  0  0  0  0  0  0  0  0  0
  -30.6588   62.6575   61.0183 C   0  0  0  0  0  0  0  0  0  0  0  0
  -30.7351   61.0269   59.8645 H   0  0  0  0  0  0  0  0  0  0  0  0
  -35.5159   57.8835   64.7458 O   0  0  0  0  0  0  0  0  0  0  0  0
  -36.0910   58.6262   63.9988 C   0  0  0  0  0  0  0  0  0  0  0  0
  -37.1380   59.3959   64.3433 O   0  0  0  0  0  0  0  0  0  0  0  0
  -37.8430   59.0863   65.5911 C   0  0  0  0  0  0  0  0  0  0  0  0
  -38.9408   58.1019   65.2761 C   0  0  0  0  0  0  0  0  0  0  0  0
  -38.3829   60.4113   66.0935 C   0  0  0  0  0  0  0  0  0  0  0  0
  -36.6231   61.8972   65.3605 N   0  0  0  0  0  0  0  0  0  0  0  0
  -37.0529   61.7528   67.5641 O   0  0  0  0  0  0  0  0  0  0  0  0
  -37.2924   61.4106   66.4096 C   0  0  0  0  0  0  0  0  0  0  0  0
  -36.8588   61.5860   64.4567 H   0  0  0  0  0  0  0  0  0  0  0  0
  -34.1273   64.1373   64.0017 N   0  0  0  0  0  0  0  0  0  0  0  0
  -34.9966   62.1970   63.2873 O   0  0  0  0  0  0  0  0  0  0  0  0
  -35.5578   62.8723   65.5153 C   0  0  0  0  0  0  0  0  0  0  0  0
  -34.5424   62.3827   66.5540 C   0  0  0  0  0  0  0  0  0  0  0  0
  -33.6592   63.4918   67.1153 C   0  0  0  0  0  0  0  0  0  0  0  0
  -32.7822   64.2014   66.1029 C   0  0  0  0  0  0  0  0  0  0  0  0
  -33.5500   64.9723   65.0496 C   0  0  0  0  0  0  0  0  0  0  0  0
  -34.8684   63.0399   64.1704 C   0  0  0  0  0  0  0  0  0  0  0  0
  -33.9519   64.4120   63.0727 H   0  0  0  0  0  0  0  0  0  0  0  0
  -36.1497   57.5759   61.7166 C   0  0  0  0  0  0  0  0  0  0  0  0
  -37.6468   57.5241   61.4314 C   0  0  0  0  0  0  0  0  0  0  0  0
  -38.1171   58.6312   60.5062 C   0  0  0  0  0  0  0  0  0  0  0  0
  -39.5881   58.9671   60.6177 C   0  0  0  0  0  0  0  0  0  0  0  0
  -40.3245   57.8839   61.2496 N   0  0  0  0  0  0  0  0  0  0  0  0
  -41.3486   59.2252   62.7483 O   0  0  0  0  0  0  0  0  0  0  0  0
  -41.1567   58.0928   62.2756 C   0  0  0  0  0  0  0  0  0  0  0  0
  -40.2067   56.9670   60.9112 H   0  0  0  0  0  0  0  0  0  0  0  0
  -42.3400   56.7852   64.0257 C   0  0  0  0  0  0  0  0  0  0  0  0
  -41.7551   56.8617   62.8380 C   0  0  0  0  0  0  0  0  0  0  0  0
  -42.5389   57.8844   65.0222 C   0  0  0  0  0  0  0  0  0  0  0  0
  -43.7987   57.6717   65.8527 C   0  0  0  0  0  0  0  0  0  0  0  0
  -45.0764   57.6407   65.0320 C   0  0  0  0  0  0  0  0  0  0  0  0
  -46.3170   57.3230   65.8500 C   0  0  0  0  0  0  0  0  0  0  0  0
  -46.6178   58.3272   66.9467 C   0  0  0  0  0  0  0  0  0  0  0  0
  -47.9253   59.0741   66.7415 C   0  0  0  0  0  0  0  0  0  0  0  0
  -48.6943   58.6231   65.5151 C   0  0  0  0  0  0  0  0  0  0  0  0
  -48.2851   59.3566   64.2536 C   0  0  0  0  0  0  0  0  0  0  0  0
  -48.7445   58.6955   62.9684 C   0  0  0  0  0  0  0  0  0  0  0  0
  -50.1959   58.9902   62.6447 C   0  0  0  0  0  0  0  0  0  0  0  0
  -50.8622   57.8945   61.8287 C   0  0  0  0  0  0  0  0  0  0  0  0
  -49.9062   57.1037   60.9526 C   0  0  0  0  0  0  0  0  0  0  0  0
  -49.7405   57.6616   59.5476 C   0  0  0  0  0  0  0  0  0  0  0  0
  -48.4235   58.3924   59.3248 C   0  0  0  0  0  0  0  0  0  0  0  0
  -47.2524   57.4606   59.0573 C   0  0  0  0  0  0  0  0  0  0  0  0
  -47.3502   57.4050   56.5347 C   0  0  0  0  0  0  0  0  0  0  0  0
  -46.5239   57.7259   57.7524 C   0  0  0  0  0  0  0  0  0  0  0  0
 43 45  1  0  0  0
 43 42  1  0  0  0
 43 46  1  0  0  0
 64 65  1  0  0  0
 44 45  2  0  0  0
 65 63  1  0  0  0
  2  1  1  0  0  0
  2  4  1  0  0  0
  2  5  1  0  0  0
  3  4  2  0  0  0
 63 62  1  0  0  0
  6  8  1  0  0  0
  6 11  2  0  0  0
  7 10  1  0  0  0
  7 11  1  0  0  0
 62 61  1  0  0  0
 26 28  1  0  0  0
 26 32  1  0  0  0
 26 29  1  0  0  0
 12 18  1  0  0  0
 12 19  1  0  0  0
 61 60  1  0  0  0
 30 36  1  0  0  0
 30 37  1  0  0  0
 30 38  1  0  0  0
 20 21  2  0  0  0
 60 59  1  0  0  0
 22 21  1  0  0  0
 22 23  1  0  0  0
 59 58  1  0  0  0
 27 28  2  0  0  0
 58 57  1  0  0  0
 31 37  2  0  0  0
 57 56  1  0  0  0
 56 55  1  0  0  0
 55 54  1  0  0  0
 54 53  1  0  0  0
 53 52  1  0  0  0
 52 51  1  0  0  0
 51 50  1  0  0  0
 50 49  1  0  0  0
 49 47  1  0  0  0
 47 48  2  0  0  0
 48 45  1  0  0  0
 42 41  1  0  0  0
 41 40  1  0  0  0
 40 39  1  0  0  0
 39  1  1  0  0  0
  1 21  1  0  0  0
  8  4  1  0  0  0
  8  9  1  0  0  0
  8 10  1  0  0  0
 11 13  1  0  0  0
 13 14  2  0  0  0
 13 18  1  0  0  0
 14 15  1  0  0  0
 15 16  2  0  0  0
 16 17  1  0  0  0
 17 18  2  0  0  0
 23 24  1  0  0  0
 23 25  1  0  0  0
 25 28  1  0  0  0
 32 33  1  0  0  0
 32 37  1  0  0  0
 33 34  1  0  0  0
 34 35  1  0  0  0
 35 36  1  0  0  0
M  END
> <minimizedAffinity>
-10.15685

> <CNNscore>
0.3388108909

> <CNNaffinity>
7.4627561569

> <CNN_VS>
2.5284631252

> <CNNaffinity_variance>
0.9716640711

$$$$
/media/chris/experiments/cd1a-new-docking/inputs/ligands/7ryo_ligand.pdb


 65 67  0  0  0  0  0  0  0  0999 V2000
  -36.2156   59.8505   65.2822 C   0  0  0  0  0  0  0  0  0  0  0  0
  -35.4089   61.0568   65.2021 N   0  0  0  0  0  0  0  0  0  0  0  0
  -36.5835   62.1232   66.7950 O   0  0  0  0  0  0  0  0  0  0  0  0
  -35.6707   62.1081   65.9826 C   0  0  0  0  0  0  0  0  0  0  0  0
  -34.6601   61.0994   64.5644 H   0  0  0  0  0  0  0  0  0  0  0  0
  -33.5466   62.9969   65.1049 N   0  0  0  0  0  0  0  0  0  0  0  0
  -34.3804   64.7601   63.9741 O   0  0  0  0  0  0  0  0  0  0  0  0
  -34.7841   63.3535   65.8183 C   0  0  0  0  0  0  0  0  0  0  0  0
  -34.4240   63.8890   67.2009 C   0  0  0  0  0  0  0  0  0  0  0  0
  -35.4172   64.4397   64.9361 C   0  0  0  0  0  0  0  0  0  0  0  0
  -33.4259   63.8072   64.1362 C   0  0  0  0  0  0  0  0  0  0  0  0
  -32.6749   61.4918   62.6003 O   0  0  0  0  0  0  0  0  0  0  0  0
  -32.3369   63.8266   63.1568 C   0  0  0  0  0  0  0  0  0  0  0  0
  -31.7103   65.0298   62.8295 C   0  0  0  0  0  0  0  0  0  0  0  0
  -30.8578   65.1043   61.7415 C   0  0  0  0  0  0  0  0  0  0  0  0
  -30.6161   63.9908   60.9668 C   0  0  0  0  0  0  0  0  0  0  0  0
  -31.2281   62.7874   61.2671 C   0  0  0  0  0  0  0  0  0  0  0  0
  -32.0898   62.6931   62.3553 C   0  0  0  0  0  0  0  0  0  0  0  0
  -33.2604   61.3951   63.3255 H   0  0  0  0  0  0  0  0  0  0  0  0
  -35.6454   57.5060   65.1448 O   0  0  0  0  0  0  0  0  0  0  0  0
  -35.4394   58.6357   64.7962 C   0  0  0  0  0  0  0  0  0  0  0  0
  -34.4747   59.0055   63.9360 O   0  0  0  0  0  0  0  0  0  0  0  0
  -33.6711   57.9543   63.3044 C   0  0  0  0  0  0  0  0  0  0  0  0
  -32.2159   58.2997   63.4953 C   0  0  0  0  0  0  0  0  0  0  0  0
  -34.0770   57.9534   61.8434 C   0  0  0  0  0  0  0  0  0  0  0  0
  -36.2576   58.6431   61.0616 N   0  0  0  0  0  0  0  0  0  0  0  0
  -36.0478   56.6014   61.9830 O   0  0  0  0  0  0  0  0  0  0  0  0
  -35.5488   57.6697   61.6405 C   0  0  0  0  0  0  0  0  0  0  0  0
  -35.8039   59.4792   60.8080 H   0  0  0  0  0  0  0  0  0  0  0  0
  -39.4387   59.9589   59.9466 N   0  0  0  0  0  0  0  0  0  0  0  0
  -37.6547   60.8938   60.9334 O   0  0  0  0  0  0  0  0  0  0  0  0
  -37.6787   58.5031   60.7956 C   0  0  0  0  0  0  0  0  0  0  0  0
  -38.3770   57.8497   61.9935 C   0  0  0  0  0  0  0  0  0  0  0  0
  -39.7395   57.2538   61.6561 C   0  0  0  0  0  0  0  0  0  0  0  0
  -40.7789   58.2416   61.1645 C   0  0  0  0  0  0  0  0  0  0  0  0
  -40.4349   58.8979   59.8439 C   0  0  0  0  0  0  0  0  0  0  0  0
  -38.2574   59.8901   60.5644 C   0  0  0  0  0  0  0  0  0  0  0  0
  -39.6611   60.8154   59.5151 H   0  0  0  0  0  0  0  0  0  0  0  0
  -37.5262   60.0064   64.5094 C   0  0  0  0  0  0  0  0  0  0  0  0
  -38.7334   59.5352   65.3131 C   0  0  0  0  0  0  0  0  0  0  0  0
  -39.7942   60.6071   65.4812 C   0  0  0  0  0  0  0  0  0  0  0  0
  -41.0414   60.1548   66.2086 C   0  0  0  0  0  0  0  0  0  0  0  0
  -41.4875   58.8584   65.7235 N   0  0  0  0  0  0  0  0  0  0  0  0
  -42.5141   59.7029   63.8995 O   0  0  0  0  0  0  0  0  0  0  0  0
  -42.1959   58.7257   64.5969 C   0  0  0  0  0  0  0  0  0  0  0  0
  -41.2606   58.0524   66.2411 H   0  0  0  0  0  0  0  0  0  0  0  0
  -43.5954   56.7034   64.9508 C   0  0  0  0  0  0  0  0  0  0  0  0
  -42.6275   57.3403   64.3056 C   0  0  0  0  0  0  0  0  0  0  0  0
  -44.4521   57.2229   66.0629 C   0  0  0  0  0  0  0  0  0  0  0  0
  -45.5958   58.0830   65.5393 C   0  0  0  0  0  0  0  0  0  0  0  0
  -46.7760   58.1794   66.4906 C   0  0  0  0  0  0  0  0  0  0  0  0
  -47.8653   59.1259   66.0143 C   0  0  0  0  0  0  0  0  0  0  0  0
  -49.2053   58.4612   65.7608 C   0  0  0  0  0  0  0  0  0  0  0  0
  -50.3917   59.3801   66.0007 C   0  0  0  0  0  0  0  0  0  0  0  0
  -51.1088   59.7878   64.7285 C   0  0  0  0  0  0  0  0  0  0  0  0
  -50.1705   60.3053   63.6567 C   0  0  0  0  0  0  0  0  0  0  0  0
  -50.4850   59.8111   62.2579 C   0  0  0  0  0  0  0  0  0  0  0  0
  -50.8835   58.3487   62.2292 C   0  0  0  0  0  0  0  0  0  0  0  0
  -50.2630   57.5811   61.0733 C   0  0  0  0  0  0  0  0  0  0  0  0
  -49.0602   58.2654   60.4475 C   0  0  0  0  0  0  0  0  0  0  0  0
  -48.5829   57.6272   59.1522 C   0  0  0  0  0  0  0  0  0  0  0  0
  -47.1081   57.8614   58.8553 C   0  0  0  0  0  0  0  0  0  0  0  0
  -46.7882   57.8955   57.3695 C   0  0  0  0  0  0  0  0  0  0  0  0
  -47.2888   55.4934   56.7731 C   0  0  0  0  0  0  0  0  0  0  0  0
  -47.6162   56.9428   56.5266 C   0  0  0  0  0  0  0  0  0  0  0  0
 43 45  1  0  0  0
 43 42  1  0  0  0
 43 46  1  0  0  0
 64 65  1  0  0  0
 44 45  2  0  0  0
 65 63  1  0  0  0
  2  1  1  0  0  0
  2  4  1  0  0  0
  2  5  1  0  0  0
  3  4  2  0  0  0
 63 62  1  0  0  0
  6  8  1  0  0  0
  6 11  2  0  0  0
  7 10  1  0  0  0
  7 11  1  0  0  0
 62 61  1  0  0  0
 26 28  1  0  0  0
 26 32  1  0  0  0
 26 29  1  0  0  0
 12 18  1  0  0  0
 12 19  1  0  0  0
 61 60  1  0  0  0
 30 36  1  0  0  0
 30 37  1  0  0  0
 30 38  1  0  0  0
 20 21  2  0  0  0
 60 59  1  0  0  0
 22 21  1  0  0  0
 22 23  1  0  0  0
 59 58  1  0  0  0
 27 28  2  0  0  0
 58 57  1  0  0  0
 31 37  2  0  0  0
 57 56  1  0  0  0
 56 55  1  0  0  0
 55 54  1  0  0  0
 54 53  1  0  0  0
 53 52  1  0  0  0
 52 51  1  0  0  0
 51 50  1  0  0  0
 50 49  1  0  0  0
 49 47  1  0  0  0
 47 48  2  0  0  0
 48 45  1  0  0  0
 42 41  1  0  0  0
 41 40  1  0  0  0
 40 39  1  0  0  0
 39  1  1  0  0  0
  1 21  1  0  0  0
  8  4  1  0  0  0
  8  9  1  0  0  0
  8 10  1  0  0  0
 11 13  1  0  0  0
 13 14  2  0  0  0
 13 18  1  0  0  0
 14 15  1  0  0  0
 15 16  2  0  0  0
 16 17  1  0  0  0
 17 18  2  0  0  0
 23 24  1  0  0  0
 23 25  1  0  0  0
 25 28  1  0  0  0
 32 33  1  0  0  0
 32 37  1  0  0  0
 33 34  1  0  0  0
 34 35  1  0  0  0
 35 36  1  0  0  0
M  END
> <minimizedAffinity>
-10.30049

> <CNNscore>
0.2879756391

> <CNNaffinity>
7.5352087021

> <CNN_VS>
2.1699564457

> <CNNaffinity_variance>
1.1190927029

$$$$
/media/chris/experiments/cd1a-new-docking/inputs/ligands/7ryo_ligand.pdb


 65 67  0  0  0  0  0  0  0  0999 V2000
  -39.5151   58.7394   64.6320 C   0  0  0  0  0  0  0  0  0  0  0  0
  -38.1236   58.4904   64.9699 N   0  0  0  0  0  0  0  0  0  0  0  0
  -37.7102   57.3689   63.0658 O   0  0  0  0  0  0  0  0  0  0  0  0
  -37.3284   57.8127   64.1385 C   0  0  0  0  0  0  0  0  0  0  0  0
  -37.7628   58.8255   65.8224 H   0  0  0  0  0  0  0  0  0  0  0  0
  -35.0327   57.2952   63.4076 N   0  0  0  0  0  0  0  0  0  0  0  0
  -33.9657   58.9468   64.5106 O   0  0  0  0  0  0  0  0  0  0  0  0
  -35.8759   57.5725   64.5821 C   0  0  0  0  0  0  0  0  0  0  0  0
  -35.8382   56.3672   65.5168 C   0  0  0  0  0  0  0  0  0  0  0  0
  -35.2223   58.8068   65.2209 C   0  0  0  0  0  0  0  0  0  0  0  0
  -34.0412   58.0846   63.4635 C   0  0  0  0  0  0  0  0  0  0  0  0
  -32.8567   60.5780   62.6485 O   0  0  0  0  0  0  0  0  0  0  0  0
  -32.9417   58.1603   62.4985 C   0  0  0  0  0  0  0  0  0  0  0  0
  -32.3281   56.9928   62.0426 C   0  0  0  0  0  0  0  0  0  0  0  0
  -31.1435   57.0546   61.3293 C   0  0  0  0  0  0  0  0  0  0  0  0
  -30.5540   58.2705   61.0595 C   0  0  0  0  0  0  0  0  0  0  0  0
  -31.1395   59.4421   61.5039 C   0  0  0  0  0  0  0  0  0  0  0  0
  -32.3291   59.4003   62.2243 C   0  0  0  0  0  0  0  0  0  0  0  0
  -33.6569   60.5842   63.1361 H   0  0  0  0  0  0  0  0  0  0  0  0
  -40.1644   61.0418   64.9756 O   0  0  0  0  0  0  0  0  0  0  0  0
  -39.7355   60.1935   64.2429 C   0  0  0  0  0  0  0  0  0  0  0  0
  -39.4027   60.3931   62.9558 O   0  0  0  0  0  0  0  0  0  0  0  0
  -38.1156   61.0326   62.6654 C   0  0  0  0  0  0  0  0  0  0  0  0
  -37.4304   60.2349   61.5848 C   0  0  0  0  0  0  0  0  0  0  0  0
  -37.3469   61.0131   63.9723 C   0  0  0  0  0  0  0  0  0  0  0  0
  -35.6926   62.4145   65.0406 N   0  0  0  0  0  0  0  0  0  0  0  0
  -35.3934   61.8628   62.8801 O   0  0  0  0  0  0  0  0  0  0  0  0
  -36.0585   61.8029   63.9104 C   0  0  0  0  0  0  0  0  0  0  0  0
  -36.2659   62.3314   65.8366 H   0  0  0  0  0  0  0  0  0  0  0  0
  -32.9918   63.9110   66.9274 N   0  0  0  0  0  0  0  0  0  0  0  0
  -35.1312   63.4486   67.4173 O   0  0  0  0  0  0  0  0  0  0  0  0
  -34.4729   63.1984   65.1285 C   0  0  0  0  0  0  0  0  0  0  0  0
  -34.6217   64.4959   64.3261 C   0  0  0  0  0  0  0  0  0  0  0  0
  -33.2915   65.1560   63.9795 C   0  0  0  0  0  0  0  0  0  0  0  0
  -32.4528   65.5929   65.1642 C   0  0  0  0  0  0  0  0  0  0  0  0
  -31.9711   64.4529   66.0370 C   0  0  0  0  0  0  0  0  0  0  0  0
  -34.2267   63.5310   66.5916 C   0  0  0  0  0  0  0  0  0  0  0  0
  -32.7440   63.8156   67.8755 H   0  0  0  0  0  0  0  0  0  0  0  0
  -40.4456   58.3329   65.7757 C   0  0  0  0  0  0  0  0  0  0  0  0
  -41.8818   58.1223   65.3084 C   0  0  0  0  0  0  0  0  0  0  0  0
  -42.1661   56.6956   64.8766 C   0  0  0  0  0  0  0  0  0  0  0  0
  -42.5007   56.5329   63.4100 C   0  0  0  0  0  0  0  0  0  0  0  0
  -41.8181   57.5331   62.6048 N   0  0  0  0  0  0  0  0  0  0  0  0
  -41.6132   56.1903   60.8023 O   0  0  0  0  0  0  0  0  0  0  0  0
  -41.4213   57.2878   61.3513 C   0  0  0  0  0  0  0  0  0  0  0  0
  -41.6423   58.4197   62.9950 H   0  0  0  0  0  0  0  0  0  0  0  0
  -40.7933   58.7542   59.4465 C   0  0  0  0  0  0  0  0  0  0  0  0
  -40.6742   58.3974   60.7182 C   0  0  0  0  0  0  0  0  0  0  0  0
  -41.6871   58.1551   58.4060 C   0  0  0  0  0  0  0  0  0  0  0  0
  -42.1185   59.1869   57.3710 C   0  0  0  0  0  0  0  0  0  0  0  0
  -43.4390   58.8619   56.6944 C   0  0  0  0  0  0  0  0  0  0  0  0
  -44.4741   58.2675   57.6348 C   0  0  0  0  0  0  0  0  0  0  0  0
  -45.8692   58.1671   57.0472 C   0  0  0  0  0  0  0  0  0  0  0  0
  -46.9721   58.2446   58.0899 C   0  0  0  0  0  0  0  0  0  0  0  0
  -47.2357   56.9267   58.7917 C   0  0  0  0  0  0  0  0  0  0  0  0
  -48.5167   56.9300   59.6015 C   0  0  0  0  0  0  0  0  0  0  0  0
  -48.8892   58.2823   60.1781 C   0  0  0  0  0  0  0  0  0  0  0  0
  -49.4812   58.1824   61.5701 C   0  0  0  0  0  0  0  0  0  0  0  0
  -50.1804   59.4560   62.0167 C   0  0  0  0  0  0  0  0  0  0  0  0
  -51.1494   59.2613   63.1699 C   0  0  0  0  0  0  0  0  0  0  0  0
  -51.1951   60.4233   64.1499 C   0  0  0  0  0  0  0  0  0  0  0  0
  -50.8669   60.0343   65.5848 C   0  0  0  0  0  0  0  0  0  0  0  0
  -50.0094   58.7834   65.6913 C   0  0  0  0  0  0  0  0  0  0  0  0
  -47.6651   59.0743   64.7991 C   0  0  0  0  0  0  0  0  0  0  0  0
  -48.5507   59.0477   66.0171 C   0  0  0  0  0  0  0  0  0  0  0  0
 43 45  1  0  0  0
 43 42  1  0  0  0
 43 46  1  0  0  0
 64 65  1  0  0  0
 44 45  2  0  0  0
 65 63  1  0  0  0
  2  1  1  0  0  0
  2  4  1  0  0  0
  2  5  1  0  0  0
  3  4  2  0  0  0
 63 62  1  0  0  0
  6  8  1  0  0  0
  6 11  2  0  0  0
  7 10  1  0  0  0
  7 11  1  0  0  0
 62 61  1  0  0  0
 26 28  1  0  0  0
 26 32  1  0  0  0
 26 29  1  0  0  0
 12 18  1  0  0  0
 12 19  1  0  0  0
 61 60  1  0  0  0
 30 36  1  0  0  0
 30 37  1  0  0  0
 30 38  1  0  0  0
 20 21  2  0  0  0
 60 59  1  0  0  0
 22 21  1  0  0  0
 22 23  1  0  0  0
 59 58  1  0  0  0
 27 28  2  0  0  0
 58 57  1  0  0  0
 31 37  2  0  0  0
 57 56  1  0  0  0
 56 55  1  0  0  0
 55 54  1  0  0  0
 54 53  1  0  0  0
 53 52  1  0  0  0
 52 51  1  0  0  0
 51 50  1  0  0  0
 50 49  1  0  0  0
 49 47  1  0  0  0
 47 48  2  0  0  0
 48 45  1  0  0  0
 42 41  1  0  0  0
 41 40  1  0  0  0
 40 39  1  0  0  0
 39  1  1  0  0  0
  1 21  1  0  0  0
  8  4  1  0  0  0
  8  9  1  0  0  0
  8 10  1  0  0  0
 11 13  1  0  0  0
 13 14  2  0  0  0
 13 18  1  0  0  0
 14 15  1  0  0  0
 15 16  2  0  0  0
 16 17  1  0  0  0
 17 18  2  0  0  0
 23 24  1  0  0  0
 23 25  1  0  0  0
 25 28  1  0  0  0
 32 33  1  0  0  0
 32 37  1  0  0  0
 33 34  1  0  0  0
 34 35  1  0  0  0
 35 36  1  0  0  0
M  END
> <minimizedAffinity>
-8.31729

> <CNNscore>
0.2435390651

> <CNNaffinity>
7.3615827560

> <CNN_VS>
1.7928329706

> <CNNaffinity_variance>
0.9712015986

$$$$
/media/chris/experiments/cd1a-new-docking/inputs/ligands/7ryo_ligand.pdb


 65 67  0  0  0  0  0  0  0  0999 V2000
  -35.2555   62.7233   63.8780 C   0  0  0  0  0  0  0  0  0  0  0  0
  -35.6918   61.4066   63.4441 N   0  0  0  0  0  0  0  0  0  0  0  0
  -34.1510   60.3294   64.6768 O   0  0  0  0  0  0  0  0  0  0  0  0
  -35.0875   60.3034   63.8920 C   0  0  0  0  0  0  0  0  0  0  0  0
  -36.4424   61.3270   62.8120 H   0  0  0  0  0  0  0  0  0  0  0  0
  -37.0088   59.0662   62.9703 N   0  0  0  0  0  0  0  0  0  0  0  0
  -35.9783   58.1618   61.1806 O   0  0  0  0  0  0  0  0  0  0  0  0
  -35.5953   58.9511   63.3653 C   0  0  0  0  0  0  0  0  0  0  0  0
  -35.4724   57.9114   64.4752 C   0  0  0  0  0  0  0  0  0  0  0  0
  -34.8901   58.4948   62.0795 C   0  0  0  0  0  0  0  0  0  0  0  0
  -37.1045   58.6202   61.7865 C   0  0  0  0  0  0  0  0  0  0  0  0
  -39.2690   56.8391   62.4397 O   0  0  0  0  0  0  0  0  0  0  0  0
  -38.3312   58.5402   60.9899 C   0  0  0  0  0  0  0  0  0  0  0  0
  -38.5517   59.4449   59.9505 C   0  0  0  0  0  0  0  0  0  0  0  0
  -39.7973   59.5391   59.3541 C   0  0  0  0  0  0  0  0  0  0  0  0
  -40.8366   58.7404   59.7789 C   0  0  0  0  0  0  0  0  0  0  0  0
  -40.6455   57.8388   60.8102 C   0  0  0  0  0  0  0  0  0  0  0  0
  -39.4013   57.7310   61.4236 C   0  0  0  0  0  0  0  0  0  0  0  0
  -38.4442   56.7424   62.8736 H   0  0  0  0  0  0  0  0  0  0  0  0
  -33.0082   63.0828   64.6911 O   0  0  0  0  0  0  0  0  0  0  0  0
  -33.7449   62.8665   63.7687 C   0  0  0  0  0  0  0  0  0  0  0  0
  -33.3501   62.7381   62.4900 O   0  0  0  0  0  0  0  0  0  0  0  0
  -32.1535   63.4676   62.0590 C   0  0  0  0  0  0  0  0  0  0  0  0
  -32.6001   64.7202   61.3483 C   0  0  0  0  0  0  0  0  0  0  0  0
  -31.4063   62.5191   61.1418 C   0  0  0  0  0  0  0  0  0  0  0  0
  -31.2936   60.1050   61.1033 N   0  0  0  0  0  0  0  0  0  0  0  0
  -30.5532   61.1816   62.9347 O   0  0  0  0  0  0  0  0  0  0  0  0
  -31.0480   61.2111   61.8114 C   0  0  0  0  0  0  0  0  0  0  0  0
  -31.6921   60.1895   60.2070 H   0  0  0  0  0  0  0  0  0  0  0  0
  -31.3787   56.4950   60.8701 N   0  0  0  0  0  0  0  0  0  0  0  0
  -32.7579   58.1102   60.1493 O   0  0  0  0  0  0  0  0  0  0  0  0
  -30.9894   58.7812   61.6179 C   0  0  0  0  0  0  0  0  0  0  0  0
  -31.3824   58.6878   63.0966 C   0  0  0  0  0  0  0  0  0  0  0  0
  -30.7094   57.5365   63.8362 C   0  0  0  0  0  0  0  0  0  0  0  0
  -31.0357   56.1499   63.3179 C   0  0  0  0  0  0  0  0  0  0  0  0
  -30.5529   55.8857   61.9071 C   0  0  0  0  0  0  0  0  0  0  0  0
  -31.7861   57.7650   60.8150 C   0  0  0  0  0  0  0  0  0  0  0  0
  -31.6656   55.9079   60.1336 H   0  0  0  0  0  0  0  0  0  0  0  0
  -35.7314   63.0256   65.2997 C   0  0  0  0  0  0  0  0  0  0  0  0
  -36.0277   61.7582   66.0942 C   0  0  0  0  0  0  0  0  0  0  0  0
  -37.4947   61.6069   66.4518 C   0  0  0  0  0  0  0  0  0  0  0  0
  -38.1289   60.3135   65.9891 C   0  0  0  0  0  0  0  0  0  0  0  0
  -39.1553   60.5637   64.9897 N   0  0  0  0  0  0  0  0  0  0  0  0
  -40.8629   60.4151   66.4581 O   0  0  0  0  0  0  0  0  0  0  0  0
  -40.4562   60.5967   65.2987 C   0  0  0  0  0  0  0  0  0  0  0  0
  -38.8838   60.7138   64.0554 H   0  0  0  0  0  0  0  0  0  0  0  0
  -42.1107   59.8320   63.6102 C   0  0  0  0  0  0  0  0  0  0  0  0
  -41.3556   60.7855   64.1386 C   0  0  0  0  0  0  0  0  0  0  0  0
  -42.2373   58.4092   64.0576 C   0  0  0  0  0  0  0  0  0  0  0  0
  -43.6955   57.9889   64.1958 C   0  0  0  0  0  0  0  0  0  0  0  0
  -44.0934   57.6114   65.6123 C   0  0  0  0  0  0  0  0  0  0  0  0
  -45.4432   58.1681   66.0336 C   0  0  0  0  0  0  0  0  0  0  0  0
  -46.3366   58.5837   64.8799 C   0  0  0  0  0  0  0  0  0  0  0  0
  -47.8050   58.2643   65.1061 C   0  0  0  0  0  0  0  0  0  0  0  0
  -48.5293   59.3033   65.9396 C   0  0  0  0  0  0  0  0  0  0  0  0
  -50.0353   59.2507   65.7784 C   0  0  0  0  0  0  0  0  0  0  0  0
  -50.6274   60.4350   65.0390 C   0  0  0  0  0  0  0  0  0  0  0  0
  -51.5499   60.0190   63.9103 C   0  0  0  0  0  0  0  0  0  0  0  0
  -50.9107   59.0323   62.9468 C   0  0  0  0  0  0  0  0  0  0  0  0
  -49.8196   59.6315   62.0767 C   0  0  0  0  0  0  0  0  0  0  0  0
  -49.0558   58.6137   61.2438 C   0  0  0  0  0  0  0  0  0  0  0  0
  -49.6561   58.3677   59.8665 C   0  0  0  0  0  0  0  0  0  0  0  0
  -48.7618   57.5421   58.9556 C   0  0  0  0  0  0  0  0  0  0  0  0
  -46.6950   57.5688   57.5051 C   0  0  0  0  0  0  0  0  0  0  0  0
  -47.3877   58.1401   58.7144 C   0  0  0  0  0  0  0  0  0  0  0  0
 43 45  1  0  0  0
 43 42  1  0  0  0
 43 46  1  0  0  0
 64 65  1  0  0  0
 44 45  2  0  0  0
 65 63  1  0  0  0
  2  1  1  0  0  0
  2  4  1  0  0  0
  2  5  1  0  0  0
  3  4  2  0  0  0
 63 62  1  0  0  0
  6  8  1  0  0  0
  6 11  2  0  0  0
  7 10  1  0  0  0
  7 11  1  0  0  0
 62 61  1  0  0  0
 26 28  1  0  0  0
 26 32  1  0  0  0
 26 29  1  0  0  0
 12 18  1  0  0  0
 12 19  1  0  0  0
 61 60  1  0  0  0
 30 36  1  0  0  0
 30 37  1  0  0  0
 30 38  1  0  0  0
 20 21  2  0  0  0
 60 59  1  0  0  0
 22 21  1  0  0  0
 22 23  1  0  0  0
 59 58  1  0  0  0
 27 28  2  0  0  0
 58 57  1  0  0  0
 31 37  2  0  0  0
 57 56  1  0  0  0
 56 55  1  0  0  0
 55 54  1  0  0  0
 54 53  1  0  0  0
 53 52  1  0  0  0
 52 51  1  0  0  0
 51 50  1  0  0  0
 50 49  1  0  0  0
 49 47  1  0  0  0
 47 48  2  0  0  0
 48 45  1  0  0  0
 42 41  1  0  0  0
 41 40  1  0  0  0
 40 39  1  0  0  0
 39  1  1  0  0  0
  1 21  1  0  0  0
  8  4  1  0  0  0
  8  9  1  0  0  0
  8 10  1  0  0  0
 11 13  1  0  0  0
 13 14  2  0  0  0
 13 18  1  0  0  0
 14 15  1  0  0  0
 15 16  2  0  0  0
 16 17  1  0  0  0
 17 18  2  0  0  0
 23 24  1  0  0  0
 23 25  1  0  0  0
 25 28  1  0  0  0
 32 33  1  0  0  0
 32 37  1  0  0  0
 33 34  1  0  0  0
 34 35  1  0  0  0
 35 36  1  0  0  0
M  END
> <minimizedAffinity>
-10.20290

> <CNNscore>
0.2220091522

> <CNNaffinity>
7.5453901291

> <CNN_VS>
1.6751456261

> <CNNaffinity_variance>
1.1263374090

$$$$
/media/chris/experiments/cd1a-new-docking/inputs/ligands/7ryo_ligand.pdb


 65 67  0  0  0  0  0  0  0  0999 V2000
  -34.6993   57.7401   62.9050 C   0  0  0  0  0  0  0  0  0  0  0  0
  -33.7885   58.7997   62.5052 N   0  0  0  0  0  0  0  0  0  0  0  0
  -31.9508   57.5579   62.8722 O   0  0  0  0  0  0  0  0  0  0  0  0
  -32.4670   58.6097   62.5249 C   0  0  0  0  0  0  0  0  0  0  0  0
  -34.1503   59.6685   62.2161 H   0  0  0  0  0  0  0  0  0  0  0  0
  -32.3916   61.0004   61.9324 N   0  0  0  0  0  0  0  0  0  0  0  0
  -30.7289   61.6223   63.3221 O   0  0  0  0  0  0  0  0  0  0  0  0
  -31.5730   59.7896   62.1091 C   0  0  0  0  0  0  0  0  0  0  0  0
  -30.8934   59.4515   60.7856 C   0  0  0  0  0  0  0  0  0  0  0  0
  -30.5528   60.1893   63.1853 C   0  0  0  0  0  0  0  0  0  0  0  0
  -31.8559   61.9191   62.6241 C   0  0  0  0  0  0  0  0  0  0  0  0
  -31.6370   63.4303   65.0638 O   0  0  0  0  0  0  0  0  0  0  0  0
  -32.3330   63.2986   62.7458 C   0  0  0  0  0  0  0  0  0  0  0  0
  -32.7891   63.9842   61.6190 C   0  0  0  0  0  0  0  0  0  0  0  0
  -33.0102   65.3497   61.6697 C   0  0  0  0  0  0  0  0  0  0  0  0
  -32.7831   66.0507   62.8340 C   0  0  0  0  0  0  0  0  0  0  0  0
  -32.3268   65.3957   63.9634 C   0  0  0  0  0  0  0  0  0  0  0  0
  -32.0966   64.0239   63.9316 C   0  0  0  0  0  0  0  0  0  0  0  0
  -31.4719   62.5080   65.0753 H   0  0  0  0  0  0  0  0  0  0  0  0
  -36.7808   56.9143   61.9959 O   0  0  0  0  0  0  0  0  0  0  0  0
  -36.0117   57.8243   62.1402 C   0  0  0  0  0  0  0  0  0  0  0  0
  -36.1817   59.0560   61.6291 O   0  0  0  0  0  0  0  0  0  0  0  0
  -37.5205   59.4339   61.1659 C   0  0  0  0  0  0  0  0  0  0  0  0
  -37.5717   59.2359   59.6720 C   0  0  0  0  0  0  0  0  0  0  0  0
  -37.6933   60.8875   61.5614 C   0  0  0  0  0  0  0  0  0  0  0  0
  -36.2453   61.7104   63.3131 N   0  0  0  0  0  0  0  0  0  0  0  0
  -38.2343   60.8332   63.8929 O   0  0  0  0  0  0  0  0  0  0  0  0
  -37.4176   61.1364   63.0276 C   0  0  0  0  0  0  0  0  0  0  0  0
  -35.6293   61.9315   62.5776 H   0  0  0  0  0  0  0  0  0  0  0  0
  -35.7439   64.0337   66.0415 N   0  0  0  0  0  0  0  0  0  0  0  0
  -35.6124   64.2371   63.8117 O   0  0  0  0  0  0  0  0  0  0  0  0
  -35.8535   62.0175   64.6776 C   0  0  0  0  0  0  0  0  0  0  0  0
  -34.5068   61.3599   64.9996 C   0  0  0  0  0  0  0  0  0  0  0  0
  -34.2294   61.2352   66.4939 C   0  0  0  0  0  0  0  0  0  0  0  0
  -34.1492   62.5447   67.2531 C   0  0  0  0  0  0  0  0  0  0  0  0
  -35.4464   63.3254   67.2818 C   0  0  0  0  0  0  0  0  0  0  0  0
  -35.7257   63.5271   64.8066 C   0  0  0  0  0  0  0  0  0  0  0  0
  -35.9832   64.9852   66.1239 H   0  0  0  0  0  0  0  0  0  0  0  0
  -34.9447   57.7588   64.4145 C   0  0  0  0  0  0  0  0  0  0  0  0
  -36.2097   58.5244   64.7874 C   0  0  0  0  0  0  0  0  0  0  0  0
  -37.3225   57.6271   65.2965 C   0  0  0  0  0  0  0  0  0  0  0  0
  -38.6691   57.8579   64.6464 C   0  0  0  0  0  0  0  0  0  0  0  0
  -39.6228   58.4017   65.6002 N   0  0  0  0  0  0  0  0  0  0  0  0
  -41.1864   58.8567   64.0375 O   0  0  0  0  0  0  0  0  0  0  0  0
  -40.8200   58.8645   65.2241 C   0  0  0  0  0  0  0  0  0  0  0  0
  -39.3793   58.4300   66.5536 H   0  0  0  0  0  0  0  0  0  0  0  0
  -42.6696   58.8641   66.8830 C   0  0  0  0  0  0  0  0  0  0  0  0
  -41.6212   59.4508   66.3217 C   0  0  0  0  0  0  0  0  0  0  0  0
  -43.2492   57.5216   66.5631 C   0  0  0  0  0  0  0  0  0  0  0  0
  -44.2711   57.6025   65.4356 C   0  0  0  0  0  0  0  0  0  0  0  0
  -45.7087   57.6981   65.9164 C   0  0  0  0  0  0  0  0  0  0  0  0
  -46.6520   58.3117   64.8951 C   0  0  0  0  0  0  0  0  0  0  0  0
  -48.1212   58.2097   65.2595 C   0  0  0  0  0  0  0  0  0  0  0  0
  -48.7460   59.5437   65.6335 C   0  0  0  0  0  0  0  0  0  0  0  0
  -50.2556   59.4900   65.7635 C   0  0  0  0  0  0  0  0  0  0  0  0
  -50.9726   60.3132   64.7123 C   0  0  0  0  0  0  0  0  0  0  0  0
  -50.5708   59.9933   63.2854 C   0  0  0  0  0  0  0  0  0  0  0  0
  -51.0017   58.6057   62.8527 C   0  0  0  0  0  0  0  0  0  0  0  0
  -49.9942   57.9219   61.9430 C   0  0  0  0  0  0  0  0  0  0  0  0
  -49.6138   58.7329   60.7165 C   0  0  0  0  0  0  0  0  0  0  0  0
  -49.9058   58.0399   59.3946 C   0  0  0  0  0  0  0  0  0  0  0  0
  -48.6949   57.3557   58.7753 C   0  0  0  0  0  0  0  0  0  0  0  0
  -47.4452   58.2215   58.7754 C   0  0  0  0  0  0  0  0  0  0  0  0
  -46.9079   56.7685   56.7813 C   0  0  0  0  0  0  0  0  0  0  0  0
  -46.4560   57.8968   57.6709 C   0  0  0  0  0  0  0  0  0  0  0  0
 43 45  1  0  0  0
 43 42  1  0  0  0
 43 46  1  0  0  0
 64 65  1  0  0  0
 44 45  2  0  0  0
 65 63  1  0  0  0
  2  1  1  0  0  0
  2  4  1  0  0  0
  2  5  1  0  0  0
  3  4  2  0  0  0
 63 62  1  0  0  0
  6  8  1  0  0  0
  6 11  2  0  0  0
  7 10  1  0  0  0
  7 11  1  0  0  0
 62 61  1  0  0  0
 26 28  1  0  0  0
 26 32  1  0  0  0
 26 29  1  0  0  0
 12 18  1  0  0  0
 12 19  1  0  0  0
 61 60  1  0  0  0
 30 36  1  0  0  0
 30 37  1  0  0  0
 30 38  1  0  0  0
 20 21  2  0  0  0
 60 59  1  0  0  0
 22 21  1  0  0  0
 22 23  1  0  0  0
 59 58  1  0  0  0
 27 28  2  0  0  0
 58 57  1  0  0  0
 31 37  2  0  0  0
 57 56  1  0  0  0
 56 55  1  0  0  0
 55 54  1  0  0  0
 54 53  1  0  0  0
 53 52  1  0  0  0
 52 51  1  0  0  0
 51 50  1  0  0  0
 50 49  1  0  0  0
 49 47  1  0  0  0
 47 48  2  0  0  0
 48 45  1  0  0  0
 42 41  1  0  0  0
 41 40  1  0  0  0
 40 39  1  0  0  0
 39  1  1  0  0  0
  1 21  1  0  0  0
  8  4  1  0  0  0
  8  9  1  0  0  0
  8 10  1  0  0  0
 11 13  1  0  0  0
 13 14  2  0  0  0
 13 18  1  0  0  0
 14 15  1  0  0  0
 15 16  2  0  0  0
 16 17  1  0  0  0
 17 18  2  0  0  0
 23 24  1  0  0  0
 23 25  1  0  0  0
 25 28  1  0  0  0
 32 33  1  0  0  0
 32 37  1  0  0  0
 33 34  1  0  0  0
 34 35  1  0  0  0
 35 36  1  0  0  0
M  END
> <minimizedAffinity>
-9.31295

> <CNNscore>
0.2014321983

> <CNNaffinity>
7.0384850502

> <CNN_VS>
1.4177775383

> <CNNaffinity_variance>
1.0268874168

$$$$
/media/chris/experiments/cd1a-new-docking/inputs/ligands/7ryo_ligand.pdb


 65 67  0  0  0  0  0  0  0  0999 V2000
  -38.4469   60.2670   65.2343 C   0  0  0  0  0  0  0  0  0  0  0  0
  -37.5128   61.3693   65.3914 N   0  0  0  0  0  0  0  0  0  0  0  0
  -35.7155   60.0229   65.4969 O   0  0  0  0  0  0  0  0  0  0  0  0
  -36.2022   61.1438   65.5112 C   0  0  0  0  0  0  0  0  0  0  0  0
  -37.8505   62.2939   65.4096 H   0  0  0  0  0  0  0  0  0  0  0  0
  -34.0825   62.2189   64.8605 N   0  0  0  0  0  0  0  0  0  0  0  0
  -34.9004   64.2573   64.3520 O   0  0  0  0  0  0  0  0  0  0  0  0
  -35.2851   62.3639   65.6972 C   0  0  0  0  0  0  0  0  0  0  0  0
  -34.8648   62.4468   67.1616 C   0  0  0  0  0  0  0  0  0  0  0  0
  -35.9144   63.6782   65.2121 C   0  0  0  0  0  0  0  0  0  0  0  0
  -33.9696   63.2831   64.1793 C   0  0  0  0  0  0  0  0  0  0  0  0
  -34.5211   64.2724   61.5333 O   0  0  0  0  0  0  0  0  0  0  0  0
  -32.9128   63.5798   63.2093 C   0  0  0  0  0  0  0  0  0  0  0  0
  -31.5727   63.5252   63.5946 C   0  0  0  0  0  0  0  0  0  0  0  0
  -30.5838   64.0338   62.7703 C   0  0  0  0  0  0  0  0  0  0  0  0
  -30.9096   64.6010   61.5575 C   0  0  0  0  0  0  0  0  0  0  0  0
  -32.2306   64.6715   61.1542 C   0  0  0  0  0  0  0  0  0  0  0  0
  -33.2390   64.1677   61.9698 C   0  0  0  0  0  0  0  0  0  0  0  0
  -35.2233   63.9429   62.0590 H   0  0  0  0  0  0  0  0  0  0  0  0
  -38.9714   60.6061   62.8996 O   0  0  0  0  0  0  0  0  0  0  0  0
  -38.5935   59.8737   63.7720 C   0  0  0  0  0  0  0  0  0  0  0  0
  -38.2607   58.5833   63.5949 O   0  0  0  0  0  0  0  0  0  0  0  0
  -38.4348   58.0009   62.2606 C   0  0  0  0  0  0  0  0  0  0  0  0
  -39.7520   57.2674   62.2387 C   0  0  0  0  0  0  0  0  0  0  0  0
  -37.2532   57.0711   62.0645 C   0  0  0  0  0  0  0  0  0  0  0  0
  -34.9653   57.7617   62.4257 N   0  0  0  0  0  0  0  0  0  0  0  0
  -35.9707   58.3537   60.5021 O   0  0  0  0  0  0  0  0  0  0  0  0
  -36.0092   57.7900   61.5921 C   0  0  0  0  0  0  0  0  0  0  0  0
  -35.0540   57.2941   63.2875 H   0  0  0  0  0  0  0  0  0  0  0  0
  -31.7133   57.7723   60.8389 N   0  0  0  0  0  0  0  0  0  0  0  0
  -32.9794   56.1483   61.7280 O   0  0  0  0  0  0  0  0  0  0  0  0
  -33.7033   58.4011   62.0967 C   0  0  0  0  0  0  0  0  0  0  0  0
  -33.0839   59.0220   63.3539 C   0  0  0  0  0  0  0  0  0  0  0  0
  -32.0255   60.0785   63.0557 C   0  0  0  0  0  0  0  0  0  0  0  0
  -30.8099   59.5864   62.2954 C   0  0  0  0  0  0  0  0  0  0  0  0
  -31.1107   59.0998   60.8932 C   0  0  0  0  0  0  0  0  0  0  0  0
  -32.7659   57.3421   61.5382 C   0  0  0  0  0  0  0  0  0  0  0  0
  -31.3002   57.1257   60.2218 H   0  0  0  0  0  0  0  0  0  0  0  0
  -39.8070   60.5996   65.8495 C   0  0  0  0  0  0  0  0  0  0  0  0
  -40.9359   59.7729   65.2433 C   0  0  0  0  0  0  0  0  0  0  0  0
  -40.9324   58.3276   65.7057 C   0  0  0  0  0  0  0  0  0  0  0  0
  -42.1966   57.5588   65.3896 C   0  0  0  0  0  0  0  0  0  0  0  0
  -43.2556   57.8857   66.3312 N   0  0  0  0  0  0  0  0  0  0  0  0
  -44.9196   57.5141   64.8524 O   0  0  0  0  0  0  0  0  0  0  0  0
  -44.5485   57.8393   65.9922 C   0  0  0  0  0  0  0  0  0  0  0  0
  -43.0128   58.1497   67.2480 H   0  0  0  0  0  0  0  0  0  0  0  0
  -46.7756   58.4830   66.8859 C   0  0  0  0  0  0  0  0  0  0  0  0
  -45.4761   58.2814   67.0572 C   0  0  0  0  0  0  0  0  0  0  0  0
  -47.5746   58.2995   65.6334 C   0  0  0  0  0  0  0  0  0  0  0  0
  -48.8143   57.4469   65.8751 C   0  0  0  0  0  0  0  0  0  0  0  0
  -50.0913   58.2533   66.0363 C   0  0  0  0  0  0  0  0  0  0  0  0
  -49.8654   59.7560   66.0396 C   0  0  0  0  0  0  0  0  0  0  0  0
  -50.9835   60.5585   65.4013 C   0  0  0  0  0  0  0  0  0  0  0  0
  -51.1477   60.2912   63.9143 C   0  0  0  0  0  0  0  0  0  0  0  0
  -49.8321   60.2045   63.1657 C   0  0  0  0  0  0  0  0  0  0  0  0
  -49.6881   58.9276   62.3622 C   0  0  0  0  0  0  0  0  0  0  0  0
  -50.9073   58.0263   62.3955 C   0  0  0  0  0  0  0  0  0  0  0  0
  -51.0301   57.1614   61.1566 C   0  0  0  0  0  0  0  0  0  0  0  0
  -49.6977   56.9010   60.4731 C   0  0  0  0  0  0  0  0  0  0  0  0
  -49.4627   57.7406   59.2296 C   0  0  0  0  0  0  0  0  0  0  0  0
  -48.1258   58.4654   59.2092 C   0  0  0  0  0  0  0  0  0  0  0  0
  -46.9423   57.5687   58.8723 C   0  0  0  0  0  0  0  0  0  0  0  0
  -46.4130   57.7704   57.4615 C   0  0  0  0  0  0  0  0  0  0  0  0
  -47.3587   55.4791   56.9798 C   0  0  0  0  0  0  0  0  0  0  0  0
  -47.0126   56.8364   56.4262 C   0  0  0  0  0  0  0  0  0  0  0  0
 43 45  1  0  0  0
 43 42  1  0  0  0
 43 46  1  0  0  0
 64 65  1  0  0  0
 44 45  2  0  0  0
 65 63  1  0  0  0
  2  1  1  0  0  0
  2  4  1  0  0  0
  2  5  1  0  0  0
  3  4  2  0  0  0
 63 62  1  0  0  0
  6  8  1  0  0  0
  6 11  2  0  0  0
  7 10  1  0  0  0
  7 11  1  0  0  0
 62 61  1  0  0  0
 26 28  1  0  0  0
 26 32  1  0  0  0
 26 29  1  0  0  0
 12 18  1  0  0  0
 12 19  1  0  0  0
 61 60  1  0  0  0
 30 36  1  0  0  0
 30 37  1  0  0  0
 30 38  1  0  0  0
 20 21  2  0  0  0
 60 59  1  0  0  0
 22 21  1  0  0  0
 22 23  1  0  0  0
 59 58  1  0  0  0
 27 28  2  0  0  0
 58 57  1  0  0  0
 31 37  2  0  0  0
 57 56  1  0  0  0
 56 55  1  0  0  0
 55 54  1  0  0  0
 54 53  1  0  0  0
 53 52  1  0  0  0
 52 51  1  0  0  0
 51 50  1  0  0  0
 50 49  1  0  0  0
 49 47  1  0  0  0
 47 48  2  0  0  0
 48 45  1  0  0  0
 42 41  1  0  0  0
 41 40  1  0  0  0
 40 39  1  0  0  0
 39  1  1  0  0  0
  1 21  1  0  0  0
  8  4  1  0  0  0
  8  9  1  0  0  0
  8 10  1  0  0  0
 11 13  1  0  0  0
 13 14  2  0  0  0
 13 18  1  0  0  0
 14 15  1  0  0  0
 15 16  2  0  0  0
 16 17  1  0  0  0
 17 18  2  0  0  0
 23 24  1  0  0  0
 23 25  1  0  0  0
 25 28  1  0  0  0
 32 33  1  0  0  0
 32 37  1  0  0  0
 33 34  1  0  0  0
 34 35  1  0  0  0
 35 36  1  0  0  0
M  END
> <minimizedAffinity>
-10.60515

> <CNNscore>
0.1871331483

> <CNNaffinity>
6.9009270668

> <CNN_VS>
1.2913922071

> <CNNaffinity_variance>
1.1634318829

$$$$
/media/chris/experiments/cd1a-new-docking/inputs/ligands/7ryo_ligand.pdb


 65 67  0  0  0  0  0  0  0  0999 V2000
  -34.4611   59.9940   63.6038 C   0  0  0  0  0  0  0  0  0  0  0  0
  -35.7395   59.9406   62.9146 N   0  0  0  0  0  0  0  0  0  0  0  0
  -35.0005   58.5071   61.3483 O   0  0  0  0  0  0  0  0  0  0  0  0
  -35.8983   59.1855   61.8248 C   0  0  0  0  0  0  0  0  0  0  0  0
  -36.4979   60.4678   63.2554 H   0  0  0  0  0  0  0  0  0  0  0  0
  -38.0412   58.0061   61.5260 N   0  0  0  0  0  0  0  0  0  0  0  0
  -39.4214   59.7371   61.9517 O   0  0  0  0  0  0  0  0  0  0  0  0
  -37.2759   59.2038   61.1421 C   0  0  0  0  0  0  0  0  0  0  0  0
  -37.0773   59.2029   59.6294 C   0  0  0  0  0  0  0  0  0  0  0  0
  -38.1656   60.3700   61.5971 C   0  0  0  0  0  0  0  0  0  0  0  0
  -39.1704   58.4021   61.9473 C   0  0  0  0  0  0  0  0  0  0  0  0
  -41.4206   57.6666   60.3104 O   0  0  0  0  0  0  0  0  0  0  0  0
  -40.2581   57.5502   62.4341 C   0  0  0  0  0  0  0  0  0  0  0  0
  -40.1642   56.9410   63.6861 C   0  0  0  0  0  0  0  0  0  0  0  0
  -41.0585   55.9506   64.0539 C   0  0  0  0  0  0  0  0  0  0  0  0
  -42.0540   55.5528   63.1883 C   0  0  0  0  0  0  0  0  0  0  0  0
  -42.1660   56.1374   61.9399 C   0  0  0  0  0  0  0  0  0  0  0  0
  -41.2754   57.1331   61.5512 C   0  0  0  0  0  0  0  0  0  0  0  0
  -40.8370   58.3389   60.0182 H   0  0  0  0  0  0  0  0  0  0  0  0
  -34.8160   57.8027   64.5594 O   0  0  0  0  0  0  0  0  0  0  0  0
  -34.0563   58.6214   64.1203 C   0  0  0  0  0  0  0  0  0  0  0  0
  -32.7243   58.4597   64.0363 O   0  0  0  0  0  0  0  0  0  0  0  0
  -32.1017   58.5272   62.7106 C   0  0  0  0  0  0  0  0  0  0  0  0
  -31.7692   57.1215   62.2780 C   0  0  0  0  0  0  0  0  0  0  0  0
  -30.8637   59.3852   62.8851 C   0  0  0  0  0  0  0  0  0  0  0  0
  -31.3105   61.7561   63.0303 N   0  0  0  0  0  0  0  0  0  0  0  0
  -30.7913   60.8862   61.0215 O   0  0  0  0  0  0  0  0  0  0  0  0
  -30.9875   60.7402   62.2247 C   0  0  0  0  0  0  0  0  0  0  0  0
  -31.4563   61.5795   63.9878 H   0  0  0  0  0  0  0  0  0  0  0  0
  -30.5557   65.2929   63.1536 N   0  0  0  0  0  0  0  0  0  0  0  0
  -30.6814   63.6970   64.7246 O   0  0  0  0  0  0  0  0  0  0  0  0
  -31.4527   63.1137   62.5338 C   0  0  0  0  0  0  0  0  0  0  0  0
  -32.9343   63.4446   62.3219 C   0  0  0  0  0  0  0  0  0  0  0  0
  -33.1685   64.6369   61.4005 C   0  0  0  0  0  0  0  0  0  0  0  0
  -32.5998   65.9560   61.8846 C   0  0  0  0  0  0  0  0  0  0  0  0
  -31.0889   65.9812   61.9829 C   0  0  0  0  0  0  0  0  0  0  0  0
  -30.8629   64.0612   63.5665 C   0  0  0  0  0  0  0  0  0  0  0  0
  -29.9006   65.7889   63.6960 H   0  0  0  0  0  0  0  0  0  0  0  0
  -34.4840   61.0195   64.7382 C   0  0  0  0  0  0  0  0  0  0  0  0
  -35.5651   62.0771   64.5426 C   0  0  0  0  0  0  0  0  0  0  0  0
  -36.6640   62.0078   65.5867 C   0  0  0  0  0  0  0  0  0  0  0  0
  -37.3082   60.6472   65.7384 C   0  0  0  0  0  0  0  0  0  0  0  0
  -38.5914   60.5982   65.0557 N   0  0  0  0  0  0  0  0  0  0  0  0
  -39.7945   60.4851   66.9619 O   0  0  0  0  0  0  0  0  0  0  0  0
  -39.7488   60.5202   65.7213 C   0  0  0  0  0  0  0  0  0  0  0  0
  -38.6086   60.6232   64.0718 H   0  0  0  0  0  0  0  0  0  0  0  0
  -41.9584   59.5775   65.0873 C   0  0  0  0  0  0  0  0  0  0  0  0
  -40.9442   60.4002   64.8570 C   0  0  0  0  0  0  0  0  0  0  0  0
  -42.1306   58.6335   66.2362 C   0  0  0  0  0  0  0  0  0  0  0  0
  -43.5943   58.2686   66.4520 C   0  0  0  0  0  0  0  0  0  0  0  0
  -44.2308   57.5605   65.2685 C   0  0  0  0  0  0  0  0  0  0  0  0
  -45.6206   58.0728   64.9290 C   0  0  0  0  0  0  0  0  0  0  0  0
  -46.6787   57.7462   65.9660 C   0  0  0  0  0  0  0  0  0  0  0  0
  -47.6174   58.9050   66.2587 C   0  0  0  0  0  0  0  0  0  0  0  0
  -49.0685   58.6045   65.9383 C   0  0  0  0  0  0  0  0  0  0  0  0
  -49.2613   58.0040   64.5603 C   0  0  0  0  0  0  0  0  0  0  0  0
  -49.0200   58.9706   63.4169 C   0  0  0  0  0  0  0  0  0  0  0  0
  -50.3001   59.3769   62.7136 C   0  0  0  0  0  0  0  0  0  0  0  0
  -51.1344   58.1917   62.2558 C   0  0  0  0  0  0  0  0  0  0  0  0
  -50.5199   57.4042   61.1118 C   0  0  0  0  0  0  0  0  0  0  0  0
  -50.0772   58.2575   59.9334 C   0  0  0  0  0  0  0  0  0  0  0  0
  -48.5809   58.2008   59.6575 C   0  0  0  0  0  0  0  0  0  0  0  0
  -48.1488   56.9423   58.9221 C   0  0  0  0  0  0  0  0  0  0  0  0
  -46.3147   58.1636   57.6888 C   0  0  0  0  0  0  0  0  0  0  0  0
  -46.6967   56.9403   58.4802 C   0  0  0  0  0  0  0  0  0  0  0  0
 43 45  1  0  0  0
 43 42  1  0  0  0
 43 46  1  0  0  0
 64 65  1  0  0  0
 44 45  2  0  0  0
 65 63  1  0  0  0
  2  1  1  0  0  0
  2  4  1  0  0  0
  2  5  1  0  0  0
  3  4  2  0  0  0
 63 62  1  0  0  0
  6  8  1  0  0  0
  6 11  2  0  0  0
  7 10  1  0  0  0
  7 11  1  0  0  0
 62 61  1  0  0  0
 26 28  1  0  0  0
 26 32  1  0  0  0
 26 29  1  0  0  0
 12 18  1  0  0  0
 12 19  1  0  0  0
 61 60  1  0  0  0
 30 36  1  0  0  0
 30 37  1  0  0  0
 30 38  1  0  0  0
 20 21  2  0  0  0
 60 59  1  0  0  0
 22 21  1  0  0  0
 22 23  1  0  0  0
 59 58  1  0  0  0
 27 28  2  0  0  0
 58 57  1  0  0  0
 31 37  2  0  0  0
 57 56  1  0  0  0
 56 55  1  0  0  0
 55 54  1  0  0  0
 54 53  1  0  0  0
 53 52  1  0  0  0
 52 51  1  0  0  0
 51 50  1  0  0  0
 50 49  1  0  0  0
 49 47  1  0  0  0
 47 48  2  0  0  0
 48 45  1  0  0  0
 42 41  1  0  0  0
 41 40  1  0  0  0
 40 39  1  0  0  0
 39  1  1  0  0  0
  1 21  1  0  0  0
  8  4  1  0  0  0
  8  9  1  0  0  0
  8 10  1  0  0  0
 11 13  1  0  0  0
 13 14  2  0  0  0
 13 18  1  0  0  0
 14 15  1  0  0  0
 15 16  2  0  0  0
 16 17  1  0  0  0
 17 18  2  0  0  0
 23 24  1  0  0  0
 23 25  1  0  0  0
 25 28  1  0  0  0
 32 33  1  0  0  0
 32 37  1  0  0  0
 33 34  1  0  0  0
 34 35  1  0  0  0
 35 36  1  0  0  0
M  END
> <minimizedAffinity>
-9.15814

> <CNNscore>
0.1818169951

> <CNNaffinity>
7.4350724220

> <CNN_VS>
1.3518224955

> <CNNaffinity_variance>
1.3379653692

$$$$
