/media/chris/experiments/cd1a-new-docking/inputs/ligands/7ryo_ligand.pdb


 65 67  0  0  0  0  0  0  0  0999 V2000
  -36.3421   58.7089   61.5825 C   0  0  0  0  0  0  0  0  0  0  0  0
  -34.8898   58.6970   61.5280 N   0  0  0  0  0  0  0  0  0  0  0  0
  -34.7074   56.9194   62.8920 O   0  0  0  0  0  0  0  0  0  0  0  0
  -34.1871   57.7836   62.2022 C   0  0  0  0  0  0  0  0  0  0  0  0
  -34.4182   59.3710   60.9871 H   0  0  0  0  0  0  0  0  0  0  0  0
  -32.2501   59.1124   61.4577 N   0  0  0  0  0  0  0  0  0  0  0  0
  -31.0597   59.0427   63.3712 O   0  0  0  0  0  0  0  0  0  0  0  0
  -32.6540   57.8556   62.1095 C   0  0  0  0  0  0  0  0  0  0  0  0
  -32.1541   56.6801   61.2751 C   0  0  0  0  0  0  0  0  0  0  0  0
  -31.9630   57.9134   63.4799 C   0  0  0  0  0  0  0  0  0  0  0  0
  -31.3985   59.6702   62.2149 C   0  0  0  0  0  0  0  0  0  0  0  0
  -29.7956   60.1450   59.8721 O   0  0  0  0  0  0  0  0  0  0  0  0
  -30.7232   60.9454   61.9635 C   0  0  0  0  0  0  0  0  0  0  0  0
  -30.9565   62.0385   62.7990 C   0  0  0  0  0  0  0  0  0  0  0  0
  -30.5235   63.3030   62.4386 C   0  0  0  0  0  0  0  0  0  0  0  0
  -29.8558   63.4992   61.2494 C   0  0  0  0  0  0  0  0  0  0  0  0
  -29.6159   62.4334   60.4013 C   0  0  0  0  0  0  0  0  0  0  0  0
  -30.0452   61.1554   60.7451 C   0  0  0  0  0  0  0  0  0  0  0  0
  -30.0717   59.2726   60.0739 H   0  0  0  0  0  0  0  0  0  0  0  0
  -37.3058   60.9066   61.8693 O   0  0  0  0  0  0  0  0  0  0  0  0
  -36.8541   59.9103   62.3629 C   0  0  0  0  0  0  0  0  0  0  0  0
  -36.7111   59.7100   63.6846 O   0  0  0  0  0  0  0  0  0  0  0  0
  -35.6865   60.4823   64.3941 C   0  0  0  0  0  0  0  0  0  0  0  0
  -34.8607   59.5226   65.2130 C   0  0  0  0  0  0  0  0  0  0  0  0
  -36.4463   61.4711   65.2569 C   0  0  0  0  0  0  0  0  0  0  0  0
  -34.8280   63.0443   64.3920 N   0  0  0  0  0  0  0  0  0  0  0  0
  -36.2279   63.7318   66.0135 O   0  0  0  0  0  0  0  0  0  0  0  0
  -35.8250   62.8501   65.2601 C   0  0  0  0  0  0  0  0  0  0  0  0
  -34.5469   62.2999   63.8122 H   0  0  0  0  0  0  0  0  0  0  0  0
  -33.6544   65.8738   62.4657 N   0  0  0  0  0  0  0  0  0  0  0  0
  -33.9764   63.7101   61.9701 O   0  0  0  0  0  0  0  0  0  0  0  0
  -34.1472   64.3223   64.2789 C   0  0  0  0  0  0  0  0  0  0  0  0
  -32.7988   64.2670   65.0059 C   0  0  0  0  0  0  0  0  0  0  0  0
  -32.2253   65.6409   65.3353 C   0  0  0  0  0  0  0  0  0  0  0  0
  -31.9225   66.5240   64.1409 C   0  0  0  0  0  0  0  0  0  0  0  0
  -33.1438   66.9243   63.3401 C   0  0  0  0  0  0  0  0  0  0  0  0
  -33.9180   64.6095   62.8035 C   0  0  0  0  0  0  0  0  0  0  0  0
  -33.8221   66.1236   61.5283 H   0  0  0  0  0  0  0  0  0  0  0  0
  -36.8866   57.4050   62.1675 C   0  0  0  0  0  0  0  0  0  0  0  0
  -38.3693   57.2098   61.8695 C   0  0  0  0  0  0  0  0  0  0  0  0
  -39.2444   57.3053   63.1055 C   0  0  0  0  0  0  0  0  0  0  0  0
  -40.6904   57.6568   62.8316 C   0  0  0  0  0  0  0  0  0  0  0  0
  -41.5454   57.2454   63.9338 N   0  0  0  0  0  0  0  0  0  0  0  0
  -42.1427   59.3518   64.4818 O   0  0  0  0  0  0  0  0  0  0  0  0
  -42.2137   58.1284   64.6837 C   0  0  0  0  0  0  0  0  0  0  0  0
  -41.6351   56.2857   64.1344 H   0  0  0  0  0  0  0  0  0  0  0  0
  -44.2900   57.4286   65.8554 C   0  0  0  0  0  0  0  0  0  0  0  0
  -42.9686   57.5293   65.8069 C   0  0  0  0  0  0  0  0  0  0  0  0
  -45.2810   57.8621   64.8207 C   0  0  0  0  0  0  0  0  0  0  0  0
  -46.5043   58.5170   65.4505 C   0  0  0  0  0  0  0  0  0  0  0  0
  -47.7965   58.2561   64.6961 C   0  0  0  0  0  0  0  0  0  0  0  0
  -48.9327   57.7765   65.5838 C   0  0  0  0  0  0  0  0  0  0  0  0
  -50.0838   58.7566   65.7114 C   0  0  0  0  0  0  0  0  0  0  0  0
  -49.7799   60.1265   65.1279 C   0  0  0  0  0  0  0  0  0  0  0  0
  -50.9841   60.7958   64.4950 C   0  0  0  0  0  0  0  0  0  0  0  0
  -51.6673   59.9305   63.4552 C   0  0  0  0  0  0  0  0  0  0  0  0
  -50.7389   59.3843   62.3876 C   0  0  0  0  0  0  0  0  0  0  0  0
  -50.9469   57.9047   62.1318 C   0  0  0  0  0  0  0  0  0  0  0  0
  -50.0461   57.3531   61.0388 C   0  0  0  0  0  0  0  0  0  0  0  0
  -48.8058   58.1892   60.7750 C   0  0  0  0  0  0  0  0  0  0  0  0
  -47.8146   57.5495   59.8151 C   0  0  0  0  0  0  0  0  0  0  0  0
  -47.4448   58.4320   58.6307 C   0  0  0  0  0  0  0  0  0  0  0  0
  -46.3477   57.8442   57.7578 C   0  0  0  0  0  0  0  0  0  0  0  0
  -48.1777   56.8384   56.3380 C   0  0  0  0  0  0  0  0  0  0  0  0
  -46.7888   56.6742   56.8974 C   0  0  0  0  0  0  0  0  0  0  0  0
 43 45  1  0  0  0
 43 42  1  0  0  0
 43 46  1  0  0  0
 64 65  1  0  0  0
 44 45  2  0  0  0
 65 63  1  0  0  0
  2  1  1  0  0  0
  2  4  1  0  0  0
  2  5  1  0  0  0
  3  4  2  0  0  0
 63 62  1  0  0  0
  6  8  1  0  0  0
  6 11  2  0  0  0
  7 10  1  0  0  0
  7 11  1  0  0  0
 62 61  1  0  0  0
 26 28  1  0  0  0
 26 32  1  0  0  0
 26 29  1  0  0  0
 12 18  1  0  0  0
 12 19  1  0  0  0
 61 60  1  0  0  0
 30 36  1  0  0  0
 30 37  1  0  0  0
 30 38  1  0  0  0
 20 21  2  0  0  0
 60 59  1  0  0  0
 22 21  1  0  0  0
 22 23  1  0  0  0
 59 58  1  0  0  0
 27 28  2  0  0  0
 58 57  1  0  0  0
 31 37  2  0  0  0
 57 56  1  0  0  0
 56 55  1  0  0  0
 55 54  1  0  0  0
 54 53  1  0  0  0
 53 52  1  0  0  0
 52 51  1  0  0  0
 51 50  1  0  0  0
 50 49  1  0  0  0
 49 47  1  0  0  0
 47 48  2  0  0  0
 48 45  1  0  0  0
 42 41  1  0  0  0
 41 40  1  0  0  0
 40 39  1  0  0  0
 39  1  1  0  0  0
  1 21  1  0  0  0
  8  4  1  0  0  0
  8  9  1  0  0  0
  8 10  1  0  0  0
 11 13  1  0  0  0
 13 14  2  0  0  0
 13 18  1  0  0  0
 14 15  1  0  0  0
 15 16  2  0  0  0
 16 17  1  0  0  0
 17 18  2  0  0  0
 23 24  1  0  0  0
 23 25  1  0  0  0
 25 28  1  0  0  0
 32 33  1  0  0  0
 32 37  1  0  0  0
 33 34  1  0  0  0
 34 35  1  0  0  0
 35 36  1  0  0  0
M  END
> <minimizedAffinity>
-10.55601

> <CNNscore>
0.3457301259

> <CNNaffinity>
7.0912322998

> <CNN_VS>
2.4516525269

> <CNNaffinity_variance>
0.6813570261

$$$$
/media/chris/experiments/cd1a-new-docking/inputs/ligands/7ryo_ligand.pdb


 65 67  0  0  0  0  0  0  0  0999 V2000
  -34.0132   58.0050   62.9243 C   0  0  0  0  0  0  0  0  0  0  0  0
  -34.6431   59.2104   63.4369 N   0  0  0  0  0  0  0  0  0  0  0  0
  -35.6903   58.1288   65.1063 O   0  0  0  0  0  0  0  0  0  0  0  0
  -35.4426   59.1635   64.5052 C   0  0  0  0  0  0  0  0  0  0  0  0
  -34.4781   60.0724   62.9907 H   0  0  0  0  0  0  0  0  0  0  0  0
  -35.0989   61.2940   65.6947 N   0  0  0  0  0  0  0  0  0  0  0  0
  -35.9500   62.6754   64.1293 O   0  0  0  0  0  0  0  0  0  0  0  0
  -36.0877   60.4800   64.9685 C   0  0  0  0  0  0  0  0  0  0  0  0
  -37.2495   60.1582   65.9037 C   0  0  0  0  0  0  0  0  0  0  0  0
  -36.5272   61.3845   63.8076 C   0  0  0  0  0  0  0  0  0  0  0  0
  -35.1022   62.4472   65.1660 C   0  0  0  0  0  0  0  0  0  0  0  0
  -34.2318   62.8508   67.8795 O   0  0  0  0  0  0  0  0  0  0  0  0
  -34.2730   63.5852   65.5700 C   0  0  0  0  0  0  0  0  0  0  0  0
  -33.7513   64.4491   64.6062 C   0  0  0  0  0  0  0  0  0  0  0  0
  -32.7779   65.3733   64.9447 C   0  0  0  0  0  0  0  0  0  0  0  0
  -32.3111   65.4527   66.2387 C   0  0  0  0  0  0  0  0  0  0  0  0
  -32.8084   64.6050   67.2117 C   0  0  0  0  0  0  0  0  0  0  0  0
  -33.7855   63.6680   66.8904 C   0  0  0  0  0  0  0  0  0  0  0  0
  -34.8894   62.2090   67.6959 H   0  0  0  0  0  0  0  0  0  0  0  0
  -31.7372   57.9636   63.7359 O   0  0  0  0  0  0  0  0  0  0  0  0
  -32.5032   58.1680   62.8349 C   0  0  0  0  0  0  0  0  0  0  0  0
  -32.1464   58.5939   61.6107 O   0  0  0  0  0  0  0  0  0  0  0  0
  -30.8487   58.1646   61.0802 C   0  0  0  0  0  0  0  0  0  0  0  0
  -30.6523   56.7140   61.4418 C   0  0  0  0  0  0  0  0  0  0  0  0
  -29.8217   59.0669   61.7364 C   0  0  0  0  0  0  0  0  0  0  0  0
  -30.3901   61.3679   62.2100 N   0  0  0  0  0  0  0  0  0  0  0  0
  -29.6157   60.8571   60.1604 O   0  0  0  0  0  0  0  0  0  0  0  0
  -29.9349   60.5086   61.2936 C   0  0  0  0  0  0  0  0  0  0  0  0
  -30.6310   61.0312   63.1032 H   0  0  0  0  0  0  0  0  0  0  0  0
  -29.6596   64.8488   62.8763 N   0  0  0  0  0  0  0  0  0  0  0  0
  -29.7810   63.0308   64.1843 O   0  0  0  0  0  0  0  0  0  0  0  0
  -30.5394   62.7845   61.9262 C   0  0  0  0  0  0  0  0  0  0  0  0
  -32.0223   63.1350   61.7598 C   0  0  0  0  0  0  0  0  0  0  0  0
  -32.2608   64.4525   61.0302 C   0  0  0  0  0  0  0  0  0  0  0  0
  -31.7030   65.6856   61.7131 C   0  0  0  0  0  0  0  0  0  0  0  0
  -30.1927   65.7047   61.8217 C   0  0  0  0  0  0  0  0  0  0  0  0
  -29.9602   63.5665   63.0945 C   0  0  0  0  0  0  0  0  0  0  0  0
  -29.0102   65.2600   63.4914 H   0  0  0  0  0  0  0  0  0  0  0  0
  -34.6005   57.6043   61.5702 C   0  0  0  0  0  0  0  0  0  0  0  0
  -35.9640   58.2390   61.3184 C   0  0  0  0  0  0  0  0  0  0  0  0
  -37.1187   57.3929   61.8218 C   0  0  0  0  0  0  0  0  0  0  0  0
  -38.4862   58.0130   61.6354 C   0  0  0  0  0  0  0  0  0  0  0  0
  -39.1083   58.3004   62.9181 N   0  0  0  0  0  0  0  0  0  0  0  0
  -40.4329   56.4734   62.8785 O   0  0  0  0  0  0  0  0  0  0  0  0
  -40.0425   57.5046   63.4500 C   0  0  0  0  0  0  0  0  0  0  0  0
  -38.8328   59.1069   63.4109 H   0  0  0  0  0  0  0  0  0  0  0  0
  -41.9143   58.0905   64.9752 C   0  0  0  0  0  0  0  0  0  0  0  0
  -40.6159   58.0000   64.7213 C   0  0  0  0  0  0  0  0  0  0  0  0
  -43.0522   57.7107   64.0799 C   0  0  0  0  0  0  0  0  0  0  0  0
  -44.3967   58.1089   64.6764 C   0  0  0  0  0  0  0  0  0  0  0  0
  -44.9767   57.0752   65.6261 C   0  0  0  0  0  0  0  0  0  0  0  0
  -46.4532   57.2808   65.9207 C   0  0  0  0  0  0  0  0  0  0  0  0
  -46.7867   58.6252   66.5398 C   0  0  0  0  0  0  0  0  0  0  0  0
  -48.0517   59.2529   65.9783 C   0  0  0  0  0  0  0  0  0  0  0  0
  -49.2376   58.3086   65.9553 C   0  0  0  0  0  0  0  0  0  0  0  0
  -50.5633   59.0136   66.1612 C   0  0  0  0  0  0  0  0  0  0  0  0
  -50.9222   60.0029   65.0692 C   0  0  0  0  0  0  0  0  0  0  0  0
  -50.2897   59.6579   63.7355 C   0  0  0  0  0  0  0  0  0  0  0  0
  -51.3029   59.2432   62.6812 C   0  0  0  0  0  0  0  0  0  0  0  0
  -50.9998   57.9109   62.0180 C   0  0  0  0  0  0  0  0  0  0  0  0
  -49.7045   57.8908   61.2212 C   0  0  0  0  0  0  0  0  0  0  0  0
  -49.8959   58.1061   59.7261 C   0  0  0  0  0  0  0  0  0  0  0  0
  -48.8440   57.4125   58.8756 C   0  0  0  0  0  0  0  0  0  0  0  0
  -46.7433   57.8782   57.5539 C   0  0  0  0  0  0  0  0  0  0  0  0
  -47.5037   58.1236   58.8308 C   0  0  0  0  0  0  0  0  0  0  0  0
 43 45  1  0  0  0
 43 42  1  0  0  0
 43 46  1  0  0  0
 64 65  1  0  0  0
 44 45  2  0  0  0
 65 63  1  0  0  0
  2  1  1  0  0  0
  2  4  1  0  0  0
  2  5  1  0  0  0
  3  4  2  0  0  0
 63 62  1  0  0  0
  6  8  1  0  0  0
  6 11  2  0  0  0
  7 10  1  0  0  0
  7 11  1  0  0  0
 62 61  1  0  0  0
 26 28  1  0  0  0
 26 32  1  0  0  0
 26 29  1  0  0  0
 12 18  1  0  0  0
 12 19  1  0  0  0
 61 60  1  0  0  0
 30 36  1  0  0  0
 30 37  1  0  0  0
 30 38  1  0  0  0
 20 21  2  0  0  0
 60 59  1  0  0  0
 22 21  1  0  0  0
 22 23  1  0  0  0
 59 58  1  0  0  0
 27 28  2  0  0  0
 58 57  1  0  0  0
 31 37  2  0  0  0
 57 56  1  0  0  0
 56 55  1  0  0  0
 55 54  1  0  0  0
 54 53  1  0  0  0
 53 52  1  0  0  0
 52 51  1  0  0  0
 51 50  1  0  0  0
 50 49  1  0  0  0
 49 47  1  0  0  0
 47 48  2  0  0  0
 48 45  1  0  0  0
 42 41  1  0  0  0
 41 40  1  0  0  0
 40 39  1  0  0  0
 39  1  1  0  0  0
  1 21  1  0  0  0
  8  4  1  0  0  0
  8  9  1  0  0  0
  8 10  1  0  0  0
 11 13  1  0  0  0
 13 14  2  0  0  0
 13 18  1  0  0  0
 14 15  1  0  0  0
 15 16  2  0  0  0
 16 17  1  0  0  0
 17 18  2  0  0  0
 23 24  1  0  0  0
 23 25  1  0  0  0
 25 28  1  0  0  0
 32 33  1  0  0  0
 32 37  1  0  0  0
 33 34  1  0  0  0
 34 35  1  0  0  0
 35 36  1  0  0  0
M  END
> <minimizedAffinity>
-10.16099

> <CNNscore>
0.3275161088

> <CNNaffinity>
7.0724205971

> <CNN_VS>
2.3163316250

> <CNNaffinity_variance>
0.9360328913

$$$$
/media/chris/experiments/cd1a-new-docking/inputs/ligands/7ryo_ligand.pdb


 65 67  0  0  0  0  0  0  0  0999 V2000
  -37.1564   60.3433   64.1296 C   0  0  0  0  0  0  0  0  0  0  0  0
  -36.4366   61.5878   64.3432 N   0  0  0  0  0  0  0  0  0  0  0  0
  -34.6510   60.5689   65.2527 O   0  0  0  0  0  0  0  0  0  0  0  0
  -35.2220   61.5893   64.8977 C   0  0  0  0  0  0  0  0  0  0  0  0
  -36.8499   62.4404   64.0757 H   0  0  0  0  0  0  0  0  0  0  0  0
  -33.2655   62.9924   64.3727 N   0  0  0  0  0  0  0  0  0  0  0  0
  -34.3678   64.8517   63.7319 O   0  0  0  0  0  0  0  0  0  0  0  0
  -34.5392   62.9506   65.1099 C   0  0  0  0  0  0  0  0  0  0  0  0
  -34.2584   63.1354   66.5981 C   0  0  0  0  0  0  0  0  0  0  0  0
  -35.3373   64.1288   64.5322 C   0  0  0  0  0  0  0  0  0  0  0  0
  -33.2767   64.0452   63.6650 C   0  0  0  0  0  0  0  0  0  0  0  0
  -31.6045   62.2175   62.1998 O   0  0  0  0  0  0  0  0  0  0  0  0
  -32.2093   64.4948   62.7682 C   0  0  0  0  0  0  0  0  0  0  0  0
  -32.0601   65.8525   62.4820 C   0  0  0  0  0  0  0  0  0  0  0  0
  -31.2243   66.2668   61.4592 C   0  0  0  0  0  0  0  0  0  0  0  0
  -30.5280   65.3436   60.7099 C   0  0  0  0  0  0  0  0  0  0  0  0
  -30.6618   63.9920   60.9702 C   0  0  0  0  0  0  0  0  0  0  0  0
  -31.4986   63.5558   61.9926 C   0  0  0  0  0  0  0  0  0  0  0  0
  -32.1598   61.8913   62.8805 H   0  0  0  0  0  0  0  0  0  0  0  0
  -38.8877   60.5624   62.4577 O   0  0  0  0  0  0  0  0  0  0  0  0
  -37.7526   60.2850   62.7311 C   0  0  0  0  0  0  0  0  0  0  0  0
  -36.8359   59.8584   61.8450 O   0  0  0  0  0  0  0  0  0  0  0  0
  -37.1150   58.6269   61.0999 C   0  0  0  0  0  0  0  0  0  0  0  0
  -38.5190   58.7165   60.5573 C   0  0  0  0  0  0  0  0  0  0  0  0
  -36.9544   57.4996   62.1014 C   0  0  0  0  0  0  0  0  0  0  0  0
  -34.5513   57.5465   61.8464 N   0  0  0  0  0  0  0  0  0  0  0  0
  -35.4035   57.3123   63.9154 O   0  0  0  0  0  0  0  0  0  0  0  0
  -35.5691   57.4407   62.7056 C   0  0  0  0  0  0  0  0  0  0  0  0
  -34.7445   57.6476   60.8864 H   0  0  0  0  0  0  0  0  0  0  0  0
  -31.6629   59.0842   63.3913 N   0  0  0  0  0  0  0  0  0  0  0  0
  -33.3846   59.9007   62.2080 O   0  0  0  0  0  0  0  0  0  0  0  0
  -33.1681   57.5171   62.2884 C   0  0  0  0  0  0  0  0  0  0  0  0
  -32.2705   56.9677   61.1738 C   0  0  0  0  0  0  0  0  0  0  0  0
  -30.9140   56.4767   61.6676 C   0  0  0  0  0  0  0  0  0  0  0  0
  -30.0351   57.5301   62.3125 C   0  0  0  0  0  0  0  0  0  0  0  0
  -30.5981   58.1076   63.5942 C   0  0  0  0  0  0  0  0  0  0  0  0
  -32.7470   58.9386   62.6260 C   0  0  0  0  0  0  0  0  0  0  0  0
  -31.5724   59.9404   63.8688 H   0  0  0  0  0  0  0  0  0  0  0  0
  -38.2362   60.1368   65.1928 C   0  0  0  0  0  0  0  0  0  0  0  0
  -38.5151   58.6612   65.4576 C   0  0  0  0  0  0  0  0  0  0  0  0
  -39.8881   58.2190   64.9864 C   0  0  0  0  0  0  0  0  0  0  0  0
  -41.0181   59.1510   65.3659 C   0  0  0  0  0  0  0  0  0  0  0  0
  -42.3012   58.6173   64.9373 N   0  0  0  0  0  0  0  0  0  0  0  0
  -42.6455   57.4525   66.8395 O   0  0  0  0  0  0  0  0  0  0  0  0
  -43.0264   57.8015   65.7101 C   0  0  0  0  0  0  0  0  0  0  0  0
  -42.6471   58.8646   64.0494 H   0  0  0  0  0  0  0  0  0  0  0  0
  -45.4765   57.4027   65.6022 C   0  0  0  0  0  0  0  0  0  0  0  0
  -44.2644   57.2977   65.0746 C   0  0  0  0  0  0  0  0  0  0  0  0
  -45.8593   58.0450   66.8990 C   0  0  0  0  0  0  0  0  0  0  0  0
  -47.1647   58.8220   66.7799 C   0  0  0  0  0  0  0  0  0  0  0  0
  -48.0428   58.3728   65.6249 C   0  0  0  0  0  0  0  0  0  0  0  0
  -49.3874   57.8171   66.0635 C   0  0  0  0  0  0  0  0  0  0  0  0
  -50.4959   58.8500   66.1424 C   0  0  0  0  0  0  0  0  0  0  0  0
  -50.2513   60.0684   65.2678 C   0  0  0  0  0  0  0  0  0  0  0  0
  -51.4455   60.4519   64.4160 C   0  0  0  0  0  0  0  0  0  0  0  0
  -51.3276   59.9813   62.9802 C   0  0  0  0  0  0  0  0  0  0  0  0
  -51.1590   58.4821   62.8249 C   0  0  0  0  0  0  0  0  0  0  0  0
  -49.9543   58.1125   61.9822 C   0  0  0  0  0  0  0  0  0  0  0  0
  -50.3182   57.3521   60.7175 C   0  0  0  0  0  0  0  0  0  0  0  0
  -49.1215   56.8569   59.9241 C   0  0  0  0  0  0  0  0  0  0  0  0
  -48.1351   57.9476   59.5364 C   0  0  0  0  0  0  0  0  0  0  0  0
  -46.8340   57.4219   58.9457 C   0  0  0  0  0  0  0  0  0  0  0  0
  -46.6012   57.8608   57.5089 C   0  0  0  0  0  0  0  0  0  0  0  0
  -47.2991   55.5471   56.7769 C   0  0  0  0  0  0  0  0  0  0  0  0
  -47.3238   57.0217   56.4708 C   0  0  0  0  0  0  0  0  0  0  0  0
 43 45  1  0  0  0
 43 42  1  0  0  0
 43 46  1  0  0  0
 64 65  1  0  0  0
 44 45  2  0  0  0
 65 63  1  0  0  0
  2  1  1  0  0  0
  2  4  1  0  0  0
  2  5  1  0  0  0
  3  4  2  0  0  0
 63 62  1  0  0  0
  6  8  1  0  0  0
  6 11  2  0  0  0
  7 10  1  0  0  0
  7 11  1  0  0  0
 62 61  1  0  0  0
 26 28  1  0  0  0
 26 32  1  0  0  0
 26 29  1  0  0  0
 12 18  1  0  0  0
 12 19  1  0  0  0
 61 60  1  0  0  0
 30 36  1  0  0  0
 30 37  1  0  0  0
 30 38  1  0  0  0
 20 21  2  0  0  0
 60 59  1  0  0  0
 22 21  1  0  0  0
 22 23  1  0  0  0
 59 58  1  0  0  0
 27 28  2  0  0  0
 58 57  1  0  0  0
 31 37  2  0  0  0
 57 56  1  0  0  0
 56 55  1  0  0  0
 55 54  1  0  0  0
 54 53  1  0  0  0
 53 52  1  0  0  0
 52 51  1  0  0  0
 51 50  1  0  0  0
 50 49  1  0  0  0
 49 47  1  0  0  0
 47 48  2  0  0  0
 48 45  1  0  0  0
 42 41  1  0  0  0
 41 40  1  0  0  0
 40 39  1  0  0  0
 39  1  1  0  0  0
  1 21  1  0  0  0
  8  4  1  0  0  0
  8  9  1  0  0  0
  8 10  1  0  0  0
 11 13  1  0  0  0
 13 14  2  0  0  0
 13 18  1  0  0  0
 14 15  1  0  0  0
 15 16  2  0  0  0
 16 17  1  0  0  0
 17 18  2  0  0  0
 23 24  1  0  0  0
 23 25  1  0  0  0
 25 28  1  0  0  0
 32 33  1  0  0  0
 32 37  1  0  0  0
 33 34  1  0  0  0
 34 35  1  0  0  0
 35 36  1  0  0  0
M  END
> <minimizedAffinity>
-10.92952

> <CNNscore>
0.2433867306

> <CNNaffinity>
7.0465865135

> <CNN_VS>
1.7150456905

> <CNNaffinity_variance>
0.7133923769

$$$$
/media/chris/experiments/cd1a-new-docking/inputs/ligands/7ryo_ligand.pdb


 65 67  0  0  0  0  0  0  0  0999 V2000
  -37.9243   58.4151   62.2466 C   0  0  0  0  0  0  0  0  0  0  0  0
  -36.5429   58.3353   62.6915 N   0  0  0  0  0  0  0  0  0  0  0  0
  -35.7277   58.1578   60.6040 O   0  0  0  0  0  0  0  0  0  0  0  0
  -35.5466   58.2110   61.8113 C   0  0  0  0  0  0  0  0  0  0  0  0
  -36.3393   58.3732   63.6539 H   0  0  0  0  0  0  0  0  0  0  0  0
  -33.2322   59.0406   61.6458 N   0  0  0  0  0  0  0  0  0  0  0  0
  -32.8987   59.4962   63.8286 O   0  0  0  0  0  0  0  0  0  0  0  0
  -34.1163   58.1097   62.3664 C   0  0  0  0  0  0  0  0  0  0  0  0
  -33.6083   56.6852   62.1648 C   0  0  0  0  0  0  0  0  0  0  0  0
  -33.9993   58.5519   63.8326 C   0  0  0  0  0  0  0  0  0  0  0  0
  -32.6300   59.7368   62.5188 C   0  0  0  0  0  0  0  0  0  0  0  0
  -30.5617   59.4769   60.5343 O   0  0  0  0  0  0  0  0  0  0  0  0
  -31.6487   60.7921   62.2558 C   0  0  0  0  0  0  0  0  0  0  0  0
  -31.7763   62.0371   62.8732 C   0  0  0  0  0  0  0  0  0  0  0  0
  -31.0095   63.1107   62.4539 C   0  0  0  0  0  0  0  0  0  0  0  0
  -30.1095   62.9641   61.4209 C   0  0  0  0  0  0  0  0  0  0  0  0
  -29.9672   61.7421   60.7894 C   0  0  0  0  0  0  0  0  0  0  0  0
  -30.7304   60.6517   61.1951 C   0  0  0  0  0  0  0  0  0  0  0  0
  -31.0606   58.7237   60.7830 H   0  0  0  0  0  0  0  0  0  0  0  0
  -38.7474   60.4639   61.2640 O   0  0  0  0  0  0  0  0  0  0  0  0
  -38.4198   59.8535   62.2440 C   0  0  0  0  0  0  0  0  0  0  0  0
  -38.4200   60.3546   63.4915 O   0  0  0  0  0  0  0  0  0  0  0  0
  -39.4612   59.9010   64.4188 C   0  0  0  0  0  0  0  0  0  0  0  0
  -40.7055   60.7117   64.1578 C   0  0  0  0  0  0  0  0  0  0  0  0
  -38.9002   60.1361   65.8078 C   0  0  0  0  0  0  0  0  0  0  0  0
  -37.2235   61.8675   65.9895 N   0  0  0  0  0  0  0  0  0  0  0  0
  -36.5444   59.7548   65.6195 O   0  0  0  0  0  0  0  0  0  0  0  0
  -37.4500   60.5654   65.7932 C   0  0  0  0  0  0  0  0  0  0  0  0
  -37.9895   62.4713   66.1234 H   0  0  0  0  0  0  0  0  0  0  0  0
  -34.3282   63.1452   67.7441 N   0  0  0  0  0  0  0  0  0  0  0  0
  -36.5263   63.1745   68.1895 O   0  0  0  0  0  0  0  0  0  0  0  0
  -35.8795   62.4176   66.0115 C   0  0  0  0  0  0  0  0  0  0  0  0
  -35.7623   63.5626   64.9991 C   0  0  0  0  0  0  0  0  0  0  0  0
  -34.3241   63.8978   64.6193 C   0  0  0  0  0  0  0  0  0  0  0  0
  -33.4427   64.3706   65.7584 C   0  0  0  0  0  0  0  0  0  0  0  0
  -33.2046   63.3292   66.8317 C   0  0  0  0  0  0  0  0  0  0  0  0
  -35.6054   62.9461   67.4106 C   0  0  0  0  0  0  0  0  0  0  0  0
  -34.1229   63.1706   68.7066 H   0  0  0  0  0  0  0  0  0  0  0  0
  -38.8335   57.5256   63.0959 C   0  0  0  0  0  0  0  0  0  0  0  0
  -39.8212   56.7296   62.2497 C   0  0  0  0  0  0  0  0  0  0  0  0
  -41.0949   57.4944   61.9408 C   0  0  0  0  0  0  0  0  0  0  0  0
  -42.3494   56.9068   62.5495 C   0  0  0  0  0  0  0  0  0  0  0  0
  -42.6834   57.5708   63.7995 N   0  0  0  0  0  0  0  0  0  0  0  0
  -42.2964   55.7462   65.0705 O   0  0  0  0  0  0  0  0  0  0  0  0
  -42.6324   56.9382   64.9769 C   0  0  0  0  0  0  0  0  0  0  0  0
  -42.9560   58.5166   63.7784 H   0  0  0  0  0  0  0  0  0  0  0  0
  -44.3521   57.9889   66.4301 C   0  0  0  0  0  0  0  0  0  0  0  0
  -43.0828   57.7519   66.1281 C   0  0  0  0  0  0  0  0  0  0  0  0
  -45.5719   57.4935   65.7178 C   0  0  0  0  0  0  0  0  0  0  0  0
  -46.4145   58.6419   65.1764 C   0  0  0  0  0  0  0  0  0  0  0  0
  -47.7560   58.2060   64.6132 C   0  0  0  0  0  0  0  0  0  0  0  0
  -48.5957   57.4044   65.5938 C   0  0  0  0  0  0  0  0  0  0  0  0
  -49.8902   58.0791   66.0070 C   0  0  0  0  0  0  0  0  0  0  0  0
  -49.8027   59.5962   66.0260 C   0  0  0  0  0  0  0  0  0  0  0  0
  -50.9337   60.2773   65.2806 C   0  0  0  0  0  0  0  0  0  0  0  0
  -50.6678   60.4169   63.7951 C   0  0  0  0  0  0  0  0  0  0  0  0
  -51.2531   59.3039   62.9474 C   0  0  0  0  0  0  0  0  0  0  0  0
  -50.2978   58.8212   61.8739 C   0  0  0  0  0  0  0  0  0  0  0  0
  -50.5684   57.3933   61.4290 C   0  0  0  0  0  0  0  0  0  0  0  0
  -49.7025   56.9286   60.2709 C   0  0  0  0  0  0  0  0  0  0  0  0
  -48.9092   58.0391   59.6000 C   0  0  0  0  0  0  0  0  0  0  0  0
  -47.4784   57.6520   59.2515 C   0  0  0  0  0  0  0  0  0  0  0  0
  -47.0186   58.1854   57.9042 C   0  0  0  0  0  0  0  0  0  0  0  0
  -47.3207   55.8006   57.1309 C   0  0  0  0  0  0  0  0  0  0  0  0
  -47.2845   57.2537   56.7358 C   0  0  0  0  0  0  0  0  0  0  0  0
 43 45  1  0  0  0
 43 42  1  0  0  0
 43 46  1  0  0  0
 64 65  1  0  0  0
 44 45  2  0  0  0
 65 63  1  0  0  0
  2  1  1  0  0  0
  2  4  1  0  0  0
  2  5  1  0  0  0
  3  4  2  0  0  0
 63 62  1  0  0  0
  6  8  1  0  0  0
  6 11  2  0  0  0
  7 10  1  0  0  0
  7 11  1  0  0  0
 62 61  1  0  0  0
 26 28  1  0  0  0
 26 32  1  0  0  0
 26 29  1  0  0  0
 12 18  1  0  0  0
 12 19  1  0  0  0
 61 60  1  0  0  0
 30 36  1  0  0  0
 30 37  1  0  0  0
 30 38  1  0  0  0
 20 21  2  0  0  0
 60 59  1  0  0  0
 22 21  1  0  0  0
 22 23  1  0  0  0
 59 58  1  0  0  0
 27 28  2  0  0  0
 58 57  1  0  0  0
 31 37  2  0  0  0
 57 56  1  0  0  0
 56 55  1  0  0  0
 55 54  1  0  0  0
 54 53  1  0  0  0
 53 52  1  0  0  0
 52 51  1  0  0  0
 51 50  1  0  0  0
 50 49  1  0  0  0
 49 47  1  0  0  0
 47 48  2  0  0  0
 48 45  1  0  0  0
 42 41  1  0  0  0
 41 40  1  0  0  0
 40 39  1  0  0  0
 39  1  1  0  0  0
  1 21  1  0  0  0
  8  4  1  0  0  0
  8  9  1  0  0  0
  8 10  1  0  0  0
 11 13  1  0  0  0
 13 14  2  0  0  0
 13 18  1  0  0  0
 14 15  1  0  0  0
 15 16  2  0  0  0
 16 17  1  0  0  0
 17 18  2  0  0  0
 23 24  1  0  0  0
 23 25  1  0  0  0
 25 28  1  0  0  0
 32 33  1  0  0  0
 32 37  1  0  0  0
 33 34  1  0  0  0
 34 35  1  0  0  0
 35 36  1  0  0  0
M  END
> <minimizedAffinity>
-10.85454

> <CNNscore>
0.2317753136

> <CNNaffinity>
7.3127083778

> <CNN_VS>
1.6949052811

> <CNNaffinity_variance>
1.7436053753

$$$$
/media/chris/experiments/cd1a-new-docking/inputs/ligands/7ryo_ligand.pdb


 65 67  0  0  0  0  0  0  0  0999 V2000
  -36.4419   59.8520   64.6940 C   0  0  0  0  0  0  0  0  0  0  0  0
  -36.2875   61.2849   64.8823 N   0  0  0  0  0  0  0  0  0  0  0  0
  -34.2951   61.0836   65.9040 O   0  0  0  0  0  0  0  0  0  0  0  0
  -35.2045   61.7834   65.4835 C   0  0  0  0  0  0  0  0  0  0  0  0
  -36.9903   61.8956   64.5626 H   0  0  0  0  0  0  0  0  0  0  0  0
  -33.7239   63.7342   65.7555 N   0  0  0  0  0  0  0  0  0  0  0  0
  -34.6235   65.0441   64.1561 O   0  0  0  0  0  0  0  0  0  0  0  0
  -35.1303   63.3085   65.6640 C   0  0  0  0  0  0  0  0  0  0  0  0
  -35.8496   63.6885   66.9547 C   0  0  0  0  0  0  0  0  0  0  0  0
  -35.6739   64.0914   64.4596 C   0  0  0  0  0  0  0  0  0  0  0  0
  -33.5576   64.6627   64.9072 C   0  0  0  0  0  0  0  0  0  0  0  0
  -31.5316   65.0257   66.9189 O   0  0  0  0  0  0  0  0  0  0  0  0
  -32.3100   65.3866   64.6520 C   0  0  0  0  0  0  0  0  0  0  0  0
  -31.9967   65.8087   63.3593 C   0  0  0  0  0  0  0  0  0  0  0  0
  -30.7267   66.2712   63.0601 C   0  0  0  0  0  0  0  0  0  0  0  0
  -29.7546   66.3212   64.0353 C   0  0  0  0  0  0  0  0  0  0  0  0
  -30.0380   65.9044   65.3231 C   0  0  0  0  0  0  0  0  0  0  0  0
  -31.3080   65.4344   65.6429 C   0  0  0  0  0  0  0  0  0  0  0  0
  -32.3761   64.7038   67.1665 H   0  0  0  0  0  0  0  0  0  0  0  0
  -37.7157   59.7142   62.6448 O   0  0  0  0  0  0  0  0  0  0  0  0
  -36.6885   59.5121   63.2317 C   0  0  0  0  0  0  0  0  0  0  0  0
  -35.6017   58.9335   62.6921 O   0  0  0  0  0  0  0  0  0  0  0  0
  -35.2402   57.5858   63.1424 C   0  0  0  0  0  0  0  0  0  0  0  0
  -34.8106   57.6742   64.5850 C   0  0  0  0  0  0  0  0  0  0  0  0
  -34.1131   57.1404   62.2310 C   0  0  0  0  0  0  0  0  0  0  0  0
  -32.9876   59.2791   62.2680 N   0  0  0  0  0  0  0  0  0  0  0  0
  -31.7785   57.4264   62.6771 O   0  0  0  0  0  0  0  0  0  0  0  0
  -32.8528   57.9573   62.4094 C   0  0  0  0  0  0  0  0  0  0  0  0
  -33.8743   59.6490   62.0530 H   0  0  0  0  0  0  0  0  0  0  0  0
  -31.5201   62.3666   63.4545 N   0  0  0  0  0  0  0  0  0  0  0  0
  -33.5852   61.8125   62.7767 O   0  0  0  0  0  0  0  0  0  0  0  0
  -31.8636   60.1859   62.4228 C   0  0  0  0  0  0  0  0  0  0  0  0
  -31.1455   60.3685   61.0810 C   0  0  0  0  0  0  0  0  0  0  0  0
  -29.7282   60.9146   61.2157 C   0  0  0  0  0  0  0  0  0  0  0  0
  -29.6170   62.2908   61.8416 C   0  0  0  0  0  0  0  0  0  0  0  0
  -30.0710   62.3542   63.2849 C   0  0  0  0  0  0  0  0  0  0  0  0
  -32.3977   61.5270   62.9003 C   0  0  0  0  0  0  0  0  0  0  0  0
  -31.8894   63.0676   64.0388 H   0  0  0  0  0  0  0  0  0  0  0  0
  -37.5554   59.2922   65.5803 C   0  0  0  0  0  0  0  0  0  0  0  0
  -38.4174   60.3910   66.1927 C   0  0  0  0  0  0  0  0  0  0  0  0
  -39.7252   60.6056   65.4537 C   0  0  0  0  0  0  0  0  0  0  0  0
  -40.9662   60.2788   66.2552 C   0  0  0  0  0  0  0  0  0  0  0  0
  -41.4172   58.9220   65.9893 N   0  0  0  0  0  0  0  0  0  0  0  0
  -42.5651   59.4854   64.1294 O   0  0  0  0  0  0  0  0  0  0  0  0
  -42.1888   58.6218   64.9389 C   0  0  0  0  0  0  0  0  0  0  0  0
  -41.1456   58.2011   66.6022 H   0  0  0  0  0  0  0  0  0  0  0  0
  -43.8597   56.7856   65.0375 C   0  0  0  0  0  0  0  0  0  0  0  0
  -42.6121   57.2050   64.8762 C   0  0  0  0  0  0  0  0  0  0  0  0
  -45.0801   57.6146   65.2905 C   0  0  0  0  0  0  0  0  0  0  0  0
  -45.5062   57.5599   66.7526 C   0  0  0  0  0  0  0  0  0  0  0  0
  -46.8398   58.2324   67.0284 C   0  0  0  0  0  0  0  0  0  0  0  0
  -47.7689   58.2565   65.8262 C   0  0  0  0  0  0  0  0  0  0  0  0
  -48.5691   59.5371   65.6791 C   0  0  0  0  0  0  0  0  0  0  0  0
  -50.0153   59.4019   66.1260 C   0  0  0  0  0  0  0  0  0  0  0  0
  -50.9330   60.4531   65.5333 C   0  0  0  0  0  0  0  0  0  0  0  0
  -50.7594   60.6186   64.0368 C   0  0  0  0  0  0  0  0  0  0  0  0
  -51.6556   59.7258   63.2003 C   0  0  0  0  0  0  0  0  0  0  0  0
  -50.9530   58.4685   62.7277 C   0  0  0  0  0  0  0  0  0  0  0  0
  -49.5224   58.7148   62.2774 C   0  0  0  0  0  0  0  0  0  0  0  0
  -49.3931   59.1476   60.8273 C   0  0  0  0  0  0  0  0  0  0  0  0
  -50.0132   58.1812   59.8300 C   0  0  0  0  0  0  0  0  0  0  0  0
  -48.9949   57.4323   58.9810 C   0  0  0  0  0  0  0  0  0  0  0  0
  -47.6197   58.0801   58.9744 C   0  0  0  0  0  0  0  0  0  0  0  0
  -46.6620   56.9829   56.9115 C   0  0  0  0  0  0  0  0  0  0  0  0
  -47.0247   58.2769   57.5919 C   0  0  0  0  0  0  0  0  0  0  0  0
 43 45  1  0  0  0
 43 42  1  0  0  0
 43 46  1  0  0  0
 64 65  1  0  0  0
 44 45  2  0  0  0
 65 63  1  0  0  0
  2  1  1  0  0  0
  2  4  1  0  0  0
  2  5  1  0  0  0
  3  4  2  0  0  0
 63 62  1  0  0  0
  6  8  1  0  0  0
  6 11  2  0  0  0
  7 10  1  0  0  0
  7 11  1  0  0  0
 62 61  1  0  0  0
 26 28  1  0  0  0
 26 32  1  0  0  0
 26 29  1  0  0  0
 12 18  1  0  0  0
 12 19  1  0  0  0
 61 60  1  0  0  0
 30 36  1  0  0  0
 30 37  1  0  0  0
 30 38  1  0  0  0
 20 21  2  0  0  0
 60 59  1  0  0  0
 22 21  1  0  0  0
 22 23  1  0  0  0
 59 58  1  0  0  0
 27 28  2  0  0  0
 58 57  1  0  0  0
 31 37  2  0  0  0
 57 56  1  0  0  0
 56 55  1  0  0  0
 55 54  1  0  0  0
 54 53  1  0  0  0
 53 52  1  0  0  0
 52 51  1  0  0  0
 51 50  1  0  0  0
 50 49  1  0  0  0
 49 47  1  0  0  0
 47 48  2  0  0  0
 48 45  1  0  0  0
 42 41  1  0  0  0
 41 40  1  0  0  0
 40 39  1  0  0  0
 39  1  1  0  0  0
  1 21  1  0  0  0
  8  4  1  0  0  0
  8  9  1  0  0  0
  8 10  1  0  0  0
 11 13  1  0  0  0
 13 14  2  0  0  0
 13 18  1  0  0  0
 14 15  1  0  0  0
 15 16  2  0  0  0
 16 17  1  0  0  0
 17 18  2  0  0  0
 23 24  1  0  0  0
 23 25  1  0  0  0
 25 28  1  0  0  0
 32 33  1  0  0  0
 32 37  1  0  0  0
 33 34  1  0  0  0
 34 35  1  0  0  0
 35 36  1  0  0  0
M  END
> <minimizedAffinity>
-10.06308

> <CNNscore>
0.2277622074

> <CNNaffinity>
6.9581842422

> <CNN_VS>
1.5848114491

> <CNNaffinity_variance>
0.4805159569

$$$$
/media/chris/experiments/cd1a-new-docking/inputs/ligands/7ryo_ligand.pdb


 65 67  0  0  0  0  0  0  0  0999 V2000
  -42.8674   57.8538   65.5598 C   0  0  0  0  0  0  0  0  0  0  0  0
  -44.1616   58.1685   66.1415 N   0  0  0  0  0  0  0  0  0  0  0  0
  -45.2519   56.6380   64.9076 O   0  0  0  0  0  0  0  0  0  0  0  0
  -45.2620   57.5184   65.7550 C   0  0  0  0  0  0  0  0  0  0  0  0
  -44.2278   58.8699   66.8292 H   0  0  0  0  0  0  0  0  0  0  0  0
  -47.2853   58.9100   65.5505 N   0  0  0  0  0  0  0  0  0  0  0  0
  -48.8187   57.3056   65.9474 O   0  0  0  0  0  0  0  0  0  0  0  0
  -46.5945   57.9286   66.4033 C   0  0  0  0  0  0  0  0  0  0  0  0
  -46.3083   58.5640   67.7606 C   0  0  0  0  0  0  0  0  0  0  0  0
  -47.5975   56.7712   66.5185 C   0  0  0  0  0  0  0  0  0  0  0  0
  -48.4647   58.4808   65.3652 C   0  0  0  0  0  0  0  0  0  0  0  0
  -49.2202   57.5889   62.7352 O   0  0  0  0  0  0  0  0  0  0  0  0
  -49.5094   59.1383   64.5766 C   0  0  0  0  0  0  0  0  0  0  0  0
  -50.2840   60.1504   65.1450 C   0  0  0  0  0  0  0  0  0  0  0  0
  -51.4225   60.6074   64.5039 C   0  0  0  0  0  0  0  0  0  0  0  0
  -51.8064   60.0688   63.2951 C   0  0  0  0  0  0  0  0  0  0  0  0
  -51.0587   59.0616   62.7127 C   0  0  0  0  0  0  0  0  0  0  0  0
  -49.9123   58.5875   63.3427 C   0  0  0  0  0  0  0  0  0  0  0  0
  -48.4438   57.2474   63.1335 H   0  0  0  0  0  0  0  0  0  0  0  0
  -41.8893   59.2654   67.2602 O   0  0  0  0  0  0  0  0  0  0  0  0
  -41.7470   58.5918   66.2771 C   0  0  0  0  0  0  0  0  0  0  0  0
  -40.5763   58.4021   65.6442 O   0  0  0  0  0  0  0  0  0  0  0  0
  -39.6146   59.5086   65.6225 C   0  0  0  0  0  0  0  0  0  0  0  0
  -40.2470   60.6635   64.8878 C   0  0  0  0  0  0  0  0  0  0  0  0
  -38.3905   58.9706   64.9072 C   0  0  0  0  0  0  0  0  0  0  0  0
  -36.5501   60.5084   65.2076 N   0  0  0  0  0  0  0  0  0  0  0  0
  -37.6265   60.5007   63.2321 O   0  0  0  0  0  0  0  0  0  0  0  0
  -37.4927   60.0636   64.3716 C   0  0  0  0  0  0  0  0  0  0  0  0
  -36.4901   60.1205   66.1105 H   0  0  0  0  0  0  0  0  0  0  0  0
  -33.5892   61.6464   63.4664 N   0  0  0  0  0  0  0  0  0  0  0  0
  -34.1583   59.6904   64.4050 O   0  0  0  0  0  0  0  0  0  0  0  0
  -35.6114   61.5476   64.8225 C   0  0  0  0  0  0  0  0  0  0  0  0
  -35.1919   62.3608   66.0524 C   0  0  0  0  0  0  0  0  0  0  0  0
  -34.5891   63.7190   65.7104 C   0  0  0  0  0  0  0  0  0  0  0  0
  -33.3155   63.6784   64.8893 C   0  0  0  0  0  0  0  0  0  0  0  0
  -33.4913   63.1018   63.5002 C   0  0  0  0  0  0  0  0  0  0  0  0
  -34.3885   60.8807   64.2127 C   0  0  0  0  0  0  0  0  0  0  0  0
  -33.0045   61.1802   62.8261 H   0  0  0  0  0  0  0  0  0  0  0  0
  -42.8454   58.1521   64.0599 C   0  0  0  0  0  0  0  0  0  0  0  0
  -42.4229   56.9421   63.2337 C   0  0  0  0  0  0  0  0  0  0  0  0
  -41.3341   57.2583   62.2252 C   0  0  0  0  0  0  0  0  0  0  0  0
  -41.1051   58.7341   61.9828 C   0  0  0  0  0  0  0  0  0  0  0  0
  -39.7466   58.9838   61.5278 N   0  0  0  0  0  0  0  0  0  0  0  0
  -40.3256   59.1655   59.3538 O   0  0  0  0  0  0  0  0  0  0  0  0
  -39.4536   59.1826   60.2380 C   0  0  0  0  0  0  0  0  0  0  0  0
  -39.0191   59.0072   62.1906 H   0  0  0  0  0  0  0  0  0  0  0  0
  -37.0483   58.6364   60.5375 C   0  0  0  0  0  0  0  0  0  0  0  0
  -38.0093   59.3418   59.9567 C   0  0  0  0  0  0  0  0  0  0  0  0
  -37.1967   57.5486   61.5550 C   0  0  0  0  0  0  0  0  0  0  0  0
  -35.9056   57.3229   62.3321 C   0  0  0  0  0  0  0  0  0  0  0  0
  -34.6717   57.8860   61.6483 C   0  0  0  0  0  0  0  0  0  0  0  0
  -33.4305   57.0286   61.8311 C   0  0  0  0  0  0  0  0  0  0  0  0
  -32.1850   57.8045   62.2165 C   0  0  0  0  0  0  0  0  0  0  0  0
  -31.1372   57.8523   61.1167 C   0  0  0  0  0  0  0  0  0  0  0  0
  -30.5413   59.2306   60.9076 C   0  0  0  0  0  0  0  0  0  0  0  0
  -30.7624   60.1589   62.0850 C   0  0  0  0  0  0  0  0  0  0  0  0
  -29.9608   61.4450   62.0270 C   0  0  0  0  0  0  0  0  0  0  0  0
  -30.1067   62.1668   60.7020 C   0  0  0  0  0  0  0  0  0  0  0  0
  -29.8539   63.6621   60.8031 C   0  0  0  0  0  0  0  0  0  0  0  0
  -31.1119   64.4944   60.9809 C   0  0  0  0  0  0  0  0  0  0  0  0
  -31.1395   65.3187   62.2587 C   0  0  0  0  0  0  0  0  0  0  0  0
  -31.5160   66.7783   62.0439 C   0  0  0  0  0  0  0  0  0  0  0  0
  -32.8336   67.1653   62.6960 C   0  0  0  0  0  0  0  0  0  0  0  0
  -35.0183   65.9807   62.2486 C   0  0  0  0  0  0  0  0  0  0  0  0
  -34.0448   67.0348   61.7905 C   0  0  0  0  0  0  0  0  0  0  0  0
 43 45  1  0  0  0
 43 42  1  0  0  0
 43 46  1  0  0  0
 64 65  1  0  0  0
 44 45  2  0  0  0
 65 63  1  0  0  0
  2  1  1  0  0  0
  2  4  1  0  0  0
  2  5  1  0  0  0
  3  4  2  0  0  0
 63 62  1  0  0  0
  6  8  1  0  0  0
  6 11  2  0  0  0
  7 10  1  0  0  0
  7 11  1  0  0  0
 62 61  1  0  0  0
 26 28  1  0  0  0
 26 32  1  0  0  0
 26 29  1  0  0  0
 12 18  1  0  0  0
 12 19  1  0  0  0
 61 60  1  0  0  0
 30 36  1  0  0  0
 30 37  1  0  0  0
 30 38  1  0  0  0
 20 21  2  0  0  0
 60 59  1  0  0  0
 22 21  1  0  0  0
 22 23  1  0  0  0
 59 58  1  0  0  0
 27 28  2  0  0  0
 58 57  1  0  0  0
 31 37  2  0  0  0
 57 56  1  0  0  0
 56 55  1  0  0  0
 55 54  1  0  0  0
 54 53  1  0  0  0
 53 52  1  0  0  0
 52 51  1  0  0  0
 51 50  1  0  0  0
 50 49  1  0  0  0
 49 47  1  0  0  0
 47 48  2  0  0  0
 48 45  1  0  0  0
 42 41  1  0  0  0
 41 40  1  0  0  0
 40 39  1  0  0  0
 39  1  1  0  0  0
  1 21  1  0  0  0
  8  4  1  0  0  0
  8  9  1  0  0  0
  8 10  1  0  0  0
 11 13  1  0  0  0
 13 14  2  0  0  0
 13 18  1  0  0  0
 14 15  1  0  0  0
 15 16  2  0  0  0
 16 17  1  0  0  0
 17 18  2  0  0  0
 23 24  1  0  0  0
 23 25  1  0  0  0
 25 28  1  0  0  0
 32 33  1  0  0  0
 32 37  1  0  0  0
 33 34  1  0  0  0
 34 35  1  0  0  0
 35 36  1  0  0  0
M  END
> <minimizedAffinity>
-9.39961

> <CNNscore>
0.2250882685

> <CNNaffinity>
7.4004106522

> <CNN_VS>
1.6657456160

> <CNNaffinity_variance>
1.6963943243

$$$$
/media/chris/experiments/cd1a-new-docking/inputs/ligands/7ryo_ligand.pdb


 65 67  0  0  0  0  0  0  0  0999 V2000
  -39.5123   60.0259   61.8421 C   0  0  0  0  0  0  0  0  0  0  0  0
  -38.5870   58.9436   62.1336 N   0  0  0  0  0  0  0  0  0  0  0  0
  -36.7652   60.2322   61.8608 O   0  0  0  0  0  0  0  0  0  0  0  0
  -37.2676   59.1480   62.1165 C   0  0  0  0  0  0  0  0  0  0  0  0
  -38.9375   58.0486   62.3463 H   0  0  0  0  0  0  0  0  0  0  0  0
  -35.1998   57.9558   61.5043 N   0  0  0  0  0  0  0  0  0  0  0  0
  -34.3148   57.7689   63.5695 O   0  0  0  0  0  0  0  0  0  0  0  0
  -36.3581   57.9443   62.4131 C   0  0  0  0  0  0  0  0  0  0  0  0
  -37.1510   56.6598   62.1914 C   0  0  0  0  0  0  0  0  0  0  0  0
  -35.7276   57.9877   63.8129 C   0  0  0  0  0  0  0  0  0  0  0  0
  -34.1588   57.8599   62.2230 C   0  0  0  0  0  0  0  0  0  0  0  0
  -32.3682   60.0963   62.4990 O   0  0  0  0  0  0  0  0  0  0  0  0
  -32.7759   57.8303   61.7411 C   0  0  0  0  0  0  0  0  0  0  0  0
  -32.2300   56.6434   61.2505 C   0  0  0  0  0  0  0  0  0  0  0  0
  -30.8687   56.5379   61.0227 C   0  0  0  0  0  0  0  0  0  0  0  0
  -30.0340   57.6043   61.2770 C   0  0  0  0  0  0  0  0  0  0  0  0
  -30.5491   58.7902   61.7678 C   0  0  0  0  0  0  0  0  0  0  0  0
  -31.9144   58.9149   62.0053 C   0  0  0  0  0  0  0  0  0  0  0  0
  -33.2822   60.2124   62.6699 H   0  0  0  0  0  0  0  0  0  0  0  0
  -41.4770   60.6005   63.1268 O   0  0  0  0  0  0  0  0  0  0  0  0
  -40.2889   60.4362   63.0843 C   0  0  0  0  0  0  0  0  0  0  0  0
  -39.4561   60.6102   64.1252 O   0  0  0  0  0  0  0  0  0  0  0  0
  -39.5837   59.7052   65.2717 C   0  0  0  0  0  0  0  0  0  0  0  0
  -40.4479   60.3803   66.3065 C   0  0  0  0  0  0  0  0  0  0  0  0
  -38.1691   59.4710   65.7653 C   0  0  0  0  0  0  0  0  0  0  0  0
  -36.3886   60.9946   65.1730 N   0  0  0  0  0  0  0  0  0  0  0  0
  -37.7226   61.5288   66.9042 O   0  0  0  0  0  0  0  0  0  0  0  0
  -37.4075   60.7558   66.0038 C   0  0  0  0  0  0  0  0  0  0  0  0
  -36.1819   60.3383   64.4689 H   0  0  0  0  0  0  0  0  0  0  0  0
  -34.2672   63.5479   63.7329 N   0  0  0  0  0  0  0  0  0  0  0  0
  -34.6177   61.3884   63.2385 O   0  0  0  0  0  0  0  0  0  0  0  0
  -35.5775   62.1947   65.2789 C   0  0  0  0  0  0  0  0  0  0  0  0
  -34.6183   62.0791   66.4689 C   0  0  0  0  0  0  0  0  0  0  0  0
  -34.0620   63.4191   66.9380 C   0  0  0  0  0  0  0  0  0  0  0  0
  -33.2344   64.1744   65.9169 C   0  0  0  0  0  0  0  0  0  0  0  0
  -34.0104   64.6156   64.6936 C   0  0  0  0  0  0  0  0  0  0  0  0
  -34.7780   62.3425   63.9940 C   0  0  0  0  0  0  0  0  0  0  0  0
  -34.0398   63.7362   62.7938 H   0  0  0  0  0  0  0  0  0  0  0  0
  -40.4618   59.6530   60.7026 C   0  0  0  0  0  0  0  0  0  0  0  0
  -40.4631   58.1554   60.4149 C   0  0  0  0  0  0  0  0  0  0  0  0
  -41.6437   57.4296   61.0331 C   0  0  0  0  0  0  0  0  0  0  0  0
  -41.3221   56.6569   62.2936 C   0  0  0  0  0  0  0  0  0  0  0  0
  -41.8030   57.3587   63.4731 N   0  0  0  0  0  0  0  0  0  0  0  0
  -41.8440   55.5097   64.7668 O   0  0  0  0  0  0  0  0  0  0  0  0
  -42.0305   56.7301   64.6315 C   0  0  0  0  0  0  0  0  0  0  0  0
  -41.9664   58.3279   63.4170 H   0  0  0  0  0  0  0  0  0  0  0  0
  -43.8617   57.9681   65.7663 C   0  0  0  0  0  0  0  0  0  0  0  0
  -42.5919   57.5927   65.6951 C   0  0  0  0  0  0  0  0  0  0  0  0
  -44.9781   57.6060   64.8372 C   0  0  0  0  0  0  0  0  0  0  0  0
  -46.3418   57.8404   65.4756 C   0  0  0  0  0  0  0  0  0  0  0  0
  -47.3129   58.5983   64.5871 C   0  0  0  0  0  0  0  0  0  0  0  0
  -48.0700   59.6979   65.3129 C   0  0  0  0  0  0  0  0  0  0  0  0
  -49.1023   59.1969   66.3055 C   0  0  0  0  0  0  0  0  0  0  0  0
  -50.5211   59.6275   65.9724 C   0  0  0  0  0  0  0  0  0  0  0  0
  -50.6010   60.6108   64.8211 C   0  0  0  0  0  0  0  0  0  0  0  0
  -51.4670   60.1196   63.6785 C   0  0  0  0  0  0  0  0  0  0  0  0
  -50.6911   59.6326   62.4698 C   0  0  0  0  0  0  0  0  0  0  0  0
  -50.4013   58.1455   62.5201 C   0  0  0  0  0  0  0  0  0  0  0  0
  -49.4948   57.6734   61.3951 C   0  0  0  0  0  0  0  0  0  0  0  0
  -50.1740   57.6011   60.0386 C   0  0  0  0  0  0  0  0  0  0  0  0
  -49.2383   57.8196   58.8597 C   0  0  0  0  0  0  0  0  0  0  0  0
  -47.7617   57.7113   59.2151 C   0  0  0  0  0  0  0  0  0  0  0  0
  -46.8348   58.0688   58.0644 C   0  0  0  0  0  0  0  0  0  0  0  0
  -46.9475   55.8091   56.9430 C   0  0  0  0  0  0  0  0  0  0  0  0
  -47.0986   57.2992   56.7830 C   0  0  0  0  0  0  0  0  0  0  0  0
 43 45  1  0  0  0
 43 42  1  0  0  0
 43 46  1  0  0  0
 64 65  1  0  0  0
 44 45  2  0  0  0
 65 63  1  0  0  0
  2  1  1  0  0  0
  2  4  1  0  0  0
  2  5  1  0  0  0
  3  4  2  0  0  0
 63 62  1  0  0  0
  6  8  1  0  0  0
  6 11  2  0  0  0
  7 10  1  0  0  0
  7 11  1  0  0  0
 62 61  1  0  0  0
 26 28  1  0  0  0
 26 32  1  0  0  0
 26 29  1  0  0  0
 12 18  1  0  0  0
 12 19  1  0  0  0
 61 60  1  0  0  0
 30 36  1  0  0  0
 30 37  1  0  0  0
 30 38  1  0  0  0
 20 21  2  0  0  0
 60 59  1  0  0  0
 22 21  1  0  0  0
 22 23  1  0  0  0
 59 58  1  0  0  0
 27 28  2  0  0  0
 58 57  1  0  0  0
 31 37  2  0  0  0
 57 56  1  0  0  0
 56 55  1  0  0  0
 55 54  1  0  0  0
 54 53  1  0  0  0
 53 52  1  0  0  0
 52 51  1  0  0  0
 51 50  1  0  0  0
 50 49  1  0  0  0
 49 47  1  0  0  0
 47 48  2  0  0  0
 48 45  1  0  0  0
 42 41  1  0  0  0
 41 40  1  0  0  0
 40 39  1  0  0  0
 39  1  1  0  0  0
  1 21  1  0  0  0
  8  4  1  0  0  0
  8  9  1  0  0  0
  8 10  1  0  0  0
 11 13  1  0  0  0
 13 14  2  0  0  0
 13 18  1  0  0  0
 14 15  1  0  0  0
 15 16  2  0  0  0
 16 17  1  0  0  0
 17 18  2  0  0  0
 23 24  1  0  0  0
 23 25  1  0  0  0
 25 28  1  0  0  0
 32 33  1  0  0  0
 32 37  1  0  0  0
 33 34  1  0  0  0
 34 35  1  0  0  0
 35 36  1  0  0  0
M  END
> <minimizedAffinity>
-10.96461

> <CNNscore>
0.2170456052

> <CNNaffinity>
7.6422667503

> <CNN_VS>
1.6587203741

> <CNNaffinity_variance>
1.7605422735

$$$$
/media/chris/experiments/cd1a-new-docking/inputs/ligands/7ryo_ligand.pdb


 65 67  0  0  0  0  0  0  0  0999 V2000
  -35.8274   59.2625   64.1545 C   0  0  0  0  0  0  0  0  0  0  0  0
  -37.1598   59.8187   63.9881 N   0  0  0  0  0  0  0  0  0  0  0  0
  -38.1124   58.3341   65.3818 O   0  0  0  0  0  0  0  0  0  0  0  0
  -38.2059   59.2934   64.6305 C   0  0  0  0  0  0  0  0  0  0  0  0
  -37.2928   60.5926   63.3943 H   0  0  0  0  0  0  0  0  0  0  0  0
  -40.6082   58.8737   64.2777 N   0  0  0  0  0  0  0  0  0  0  0  0
  -41.4138   60.3175   65.8106 O   0  0  0  0  0  0  0  0  0  0  0  0
  -39.5845   59.9268   64.3810 C   0  0  0  0  0  0  0  0  0  0  0  0
  -39.5396   60.7064   63.0703 C   0  0  0  0  0  0  0  0  0  0  0  0
  -40.0727   60.8014   65.5453 C   0  0  0  0  0  0  0  0  0  0  0  0
  -41.5400   59.1768   65.0836 C   0  0  0  0  0  0  0  0  0  0  0  0
  -42.3554   58.2908   67.6977 O   0  0  0  0  0  0  0  0  0  0  0  0
  -42.7677   58.4112   65.3122 C   0  0  0  0  0  0  0  0  0  0  0  0
  -43.6701   58.2058   64.2678 C   0  0  0  0  0  0  0  0  0  0  0  0
  -44.9345   57.7025   64.5210 C   0  0  0  0  0  0  0  0  0  0  0  0
  -45.3191   57.3973   65.8084 C   0  0  0  0  0  0  0  0  0  0  0  0
  -44.4453   57.5958   66.8618 C   0  0  0  0  0  0  0  0  0  0  0  0
  -43.1709   58.1028   66.6277 C   0  0  0  0  0  0  0  0  0  0  0  0
  -41.4910   58.6308   67.5739 H   0  0  0  0  0  0  0  0  0  0  0  0
  -34.1275   59.7182   65.8108 O   0  0  0  0  0  0  0  0  0  0  0  0
  -34.9790   60.1301   65.0721 C   0  0  0  0  0  0  0  0  0  0  0  0
  -35.3300   61.4226   64.9566 O   0  0  0  0  0  0  0  0  0  0  0  0
  -34.9443   62.3426   66.0311 C   0  0  0  0  0  0  0  0  0  0  0  0
  -36.1336   62.5252   66.9399 C   0  0  0  0  0  0  0  0  0  0  0  0
  -34.5433   63.6313   65.3397 C   0  0  0  0  0  0  0  0  0  0  0  0
  -33.2234   62.9005   63.4513 N   0  0  0  0  0  0  0  0  0  0  0  0
  -32.1903   64.0094   65.1140 O   0  0  0  0  0  0  0  0  0  0  0  0
  -33.2116   63.5299   64.6299 C   0  0  0  0  0  0  0  0  0  0  0  0
  -34.0728   62.5357   63.1126 H   0  0  0  0  0  0  0  0  0  0  0  0
  -31.0143   63.9092   60.7688 N   0  0  0  0  0  0  0  0  0  0  0  0
  -33.2335   64.0509   61.0617 O   0  0  0  0  0  0  0  0  0  0  0  0
  -32.0192   62.7394   62.6555 C   0  0  0  0  0  0  0  0  0  0  0  0
  -31.8657   61.2771   62.2224 C   0  0  0  0  0  0  0  0  0  0  0  0
  -30.4498   60.9137   61.7882 C   0  0  0  0  0  0  0  0  0  0  0  0
  -29.9217   61.6727   60.5870 C   0  0  0  0  0  0  0  0  0  0  0  0
  -29.7624   63.1613   60.8150 C   0  0  0  0  0  0  0  0  0  0  0  0
  -32.1414   63.6239   61.4248 C   0  0  0  0  0  0  0  0  0  0  0  0
  -31.0294   64.7080   60.1935 H   0  0  0  0  0  0  0  0  0  0  0  0
  -35.1383   59.0584   62.8045 C   0  0  0  0  0  0  0  0  0  0  0  0
  -35.4424   57.6926   62.1982 C   0  0  0  0  0  0  0  0  0  0  0  0
  -36.7927   57.6327   61.5086 C   0  0  0  0  0  0  0  0  0  0  0  0
  -37.8433   56.8286   62.2429 C   0  0  0  0  0  0  0  0  0  0  0  0
  -39.1826   57.2503   61.8641 N   0  0  0  0  0  0  0  0  0  0  0  0
  -40.1754   55.3739   62.6306 O   0  0  0  0  0  0  0  0  0  0  0  0
  -40.2584   56.4874   62.0869 C   0  0  0  0  0  0  0  0  0  0  0  0
  -39.3012   58.1257   61.4296 H   0  0  0  0  0  0  0  0  0  0  0  0
  -41.6005   57.9987   60.6418 C   0  0  0  0  0  0  0  0  0  0  0  0
  -41.5240   57.0471   61.5622 C   0  0  0  0  0  0  0  0  0  0  0  0
  -40.4724   58.6845   59.9362 C   0  0  0  0  0  0  0  0  0  0  0  0
  -40.8613   59.1018   58.5233 C   0  0  0  0  0  0  0  0  0  0  0  0
  -42.1091   58.4109   58.0011 C   0  0  0  0  0  0  0  0  0  0  0  0
  -42.7089   59.0824   56.7770 C   0  0  0  0  0  0  0  0  0  0  0  0
  -44.1815   58.7886   56.5604 C   0  0  0  0  0  0  0  0  0  0  0  0
  -44.8393   58.0909   57.7393 C   0  0  0  0  0  0  0  0  0  0  0  0
  -46.3533   58.1689   57.7213 C   0  0  0  0  0  0  0  0  0  0  0  0
  -47.0019   57.4021   58.8563 C   0  0  0  0  0  0  0  0  0  0  0  0
  -48.4803   57.1260   58.6606 C   0  0  0  0  0  0  0  0  0  0  0  0
  -49.3525   57.8847   59.6413 C   0  0  0  0  0  0  0  0  0  0  0  0
  -49.9506   56.9982   60.7213 C   0  0  0  0  0  0  0  0  0  0  0  0
  -51.1378   57.6125   61.4426 C   0  0  0  0  0  0  0  0  0  0  0  0
  -50.7784   58.7671   62.3650 C   0  0  0  0  0  0  0  0  0  0  0  0
  -49.7342   58.4158   63.4160 C   0  0  0  0  0  0  0  0  0  0  0  0
  -50.2297   58.5897   64.8426 C   0  0  0  0  0  0  0  0  0  0  0  0
  -48.0164   59.7842   65.0687 C   0  0  0  0  0  0  0  0  0  0  0  0
  -49.2318   59.2475   65.7783 C   0  0  0  0  0  0  0  0  0  0  0  0
 43 45  1  0  0  0
 43 42  1  0  0  0
 43 46  1  0  0  0
 64 65  1  0  0  0
 44 45  2  0  0  0
 65 63  1  0  0  0
  2  1  1  0  0  0
  2  4  1  0  0  0
  2  5  1  0  0  0
  3  4  2  0  0  0
 63 62  1  0  0  0
  6  8  1  0  0  0
  6 11  2  0  0  0
  7 10  1  0  0  0
  7 11  1  0  0  0
 62 61  1  0  0  0
 26 28  1  0  0  0
 26 32  1  0  0  0
 26 29  1  0  0  0
 12 18  1  0  0  0
 12 19  1  0  0  0
 61 60  1  0  0  0
 30 36  1  0  0  0
 30 37  1  0  0  0
 30 38  1  0  0  0
 20 21  2  0  0  0
 60 59  1  0  0  0
 22 21  1  0  0  0
 22 23  1  0  0  0
 59 58  1  0  0  0
 27 28  2  0  0  0
 58 57  1  0  0  0
 31 37  2  0  0  0
 57 56  1  0  0  0
 56 55  1  0  0  0
 55 54  1  0  0  0
 54 53  1  0  0  0
 53 52  1  0  0  0
 52 51  1  0  0  0
 51 50  1  0  0  0
 50 49  1  0  0  0
 49 47  1  0  0  0
 47 48  2  0  0  0
 48 45  1  0  0  0
 42 41  1  0  0  0
 41 40  1  0  0  0
 40 39  1  0  0  0
 39  1  1  0  0  0
  1 21  1  0  0  0
  8  4  1  0  0  0
  8  9  1  0  0  0
  8 10  1  0  0  0
 11 13  1  0  0  0
 13 14  2  0  0  0
 13 18  1  0  0  0
 14 15  1  0  0  0
 15 16  2  0  0  0
 16 17  1  0  0  0
 17 18  2  0  0  0
 23 24  1  0  0  0
 23 25  1  0  0  0
 25 28  1  0  0  0
 32 33  1  0  0  0
 32 37  1  0  0  0
 33 34  1  0  0  0
 34 35  1  0  0  0
 35 36  1  0  0  0
M  END
> <minimizedAffinity>
-8.30270

> <CNNscore>
0.2153299004

> <CNNaffinity>
7.3132147789

> <CNN_VS>
1.5747537613

> <CNNaffinity_variance>
1.4392902851

$$$$
/media/chris/experiments/cd1a-new-docking/inputs/ligands/7ryo_ligand.pdb


 65 67  0  0  0  0  0  0  0  0999 V2000
  -42.7932   58.1634   65.8792 C   0  0  0  0  0  0  0  0  0  0  0  0
  -44.1280   58.2388   66.4492 N   0  0  0  0  0  0  0  0  0  0  0  0
  -45.0805   57.1389   64.7356 O   0  0  0  0  0  0  0  0  0  0  0  0
  -45.1750   57.7083   65.8127 C   0  0  0  0  0  0  0  0  0  0  0  0
  -44.2618   58.6866   67.3157 H   0  0  0  0  0  0  0  0  0  0  0  0
  -47.4169   58.7182   65.6507 N   0  0  0  0  0  0  0  0  0  0  0  0
  -48.6341   56.8527   65.9989 O   0  0  0  0  0  0  0  0  0  0  0  0
  -46.5560   57.8522   66.4733 C   0  0  0  0  0  0  0  0  0  0  0  0
  -46.3812   58.4880   67.8492 C   0  0  0  0  0  0  0  0  0  0  0  0
  -47.3335   56.5302   66.5534 C   0  0  0  0  0  0  0  0  0  0  0  0
  -48.5007   58.0894   65.4526 C   0  0  0  0  0  0  0  0  0  0  0  0
  -50.3071   60.0950   66.4515 O   0  0  0  0  0  0  0  0  0  0  0  0
  -49.6511   58.5712   64.6844 C   0  0  0  0  0  0  0  0  0  0  0  0
  -49.8286   58.1670   63.3606 C   0  0  0  0  0  0  0  0  0  0  0  0
  -50.7608   58.7958   62.5533 C   0  0  0  0  0  0  0  0  0  0  0  0
  -51.5265   59.8298   63.0464 C   0  0  0  0  0  0  0  0  0  0  0  0
  -51.3669   60.2525   64.3535 C   0  0  0  0  0  0  0  0  0  0  0  0
  -50.4337   59.6344   65.1799 C   0  0  0  0  0  0  0  0  0  0  0  0
  -49.6876   59.7004   67.0333 H   0  0  0  0  0  0  0  0  0  0  0  0
  -42.1451   59.8816   67.4503 O   0  0  0  0  0  0  0  0  0  0  0  0
  -41.8279   59.0818   66.6136 C   0  0  0  0  0  0  0  0  0  0  0  0
  -40.5703   58.8882   66.1799 O   0  0  0  0  0  0  0  0  0  0  0  0
  -39.7655   60.0669   65.8442 C   0  0  0  0  0  0  0  0  0  0  0  0
  -40.6642   61.0688   65.1646 C   0  0  0  0  0  0  0  0  0  0  0  0
  -38.6670   59.5628   64.9284 C   0  0  0  0  0  0  0  0  0  0  0  0
  -36.8628   60.8448   65.8997 N   0  0  0  0  0  0  0  0  0  0  0  0
  -37.2326   61.0237   63.6877 O   0  0  0  0  0  0  0  0  0  0  0  0
  -37.5265   60.5450   64.7795 C   0  0  0  0  0  0  0  0  0  0  0  0
  -37.1435   60.4302   66.7474 H   0  0  0  0  0  0  0  0  0  0  0  0
  -34.4927   62.9796   67.6082 N   0  0  0  0  0  0  0  0  0  0  0  0
  -36.6093   62.3810   68.0468 O   0  0  0  0  0  0  0  0  0  0  0  0
  -35.7388   61.7648   65.9026 C   0  0  0  0  0  0  0  0  0  0  0  0
  -35.9474   62.8547   64.8452 C   0  0  0  0  0  0  0  0  0  0  0  0
  -34.6648   63.5816   64.4556 C   0  0  0  0  0  0  0  0  0  0  0  0
  -33.9763   64.3345   65.5768 C   0  0  0  0  0  0  0  0  0  0  0  0
  -33.4593   63.4498   66.6918 C   0  0  0  0  0  0  0  0  0  0  0  0
  -35.6510   62.4029   67.2800 C   0  0  0  0  0  0  0  0  0  0  0  0
  -34.3174   63.1004   68.5694 H   0  0  0  0  0  0  0  0  0  0  0  0
  -42.8105   58.4741   64.3817 C   0  0  0  0  0  0  0  0  0  0  0  0
  -41.6966   57.7562   63.6272 C   0  0  0  0  0  0  0  0  0  0  0  0
  -42.1902   57.0100   62.4016 C   0  0  0  0  0  0  0  0  0  0  0  0
  -41.2980   57.1300   61.1855 C   0  0  0  0  0  0  0  0  0  0  0  0
  -40.3881   58.2571   61.3148 N   0  0  0  0  0  0  0  0  0  0  0  0
  -40.5174   58.8315   59.1360 O   0  0  0  0  0  0  0  0  0  0  0  0
  -40.0617   59.0310   60.2740 C   0  0  0  0  0  0  0  0  0  0  0  0
  -39.9998   58.4569   62.1972 H   0  0  0  0  0  0  0  0  0  0  0  0
  -37.7550   59.8720   60.6547 C   0  0  0  0  0  0  0  0  0  0  0  0
  -39.0627   60.0790   60.5808 C   0  0  0  0  0  0  0  0  0  0  0  0
  -37.0160   58.5889   60.4353 C   0  0  0  0  0  0  0  0  0  0  0  0
  -37.1709   57.6394   61.6170 C   0  0  0  0  0  0  0  0  0  0  0  0
  -35.8804   57.3929   62.3791 C   0  0  0  0  0  0  0  0  0  0  0  0
  -35.8674   58.0087   63.7682 C   0  0  0  0  0  0  0  0  0  0  0  0
  -34.6005   57.7420   64.5593 C   0  0  0  0  0  0  0  0  0  0  0  0
  -33.4466   58.6552   64.1801 C   0  0  0  0  0  0  0  0  0  0  0  0
  -33.8818   59.9068   63.4432 C   0  0  0  0  0  0  0  0  0  0  0  0
  -32.7176   60.7585   62.9784 C   0  0  0  0  0  0  0  0  0  0  0  0
  -31.4374   59.9851   62.7273 C   0  0  0  0  0  0  0  0  0  0  0  0
  -31.0129   60.0120   61.2723 C   0  0  0  0  0  0  0  0  0  0  0  0
  -31.0567   58.6446   60.6099 C   0  0  0  0  0  0  0  0  0  0  0  0
  -32.2813   57.8202   60.9669 C   0  0  0  0  0  0  0  0  0  0  0  0
  -31.9644   56.4428   61.5284 C   0  0  0  0  0  0  0  0  0  0  0  0
  -30.4799   56.1041   61.5321 C   0  0  0  0  0  0  0  0  0  0  0  0
  -29.9321   55.8015   62.9175 C   0  0  0  0  0  0  0  0  0  0  0  0
  -29.7726   56.6530   65.2894 C   0  0  0  0  0  0  0  0  0  0  0  0
  -29.8216   57.0115   63.8273 C   0  0  0  0  0  0  0  0  0  0  0  0
 43 45  1  0  0  0
 43 42  1  0  0  0
 43 46  1  0  0  0
 64 65  1  0  0  0
 44 45  2  0  0  0
 65 63  1  0  0  0
  2  1  1  0  0  0
  2  4  1  0  0  0
  2  5  1  0  0  0
  3  4  2  0  0  0
 63 62  1  0  0  0
  6  8  1  0  0  0
  6 11  2  0  0  0
  7 10  1  0  0  0
  7 11  1  0  0  0
 62 61  1  0  0  0
 26 28  1  0  0  0
 26 32  1  0  0  0
 26 29  1  0  0  0
 12 18  1  0  0  0
 12 19  1  0  0  0
 61 60  1  0  0  0
 30 36  1  0  0  0
 30 37  1  0  0  0
 30 38  1  0  0  0
 20 21  2  0  0  0
 60 59  1  0  0  0
 22 21  1  0  0  0
 22 23  1  0  0  0
 59 58  1  0  0  0
 27 28  2  0  0  0
 58 57  1  0  0  0
 31 37  2  0  0  0
 57 56  1  0  0  0
 56 55  1  0  0  0
 55 54  1  0  0  0
 54 53  1  0  0  0
 53 52  1  0  0  0
 52 51  1  0  0  0
 51 50  1  0  0  0
 50 49  1  0  0  0
 49 47  1  0  0  0
 47 48  2  0  0  0
 48 45  1  0  0  0
 42 41  1  0  0  0
 41 40  1  0  0  0
 40 39  1  0  0  0
 39  1  1  0  0  0
  1 21  1  0  0  0
  8  4  1  0  0  0
  8  9  1  0  0  0
  8 10  1  0  0  0
 11 13  1  0  0  0
 13 14  2  0  0  0
 13 18  1  0  0  0
 14 15  1  0  0  0
 15 16  2  0  0  0
 16 17  1  0  0  0
 17 18  2  0  0  0
 23 24  1  0  0  0
 23 25  1  0  0  0
 25 28  1  0  0  0
 32 33  1  0  0  0
 32 37  1  0  0  0
 33 34  1  0  0  0
 34 35  1  0  0  0
 35 36  1  0  0  0
M  END
> <minimizedAffinity>
-10.55760

> <CNNscore>
0.2073933482

> <CNNaffinity>
7.6551256180

> <CNN_VS>
1.5876221657

> <CNNaffinity_variance>
2.0313220024

$$$$
