/media/chris/experiments/cd1a-new-docking/inputs/ligands/7ryo_ligand.pdb


 65 67  0  0  0  0  0  0  0  0999 V2000
  -40.4915   59.6292   63.6981 C   0  0  0  0  0  0  0  0  0  0  0  0
  -39.4036   58.9994   62.9686 N   0  0  0  0  0  0  0  0  0  0  0  0
  -38.9245   60.8540   61.7920 O   0  0  0  0  0  0  0  0  0  0  0  0
  -38.7021   59.6830   62.0612 C   0  0  0  0  0  0  0  0  0  0  0  0
  -39.1810   58.0570   63.1459 H   0  0  0  0  0  0  0  0  0  0  0  0
  -36.2721   59.3280   61.8603 N   0  0  0  0  0  0  0  0  0  0  0  0
  -36.2721   57.0742   61.9167 O   0  0  0  0  0  0  0  0  0  0  0  0
  -37.5831   58.9355   61.3174 C   0  0  0  0  0  0  0  0  0  0  0  0
  -37.6400   59.3065   59.8386 C   0  0  0  0  0  0  0  0  0  0  0  0
  -37.6259   57.4142   61.5231 C   0  0  0  0  0  0  0  0  0  0  0  0
  -35.6522   58.2600   62.1513 C   0  0  0  0  0  0  0  0  0  0  0  0
  -33.3137   57.7810   60.5435 O   0  0  0  0  0  0  0  0  0  0  0  0
  -34.3056   58.1704   62.7206 C   0  0  0  0  0  0  0  0  0  0  0  0
  -34.0941   58.4613   64.0689 C   0  0  0  0  0  0  0  0  0  0  0  0
  -32.8096   58.6185   64.5603 C   0  0  0  0  0  0  0  0  0  0  0  0
  -31.7220   58.4893   63.7241 C   0  0  0  0  0  0  0  0  0  0  0  0
  -31.9045   58.2057   62.3829 C   0  0  0  0  0  0  0  0  0  0  0  0
  -33.1879   58.0464   61.8699 C   0  0  0  0  0  0  0  0  0  0  0  0
  -34.1641   57.6681   60.1669 H   0  0  0  0  0  0  0  0  0  0  0  0
  -40.5709   58.9908   66.0277 O   0  0  0  0  0  0  0  0  0  0  0  0
  -40.1689   59.7400   65.1808 C   0  0  0  0  0  0  0  0  0  0  0  0
  -39.3866   60.8080   65.4148 O   0  0  0  0  0  0  0  0  0  0  0  0
  -37.9358   60.6037   65.4698 C   0  0  0  0  0  0  0  0  0  0  0  0
  -37.6784   59.1350   65.6936 C   0  0  0  0  0  0  0  0  0  0  0  0
  -37.4476   61.4573   66.6243 C   0  0  0  0  0  0  0  0  0  0  0  0
  -35.7097   62.1481   65.0930 N   0  0  0  0  0  0  0  0  0  0  0  0
  -35.3844   62.4688   67.2960 O   0  0  0  0  0  0  0  0  0  0  0  0
  -36.0867   62.0673   66.3723 C   0  0  0  0  0  0  0  0  0  0  0  0
  -36.3147   61.8096   64.3940 H   0  0  0  0  0  0  0  0  0  0  0  0
  -33.5504   64.9768   64.4379 N   0  0  0  0  0  0  0  0  0  0  0  0
  -35.7618   64.6586   64.2396 O   0  0  0  0  0  0  0  0  0  0  0  0
  -34.4331   62.7212   64.7041 C   0  0  0  0  0  0  0  0  0  0  0  0
  -33.9160   62.0409   63.4316 C   0  0  0  0  0  0  0  0  0  0  0  0
  -32.4213   62.2342   63.1995 C   0  0  0  0  0  0  0  0  0  0  0  0
  -31.9710   63.6696   63.0147 C   0  0  0  0  0  0  0  0  0  0  0  0
  -32.1719   64.5444   64.2343 C   0  0  0  0  0  0  0  0  0  0  0  0
  -34.6391   64.2043   64.4398 C   0  0  0  0  0  0  0  0  0  0  0  0
  -33.6925   65.9390   64.5897 H   0  0  0  0  0  0  0  0  0  0  0  0
  -41.8102   58.8857   63.4802 C   0  0  0  0  0  0  0  0  0  0  0  0
  -41.6148   57.5575   62.7569 C   0  0  0  0  0  0  0  0  0  0  0  0
  -42.1301   57.5734   61.3297 C   0  0  0  0  0  0  0  0  0  0  0  0
  -41.0622   57.4163   60.2694 C   0  0  0  0  0  0  0  0  0  0  0  0
  -41.5882   57.7248   58.9491 N   0  0  0  0  0  0  0  0  0  0  0  0
  -41.0090   59.9042   59.0396 O   0  0  0  0  0  0  0  0  0  0  0  0
  -41.5229   58.9542   58.4267 C   0  0  0  0  0  0  0  0  0  0  0  0
  -42.0058   57.0052   58.4229 H   0  0  0  0  0  0  0  0  0  0  0  0
  -43.4359   58.7508   56.8541 C   0  0  0  0  0  0  0  0  0  0  0  0
  -42.1803   59.0939   57.1080 C   0  0  0  0  0  0  0  0  0  0  0  0
  -44.4420   58.1845   57.8068 C   0  0  0  0  0  0  0  0  0  0  0  0
  -45.8650   58.3463   57.2863 C   0  0  0  0  0  0  0  0  0  0  0  0
  -46.6527   57.0484   57.2404 C   0  0  0  0  0  0  0  0  0  0  0  0
  -47.9859   57.1200   57.9663 C   0  0  0  0  0  0  0  0  0  0  0  0
  -48.0498   58.1739   59.0556 C   0  0  0  0  0  0  0  0  0  0  0  0
  -48.6028   57.6518   60.3713 C   0  0  0  0  0  0  0  0  0  0  0  0
  -50.0488   57.2044   60.2853 C   0  0  0  0  0  0  0  0  0  0  0  0
  -50.8931   57.6951   61.4443 C   0  0  0  0  0  0  0  0  0  0  0  0
  -50.4115   58.9929   62.0639 C   0  0  0  0  0  0  0  0  0  0  0  0
  -51.0908   59.2988   63.3843 C   0  0  0  0  0  0  0  0  0  0  0  0
  -50.3893   58.6722   64.5782 C   0  0  0  0  0  0  0  0  0  0  0  0
  -48.9339   58.3174   64.3281 C   0  0  0  0  0  0  0  0  0  0  0  0
  -47.9652   59.4708   64.5387 C   0  0  0  0  0  0  0  0  0  0  0  0
  -46.5339   59.0321   64.8161 C   0  0  0  0  0  0  0  0  0  0  0  0
  -46.4254   57.5972   65.3066 C   0  0  0  0  0  0  0  0  0  0  0  0
  -46.5994   58.4447   67.6790 C   0  0  0  0  0  0  0  0  0  0  0  0
  -45.9528   57.4582   66.7423 C   0  0  0  0  0  0  0  0  0  0  0  0
 43 45  1  0  0  0
 43 42  1  0  0  0
 43 46  1  0  0  0
 64 65  1  0  0  0
 44 45  2  0  0  0
 65 63  1  0  0  0
  2  1  1  0  0  0
  2  4  1  0  0  0
  2  5  1  0  0  0
  3  4  2  0  0  0
 63 62  1  0  0  0
  6  8  1  0  0  0
  6 11  2  0  0  0
  7 10  1  0  0  0
  7 11  1  0  0  0
 62 61  1  0  0  0
 26 28  1  0  0  0
 26 32  1  0  0  0
 26 29  1  0  0  0
 12 18  1  0  0  0
 12 19  1  0  0  0
 61 60  1  0  0  0
 30 36  1  0  0  0
 30 37  1  0  0  0
 30 38  1  0  0  0
 20 21  2  0  0  0
 60 59  1  0  0  0
 22 21  1  0  0  0
 22 23  1  0  0  0
 59 58  1  0  0  0
 27 28  2  0  0  0
 58 57  1  0  0  0
 31 37  2  0  0  0
 57 56  1  0  0  0
 56 55  1  0  0  0
 55 54  1  0  0  0
 54 53  1  0  0  0
 53 52  1  0  0  0
 52 51  1  0  0  0
 51 50  1  0  0  0
 50 49  1  0  0  0
 49 47  1  0  0  0
 47 48  2  0  0  0
 48 45  1  0  0  0
 42 41  1  0  0  0
 41 40  1  0  0  0
 40 39  1  0  0  0
 39  1  1  0  0  0
  1 21  1  0  0  0
  8  4  1  0  0  0
  8  9  1  0  0  0
  8 10  1  0  0  0
 11 13  1  0  0  0
 13 14  2  0  0  0
 13 18  1  0  0  0
 14 15  1  0  0  0
 15 16  2  0  0  0
 16 17  1  0  0  0
 17 18  2  0  0  0
 23 24  1  0  0  0
 23 25  1  0  0  0
 25 28  1  0  0  0
 32 33  1  0  0  0
 32 37  1  0  0  0
 33 34  1  0  0  0
 34 35  1  0  0  0
 35 36  1  0  0  0
M  END
> <minimizedAffinity>
-7.85214

> <CNNscore>
0.3629184067

> <CNNaffinity>
7.7844071388

> <CNN_VS>
2.8251047134

> <CNNaffinity_variance>
0.7431811690

$$$$
/media/chris/experiments/cd1a-new-docking/inputs/ligands/7ryo_ligand.pdb


 65 67  0  0  0  0  0  0  0  0999 V2000
  -36.3336   58.9012   62.4568 C   0  0  0  0  0  0  0  0  0  0  0  0
  -34.9174   59.2125   62.3572 N   0  0  0  0  0  0  0  0  0  0  0  0
  -34.3355   57.0932   61.8844 O   0  0  0  0  0  0  0  0  0  0  0  0
  -34.0257   58.2599   62.0737 C   0  0  0  0  0  0  0  0  0  0  0  0
  -34.6119   60.1372   62.5004 H   0  0  0  0  0  0  0  0  0  0  0  0
  -32.4327   60.0852   61.6238 N   0  0  0  0  0  0  0  0  0  0  0  0
  -31.1901   59.8940   63.4953 O   0  0  0  0  0  0  0  0  0  0  0  0
  -32.5449   58.6689   62.0100 C   0  0  0  0  0  0  0  0  0  0  0  0
  -31.8405   57.8111   60.9632 C   0  0  0  0  0  0  0  0  0  0  0  0
  -31.8354   58.6013   63.3703 C   0  0  0  0  0  0  0  0  0  0  0  0
  -31.6905   60.6502   62.4837 C   0  0  0  0  0  0  0  0  0  0  0  0
  -30.9398   62.0767   60.0994 O   0  0  0  0  0  0  0  0  0  0  0  0
  -31.3032   62.0628   62.4959 C   0  0  0  0  0  0  0  0  0  0  0  0
  -31.4253   62.8128   63.6663 C   0  0  0  0  0  0  0  0  0  0  0  0
  -31.2981   64.1909   63.6339 C   0  0  0  0  0  0  0  0  0  0  0  0
  -31.0487   64.8407   62.4447 C   0  0  0  0  0  0  0  0  0  0  0  0
  -30.9278   64.1211   61.2698 C   0  0  0  0  0  0  0  0  0  0  0  0
  -31.0547   62.7356   61.2818 C   0  0  0  0  0  0  0  0  0  0  0  0
  -31.0201   61.1436   60.0733 H   0  0  0  0  0  0  0  0  0  0  0  0
  -35.8765   58.0907   64.6873 O   0  0  0  0  0  0  0  0  0  0  0  0
  -36.6730   58.3087   63.8164 C   0  0  0  0  0  0  0  0  0  0  0  0
  -37.9881   58.0429   63.9002 O   0  0  0  0  0  0  0  0  0  0  0  0
  -38.7356   58.6003   65.0316 C   0  0  0  0  0  0  0  0  0  0  0  0
  -40.0693   57.9003   65.1014 C   0  0  0  0  0  0  0  0  0  0  0  0
  -38.8762   60.0812   64.7372 C   0  0  0  0  0  0  0  0  0  0  0  0
  -36.9593   61.5522   64.7994 N   0  0  0  0  0  0  0  0  0  0  0  0
  -37.9841   61.0475   66.7377 O   0  0  0  0  0  0  0  0  0  0  0  0
  -37.9002   60.9329   65.5181 C   0  0  0  0  0  0  0  0  0  0  0  0
  -36.9407   61.4231   63.8236 H   0  0  0  0  0  0  0  0  0  0  0  0
  -34.5563   64.2544   64.6698 N   0  0  0  0  0  0  0  0  0  0  0  0
  -35.2750   62.7686   63.1510 O   0  0  0  0  0  0  0  0  0  0  0  0
  -35.9632   62.4104   65.4166 C   0  0  0  0  0  0  0  0  0  0  0  0
  -34.9607   61.5666   66.2118 C   0  0  0  0  0  0  0  0  0  0  0  0
  -34.1705   62.3663   67.2421 C   0  0  0  0  0  0  0  0  0  0  0  0
  -33.3005   63.4730   66.6800 C   0  0  0  0  0  0  0  0  0  0  0  0
  -34.0731   64.5872   66.0056 C   0  0  0  0  0  0  0  0  0  0  0  0
  -35.2339   63.1609   64.3135 C   0  0  0  0  0  0  0  0  0  0  0  0
  -34.3622   64.9045   63.9564 H   0  0  0  0  0  0  0  0  0  0  0  0
  -36.7783   57.9693   61.3285 C   0  0  0  0  0  0  0  0  0  0  0  0
  -37.4129   58.7262   60.1668 C   0  0  0  0  0  0  0  0  0  0  0  0
  -38.4191   59.7707   60.6132 C   0  0  0  0  0  0  0  0  0  0  0  0
  -39.8578   59.3021   60.6187 C   0  0  0  0  0  0  0  0  0  0  0  0
  -40.4930   59.5519   59.3345 N   0  0  0  0  0  0  0  0  0  0  0  0
  -41.5890   57.5793   59.2996 O   0  0  0  0  0  0  0  0  0  0  0  0
  -41.3178   58.6668   58.7645 C   0  0  0  0  0  0  0  0  0  0  0  0
  -40.3098   60.4002   58.8697 H   0  0  0  0  0  0  0  0  0  0  0  0
  -43.0355   58.8448   56.9781 C   0  0  0  0  0  0  0  0  0  0  0  0
  -41.8052   59.0604   57.4237 C   0  0  0  0  0  0  0  0  0  0  0  0
  -44.1733   58.1979   57.7044 C   0  0  0  0  0  0  0  0  0  0  0  0
  -45.5079   58.4758   57.0236 C   0  0  0  0  0  0  0  0  0  0  0  0
  -46.6140   57.5161   57.4271 C   0  0  0  0  0  0  0  0  0  0  0  0
  -46.7850   57.3830   58.9312 C   0  0  0  0  0  0  0  0  0  0  0  0
  -48.0376   58.0401   59.4794 C   0  0  0  0  0  0  0  0  0  0  0  0
  -49.2968   57.2171   59.2637 C   0  0  0  0  0  0  0  0  0  0  0  0
  -50.4249   57.5766   60.2107 C   0  0  0  0  0  0  0  0  0  0  0  0
  -49.9389   58.1886   61.5092 C   0  0  0  0  0  0  0  0  0  0  0  0
  -51.0314   58.4372   62.5314 C   0  0  0  0  0  0  0  0  0  0  0  0
  -51.1761   59.9032   62.8891 C   0  0  0  0  0  0  0  0  0  0  0  0
  -50.2051   60.3554   63.9675 C   0  0  0  0  0  0  0  0  0  0  0  0
  -50.7917   60.3629   65.3684 C   0  0  0  0  0  0  0  0  0  0  0  0
  -50.0368   59.4979   66.3658 C   0  0  0  0  0  0  0  0  0  0  0  0
  -49.9593   58.0286   65.9742 C   0  0  0  0  0  0  0  0  0  0  0  0
  -48.5360   57.5044   65.8714 C   0  0  0  0  0  0  0  0  0  0  0  0
  -46.7113   58.9535   64.8984 C   0  0  0  0  0  0  0  0  0  0  0  0
  -47.7936   57.9431   64.6223 C   0  0  0  0  0  0  0  0  0  0  0  0
 43 45  1  0  0  0
 43 42  1  0  0  0
 43 46  1  0  0  0
 64 65  1  0  0  0
 44 45  2  0  0  0
 65 63  1  0  0  0
  2  1  1  0  0  0
  2  4  1  0  0  0
  2  5  1  0  0  0
  3  4  2  0  0  0
 63 62  1  0  0  0
  6  8  1  0  0  0
  6 11  2  0  0  0
  7 10  1  0  0  0
  7 11  1  0  0  0
 62 61  1  0  0  0
 26 28  1  0  0  0
 26 32  1  0  0  0
 26 29  1  0  0  0
 12 18  1  0  0  0
 12 19  1  0  0  0
 61 60  1  0  0  0
 30 36  1  0  0  0
 30 37  1  0  0  0
 30 38  1  0  0  0
 20 21  2  0  0  0
 60 59  1  0  0  0
 22 21  1  0  0  0
 22 23  1  0  0  0
 59 58  1  0  0  0
 27 28  2  0  0  0
 58 57  1  0  0  0
 31 37  2  0  0  0
 57 56  1  0  0  0
 56 55  1  0  0  0
 55 54  1  0  0  0
 54 53  1  0  0  0
 53 52  1  0  0  0
 52 51  1  0  0  0
 51 50  1  0  0  0
 50 49  1  0  0  0
 49 47  1  0  0  0
 47 48  2  0  0  0
 48 45  1  0  0  0
 42 41  1  0  0  0
 41 40  1  0  0  0
 40 39  1  0  0  0
 39  1  1  0  0  0
  1 21  1  0  0  0
  8  4  1  0  0  0
  8  9  1  0  0  0
  8 10  1  0  0  0
 11 13  1  0  0  0
 13 14  2  0  0  0
 13 18  1  0  0  0
 14 15  1  0  0  0
 15 16  2  0  0  0
 16 17  1  0  0  0
 17 18  2  0  0  0
 23 24  1  0  0  0
 23 25  1  0  0  0
 25 28  1  0  0  0
 32 33  1  0  0  0
 32 37  1  0  0  0
 33 34  1  0  0  0
 34 35  1  0  0  0
 35 36  1  0  0  0
M  END
> <minimizedAffinity>
-8.21042

> <CNNscore>
0.2376191467

> <CNNaffinity>
6.8512864113

> <CNN_VS>
1.6279968023

> <CNNaffinity_variance>
0.4949575961

$$$$
/media/chris/experiments/cd1a-new-docking/inputs/ligands/7ryo_ligand.pdb


 65 67  0  0  0  0  0  0  0  0999 V2000
  -35.7432   59.7119   65.3203 C   0  0  0  0  0  0  0  0  0  0  0  0
  -35.1139   61.0142   65.1779 N   0  0  0  0  0  0  0  0  0  0  0  0
  -36.0842   61.8476   67.0266 O   0  0  0  0  0  0  0  0  0  0  0  0
  -35.3457   61.9867   66.0630 C   0  0  0  0  0  0  0  0  0  0  0  0
  -34.5091   61.1814   64.4194 H   0  0  0  0  0  0  0  0  0  0  0  0
  -33.4285   63.1491   65.0408 N   0  0  0  0  0  0  0  0  0  0  0  0
  -34.5740   64.7497   63.9413 O   0  0  0  0  0  0  0  0  0  0  0  0
  -34.6588   63.3418   65.8262 C   0  0  0  0  0  0  0  0  0  0  0  0
  -34.2962   63.9539   67.1759 C   0  0  0  0  0  0  0  0  0  0  0  0
  -35.4937   64.3064   64.9713 C   0  0  0  0  0  0  0  0  0  0  0  0
  -33.4844   63.9465   64.0556 C   0  0  0  0  0  0  0  0  0  0  0  0
  -32.4710   61.7213   62.5374 O   0  0  0  0  0  0  0  0  0  0  0  0
  -32.4710   64.0989   63.0090 C   0  0  0  0  0  0  0  0  0  0  0  0
  -32.0610   65.3718   62.6108 C   0  0  0  0  0  0  0  0  0  0  0  0
  -31.2958   65.5381   61.4693 C   0  0  0  0  0  0  0  0  0  0  0  0
  -30.9283   64.4480   60.7108 C   0  0  0  0  0  0  0  0  0  0  0  0
  -31.3255   63.1761   61.0812 C   0  0  0  0  0  0  0  0  0  0  0  0
  -32.0966   62.9890   62.2240 C   0  0  0  0  0  0  0  0  0  0  0  0
  -32.9906   61.5614   63.3005 H   0  0  0  0  0  0  0  0  0  0  0  0
  -34.6027   57.5864   65.4705 O   0  0  0  0  0  0  0  0  0  0  0  0
  -34.8142   58.5981   64.8607 C   0  0  0  0  0  0  0  0  0  0  0  0
  -34.2452   58.9139   63.6843 O   0  0  0  0  0  0  0  0  0  0  0  0
  -33.6371   57.8356   62.8987 C   0  0  0  0  0  0  0  0  0  0  0  0
  -32.1461   58.0586   62.8737 C   0  0  0  0  0  0  0  0  0  0  0  0
  -34.2585   57.9363   61.5191 C   0  0  0  0  0  0  0  0  0  0  0  0
  -36.3622   59.0133   61.0121 N   0  0  0  0  0  0  0  0  0  0  0  0
  -36.4047   57.0132   62.0415 O   0  0  0  0  0  0  0  0  0  0  0  0
  -35.7706   57.9441   61.5526 C   0  0  0  0  0  0  0  0  0  0  0  0
  -35.8023   59.7296   60.6346 H   0  0  0  0  0  0  0  0  0  0  0  0
  -39.5063   59.0468   59.2213 N   0  0  0  0  0  0  0  0  0  0  0  0
  -37.4098   59.5999   58.6473 O   0  0  0  0  0  0  0  0  0  0  0  0
  -37.8075   59.1488   60.9653 C   0  0  0  0  0  0  0  0  0  0  0  0
  -38.2452   60.3951   61.7427 C   0  0  0  0  0  0  0  0  0  0  0  0
  -39.7184   60.3837   62.1365 C   0  0  0  0  0  0  0  0  0  0  0  0
  -40.7009   60.3503   60.9827 C   0  0  0  0  0  0  0  0  0  0  0  0
  -40.6333   59.0894   60.1470 C   0  0  0  0  0  0  0  0  0  0  0  0
  -38.2249   59.2851   59.5095 C   0  0  0  0  0  0  0  0  0  0  0  0
  -39.7126   58.8186   58.2861 H   0  0  0  0  0  0  0  0  0  0  0  0
  -37.0763   59.6544   64.5730 C   0  0  0  0  0  0  0  0  0  0  0  0
  -38.2153   59.1552   65.4556 C   0  0  0  0  0  0  0  0  0  0  0  0
  -38.9568   60.2742   66.1632 C   0  0  0  0  0  0  0  0  0  0  0  0
  -40.4570   60.2630   65.9663 C   0  0  0  0  0  0  0  0  0  0  0  0
  -40.9508   58.9059   65.7948 N   0  0  0  0  0  0  0  0  0  0  0  0
  -42.3461   59.4444   64.1045 O   0  0  0  0  0  0  0  0  0  0  0  0
  -41.8653   58.5931   64.8704 C   0  0  0  0  0  0  0  0  0  0  0  0
  -40.6004   58.1944   66.3781 H   0  0  0  0  0  0  0  0  0  0  0  0
  -43.5696   56.7853   64.8979 C   0  0  0  0  0  0  0  0  0  0  0  0
  -42.3035   57.1797   64.8975 C   0  0  0  0  0  0  0  0  0  0  0  0
  -44.7965   57.6416   64.8535 C   0  0  0  0  0  0  0  0  0  0  0  0
  -45.3646   57.8859   66.2462 C   0  0  0  0  0  0  0  0  0  0  0  0
  -46.7076   57.2185   66.4867 C   0  0  0  0  0  0  0  0  0  0  0  0
  -47.8463   57.8405   65.6957 C   0  0  0  0  0  0  0  0  0  0  0  0
  -48.2562   59.2221   66.1697 C   0  0  0  0  0  0  0  0  0  0  0  0
  -49.7615   59.4065   66.2677 C   0  0  0  0  0  0  0  0  0  0  0  0
  -50.5152   58.8865   65.0594 C   0  0  0  0  0  0  0  0  0  0  0  0
  -50.5243   59.8615   63.8992 C   0  0  0  0  0  0  0  0  0  0  0  0
  -50.9337   59.2516   62.5723 C   0  0  0  0  0  0  0  0  0  0  0  0
  -49.9693   58.1831   62.0967 C   0  0  0  0  0  0  0  0  0  0  0  0
  -50.5422   57.3062   60.9953 C   0  0  0  0  0  0  0  0  0  0  0  0
  -49.5629   56.9934   59.8773 C   0  0  0  0  0  0  0  0  0  0  0  0
  -48.4748   58.0392   59.6898 C   0  0  0  0  0  0  0  0  0  0  0  0
  -47.1856   57.4891   59.0954 C   0  0  0  0  0  0  0  0  0  0  0  0
  -46.8563   58.0651   57.7275 C   0  0  0  0  0  0  0  0  0  0  0  0
  -47.2175   55.6862   56.9617 C   0  0  0  0  0  0  0  0  0  0  0  0
  -47.1630   57.1382   56.5652 C   0  0  0  0  0  0  0  0  0  0  0  0
 43 45  1  0  0  0
 43 42  1  0  0  0
 43 46  1  0  0  0
 64 65  1  0  0  0
 44 45  2  0  0  0
 65 63  1  0  0  0
  2  1  1  0  0  0
  2  4  1  0  0  0
  2  5  1  0  0  0
  3  4  2  0  0  0
 63 62  1  0  0  0
  6  8  1  0  0  0
  6 11  2  0  0  0
  7 10  1  0  0  0
  7 11  1  0  0  0
 62 61  1  0  0  0
 26 28  1  0  0  0
 26 32  1  0  0  0
 26 29  1  0  0  0
 12 18  1  0  0  0
 12 19  1  0  0  0
 61 60  1  0  0  0
 30 36  1  0  0  0
 30 37  1  0  0  0
 30 38  1  0  0  0
 20 21  2  0  0  0
 60 59  1  0  0  0
 22 21  1  0  0  0
 22 23  1  0  0  0
 59 58  1  0  0  0
 27 28  2  0  0  0
 58 57  1  0  0  0
 31 37  2  0  0  0
 57 56  1  0  0  0
 56 55  1  0  0  0
 55 54  1  0  0  0
 54 53  1  0  0  0
 53 52  1  0  0  0
 52 51  1  0  0  0
 51 50  1  0  0  0
 50 49  1  0  0  0
 49 47  1  0  0  0
 47 48  2  0  0  0
 48 45  1  0  0  0
 42 41  1  0  0  0
 41 40  1  0  0  0
 40 39  1  0  0  0
 39  1  1  0  0  0
  1 21  1  0  0  0
  8  4  1  0  0  0
  8  9  1  0  0  0
  8 10  1  0  0  0
 11 13  1  0  0  0
 13 14  2  0  0  0
 13 18  1  0  0  0
 14 15  1  0  0  0
 15 16  2  0  0  0
 16 17  1  0  0  0
 17 18  2  0  0  0
 23 24  1  0  0  0
 23 25  1  0  0  0
 25 28  1  0  0  0
 32 33  1  0  0  0
 32 37  1  0  0  0
 33 34  1  0  0  0
 34 35  1  0  0  0
 35 36  1  0  0  0
M  END
> <minimizedAffinity>
-10.16715

> <CNNscore>
0.2354349941

> <CNNaffinity>
7.4659662247

> <CNN_VS>
1.7577496767

> <CNNaffinity_variance>
1.0509495735

$$$$
/media/chris/experiments/cd1a-new-docking/inputs/ligands/7ryo_ligand.pdb


 65 67  0  0  0  0  0  0  0  0999 V2000
  -37.8493   57.7985   61.1501 C   0  0  0  0  0  0  0  0  0  0  0  0
  -36.4060   57.8263   61.3196 N   0  0  0  0  0  0  0  0  0  0  0  0
  -36.5108   57.4140   63.5270 O   0  0  0  0  0  0  0  0  0  0  0  0
  -35.8539   57.6272   62.5189 C   0  0  0  0  0  0  0  0  0  0  0  0
  -35.8284   57.9940   60.5403 H   0  0  0  0  0  0  0  0  0  0  0  0
  -33.8304   58.9077   61.9380 N   0  0  0  0  0  0  0  0  0  0  0  0
  -32.8913   58.9689   63.9867 O   0  0  0  0  0  0  0  0  0  0  0  0
  -34.3210   57.6963   62.6159 C   0  0  0  0  0  0  0  0  0  0  0  0
  -33.7273   56.4687   61.9316 C   0  0  0  0  0  0  0  0  0  0  0  0
  -33.8081   57.8474   64.0556 C   0  0  0  0  0  0  0  0  0  0  0  0
  -33.0778   59.5169   62.7577 C   0  0  0  0  0  0  0  0  0  0  0  0
  -30.9653   59.7518   60.8172 O   0  0  0  0  0  0  0  0  0  0  0  0
  -32.3682   60.7739   62.5090 C   0  0  0  0  0  0  0  0  0  0  0  0
  -32.7991   61.9538   63.1168 C   0  0  0  0  0  0  0  0  0  0  0  0
  -32.2991   63.1780   62.7074 C   0  0  0  0  0  0  0  0  0  0  0  0
  -31.3682   63.2477   61.6938 C   0  0  0  0  0  0  0  0  0  0  0  0
  -30.9280   62.0935   61.0720 C   0  0  0  0  0  0  0  0  0  0  0  0
  -31.4205   60.8540   61.4680 C   0  0  0  0  0  0  0  0  0  0  0  0
  -31.2771   58.9023   61.0598 H   0  0  0  0  0  0  0  0  0  0  0  0
  -38.5714   59.9622   60.3514 O   0  0  0  0  0  0  0  0  0  0  0  0
  -38.4443   59.1941   61.2647 C   0  0  0  0  0  0  0  0  0  0  0  0
  -38.7894   59.4567   62.5371 O   0  0  0  0  0  0  0  0  0  0  0  0
  -38.2579   60.6723   63.1611 C   0  0  0  0  0  0  0  0  0  0  0  0
  -37.0063   61.0696   62.4199 C   0  0  0  0  0  0  0  0  0  0  0  0
  -37.9800   60.3011   64.6049 C   0  0  0  0  0  0  0  0  0  0  0  0
  -36.5493   62.1595   65.1895 N   0  0  0  0  0  0  0  0  0  0  0  0
  -35.7407   60.0727   65.4200 O   0  0  0  0  0  0  0  0  0  0  0  0
  -36.6542   60.8302   65.1050 C   0  0  0  0  0  0  0  0  0  0  0  0
  -37.3153   62.7175   64.9228 H   0  0  0  0  0  0  0  0  0  0  0  0
  -34.3003   63.1685   67.8385 N   0  0  0  0  0  0  0  0  0  0  0  0
  -36.5212   62.8696   67.7447 O   0  0  0  0  0  0  0  0  0  0  0  0
  -35.3377   62.8049   65.6638 C   0  0  0  0  0  0  0  0  0  0  0  0
  -35.1933   64.1900   65.0234 C   0  0  0  0  0  0  0  0  0  0  0  0
  -33.7761   64.7490   65.0894 C   0  0  0  0  0  0  0  0  0  0  0  0
  -33.2272   64.9699   66.4850 C   0  0  0  0  0  0  0  0  0  0  0  0
  -33.0563   63.7002   67.2922 C   0  0  0  0  0  0  0  0  0  0  0  0
  -35.4374   62.9510   67.1741 C   0  0  0  0  0  0  0  0  0  0  0  0
  -34.3011   62.9470   68.7978 H   0  0  0  0  0  0  0  0  0  0  0  0
  -38.5071   56.8409   62.1448 C   0  0  0  0  0  0  0  0  0  0  0  0
  -40.0208   56.7748   61.9724 C   0  0  0  0  0  0  0  0  0  0  0  0
  -40.7456   56.3248   63.2273 C   0  0  0  0  0  0  0  0  0  0  0  0
  -42.2207   56.6599   63.2609 C   0  0  0  0  0  0  0  0  0  0  0  0
  -42.6548   56.9698   64.6139 N   0  0  0  0  0  0  0  0  0  0  0  0
  -42.1961   59.1728   64.4399 O   0  0  0  0  0  0  0  0  0  0  0  0
  -42.6108   58.2117   65.1083 C   0  0  0  0  0  0  0  0  0  0  0  0
  -42.9921   56.2417   65.1842 H   0  0  0  0  0  0  0  0  0  0  0  0
  -44.2340   58.0484   66.9824 C   0  0  0  0  0  0  0  0  0  0  0  0
  -43.0184   58.3198   66.5270 C   0  0  0  0  0  0  0  0  0  0  0  0
  -45.4197   57.5718   66.2030 C   0  0  0  0  0  0  0  0  0  0  0  0
  -46.6058   58.5177   66.3456 C   0  0  0  0  0  0  0  0  0  0  0  0
  -47.6937   58.2981   65.3087 C   0  0  0  0  0  0  0  0  0  0  0  0
  -48.9011   57.5463   65.8437 C   0  0  0  0  0  0  0  0  0  0  0  0
  -50.1406   58.4017   66.0267 C   0  0  0  0  0  0  0  0  0  0  0  0
  -49.9452   59.8486   65.6049 C   0  0  0  0  0  0  0  0  0  0  0  0
  -51.1764   60.4662   64.9714 C   0  0  0  0  0  0  0  0  0  0  0  0
  -51.1763   60.3746   63.4586 C   0  0  0  0  0  0  0  0  0  0  0  0
  -50.7545   59.0237   62.9134 C   0  0  0  0  0  0  0  0  0  0  0  0
  -49.6645   59.1296   61.8652 C   0  0  0  0  0  0  0  0  0  0  0  0
  -48.9150   57.8256   61.6463 C   0  0  0  0  0  0  0  0  0  0  0  0
  -49.0345   57.2688   60.2384 C   0  0  0  0  0  0  0  0  0  0  0  0
  -48.4427   58.1641   59.1608 C   0  0  0  0  0  0  0  0  0  0  0  0
  -46.9936   57.8446   58.8198 C   0  0  0  0  0  0  0  0  0  0  0  0
  -46.7157   57.8179   57.3254 C   0  0  0  0  0  0  0  0  0  0  0  0
  -47.4050   55.4188   56.9439 C   0  0  0  0  0  0  0  0  0  0  0  0
  -47.5914   56.8580   56.5406 C   0  0  0  0  0  0  0  0  0  0  0  0
 43 45  1  0  0  0
 43 42  1  0  0  0
 43 46  1  0  0  0
 64 65  1  0  0  0
 44 45  2  0  0  0
 65 63  1  0  0  0
  2  1  1  0  0  0
  2  4  1  0  0  0
  2  5  1  0  0  0
  3  4  2  0  0  0
 63 62  1  0  0  0
  6  8  1  0  0  0
  6 11  2  0  0  0
  7 10  1  0  0  0
  7 11  1  0  0  0
 62 61  1  0  0  0
 26 28  1  0  0  0
 26 32  1  0  0  0
 26 29  1  0  0  0
 12 18  1  0  0  0
 12 19  1  0  0  0
 61 60  1  0  0  0
 30 36  1  0  0  0
 30 37  1  0  0  0
 30 38  1  0  0  0
 20 21  2  0  0  0
 60 59  1  0  0  0
 22 21  1  0  0  0
 22 23  1  0  0  0
 59 58  1  0  0  0
 27 28  2  0  0  0
 58 57  1  0  0  0
 31 37  2  0  0  0
 57 56  1  0  0  0
 56 55  1  0  0  0
 55 54  1  0  0  0
 54 53  1  0  0  0
 53 52  1  0  0  0
 52 51  1  0  0  0
 51 50  1  0  0  0
 50 49  1  0  0  0
 49 47  1  0  0  0
 47 48  2  0  0  0
 48 45  1  0  0  0
 42 41  1  0  0  0
 41 40  1  0  0  0
 40 39  1  0  0  0
 39  1  1  0  0  0
  1 21  1  0  0  0
  8  4  1  0  0  0
  8  9  1  0  0  0
  8 10  1  0  0  0
 11 13  1  0  0  0
 13 14  2  0  0  0
 13 18  1  0  0  0
 14 15  1  0  0  0
 15 16  2  0  0  0
 16 17  1  0  0  0
 17 18  2  0  0  0
 23 24  1  0  0  0
 23 25  1  0  0  0
 25 28  1  0  0  0
 32 33  1  0  0  0
 32 37  1  0  0  0
 33 34  1  0  0  0
 34 35  1  0  0  0
 35 36  1  0  0  0
M  END
> <minimizedAffinity>
-9.87727

> <CNNscore>
0.1919999123

> <CNNaffinity>
7.3249464035

> <CNN_VS>
1.4063891172

> <CNNaffinity_variance>
0.8736734390

$$$$
/media/chris/experiments/cd1a-new-docking/inputs/ligands/7ryo_ligand.pdb


 65 67  0  0  0  0  0  0  0  0999 V2000
  -39.0422   60.1643   65.0400 C   0  0  0  0  0  0  0  0  0  0  0  0
  -38.2123   59.5815   63.9987 N   0  0  0  0  0  0  0  0  0  0  0  0
  -39.4417   60.4506   62.3294 O   0  0  0  0  0  0  0  0  0  0  0  0
  -38.4924   59.7812   62.7086 C   0  0  0  0  0  0  0  0  0  0  0  0
  -37.4340   59.0327   64.2479 H   0  0  0  0  0  0  0  0  0  0  0  0
  -36.1710   59.4323   61.9598 N   0  0  0  0  0  0  0  0  0  0  0  0
  -36.2264   57.1854   61.7818 O   0  0  0  0  0  0  0  0  0  0  0  0
  -37.5781   59.1098   61.6707 C   0  0  0  0  0  0  0  0  0  0  0  0
  -37.9343   59.6377   60.2842 C   0  0  0  0  0  0  0  0  0  0  0  0
  -37.6220   57.5755   61.7224 C   0  0  0  0  0  0  0  0  0  0  0  0
  -35.5359   58.3347   62.0004 C   0  0  0  0  0  0  0  0  0  0  0  0
  -34.1985   59.6227   64.1995 O   0  0  0  0  0  0  0  0  0  0  0  0
  -34.1028   58.1749   62.2578 C   0  0  0  0  0  0  0  0  0  0  0  0
  -33.3547   57.2620   61.5134 C   0  0  0  0  0  0  0  0  0  0  0  0
  -32.0698   56.9243   61.9022 C   0  0  0  0  0  0  0  0  0  0  0  0
  -31.5119   57.4859   63.0301 C   0  0  0  0  0  0  0  0  0  0  0  0
  -32.2338   58.3898   63.7880 C   0  0  0  0  0  0  0  0  0  0  0  0
  -33.5275   58.7401   63.4145 C   0  0  0  0  0  0  0  0  0  0  0  0
  -35.0714   59.8792   63.9756 H   0  0  0  0  0  0  0  0  0  0  0  0
  -38.1775   60.4240   67.2818 O   0  0  0  0  0  0  0  0  0  0  0  0
  -38.1922   60.7864   66.1379 C   0  0  0  0  0  0  0  0  0  0  0  0
  -37.4740   61.8142   65.6531 O   0  0  0  0  0  0  0  0  0  0  0  0
  -36.2456   62.1930   66.3582 C   0  0  0  0  0  0  0  0  0  0  0  0
  -36.5503   62.2441   67.8341 C   0  0  0  0  0  0  0  0  0  0  0  0
  -35.8582   63.5495   65.8020 C   0  0  0  0  0  0  0  0  0  0  0  0
  -34.4982   63.6538   63.8066 N   0  0  0  0  0  0  0  0  0  0  0  0
  -33.4658   63.4648   65.7966 O   0  0  0  0  0  0  0  0  0  0  0  0
  -34.4990   63.5485   65.1386 C   0  0  0  0  0  0  0  0  0  0  0  0
  -35.3581   63.7177   63.3316 H   0  0  0  0  0  0  0  0  0  0  0  0
  -32.4825   64.8342   61.0430 N   0  0  0  0  0  0  0  0  0  0  0  0
  -34.6875   64.5184   61.3066 O   0  0  0  0  0  0  0  0  0  0  0  0
  -33.2651   63.6768   63.0396 C   0  0  0  0  0  0  0  0  0  0  0  0
  -32.7867   62.2461   62.7680 C   0  0  0  0  0  0  0  0  0  0  0  0
  -31.3138   62.1569   62.3834 C   0  0  0  0  0  0  0  0  0  0  0  0
  -30.9277   62.8830   61.1102 C   0  0  0  0  0  0  0  0  0  0  0  0
  -31.1005   64.3860   61.1767 C   0  0  0  0  0  0  0  0  0  0  0  0
  -33.5398   64.3801   61.7197 C   0  0  0  0  0  0  0  0  0  0  0  0
  -32.6532   65.5459   60.3847 H   0  0  0  0  0  0  0  0  0  0  0  0
  -40.0129   59.1338   65.6186 C   0  0  0  0  0  0  0  0  0  0  0  0
  -41.4447   59.3539   65.1424 C   0  0  0  0  0  0  0  0  0  0  0  0
  -41.9241   58.2854   64.1775 C   0  0  0  0  0  0  0  0  0  0  0  0
  -42.4062   57.0101   64.8338 C   0  0  0  0  0  0  0  0  0  0  0  0
  -43.3235   57.2990   65.9247 N   0  0  0  0  0  0  0  0  0  0  0  0
  -45.1341   57.4603   64.5872 O   0  0  0  0  0  0  0  0  0  0  0  0
  -44.6292   57.5044   65.7210 C   0  0  0  0  0  0  0  0  0  0  0  0
  -42.9717   57.3447   66.8431 H   0  0  0  0  0  0  0  0  0  0  0  0
  -46.7015   58.0501   66.9784 C   0  0  0  0  0  0  0  0  0  0  0  0
  -45.3893   57.8626   66.9393 C   0  0  0  0  0  0  0  0  0  0  0  0
  -47.6788   57.9293   65.8510 C   0  0  0  0  0  0  0  0  0  0  0  0
  -48.9822   58.6585   66.1538 C   0  0  0  0  0  0  0  0  0  0  0  0
  -49.0618   60.0494   65.5488 C   0  0  0  0  0  0  0  0  0  0  0  0
  -50.4841   60.5288   65.3110 C   0  0  0  0  0  0  0  0  0  0  0  0
  -50.9197   60.5001   63.8581 C   0  0  0  0  0  0  0  0  0  0  0  0
  -51.1715   59.0978   63.3293 C   0  0  0  0  0  0  0  0  0  0  0  0
  -50.0220   58.5440   62.5104 C   0  0  0  0  0  0  0  0  0  0  0  0
  -49.9286   59.1556   61.1269 C   0  0  0  0  0  0  0  0  0  0  0  0
  -49.4557   58.1982   60.0500 C   0  0  0  0  0  0  0  0  0  0  0  0
  -49.0397   56.8507   60.6060 C   0  0  0  0  0  0  0  0  0  0  0  0
  -48.9199   55.7738   59.5401 C   0  0  0  0  0  0  0  0  0  0  0  0
  -47.5366   55.6612   58.9232 C   0  0  0  0  0  0  0  0  0  0  0  0
  -47.5406   55.4281   57.4203 C   0  0  0  0  0  0  0  0  0  0  0  0
  -48.2248   56.5322   56.6261 C   0  0  0  0  0  0  0  0  0  0  0  0
  -47.2896   57.6660   56.2374 C   0  0  0  0  0  0  0  0  0  0  0  0
  -45.1035   58.2475   57.3594 C   0  0  0  0  0  0  0  0  0  0  0  0
  -46.6056   58.3459   57.4095 C   0  0  0  0  0  0  0  0  0  0  0  0
 43 45  1  0  0  0
 43 42  1  0  0  0
 43 46  1  0  0  0
 64 65  1  0  0  0
 44 45  2  0  0  0
 65 63  1  0  0  0
  2  1  1  0  0  0
  2  4  1  0  0  0
  2  5  1  0  0  0
  3  4  2  0  0  0
 63 62  1  0  0  0
  6  8  1  0  0  0
  6 11  2  0  0  0
  7 10  1  0  0  0
  7 11  1  0  0  0
 62 61  1  0  0  0
 26 28  1  0  0  0
 26 32  1  0  0  0
 26 29  1  0  0  0
 12 18  1  0  0  0
 12 19  1  0  0  0
 61 60  1  0  0  0
 30 36  1  0  0  0
 30 37  1  0  0  0
 30 38  1  0  0  0
 20 21  2  0  0  0
 60 59  1  0  0  0
 22 21  1  0  0  0
 22 23  1  0  0  0
 59 58  1  0  0  0
 27 28  2  0  0  0
 58 57  1  0  0  0
 31 37  2  0  0  0
 57 56  1  0  0  0
 56 55  1  0  0  0
 55 54  1  0  0  0
 54 53  1  0  0  0
 53 52  1  0  0  0
 52 51  1  0  0  0
 51 50  1  0  0  0
 50 49  1  0  0  0
 49 47  1  0  0  0
 47 48  2  0  0  0
 48 45  1  0  0  0
 42 41  1  0  0  0
 41 40  1  0  0  0
 40 39  1  0  0  0
 39  1  1  0  0  0
  1 21  1  0  0  0
  8  4  1  0  0  0
  8  9  1  0  0  0
  8 10  1  0  0  0
 11 13  1  0  0  0
 13 14  2  0  0  0
 13 18  1  0  0  0
 14 15  1  0  0  0
 15 16  2  0  0  0
 16 17  1  0  0  0
 17 18  2  0  0  0
 23 24  1  0  0  0
 23 25  1  0  0  0
 25 28  1  0  0  0
 32 33  1  0  0  0
 32 37  1  0  0  0
 33 34  1  0  0  0
 34 35  1  0  0  0
 35 36  1  0  0  0
M  END
> <minimizedAffinity>
-9.56712

> <CNNscore>
0.1801550835

> <CNNaffinity>
7.0795884132

> <CNN_VS>
1.2754238844

> <CNNaffinity_variance>
0.9614788890

$$$$
/media/chris/experiments/cd1a-new-docking/inputs/ligands/7ryo_ligand.pdb


 65 67  0  0  0  0  0  0  0  0999 V2000
  -38.4977   57.4868   64.4932 C   0  0  0  0  0  0  0  0  0  0  0  0
  -37.4727   58.1624   63.7152 N   0  0  0  0  0  0  0  0  0  0  0  0
  -35.7831   57.0832   64.7322 O   0  0  0  0  0  0  0  0  0  0  0  0
  -36.1790   57.8944   63.9085 C   0  0  0  0  0  0  0  0  0  0  0  0
  -37.7356   58.8260   63.0372 H   0  0  0  0  0  0  0  0  0  0  0  0
  -35.4354   60.1139   63.1389 N   0  0  0  0  0  0  0  0  0  0  0  0
  -33.2491   59.9146   63.6518 O   0  0  0  0  0  0  0  0  0  0  0  0
  -35.1580   58.6702   63.0601 C   0  0  0  0  0  0  0  0  0  0  0  0
  -35.2789   58.2193   61.6076 C   0  0  0  0  0  0  0  0  0  0  0  0
  -33.7168   58.5440   63.5756 C   0  0  0  0  0  0  0  0  0  0  0  0
  -34.3511   60.6866   63.4642 C   0  0  0  0  0  0  0  0  0  0  0  0
  -36.2892   62.3513   64.7892 O   0  0  0  0  0  0  0  0  0  0  0  0
  -34.1581   62.1257   63.6567 C   0  0  0  0  0  0  0  0  0  0  0  0
  -32.9407   62.7203   63.3225 C   0  0  0  0  0  0  0  0  0  0  0  0
  -32.6591   64.0158   63.7207 C   0  0  0  0  0  0  0  0  0  0  0  0
  -33.5780   64.7361   64.4525 C   0  0  0  0  0  0  0  0  0  0  0  0
  -34.7901   64.1684   64.8006 C   0  0  0  0  0  0  0  0  0  0  0  0
  -35.0905   62.8669   64.4115 C   0  0  0  0  0  0  0  0  0  0  0  0
  -36.5219   61.4777   64.5433 H   0  0  0  0  0  0  0  0  0  0  0  0
  -39.7298   56.7181   62.5614 O   0  0  0  0  0  0  0  0  0  0  0  0
  -39.7371   57.2156   63.6535 C   0  0  0  0  0  0  0  0  0  0  0  0
  -40.8425   57.6303   64.2965 O   0  0  0  0  0  0  0  0  0  0  0  0
  -41.9418   56.6756   64.4683 C   0  0  0  0  0  0  0  0  0  0  0  0
  -42.8402   56.7746   63.2614 C   0  0  0  0  0  0  0  0  0  0  0  0
  -42.6451   57.0896   65.7464 C   0  0  0  0  0  0  0  0  0  0  0  0
  -45.0261   57.2327   66.1368 N   0  0  0  0  0  0  0  0  0  0  0  0
  -44.0768   58.7311   64.7529 O   0  0  0  0  0  0  0  0  0  0  0  0
  -43.9783   57.7584   65.4957 C   0  0  0  0  0  0  0  0  0  0  0  0
  -44.8871   56.4519   66.7201 H   0  0  0  0  0  0  0  0  0  0  0  0
  -47.6395   59.5479   67.0873 N   0  0  0  0  0  0  0  0  0  0  0  0
  -45.9667   58.5753   68.2216 O   0  0  0  0  0  0  0  0  0  0  0  0
  -46.3642   57.7802   65.9979 C   0  0  0  0  0  0  0  0  0  0  0  0
  -47.3950   56.6468   65.9515 C   0  0  0  0  0  0  0  0  0  0  0  0
  -48.7388   57.0664   65.3654 C   0  0  0  0  0  0  0  0  0  0  0  0
  -49.4724   58.1511   66.1289 C   0  0  0  0  0  0  0  0  0  0  0  0
  -48.7571   59.4856   66.1514 C   0  0  0  0  0  0  0  0  0  0  0  0
  -46.6404   58.6698   67.1998 C   0  0  0  0  0  0  0  0  0  0  0  0
  -47.6203   60.3181   67.7001 H   0  0  0  0  0  0  0  0  0  0  0  0
  -38.8533   58.2802   65.7515 C   0  0  0  0  0  0  0  0  0  0  0  0
  -38.7502   59.7863   65.5363 C   0  0  0  0  0  0  0  0  0  0  0  0
  -39.5876   60.5881   66.5153 C   0  0  0  0  0  0  0  0  0  0  0  0
  -41.0797   60.5242   66.2725 C   0  0  0  0  0  0  0  0  0  0  0  0
  -41.3742   60.4450   64.8505 N   0  0  0  0  0  0  0  0  0  0  0  0
  -41.7161   62.6643   64.6231 O   0  0  0  0  0  0  0  0  0  0  0  0
  -41.6729   61.5277   64.1244 C   0  0  0  0  0  0  0  0  0  0  0  0
  -41.3530   59.5658   64.4081 H   0  0  0  0  0  0  0  0  0  0  0  0
  -41.1658   60.7888   61.8069 C   0  0  0  0  0  0  0  0  0  0  0  0
  -42.0203   61.2416   62.7144 C   0  0  0  0  0  0  0  0  0  0  0  0
  -39.7181   60.4582   61.9954 C   0  0  0  0  0  0  0  0  0  0  0  0
  -39.1635   59.6629   60.8198 C   0  0  0  0  0  0  0  0  0  0  0  0
  -40.1745   58.7265   60.1810 C   0  0  0  0  0  0  0  0  0  0  0  0
  -40.5329   59.1012   58.7526 C   0  0  0  0  0  0  0  0  0  0  0  0
  -41.8758   58.5725   58.2849 C   0  0  0  0  0  0  0  0  0  0  0  0
  -42.2315   58.9925   56.8683 C   0  0  0  0  0  0  0  0  0  0  0  0
  -43.7242   59.0345   56.6061 C   0  0  0  0  0  0  0  0  0  0  0  0
  -44.5064   58.0605   57.4641 C   0  0  0  0  0  0  0  0  0  0  0  0
  -46.0110   58.2415   57.4034 C   0  0  0  0  0  0  0  0  0  0  0  0
  -46.7421   56.9570   57.0662 C   0  0  0  0  0  0  0  0  0  0  0  0
  -48.1597   56.9134   57.6128 C   0  0  0  0  0  0  0  0  0  0  0  0
  -48.4814   58.0257   58.5956 C   0  0  0  0  0  0  0  0  0  0  0  0
  -48.7287   57.5492   60.0185 C   0  0  0  0  0  0  0  0  0  0  0  0
  -50.1730   57.6971   60.4769 C   0  0  0  0  0  0  0  0  0  0  0  0
  -50.3235   57.7689   61.9881 C   0  0  0  0  0  0  0  0  0  0  0  0
  -51.1776   59.8331   63.1652 C   0  0  0  0  0  0  0  0  0  0  0  0
  -49.9822   59.1199   62.5899 C   0  0  0  0  0  0  0  0  0  0  0  0
 43 45  1  0  0  0
 43 42  1  0  0  0
 43 46  1  0  0  0
 64 65  1  0  0  0
 44 45  2  0  0  0
 65 63  1  0  0  0
  2  1  1  0  0  0
  2  4  1  0  0  0
  2  5  1  0  0  0
  3  4  2  0  0  0
 63 62  1  0  0  0
  6  8  1  0  0  0
  6 11  2  0  0  0
  7 10  1  0  0  0
  7 11  1  0  0  0
 62 61  1  0  0  0
 26 28  1  0  0  0
 26 32  1  0  0  0
 26 29  1  0  0  0
 12 18  1  0  0  0
 12 19  1  0  0  0
 61 60  1  0  0  0
 30 36  1  0  0  0
 30 37  1  0  0  0
 30 38  1  0  0  0
 20 21  2  0  0  0
 60 59  1  0  0  0
 22 21  1  0  0  0
 22 23  1  0  0  0
 59 58  1  0  0  0
 27 28  2  0  0  0
 58 57  1  0  0  0
 31 37  2  0  0  0
 57 56  1  0  0  0
 56 55  1  0  0  0
 55 54  1  0  0  0
 54 53  1  0  0  0
 53 52  1  0  0  0
 52 51  1  0  0  0
 51 50  1  0  0  0
 50 49  1  0  0  0
 49 47  1  0  0  0
 47 48  2  0  0  0
 48 45  1  0  0  0
 42 41  1  0  0  0
 41 40  1  0  0  0
 40 39  1  0  0  0
 39  1  1  0  0  0
  1 21  1  0  0  0
  8  4  1  0  0  0
  8  9  1  0  0  0
  8 10  1  0  0  0
 11 13  1  0  0  0
 13 14  2  0  0  0
 13 18  1  0  0  0
 14 15  1  0  0  0
 15 16  2  0  0  0
 16 17  1  0  0  0
 17 18  2  0  0  0
 23 24  1  0  0  0
 23 25  1  0  0  0
 25 28  1  0  0  0
 32 33  1  0  0  0
 32 37  1  0  0  0
 33 34  1  0  0  0
 34 35  1  0  0  0
 35 36  1  0  0  0
M  END
> <minimizedAffinity>
-8.27719

> <CNNscore>
0.1790903658

> <CNNaffinity>
7.8740134239

> <CNN_VS>
1.4101599455

> <CNNaffinity_variance>
1.6711689234

$$$$
/media/chris/experiments/cd1a-new-docking/inputs/ligands/7ryo_ligand.pdb


 65 67  0  0  0  0  0  0  0  0999 V2000
  -33.9083   59.9567   64.1594 C   0  0  0  0  0  0  0  0  0  0  0  0
  -34.8461   59.8115   63.0585 N   0  0  0  0  0  0  0  0  0  0  0  0
  -35.8107   57.9775   63.9300 O   0  0  0  0  0  0  0  0  0  0  0  0
  -35.7327   58.8133   63.0420 C   0  0  0  0  0  0  0  0  0  0  0  0
  -34.8273   60.4574   62.3159 H   0  0  0  0  0  0  0  0  0  0  0  0
  -37.6598   57.6466   62.0437 N   0  0  0  0  0  0  0  0  0  0  0  0
  -38.8822   59.4597   61.4947 O   0  0  0  0  0  0  0  0  0  0  0  0
  -36.6731   58.7180   61.8293 C   0  0  0  0  0  0  0  0  0  0  0  0
  -35.8471   58.3921   60.5886 C   0  0  0  0  0  0  0  0  0  0  0  0
  -37.5326   59.9743   61.6250 C   0  0  0  0  0  0  0  0  0  0  0  0
  -38.8074   58.1486   61.8425 C   0  0  0  0  0  0  0  0  0  0  0  0
  -40.8916   58.4273   59.8773 O   0  0  0  0  0  0  0  0  0  0  0  0
  -40.0880   57.4444   61.9421 C   0  0  0  0  0  0  0  0  0  0  0  0
  -40.2860   56.4882   62.9388 C   0  0  0  0  0  0  0  0  0  0  0  0
  -41.3858   55.6484   62.8979 C   0  0  0  0  0  0  0  0  0  0  0  0
  -42.3004   55.7461   61.8719 C   0  0  0  0  0  0  0  0  0  0  0  0
  -42.1248   56.6824   60.8693 C   0  0  0  0  0  0  0  0  0  0  0  0
  -41.0246   57.5338   60.8919 C   0  0  0  0  0  0  0  0  0  0  0  0
  -40.1619   59.0147   59.8631 H   0  0  0  0  0  0  0  0  0  0  0  0
  -32.9868   57.8122   64.7865 O   0  0  0  0  0  0  0  0  0  0  0  0
  -32.8837   58.8319   64.1620 C   0  0  0  0  0  0  0  0  0  0  0  0
  -31.8346   59.1477   63.3830 O   0  0  0  0  0  0  0  0  0  0  0  0
  -32.0337   59.1703   61.9307 C   0  0  0  0  0  0  0  0  0  0  0  0
  -31.4895   57.8833   61.3639 C   0  0  0  0  0  0  0  0  0  0  0  0
  -31.2747   60.3856   61.4342 C   0  0  0  0  0  0  0  0  0  0  0  0
  -32.1489   62.6015   61.8434 N   0  0  0  0  0  0  0  0  0  0  0  0
  -30.9327   61.6158   63.4592 O   0  0  0  0  0  0  0  0  0  0  0  0
  -31.4316   61.5884   62.3377 C   0  0  0  0  0  0  0  0  0  0  0  0
  -32.5251   62.5235   60.9370 H   0  0  0  0  0  0  0  0  0  0  0  0
  -32.7442   66.1639   62.0645 N   0  0  0  0  0  0  0  0  0  0  0  0
  -31.6071   64.8873   60.6125 O   0  0  0  0  0  0  0  0  0  0  0  0
  -32.3899   63.8144   62.6052 C   0  0  0  0  0  0  0  0  0  0  0  0
  -31.3902   63.9169   63.7626 C   0  0  0  0  0  0  0  0  0  0  0  0
  -31.8262   64.8779   64.8634 C   0  0  0  0  0  0  0  0  0  0  0  0
  -31.9911   66.3235   64.4385 C   0  0  0  0  0  0  0  0  0  0  0  0
  -33.0949   66.5505   63.4270 C   0  0  0  0  0  0  0  0  0  0  0  0
  -32.2129   65.0032   61.6739 C   0  0  0  0  0  0  0  0  0  0  0  0
  -32.9175   66.8287   61.3594 H   0  0  0  0  0  0  0  0  0  0  0  0
  -34.6359   60.0358   65.5023 C   0  0  0  0  0  0  0  0  0  0  0  0
  -35.0592   61.4589   65.8500 C   0  0  0  0  0  0  0  0  0  0  0  0
  -36.5138   61.5637   66.2693 C   0  0  0  0  0  0  0  0  0  0  0  0
  -37.4956   60.9197   65.3150 C   0  0  0  0  0  0  0  0  0  0  0  0
  -38.8450   60.9477   65.8568 N   0  0  0  0  0  0  0  0  0  0  0  0
  -39.2533   58.7734   65.4105 O   0  0  0  0  0  0  0  0  0  0  0  0
  -39.6309   59.8656   65.8653 C   0  0  0  0  0  0  0  0  0  0  0  0
  -39.1910   61.7907   66.2294 H   0  0  0  0  0  0  0  0  0  0  0  0
  -41.9607   59.1958   66.4100 C   0  0  0  0  0  0  0  0  0  0  0  0
  -40.9962   60.1056   66.3836 C   0  0  0  0  0  0  0  0  0  0  0  0
  -41.8890   57.7704   65.9585 C   0  0  0  0  0  0  0  0  0  0  0  0
  -43.2735   57.1437   65.8468 C   0  0  0  0  0  0  0  0  0  0  0  0
  -44.2442   57.9477   64.9993 C   0  0  0  0  0  0  0  0  0  0  0  0
  -45.6777   57.8947   65.5007 C   0  0  0  0  0  0  0  0  0  0  0  0
  -46.6635   58.6876   64.6635 C   0  0  0  0  0  0  0  0  0  0  0  0
  -48.1025   58.5526   65.1332 C   0  0  0  0  0  0  0  0  0  0  0  0
  -48.9111   59.8261   64.9812 C   0  0  0  0  0  0  0  0  0  0  0  0
  -50.0495   59.6929   63.9897 C   0  0  0  0  0  0  0  0  0  0  0  0
  -49.9580   58.4741   63.0917 C   0  0  0  0  0  0  0  0  0  0  0  0
  -50.2351   58.7968   61.6366 C   0  0  0  0  0  0  0  0  0  0  0  0
  -50.4837   57.5620   60.7860 C   0  0  0  0  0  0  0  0  0  0  0  0
  -49.4581   57.3479   59.6865 C   0  0  0  0  0  0  0  0  0  0  0  0
  -48.0325   57.6949   60.0866 C   0  0  0  0  0  0  0  0  0  0  0  0
  -46.9924   57.3448   59.0312 C   0  0  0  0  0  0  0  0  0  0  0  0
  -47.2602   57.9899   57.6809 C   0  0  0  0  0  0  0  0  0  0  0  0
  -47.1839   55.5813   56.9265 C   0  0  0  0  0  0  0  0  0  0  0  0
  -47.2288   57.0273   56.5076 C   0  0  0  0  0  0  0  0  0  0  0  0
 43 45  1  0  0  0
 43 42  1  0  0  0
 43 46  1  0  0  0
 64 65  1  0  0  0
 44 45  2  0  0  0
 65 63  1  0  0  0
  2  1  1  0  0  0
  2  4  1  0  0  0
  2  5  1  0  0  0
  3  4  2  0  0  0
 63 62  1  0  0  0
  6  8  1  0  0  0
  6 11  2  0  0  0
  7 10  1  0  0  0
  7 11  1  0  0  0
 62 61  1  0  0  0
 26 28  1  0  0  0
 26 32  1  0  0  0
 26 29  1  0  0  0
 12 18  1  0  0  0
 12 19  1  0  0  0
 61 60  1  0  0  0
 30 36  1  0  0  0
 30 37  1  0  0  0
 30 38  1  0  0  0
 20 21  2  0  0  0
 60 59  1  0  0  0
 22 21  1  0  0  0
 22 23  1  0  0  0
 59 58  1  0  0  0
 27 28  2  0  0  0
 58 57  1  0  0  0
 31 37  2  0  0  0
 57 56  1  0  0  0
 56 55  1  0  0  0
 55 54  1  0  0  0
 54 53  1  0  0  0
 53 52  1  0  0  0
 52 51  1  0  0  0
 51 50  1  0  0  0
 50 49  1  0  0  0
 49 47  1  0  0  0
 47 48  2  0  0  0
 48 45  1  0  0  0
 42 41  1  0  0  0
 41 40  1  0  0  0
 40 39  1  0  0  0
 39  1  1  0  0  0
  1 21  1  0  0  0
  8  4  1  0  0  0
  8  9  1  0  0  0
  8 10  1  0  0  0
 11 13  1  0  0  0
 13 14  2  0  0  0
 13 18  1  0  0  0
 14 15  1  0  0  0
 15 16  2  0  0  0
 16 17  1  0  0  0
 17 18  2  0  0  0
 23 24  1  0  0  0
 23 25  1  0  0  0
 25 28  1  0  0  0
 32 33  1  0  0  0
 32 37  1  0  0  0
 33 34  1  0  0  0
 34 35  1  0  0  0
 35 36  1  0  0  0
M  END
> <minimizedAffinity>
-9.64781

> <CNNscore>
0.1789347082

> <CNNaffinity>
7.3707451820

> <CNN_VS>
1.3188821077

> <CNNaffinity_variance>
0.8998729587

$$$$
/media/chris/experiments/cd1a-new-docking/inputs/ligands/7ryo_ligand.pdb


 65 67  0  0  0  0  0  0  0  0999 V2000
  -39.8142   60.4037   65.4680 C   0  0  0  0  0  0  0  0  0  0  0  0
  -38.4589   60.6763   65.0195 N   0  0  0  0  0  0  0  0  0  0  0  0
  -37.6693   60.9585   67.1053 O   0  0  0  0  0  0  0  0  0  0  0  0
  -37.4866   60.9348   65.8973 C   0  0  0  0  0  0  0  0  0  0  0  0
  -38.2553   60.6702   64.0564 H   0  0  0  0  0  0  0  0  0  0  0  0
  -35.4261   59.9818   64.9393 N   0  0  0  0  0  0  0  0  0  0  0  0
  -35.2616   61.3237   63.1351 O   0  0  0  0  0  0  0  0  0  0  0  0
  -36.0861   61.2359   65.3385 C   0  0  0  0  0  0  0  0  0  0  0  0
  -35.2553   61.9106   66.4258 C   0  0  0  0  0  0  0  0  0  0  0  0
  -36.1115   62.0656   64.0464 C   0  0  0  0  0  0  0  0  0  0  0  0
  -35.0243   60.1335   63.7455 C   0  0  0  0  0  0  0  0  0  0  0  0
  -32.4163   60.6198   62.6296 O   0  0  0  0  0  0  0  0  0  0  0  0
  -34.3100   59.1392   62.9415 C   0  0  0  0  0  0  0  0  0  0  0  0
  -34.8214   57.8478   62.8077 C   0  0  0  0  0  0  0  0  0  0  0  0
  -34.0466   56.8385   62.2623 C   0  0  0  0  0  0  0  0  0  0  0  0
  -32.7593   57.0961   61.8437 C   0  0  0  0  0  0  0  0  0  0  0  0
  -32.2271   58.3664   61.9693 C   0  0  0  0  0  0  0  0  0  0  0  0
  -32.9896   59.3933   62.5169 C   0  0  0  0  0  0  0  0  0  0  0  0
  -32.9029   61.3326   62.9942 H   0  0  0  0  0  0  0  0  0  0  0  0
  -39.2401   58.0568   65.4107 O   0  0  0  0  0  0  0  0  0  0  0  0
  -40.0735   58.9074   65.5596 C   0  0  0  0  0  0  0  0  0  0  0  0
  -41.3725   58.6682   65.8101 O   0  0  0  0  0  0  0  0  0  0  0  0
  -41.8517   57.2858   65.7166 C   0  0  0  0  0  0  0  0  0  0  0  0
  -42.3585   57.0602   64.3144 C   0  0  0  0  0  0  0  0  0  0  0  0
  -42.9514   57.1646   66.7537 C   0  0  0  0  0  0  0  0  0  0  0  0
  -45.3579   57.2266   66.5365 N   0  0  0  0  0  0  0  0  0  0  0  0
  -44.1806   59.0415   65.9185 O   0  0  0  0  0  0  0  0  0  0  0  0
  -44.2153   57.8968   66.3613 C   0  0  0  0  0  0  0  0  0  0  0  0
  -45.3245   56.3106   66.8956 H   0  0  0  0  0  0  0  0  0  0  0  0
  -48.0800   59.5158   67.2022 N   0  0  0  0  0  0  0  0  0  0  0  0
  -46.6366   58.4244   68.5274 O   0  0  0  0  0  0  0  0  0  0  0  0
  -46.6475   57.8109   66.2127 C   0  0  0  0  0  0  0  0  0  0  0  0
  -47.6627   56.7061   65.8994 C   0  0  0  0  0  0  0  0  0  0  0  0
  -48.8812   57.1974   65.1254 C   0  0  0  0  0  0  0  0  0  0  0  0
  -49.7285   58.2352   65.8343 C   0  0  0  0  0  0  0  0  0  0  0  0
  -49.0185   59.5489   66.0855 C   0  0  0  0  0  0  0  0  0  0  0  0
  -47.1219   58.6111   67.4155 C   0  0  0  0  0  0  0  0  0  0  0  0
  -48.1619   60.2362   67.8682 H   0  0  0  0  0  0  0  0  0  0  0  0
  -40.8453   61.0825   64.5651 C   0  0  0  0  0  0  0  0  0  0  0  0
  -41.2127   60.2262   63.3580 C   0  0  0  0  0  0  0  0  0  0  0  0
  -41.3795   61.0317   62.0829 C   0  0  0  0  0  0  0  0  0  0  0  0
  -40.1867   60.9988   61.1526 C   0  0  0  0  0  0  0  0  0  0  0  0
  -39.3334   59.8562   61.4382 N   0  0  0  0  0  0  0  0  0  0  0  0
  -38.4227   59.8030   59.3739 O   0  0  0  0  0  0  0  0  0  0  0  0
  -38.5081   59.3380   60.5223 C   0  0  0  0  0  0  0  0  0  0  0  0
  -39.3644   59.4512   62.3350 H   0  0  0  0  0  0  0  0  0  0  0  0
  -38.2816   57.2032   61.7732 C   0  0  0  0  0  0  0  0  0  0  0  0
  -37.7784   58.1308   60.9701 C   0  0  0  0  0  0  0  0  0  0  0  0
  -39.6526   57.1549   62.3721 C   0  0  0  0  0  0  0  0  0  0  0  0
  -40.6381   56.4258   61.4669 C   0  0  0  0  0  0  0  0  0  0  0  0
  -41.6051   57.3477   60.7444 C   0  0  0  0  0  0  0  0  0  0  0  0
  -41.3452   57.4519   59.2508 C   0  0  0  0  0  0  0  0  0  0  0  0
  -41.6516   58.8132   58.6555 C   0  0  0  0  0  0  0  0  0  0  0  0
  -41.9529   58.7689   57.1666 C   0  0  0  0  0  0  0  0  0  0  0  0
  -43.3860   59.1294   56.8279 C   0  0  0  0  0  0  0  0  0  0  0  0
  -44.3827   58.0714   57.2567 C   0  0  0  0  0  0  0  0  0  0  0  0
  -45.8233   58.5444   57.2872 C   0  0  0  0  0  0  0  0  0  0  0  0
  -46.7802   57.4758   57.7779 C   0  0  0  0  0  0  0  0  0  0  0  0
  -47.9781   58.0409   58.5235 C   0  0  0  0  0  0  0  0  0  0  0  0
  -48.1160   57.5380   59.9500 C   0  0  0  0  0  0  0  0  0  0  0  0
  -49.4142   56.7958   60.2273 C   0  0  0  0  0  0  0  0  0  0  0  0
  -50.5867   57.7072   60.5629 C   0  0  0  0  0  0  0  0  0  0  0  0
  -50.8374   57.8451   62.0561 C   0  0  0  0  0  0  0  0  0  0  0  0
  -49.7310   60.1119   61.9377 C   0  0  0  0  0  0  0  0  0  0  0  0
  -50.8124   59.2739   62.5679 C   0  0  0  0  0  0  0  0  0  0  0  0
 43 45  1  0  0  0
 43 42  1  0  0  0
 43 46  1  0  0  0
 64 65  1  0  0  0
 44 45  2  0  0  0
 65 63  1  0  0  0
  2  1  1  0  0  0
  2  4  1  0  0  0
  2  5  1  0  0  0
  3  4  2  0  0  0
 63 62  1  0  0  0
  6  8  1  0  0  0
  6 11  2  0  0  0
  7 10  1  0  0  0
  7 11  1  0  0  0
 62 61  1  0  0  0
 26 28  1  0  0  0
 26 32  1  0  0  0
 26 29  1  0  0  0
 12 18  1  0  0  0
 12 19  1  0  0  0
 61 60  1  0  0  0
 30 36  1  0  0  0
 30 37  1  0  0  0
 30 38  1  0  0  0
 20 21  2  0  0  0
 60 59  1  0  0  0
 22 21  1  0  0  0
 22 23  1  0  0  0
 59 58  1  0  0  0
 27 28  2  0  0  0
 58 57  1  0  0  0
 31 37  2  0  0  0
 57 56  1  0  0  0
 56 55  1  0  0  0
 55 54  1  0  0  0
 54 53  1  0  0  0
 53 52  1  0  0  0
 52 51  1  0  0  0
 51 50  1  0  0  0
 50 49  1  0  0  0
 49 47  1  0  0  0
 47 48  2  0  0  0
 48 45  1  0  0  0
 42 41  1  0  0  0
 41 40  1  0  0  0
 40 39  1  0  0  0
 39  1  1  0  0  0
  1 21  1  0  0  0
  8  4  1  0  0  0
  8  9  1  0  0  0
  8 10  1  0  0  0
 11 13  1  0  0  0
 13 14  2  0  0  0
 13 18  1  0  0  0
 14 15  1  0  0  0
 15 16  2  0  0  0
 16 17  1  0  0  0
 17 18  2  0  0  0
 23 24  1  0  0  0
 23 25  1  0  0  0
 25 28  1  0  0  0
 32 33  1  0  0  0
 32 37  1  0  0  0
 33 34  1  0  0  0
 34 35  1  0  0  0
 35 36  1  0  0  0
M  END
> <minimizedAffinity>
-8.40560

> <CNNscore>
0.1704523712

> <CNNaffinity>
7.6751389503

> <CNN_VS>
1.3082456589

> <CNNaffinity_variance>
1.9839117527

$$$$
/media/chris/experiments/cd1a-new-docking/inputs/ligands/7ryo_ligand.pdb


 65 67  0  0  0  0  0  0  0  0999 V2000
  -38.2856   57.0284   63.4153 C   0  0  0  0  0  0  0  0  0  0  0  0
  -39.6385   57.4522   63.0951 N   0  0  0  0  0  0  0  0  0  0  0  0
  -40.5930   55.7668   64.2361 O   0  0  0  0  0  0  0  0  0  0  0  0
  -40.6940   56.7687   63.5439 C   0  0  0  0  0  0  0  0  0  0  0  0
  -39.7783   58.2533   62.5404 H   0  0  0  0  0  0  0  0  0  0  0  0
  -43.0936   56.7893   64.1035 N   0  0  0  0  0  0  0  0  0  0  0  0
  -43.4329   59.0145   63.9760 O   0  0  0  0  0  0  0  0  0  0  0  0
  -42.0900   57.2709   63.1400 C   0  0  0  0  0  0  0  0  0  0  0  0
  -42.4288   56.7267   61.7555 C   0  0  0  0  0  0  0  0  0  0  0  0
  -42.2278   58.7994   63.1985 C   0  0  0  0  0  0  0  0  0  0  0  0
  -43.7559   57.7996   64.4910 C   0  0  0  0  0  0  0  0  0  0  0  0
  -43.4472   58.6534   67.2221 O   0  0  0  0  0  0  0  0  0  0  0  0
  -44.8612   57.7912   65.4521 C   0  0  0  0  0  0  0  0  0  0  0  0
  -46.1573   57.4971   65.0270 C   0  0  0  0  0  0  0  0  0  0  0  0
  -47.2383   57.7217   65.8620 C   0  0  0  0  0  0  0  0  0  0  0  0
  -47.0486   58.2388   67.1251 C   0  0  0  0  0  0  0  0  0  0  0  0
  -45.7746   58.5432   67.5690 C   0  0  0  0  0  0  0  0  0  0  0  0
  -44.6758   58.3264   66.7435 C   0  0  0  0  0  0  0  0  0  0  0  0
  -42.6868   58.5198   66.6912 H   0  0  0  0  0  0  0  0  0  0  0  0
  -36.5094   57.9510   64.7699 O   0  0  0  0  0  0  0  0  0  0  0  0
  -37.6788   57.8999   64.5047 C   0  0  0  0  0  0  0  0  0  0  0  0
  -38.6379   58.5909   65.1450 O   0  0  0  0  0  0  0  0  0  0  0  0
  -38.3865   60.0028   65.4499 C   0  0  0  0  0  0  0  0  0  0  0  0
  -39.6700   60.6065   65.9615 C   0  0  0  0  0  0  0  0  0  0  0  0
  -37.9355   60.6277   64.1438 C   0  0  0  0  0  0  0  0  0  0  0  0
  -36.4565   62.2109   65.2154 N   0  0  0  0  0  0  0  0  0  0  0  0
  -35.6651   61.0079   63.4867 O   0  0  0  0  0  0  0  0  0  0  0  0
  -36.5842   61.2991   64.2471 C   0  0  0  0  0  0  0  0  0  0  0  0
  -37.2283   62.4035   65.7954 H   0  0  0  0  0  0  0  0  0  0  0  0
  -33.9849   63.7143   67.3889 N   0  0  0  0  0  0  0  0  0  0  0  0
  -36.2030   63.4278   67.5581 O   0  0  0  0  0  0  0  0  0  0  0  0
  -35.2118   62.9258   65.4368 C   0  0  0  0  0  0  0  0  0  0  0  0
  -35.1358   64.1490   64.5162 C   0  0  0  0  0  0  0  0  0  0  0  0
  -33.7226   64.6936   64.3389 C   0  0  0  0  0  0  0  0  0  0  0  0
  -33.0516   65.1888   65.6046 C   0  0  0  0  0  0  0  0  0  0  0  0
  -32.7992   64.1090   66.6358 C   0  0  0  0  0  0  0  0  0  0  0  0
  -35.1758   63.3786   66.8879 C   0  0  0  0  0  0  0  0  0  0  0  0
  -33.8975   63.6936   68.3693 H   0  0  0  0  0  0  0  0  0  0  0  0
  -37.3984   57.0142   62.1696 C   0  0  0  0  0  0  0  0  0  0  0  0
  -36.6225   58.3153   61.9950 C   0  0  0  0  0  0  0  0  0  0  0  0
  -36.4134   58.6952   60.5408 C   0  0  0  0  0  0  0  0  0  0  0  0
  -37.5374   59.5029   59.9296 C   0  0  0  0  0  0  0  0  0  0  0  0
  -38.7460   58.7038   59.8041 N   0  0  0  0  0  0  0  0  0  0  0  0
  -40.0591   60.4619   59.2765 O   0  0  0  0  0  0  0  0  0  0  0  0
  -39.9266   59.2447   59.4846 C   0  0  0  0  0  0  0  0  0  0  0  0
  -38.6932   57.7331   59.9594 H   0  0  0  0  0  0  0  0  0  0  0  0
  -41.9635   58.2007   58.5178 C   0  0  0  0  0  0  0  0  0  0  0  0
  -41.0564   58.2887   59.4812 C   0  0  0  0  0  0  0  0  0  0  0  0
  -42.0404   59.0009   57.2552 C   0  0  0  0  0  0  0  0  0  0  0  0
  -43.4441   58.9858   56.6623 C   0  0  0  0  0  0  0  0  0  0  0  0
  -44.4605   58.2420   57.5113 C   0  0  0  0  0  0  0  0  0  0  0  0
  -45.8686   58.2728   56.9406 C   0  0  0  0  0  0  0  0  0  0  0  0
  -46.3883   56.9229   56.4832 C   0  0  0  0  0  0  0  0  0  0  0  0
  -47.8778   56.7359   56.7200 C   0  0  0  0  0  0  0  0  0  0  0  0
  -48.1969   55.7042   57.7842 C   0  0  0  0  0  0  0  0  0  0  0  0
  -47.5959   56.0377   59.1349 C   0  0  0  0  0  0  0  0  0  0  0  0
  -48.3714   57.0730   59.9266 C   0  0  0  0  0  0  0  0  0  0  0  0
  -49.7724   56.6126   60.2779 C   0  0  0  0  0  0  0  0  0  0  0  0
  -50.5093   57.5790   61.1908 C   0  0  0  0  0  0  0  0  0  0  0  0
  -49.6263   58.2491   62.2291 C   0  0  0  0  0  0  0  0  0  0  0  0
  -50.0431   59.6689   62.5802 C   0  0  0  0  0  0  0  0  0  0  0  0
  -49.3569   60.2250   63.8203 C   0  0  0  0  0  0  0  0  0  0  0  0
  -50.3178   60.8743   64.8033 C   0  0  0  0  0  0  0  0  0  0  0  0
  -50.5512   58.5231   65.6943 C   0  0  0  0  0  0  0  0  0  0  0  0
  -50.7044   59.9944   65.9782 C   0  0  0  0  0  0  0  0  0  0  0  0
 43 45  1  0  0  0
 43 42  1  0  0  0
 43 46  1  0  0  0
 64 65  1  0  0  0
 44 45  2  0  0  0
 65 63  1  0  0  0
  2  1  1  0  0  0
  2  4  1  0  0  0
  2  5  1  0  0  0
  3  4  2  0  0  0
 63 62  1  0  0  0
  6  8  1  0  0  0
  6 11  2  0  0  0
  7 10  1  0  0  0
  7 11  1  0  0  0
 62 61  1  0  0  0
 26 28  1  0  0  0
 26 32  1  0  0  0
 26 29  1  0  0  0
 12 18  1  0  0  0
 12 19  1  0  0  0
 61 60  1  0  0  0
 30 36  1  0  0  0
 30 37  1  0  0  0
 30 38  1  0  0  0
 20 21  2  0  0  0
 60 59  1  0  0  0
 22 21  1  0  0  0
 22 23  1  0  0  0
 59 58  1  0  0  0
 27 28  2  0  0  0
 58 57  1  0  0  0
 31 37  2  0  0  0
 57 56  1  0  0  0
 56 55  1  0  0  0
 55 54  1  0  0  0
 54 53  1  0  0  0
 53 52  1  0  0  0
 52 51  1  0  0  0
 51 50  1  0  0  0
 50 49  1  0  0  0
 49 47  1  0  0  0
 47 48  2  0  0  0
 48 45  1  0  0  0
 42 41  1  0  0  0
 41 40  1  0  0  0
 40 39  1  0  0  0
 39  1  1  0  0  0
  1 21  1  0  0  0
  8  4  1  0  0  0
  8  9  1  0  0  0
  8 10  1  0  0  0
 11 13  1  0  0  0
 13 14  2  0  0  0
 13 18  1  0  0  0
 14 15  1  0  0  0
 15 16  2  0  0  0
 16 17  1  0  0  0
 17 18  2  0  0  0
 23 24  1  0  0  0
 23 25  1  0  0  0
 25 28  1  0  0  0
 32 33  1  0  0  0
 32 37  1  0  0  0
 33 34  1  0  0  0
 34 35  1  0  0  0
 35 36  1  0  0  0
M  END
> <minimizedAffinity>
-8.37009

> <CNNscore>
0.1674476564

> <CNNaffinity>
7.5067658424

> <CNN_VS>
1.2569903135

> <CNNaffinity_variance>
1.2994884253

$$$$
