/media/chris/experiments/cd1a-new-docking/inputs/ligands/7ryo_ligand.pdb


 65 67  0  0  0  0  0  0  0  0999 V2000
  -35.3746   58.9097   64.3790 C   0  0  0  0  0  0  0  0  0  0  0  0
  -36.6876   59.4967   64.1700 N   0  0  0  0  0  0  0  0  0  0  0  0
  -37.6693   58.2187   65.7375 O   0  0  0  0  0  0  0  0  0  0  0  0
  -37.7405   59.0898   64.8833 C   0  0  0  0  0  0  0  0  0  0  0  0
  -36.8023   60.2030   63.4938 H   0  0  0  0  0  0  0  0  0  0  0  0
  -40.1273   58.7079   64.4047 N   0  0  0  0  0  0  0  0  0  0  0  0
  -40.9905   60.1233   65.9327 O   0  0  0  0  0  0  0  0  0  0  0  0
  -39.0984   59.7456   64.5835 C   0  0  0  0  0  0  0  0  0  0  0  0
  -38.9816   60.5566   63.2965 C   0  0  0  0  0  0  0  0  0  0  0  0
  -39.6329   60.5973   65.7445 C   0  0  0  0  0  0  0  0  0  0  0  0
  -41.0936   59.0023   65.1722 C   0  0  0  0  0  0  0  0  0  0  0  0
  -42.5445   58.8736   67.6545 O   0  0  0  0  0  0  0  0  0  0  0  0
  -42.3393   58.2462   65.3222 C   0  0  0  0  0  0  0  0  0  0  0  0
  -42.9477   57.6698   64.2065 C   0  0  0  0  0  0  0  0  0  0  0  0
  -44.2351   57.1678   64.2896 C   0  0  0  0  0  0  0  0  0  0  0  0
  -44.9332   57.2305   65.4760 C   0  0  0  0  0  0  0  0  0  0  0  0
  -44.3547   57.8009   66.5951 C   0  0  0  0  0  0  0  0  0  0  0  0
  -43.0625   58.3128   66.5309 C   0  0  0  0  0  0  0  0  0  0  0  0
  -41.6769   59.2274   67.6443 H   0  0  0  0  0  0  0  0  0  0  0  0
  -33.1802   59.6032   63.6409 O   0  0  0  0  0  0  0  0  0  0  0  0
  -34.2692   59.9012   64.0479 C   0  0  0  0  0  0  0  0  0  0  0  0
  -34.6742   61.1591   64.2947 O   0  0  0  0  0  0  0  0  0  0  0  0
  -34.9047   61.5506   65.6888 C   0  0  0  0  0  0  0  0  0  0  0  0
  -36.1093   62.4567   65.7270 C   0  0  0  0  0  0  0  0  0  0  0  0
  -33.6371   62.2572   66.1284 C   0  0  0  0  0  0  0  0  0  0  0  0
  -33.5884   64.6024   65.5452 N   0  0  0  0  0  0  0  0  0  0  0  0
  -34.2933   64.0258   67.6025 O   0  0  0  0  0  0  0  0  0  0  0  0
  -33.8670   63.7062   66.4962 C   0  0  0  0  0  0  0  0  0  0  0  0
  -33.7187   65.5592   65.7368 H   0  0  0  0  0  0  0  0  0  0  0  0
  -30.9285   63.6139   63.2999 N   0  0  0  0  0  0  0  0  0  0  0  0
  -30.9922   64.9307   65.1145 O   0  0  0  0  0  0  0  0  0  0  0  0
  -33.0988   64.2053   64.2367 C   0  0  0  0  0  0  0  0  0  0  0  0
  -33.6467   65.1495   63.1605 C   0  0  0  0  0  0  0  0  0  0  0  0
  -33.5749   64.5752   61.7497 C   0  0  0  0  0  0  0  0  0  0  0  0
  -32.1803   64.2670   61.2419 C   0  0  0  0  0  0  0  0  0  0  0  0
  -31.4654   63.1786   62.0150 C   0  0  0  0  0  0  0  0  0  0  0  0
  -31.5803   64.2816   64.2545 C   0  0  0  0  0  0  0  0  0  0  0  0
  -29.9867   63.3920   63.4819 H   0  0  0  0  0  0  0  0  0  0  0  0
  -35.2090   57.6188   63.5759 C   0  0  0  0  0  0  0  0  0  0  0  0
  -35.6540   57.7763   62.1259 C   0  0  0  0  0  0  0  0  0  0  0  0
  -36.9617   57.0688   61.8224 C   0  0  0  0  0  0  0  0  0  0  0  0
  -38.0578   57.9657   61.2900 C   0  0  0  0  0  0  0  0  0  0  0  0
  -39.3673   57.3671   61.4942 N   0  0  0  0  0  0  0  0  0  0  0  0
  -41.6019   57.4022   61.1790 O   0  0  0  0  0  0  0  0  0  0  0  0
  -40.4830   57.9079   60.9926 C   0  0  0  0  0  0  0  0  0  0  0  0
  -39.4348   56.5367   62.0188 H   0  0  0  0  0  0  0  0  0  0  0  0
  -40.8424   59.3076   58.9714 C   0  0  0  0  0  0  0  0  0  0  0  0
  -40.2568   59.0983   60.1428 C   0  0  0  0  0  0  0  0  0  0  0  0
  -41.8400   58.4347   58.2762 C   0  0  0  0  0  0  0  0  0  0  0  0
  -42.1761   58.9591   56.8855 C   0  0  0  0  0  0  0  0  0  0  0  0
  -43.6656   59.0111   56.5928 C   0  0  0  0  0  0  0  0  0  0  0  0
  -44.4954   58.1192   57.5012 C   0  0  0  0  0  0  0  0  0  0  0  0
  -45.9945   58.2514   57.3086 C   0  0  0  0  0  0  0  0  0  0  0  0
  -46.7515   56.9546   57.5423 C   0  0  0  0  0  0  0  0  0  0  0  0
  -47.3723   56.8561   58.9222 C   0  0  0  0  0  0  0  0  0  0  0  0
  -48.1567   58.0932   59.3109 C   0  0  0  0  0  0  0  0  0  0  0  0
  -49.6422   57.8568   59.5050 C   0  0  0  0  0  0  0  0  0  0  0  0
  -49.9556   57.1324   60.7992 C   0  0  0  0  0  0  0  0  0  0  0  0
  -51.1387   57.7256   61.5466 C   0  0  0  0  0  0  0  0  0  0  0  0
  -50.8019   58.9614   62.3628 C   0  0  0  0  0  0  0  0  0  0  0  0
  -50.8706   58.7531   63.8678 C   0  0  0  0  0  0  0  0  0  0  0  0
  -49.5933   58.1853   64.4714 C   0  0  0  0  0  0  0  0  0  0  0  0
  -48.3270   58.7412   63.8400 C   0  0  0  0  0  0  0  0  0  0  0  0
  -47.8661   59.4314   66.2249 C   0  0  0  0  0  0  0  0  0  0  0  0
  -47.4683   59.5692   64.7789 C   0  0  0  0  0  0  0  0  0  0  0  0
 43 45  1  0  0  0
 43 42  1  0  0  0
 43 46  1  0  0  0
 64 65  1  0  0  0
 44 45  2  0  0  0
 65 63  1  0  0  0
  2  1  1  0  0  0
  2  4  1  0  0  0
  2  5  1  0  0  0
  3  4  2  0  0  0
 63 62  1  0  0  0
  6  8  1  0  0  0
  6 11  2  0  0  0
  7 10  1  0  0  0
  7 11  1  0  0  0
 62 61  1  0  0  0
 26 28  1  0  0  0
 26 32  1  0  0  0
 26 29  1  0  0  0
 12 18  1  0  0  0
 12 19  1  0  0  0
 61 60  1  0  0  0
 30 36  1  0  0  0
 30 37  1  0  0  0
 30 38  1  0  0  0
 20 21  2  0  0  0
 60 59  1  0  0  0
 22 21  1  0  0  0
 22 23  1  0  0  0
 59 58  1  0  0  0
 27 28  2  0  0  0
 58 57  1  0  0  0
 31 37  2  0  0  0
 57 56  1  0  0  0
 56 55  1  0  0  0
 55 54  1  0  0  0
 54 53  1  0  0  0
 53 52  1  0  0  0
 52 51  1  0  0  0
 51 50  1  0  0  0
 50 49  1  0  0  0
 49 47  1  0  0  0
 47 48  2  0  0  0
 48 45  1  0  0  0
 42 41  1  0  0  0
 41 40  1  0  0  0
 40 39  1  0  0  0
 39  1  1  0  0  0
  1 21  1  0  0  0
  8  4  1  0  0  0
  8  9  1  0  0  0
  8 10  1  0  0  0
 11 13  1  0  0  0
 13 14  2  0  0  0
 13 18  1  0  0  0
 14 15  1  0  0  0
 15 16  2  0  0  0
 16 17  1  0  0  0
 17 18  2  0  0  0
 23 24  1  0  0  0
 23 25  1  0  0  0
 25 28  1  0  0  0
 32 33  1  0  0  0
 32 37  1  0  0  0
 33 34  1  0  0  0
 34 35  1  0  0  0
 35 36  1  0  0  0
M  END
> <minimizedAffinity>
-8.62979

> <CNNscore>
0.1880098581

> <CNNaffinity>
7.3508415222

> <CNN_VS>
1.3820307255

> <CNNaffinity_variance>
1.3126354218

$$$$
/media/chris/experiments/cd1a-new-docking/inputs/ligands/7ryo_ligand.pdb


 65 67  0  0  0  0  0  0  0  0999 V2000
  -38.8950   60.0000   64.4769 C   0  0  0  0  0  0  0  0  0  0  0  0
  -37.6937   60.8137   64.5605 N   0  0  0  0  0  0  0  0  0  0  0  0
  -37.6187   60.7318   66.8059 O   0  0  0  0  0  0  0  0  0  0  0  0
  -37.1512   61.1134   65.7433 C   0  0  0  0  0  0  0  0  0  0  0  0
  -37.2747   61.1483   63.7348 H   0  0  0  0  0  0  0  0  0  0  0  0
  -34.7423   61.2341   65.2390 N   0  0  0  0  0  0  0  0  0  0  0  0
  -34.7665   63.1255   64.0123 O   0  0  0  0  0  0  0  0  0  0  0  0
  -35.8942   61.9988   65.7448 C   0  0  0  0  0  0  0  0  0  0  0  0
  -35.6057   62.4441   67.1753 C   0  0  0  0  0  0  0  0  0  0  0  0
  -35.9908   63.1952   64.7865 C   0  0  0  0  0  0  0  0  0  0  0  0
  -34.2119   61.9229   64.3152 C   0  0  0  0  0  0  0  0  0  0  0  0
  -33.6418   59.2051   63.5589 O   0  0  0  0  0  0  0  0  0  0  0  0
  -33.0338   61.5513   63.5279 C   0  0  0  0  0  0  0  0  0  0  0  0
  -32.2104   62.5408   62.9892 C   0  0  0  0  0  0  0  0  0  0  0  0
  -31.2457   62.2174   62.0506 C   0  0  0  0  0  0  0  0  0  0  0  0
  -31.0854   60.9131   61.6357 C   0  0  0  0  0  0  0  0  0  0  0  0
  -31.8915   59.9144   62.1508 C   0  0  0  0  0  0  0  0  0  0  0  0
  -32.8682   60.2200   63.0935 C   0  0  0  0  0  0  0  0  0  0  0  0
  -34.3085   59.3776   64.1944 H   0  0  0  0  0  0  0  0  0  0  0  0
  -40.2894   61.6256   65.5966 O   0  0  0  0  0  0  0  0  0  0  0  0
  -39.9555   60.4816   65.4557 C   0  0  0  0  0  0  0  0  0  0  0  0
  -40.4533   59.4487   66.1577 O   0  0  0  0  0  0  0  0  0  0  0  0
  -41.8755   59.4754   66.5130 C   0  0  0  0  0  0  0  0  0  0  0  0
  -42.0687   58.6125   67.7343 C   0  0  0  0  0  0  0  0  0  0  0  0
  -42.6083   58.9328   65.3014 C   0  0  0  0  0  0  0  0  0  0  0  0
  -44.0274   57.0053   64.9644 N   0  0  0  0  0  0  0  0  0  0  0  0
  -44.5934   58.4846   66.5623 O   0  0  0  0  0  0  0  0  0  0  0  0
  -43.8344   58.1257   65.6664 C   0  0  0  0  0  0  0  0  0  0  0  0
  -44.8135   56.4465   65.1623 H   0  0  0  0  0  0  0  0  0  0  0  0
  -41.3008   54.9667   63.7385 N   0  0  0  0  0  0  0  0  0  0  0  0
  -41.8111   55.7871   65.7627 O   0  0  0  0  0  0  0  0  0  0  0  0
  -43.1108   56.5882   63.9178 C   0  0  0  0  0  0  0  0  0  0  0  0
  -42.4863   57.8156   63.2445 C   0  0  0  0  0  0  0  0  0  0  0  0
  -41.8823   57.5206   61.8758 C   0  0  0  0  0  0  0  0  0  0  0  0
  -40.7419   56.5220   61.8684 C   0  0  0  0  0  0  0  0  0  0  0  0
  -41.1384   55.1248   62.2973 C   0  0  0  0  0  0  0  0  0  0  0  0
  -42.0164   55.7452   64.5532 C   0  0  0  0  0  0  0  0  0  0  0  0
  -40.8335   54.2061   64.1538 H   0  0  0  0  0  0  0  0  0  0  0  0
  -38.5798   58.5198   64.6976 C   0  0  0  0  0  0  0  0  0  0  0  0
  -37.1249   58.1839   64.3881 C   0  0  0  0  0  0  0  0  0  0  0  0
  -36.9274   57.6097   62.9975 C   0  0  0  0  0  0  0  0  0  0  0  0
  -37.9329   58.0805   61.9696 C   0  0  0  0  0  0  0  0  0  0  0  0
  -37.2754   58.4438   60.7244 N   0  0  0  0  0  0  0  0  0  0  0  0
  -37.2704   59.5895   58.7799 O   0  0  0  0  0  0  0  0  0  0  0  0
  -37.8278   59.2905   59.8487 C   0  0  0  0  0  0  0  0  0  0  0  0
  -36.3949   58.0539   60.5194 H   0  0  0  0  0  0  0  0  0  0  0  0
  -40.2852   59.6435   59.7493 C   0  0  0  0  0  0  0  0  0  0  0  0
  -39.1038   59.8897   60.2992 C   0  0  0  0  0  0  0  0  0  0  0  0
  -40.5912   58.7264   58.6065 C   0  0  0  0  0  0  0  0  0  0  0  0
  -42.0912   58.6042   58.3673 C   0  0  0  0  0  0  0  0  0  0  0  0
  -42.5189   58.9671   56.9558 C   0  0  0  0  0  0  0  0  0  0  0  0
  -44.0255   58.9656   56.7574 C   0  0  0  0  0  0  0  0  0  0  0  0
  -44.7581   57.8880   57.5346 C   0  0  0  0  0  0  0  0  0  0  0  0
  -46.2426   58.1664   57.7029 C   0  0  0  0  0  0  0  0  0  0  0  0
  -46.9094   57.2874   58.7429 C   0  0  0  0  0  0  0  0  0  0  0  0
  -48.1282   57.9314   59.3726 C   0  0  0  0  0  0  0  0  0  0  0  0
  -49.1985   56.9501   59.8103 C   0  0  0  0  0  0  0  0  0  0  0  0
  -49.9068   57.3833   61.0786 C   0  0  0  0  0  0  0  0  0  0  0  0
  -49.1978   58.5152   61.8041 C   0  0  0  0  0  0  0  0  0  0  0  0
  -50.0789   59.7192   62.0887 C   0  0  0  0  0  0  0  0  0  0  0  0
  -51.1775   59.4615   63.1084 C   0  0  0  0  0  0  0  0  0  0  0  0
  -51.1759   60.4369   64.2775 C   0  0  0  0  0  0  0  0  0  0  0  0
  -49.8473   60.4958   65.0140 C   0  0  0  0  0  0  0  0  0  0  0  0
  -48.2615   59.2104   66.5004 C   0  0  0  0  0  0  0  0  0  0  0  0
  -49.6960   59.4671   66.1199 C   0  0  0  0  0  0  0  0  0  0  0  0
 43 45  1  0  0  0
 43 42  1  0  0  0
 43 46  1  0  0  0
 64 65  1  0  0  0
 44 45  2  0  0  0
 65 63  1  0  0  0
  2  1  1  0  0  0
  2  4  1  0  0  0
  2  5  1  0  0  0
  3  4  2  0  0  0
 63 62  1  0  0  0
  6  8  1  0  0  0
  6 11  2  0  0  0
  7 10  1  0  0  0
  7 11  1  0  0  0
 62 61  1  0  0  0
 26 28  1  0  0  0
 26 32  1  0  0  0
 26 29  1  0  0  0
 12 18  1  0  0  0
 12 19  1  0  0  0
 61 60  1  0  0  0
 30 36  1  0  0  0
 30 37  1  0  0  0
 30 38  1  0  0  0
 20 21  2  0  0  0
 60 59  1  0  0  0
 22 21  1  0  0  0
 22 23  1  0  0  0
 59 58  1  0  0  0
 27 28  2  0  0  0
 58 57  1  0  0  0
 31 37  2  0  0  0
 57 56  1  0  0  0
 56 55  1  0  0  0
 55 54  1  0  0  0
 54 53  1  0  0  0
 53 52  1  0  0  0
 52 51  1  0  0  0
 51 50  1  0  0  0
 50 49  1  0  0  0
 49 47  1  0  0  0
 47 48  2  0  0  0
 48 45  1  0  0  0
 42 41  1  0  0  0
 41 40  1  0  0  0
 40 39  1  0  0  0
 39  1  1  0  0  0
  1 21  1  0  0  0
  8  4  1  0  0  0
  8  9  1  0  0  0
  8 10  1  0  0  0
 11 13  1  0  0  0
 13 14  2  0  0  0
 13 18  1  0  0  0
 14 15  1  0  0  0
 15 16  2  0  0  0
 16 17  1  0  0  0
 17 18  2  0  0  0
 23 24  1  0  0  0
 23 25  1  0  0  0
 25 28  1  0  0  0
 32 33  1  0  0  0
 32 37  1  0  0  0
 33 34  1  0  0  0
 34 35  1  0  0  0
 35 36  1  0  0  0
M  END
> <minimizedAffinity>
-8.30505

> <CNNscore>
0.1826747209

> <CNNaffinity>
7.7021560669

> <CNN_VS>
1.4069892168

> <CNNaffinity_variance>
1.6658760309

$$$$
/media/chris/experiments/cd1a-new-docking/inputs/ligands/7ryo_ligand.pdb


 65 67  0  0  0  0  0  0  0  0999 V2000
  -34.2623   58.1016   63.6827 C   0  0  0  0  0  0  0  0  0  0  0  0
  -35.3900   59.0039   63.8457 N   0  0  0  0  0  0  0  0  0  0  0  0
  -36.4556   57.6460   65.2862 O   0  0  0  0  0  0  0  0  0  0  0  0
  -36.4080   58.6885   64.6503 C   0  0  0  0  0  0  0  0  0  0  0  0
  -35.4037   59.8582   63.3567 H   0  0  0  0  0  0  0  0  0  0  0  0
  -38.8524   58.9853   64.5584 N   0  0  0  0  0  0  0  0  0  0  0  0
  -39.1061   60.1457   66.4747 O   0  0  0  0  0  0  0  0  0  0  0  0
  -37.5725   59.6877   64.7482 C   0  0  0  0  0  0  0  0  0  0  0  0
  -37.4150   60.7382   63.6530 C   0  0  0  0  0  0  0  0  0  0  0  0
  -37.7081   60.3308   66.1363 C   0  0  0  0  0  0  0  0  0  0  0  0
  -39.5987   59.2960   65.5360 C   0  0  0  0  0  0  0  0  0  0  0  0
  -40.6700   56.9514   64.2560 O   0  0  0  0  0  0  0  0  0  0  0  0
  -40.9689   58.8288   65.7598 C   0  0  0  0  0  0  0  0  0  0  0  0
  -41.7674   59.4376   66.7288 C   0  0  0  0  0  0  0  0  0  0  0  0
  -42.9627   58.8586   67.1189 C   0  0  0  0  0  0  0  0  0  0  0  0
  -43.3803   57.6727   66.5550 C   0  0  0  0  0  0  0  0  0  0  0  0
  -42.6053   57.0467   65.5958 C   0  0  0  0  0  0  0  0  0  0  0  0
  -41.3998   57.6120   65.1921 C   0  0  0  0  0  0  0  0  0  0  0  0
  -39.8536   57.3055   63.9627 H   0  0  0  0  0  0  0  0  0  0  0  0
  -31.8810   58.3363   64.0216 O   0  0  0  0  0  0  0  0  0  0  0  0
  -32.9406   58.8480   63.7859 C   0  0  0  0  0  0  0  0  0  0  0  0
  -33.1271   60.1658   63.5969 O   0  0  0  0  0  0  0  0  0  0  0  0
  -32.5007   60.7925   62.4288 C   0  0  0  0  0  0  0  0  0  0  0  0
  -31.5159   59.8119   61.8438 C   0  0  0  0  0  0  0  0  0  0  0  0
  -31.8256   62.0456   62.9517 C   0  0  0  0  0  0  0  0  0  0  0  0
  -33.1127   64.0883   62.8371 N   0  0  0  0  0  0  0  0  0  0  0  0
  -31.7928   63.5561   61.0945 O   0  0  0  0  0  0  0  0  0  0  0  0
  -32.2422   63.2944   62.2068 C   0  0  0  0  0  0  0  0  0  0  0  0
  -33.4172   64.9122   62.3924 H   0  0  0  0  0  0  0  0  0  0  0  0
  -35.8231   63.7095   65.2043 N   0  0  0  0  0  0  0  0  0  0  0  0
  -35.5133   65.0468   63.4304 O   0  0  0  0  0  0  0  0  0  0  0  0
  -33.6226   63.7706   64.1594 C   0  0  0  0  0  0  0  0  0  0  0  0
  -32.7986   64.4950   65.2298 C   0  0  0  0  0  0  0  0  0  0  0  0
  -32.9456   63.8952   66.6240 C   0  0  0  0  0  0  0  0  0  0  0  0
  -34.3458   63.9295   67.2037 C   0  0  0  0  0  0  0  0  0  0  0  0
  -35.3532   63.0947   66.4411 C   0  0  0  0  0  0  0  0  0  0  0  0
  -35.0697   64.2315   64.2337 C   0  0  0  0  0  0  0  0  0  0  0  0
  -36.7981   63.7429   65.0715 H   0  0  0  0  0  0  0  0  0  0  0  0
  -34.3533   57.3314   62.3645 C   0  0  0  0  0  0  0  0  0  0  0  0
  -35.3902   57.9241   61.4165 C   0  0  0  0  0  0  0  0  0  0  0  0
  -36.7733   57.3257   61.5947 C   0  0  0  0  0  0  0  0  0  0  0  0
  -37.9100   58.2096   61.1301 C   0  0  0  0  0  0  0  0  0  0  0  0
  -39.1944   57.6719   61.5496 N   0  0  0  0  0  0  0  0  0  0  0  0
  -41.4493   57.7684   61.5415 O   0  0  0  0  0  0  0  0  0  0  0  0
  -40.3537   58.2215   61.1716 C   0  0  0  0  0  0  0  0  0  0  0  0
  -39.2111   56.8774   62.1309 H   0  0  0  0  0  0  0  0  0  0  0  0
  -40.8062   59.4124   59.0385 C   0  0  0  0  0  0  0  0  0  0  0  0
  -40.2151   59.3498   60.2240 C   0  0  0  0  0  0  0  0  0  0  0  0
  -41.7268   58.4078   58.4188 C   0  0  0  0  0  0  0  0  0  0  0  0
  -42.0914   58.7839   56.9879 C   0  0  0  0  0  0  0  0  0  0  0  0
  -43.5482   59.1741   56.8083 C   0  0  0  0  0  0  0  0  0  0  0  0
  -44.5245   58.0796   57.2059 C   0  0  0  0  0  0  0  0  0  0  0  0
  -45.9544   58.5526   57.3893 C   0  0  0  0  0  0  0  0  0  0  0  0
  -46.9909   57.5237   56.9694 C   0  0  0  0  0  0  0  0  0  0  0  0
  -47.9781   57.1761   58.0665 C   0  0  0  0  0  0  0  0  0  0  0  0
  -47.3818   57.2757   59.4563 C   0  0  0  0  0  0  0  0  0  0  0  0
  -48.3452   57.7747   60.5161 C   0  0  0  0  0  0  0  0  0  0  0  0
  -49.7429   58.0035   59.9758 C   0  0  0  0  0  0  0  0  0  0  0  0
  -50.8349   57.5092   60.9103 C   0  0  0  0  0  0  0  0  0  0  0  0
  -50.7520   58.0751   62.3174 C   0  0  0  0  0  0  0  0  0  0  0  0
  -50.6499   59.5914   62.3753 C   0  0  0  0  0  0  0  0  0  0  0  0
  -49.6066   60.1028   63.3593 C   0  0  0  0  0  0  0  0  0  0  0  0
  -48.6489   59.0245   63.8401 C   0  0  0  0  0  0  0  0  0  0  0  0
  -46.4361   58.5039   64.9394 C   0  0  0  0  0  0  0  0  0  0  0  0
  -47.5051   59.5366   64.6966 C   0  0  0  0  0  0  0  0  0  0  0  0
 43 45  1  0  0  0
 43 42  1  0  0  0
 43 46  1  0  0  0
 64 65  1  0  0  0
 44 45  2  0  0  0
 65 63  1  0  0  0
  2  1  1  0  0  0
  2  4  1  0  0  0
  2  5  1  0  0  0
  3  4  2  0  0  0
 63 62  1  0  0  0
  6  8  1  0  0  0
  6 11  2  0  0  0
  7 10  1  0  0  0
  7 11  1  0  0  0
 62 61  1  0  0  0
 26 28  1  0  0  0
 26 32  1  0  0  0
 26 29  1  0  0  0
 12 18  1  0  0  0
 12 19  1  0  0  0
 61 60  1  0  0  0
 30 36  1  0  0  0
 30 37  1  0  0  0
 30 38  1  0  0  0
 20 21  2  0  0  0
 60 59  1  0  0  0
 22 21  1  0  0  0
 22 23  1  0  0  0
 59 58  1  0  0  0
 27 28  2  0  0  0
 58 57  1  0  0  0
 31 37  2  0  0  0
 57 56  1  0  0  0
 56 55  1  0  0  0
 55 54  1  0  0  0
 54 53  1  0  0  0
 53 52  1  0  0  0
 52 51  1  0  0  0
 51 50  1  0  0  0
 50 49  1  0  0  0
 49 47  1  0  0  0
 47 48  2  0  0  0
 48 45  1  0  0  0
 42 41  1  0  0  0
 41 40  1  0  0  0
 40 39  1  0  0  0
 39  1  1  0  0  0
  1 21  1  0  0  0
  8  4  1  0  0  0
  8  9  1  0  0  0
  8 10  1  0  0  0
 11 13  1  0  0  0
 13 14  2  0  0  0
 13 18  1  0  0  0
 14 15  1  0  0  0
 15 16  2  0  0  0
 16 17  1  0  0  0
 17 18  2  0  0  0
 23 24  1  0  0  0
 23 25  1  0  0  0
 25 28  1  0  0  0
 32 33  1  0  0  0
 32 37  1  0  0  0
 33 34  1  0  0  0
 34 35  1  0  0  0
 35 36  1  0  0  0
M  END
> <minimizedAffinity>
-9.20361

> <CNNscore>
0.1775564998

> <CNNaffinity>
7.1303725243

> <CNN_VS>
1.2660440207

> <CNNaffinity_variance>
1.7192573547

$$$$
/media/chris/experiments/cd1a-new-docking/inputs/ligands/7ryo_ligand.pdb


 65 67  0  0  0  0  0  0  0  0999 V2000
  -38.7602   59.8404   64.6559 C   0  0  0  0  0  0  0  0  0  0  0  0
  -37.4820   60.2486   65.2144 N   0  0  0  0  0  0  0  0  0  0  0  0
  -36.7608   61.1484   63.2846 O   0  0  0  0  0  0  0  0  0  0  0  0
  -36.5769   60.8798   64.4624 C   0  0  0  0  0  0  0  0  0  0  0  0
  -37.2809   60.0573   66.1590 H   0  0  0  0  0  0  0  0  0  0  0  0
  -34.5610   62.2904   64.3270 N   0  0  0  0  0  0  0  0  0  0  0  0
  -34.6026   63.1103   66.4268 O   0  0  0  0  0  0  0  0  0  0  0  0
  -35.2410   61.2561   65.1241 C   0  0  0  0  0  0  0  0  0  0  0  0
  -34.3551   60.0156   65.1881 C   0  0  0  0  0  0  0  0  0  0  0  0
  -35.4075   61.9065   66.5054 C   0  0  0  0  0  0  0  0  0  0  0  0
  -34.2646   63.2376   65.1172 C   0  0  0  0  0  0  0  0  0  0  0  0
  -32.1454   64.3560   66.7114 O   0  0  0  0  0  0  0  0  0  0  0  0
  -33.5749   64.4789   64.7577 C   0  0  0  0  0  0  0  0  0  0  0  0
  -33.8330   65.0943   63.5322 C   0  0  0  0  0  0  0  0  0  0  0  0
  -33.0219   66.1193   63.0765 C   0  0  0  0  0  0  0  0  0  0  0  0
  -31.9482   66.5459   63.8275 C   0  0  0  0  0  0  0  0  0  0  0  0
  -31.6680   65.9496   65.0434 C   0  0  0  0  0  0  0  0  0  0  0  0
  -32.4704   64.9165   65.5174 C   0  0  0  0  0  0  0  0  0  0  0  0
  -32.6655   63.6582   67.0585 H   0  0  0  0  0  0  0  0  0  0  0  0
  -40.1135   61.3540   65.9667 O   0  0  0  0  0  0  0  0  0  0  0  0
  -39.9118   60.2410   65.5657 C   0  0  0  0  0  0  0  0  0  0  0  0
  -40.6622   59.1697   65.8764 O   0  0  0  0  0  0  0  0  0  0  0  0
  -42.0234   59.3985   66.3707 C   0  0  0  0  0  0  0  0  0  0  0  0
  -42.1926   58.6215   67.6518 C   0  0  0  0  0  0  0  0  0  0  0  0
  -42.9443   58.9059   65.2712 C   0  0  0  0  0  0  0  0  0  0  0  0
  -44.1178   56.7951   65.1726 N   0  0  0  0  0  0  0  0  0  0  0  0
  -44.7687   58.3108   66.7026 O   0  0  0  0  0  0  0  0  0  0  0  0
  -44.0283   57.9818   65.7800 C   0  0  0  0  0  0  0  0  0  0  0  0
  -44.8097   56.1589   65.4656 H   0  0  0  0  0  0  0  0  0  0  0  0
  -41.2388   55.0176   63.8898 N   0  0  0  0  0  0  0  0  0  0  0  0
  -41.7202   55.9159   65.8879 O   0  0  0  0  0  0  0  0  0  0  0  0
  -43.2236   56.4167   64.0924 C   0  0  0  0  0  0  0  0  0  0  0  0
  -42.8020   57.6581   63.2982 C   0  0  0  0  0  0  0  0  0  0  0  0
  -42.2529   57.3392   61.9119 C   0  0  0  0  0  0  0  0  0  0  0  0
  -40.9987   56.4883   61.8878 C   0  0  0  0  0  0  0  0  0  0  0  0
  -41.1885   55.0884   62.4334 C   0  0  0  0  0  0  0  0  0  0  0  0
  -41.9942   55.7612   64.7014 C   0  0  0  0  0  0  0  0  0  0  0  0
  -40.6544   54.3516   64.3191 H   0  0  0  0  0  0  0  0  0  0  0  0
  -38.7870   58.3382   64.3700 C   0  0  0  0  0  0  0  0  0  0  0  0
  -37.3931   57.7199   64.3836 C   0  0  0  0  0  0  0  0  0  0  0  0
  -36.8006   57.5523   62.9967 C   0  0  0  0  0  0  0  0  0  0  0  0
  -37.7965   57.6735   61.8641 C   0  0  0  0  0  0  0  0  0  0  0  0
  -37.1902   58.3012   60.7008 N   0  0  0  0  0  0  0  0  0  0  0  0
  -37.3140   59.7543   58.9782 O   0  0  0  0  0  0  0  0  0  0  0  0
  -37.8286   59.2287   59.9789 C   0  0  0  0  0  0  0  0  0  0  0  0
  -36.2802   58.0347   60.4360 H   0  0  0  0  0  0  0  0  0  0  0  0
  -40.3044   59.4224   59.9006 C   0  0  0  0  0  0  0  0  0  0  0  0
  -39.1488   59.6224   60.5197 C   0  0  0  0  0  0  0  0  0  0  0  0
  -40.5330   58.7628   58.5765 C   0  0  0  0  0  0  0  0  0  0  0  0
  -42.0149   58.5244   58.3133 C   0  0  0  0  0  0  0  0  0  0  0  0
  -42.5236   59.1732   57.0377 C   0  0  0  0  0  0  0  0  0  0  0  0
  -43.9465   58.7776   56.6797 C   0  0  0  0  0  0  0  0  0  0  0  0
  -44.7075   58.0955   57.8010 C   0  0  0  0  0  0  0  0  0  0  0  0
  -46.1831   57.8961   57.4973 C   0  0  0  0  0  0  0  0  0  0  0  0
  -46.9753   57.3551   58.6714 C   0  0  0  0  0  0  0  0  0  0  0  0
  -48.4717   57.5349   58.5124 C   0  0  0  0  0  0  0  0  0  0  0  0
  -49.1646   58.1184   59.7288 C   0  0  0  0  0  0  0  0  0  0  0  0
  -49.9031   57.0722   60.5401 C   0  0  0  0  0  0  0  0  0  0  0  0
  -50.8820   57.6688   61.5380 C   0  0  0  0  0  0  0  0  0  0  0  0
  -50.5227   59.0707   61.9989 C   0  0  0  0  0  0  0  0  0  0  0  0
  -51.1764   59.4838   63.3086 C   0  0  0  0  0  0  0  0  0  0  0  0
  -50.3528   59.1446   64.5435 C   0  0  0  0  0  0  0  0  0  0  0  0
  -48.8793   58.9199   64.2447 C   0  0  0  0  0  0  0  0  0  0  0  0
  -48.0846   59.0461   66.6383 C   0  0  0  0  0  0  0  0  0  0  0  0
  -47.9311   59.5713   65.2351 C   0  0  0  0  0  0  0  0  0  0  0  0
 43 45  1  0  0  0
 43 42  1  0  0  0
 43 46  1  0  0  0
 64 65  1  0  0  0
 44 45  2  0  0  0
 65 63  1  0  0  0
  2  1  1  0  0  0
  2  4  1  0  0  0
  2  5  1  0  0  0
  3  4  2  0  0  0
 63 62  1  0  0  0
  6  8  1  0  0  0
  6 11  2  0  0  0
  7 10  1  0  0  0
  7 11  1  0  0  0
 62 61  1  0  0  0
 26 28  1  0  0  0
 26 32  1  0  0  0
 26 29  1  0  0  0
 12 18  1  0  0  0
 12 19  1  0  0  0
 61 60  1  0  0  0
 30 36  1  0  0  0
 30 37  1  0  0  0
 30 38  1  0  0  0
 20 21  2  0  0  0
 60 59  1  0  0  0
 22 21  1  0  0  0
 22 23  1  0  0  0
 59 58  1  0  0  0
 27 28  2  0  0  0
 58 57  1  0  0  0
 31 37  2  0  0  0
 57 56  1  0  0  0
 56 55  1  0  0  0
 55 54  1  0  0  0
 54 53  1  0  0  0
 53 52  1  0  0  0
 52 51  1  0  0  0
 51 50  1  0  0  0
 50 49  1  0  0  0
 49 47  1  0  0  0
 47 48  2  0  0  0
 48 45  1  0  0  0
 42 41  1  0  0  0
 41 40  1  0  0  0
 40 39  1  0  0  0
 39  1  1  0  0  0
  1 21  1  0  0  0
  8  4  1  0  0  0
  8  9  1  0  0  0
  8 10  1  0  0  0
 11 13  1  0  0  0
 13 14  2  0  0  0
 13 18  1  0  0  0
 14 15  1  0  0  0
 15 16  2  0  0  0
 16 17  1  0  0  0
 17 18  2  0  0  0
 23 24  1  0  0  0
 23 25  1  0  0  0
 25 28  1  0  0  0
 32 33  1  0  0  0
 32 37  1  0  0  0
 33 34  1  0  0  0
 34 35  1  0  0  0
 35 36  1  0  0  0
M  END
> <minimizedAffinity>
-8.39864

> <CNNscore>
0.1738708764

> <CNNaffinity>
7.5872964859

> <CNN_VS>
1.3192099333

> <CNNaffinity_variance>
1.6428172588

$$$$
/media/chris/experiments/cd1a-new-docking/inputs/ligands/7ryo_ligand.pdb


 65 67  0  0  0  0  0  0  0  0999 V2000
  -40.3408   58.9481   60.3914 C   0  0  0  0  0  0  0  0  0  0  0  0
  -38.9262   58.9179   60.7235 N   0  0  0  0  0  0  0  0  0  0  0  0
  -39.2508   59.6835   62.8121 O   0  0  0  0  0  0  0  0  0  0  0  0
  -38.4983   59.2966   61.9303 C   0  0  0  0  0  0  0  0  0  0  0  0
  -38.2751   58.6145   60.0502 H   0  0  0  0  0  0  0  0  0  0  0  0
  -36.4858   60.6163   62.4595 N   0  0  0  0  0  0  0  0  0  0  0  0
  -35.7322   59.3734   64.1829 O   0  0  0  0  0  0  0  0  0  0  0  0
  -36.9838   59.2568   62.1923 C   0  0  0  0  0  0  0  0  0  0  0  0
  -36.2830   58.7052   60.9544 C   0  0  0  0  0  0  0  0  0  0  0  0
  -36.6049   58.4713   63.4565 C   0  0  0  0  0  0  0  0  0  0  0  0
  -35.8330   60.5693   63.5462 C   0  0  0  0  0  0  0  0  0  0  0  0
  -36.5221   61.4797   66.1881 O   0  0  0  0  0  0  0  0  0  0  0  0
  -35.1563   61.6936   64.1971 C   0  0  0  0  0  0  0  0  0  0  0  0
  -34.0389   62.2792   63.6007 C   0  0  0  0  0  0  0  0  0  0  0  0
  -33.2502   63.1692   64.3092 C   0  0  0  0  0  0  0  0  0  0  0  0
  -33.5584   63.4892   65.6136 C   0  0  0  0  0  0  0  0  0  0  0  0
  -34.6578   62.9193   66.2293 C   0  0  0  0  0  0  0  0  0  0  0  0
  -35.4615   62.0209   65.5343 C   0  0  0  0  0  0  0  0  0  0  0  0
  -37.0829   60.8714   65.7483 H   0  0  0  0  0  0  0  0  0  0  0  0
  -42.2456   57.5678   60.9453 O   0  0  0  0  0  0  0  0  0  0  0  0
  -41.0543   57.7078   60.9082 C   0  0  0  0  0  0  0  0  0  0  0  0
  -40.1645   56.7964   61.3381 O   0  0  0  0  0  0  0  0  0  0  0  0
  -40.5711   55.8867   62.4137 C   0  0  0  0  0  0  0  0  0  0  0  0
  -42.0065   55.4917   62.1746 C   0  0  0  0  0  0  0  0  0  0  0  0
  -40.3951   56.6715   63.6993 C   0  0  0  0  0  0  0  0  0  0  0  0
  -41.9912   57.3484   65.3835 N   0  0  0  0  0  0  0  0  0  0  0  0
  -41.7142   55.1499   64.9939 O   0  0  0  0  0  0  0  0  0  0  0  0
  -41.4226   56.3177   64.7515 C   0  0  0  0  0  0  0  0  0  0  0  0
  -42.6644   57.1700   66.0795 H   0  0  0  0  0  0  0  0  0  0  0  0
  -41.0036   60.6880   66.3657 N   0  0  0  0  0  0  0  0  0  0  0  0
  -42.2188   59.0918   67.3689 O   0  0  0  0  0  0  0  0  0  0  0  0
  -41.6448   58.7243   65.0733 C   0  0  0  0  0  0  0  0  0  0  0  0
  -42.6725   59.3208   64.1049 C   0  0  0  0  0  0  0  0  0  0  0  0
  -42.1750   60.5639   63.3753 C   0  0  0  0  0  0  0  0  0  0  0  0
  -41.8293   61.7445   64.2608 C   0  0  0  0  0  0  0  0  0  0  0  0
  -40.6667   61.4966   65.1989 C   0  0  0  0  0  0  0  0  0  0  0  0
  -41.6474   59.5186   66.3698 C   0  0  0  0  0  0  0  0  0  0  0  0
  -40.7271   61.0420   67.2419 H   0  0  0  0  0  0  0  0  0  0  0  0
  -40.5545   59.1138   58.8861 C   0  0  0  0  0  0  0  0  0  0  0  0
  -41.7726   58.3456   58.3848 C   0  0  0  0  0  0  0  0  0  0  0  0
  -42.3962   58.9583   57.1445 C   0  0  0  0  0  0  0  0  0  0  0  0
  -43.9068   59.0409   57.1704 C   0  0  0  0  0  0  0  0  0  0  0  0
  -44.5056   57.7735   56.7834 N   0  0  0  0  0  0  0  0  0  0  0  0
  -46.3045   56.4145   56.6770 O   0  0  0  0  0  0  0  0  0  0  0  0
  -45.7979   57.5024   56.9966 C   0  0  0  0  0  0  0  0  0  0  0  0
  -43.9414   57.0928   56.3503 H   0  0  0  0  0  0  0  0  0  0  0  0
  -47.2635   58.5699   58.6954 C   0  0  0  0  0  0  0  0  0  0  0  0
  -46.5729   58.6280   57.5647 C   0  0  0  0  0  0  0  0  0  0  0  0
  -47.3975   57.4077   59.6291 C   0  0  0  0  0  0  0  0  0  0  0  0
  -48.7453   56.7134   59.4759 C   0  0  0  0  0  0  0  0  0  0  0  0
  -49.9131   57.6704   59.3113 C   0  0  0  0  0  0  0  0  0  0  0  0
  -50.2158   58.4811   60.5604 C   0  0  0  0  0  0  0  0  0  0  0  0
  -51.1018   57.7720   61.5674 C   0  0  0  0  0  0  0  0  0  0  0  0
  -51.1294   58.4456   62.9294 C   0  0  0  0  0  0  0  0  0  0  0  0
  -50.5221   59.8349   62.9303 C   0  0  0  0  0  0  0  0  0  0  0  0
  -50.8893   60.6435   64.1583 C   0  0  0  0  0  0  0  0  0  0  0  0
  -51.0037   59.8291   65.4326 C   0  0  0  0  0  0  0  0  0  0  0  0
  -49.6575   59.5466   66.0698 C   0  0  0  0  0  0  0  0  0  0  0  0
  -49.2549   58.0829   65.9957 C   0  0  0  0  0  0  0  0  0  0  0  0
  -48.3994   57.7338   64.7902 C   0  0  0  0  0  0  0  0  0  0  0  0
  -47.2063   58.6542   64.5840 C   0  0  0  0  0  0  0  0  0  0  0  0
  -45.8627   57.9386   64.6108 C   0  0  0  0  0  0  0  0  0  0  0  0
  -45.4380   57.5013   66.0035 C   0  0  0  0  0  0  0  0  0  0  0  0
  -46.5272   58.0144   68.2231 C   0  0  0  0  0  0  0  0  0  0  0  0
  -45.6841   58.5340   67.0885 C   0  0  0  0  0  0  0  0  0  0  0  0
 43 45  1  0  0  0
 43 42  1  0  0  0
 43 46  1  0  0  0
 64 65  1  0  0  0
 44 45  2  0  0  0
 65 63  1  0  0  0
  2  1  1  0  0  0
  2  4  1  0  0  0
  2  5  1  0  0  0
  3  4  2  0  0  0
 63 62  1  0  0  0
  6  8  1  0  0  0
  6 11  2  0  0  0
  7 10  1  0  0  0
  7 11  1  0  0  0
 62 61  1  0  0  0
 26 28  1  0  0  0
 26 32  1  0  0  0
 26 29  1  0  0  0
 12 18  1  0  0  0
 12 19  1  0  0  0
 61 60  1  0  0  0
 30 36  1  0  0  0
 30 37  1  0  0  0
 30 38  1  0  0  0
 20 21  2  0  0  0
 60 59  1  0  0  0
 22 21  1  0  0  0
 22 23  1  0  0  0
 59 58  1  0  0  0
 27 28  2  0  0  0
 58 57  1  0  0  0
 31 37  2  0  0  0
 57 56  1  0  0  0
 56 55  1  0  0  0
 55 54  1  0  0  0
 54 53  1  0  0  0
 53 52  1  0  0  0
 52 51  1  0  0  0
 51 50  1  0  0  0
 50 49  1  0  0  0
 49 47  1  0  0  0
 47 48  2  0  0  0
 48 45  1  0  0  0
 42 41  1  0  0  0
 41 40  1  0  0  0
 40 39  1  0  0  0
 39  1  1  0  0  0
  1 21  1  0  0  0
  8  4  1  0  0  0
  8  9  1  0  0  0
  8 10  1  0  0  0
 11 13  1  0  0  0
 13 14  2  0  0  0
 13 18  1  0  0  0
 14 15  1  0  0  0
 15 16  2  0  0  0
 16 17  1  0  0  0
 17 18  2  0  0  0
 23 24  1  0  0  0
 23 25  1  0  0  0
 25 28  1  0  0  0
 32 33  1  0  0  0
 32 37  1  0  0  0
 33 34  1  0  0  0
 34 35  1  0  0  0
 35 36  1  0  0  0
M  END
> <minimizedAffinity>
-7.34150

> <CNNscore>
0.1693885028

> <CNNaffinity>
7.7746534348

> <CNN_VS>
1.3169368505

> <CNNaffinity_variance>
2.3153214455

$$$$
/media/chris/experiments/cd1a-new-docking/inputs/ligands/7ryo_ligand.pdb


 65 67  0  0  0  0  0  0  0  0999 V2000
  -42.3479   57.8746   65.4992 C   0  0  0  0  0  0  0  0  0  0  0  0
  -43.7415   57.5471   65.7504 N   0  0  0  0  0  0  0  0  0  0  0  0
  -43.9472   59.0502   67.4095 O   0  0  0  0  0  0  0  0  0  0  0  0
  -44.4314   58.1778   66.7039 C   0  0  0  0  0  0  0  0  0  0  0  0
  -44.1823   56.8514   65.2110 H   0  0  0  0  0  0  0  0  0  0  0  0
  -46.7803   58.9201   66.7659 N   0  0  0  0  0  0  0  0  0  0  0  0
  -47.6495   57.3450   65.4071 O   0  0  0  0  0  0  0  0  0  0  0  0
  -45.8937   57.7550   66.9208 C   0  0  0  0  0  0  0  0  0  0  0  0
  -46.0430   57.2015   68.3348 C   0  0  0  0  0  0  0  0  0  0  0  0
  -46.4034   56.7621   65.8658 C   0  0  0  0  0  0  0  0  0  0  0  0
  -47.6821   58.5966   65.9344 C   0  0  0  0  0  0  0  0  0  0  0  0
  -50.4482   57.8906   66.3001 O   0  0  0  0  0  0  0  0  0  0  0  0
  -48.7830   59.4487   65.4786 C   0  0  0  0  0  0  0  0  0  0  0  0
  -48.5198   60.7210   64.9695 C   0  0  0  0  0  0  0  0  0  0  0  0
  -49.5501   61.6226   64.7654 C   0  0  0  0  0  0  0  0  0  0  0  0
  -50.8502   61.2754   65.0621 C   0  0  0  0  0  0  0  0  0  0  0  0
  -51.1373   60.0224   65.5720 C   0  0  0  0  0  0  0  0  0  0  0  0
  -50.1151   59.1031   65.7861 C   0  0  0  0  0  0  0  0  0  0  0  0
  -49.7833   57.2491   66.4562 H   0  0  0  0  0  0  0  0  0  0  0  0
  -43.1057   59.5032   63.8823 O   0  0  0  0  0  0  0  0  0  0  0  0
  -42.2228   59.0753   64.5734 C   0  0  0  0  0  0  0  0  0  0  0  0
  -40.9775   59.5796   64.6205 O   0  0  0  0  0  0  0  0  0  0  0  0
  -40.4459   59.9890   65.9241 C   0  0  0  0  0  0  0  0  0  0  0  0
  -41.3091   61.1077   66.4507 C   0  0  0  0  0  0  0  0  0  0  0  0
  -39.0206   60.4350   65.6611 C   0  0  0  0  0  0  0  0  0  0  0  0
  -36.7910   59.6009   65.2424 N   0  0  0  0  0  0  0  0  0  0  0  0
  -38.4253   58.1161   65.6744 O   0  0  0  0  0  0  0  0  0  0  0  0
  -38.0565   59.2776   65.5241 C   0  0  0  0  0  0  0  0  0  0  0  0
  -36.1254   58.8826   65.1402 H   0  0  0  0  0  0  0  0  0  0  0  0
  -35.2014   62.2532   63.3632 N   0  0  0  0  0  0  0  0  0  0  0  0
  -34.8557   60.0403   63.4832 O   0  0  0  0  0  0  0  0  0  0  0  0
  -36.3692   60.9815   65.0826 C   0  0  0  0  0  0  0  0  0  0  0  0
  -35.6602   61.4660   66.3524 C   0  0  0  0  0  0  0  0  0  0  0  0
  -35.5860   62.9845   66.4692 C   0  0  0  0  0  0  0  0  0  0  0  0
  -34.8132   63.6856   65.3697 C   0  0  0  0  0  0  0  0  0  0  0  0
  -35.4306   63.5488   63.9937 C   0  0  0  0  0  0  0  0  0  0  0  0
  -35.4086   61.0514   63.9060 C   0  0  0  0  0  0  0  0  0  0  0  0
  -34.8579   62.2668   62.4406 H   0  0  0  0  0  0  0  0  0  0  0  0
  -41.5869   56.6718   64.9396 C   0  0  0  0  0  0  0  0  0  0  0  0
  -41.8859   56.4313   63.4637 C   0  0  0  0  0  0  0  0  0  0  0  0
  -40.6376   56.2092   62.6301 C   0  0  0  0  0  0  0  0  0  0  0  0
  -39.7090   57.4012   62.5507 C   0  0  0  0  0  0  0  0  0  0  0  0
  -38.3839   57.0018   62.1042 N   0  0  0  0  0  0  0  0  0  0  0  0
  -36.3500   57.5460   61.2912 O   0  0  0  0  0  0  0  0  0  0  0  0
  -37.4767   57.8903   61.6843 C   0  0  0  0  0  0  0  0  0  0  0  0
  -38.1469   56.0463   62.1114 H   0  0  0  0  0  0  0  0  0  0  0  0
  -38.6070   59.9557   60.8905 C   0  0  0  0  0  0  0  0  0  0  0  0
  -37.9026   59.3025   61.8049 C   0  0  0  0  0  0  0  0  0  0  0  0
  -39.1286   59.4323   59.5887 C   0  0  0  0  0  0  0  0  0  0  0  0
  -40.6301   59.6535   59.4528 C   0  0  0  0  0  0  0  0  0  0  0  0
  -41.3575   58.5151   58.7586 C   0  0  0  0  0  0  0  0  0  0  0  0
  -41.5042   58.7118   57.2589 C   0  0  0  0  0  0  0  0  0  0  0  0
  -42.9065   59.0773   56.8098 C   0  0  0  0  0  0  0  0  0  0  0  0
  -43.9965   58.3308   57.5609 C   0  0  0  0  0  0  0  0  0  0  0  0
  -45.3480   58.3819   56.8755 C   0  0  0  0  0  0  0  0  0  0  0  0
  -46.5095   58.3587   57.8488 C   0  0  0  0  0  0  0  0  0  0  0  0
  -46.4626   57.2222   58.8520 C   0  0  0  0  0  0  0  0  0  0  0  0
  -47.5891   56.2259   58.6612 C   0  0  0  0  0  0  0  0  0  0  0  0
  -48.8498   56.8499   58.0855 C   0  0  0  0  0  0  0  0  0  0  0  0
  -49.6896   57.6044   59.1014 C   0  0  0  0  0  0  0  0  0  0  0  0
  -49.8005   56.9167   60.4535 C   0  0  0  0  0  0  0  0  0  0  0  0
  -51.0487   57.2962   61.2386 C   0  0  0  0  0  0  0  0  0  0  0  0
  -50.8129   58.4071   62.2493 C   0  0  0  0  0  0  0  0  0  0  0  0
  -49.6381   60.4216   61.2810 C   0  0  0  0  0  0  0  0  0  0  0  0
  -49.4999   59.1482   62.0733 C   0  0  0  0  0  0  0  0  0  0  0  0
 43 45  1  0  0  0
 43 42  1  0  0  0
 43 46  1  0  0  0
 64 65  1  0  0  0
 44 45  2  0  0  0
 65 63  1  0  0  0
  2  1  1  0  0  0
  2  4  1  0  0  0
  2  5  1  0  0  0
  3  4  2  0  0  0
 63 62  1  0  0  0
  6  8  1  0  0  0
  6 11  2  0  0  0
  7 10  1  0  0  0
  7 11  1  0  0  0
 62 61  1  0  0  0
 26 28  1  0  0  0
 26 32  1  0  0  0
 26 29  1  0  0  0
 12 18  1  0  0  0
 12 19  1  0  0  0
 61 60  1  0  0  0
 30 36  1  0  0  0
 30 37  1  0  0  0
 30 38  1  0  0  0
 20 21  2  0  0  0
 60 59  1  0  0  0
 22 21  1  0  0  0
 22 23  1  0  0  0
 59 58  1  0  0  0
 27 28  2  0  0  0
 58 57  1  0  0  0
 31 37  2  0  0  0
 57 56  1  0  0  0
 56 55  1  0  0  0
 55 54  1  0  0  0
 54 53  1  0  0  0
 53 52  1  0  0  0
 52 51  1  0  0  0
 51 50  1  0  0  0
 50 49  1  0  0  0
 49 47  1  0  0  0
 47 48  2  0  0  0
 48 45  1  0  0  0
 42 41  1  0  0  0
 41 40  1  0  0  0
 40 39  1  0  0  0
 39  1  1  0  0  0
  1 21  1  0  0  0
  8  4  1  0  0  0
  8  9  1  0  0  0
  8 10  1  0  0  0
 11 13  1  0  0  0
 13 14  2  0  0  0
 13 18  1  0  0  0
 14 15  1  0  0  0
 15 16  2  0  0  0
 16 17  1  0  0  0
 17 18  2  0  0  0
 23 24  1  0  0  0
 23 25  1  0  0  0
 25 28  1  0  0  0
 32 33  1  0  0  0
 32 37  1  0  0  0
 33 34  1  0  0  0
 34 35  1  0  0  0
 35 36  1  0  0  0
M  END
> <minimizedAffinity>
-8.19400

> <CNNscore>
0.1685847044

> <CNNaffinity>
7.9044990540

> <CNN_VS>
1.3325775862

> <CNNaffinity_variance>
1.5353550911

$$$$
/media/chris/experiments/cd1a-new-docking/inputs/ligands/7ryo_ligand.pdb


 65 67  0  0  0  0  0  0  0  0999 V2000
  -39.8964   59.2198   65.3174 C   0  0  0  0  0  0  0  0  0  0  0  0
  -41.0185   58.4551   65.8355 N   0  0  0  0  0  0  0  0  0  0  0  0
  -42.4392   59.1949   64.2580 O   0  0  0  0  0  0  0  0  0  0  0  0
  -42.2156   58.5124   65.2467 C   0  0  0  0  0  0  0  0  0  0  0  0
  -40.8946   57.8879   66.6306 H   0  0  0  0  0  0  0  0  0  0  0  0
  -44.5923   58.4889   65.8970 N   0  0  0  0  0  0  0  0  0  0  0  0
  -45.1745   56.5466   64.9114 O   0  0  0  0  0  0  0  0  0  0  0  0
  -43.3552   57.6911   65.8720 C   0  0  0  0  0  0  0  0  0  0  0  0
  -42.9717   57.3238   67.3023 C   0  0  0  0  0  0  0  0  0  0  0  0
  -43.7341   56.4506   65.0495 C   0  0  0  0  0  0  0  0  0  0  0  0
  -45.5014   57.7873   65.3580 C   0  0  0  0  0  0  0  0  0  0  0  0
  -47.7078   56.1692   66.2511 O   0  0  0  0  0  0  0  0  0  0  0  0
  -46.8994   58.1818   65.1688 C   0  0  0  0  0  0  0  0  0  0  0  0
  -47.2087   59.4463   64.6662 C   0  0  0  0  0  0  0  0  0  0  0  0
  -48.5082   59.9211   64.7107 C   0  0  0  0  0  0  0  0  0  0  0  0
  -49.5144   59.1508   65.2521 C   0  0  0  0  0  0  0  0  0  0  0  0
  -49.2335   57.8959   65.7610 C   0  0  0  0  0  0  0  0  0  0  0  0
  -47.9332   57.4021   65.7272 C   0  0  0  0  0  0  0  0  0  0  0  0
  -46.8432   55.8080   66.2438 H   0  0  0  0  0  0  0  0  0  0  0  0
  -39.2921   57.7244   63.5176 O   0  0  0  0  0  0  0  0  0  0  0  0
  -38.9660   58.3426   64.4931 C   0  0  0  0  0  0  0  0  0  0  0  0
  -37.7300   58.3386   65.0218 O   0  0  0  0  0  0  0  0  0  0  0  0
  -36.7118   57.4910   64.3938 C   0  0  0  0  0  0  0  0  0  0  0  0
  -35.7263   57.0777   65.4576 C   0  0  0  0  0  0  0  0  0  0  0  0
  -36.0739   58.3492   63.3186 C   0  0  0  0  0  0  0  0  0  0  0  0
  -34.7502   57.6513   61.4204 N   0  0  0  0  0  0  0  0  0  0  0  0
  -36.9259   57.0810   61.4754 O   0  0  0  0  0  0  0  0  0  0  0  0
  -35.9598   57.6391   61.9879 C   0  0  0  0  0  0  0  0  0  0  0  0
  -34.6252   57.2050   60.5517 H   0  0  0  0  0  0  0  0  0  0  0  0
  -31.6068   59.4361   61.2584 N   0  0  0  0  0  0  0  0  0  0  0  0
  -32.5737   57.9112   59.9277 O   0  0  0  0  0  0  0  0  0  0  0  0
  -33.6147   58.3038   62.0483 C   0  0  0  0  0  0  0  0  0  0  0  0
  -33.0445   57.4150   63.1594 C   0  0  0  0  0  0  0  0  0  0  0  0
  -32.1720   58.1685   64.1574 C   0  0  0  0  0  0  0  0  0  0  0  0
  -30.9288   58.8143   63.5784 C   0  0  0  0  0  0  0  0  0  0  0  0
  -31.2108   59.9158   62.5782 C   0  0  0  0  0  0  0  0  0  0  0  0
  -32.5518   58.5336   60.9855 C   0  0  0  0  0  0  0  0  0  0  0  0
  -31.1266   59.8181   60.4884 H   0  0  0  0  0  0  0  0  0  0  0  0
  -39.1331   59.9184   66.4436 C   0  0  0  0  0  0  0  0  0  0  0  0
  -38.2693   61.0670   65.9337 C   0  0  0  0  0  0  0  0  0  0  0  0
  -36.9302   61.1665   66.6405 C   0  0  0  0  0  0  0  0  0  0  0  0
  -36.4870   62.5772   66.9611 C   0  0  0  0  0  0  0  0  0  0  0  0
  -35.0391   62.6572   67.0711 N   0  0  0  0  0  0  0  0  0  0  0  0
  -33.0516   63.3338   66.2430 O   0  0  0  0  0  0  0  0  0  0  0  0
  -34.2890   63.2777   66.1539 C   0  0  0  0  0  0  0  0  0  0  0  0
  -34.5967   62.2410   67.8459 H   0  0  0  0  0  0  0  0  0  0  0  0
  -35.3955   63.3848   63.9318 C   0  0  0  0  0  0  0  0  0  0  0  0
  -35.0615   63.9488   65.0847 C   0  0  0  0  0  0  0  0  0  0  0  0
  -35.0978   61.9915   63.4726 C   0  0  0  0  0  0  0  0  0  0  0  0
  -36.3701   61.1715   63.2967 C   0  0  0  0  0  0  0  0  0  0  0  0
  -37.0264   61.3416   61.9376 C   0  0  0  0  0  0  0  0  0  0  0  0
  -38.3318   60.5771   61.7926 C   0  0  0  0  0  0  0  0  0  0  0  0
  -38.5740   60.0094   60.4066 C   0  0  0  0  0  0  0  0  0  0  0  0
  -40.0466   59.8804   60.0543 C   0  0  0  0  0  0  0  0  0  0  0  0
  -40.3337   58.7882   59.0426 C   0  0  0  0  0  0  0  0  0  0  0  0
  -41.7925   58.7220   58.6370 C   0  0  0  0  0  0  0  0  0  0  0  0
  -42.0372   58.8986   57.1506 C   0  0  0  0  0  0  0  0  0  0  0  0
  -43.4969   59.1429   56.8225 C   0  0  0  0  0  0  0  0  0  0  0  0
  -44.4140   58.0320   57.3070 C   0  0  0  0  0  0  0  0  0  0  0  0
  -45.8904   58.3874   57.2772 C   0  0  0  0  0  0  0  0  0  0  0  0
  -46.8173   57.2343   57.6298 C   0  0  0  0  0  0  0  0  0  0  0  0
  -48.0607   57.6554   58.4010 C   0  0  0  0  0  0  0  0  0  0  0  0
  -47.9130   57.5188   59.9078 C   0  0  0  0  0  0  0  0  0  0  0  0
  -50.2744   57.5854   60.7997 C   0  0  0  0  0  0  0  0  0  0  0  0
  -48.9451   58.2879   60.7125 C   0  0  0  0  0  0  0  0  0  0  0  0
 43 45  1  0  0  0
 43 42  1  0  0  0
 43 46  1  0  0  0
 64 65  1  0  0  0
 44 45  2  0  0  0
 65 63  1  0  0  0
  2  1  1  0  0  0
  2  4  1  0  0  0
  2  5  1  0  0  0
  3  4  2  0  0  0
 63 62  1  0  0  0
  6  8  1  0  0  0
  6 11  2  0  0  0
  7 10  1  0  0  0
  7 11  1  0  0  0
 62 61  1  0  0  0
 26 28  1  0  0  0
 26 32  1  0  0  0
 26 29  1  0  0  0
 12 18  1  0  0  0
 12 19  1  0  0  0
 61 60  1  0  0  0
 30 36  1  0  0  0
 30 37  1  0  0  0
 30 38  1  0  0  0
 20 21  2  0  0  0
 60 59  1  0  0  0
 22 21  1  0  0  0
 22 23  1  0  0  0
 59 58  1  0  0  0
 27 28  2  0  0  0
 58 57  1  0  0  0
 31 37  2  0  0  0
 57 56  1  0  0  0
 56 55  1  0  0  0
 55 54  1  0  0  0
 54 53  1  0  0  0
 53 52  1  0  0  0
 52 51  1  0  0  0
 51 50  1  0  0  0
 50 49  1  0  0  0
 49 47  1  0  0  0
 47 48  2  0  0  0
 48 45  1  0  0  0
 42 41  1  0  0  0
 41 40  1  0  0  0
 40 39  1  0  0  0
 39  1  1  0  0  0
  1 21  1  0  0  0
  8  4  1  0  0  0
  8  9  1  0  0  0
  8 10  1  0  0  0
 11 13  1  0  0  0
 13 14  2  0  0  0
 13 18  1  0  0  0
 14 15  1  0  0  0
 15 16  2  0  0  0
 16 17  1  0  0  0
 17 18  2  0  0  0
 23 24  1  0  0  0
 23 25  1  0  0  0
 25 28  1  0  0  0
 32 33  1  0  0  0
 32 37  1  0  0  0
 33 34  1  0  0  0
 34 35  1  0  0  0
 35 36  1  0  0  0
M  END
> <minimizedAffinity>
-6.85643

> <CNNscore>
0.1682027578

> <CNNaffinity>
7.8150000572

> <CNN_VS>
1.3145045042

> <CNNaffinity_variance>
0.6318563223

$$$$
/media/chris/experiments/cd1a-new-docking/inputs/ligands/7ryo_ligand.pdb


 65 67  0  0  0  0  0  0  0  0999 V2000
  -39.8202   58.8682   60.9291 C   0  0  0  0  0  0  0  0  0  0  0  0
  -38.4732   59.0396   61.4473 N   0  0  0  0  0  0  0  0  0  0  0  0
  -38.1769   56.8412   61.8122 O   0  0  0  0  0  0  0  0  0  0  0  0
  -37.7565   57.9880   61.8514 C   0  0  0  0  0  0  0  0  0  0  0  0
  -38.0844   59.9425   61.5012 H   0  0  0  0  0  0  0  0  0  0  0  0
  -36.1776   59.6996   62.6572 N   0  0  0  0  0  0  0  0  0  0  0  0
  -35.5837   58.7025   64.5900 O   0  0  0  0  0  0  0  0  0  0  0  0
  -36.3492   58.2587   62.4083 C   0  0  0  0  0  0  0  0  0  0  0  0
  -35.3161   57.8053   61.3812 C   0  0  0  0  0  0  0  0  0  0  0  0
  -36.1038   57.6165   63.7817 C   0  0  0  0  0  0  0  0  0  0  0  0
  -35.7686   59.8274   63.8512 C   0  0  0  0  0  0  0  0  0  0  0  0
  -33.6335   61.5648   63.0106 O   0  0  0  0  0  0  0  0  0  0  0  0
  -35.4620   61.0892   64.5291 C   0  0  0  0  0  0  0  0  0  0  0  0
  -36.3024   61.5660   65.5359 C   0  0  0  0  0  0  0  0  0  0  0  0
  -36.1655   62.8588   66.0113 C   0  0  0  0  0  0  0  0  0  0  0  0
  -35.1968   63.6927   65.4966 C   0  0  0  0  0  0  0  0  0  0  0  0
  -34.3540   63.2461   64.4951 C   0  0  0  0  0  0  0  0  0  0  0  0
  -34.4774   61.9506   64.0027 C   0  0  0  0  0  0  0  0  0  0  0  0
  -33.6907   60.6989   62.6572 H   0  0  0  0  0  0  0  0  0  0  0  0
  -39.1402   60.2241   59.0477 O   0  0  0  0  0  0  0  0  0  0  0  0
  -39.9969   59.5941   59.6038 C   0  0  0  0  0  0  0  0  0  0  0  0
  -41.2545   59.4498   59.1509 O   0  0  0  0  0  0  0  0  0  0  0  0
  -41.6132   58.1882   58.4959 C   0  0  0  0  0  0  0  0  0  0  0  0
  -40.9497   58.1589   57.1421 C   0  0  0  0  0  0  0  0  0  0  0  0
  -43.1263   58.1965   58.3967 C   0  0  0  0  0  0  0  0  0  0  0  0
  -44.9160   58.5163   56.8039 N   0  0  0  0  0  0  0  0  0  0  0  0
  -42.8879   59.3608   56.3185 O   0  0  0  0  0  0  0  0  0  0  0  0
  -43.6278   58.7418   57.0780 C   0  0  0  0  0  0  0  0  0  0  0  0
  -45.2897   58.8489   55.9558 H   0  0  0  0  0  0  0  0  0  0  0  0
  -46.7880   55.5768   57.7775 N   0  0  0  0  0  0  0  0  0  0  0  0
  -46.2499   56.4616   55.7879 O   0  0  0  0  0  0  0  0  0  0  0  0
  -45.7807   57.7949   57.7210 C   0  0  0  0  0  0  0  0  0  0  0  0
  -46.9654   58.6766   58.1319 C   0  0  0  0  0  0  0  0  0  0  0  0
  -47.6645   58.2073   59.4031 C   0  0  0  0  0  0  0  0  0  0  0  0
  -48.2870   56.8270   59.3328 C   0  0  0  0  0  0  0  0  0  0  0  0
  -47.2878   55.7052   59.1422 C   0  0  0  0  0  0  0  0  0  0  0  0
  -46.2942   56.5521   57.0113 C   0  0  0  0  0  0  0  0  0  0  0  0
  -46.8181   54.6766   57.3801 H   0  0  0  0  0  0  0  0  0  0  0  0
  -40.8685   59.3236   61.9454 C   0  0  0  0  0  0  0  0  0  0  0  0
  -41.0450   60.8382   61.9579 C   0  0  0  0  0  0  0  0  0  0  0  0
  -41.4517   61.3808   63.3154 C   0  0  0  0  0  0  0  0  0  0  0  0
  -41.6471   60.3285   64.3850 C   0  0  0  0  0  0  0  0  0  0  0  0
  -40.9522   60.6934   65.6092 N   0  0  0  0  0  0  0  0  0  0  0  0
  -39.1964   60.4483   67.0061 O   0  0  0  0  0  0  0  0  0  0  0  0
  -39.7821   60.1448   65.9538 C   0  0  0  0  0  0  0  0  0  0  0  0
  -41.3563   61.3660   66.2038 H   0  0  0  0  0  0  0  0  0  0  0  0
  -39.6070   57.9616   64.7805 C   0  0  0  0  0  0  0  0  0  0  0  0
  -39.2200   59.2194   64.9448 C   0  0  0  0  0  0  0  0  0  0  0  0
  -40.6703   57.2239   65.5329 C   0  0  0  0  0  0  0  0  0  0  0  0
  -41.6426   56.5219   64.5928 C   0  0  0  0  0  0  0  0  0  0  0  0
  -43.0723   56.4857   65.1042 C   0  0  0  0  0  0  0  0  0  0  0  0
  -43.3642   57.5303   66.1686 C   0  0  0  0  0  0  0  0  0  0  0  0
  -44.8332   57.8799   66.3163 C   0  0  0  0  0  0  0  0  0  0  0  0
  -45.5748   57.9500   64.9917 C   0  0  0  0  0  0  0  0  0  0  0  0
  -46.8576   58.7557   65.0580 C   0  0  0  0  0  0  0  0  0  0  0  0
  -47.7509   58.3573   66.2156 C   0  0  0  0  0  0  0  0  0  0  0  0
  -48.9107   57.4590   65.8306 C   0  0  0  0  0  0  0  0  0  0  0  0
  -50.2594   58.0986   66.0949 C   0  0  0  0  0  0  0  0  0  0  0  0
  -50.1960   59.6143   66.1876 C   0  0  0  0  0  0  0  0  0  0  0  0
  -50.6535   60.3336   64.9306 C   0  0  0  0  0  0  0  0  0  0  0  0
  -49.5203   60.7832   64.0213 C   0  0  0  0  0  0  0  0  0  0  0  0
  -49.6214   60.2498   62.5988 C   0  0  0  0  0  0  0  0  0  0  0  0
  -49.7139   58.7341   62.5265 C   0  0  0  0  0  0  0  0  0  0  0  0
  -50.9283   56.9916   61.1607 C   0  0  0  0  0  0  0  0  0  0  0  0
  -51.0521   58.2090   62.0388 C   0  0  0  0  0  0  0  0  0  0  0  0
 43 45  1  0  0  0
 43 42  1  0  0  0
 43 46  1  0  0  0
 64 65  1  0  0  0
 44 45  2  0  0  0
 65 63  1  0  0  0
  2  1  1  0  0  0
  2  4  1  0  0  0
  2  5  1  0  0  0
  3  4  2  0  0  0
 63 62  1  0  0  0
  6  8  1  0  0  0
  6 11  2  0  0  0
  7 10  1  0  0  0
  7 11  1  0  0  0
 62 61  1  0  0  0
 26 28  1  0  0  0
 26 32  1  0  0  0
 26 29  1  0  0  0
 12 18  1  0  0  0
 12 19  1  0  0  0
 61 60  1  0  0  0
 30 36  1  0  0  0
 30 37  1  0  0  0
 30 38  1  0  0  0
 20 21  2  0  0  0
 60 59  1  0  0  0
 22 21  1  0  0  0
 22 23  1  0  0  0
 59 58  1  0  0  0
 27 28  2  0  0  0
 58 57  1  0  0  0
 31 37  2  0  0  0
 57 56  1  0  0  0
 56 55  1  0  0  0
 55 54  1  0  0  0
 54 53  1  0  0  0
 53 52  1  0  0  0
 52 51  1  0  0  0
 51 50  1  0  0  0
 50 49  1  0  0  0
 49 47  1  0  0  0
 47 48  2  0  0  0
 48 45  1  0  0  0
 42 41  1  0  0  0
 41 40  1  0  0  0
 40 39  1  0  0  0
 39  1  1  0  0  0
  1 21  1  0  0  0
  8  4  1  0  0  0
  8  9  1  0  0  0
  8 10  1  0  0  0
 11 13  1  0  0  0
 13 14  2  0  0  0
 13 18  1  0  0  0
 14 15  1  0  0  0
 15 16  2  0  0  0
 16 17  1  0  0  0
 17 18  2  0  0  0
 23 24  1  0  0  0
 23 25  1  0  0  0
 25 28  1  0  0  0
 32 33  1  0  0  0
 32 37  1  0  0  0
 33 34  1  0  0  0
 34 35  1  0  0  0
 35 36  1  0  0  0
M  END
> <minimizedAffinity>
-6.65921

> <CNNscore>
0.1653335094

> <CNNaffinity>
7.7773270607

> <CNN_VS>
1.2858527899

> <CNNaffinity_variance>
2.4973230362

$$$$
/media/chris/experiments/cd1a-new-docking/inputs/ligands/7ryo_ligand.pdb


 65 67  0  0  0  0  0  0  0  0999 V2000
  -43.6159   57.4452   64.4011 C   0  0  0  0  0  0  0  0  0  0  0  0
  -42.6376   58.5160   64.4936 N   0  0  0  0  0  0  0  0  0  0  0  0
  -41.8502   57.8222   66.4818 O   0  0  0  0  0  0  0  0  0  0  0  0
  -41.8246   58.6109   65.5487 C   0  0  0  0  0  0  0  0  0  0  0  0
  -42.5736   59.1799   63.7695 H   0  0  0  0  0  0  0  0  0  0  0  0
  -39.4808   59.2942   65.8827 N   0  0  0  0  0  0  0  0  0  0  0  0
  -39.2414   60.5383   64.0178 O   0  0  0  0  0  0  0  0  0  0  0  0
  -40.8347   59.7869   65.5797 C   0  0  0  0  0  0  0  0  0  0  0  0
  -41.2634   60.7644   66.6699 C   0  0  0  0  0  0  0  0  0  0  0  0
  -40.6763   60.4856   64.2211 C   0  0  0  0  0  0  0  0  0  0  0  0
  -38.7069   59.7507   64.9872 C   0  0  0  0  0  0  0  0  0  0  0  0
  -36.7806   61.8888   65.0197 O   0  0  0  0  0  0  0  0  0  0  0  0
  -37.2640   59.5171   64.8910 C   0  0  0  0  0  0  0  0  0  0  0  0
  -36.7612   58.2158   64.9239 C   0  0  0  0  0  0  0  0  0  0  0  0
  -35.4042   57.9911   65.0795 C   0  0  0  0  0  0  0  0  0  0  0  0
  -34.5312   59.0501   65.2036 C   0  0  0  0  0  0  0  0  0  0  0  0
  -35.0045   60.3493   65.1787 C   0  0  0  0  0  0  0  0  0  0  0  0
  -36.3654   60.5954   65.0253 C   0  0  0  0  0  0  0  0  0  0  0  0
  -37.6904   62.0883   64.9183 H   0  0  0  0  0  0  0  0  0  0  0  0
  -44.6776   57.4748   66.5720 O   0  0  0  0  0  0  0  0  0  0  0  0
  -44.7551   57.6534   65.3878 C   0  0  0  0  0  0  0  0  0  0  0  0
  -45.8693   58.0457   64.7459 O   0  0  0  0  0  0  0  0  0  0  0  0
  -47.1197   58.1123   65.5086 C   0  0  0  0  0  0  0  0  0  0  0  0
  -47.6148   56.7037   65.7191 C   0  0  0  0  0  0  0  0  0  0  0  0
  -48.0697   58.9373   64.6622 C   0  0  0  0  0  0  0  0  0  0  0  0
  -50.3697   58.4989   64.0620 N   0  0  0  0  0  0  0  0  0  0  0  0
  -49.8764   58.8425   66.2301 O   0  0  0  0  0  0  0  0  0  0  0  0
  -49.5185   58.7594   65.0585 C   0  0  0  0  0  0  0  0  0  0  0  0
  -51.3247   58.3778   64.2683 H   0  0  0  0  0  0  0  0  0  0  0  0
  -49.4015   59.9614   60.8970 N   0  0  0  0  0  0  0  0  0  0  0  0
  -50.8136   60.6072   62.5157 O   0  0  0  0  0  0  0  0  0  0  0  0
  -49.9263   58.3893   62.6833 C   0  0  0  0  0  0  0  0  0  0  0  0
  -50.7768   57.3552   61.9370 C   0  0  0  0  0  0  0  0  0  0  0  0
  -50.1283   56.8398   60.6568 C   0  0  0  0  0  0  0  0  0  0  0  0
  -49.8680   57.8862   59.5915 C   0  0  0  0  0  0  0  0  0  0  0  0
  -48.8656   58.9468   59.9959 C   0  0  0  0  0  0  0  0  0  0  0  0
  -50.0858   59.7499   62.0236 C   0  0  0  0  0  0  0  0  0  0  0  0
  -49.2417   60.9005   60.6482 H   0  0  0  0  0  0  0  0  0  0  0  0
  -42.9625   56.0770   64.6020 C   0  0  0  0  0  0  0  0  0  0  0  0
  -41.7699   55.8620   63.6764 C   0  0  0  0  0  0  0  0  0  0  0  0
  -42.0054   56.3785   62.2691 C   0  0  0  0  0  0  0  0  0  0  0  0
  -40.9360   57.3154   61.7515 C   0  0  0  0  0  0  0  0  0  0  0  0
  -41.0835   57.5367   60.3217 N   0  0  0  0  0  0  0  0  0  0  0  0
  -40.8603   58.8764   58.5191 O   0  0  0  0  0  0  0  0  0  0  0  0
  -40.7217   58.6846   59.7383 C   0  0  0  0  0  0  0  0  0  0  0  0
  -41.4619   56.8182   59.7652 H   0  0  0  0  0  0  0  0  0  0  0  0
  -38.7710   59.7407   60.8577 C   0  0  0  0  0  0  0  0  0  0  0  0
  -40.0781   59.6571   60.6495 C   0  0  0  0  0  0  0  0  0  0  0  0
  -37.6885   58.9184   60.2312 C   0  0  0  0  0  0  0  0  0  0  0  0
  -36.9838   58.0382   61.2563 C   0  0  0  0  0  0  0  0  0  0  0  0
  -35.4711   58.1737   61.2445 C   0  0  0  0  0  0  0  0  0  0  0  0
  -34.7555   57.0687   62.0036 C   0  0  0  0  0  0  0  0  0  0  0  0
  -33.2419   57.1307   61.9201 C   0  0  0  0  0  0  0  0  0  0  0  0
  -32.7297   58.2659   61.0492 C   0  0  0  0  0  0  0  0  0  0  0  0
  -31.3119   58.6899   61.3792 C   0  0  0  0  0  0  0  0  0  0  0  0
  -31.1617   60.1895   61.5386 C   0  0  0  0  0  0  0  0  0  0  0  0
  -32.0704   60.8014   62.5875 C   0  0  0  0  0  0  0  0  0  0  0  0
  -31.7083   62.2376   62.9101 C   0  0  0  0  0  0  0  0  0  0  0  0
  -32.1323   63.2195   61.8302 C   0  0  0  0  0  0  0  0  0  0  0  0
  -32.4604   64.6092   62.3478 C   0  0  0  0  0  0  0  0  0  0  0  0
  -31.6619   65.0230   63.5743 C   0  0  0  0  0  0  0  0  0  0  0  0
  -32.5019   65.6645   64.6703 C   0  0  0  0  0  0  0  0  0  0  0  0
  -32.6165   64.8103   65.9226 C   0  0  0  0  0  0  0  0  0  0  0  0
  -34.0011   63.1535   67.2318 C   0  0  0  0  0  0  0  0  0  0  0  0
  -33.7581   63.8101   65.8984 C   0  0  0  0  0  0  0  0  0  0  0  0
 43 45  1  0  0  0
 43 42  1  0  0  0
 43 46  1  0  0  0
 64 65  1  0  0  0
 44 45  2  0  0  0
 65 63  1  0  0  0
  2  1  1  0  0  0
  2  4  1  0  0  0
  2  5  1  0  0  0
  3  4  2  0  0  0
 63 62  1  0  0  0
  6  8  1  0  0  0
  6 11  2  0  0  0
  7 10  1  0  0  0
  7 11  1  0  0  0
 62 61  1  0  0  0
 26 28  1  0  0  0
 26 32  1  0  0  0
 26 29  1  0  0  0
 12 18  1  0  0  0
 12 19  1  0  0  0
 61 60  1  0  0  0
 30 36  1  0  0  0
 30 37  1  0  0  0
 30 38  1  0  0  0
 20 21  2  0  0  0
 60 59  1  0  0  0
 22 21  1  0  0  0
 22 23  1  0  0  0
 59 58  1  0  0  0
 27 28  2  0  0  0
 58 57  1  0  0  0
 31 37  2  0  0  0
 57 56  1  0  0  0
 56 55  1  0  0  0
 55 54  1  0  0  0
 54 53  1  0  0  0
 53 52  1  0  0  0
 52 51  1  0  0  0
 51 50  1  0  0  0
 50 49  1  0  0  0
 49 47  1  0  0  0
 47 48  2  0  0  0
 48 45  1  0  0  0
 42 41  1  0  0  0
 41 40  1  0  0  0
 40 39  1  0  0  0
 39  1  1  0  0  0
  1 21  1  0  0  0
  8  4  1  0  0  0
  8  9  1  0  0  0
  8 10  1  0  0  0
 11 13  1  0  0  0
 13 14  2  0  0  0
 13 18  1  0  0  0
 14 15  1  0  0  0
 15 16  2  0  0  0
 16 17  1  0  0  0
 17 18  2  0  0  0
 23 24  1  0  0  0
 23 25  1  0  0  0
 25 28  1  0  0  0
 32 33  1  0  0  0
 32 37  1  0  0  0
 33 34  1  0  0  0
 34 35  1  0  0  0
 35 36  1  0  0  0
M  END
> <minimizedAffinity>
-9.55695

> <CNNscore>
0.1619281620

> <CNNaffinity>
7.6481719017

> <CNN_VS>
1.2384544611

> <CNNaffinity_variance>
1.8968616724

$$$$
