/media/chris/experiments/cd1a-new-docking/inputs/ligands/7ryo_ligand.pdb


 65 67  0  0  0  0  0  0  0  0999 V2000
  -38.0333   57.8271   64.3238 C   0  0  0  0  0  0  0  0  0  0  0  0
  -39.0713   58.6872   64.8671 N   0  0  0  0  0  0  0  0  0  0  0  0
  -40.6911   57.1532   64.5897 O   0  0  0  0  0  0  0  0  0  0  0  0
  -40.3348   58.2642   64.9533 C   0  0  0  0  0  0  0  0  0  0  0  0
  -38.8399   59.5931   65.1754 H   0  0  0  0  0  0  0  0  0  0  0  0
  -42.7312   58.8029   65.1511 N   0  0  0  0  0  0  0  0  0  0  0  0
  -42.8065   59.1118   67.3831 O   0  0  0  0  0  0  0  0  0  0  0  0
  -41.3756   59.2447   65.5183 C   0  0  0  0  0  0  0  0  0  0  0  0
  -41.1253   60.6272   64.9234 C   0  0  0  0  0  0  0  0  0  0  0  0
  -41.4048   59.2841   67.0533 C   0  0  0  0  0  0  0  0  0  0  0  0
  -43.4142   58.7627   66.2194 C   0  0  0  0  0  0  0  0  0  0  0  0
  -44.8404   57.4564   64.0880 O   0  0  0  0  0  0  0  0  0  0  0  0
  -44.8231   58.3770   66.3301 C   0  0  0  0  0  0  0  0  0  0  0  0
  -45.4912   58.5062   67.5483 C   0  0  0  0  0  0  0  0  0  0  0  0
  -46.7343   57.9257   67.7325 C   0  0  0  0  0  0  0  0  0  0  0  0
  -47.3289   57.2124   66.7146 C   0  0  0  0  0  0  0  0  0  0  0  0
  -46.6859   57.0657   65.4989 C   0  0  0  0  0  0  0  0  0  0  0  0
  -45.4350   57.6400   65.2954 C   0  0  0  0  0  0  0  0  0  0  0  0
  -43.9979   57.8300   63.9189 H   0  0  0  0  0  0  0  0  0  0  0  0
  -35.8519   57.5260   65.3196 O   0  0  0  0  0  0  0  0  0  0  0  0
  -36.6552   58.2548   64.8061 C   0  0  0  0  0  0  0  0  0  0  0  0
  -36.4691   59.5696   64.5962 O   0  0  0  0  0  0  0  0  0  0  0  0
  -36.0376   60.3961   65.7277 C   0  0  0  0  0  0  0  0  0  0  0  0
  -36.8841   61.6437   65.7452 C   0  0  0  0  0  0  0  0  0  0  0  0
  -34.5724   60.6966   65.4773 C   0  0  0  0  0  0  0  0  0  0  0  0
  -34.0735   62.8985   64.6143 N   0  0  0  0  0  0  0  0  0  0  0  0
  -34.4218   61.2280   63.1479 O   0  0  0  0  0  0  0  0  0  0  0  0
  -34.3533   61.6287   64.3065 C   0  0  0  0  0  0  0  0  0  0  0  0
  -34.0317   63.1628   65.5617 H   0  0  0  0  0  0  0  0  0  0  0  0
  -31.9898   65.3955   63.0278 N   0  0  0  0  0  0  0  0  0  0  0  0
  -32.1841   64.6823   65.1454 O   0  0  0  0  0  0  0  0  0  0  0  0
  -33.8293   63.8999   63.5910 C   0  0  0  0  0  0  0  0  0  0  0  0
  -35.0323   64.8434   63.4798 C   0  0  0  0  0  0  0  0  0  0  0  0
  -35.0789   65.6223   62.1696 C   0  0  0  0  0  0  0  0  0  0  0  0
  -33.9059   66.5495   61.9209 C   0  0  0  0  0  0  0  0  0  0  0  0
  -32.5765   65.8406   61.7683 C   0  0  0  0  0  0  0  0  0  0  0  0
  -32.5953   64.6944   63.9888 C   0  0  0  0  0  0  0  0  0  0  0  0
  -31.0486   65.6375   63.1853 H   0  0  0  0  0  0  0  0  0  0  0  0
  -38.0890   57.7863   62.7959 C   0  0  0  0  0  0  0  0  0  0  0  0
  -37.0135   56.8843   62.1999 C   0  0  0  0  0  0  0  0  0  0  0  0
  -35.7469   57.6318   61.8264 C   0  0  0  0  0  0  0  0  0  0  0  0
  -35.9367   58.7238   60.7964 C   0  0  0  0  0  0  0  0  0  0  0  0
  -37.2770   59.2832   60.8696 N   0  0  0  0  0  0  0  0  0  0  0  0
  -37.4836   59.5244   58.6351 O   0  0  0  0  0  0  0  0  0  0  0  0
  -37.9576   59.6452   59.7766 C   0  0  0  0  0  0  0  0  0  0  0  0
  -37.6971   59.3992   61.7524 H   0  0  0  0  0  0  0  0  0  0  0  0
  -40.4398   59.7364   59.7161 C   0  0  0  0  0  0  0  0  0  0  0  0
  -39.2720   60.2670   60.0528 C   0  0  0  0  0  0  0  0  0  0  0  0
  -40.6892   58.4323   59.0252 C   0  0  0  0  0  0  0  0  0  0  0  0
  -42.1138   58.3398   58.4919 C   0  0  0  0  0  0  0  0  0  0  0  0
  -42.3070   59.0049   57.1400 C   0  0  0  0  0  0  0  0  0  0  0  0
  -43.7474   58.9917   56.6561 C   0  0  0  0  0  0  0  0  0  0  0  0
  -44.6580   58.0545   57.4267 C   0  0  0  0  0  0  0  0  0  0  0  0
  -46.1362   58.3422   57.2213 C   0  0  0  0  0  0  0  0  0  0  0  0
  -46.9627   58.1955   58.4839 C   0  0  0  0  0  0  0  0  0  0  0  0
  -47.2444   56.7510   58.8457 C   0  0  0  0  0  0  0  0  0  0  0  0
  -48.4953   56.5471   59.6788 C   0  0  0  0  0  0  0  0  0  0  0  0
  -49.3127   57.8150   59.8278 C   0  0  0  0  0  0  0  0  0  0  0  0
  -50.5641   57.6256   60.6694 C   0  0  0  0  0  0  0  0  0  0  0  0
  -50.5027   58.2918   62.0329 C   0  0  0  0  0  0  0  0  0  0  0  0
  -49.3090   59.2147   62.2235 C   0  0  0  0  0  0  0  0  0  0  0  0
  -48.8742   59.3702   63.6743 C   0  0  0  0  0  0  0  0  0  0  0  0
  -49.6226   60.4662   64.4158 C   0  0  0  0  0  0  0  0  0  0  0  0
  -50.5292   58.6602   65.9302 C   0  0  0  0  0  0  0  0  0  0  0  0
  -50.7950   59.9754   65.2458 C   0  0  0  0  0  0  0  0  0  0  0  0
 43 45  1  0  0  0
 43 42  1  0  0  0
 43 46  1  0  0  0
 64 65  1  0  0  0
 44 45  2  0  0  0
 65 63  1  0  0  0
  2  1  1  0  0  0
  2  4  1  0  0  0
  2  5  1  0  0  0
  3  4  2  0  0  0
 63 62  1  0  0  0
  6  8  1  0  0  0
  6 11  2  0  0  0
  7 10  1  0  0  0
  7 11  1  0  0  0
 62 61  1  0  0  0
 26 28  1  0  0  0
 26 32  1  0  0  0
 26 29  1  0  0  0
 12 18  1  0  0  0
 12 19  1  0  0  0
 61 60  1  0  0  0
 30 36  1  0  0  0
 30 37  1  0  0  0
 30 38  1  0  0  0
 20 21  2  0  0  0
 60 59  1  0  0  0
 22 21  1  0  0  0
 22 23  1  0  0  0
 59 58  1  0  0  0
 27 28  2  0  0  0
 58 57  1  0  0  0
 31 37  2  0  0  0
 57 56  1  0  0  0
 56 55  1  0  0  0
 55 54  1  0  0  0
 54 53  1  0  0  0
 53 52  1  0  0  0
 52 51  1  0  0  0
 51 50  1  0  0  0
 50 49  1  0  0  0
 49 47  1  0  0  0
 47 48  2  0  0  0
 48 45  1  0  0  0
 42 41  1  0  0  0
 41 40  1  0  0  0
 40 39  1  0  0  0
 39  1  1  0  0  0
  1 21  1  0  0  0
  8  4  1  0  0  0
  8  9  1  0  0  0
  8 10  1  0  0  0
 11 13  1  0  0  0
 13 14  2  0  0  0
 13 18  1  0  0  0
 14 15  1  0  0  0
 15 16  2  0  0  0
 16 17  1  0  0  0
 17 18  2  0  0  0
 23 24  1  0  0  0
 23 25  1  0  0  0
 25 28  1  0  0  0
 32 33  1  0  0  0
 32 37  1  0  0  0
 33 34  1  0  0  0
 34 35  1  0  0  0
 35 36  1  0  0  0
M  END
> <minimizedAffinity>
-7.97509

> <CNNscore>
0.2862660885

> <CNNaffinity>
7.5726051331

> <CNN_VS>
2.1677801609

> <CNNaffinity_variance>
1.0105947256

$$$$
/media/chris/experiments/cd1a-new-docking/inputs/ligands/7ryo_ligand.pdb


 65 67  0  0  0  0  0  0  0  0999 V2000
  -34.0387   59.2058   63.7140 C   0  0  0  0  0  0  0  0  0  0  0  0
  -34.9913   58.8146   62.6884 N   0  0  0  0  0  0  0  0  0  0  0  0
  -36.1549   60.7328   62.8313 O   0  0  0  0  0  0  0  0  0  0  0  0
  -35.9858   59.6307   62.3310 C   0  0  0  0  0  0  0  0  0  0  0  0
  -34.9022   57.9367   62.2517 H   0  0  0  0  0  0  0  0  0  0  0  0
  -37.6636   57.9275   61.7342 N   0  0  0  0  0  0  0  0  0  0  0  0
  -39.3016   59.3177   61.0506 O   0  0  0  0  0  0  0  0  0  0  0  0
  -36.9636   59.1308   61.2549 C   0  0  0  0  0  0  0  0  0  0  0  0
  -36.1754   58.7792   59.9967 C   0  0  0  0  0  0  0  0  0  0  0  0
  -38.0983   60.1216   60.9556 C   0  0  0  0  0  0  0  0  0  0  0  0
  -38.9065   58.1322   61.5835 C   0  0  0  0  0  0  0  0  0  0  0  0
  -39.2432   57.0497   64.2290 O   0  0  0  0  0  0  0  0  0  0  0  0
  -39.9834   57.2000   61.9258 C   0  0  0  0  0  0  0  0  0  0  0  0
  -40.9833   56.9127   60.9958 C   0  0  0  0  0  0  0  0  0  0  0  0
  -42.1268   56.2345   61.3812 C   0  0  0  0  0  0  0  0  0  0  0  0
  -42.2929   55.8336   62.6889 C   0  0  0  0  0  0  0  0  0  0  0  0
  -41.3189   56.1098   63.6312 C   0  0  0  0  0  0  0  0  0  0  0  0
  -40.1635   56.7924   63.2636 C   0  0  0  0  0  0  0  0  0  0  0  0
  -38.4543   57.5075   64.0141 H   0  0  0  0  0  0  0  0  0  0  0  0
  -32.2616   57.6076   63.3558 O   0  0  0  0  0  0  0  0  0  0  0  0
  -32.6310   58.7494   63.3612 C   0  0  0  0  0  0  0  0  0  0  0  0
  -31.8502   59.8060   63.0760 O   0  0  0  0  0  0  0  0  0  0  0  0
  -31.9023   60.3579   61.7187 C   0  0  0  0  0  0  0  0  0  0  0  0
  -30.9667   59.5548   60.8510 C   0  0  0  0  0  0  0  0  0  0  0  0
  -31.4679   61.8049   61.8503 C   0  0  0  0  0  0  0  0  0  0  0  0
  -33.0845   62.3515   63.5620 N   0  0  0  0  0  0  0  0  0  0  0  0
  -30.9279   62.8854   63.9171 O   0  0  0  0  0  0  0  0  0  0  0  0
  -31.7989   62.3995   63.2010 C   0  0  0  0  0  0  0  0  0  0  0  0
  -33.7393   61.9497   62.9464 H   0  0  0  0  0  0  0  0  0  0  0  0
  -35.6959   63.5314   65.7716 N   0  0  0  0  0  0  0  0  0  0  0  0
  -35.4287   63.5917   63.5455 O   0  0  0  0  0  0  0  0  0  0  0  0
  -33.5434   62.8752   64.8367 C   0  0  0  0  0  0  0  0  0  0  0  0
  -32.6525   64.0418   65.2783 C   0  0  0  0  0  0  0  0  0  0  0  0
  -32.7537   64.3586   66.7665 C   0  0  0  0  0  0  0  0  0  0  0  0
  -34.1251   64.7870   67.2495 C   0  0  0  0  0  0  0  0  0  0  0  0
  -35.1884   63.7158   67.1269 C   0  0  0  0  0  0  0  0  0  0  0  0
  -34.9724   63.3646   64.6622 C   0  0  0  0  0  0  0  0  0  0  0  0
  -36.6745   63.5296   65.6639 H   0  0  0  0  0  0  0  0  0  0  0  0
  -34.4551   58.6798   65.0885 C   0  0  0  0  0  0  0  0  0  0  0  0
  -35.4345   57.5149   64.9917 C   0  0  0  0  0  0  0  0  0  0  0  0
  -36.8539   57.8953   65.3700 C   0  0  0  0  0  0  0  0  0  0  0  0
  -37.0700   59.3730   65.6127 C   0  0  0  0  0  0  0  0  0  0  0  0
  -38.3596   59.6160   66.2394 N   0  0  0  0  0  0  0  0  0  0  0  0
  -39.2602   60.5804   64.4083 O   0  0  0  0  0  0  0  0  0  0  0  0
  -39.3676   60.2059   65.5876 C   0  0  0  0  0  0  0  0  0  0  0  0
  -38.4950   59.3374   67.1739 H   0  0  0  0  0  0  0  0  0  0  0  0
  -41.7468   59.8533   66.2106 C   0  0  0  0  0  0  0  0  0  0  0  0
  -40.5746   60.4400   66.4115 C   0  0  0  0  0  0  0  0  0  0  0  0
  -42.1005   58.8468   65.1608 C   0  0  0  0  0  0  0  0  0  0  0  0
  -43.5334   58.3513   65.3142 C   0  0  0  0  0  0  0  0  0  0  0  0
  -43.8452   57.7933   66.6921 C   0  0  0  0  0  0  0  0  0  0  0  0
  -45.3297   57.7656   67.0153 C   0  0  0  0  0  0  0  0  0  0  0  0
  -46.2322   57.6397   65.8024 C   0  0  0  0  0  0  0  0  0  0  0  0
  -47.6984   57.8955   66.1098 C   0  0  0  0  0  0  0  0  0  0  0  0
  -48.0843   59.3603   66.0434 C   0  0  0  0  0  0  0  0  0  0  0  0
  -48.3858   59.8325   64.6352 C   0  0  0  0  0  0  0  0  0  0  0  0
  -48.9201   58.7527   63.7139 C   0  0  0  0  0  0  0  0  0  0  0  0
  -49.6116   59.3175   62.4889 C   0  0  0  0  0  0  0  0  0  0  0  0
  -50.9819   58.7087   62.2403 C   0  0  0  0  0  0  0  0  0  0  0  0
  -50.9675   57.5007   61.3198 C   0  0  0  0  0  0  0  0  0  0  0  0
  -49.5835   57.1089   60.8257 C   0  0  0  0  0  0  0  0  0  0  0  0
  -49.1651   57.8105   59.5409 C   0  0  0  0  0  0  0  0  0  0  0  0
  -48.4801   56.8893   58.5443 C   0  0  0  0  0  0  0  0  0  0  0  0
  -46.4731   58.2180   57.7803 C   0  0  0  0  0  0  0  0  0  0  0  0
  -47.7944   57.6059   57.3952 C   0  0  0  0  0  0  0  0  0  0  0  0
 43 45  1  0  0  0
 43 42  1  0  0  0
 43 46  1  0  0  0
 64 65  1  0  0  0
 44 45  2  0  0  0
 65 63  1  0  0  0
  2  1  1  0  0  0
  2  4  1  0  0  0
  2  5  1  0  0  0
  3  4  2  0  0  0
 63 62  1  0  0  0
  6  8  1  0  0  0
  6 11  2  0  0  0
  7 10  1  0  0  0
  7 11  1  0  0  0
 62 61  1  0  0  0
 26 28  1  0  0  0
 26 32  1  0  0  0
 26 29  1  0  0  0
 12 18  1  0  0  0
 12 19  1  0  0  0
 61 60  1  0  0  0
 30 36  1  0  0  0
 30 37  1  0  0  0
 30 38  1  0  0  0
 20 21  2  0  0  0
 60 59  1  0  0  0
 22 21  1  0  0  0
 22 23  1  0  0  0
 59 58  1  0  0  0
 27 28  2  0  0  0
 58 57  1  0  0  0
 31 37  2  0  0  0
 57 56  1  0  0  0
 56 55  1  0  0  0
 55 54  1  0  0  0
 54 53  1  0  0  0
 53 52  1  0  0  0
 52 51  1  0  0  0
 51 50  1  0  0  0
 50 49  1  0  0  0
 49 47  1  0  0  0
 47 48  2  0  0  0
 48 45  1  0  0  0
 42 41  1  0  0  0
 41 40  1  0  0  0
 40 39  1  0  0  0
 39  1  1  0  0  0
  1 21  1  0  0  0
  8  4  1  0  0  0
  8  9  1  0  0  0
  8 10  1  0  0  0
 11 13  1  0  0  0
 13 14  2  0  0  0
 13 18  1  0  0  0
 14 15  1  0  0  0
 15 16  2  0  0  0
 16 17  1  0  0  0
 17 18  2  0  0  0
 23 24  1  0  0  0
 23 25  1  0  0  0
 25 28  1  0  0  0
 32 33  1  0  0  0
 32 37  1  0  0  0
 33 34  1  0  0  0
 34 35  1  0  0  0
 35 36  1  0  0  0
M  END
> <minimizedAffinity>
-8.49961

> <CNNscore>
0.2703930140

> <CNNaffinity>
7.5799698830

> <CNN_VS>
2.0495707989

> <CNNaffinity_variance>
1.0232925415

$$$$
/media/chris/experiments/cd1a-new-docking/inputs/ligands/7ryo_ligand.pdb


 65 67  0  0  0  0  0  0  0  0999 V2000
  -42.5560   57.3036   65.8115 C   0  0  0  0  0  0  0  0  0  0  0  0
  -43.8724   57.5450   66.3782 N   0  0  0  0  0  0  0  0  0  0  0  0
  -44.9340   57.2220   64.4231 O   0  0  0  0  0  0  0  0  0  0  0  0
  -44.9674   57.4812   65.6169 C   0  0  0  0  0  0  0  0  0  0  0  0
  -43.9578   57.7581   67.3356 H   0  0  0  0  0  0  0  0  0  0  0  0
  -47.1144   58.6781   65.4439 N   0  0  0  0  0  0  0  0  0  0  0  0
  -48.4845   56.9428   65.8851 O   0  0  0  0  0  0  0  0  0  0  0  0
  -46.3188   57.7728   66.2896 C   0  0  0  0  0  0  0  0  0  0  0  0
  -46.0653   58.4449   67.6357 C   0  0  0  0  0  0  0  0  0  0  0  0
  -47.2078   56.5289   66.4347 C   0  0  0  0  0  0  0  0  0  0  0  0
  -48.2524   58.1400   65.2865 C   0  0  0  0  0  0  0  0  0  0  0  0
  -50.1294   60.0202   66.3934 O   0  0  0  0  0  0  0  0  0  0  0  0
  -49.3692   58.6906   64.5148 C   0  0  0  0  0  0  0  0  0  0  0  0
  -49.4764   58.4235   63.1494 C   0  0  0  0  0  0  0  0  0  0  0  0
  -50.3750   59.1259   62.3649 C   0  0  0  0  0  0  0  0  0  0  0  0
  -51.1761   60.0985   62.9222 C   0  0  0  0  0  0  0  0  0  0  0  0
  -51.0863   60.3857   64.2721 C   0  0  0  0  0  0  0  0  0  0  0  0
  -50.1877   59.6920   65.0766 C   0  0  0  0  0  0  0  0  0  0  0  0
  -49.5348   59.5719   66.9622 H   0  0  0  0  0  0  0  0  0  0  0  0
  -42.4064   59.3300   64.5028 O   0  0  0  0  0  0  0  0  0  0  0  0
  -41.9223   58.5966   65.3202 C   0  0  0  0  0  0  0  0  0  0  0  0
  -40.7325   58.7940   65.9140 O   0  0  0  0  0  0  0  0  0  0  0  0
  -39.5705   59.0636   65.0615 C   0  0  0  0  0  0  0  0  0  0  0  0
  -38.4080   58.2605   65.5878 C   0  0  0  0  0  0  0  0  0  0  0  0
  -39.3310   60.5577   65.1596 C   0  0  0  0  0  0  0  0  0  0  0  0
  -37.3733   61.6970   66.0032 N   0  0  0  0  0  0  0  0  0  0  0  0
  -37.1929   60.5388   64.0827 O   0  0  0  0  0  0  0  0  0  0  0  0
  -37.8711   60.9308   65.0283 C   0  0  0  0  0  0  0  0  0  0  0  0
  -37.9647   61.9816   66.7369 H   0  0  0  0  0  0  0  0  0  0  0  0
  -34.4903   63.1455   67.6417 N   0  0  0  0  0  0  0  0  0  0  0  0
  -36.6992   63.4689   67.8579 O   0  0  0  0  0  0  0  0  0  0  0  0
  -35.9844   62.1222   66.0112 C   0  0  0  0  0  0  0  0  0  0  0  0
  -35.6802   62.9516   64.7585 C   0  0  0  0  0  0  0  0  0  0  0  0
  -34.1922   63.0579   64.4426 C   0  0  0  0  0  0  0  0  0  0  0  0
  -33.3480   63.7366   65.5029 C   0  0  0  0  0  0  0  0  0  0  0  0
  -33.2934   62.9938   66.8214 C   0  0  0  0  0  0  0  0  0  0  0  0
  -35.7550   62.9716   67.2513 C   0  0  0  0  0  0  0  0  0  0  0  0
  -34.3507   63.4030   68.5816 H   0  0  0  0  0  0  0  0  0  0  0  0
  -42.6157   56.2644   64.6909 C   0  0  0  0  0  0  0  0  0  0  0  0
  -41.2369   55.7250   64.3257 C   0  0  0  0  0  0  0  0  0  0  0  0
  -40.9164   55.8565   62.8483 C   0  0  0  0  0  0  0  0  0  0  0  0
  -41.7657   56.8631   62.1035 C   0  0  0  0  0  0  0  0  0  0  0  0
  -41.0486   57.4080   60.9617 N   0  0  0  0  0  0  0  0  0  0  0  0
  -40.8239   59.4635   61.8664 O   0  0  0  0  0  0  0  0  0  0  0  0
  -40.6270   58.6768   60.9258 C   0  0  0  0  0  0  0  0  0  0  0  0
  -40.8676   56.8240   60.1901 H   0  0  0  0  0  0  0  0  0  0  0  0
  -38.7323   59.4873   59.5377 C   0  0  0  0  0  0  0  0  0  0  0  0
  -39.9868   59.0725   59.6514 C   0  0  0  0  0  0  0  0  0  0  0  0
  -37.7110   59.6271   60.6230 C   0  0  0  0  0  0  0  0  0  0  0  0
  -36.8819   58.3588   60.7841 C   0  0  0  0  0  0  0  0  0  0  0  0
  -36.8134   57.8482   62.2131 C   0  0  0  0  0  0  0  0  0  0  0  0
  -35.4712   57.2350   62.5760 C   0  0  0  0  0  0  0  0  0  0  0  0
  -34.2760   57.9299   61.9515 C   0  0  0  0  0  0  0  0  0  0  0  0
  -33.8062   59.1456   62.7332 C   0  0  0  0  0  0  0  0  0  0  0  0
  -32.3325   59.1054   63.0872 C   0  0  0  0  0  0  0  0  0  0  0  0
  -31.4272   59.1891   61.8745 C   0  0  0  0  0  0  0  0  0  0  0  0
  -31.1439   60.6020   61.4014 C   0  0  0  0  0  0  0  0  0  0  0  0
  -31.0174   61.5883   62.5456 C   0  0  0  0  0  0  0  0  0  0  0  0
  -31.0117   63.0380   62.0890 C   0  0  0  0  0  0  0  0  0  0  0  0
  -30.9328   64.0461   63.2223 C   0  0  0  0  0  0  0  0  0  0  0  0
  -31.1498   65.4883   62.7910 C   0  0  0  0  0  0  0  0  0  0  0  0
  -32.2442   65.6626   61.7472 C   0  0  0  0  0  0  0  0  0  0  0  0
  -33.4496   66.4355   62.2580 C   0  0  0  0  0  0  0  0  0  0  0  0
  -35.8392   66.3747   61.4436 C   0  0  0  0  0  0  0  0  0  0  0  0
  -34.7560   65.6639   62.2119 C   0  0  0  0  0  0  0  0  0  0  0  0
 43 45  1  0  0  0
 43 42  1  0  0  0
 43 46  1  0  0  0
 64 65  1  0  0  0
 44 45  2  0  0  0
 65 63  1  0  0  0
  2  1  1  0  0  0
  2  4  1  0  0  0
  2  5  1  0  0  0
  3  4  2  0  0  0
 63 62  1  0  0  0
  6  8  1  0  0  0
  6 11  2  0  0  0
  7 10  1  0  0  0
  7 11  1  0  0  0
 62 61  1  0  0  0
 26 28  1  0  0  0
 26 32  1  0  0  0
 26 29  1  0  0  0
 12 18  1  0  0  0
 12 19  1  0  0  0
 61 60  1  0  0  0
 30 36  1  0  0  0
 30 37  1  0  0  0
 30 38  1  0  0  0
 20 21  2  0  0  0
 60 59  1  0  0  0
 22 21  1  0  0  0
 22 23  1  0  0  0
 59 58  1  0  0  0
 27 28  2  0  0  0
 58 57  1  0  0  0
 31 37  2  0  0  0
 57 56  1  0  0  0
 56 55  1  0  0  0
 55 54  1  0  0  0
 54 53  1  0  0  0
 53 52  1  0  0  0
 52 51  1  0  0  0
 51 50  1  0  0  0
 50 49  1  0  0  0
 49 47  1  0  0  0
 47 48  2  0  0  0
 48 45  1  0  0  0
 42 41  1  0  0  0
 41 40  1  0  0  0
 40 39  1  0  0  0
 39  1  1  0  0  0
  1 21  1  0  0  0
  8  4  1  0  0  0
  8  9  1  0  0  0
  8 10  1  0  0  0
 11 13  1  0  0  0
 13 14  2  0  0  0
 13 18  1  0  0  0
 14 15  1  0  0  0
 15 16  2  0  0  0
 16 17  1  0  0  0
 17 18  2  0  0  0
 23 24  1  0  0  0
 23 25  1  0  0  0
 25 28  1  0  0  0
 32 33  1  0  0  0
 32 37  1  0  0  0
 33 34  1  0  0  0
 34 35  1  0  0  0
 35 36  1  0  0  0
M  END
> <minimizedAffinity>
-9.82551

> <CNNscore>
0.2331015170

> <CNNaffinity>
7.7639646530

> <CNN_VS>
1.8097919226

> <CNNaffinity_variance>
1.4513237476

$$$$
/media/chris/experiments/cd1a-new-docking/inputs/ligands/7ryo_ligand.pdb


 65 67  0  0  0  0  0  0  0  0999 V2000
  -39.6981   58.6034   59.9278 C   0  0  0  0  0  0  0  0  0  0  0  0
  -40.1650   58.1016   61.2095 N   0  0  0  0  0  0  0  0  0  0  0  0
  -41.3933   56.4616   60.2848 O   0  0  0  0  0  0  0  0  0  0  0  0
  -40.9887   57.0529   61.2748 C   0  0  0  0  0  0  0  0  0  0  0  0
  -39.8702   58.5406   62.0400 H   0  0  0  0  0  0  0  0  0  0  0  0
  -40.8614   57.4671   63.7006 N   0  0  0  0  0  0  0  0  0  0  0  0
  -43.0724   57.4687   64.1413 O   0  0  0  0  0  0  0  0  0  0  0  0
  -41.4540   56.6002   62.6685 C   0  0  0  0  0  0  0  0  0  0  0  0
  -40.9929   55.1645   62.9007 C   0  0  0  0  0  0  0  0  0  0  0  0
  -42.9669   56.7525   62.8847 C   0  0  0  0  0  0  0  0  0  0  0  0
  -41.8112   57.8808   64.4327 C   0  0  0  0  0  0  0  0  0  0  0  0
  -40.6373   60.5027   64.2563 O   0  0  0  0  0  0  0  0  0  0  0  0
  -41.6858   58.7710   65.5893 C   0  0  0  0  0  0  0  0  0  0  0  0
  -42.2718   58.4240   66.8073 C   0  0  0  0  0  0  0  0  0  0  0  0
  -42.3720   59.3534   67.8283 C   0  0  0  0  0  0  0  0  0  0  0  0
  -41.8939   60.6340   67.6555 C   0  0  0  0  0  0  0  0  0  0  0  0
  -41.3128   61.0047   66.4566 C   0  0  0  0  0  0  0  0  0  0  0  0
  -41.2049   60.0854   65.4177 C   0  0  0  0  0  0  0  0  0  0  0  0
  -40.5498   59.9081   63.5374 H   0  0  0  0  0  0  0  0  0  0  0  0
  -37.6909   59.7501   59.2228 O   0  0  0  0  0  0  0  0  0  0  0  0
  -38.4707   59.4866   60.0961 C   0  0  0  0  0  0  0  0  0  0  0  0
  -38.3684   59.9149   61.3663 O   0  0  0  0  0  0  0  0  0  0  0  0
  -37.0804   59.7555   62.0482 C   0  0  0  0  0  0  0  0  0  0  0  0
  -36.7212   58.2912   62.0328 C   0  0  0  0  0  0  0  0  0  0  0  0
  -37.2955   60.2819   63.4539 C   0  0  0  0  0  0  0  0  0  0  0  0
  -36.0723   62.2055   64.2575 N   0  0  0  0  0  0  0  0  0  0  0  0
  -35.0755   60.1904   64.3452 O   0  0  0  0  0  0  0  0  0  0  0  0
  -36.0457   60.8849   64.0556 C   0  0  0  0  0  0  0  0  0  0  0  0
  -36.8782   62.7116   64.0055 H   0  0  0  0  0  0  0  0  0  0  0  0
  -34.3001   63.6084   67.0833 N   0  0  0  0  0  0  0  0  0  0  0  0
  -36.4768   63.2992   66.6395 O   0  0  0  0  0  0  0  0  0  0  0  0
  -34.9462   62.9155   64.8382 C   0  0  0  0  0  0  0  0  0  0  0  0
  -34.6524   64.1859   64.0324 C   0  0  0  0  0  0  0  0  0  0  0  0
  -33.2542   64.7480   64.2659 C   0  0  0  0  0  0  0  0  0  0  0  0
  -32.9550   65.1803   65.6876 C   0  0  0  0  0  0  0  0  0  0  0  0
  -32.9649   64.0494   66.6947 C   0  0  0  0  0  0  0  0  0  0  0  0
  -35.3074   63.2918   66.2665 C   0  0  0  0  0  0  0  0  0  0  0  0
  -34.4768   63.5366   68.0492 H   0  0  0  0  0  0  0  0  0  0  0  0
  -40.8086   59.3474   59.1846 C   0  0  0  0  0  0  0  0  0  0  0  0
  -41.3860   58.5295   58.0345 C   0  0  0  0  0  0  0  0  0  0  0  0
  -42.4311   59.2822   57.2321 C   0  0  0  0  0  0  0  0  0  0  0  0
  -43.5646   58.4272   56.7093 C   0  0  0  0  0  0  0  0  0  0  0  0
  -44.8382   58.8486   57.2708 N   0  0  0  0  0  0  0  0  0  0  0  0
  -45.9219   56.9619   56.6708 O   0  0  0  0  0  0  0  0  0  0  0  0
  -45.9314   58.0804   57.2104 C   0  0  0  0  0  0  0  0  0  0  0  0
  -44.8977   59.7279   57.7095 H   0  0  0  0  0  0  0  0  0  0  0  0
  -47.8057   58.2686   58.8306 C   0  0  0  0  0  0  0  0  0  0  0  0
  -47.1516   58.7088   57.7643 C   0  0  0  0  0  0  0  0  0  0  0  0
  -47.4650   57.0954   59.6955 C   0  0  0  0  0  0  0  0  0  0  0  0
  -48.5260   56.0049   59.6106 C   0  0  0  0  0  0  0  0  0  0  0  0
  -49.8199   56.3510   60.3272 C   0  0  0  0  0  0  0  0  0  0  0  0
  -49.6120   57.1284   61.6161 C   0  0  0  0  0  0  0  0  0  0  0  0
  -50.7637   58.0433   61.9880 C   0  0  0  0  0  0  0  0  0  0  0  0
  -50.3435   59.4877   62.2046 C   0  0  0  0  0  0  0  0  0  0  0  0
  -51.1776   60.2117   63.2434 C   0  0  0  0  0  0  0  0  0  0  0  0
  -50.3421   60.8729   64.3212 C   0  0  0  0  0  0  0  0  0  0  0  0
  -50.6421   60.3928   65.7282 C   0  0  0  0  0  0  0  0  0  0  0  0
  -49.5553   59.4942   66.2845 C   0  0  0  0  0  0  0  0  0  0  0  0
  -49.7323   58.0335   65.9033 C   0  0  0  0  0  0  0  0  0  0  0  0
  -48.6135   57.4765   65.0403 C   0  0  0  0  0  0  0  0  0  0  0  0
  -47.8138   58.5344   64.2957 C   0  0  0  0  0  0  0  0  0  0  0  0
  -46.3382   58.5692   64.6689 C   0  0  0  0  0  0  0  0  0  0  0  0
  -45.9665   57.5772   65.7593 C   0  0  0  0  0  0  0  0  0  0  0  0
  -46.6696   57.7919   68.1752 C   0  0  0  0  0  0  0  0  0  0  0  0
  -45.6864   58.2064   67.1120 C   0  0  0  0  0  0  0  0  0  0  0  0
 43 45  1  0  0  0
 43 42  1  0  0  0
 43 46  1  0  0  0
 64 65  1  0  0  0
 44 45  2  0  0  0
 65 63  1  0  0  0
  2  1  1  0  0  0
  2  4  1  0  0  0
  2  5  1  0  0  0
  3  4  2  0  0  0
 63 62  1  0  0  0
  6  8  1  0  0  0
  6 11  2  0  0  0
  7 10  1  0  0  0
  7 11  1  0  0  0
 62 61  1  0  0  0
 26 28  1  0  0  0
 26 32  1  0  0  0
 26 29  1  0  0  0
 12 18  1  0  0  0
 12 19  1  0  0  0
 61 60  1  0  0  0
 30 36  1  0  0  0
 30 37  1  0  0  0
 30 38  1  0  0  0
 20 21  2  0  0  0
 60 59  1  0  0  0
 22 21  1  0  0  0
 22 23  1  0  0  0
 59 58  1  0  0  0
 27 28  2  0  0  0
 58 57  1  0  0  0
 31 37  2  0  0  0
 57 56  1  0  0  0
 56 55  1  0  0  0
 55 54  1  0  0  0
 54 53  1  0  0  0
 53 52  1  0  0  0
 52 51  1  0  0  0
 51 50  1  0  0  0
 50 49  1  0  0  0
 49 47  1  0  0  0
 47 48  2  0  0  0
 48 45  1  0  0  0
 42 41  1  0  0  0
 41 40  1  0  0  0
 40 39  1  0  0  0
 39  1  1  0  0  0
  1 21  1  0  0  0
  8  4  1  0  0  0
  8  9  1  0  0  0
  8 10  1  0  0  0
 11 13  1  0  0  0
 13 14  2  0  0  0
 13 18  1  0  0  0
 14 15  1  0  0  0
 15 16  2  0  0  0
 16 17  1  0  0  0
 17 18  2  0  0  0
 23 24  1  0  0  0
 23 25  1  0  0  0
 25 28  1  0  0  0
 32 33  1  0  0  0
 32 37  1  0  0  0
 33 34  1  0  0  0
 34 35  1  0  0  0
 35 36  1  0  0  0
M  END
> <minimizedAffinity>
-7.98447

> <CNNscore>
0.2028701454

> <CNNaffinity>
7.7950043678

> <CNN_VS>
1.5813736916

> <CNNaffinity_variance>
1.4146630764

$$$$
/media/chris/experiments/cd1a-new-docking/inputs/ligands/7ryo_ligand.pdb


 65 67  0  0  0  0  0  0  0  0999 V2000
  -34.5860   59.7907   63.8570 C   0  0  0  0  0  0  0  0  0  0  0  0
  -35.8978   59.2218   63.5965 N   0  0  0  0  0  0  0  0  0  0  0  0
  -35.9036   57.9998   65.4834 O   0  0  0  0  0  0  0  0  0  0  0  0
  -36.4513   58.3585   64.4515 C   0  0  0  0  0  0  0  0  0  0  0  0
  -36.3844   59.4763   62.7793 H   0  0  0  0  0  0  0  0  0  0  0  0
  -38.6297   58.8061   63.3902 N   0  0  0  0  0  0  0  0  0  0  0  0
  -38.7161   56.9891   62.0583 O   0  0  0  0  0  0  0  0  0  0  0  0
  -37.8314   57.7856   64.0895 C   0  0  0  0  0  0  0  0  0  0  0  0
  -38.5518   57.3849   65.3734 C   0  0  0  0  0  0  0  0  0  0  0  0
  -37.7644   56.6221   63.0893 C   0  0  0  0  0  0  0  0  0  0  0  0
  -39.0534   58.2794   62.3167 C   0  0  0  0  0  0  0  0  0  0  0  0
  -40.0258   60.9729   62.6055 O   0  0  0  0  0  0  0  0  0  0  0  0
  -39.8926   58.9301   61.3077 C   0  0  0  0  0  0  0  0  0  0  0  0
  -40.1341   58.3010   60.0857 C   0  0  0  0  0  0  0  0  0  0  0  0
  -40.7139   58.9980   59.0396 C   0  0  0  0  0  0  0  0  0  0  0  0
  -41.0608   60.3228   59.1912 C   0  0  0  0  0  0  0  0  0  0  0  0
  -40.8281   60.9708   60.3906 C   0  0  0  0  0  0  0  0  0  0  0  0
  -40.2443   60.2878   61.4531 C   0  0  0  0  0  0  0  0  0  0  0  0
  -39.6343   60.5419   63.3397 H   0  0  0  0  0  0  0  0  0  0  0  0
  -32.8552   58.3283   64.6976 O   0  0  0  0  0  0  0  0  0  0  0  0
  -33.4983   58.7308   63.7677 C   0  0  0  0  0  0  0  0  0  0  0  0
  -33.3419   58.3213   62.4968 O   0  0  0  0  0  0  0  0  0  0  0  0
  -32.5360   59.1521   61.5968 C   0  0  0  0  0  0  0  0  0  0  0  0
  -31.7733   58.2367   60.6729 C   0  0  0  0  0  0  0  0  0  0  0  0
  -31.6193   59.9573   62.4973 C   0  0  0  0  0  0  0  0  0  0  0  0
  -32.2457   62.2512   62.9308 N   0  0  0  0  0  0  0  0  0  0  0  0
  -30.9351   61.8173   61.1543 O   0  0  0  0  0  0  0  0  0  0  0  0
  -31.5697   61.4235   62.1288 C   0  0  0  0  0  0  0  0  0  0  0  0
  -32.7370   61.8784   63.6981 H   0  0  0  0  0  0  0  0  0  0  0  0
  -33.9283   65.4543   62.9849 N   0  0  0  0  0  0  0  0  0  0  0  0
  -34.6474   63.3502   62.6912 O   0  0  0  0  0  0  0  0  0  0  0  0
  -32.2763   63.6853   62.7029 C   0  0  0  0  0  0  0  0  0  0  0  0
  -31.7190   64.0096   61.3123 C   0  0  0  0  0  0  0  0  0  0  0  0
  -31.2895   65.4638   61.1499 C   0  0  0  0  0  0  0  0  0  0  0  0
  -32.3923   66.4908   61.3132 C   0  0  0  0  0  0  0  0  0  0  0  0
  -32.9944   66.5388   62.7019 C   0  0  0  0  0  0  0  0  0  0  0  0
  -33.7215   64.1496   62.7923 C   0  0  0  0  0  0  0  0  0  0  0  0
  -34.8027   65.7116   63.3571 H   0  0  0  0  0  0  0  0  0  0  0  0
  -34.5472   60.5004   65.2112 C   0  0  0  0  0  0  0  0  0  0  0  0
  -35.5501   61.6460   65.2949 C   0  0  0  0  0  0  0  0  0  0  0  0
  -36.7181   61.3510   66.2177 C   0  0  0  0  0  0  0  0  0  0  0  0
  -38.0727   61.3496   65.5436 C   0  0  0  0  0  0  0  0  0  0  0  0
  -39.0287   60.5517   66.2948 N   0  0  0  0  0  0  0  0  0  0  0  0
  -40.8312   61.4074   65.2400 O   0  0  0  0  0  0  0  0  0  0  0  0
  -40.3471   60.6390   66.0872 C   0  0  0  0  0  0  0  0  0  0  0  0
  -38.6946   59.9269   66.9784 H   0  0  0  0  0  0  0  0  0  0  0  0
  -41.9327   58.7996   66.6122 C   0  0  0  0  0  0  0  0  0  0  0  0
  -41.1660   59.8099   66.9995 C   0  0  0  0  0  0  0  0  0  0  0  0
  -42.1243   58.2739   65.2239 C   0  0  0  0  0  0  0  0  0  0  0  0
  -43.3139   57.3251   65.1392 C   0  0  0  0  0  0  0  0  0  0  0  0
  -44.6531   57.9968   65.3891 C   0  0  0  0  0  0  0  0  0  0  0  0
  -45.4402   57.3774   66.5319 C   0  0  0  0  0  0  0  0  0  0  0  0
  -46.9204   57.2016   66.2496 C   0  0  0  0  0  0  0  0  0  0  0  0
  -47.5959   58.4681   65.7501 C   0  0  0  0  0  0  0  0  0  0  0  0
  -48.4615   58.2497   64.5247 C   0  0  0  0  0  0  0  0  0  0  0  0
  -49.7732   59.0069   64.5807 C   0  0  0  0  0  0  0  0  0  0  0  0
  -50.7485   58.6517   63.4748 C   0  0  0  0  0  0  0  0  0  0  0  0
  -50.7322   59.6521   62.3361 C   0  0  0  0  0  0  0  0  0  0  0  0
  -49.6687   59.3540   61.2919 C   0  0  0  0  0  0  0  0  0  0  0  0
  -49.7377   57.9494   60.7181 C   0  0  0  0  0  0  0  0  0  0  0  0
  -48.4515   57.4825   60.0541 C   0  0  0  0  0  0  0  0  0  0  0  0
  -48.2190   58.0773   58.6720 C   0  0  0  0  0  0  0  0  0  0  0  0
  -46.7801   57.9573   58.1962 C   0  0  0  0  0  0  0  0  0  0  0  0
  -47.2049   55.7516   57.0424 C   0  0  0  0  0  0  0  0  0  0  0  0
  -46.6019   57.1279   56.9375 C   0  0  0  0  0  0  0  0  0  0  0  0
 43 45  1  0  0  0
 43 42  1  0  0  0
 43 46  1  0  0  0
 64 65  1  0  0  0
 44 45  2  0  0  0
 65 63  1  0  0  0
  2  1  1  0  0  0
  2  4  1  0  0  0
  2  5  1  0  0  0
  3  4  2  0  0  0
 63 62  1  0  0  0
  6  8  1  0  0  0
  6 11  2  0  0  0
  7 10  1  0  0  0
  7 11  1  0  0  0
 62 61  1  0  0  0
 26 28  1  0  0  0
 26 32  1  0  0  0
 26 29  1  0  0  0
 12 18  1  0  0  0
 12 19  1  0  0  0
 61 60  1  0  0  0
 30 36  1  0  0  0
 30 37  1  0  0  0
 30 38  1  0  0  0
 20 21  2  0  0  0
 60 59  1  0  0  0
 22 21  1  0  0  0
 22 23  1  0  0  0
 59 58  1  0  0  0
 27 28  2  0  0  0
 58 57  1  0  0  0
 31 37  2  0  0  0
 57 56  1  0  0  0
 56 55  1  0  0  0
 55 54  1  0  0  0
 54 53  1  0  0  0
 53 52  1  0  0  0
 52 51  1  0  0  0
 51 50  1  0  0  0
 50 49  1  0  0  0
 49 47  1  0  0  0
 47 48  2  0  0  0
 48 45  1  0  0  0
 42 41  1  0  0  0
 41 40  1  0  0  0
 40 39  1  0  0  0
 39  1  1  0  0  0
  1 21  1  0  0  0
  8  4  1  0  0  0
  8  9  1  0  0  0
  8 10  1  0  0  0
 11 13  1  0  0  0
 13 14  2  0  0  0
 13 18  1  0  0  0
 14 15  1  0  0  0
 15 16  2  0  0  0
 16 17  1  0  0  0
 17 18  2  0  0  0
 23 24  1  0  0  0
 23 25  1  0  0  0
 25 28  1  0  0  0
 32 33  1  0  0  0
 32 37  1  0  0  0
 33 34  1  0  0  0
 34 35  1  0  0  0
 35 36  1  0  0  0
M  END
> <minimizedAffinity>
-7.93868

> <CNNscore>
0.1956887245

> <CNNaffinity>
7.3831262589

> <CNN_VS>
1.4447945356

> <CNNaffinity_variance>
0.6114604473

$$$$
/media/chris/experiments/cd1a-new-docking/inputs/ligands/7ryo_ligand.pdb


 65 67  0  0  0  0  0  0  0  0999 V2000
  -39.8228   60.4227   65.4624 C   0  0  0  0  0  0  0  0  0  0  0  0
  -38.4625   60.6883   65.0248 N   0  0  0  0  0  0  0  0  0  0  0  0
  -37.6775   60.9142   67.1192 O   0  0  0  0  0  0  0  0  0  0  0  0
  -37.4904   60.9153   65.9115 C   0  0  0  0  0  0  0  0  0  0  0  0
  -38.2552   60.7011   64.0624 H   0  0  0  0  0  0  0  0  0  0  0  0
  -35.4299   59.9560   64.9596 N   0  0  0  0  0  0  0  0  0  0  0  0
  -35.2442   61.3113   63.1675 O   0  0  0  0  0  0  0  0  0  0  0  0
  -36.0843   61.2112   65.3646 C   0  0  0  0  0  0  0  0  0  0  0  0
  -35.2563   61.8714   66.4629 C   0  0  0  0  0  0  0  0  0  0  0  0
  -36.0953   62.0515   64.0791 C   0  0  0  0  0  0  0  0  0  0  0  0
  -35.0192   60.1147   63.7698 C   0  0  0  0  0  0  0  0  0  0  0  0
  -32.4025   60.5940   62.6713 O   0  0  0  0  0  0  0  0  0  0  0  0
  -34.3061   59.1220   62.9624 C   0  0  0  0  0  0  0  0  0  0  0  0
  -34.8241   57.8345   62.8166 C   0  0  0  0  0  0  0  0  0  0  0  0
  -34.0521   56.8249   62.2681 C   0  0  0  0  0  0  0  0  0  0  0  0
  -32.7612   57.0781   61.8582 C   0  0  0  0  0  0  0  0  0  0  0  0
  -32.2225   58.3444   61.9958 C   0  0  0  0  0  0  0  0  0  0  0  0
  -32.9820   59.3717   62.5468 C   0  0  0  0  0  0  0  0  0  0  0  0
  -32.8870   61.3070   63.0385 H   0  0  0  0  0  0  0  0  0  0  0  0
  -39.2661   58.0727   65.3707 O   0  0  0  0  0  0  0  0  0  0  0  0
  -40.0778   58.9285   65.5921 C   0  0  0  0  0  0  0  0  0  0  0  0
  -41.3473   58.6977   65.9695 O   0  0  0  0  0  0  0  0  0  0  0  0
  -41.9307   57.3867   65.6685 C   0  0  0  0  0  0  0  0  0  0  0  0
  -42.4547   57.4213   64.2552 C   0  0  0  0  0  0  0  0  0  0  0  0
  -43.0350   57.1883   66.6886 C   0  0  0  0  0  0  0  0  0  0  0  0
  -45.4425   57.2481   66.4826 N   0  0  0  0  0  0  0  0  0  0  0  0
  -44.2766   59.0968   65.9489 O   0  0  0  0  0  0  0  0  0  0  0  0
  -44.3040   57.9319   66.3361 C   0  0  0  0  0  0  0  0  0  0  0  0
  -45.4034   56.3159   66.7968 H   0  0  0  0  0  0  0  0  0  0  0  0
  -48.1641   59.5043   67.2550 N   0  0  0  0  0  0  0  0  0  0  0  0
  -46.7068   58.3688   68.5269 O   0  0  0  0  0  0  0  0  0  0  0  0
  -46.7362   57.8407   66.1913 C   0  0  0  0  0  0  0  0  0  0  0  0
  -47.7516   56.7454   65.8464 C   0  0  0  0  0  0  0  0  0  0  0  0
  -48.9778   57.2616   65.1012 C   0  0  0  0  0  0  0  0  0  0  0  0
  -49.8213   58.2705   65.8551 C   0  0  0  0  0  0  0  0  0  0  0  0
  -49.1121   59.5760   66.1484 C   0  0  0  0  0  0  0  0  0  0  0  0
  -47.2021   58.5949   67.4267 C   0  0  0  0  0  0  0  0  0  0  0  0
  -48.2419   60.1996   67.9477 H   0  0  0  0  0  0  0  0  0  0  0  0
  -40.8439   61.0720   64.5270 C   0  0  0  0  0  0  0  0  0  0  0  0
  -41.1645   60.1964   63.3204 C   0  0  0  0  0  0  0  0  0  0  0  0
  -41.3399   60.9881   62.0378 C   0  0  0  0  0  0  0  0  0  0  0  0
  -40.1502   60.9516   61.1037 C   0  0  0  0  0  0  0  0  0  0  0  0
  -39.2750   59.8332   61.4166 N   0  0  0  0  0  0  0  0  0  0  0  0
  -38.4182   59.6988   59.3329 O   0  0  0  0  0  0  0  0  0  0  0  0
  -38.4673   59.2844   60.5026 C   0  0  0  0  0  0  0  0  0  0  0  0
  -39.2771   59.4681   62.3309 H   0  0  0  0  0  0  0  0  0  0  0  0
  -38.1887   57.1974   61.8217 C   0  0  0  0  0  0  0  0  0  0  0  0
  -37.7104   58.1071   60.9837 C   0  0  0  0  0  0  0  0  0  0  0  0
  -39.5534   57.1425   62.4340 C   0  0  0  0  0  0  0  0  0  0  0  0
  -40.2964   55.8707   62.0434 C   0  0  0  0  0  0  0  0  0  0  0  0
  -41.5706   56.1220   61.2557 C   0  0  0  0  0  0  0  0  0  0  0  0
  -41.6490   57.5154   60.6545 C   0  0  0  0  0  0  0  0  0  0  0  0
  -41.3466   57.5741   59.1690 C   0  0  0  0  0  0  0  0  0  0  0  0
  -41.7696   58.8799   58.5165 C   0  0  0  0  0  0  0  0  0  0  0  0
  -42.2061   58.7219   57.0731 C   0  0  0  0  0  0  0  0  0  0  0  0
  -43.6604   59.0846   56.8486 C   0  0  0  0  0  0  0  0  0  0  0  0
  -44.6467   58.0259   57.3032 C   0  0  0  0  0  0  0  0  0  0  0  0
  -46.0759   58.5304   57.3310 C   0  0  0  0  0  0  0  0  0  0  0  0
  -46.8860   57.9718   58.4894 C   0  0  0  0  0  0  0  0  0  0  0  0
  -48.1846   57.3026   58.0738 C   0  0  0  0  0  0  0  0  0  0  0  0
  -49.3717   57.6369   58.9637 C   0  0  0  0  0  0  0  0  0  0  0  0
  -49.0268   57.7309   60.4437 C   0  0  0  0  0  0  0  0  0  0  0  0
  -50.2210   57.5104   61.3582 C   0  0  0  0  0  0  0  0  0  0  0  0
  -49.6556   59.8787   62.0279 C   0  0  0  0  0  0  0  0  0  0  0  0
  -50.5899   58.7114   62.2101 C   0  0  0  0  0  0  0  0  0  0  0  0
 43 45  1  0  0  0
 43 42  1  0  0  0
 43 46  1  0  0  0
 64 65  1  0  0  0
 44 45  2  0  0  0
 65 63  1  0  0  0
  2  1  1  0  0  0
  2  4  1  0  0  0
  2  5  1  0  0  0
  3  4  2  0  0  0
 63 62  1  0  0  0
  6  8  1  0  0  0
  6 11  2  0  0  0
  7 10  1  0  0  0
  7 11  1  0  0  0
 62 61  1  0  0  0
 26 28  1  0  0  0
 26 32  1  0  0  0
 26 29  1  0  0  0
 12 18  1  0  0  0
 12 19  1  0  0  0
 61 60  1  0  0  0
 30 36  1  0  0  0
 30 37  1  0  0  0
 30 38  1  0  0  0
 20 21  2  0  0  0
 60 59  1  0  0  0
 22 21  1  0  0  0
 22 23  1  0  0  0
 59 58  1  0  0  0
 27 28  2  0  0  0
 58 57  1  0  0  0
 31 37  2  0  0  0
 57 56  1  0  0  0
 56 55  1  0  0  0
 55 54  1  0  0  0
 54 53  1  0  0  0
 53 52  1  0  0  0
 52 51  1  0  0  0
 51 50  1  0  0  0
 50 49  1  0  0  0
 49 47  1  0  0  0
 47 48  2  0  0  0
 48 45  1  0  0  0
 42 41  1  0  0  0
 41 40  1  0  0  0
 40 39  1  0  0  0
 39  1  1  0  0  0
  1 21  1  0  0  0
  8  4  1  0  0  0
  8  9  1  0  0  0
  8 10  1  0  0  0
 11 13  1  0  0  0
 13 14  2  0  0  0
 13 18  1  0  0  0
 14 15  1  0  0  0
 15 16  2  0  0  0
 16 17  1  0  0  0
 17 18  2  0  0  0
 23 24  1  0  0  0
 23 25  1  0  0  0
 25 28  1  0  0  0
 32 33  1  0  0  0
 32 37  1  0  0  0
 33 34  1  0  0  0
 34 35  1  0  0  0
 35 36  1  0  0  0
M  END
> <minimizedAffinity>
-8.25621

> <CNNscore>
0.1811410636

> <CNNaffinity>
7.7099847794

> <CNN_VS>
1.3965948820

> <CNNaffinity_variance>
1.9791104794

$$$$
/media/chris/experiments/cd1a-new-docking/inputs/ligands/7ryo_ligand.pdb


 65 67  0  0  0  0  0  0  0  0999 V2000
  -38.3962   60.7110   64.6313 C   0  0  0  0  0  0  0  0  0  0  0  0
  -37.6439   59.8608   63.7237 N   0  0  0  0  0  0  0  0  0  0  0  0
  -38.7940   60.5291   61.9114 O   0  0  0  0  0  0  0  0  0  0  0  0
  -37.9160   59.8455   62.4166 C   0  0  0  0  0  0  0  0  0  0  0  0
  -36.9246   59.2890   64.0772 H   0  0  0  0  0  0  0  0  0  0  0  0
  -35.6559   59.2077   61.6700 N   0  0  0  0  0  0  0  0  0  0  0  0
  -35.8122   56.9886   62.0367 O   0  0  0  0  0  0  0  0  0  0  0  0
  -37.0890   58.9006   61.5295 C   0  0  0  0  0  0  0  0  0  0  0  0
  -37.5003   59.1035   60.0744 C   0  0  0  0  0  0  0  0  0  0  0  0
  -37.1920   57.4265   61.9482 C   0  0  0  0  0  0  0  0  0  0  0  0
  -35.0646   58.1191   61.9434 C   0  0  0  0  0  0  0  0  0  0  0  0
  -33.6366   59.5243   64.0098 O   0  0  0  0  0  0  0  0  0  0  0  0
  -33.6270   57.9494   62.1674 C   0  0  0  0  0  0  0  0  0  0  0  0
  -32.9184   56.9751   61.4631 C   0  0  0  0  0  0  0  0  0  0  0  0
  -31.6278   56.6396   61.8343 C   0  0  0  0  0  0  0  0  0  0  0  0
  -31.0251   57.2638   62.9046 C   0  0  0  0  0  0  0  0  0  0  0  0
  -31.7072   58.2296   63.6221 C   0  0  0  0  0  0  0  0  0  0  0  0
  -33.0060   58.5789   63.2656 C   0  0  0  0  0  0  0  0  0  0  0  0
  -34.5118   59.7820   63.7959 H   0  0  0  0  0  0  0  0  0  0  0  0
  -37.9860   60.5105   67.0045 O   0  0  0  0  0  0  0  0  0  0  0  0
  -37.6415   60.9297   65.9341 C   0  0  0  0  0  0  0  0  0  0  0  0
  -36.5440   61.6770   65.7236 O   0  0  0  0  0  0  0  0  0  0  0  0
  -35.9046   62.3082   66.8822 C   0  0  0  0  0  0  0  0  0  0  0  0
  -36.1367   63.7952   66.7920 C   0  0  0  0  0  0  0  0  0  0  0  0
  -34.4352   61.9466   66.7840 C   0  0  0  0  0  0  0  0  0  0  0  0
  -33.6805   62.6062   64.5846 N   0  0  0  0  0  0  0  0  0  0  0  0
  -33.0476   63.8486   66.3503 O   0  0  0  0  0  0  0  0  0  0  0  0
  -33.6553   62.8857   65.8909 C   0  0  0  0  0  0  0  0  0  0  0  0
  -34.1848   61.8200   64.2734 H   0  0  0  0  0  0  0  0  0  0  0  0
  -33.6188   65.2084   62.0708 N   0  0  0  0  0  0  0  0  0  0  0  0
  -35.1855   63.7396   62.7180 O   0  0  0  0  0  0  0  0  0  0  0  0
  -32.9851   63.4291   63.6105 C   0  0  0  0  0  0  0  0  0  0  0  0
  -32.1028   62.5526   62.7144 C   0  0  0  0  0  0  0  0  0  0  0  0
  -31.0131   63.3287   61.9827 C   0  0  0  0  0  0  0  0  0  0  0  0
  -31.5047   64.3946   61.0236 C   0  0  0  0  0  0  0  0  0  0  0  0
  -32.2484   65.5330   61.6898 C   0  0  0  0  0  0  0  0  0  0  0  0
  -34.0259   64.1399   62.7598 C   0  0  0  0  0  0  0  0  0  0  0  0
  -34.3165   65.8439   61.7904 H   0  0  0  0  0  0  0  0  0  0  0  0
  -39.7911   60.1428   64.8968 C   0  0  0  0  0  0  0  0  0  0  0  0
  -40.8788   60.8976   64.1403 C   0  0  0  0  0  0  0  0  0  0  0  0
  -42.0197   60.0057   63.6871 C   0  0  0  0  0  0  0  0  0  0  0  0
  -42.0112   58.6150   64.2832 C   0  0  0  0  0  0  0  0  0  0  0  0
  -42.9586   58.5122   65.3817 N   0  0  0  0  0  0  0  0  0  0  0  0
  -43.7393   56.4924   64.7452 O   0  0  0  0  0  0  0  0  0  0  0  0
  -43.7590   57.4515   65.5340 C   0  0  0  0  0  0  0  0  0  0  0  0
  -43.0125   59.2471   66.0345 H   0  0  0  0  0  0  0  0  0  0  0  0
  -45.9339   58.0625   66.5682 C   0  0  0  0  0  0  0  0  0  0  0  0
  -44.7102   57.5604   66.6627 C   0  0  0  0  0  0  0  0  0  0  0  0
  -46.6147   58.5951   65.3462 C   0  0  0  0  0  0  0  0  0  0  0  0
  -47.8073   57.7357   64.9450 C   0  0  0  0  0  0  0  0  0  0  0  0
  -48.9647   57.7958   65.9268 C   0  0  0  0  0  0  0  0  0  0  0  0
  -49.4110   59.2109   66.2547 C   0  0  0  0  0  0  0  0  0  0  0  0
  -50.8684   59.4955   65.9439 C   0  0  0  0  0  0  0  0  0  0  0  0
  -51.0625   60.5119   64.8308 C   0  0  0  0  0  0  0  0  0  0  0  0
  -49.9482   60.5042   63.8027 C   0  0  0  0  0  0  0  0  0  0  0  0
  -50.3438   59.8343   62.5020 C   0  0  0  0  0  0  0  0  0  0  0  0
  -51.0315   58.4933   62.6727 C   0  0  0  0  0  0  0  0  0  0  0  0
  -51.0770   57.6909   61.3874 C   0  0  0  0  0  0  0  0  0  0  0  0
  -49.7605   57.0039   61.0631 C   0  0  0  0  0  0  0  0  0  0  0  0
  -49.3106   57.1714   59.6222 C   0  0  0  0  0  0  0  0  0  0  0  0
  -47.8173   56.9783   59.4082 C   0  0  0  0  0  0  0  0  0  0  0  0
  -47.1516   58.1132   58.6421 C   0  0  0  0  0  0  0  0  0  0  0  0
  -47.0205   57.8419   57.1520 C   0  0  0  0  0  0  0  0  0  0  0  0
  -47.3382   55.3547   56.8521 C   0  0  0  0  0  0  0  0  0  0  0  0
  -47.9146   56.7293   56.6352 C   0  0  0  0  0  0  0  0  0  0  0  0
 43 45  1  0  0  0
 43 42  1  0  0  0
 43 46  1  0  0  0
 64 65  1  0  0  0
 44 45  2  0  0  0
 65 63  1  0  0  0
  2  1  1  0  0  0
  2  4  1  0  0  0
  2  5  1  0  0  0
  3  4  2  0  0  0
 63 62  1  0  0  0
  6  8  1  0  0  0
  6 11  2  0  0  0
  7 10  1  0  0  0
  7 11  1  0  0  0
 62 61  1  0  0  0
 26 28  1  0  0  0
 26 32  1  0  0  0
 26 29  1  0  0  0
 12 18  1  0  0  0
 12 19  1  0  0  0
 61 60  1  0  0  0
 30 36  1  0  0  0
 30 37  1  0  0  0
 30 38  1  0  0  0
 20 21  2  0  0  0
 60 59  1  0  0  0
 22 21  1  0  0  0
 22 23  1  0  0  0
 59 58  1  0  0  0
 27 28  2  0  0  0
 58 57  1  0  0  0
 31 37  2  0  0  0
 57 56  1  0  0  0
 56 55  1  0  0  0
 55 54  1  0  0  0
 54 53  1  0  0  0
 53 52  1  0  0  0
 52 51  1  0  0  0
 51 50  1  0  0  0
 50 49  1  0  0  0
 49 47  1  0  0  0
 47 48  2  0  0  0
 48 45  1  0  0  0
 42 41  1  0  0  0
 41 40  1  0  0  0
 40 39  1  0  0  0
 39  1  1  0  0  0
  1 21  1  0  0  0
  8  4  1  0  0  0
  8  9  1  0  0  0
  8 10  1  0  0  0
 11 13  1  0  0  0
 13 14  2  0  0  0
 13 18  1  0  0  0
 14 15  1  0  0  0
 15 16  2  0  0  0
 16 17  1  0  0  0
 17 18  2  0  0  0
 23 24  1  0  0  0
 23 25  1  0  0  0
 25 28  1  0  0  0
 32 33  1  0  0  0
 32 37  1  0  0  0
 33 34  1  0  0  0
 34 35  1  0  0  0
 35 36  1  0  0  0
M  END
> <minimizedAffinity>
-10.38142

> <CNNscore>
0.1788987219

> <CNNaffinity>
7.0813636780

> <CNN_VS>
1.2668468952

> <CNNaffinity_variance>
0.8990556598

$$$$
/media/chris/experiments/cd1a-new-docking/inputs/ligands/7ryo_ligand.pdb


 65 67  0  0  0  0  0  0  0  0999 V2000
  -40.2223   60.4097   65.2530 C   0  0  0  0  0  0  0  0  0  0  0  0
  -38.8905   60.5512   64.6884 N   0  0  0  0  0  0  0  0  0  0  0  0
  -37.9458   61.0484   66.6668 O   0  0  0  0  0  0  0  0  0  0  0  0
  -37.8488   60.8647   65.4625 C   0  0  0  0  0  0  0  0  0  0  0  0
  -38.7549   60.4142   63.7229 H   0  0  0  0  0  0  0  0  0  0  0  0
  -36.0649   62.4311   64.8020 N   0  0  0  0  0  0  0  0  0  0  0  0
  -34.3131   61.3018   65.6616 O   0  0  0  0  0  0  0  0  0  0  0  0
  -36.4786   61.0182   64.7823 C   0  0  0  0  0  0  0  0  0  0  0  0
  -36.5919   60.5538   63.3334 C   0  0  0  0  0  0  0  0  0  0  0  0
  -35.3459   60.2930   65.5239 C   0  0  0  0  0  0  0  0  0  0  0  0
  -34.8956   62.4722   65.2923 C   0  0  0  0  0  0  0  0  0  0  0  0
  -33.8322   63.2063   67.8640 O   0  0  0  0  0  0  0  0  0  0  0  0
  -34.0877   63.6763   65.5000 C   0  0  0  0  0  0  0  0  0  0  0  0
  -33.6821   64.4448   64.4081 C   0  0  0  0  0  0  0  0  0  0  0  0
  -32.7264   65.4343   64.5621 C   0  0  0  0  0  0  0  0  0  0  0  0
  -32.1628   65.6739   65.7963 C   0  0  0  0  0  0  0  0  0  0  0  0
  -32.5440   64.9234   66.8937 C   0  0  0  0  0  0  0  0  0  0  0  0
  -33.5015   63.9229   66.7584 C   0  0  0  0  0  0  0  0  0  0  0  0
  -34.4735   62.5255   67.8066 H   0  0  0  0  0  0  0  0  0  0  0  0
  -39.7173   58.0713   65.5958 O   0  0  0  0  0  0  0  0  0  0  0  0
  -40.5265   58.9576   65.5896 C   0  0  0  0  0  0  0  0  0  0  0  0
  -41.8340   58.7998   65.8592 O   0  0  0  0  0  0  0  0  0  0  0  0
  -42.4695   57.5330   65.4840 C   0  0  0  0  0  0  0  0  0  0  0  0
  -43.2216   57.7506   64.1955 C   0  0  0  0  0  0  0  0  0  0  0  0
  -43.3898   57.1816   66.6369 C   0  0  0  0  0  0  0  0  0  0  0  0
  -45.6781   57.5625   65.9581 N   0  0  0  0  0  0  0  0  0  0  0  0
  -44.7009   59.0654   67.3176 O   0  0  0  0  0  0  0  0  0  0  0  0
  -44.6449   58.0251   66.6678 C   0  0  0  0  0  0  0  0  0  0  0  0
  -45.5753   56.7220   65.4560 H   0  0  0  0  0  0  0  0  0  0  0  0
  -49.2746   57.6809   66.3395 N   0  0  0  0  0  0  0  0  0  0  0  0
  -47.8475   56.0493   65.7637 O   0  0  0  0  0  0  0  0  0  0  0  0
  -46.9487   58.2644   65.9062 C   0  0  0  0  0  0  0  0  0  0  0  0
  -47.0703   59.0368   64.5878 C   0  0  0  0  0  0  0  0  0  0  0  0
  -48.1221   60.1404   64.6209 C   0  0  0  0  0  0  0  0  0  0  0  0
  -49.5445   59.6774   64.8666 C   0  0  0  0  0  0  0  0  0  0  0  0
  -49.7662   59.0499   66.2268 C   0  0  0  0  0  0  0  0  0  0  0  0
  -48.0640   57.2348   65.9968 C   0  0  0  0  0  0  0  0  0  0  0  0
  -49.9013   57.0165   66.7069 H   0  0  0  0  0  0  0  0  0  0  0  0
  -41.2861   60.9883   64.3187 C   0  0  0  0  0  0  0  0  0  0  0  0
  -41.4029   60.2041   63.0162 C   0  0  0  0  0  0  0  0  0  0  0  0
  -41.3223   61.0821   61.7812 C   0  0  0  0  0  0  0  0  0  0  0  0
  -40.0959   60.8576   60.9239 C   0  0  0  0  0  0  0  0  0  0  0  0
  -39.3203   59.7268   61.4082 N   0  0  0  0  0  0  0  0  0  0  0  0
  -38.2914   59.3667   59.4320 O   0  0  0  0  0  0  0  0  0  0  0  0
  -38.4688   59.0591   60.6221 C   0  0  0  0  0  0  0  0  0  0  0  0
  -39.4254   59.4435   62.3452 H   0  0  0  0  0  0  0  0  0  0  0  0
  -38.4425   57.0661   62.1055 C   0  0  0  0  0  0  0  0  0  0  0  0
  -37.8293   57.8905   61.2670 C   0  0  0  0  0  0  0  0  0  0  0  0
  -39.8679   57.1134   62.5597 C   0  0  0  0  0  0  0  0  0  0  0  0
  -40.6241   55.8468   62.1773 C   0  0  0  0  0  0  0  0  0  0  0  0
  -41.7799   56.0874   61.2216 C   0  0  0  0  0  0  0  0  0  0  0  0
  -41.7902   57.4823   60.6188 C   0  0  0  0  0  0  0  0  0  0  0  0
  -41.3800   57.5366   59.1593 C   0  0  0  0  0  0  0  0  0  0  0  0
  -41.7102   58.8587   58.4865 C   0  0  0  0  0  0  0  0  0  0  0  0
  -42.1677   58.7089   57.0488 C   0  0  0  0  0  0  0  0  0  0  0  0
  -43.6242   59.0762   56.8470 C   0  0  0  0  0  0  0  0  0  0  0  0
  -44.6070   58.0295   57.3354 C   0  0  0  0  0  0  0  0  0  0  0  0
  -46.0514   58.4467   57.1414 C   0  0  0  0  0  0  0  0  0  0  0  0
  -46.9085   58.2314   58.3780 C   0  0  0  0  0  0  0  0  0  0  0  0
  -46.8753   56.8121   58.9177 C   0  0  0  0  0  0  0  0  0  0  0  0
  -48.2383   56.2595   59.3050 C   0  0  0  0  0  0  0  0  0  0  0  0
  -49.2887   57.3312   59.5617 C   0  0  0  0  0  0  0  0  0  0  0  0
  -50.1325   57.0671   60.7984 C   0  0  0  0  0  0  0  0  0  0  0  0
  -49.6936   59.5226   61.1916 C   0  0  0  0  0  0  0  0  0  0  0  0
  -50.4965   58.3114   61.5879 C   0  0  0  0  0  0  0  0  0  0  0  0
 43 45  1  0  0  0
 43 42  1  0  0  0
 43 46  1  0  0  0
 64 65  1  0  0  0
 44 45  2  0  0  0
 65 63  1  0  0  0
  2  1  1  0  0  0
  2  4  1  0  0  0
  2  5  1  0  0  0
  3  4  2  0  0  0
 63 62  1  0  0  0
  6  8  1  0  0  0
  6 11  2  0  0  0
  7 10  1  0  0  0
  7 11  1  0  0  0
 62 61  1  0  0  0
 26 28  1  0  0  0
 26 32  1  0  0  0
 26 29  1  0  0  0
 12 18  1  0  0  0
 12 19  1  0  0  0
 61 60  1  0  0  0
 30 36  1  0  0  0
 30 37  1  0  0  0
 30 38  1  0  0  0
 20 21  2  0  0  0
 60 59  1  0  0  0
 22 21  1  0  0  0
 22 23  1  0  0  0
 59 58  1  0  0  0
 27 28  2  0  0  0
 58 57  1  0  0  0
 31 37  2  0  0  0
 57 56  1  0  0  0
 56 55  1  0  0  0
 55 54  1  0  0  0
 54 53  1  0  0  0
 53 52  1  0  0  0
 52 51  1  0  0  0
 51 50  1  0  0  0
 50 49  1  0  0  0
 49 47  1  0  0  0
 47 48  2  0  0  0
 48 45  1  0  0  0
 42 41  1  0  0  0
 41 40  1  0  0  0
 40 39  1  0  0  0
 39  1  1  0  0  0
  1 21  1  0  0  0
  8  4  1  0  0  0
  8  9  1  0  0  0
  8 10  1  0  0  0
 11 13  1  0  0  0
 13 14  2  0  0  0
 13 18  1  0  0  0
 14 15  1  0  0  0
 15 16  2  0  0  0
 16 17  1  0  0  0
 17 18  2  0  0  0
 23 24  1  0  0  0
 23 25  1  0  0  0
 25 28  1  0  0  0
 32 33  1  0  0  0
 32 37  1  0  0  0
 33 34  1  0  0  0
 34 35  1  0  0  0
 35 36  1  0  0  0
M  END
> <minimizedAffinity>
-8.52592

> <CNNscore>
0.1698476821

> <CNNaffinity>
7.4867181778

> <CNN_VS>
1.2716016769

> <CNNaffinity_variance>
1.9769248962

$$$$
/media/chris/experiments/cd1a-new-docking/inputs/ligands/7ryo_ligand.pdb


 65 67  0  0  0  0  0  0  0  0999 V2000
  -35.4963   58.7494   62.8121 C   0  0  0  0  0  0  0  0  0  0  0  0
  -34.2415   59.4662   62.6574 N   0  0  0  0  0  0  0  0  0  0  0  0
  -33.1397   57.6655   61.8846 O   0  0  0  0  0  0  0  0  0  0  0  0
  -33.1518   58.8468   62.1975 C   0  0  0  0  0  0  0  0  0  0  0  0
  -34.1944   60.4206   62.8946 H   0  0  0  0  0  0  0  0  0  0  0  0
  -32.1716   61.0322   61.6183 N   0  0  0  0  0  0  0  0  0  0  0  0
  -30.9303   61.3288   63.4768 O   0  0  0  0  0  0  0  0  0  0  0  0
  -31.8590   59.6715   62.0861 C   0  0  0  0  0  0  0  0  0  0  0  0
  -30.9306   59.0006   61.0783 C   0  0  0  0  0  0  0  0  0  0  0  0
  -31.1628   59.8978   63.4362 C   0  0  0  0  0  0  0  0  0  0  0  0
  -31.6315   61.8414   62.4323 C   0  0  0  0  0  0  0  0  0  0  0  0
  -30.9278   63.5357   64.6500 O   0  0  0  0  0  0  0  0  0  0  0  0
  -31.6807   63.3036   62.3578 C   0  0  0  0  0  0  0  0  0  0  0  0
  -31.9396   63.9347   61.1405 C   0  0  0  0  0  0  0  0  0  0  0  0
  -31.7497   65.2990   61.0024 C   0  0  0  0  0  0  0  0  0  0  0  0
  -31.3027   66.0523   62.0659 C   0  0  0  0  0  0  0  0  0  0  0  0
  -31.0345   65.4504   63.2819 C   0  0  0  0  0  0  0  0  0  0  0  0
  -31.2171   64.0801   63.4396 C   0  0  0  0  0  0  0  0  0  0  0  0
  -31.0400   62.6158   64.7888 H   0  0  0  0  0  0  0  0  0  0  0  0
  -35.1034   56.9683   64.3977 O   0  0  0  0  0  0  0  0  0  0  0  0
  -35.5680   58.0492   64.1609 C   0  0  0  0  0  0  0  0  0  0  0  0
  -36.2436   58.8009   65.0473 O   0  0  0  0  0  0  0  0  0  0  0  0
  -37.6860   58.5777   65.1860 C   0  0  0  0  0  0  0  0  0  0  0  0
  -38.1035   57.5617   64.1531 C   0  0  0  0  0  0  0  0  0  0  0  0
  -38.3316   59.9308   64.9582 C   0  0  0  0  0  0  0  0  0  0  0  0
  -36.4889   61.4927   64.8753 N   0  0  0  0  0  0  0  0  0  0  0  0
  -37.8796   61.5713   66.6421 O   0  0  0  0  0  0  0  0  0  0  0  0
  -37.5474   61.0692   65.5720 C   0  0  0  0  0  0  0  0  0  0  0  0
  -36.2700   61.0518   64.0227 H   0  0  0  0  0  0  0  0  0  0  0  0
  -34.4565   64.4278   64.2846 N   0  0  0  0  0  0  0  0  0  0  0  0
  -34.8841   62.5904   63.0715 O   0  0  0  0  0  0  0  0  0  0  0  0
  -35.6519   62.5851   65.3398 C   0  0  0  0  0  0  0  0  0  0  0  0
  -34.5961   62.0599   66.3192 C   0  0  0  0  0  0  0  0  0  0  0  0
  -33.9794   63.1465   67.1935 C   0  0  0  0  0  0  0  0  0  0  0  0
  -33.2300   64.2340   66.4495 C   0  0  0  0  0  0  0  0  0  0  0  0
  -34.1006   65.0772   65.5417 C   0  0  0  0  0  0  0  0  0  0  0  0
  -34.9632   63.2021   64.1328 C   0  0  0  0  0  0  0  0  0  0  0  0
  -34.3075   64.9480   63.4622 H   0  0  0  0  0  0  0  0  0  0  0  0
  -35.7136   57.7568   61.6691 C   0  0  0  0  0  0  0  0  0  0  0  0
  -37.1055   57.8722   61.0569 C   0  0  0  0  0  0  0  0  0  0  0  0
  -37.4569   59.2869   60.6353 C   0  0  0  0  0  0  0  0  0  0  0  0
  -38.8998   59.6773   60.8698 C   0  0  0  0  0  0  0  0  0  0  0  0
  -39.7830   58.5332   60.7085 N   0  0  0  0  0  0  0  0  0  0  0  0
  -41.3784   59.3549   62.0773 O   0  0  0  0  0  0  0  0  0  0  0  0
  -40.9658   58.4545   61.3280 C   0  0  0  0  0  0  0  0  0  0  0  0
  -39.5011   57.7925   60.1244 H   0  0  0  0  0  0  0  0  0  0  0  0
  -41.8256   56.2272   62.0159 C   0  0  0  0  0  0  0  0  0  0  0  0
  -41.6887   57.1823   61.1061 C   0  0  0  0  0  0  0  0  0  0  0  0
  -41.3186   56.2231   63.4242 C   0  0  0  0  0  0  0  0  0  0  0  0
  -42.0121   57.2788   64.2766 C   0  0  0  0  0  0  0  0  0  0  0  0
  -42.9281   56.7021   65.3422 C   0  0  0  0  0  0  0  0  0  0  0  0
  -43.3046   57.6994   66.4251 C   0  0  0  0  0  0  0  0  0  0  0  0
  -44.7820   58.0404   66.4758 C   0  0  0  0  0  0  0  0  0  0  0  0
  -45.5355   57.6562   65.2132 C   0  0  0  0  0  0  0  0  0  0  0  0
  -47.0393   57.6017   65.3984 C   0  0  0  0  0  0  0  0  0  0  0  0
  -47.6921   58.9692   65.3682 C   0  0  0  0  0  0  0  0  0  0  0  0
  -48.3003   59.3429   64.0300 C   0  0  0  0  0  0  0  0  0  0  0  0
  -49.7525   59.7624   64.1435 C   0  0  0  0  0  0  0  0  0  0  0  0
  -50.5274   59.5958   62.8466 C   0  0  0  0  0  0  0  0  0  0  0  0
  -50.7471   58.1504   62.4353 C   0  0  0  0  0  0  0  0  0  0  0  0
  -50.4950   57.8757   60.9608 C   0  0  0  0  0  0  0  0  0  0  0  0
  -49.4882   58.8211   60.3201 C   0  0  0  0  0  0  0  0  0  0  0  0
  -48.7105   58.1911   59.1757 C   0  0  0  0  0  0  0  0  0  0  0  0
  -47.9366   55.7877   59.1368 C   0  0  0  0  0  0  0  0  0  0  0  0
  -47.6552   57.1899   59.6095 C   0  0  0  0  0  0  0  0  0  0  0  0
 43 45  1  0  0  0
 43 42  1  0  0  0
 43 46  1  0  0  0
 64 65  1  0  0  0
 44 45  2  0  0  0
 65 63  1  0  0  0
  2  1  1  0  0  0
  2  4  1  0  0  0
  2  5  1  0  0  0
  3  4  2  0  0  0
 63 62  1  0  0  0
  6  8  1  0  0  0
  6 11  2  0  0  0
  7 10  1  0  0  0
  7 11  1  0  0  0
 62 61  1  0  0  0
 26 28  1  0  0  0
 26 32  1  0  0  0
 26 29  1  0  0  0
 12 18  1  0  0  0
 12 19  1  0  0  0
 61 60  1  0  0  0
 30 36  1  0  0  0
 30 37  1  0  0  0
 30 38  1  0  0  0
 20 21  2  0  0  0
 60 59  1  0  0  0
 22 21  1  0  0  0
 22 23  1  0  0  0
 59 58  1  0  0  0
 27 28  2  0  0  0
 58 57  1  0  0  0
 31 37  2  0  0  0
 57 56  1  0  0  0
 56 55  1  0  0  0
 55 54  1  0  0  0
 54 53  1  0  0  0
 53 52  1  0  0  0
 52 51  1  0  0  0
 51 50  1  0  0  0
 50 49  1  0  0  0
 49 47  1  0  0  0
 47 48  2  0  0  0
 48 45  1  0  0  0
 42 41  1  0  0  0
 41 40  1  0  0  0
 40 39  1  0  0  0
 39  1  1  0  0  0
  1 21  1  0  0  0
  8  4  1  0  0  0
  8  9  1  0  0  0
  8 10  1  0  0  0
 11 13  1  0  0  0
 13 14  2  0  0  0
 13 18  1  0  0  0
 14 15  1  0  0  0
 15 16  2  0  0  0
 16 17  1  0  0  0
 17 18  2  0  0  0
 23 24  1  0  0  0
 23 25  1  0  0  0
 25 28  1  0  0  0
 32 33  1  0  0  0
 32 37  1  0  0  0
 33 34  1  0  0  0
 34 35  1  0  0  0
 35 36  1  0  0  0
M  END
> <minimizedAffinity>
-8.74395

> <CNNscore>
0.1688322425

> <CNNaffinity>
7.2244386673

> <CNN_VS>
1.2197182178

> <CNNaffinity_variance>
0.8230875134

$$$$
