/media/chris/experiments/cd1a-new-docking/inputs/ligands/7ryo_ligand.pdb


 65 67  0  0  0  0  0  0  0  0999 V2000
  -38.1172   60.8234   64.5840 C   0  0  0  0  0  0  0  0  0  0  0  0
  -37.4490   59.9254   63.6569 N   0  0  0  0  0  0  0  0  0  0  0  0
  -38.7638   60.4989   61.9259 O   0  0  0  0  0  0  0  0  0  0  0  0
  -37.8407   59.8415   62.3831 C   0  0  0  0  0  0  0  0  0  0  0  0
  -36.6984   59.3718   63.9721 H   0  0  0  0  0  0  0  0  0  0  0  0
  -35.6554   59.1534   61.4758 N   0  0  0  0  0  0  0  0  0  0  0  0
  -35.7852   56.9556   61.9611 O   0  0  0  0  0  0  0  0  0  0  0  0
  -37.0960   58.8497   61.4744 C   0  0  0  0  0  0  0  0  0  0  0  0
  -37.6312   58.9857   60.0521 C   0  0  0  0  0  0  0  0  0  0  0  0
  -37.1663   57.3980   61.9709 C   0  0  0  0  0  0  0  0  0  0  0  0
  -35.0455   58.0752   61.7492 C   0  0  0  0  0  0  0  0  0  0  0  0
  -33.3126   60.1325   62.7731 O   0  0  0  0  0  0  0  0  0  0  0  0
  -33.5944   57.9066   61.8562 C   0  0  0  0  0  0  0  0  0  0  0  0
  -33.0119   56.6663   61.5920 C   0  0  0  0  0  0  0  0  0  0  0  0
  -31.6888   56.4274   61.9213 C   0  0  0  0  0  0  0  0  0  0  0  0
  -30.9287   57.4119   62.5146 C   0  0  0  0  0  0  0  0  0  0  0  0
  -31.4835   58.6482   62.7911 C   0  0  0  0  0  0  0  0  0  0  0  0
  -32.8122   58.9066   62.4695 C   0  0  0  0  0  0  0  0  0  0  0  0
  -34.2038   60.3382   62.5695 H   0  0  0  0  0  0  0  0  0  0  0  0
  -37.6340   61.6597   66.7994 O   0  0  0  0  0  0  0  0  0  0  0  0
  -37.2656   61.0723   65.8199 C   0  0  0  0  0  0  0  0  0  0  0  0
  -36.0335   60.5605   65.6547 O   0  0  0  0  0  0  0  0  0  0  0  0
  -34.9223   61.4907   65.4316 C   0  0  0  0  0  0  0  0  0  0  0  0
  -34.5807   62.1361   66.7509 C   0  0  0  0  0  0  0  0  0  0  0  0
  -35.4284   62.4933   64.4128 C   0  0  0  0  0  0  0  0  0  0  0  0
  -34.3671   64.6640   64.4743 N   0  0  0  0  0  0  0  0  0  0  0  0
  -36.2431   64.3556   65.6773 O   0  0  0  0  0  0  0  0  0  0  0  0
  -35.3843   63.9189   64.9162 C   0  0  0  0  0  0  0  0  0  0  0  0
  -34.2925   65.5983   64.7756 H   0  0  0  0  0  0  0  0  0  0  0  0
  -31.1225   63.2168   63.7876 N   0  0  0  0  0  0  0  0  0  0  0  0
  -31.8684   64.6291   65.3624 O   0  0  0  0  0  0  0  0  0  0  0  0
  -33.3682   64.1351   63.5621 C   0  0  0  0  0  0  0  0  0  0  0  0
  -33.1908   65.0813   62.3692 C   0  0  0  0  0  0  0  0  0  0  0  0
  -32.5286   64.4255   61.1623 C   0  0  0  0  0  0  0  0  0  0  0  0
  -31.1210   63.9117   61.3905 C   0  0  0  0  0  0  0  0  0  0  0  0
  -31.0279   62.7844   62.3973 C   0  0  0  0  0  0  0  0  0  0  0  0
  -32.0531   64.0149   64.3156 C   0  0  0  0  0  0  0  0  0  0  0  0
  -30.4270   62.8853   64.4005 H   0  0  0  0  0  0  0  0  0  0  0  0
  -39.4994   60.2951   64.9704 C   0  0  0  0  0  0  0  0  0  0  0  0
  -39.4203   59.0545   65.8537 C   0  0  0  0  0  0  0  0  0  0  0  0
  -39.3653   57.7608   65.0627 C   0  0  0  0  0  0  0  0  0  0  0  0
  -40.4095   57.6393   63.9746 C   0  0  0  0  0  0  0  0  0  0  0  0
  -41.2794   56.4981   64.2110 N   0  0  0  0  0  0  0  0  0  0  0  0
  -43.2842   55.6647   64.8276 O   0  0  0  0  0  0  0  0  0  0  0  0
  -42.5467   56.6409   64.6139 C   0  0  0  0  0  0  0  0  0  0  0  0
  -40.9239   55.5910   64.0699 H   0  0  0  0  0  0  0  0  0  0  0  0
  -43.9059   58.4884   65.5692 C   0  0  0  0  0  0  0  0  0  0  0  0
  -43.0058   58.0451   64.7021 C   0  0  0  0  0  0  0  0  0  0  0  0
  -44.6216   57.7082   66.6272 C   0  0  0  0  0  0  0  0  0  0  0  0
  -46.0539   58.1937   66.8145 C   0  0  0  0  0  0  0  0  0  0  0  0
  -47.1047   57.1542   66.4650 C   0  0  0  0  0  0  0  0  0  0  0  0
  -48.1389   57.6466   65.4664 C   0  0  0  0  0  0  0  0  0  0  0  0
  -49.4872   57.9819   66.0757 C   0  0  0  0  0  0  0  0  0  0  0  0
  -49.7845   59.4720   66.1046 C   0  0  0  0  0  0  0  0  0  0  0  0
  -49.8269   60.1078   64.7290 C   0  0  0  0  0  0  0  0  0  0  0  0
  -51.1751   59.9689   64.0508 C   0  0  0  0  0  0  0  0  0  0  0  0
  -51.1529   59.1461   62.7769 C   0  0  0  0  0  0  0  0  0  0  0  0
  -49.7464   58.8591   62.2897 C   0  0  0  0  0  0  0  0  0  0  0  0
  -49.4014   59.5801   60.9969 C   0  0  0  0  0  0  0  0  0  0  0  0
  -49.3322   58.6744   59.7796 C   0  0  0  0  0  0  0  0  0  0  0  0
  -48.3582   57.5145   59.9191 C   0  0  0  0  0  0  0  0  0  0  0  0
  -47.0830   57.6779   59.1036 C   0  0  0  0  0  0  0  0  0  0  0  0
  -47.3383   57.9552   57.6309 C   0  0  0  0  0  0  0  0  0  0  0  0
  -47.0617   55.6153   56.7230 C   0  0  0  0  0  0  0  0  0  0  0  0
  -47.9755   56.8028   56.8759 C   0  0  0  0  0  0  0  0  0  0  0  0
 43 45  1  0  0  0
 43 42  1  0  0  0
 43 46  1  0  0  0
 64 65  1  0  0  0
 44 45  2  0  0  0
 65 63  1  0  0  0
  2  1  1  0  0  0
  2  4  1  0  0  0
  2  5  1  0  0  0
  3  4  2  0  0  0
 63 62  1  0  0  0
  6  8  1  0  0  0
  6 11  2  0  0  0
  7 10  1  0  0  0
  7 11  1  0  0  0
 62 61  1  0  0  0
 26 28  1  0  0  0
 26 32  1  0  0  0
 26 29  1  0  0  0
 12 18  1  0  0  0
 12 19  1  0  0  0
 61 60  1  0  0  0
 30 36  1  0  0  0
 30 37  1  0  0  0
 30 38  1  0  0  0
 20 21  2  0  0  0
 60 59  1  0  0  0
 22 21  1  0  0  0
 22 23  1  0  0  0
 59 58  1  0  0  0
 27 28  2  0  0  0
 58 57  1  0  0  0
 31 37  2  0  0  0
 57 56  1  0  0  0
 56 55  1  0  0  0
 55 54  1  0  0  0
 54 53  1  0  0  0
 53 52  1  0  0  0
 52 51  1  0  0  0
 51 50  1  0  0  0
 50 49  1  0  0  0
 49 47  1  0  0  0
 47 48  2  0  0  0
 48 45  1  0  0  0
 42 41  1  0  0  0
 41 40  1  0  0  0
 40 39  1  0  0  0
 39  1  1  0  0  0
  1 21  1  0  0  0
  8  4  1  0  0  0
  8  9  1  0  0  0
  8 10  1  0  0  0
 11 13  1  0  0  0
 13 14  2  0  0  0
 13 18  1  0  0  0
 14 15  1  0  0  0
 15 16  2  0  0  0
 16 17  1  0  0  0
 17 18  2  0  0  0
 23 24  1  0  0  0
 23 25  1  0  0  0
 25 28  1  0  0  0
 32 33  1  0  0  0
 32 37  1  0  0  0
 33 34  1  0  0  0
 34 35  1  0  0  0
 35 36  1  0  0  0
M  END
> <minimizedAffinity>
-9.97273

> <CNNscore>
0.2310645878

> <CNNaffinity>
7.2886033058

> <CNN_VS>
1.6841380596

> <CNNaffinity_variance>
0.9802156687

$$$$
/media/chris/experiments/cd1a-new-docking/inputs/ligands/7ryo_ligand.pdb


 65 67  0  0  0  0  0  0  0  0999 V2000
  -35.2122   58.2416   63.6368 C   0  0  0  0  0  0  0  0  0  0  0  0
  -36.3502   59.1329   63.7880 N   0  0  0  0  0  0  0  0  0  0  0  0
  -37.2587   57.9274   65.4539 O   0  0  0  0  0  0  0  0  0  0  0  0
  -37.2922   58.8908   64.7029 C   0  0  0  0  0  0  0  0  0  0  0  0
  -36.4276   59.9251   63.2085 H   0  0  0  0  0  0  0  0  0  0  0  0
  -39.7392   59.1470   64.5665 N   0  0  0  0  0  0  0  0  0  0  0  0
  -40.0476   60.2977   66.4806 O   0  0  0  0  0  0  0  0  0  0  0  0
  -38.4749   59.8701   64.7816 C   0  0  0  0  0  0  0  0  0  0  0  0
  -38.3148   60.9261   63.6921 C   0  0  0  0  0  0  0  0  0  0  0  0
  -38.6469   60.5070   66.1685 C   0  0  0  0  0  0  0  0  0  0  0  0
  -40.5085   59.4425   65.5309 C   0  0  0  0  0  0  0  0  0  0  0  0
  -42.5437   59.6536   63.5067 O   0  0  0  0  0  0  0  0  0  0  0  0
  -41.8746   58.9518   65.7281 C   0  0  0  0  0  0  0  0  0  0  0  0
  -42.1992   58.2248   66.8742 C   0  0  0  0  0  0  0  0  0  0  0  0
  -43.4059   57.5521   66.9607 C   0  0  0  0  0  0  0  0  0  0  0  0
  -44.3033   57.5916   65.9157 C   0  0  0  0  0  0  0  0  0  0  0  0
  -44.0037   58.3012   64.7670 C   0  0  0  0  0  0  0  0  0  0  0  0
  -42.7951   58.9820   64.6604 C   0  0  0  0  0  0  0  0  0  0  0  0
  -41.7388   60.1222   63.4032 H   0  0  0  0  0  0  0  0  0  0  0  0
  -33.8709   59.5308   65.1794 O   0  0  0  0  0  0  0  0  0  0  0  0
  -33.9393   58.8778   64.1749 C   0  0  0  0  0  0  0  0  0  0  0  0
  -32.9031   58.6245   63.3567 O   0  0  0  0  0  0  0  0  0  0  0  0
  -32.5534   59.6324   62.3510 C   0  0  0  0  0  0  0  0  0  0  0  0
  -31.6805   58.9739   61.3127 C   0  0  0  0  0  0  0  0  0  0  0  0
  -31.8251   60.7268   63.1069 C   0  0  0  0  0  0  0  0  0  0  0  0
  -32.4359   63.0575   62.9151 N   0  0  0  0  0  0  0  0  0  0  0  0
  -31.1731   62.1451   61.2919 O   0  0  0  0  0  0  0  0  0  0  0  0
  -31.7828   62.0369   62.3522 C   0  0  0  0  0  0  0  0  0  0  0  0
  -32.4406   63.9310   62.4609 H   0  0  0  0  0  0  0  0  0  0  0  0
  -35.4030   62.3097   64.8466 N   0  0  0  0  0  0  0  0  0  0  0  0
  -35.0829   63.1780   62.8034 O   0  0  0  0  0  0  0  0  0  0  0  0
  -33.1395   62.9152   64.1778 C   0  0  0  0  0  0  0  0  0  0  0  0
  -32.8763   64.1353   65.0677 C   0  0  0  0  0  0  0  0  0  0  0  0
  -33.1784   63.8924   66.5425 C   0  0  0  0  0  0  0  0  0  0  0  0
  -34.6197   63.5513   66.8648 C   0  0  0  0  0  0  0  0  0  0  0  0
  -35.0947   62.2417   66.2710 C   0  0  0  0  0  0  0  0  0  0  0  0
  -34.6277   62.8124   63.8833 C   0  0  0  0  0  0  0  0  0  0  0  0
  -36.2743   61.9467   64.5665 H   0  0  0  0  0  0  0  0  0  0  0  0
  -35.0339   57.8106   62.1803 C   0  0  0  0  0  0  0  0  0  0  0  0
  -36.3360   57.8835   61.3900 C   0  0  0  0  0  0  0  0  0  0  0  0
  -37.3283   56.8012   61.7729 C   0  0  0  0  0  0  0  0  0  0  0  0
  -38.7820   57.1983   61.6367 C   0  0  0  0  0  0  0  0  0  0  0  0
  -39.5330   56.8480   62.8317 N   0  0  0  0  0  0  0  0  0  0  0  0
  -41.4376   56.1179   63.7978 O   0  0  0  0  0  0  0  0  0  0  0  0
  -40.7935   56.4044   62.7753 C   0  0  0  0  0  0  0  0  0  0  0  0
  -39.0995   56.9403   63.7107 H   0  0  0  0  0  0  0  0  0  0  0  0
  -41.4276   57.1784   60.5010 C   0  0  0  0  0  0  0  0  0  0  0  0
  -41.3136   56.2129   61.4030 C   0  0  0  0  0  0  0  0  0  0  0  0
  -41.0548   58.6204   60.6495 C   0  0  0  0  0  0  0  0  0  0  0  0
  -40.8358   59.2885   59.2976 C   0  0  0  0  0  0  0  0  0  0  0  0
  -41.4365   58.5236   58.1308 C   0  0  0  0  0  0  0  0  0  0  0  0
  -42.2722   59.3886   57.2021 C   0  0  0  0  0  0  0  0  0  0  0  0
  -43.4999   58.6976   56.6392 C   0  0  0  0  0  0  0  0  0  0  0  0
  -44.5119   58.3013   57.7015 C   0  0  0  0  0  0  0  0  0  0  0  0
  -45.8515   57.8761   57.1330 C   0  0  0  0  0  0  0  0  0  0  0  0
  -47.0294   58.4106   57.9229 C   0  0  0  0  0  0  0  0  0  0  0  0
  -47.5900   57.4400   58.9446 C   0  0  0  0  0  0  0  0  0  0  0  0
  -49.0945   57.5513   59.0939 C   0  0  0  0  0  0  0  0  0  0  0  0
  -49.5721   57.3383   60.5210 C   0  0  0  0  0  0  0  0  0  0  0  0
  -50.0472   58.6043   61.2127 C   0  0  0  0  0  0  0  0  0  0  0  0
  -51.0579   58.3666   62.3242 C   0  0  0  0  0  0  0  0  0  0  0  0
  -50.8546   59.2550   63.5438 C   0  0  0  0  0  0  0  0  0  0  0  0
  -49.5632   60.0559   63.5000 C   0  0  0  0  0  0  0  0  0  0  0  0
  -47.6031   58.6740   64.2903 C   0  0  0  0  0  0  0  0  0  0  0  0
  -48.5974   59.7529   64.6311 C   0  0  0  0  0  0  0  0  0  0  0  0
 43 45  1  0  0  0
 43 42  1  0  0  0
 43 46  1  0  0  0
 64 65  1  0  0  0
 44 45  2  0  0  0
 65 63  1  0  0  0
  2  1  1  0  0  0
  2  4  1  0  0  0
  2  5  1  0  0  0
  3  4  2  0  0  0
 63 62  1  0  0  0
  6  8  1  0  0  0
  6 11  2  0  0  0
  7 10  1  0  0  0
  7 11  1  0  0  0
 62 61  1  0  0  0
 26 28  1  0  0  0
 26 32  1  0  0  0
 26 29  1  0  0  0
 12 18  1  0  0  0
 12 19  1  0  0  0
 61 60  1  0  0  0
 30 36  1  0  0  0
 30 37  1  0  0  0
 30 38  1  0  0  0
 20 21  2  0  0  0
 60 59  1  0  0  0
 22 21  1  0  0  0
 22 23  1  0  0  0
 59 58  1  0  0  0
 27 28  2  0  0  0
 58 57  1  0  0  0
 31 37  2  0  0  0
 57 56  1  0  0  0
 56 55  1  0  0  0
 55 54  1  0  0  0
 54 53  1  0  0  0
 53 52  1  0  0  0
 52 51  1  0  0  0
 51 50  1  0  0  0
 50 49  1  0  0  0
 49 47  1  0  0  0
 47 48  2  0  0  0
 48 45  1  0  0  0
 42 41  1  0  0  0
 41 40  1  0  0  0
 40 39  1  0  0  0
 39  1  1  0  0  0
  1 21  1  0  0  0
  8  4  1  0  0  0
  8  9  1  0  0  0
  8 10  1  0  0  0
 11 13  1  0  0  0
 13 14  2  0  0  0
 13 18  1  0  0  0
 14 15  1  0  0  0
 15 16  2  0  0  0
 16 17  1  0  0  0
 17 18  2  0  0  0
 23 24  1  0  0  0
 23 25  1  0  0  0
 25 28  1  0  0  0
 32 33  1  0  0  0
 32 37  1  0  0  0
 33 34  1  0  0  0
 34 35  1  0  0  0
 35 36  1  0  0  0
M  END
> <minimizedAffinity>
-8.17749

> <CNNscore>
0.2268137932

> <CNNaffinity>
7.4694304466

> <CNN_VS>
1.6941698790

> <CNNaffinity_variance>
1.6373279095

$$$$
/media/chris/experiments/cd1a-new-docking/inputs/ligands/7ryo_ligand.pdb


 65 67  0  0  0  0  0  0  0  0999 V2000
  -38.9970   58.6308   65.2583 C   0  0  0  0  0  0  0  0  0  0  0  0
  -40.1873   57.9521   64.7736 N   0  0  0  0  0  0  0  0  0  0  0  0
  -41.4462   58.6023   66.5190 O   0  0  0  0  0  0  0  0  0  0  0  0
  -41.3302   57.9995   65.4623 C   0  0  0  0  0  0  0  0  0  0  0  0
  -40.1504   57.4510   63.9270 H   0  0  0  0  0  0  0  0  0  0  0  0
  -43.7120   57.4391   65.7537 N   0  0  0  0  0  0  0  0  0  0  0  0
  -44.4187   57.9557   63.6760 O   0  0  0  0  0  0  0  0  0  0  0  0
  -42.5360   57.2348   64.8919 C   0  0  0  0  0  0  0  0  0  0  0  0
  -42.2024   55.7466   64.8510 C   0  0  0  0  0  0  0  0  0  0  0  0
  -42.9914   57.7523   63.5194 C   0  0  0  0  0  0  0  0  0  0  0  0
  -44.6614   57.8259   65.0064 C   0  0  0  0  0  0  0  0  0  0  0  0
  -45.7241   56.9993   67.5503 O   0  0  0  0  0  0  0  0  0  0  0  0
  -46.0239   58.1481   65.4372 C   0  0  0  0  0  0  0  0  0  0  0  0
  -46.8167   59.0041   64.6716 C   0  0  0  0  0  0  0  0  0  0  0  0
  -48.0011   59.5077   65.1812 C   0  0  0  0  0  0  0  0  0  0  0  0
  -48.4134   59.1700   66.4519 C   0  0  0  0  0  0  0  0  0  0  0  0
  -47.6437   58.3272   67.2328 C   0  0  0  0  0  0  0  0  0  0  0  0
  -46.4491   57.8126   66.7390 C   0  0  0  0  0  0  0  0  0  0  0  0
  -44.9149   56.6363   67.2477 H   0  0  0  0  0  0  0  0  0  0  0  0
  -39.8304   60.6712   64.2667 O   0  0  0  0  0  0  0  0  0  0  0  0
  -39.0980   60.1347   65.0516 C   0  0  0  0  0  0  0  0  0  0  0  0
  -38.2365   60.7804   65.8567 O   0  0  0  0  0  0  0  0  0  0  0  0
  -37.2174   61.6332   65.2371 C   0  0  0  0  0  0  0  0  0  0  0  0
  -36.9644   61.1209   63.8416 C   0  0  0  0  0  0  0  0  0  0  0  0
  -35.9937   61.5168   66.1250 C   0  0  0  0  0  0  0  0  0  0  0  0
  -35.0182   63.6560   66.6851 N   0  0  0  0  0  0  0  0  0  0  0  0
  -36.4565   62.7217   68.1411 O   0  0  0  0  0  0  0  0  0  0  0  0
  -35.8436   62.6817   67.0779 C   0  0  0  0  0  0  0  0  0  0  0  0
  -34.8843   64.4350   67.2721 H   0  0  0  0  0  0  0  0  0  0  0  0
  -31.9975   63.8620   64.7035 N   0  0  0  0  0  0  0  0  0  0  0  0
  -32.6566   64.8599   66.6011 O   0  0  0  0  0  0  0  0  0  0  0  0
  -34.3125   63.5990   65.4168 C   0  0  0  0  0  0  0  0  0  0  0  0
  -35.0509   64.4349   64.3653 C   0  0  0  0  0  0  0  0  0  0  0  0
  -34.6687   64.0880   62.9304 C   0  0  0  0  0  0  0  0  0  0  0  0
  -33.2134   64.3131   62.5712 C   0  0  0  0  0  0  0  0  0  0  0  0
  -32.2438   63.4325   63.3311 C   0  0  0  0  0  0  0  0  0  0  0  0
  -32.9156   64.1623   65.6247 C   0  0  0  0  0  0  0  0  0  0  0  0
  -31.0554   63.9385   64.9790 H   0  0  0  0  0  0  0  0  0  0  0  0
  -37.7333   58.0730   64.6017 C   0  0  0  0  0  0  0  0  0  0  0  0
  -36.6001   57.8717   65.6019 C   0  0  0  0  0  0  0  0  0  0  0  0
  -35.4340   57.0849   65.0329 C   0  0  0  0  0  0  0  0  0  0  0  0
  -34.0808   57.7363   65.2171 C   0  0  0  0  0  0  0  0  0  0  0  0
  -34.0234   59.0214   64.5388 N   0  0  0  0  0  0  0  0  0  0  0  0
  -34.0110   60.2227   62.6281 O   0  0  0  0  0  0  0  0  0  0  0  0
  -34.0731   59.1253   63.2063 C   0  0  0  0  0  0  0  0  0  0  0  0
  -33.9454   59.8413   65.0779 H   0  0  0  0  0  0  0  0  0  0  0  0
  -35.2789   57.6065   61.6529 C   0  0  0  0  0  0  0  0  0  0  0  0
  -34.2864   57.8421   62.5003 C   0  0  0  0  0  0  0  0  0  0  0  0
  -36.3565   58.5499   61.2182 C   0  0  0  0  0  0  0  0  0  0  0  0
  -37.7204   57.8710   61.1834 C   0  0  0  0  0  0  0  0  0  0  0  0
  -38.8888   58.8366   61.2805 C   0  0  0  0  0  0  0  0  0  0  0  0
  -40.1592   58.3220   60.6243 C   0  0  0  0  0  0  0  0  0  0  0  0
  -40.5542   59.0613   59.3597 C   0  0  0  0  0  0  0  0  0  0  0  0
  -41.6864   58.3936   58.5970 C   0  0  0  0  0  0  0  0  0  0  0  0
  -41.8077   58.8623   57.1603 C   0  0  0  0  0  0  0  0  0  0  0  0
  -43.2448   59.0271   56.7078 C   0  0  0  0  0  0  0  0  0  0  0  0
  -44.2552   58.2648   57.5432 C   0  0  0  0  0  0  0  0  0  0  0  0
  -45.6407   58.2618   56.9277 C   0  0  0  0  0  0  0  0  0  0  0  0
  -46.7551   58.2980   57.9606 C   0  0  0  0  0  0  0  0  0  0  0  0
  -46.7013   57.1669   58.9728 C   0  0  0  0  0  0  0  0  0  0  0  0
  -48.0568   56.7675   59.5351 C   0  0  0  0  0  0  0  0  0  0  0  0
  -49.2254   57.5364   58.9341 C   0  0  0  0  0  0  0  0  0  0  0  0
  -50.0271   58.3185   59.9619 C   0  0  0  0  0  0  0  0  0  0  0  0
  -50.8897   58.2649   62.3345 C   0  0  0  0  0  0  0  0  0  0  0  0
  -50.6018   57.4746   61.0850 C   0  0  0  0  0  0  0  0  0  0  0  0
 43 45  1  0  0  0
 43 42  1  0  0  0
 43 46  1  0  0  0
 64 65  1  0  0  0
 44 45  2  0  0  0
 65 63  1  0  0  0
  2  1  1  0  0  0
  2  4  1  0  0  0
  2  5  1  0  0  0
  3  4  2  0  0  0
 63 62  1  0  0  0
  6  8  1  0  0  0
  6 11  2  0  0  0
  7 10  1  0  0  0
  7 11  1  0  0  0
 62 61  1  0  0  0
 26 28  1  0  0  0
 26 32  1  0  0  0
 26 29  1  0  0  0
 12 18  1  0  0  0
 12 19  1  0  0  0
 61 60  1  0  0  0
 30 36  1  0  0  0
 30 37  1  0  0  0
 30 38  1  0  0  0
 20 21  2  0  0  0
 60 59  1  0  0  0
 22 21  1  0  0  0
 22 23  1  0  0  0
 59 58  1  0  0  0
 27 28  2  0  0  0
 58 57  1  0  0  0
 31 37  2  0  0  0
 57 56  1  0  0  0
 56 55  1  0  0  0
 55 54  1  0  0  0
 54 53  1  0  0  0
 53 52  1  0  0  0
 52 51  1  0  0  0
 51 50  1  0  0  0
 50 49  1  0  0  0
 49 47  1  0  0  0
 47 48  2  0  0  0
 48 45  1  0  0  0
 42 41  1  0  0  0
 41 40  1  0  0  0
 40 39  1  0  0  0
 39  1  1  0  0  0
  1 21  1  0  0  0
  8  4  1  0  0  0
  8  9  1  0  0  0
  8 10  1  0  0  0
 11 13  1  0  0  0
 13 14  2  0  0  0
 13 18  1  0  0  0
 14 15  1  0  0  0
 15 16  2  0  0  0
 16 17  1  0  0  0
 17 18  2  0  0  0
 23 24  1  0  0  0
 23 25  1  0  0  0
 25 28  1  0  0  0
 32 33  1  0  0  0
 32 37  1  0  0  0
 33 34  1  0  0  0
 34 35  1  0  0  0
 35 36  1  0  0  0
M  END
> <minimizedAffinity>
-8.42116

> <CNNscore>
0.2165320665

> <CNNaffinity>
7.7726964951

> <CNN_VS>
1.6830379963

> <CNNaffinity_variance>
1.0933213234

$$$$
/media/chris/experiments/cd1a-new-docking/inputs/ligands/7ryo_ligand.pdb


 65 67  0  0  0  0  0  0  0  0999 V2000
  -34.1332   59.8493   63.6451 C   0  0  0  0  0  0  0  0  0  0  0  0
  -35.2927   59.8822   62.7694 N   0  0  0  0  0  0  0  0  0  0  0  0
  -35.0534   57.7401   62.1307 O   0  0  0  0  0  0  0  0  0  0  0  0
  -35.6570   58.8012   62.0754 C   0  0  0  0  0  0  0  0  0  0  0  0
  -35.8161   60.7119   62.6868 H   0  0  0  0  0  0  0  0  0  0  0  0
  -37.7646   57.7628   61.3326 N   0  0  0  0  0  0  0  0  0  0  0  0
  -39.1098   59.5547   61.5833 O   0  0  0  0  0  0  0  0  0  0  0  0
  -36.8816   58.9273   61.1542 C   0  0  0  0  0  0  0  0  0  0  0  0
  -36.4066   58.9733   59.7050 C   0  0  0  0  0  0  0  0  0  0  0  0
  -37.7796   60.1256   61.4956 C   0  0  0  0  0  0  0  0  0  0  0  0
  -38.9306   58.2082   61.5593 C   0  0  0  0  0  0  0  0  0  0  0  0
  -41.1745   58.1954   59.7569 O   0  0  0  0  0  0  0  0  0  0  0  0
  -40.1317   57.4040   61.7968 C   0  0  0  0  0  0  0  0  0  0  0  0
  -40.1670   56.4925   62.8529 C   0  0  0  0  0  0  0  0  0  0  0  0
  -41.1870   55.5610   62.9428 C   0  0  0  0  0  0  0  0  0  0  0  0
  -42.1818   55.5216   61.9901 C   0  0  0  0  0  0  0  0  0  0  0  0
  -42.1675   56.4109   60.9310 C   0  0  0  0  0  0  0  0  0  0  0  0
  -41.1495   57.3530   60.8223 C   0  0  0  0  0  0  0  0  0  0  0  0
  -40.5034   58.8414   59.6546 H   0  0  0  0  0  0  0  0  0  0  0  0
  -32.2480   58.4120   63.1751 O   0  0  0  0  0  0  0  0  0  0  0  0
  -32.8917   59.3861   62.8976 C   0  0  0  0  0  0  0  0  0  0  0  0
  -32.6023   60.2323   61.8939 O   0  0  0  0  0  0  0  0  0  0  0  0
  -31.7256   61.3719   62.1811 C   0  0  0  0  0  0  0  0  0  0  0  0
  -30.9278   61.0479   63.4189 C   0  0  0  0  0  0  0  0  0  0  0  0
  -32.6503   62.5564   62.3844 C   0  0  0  0  0  0  0  0  0  0  0  0
  -32.3231   64.3071   64.0184 N   0  0  0  0  0  0  0  0  0  0  0  0
  -31.0166   64.2950   62.1868 O   0  0  0  0  0  0  0  0  0  0  0  0
  -31.9237   63.7988   62.8491 C   0  0  0  0  0  0  0  0  0  0  0  0
  -31.8829   65.1176   64.3628 H   0  0  0  0  0  0  0  0  0  0  0  0
  -35.8191   63.6188   64.6492 N   0  0  0  0  0  0  0  0  0  0  0  0
  -34.7425   65.3492   63.7124 O   0  0  0  0  0  0  0  0  0  0  0  0
  -33.3881   63.6982   64.7960 C   0  0  0  0  0  0  0  0  0  0  0  0
  -33.1835   63.9883   66.2872 C   0  0  0  0  0  0  0  0  0  0  0  0
  -33.9555   63.0461   67.2045 C   0  0  0  0  0  0  0  0  0  0  0  0
  -35.4640   63.0891   67.0621 C   0  0  0  0  0  0  0  0  0  0  0  0
  -35.9726   62.6304   65.7114 C   0  0  0  0  0  0  0  0  0  0  0  0
  -34.7102   64.2940   64.3389 C   0  0  0  0  0  0  0  0  0  0  0  0
  -36.6169   63.8074   64.1041 H   0  0  0  0  0  0  0  0  0  0  0  0
  -34.3894   58.9747   64.8733 C   0  0  0  0  0  0  0  0  0  0  0  0
  -35.8023   59.1436   65.4215 C   0  0  0  0  0  0  0  0  0  0  0  0
  -36.6682   57.9122   65.2302 C   0  0  0  0  0  0  0  0  0  0  0  0
  -38.1574   58.1665   65.3129 C   0  0  0  0  0  0  0  0  0  0  0  0
  -38.4344   59.4417   65.9547 N   0  0  0  0  0  0  0  0  0  0  0  0
  -39.7569   61.2524   66.2124 O   0  0  0  0  0  0  0  0  0  0  0  0
  -39.5285   60.1574   65.6727 C   0  0  0  0  0  0  0  0  0  0  0  0
  -37.7957   59.7895   66.6182 H   0  0  0  0  0  0  0  0  0  0  0  0
  -41.5810   58.8801   65.0986 C   0  0  0  0  0  0  0  0  0  0  0  0
  -40.4654   59.4985   64.7355 C   0  0  0  0  0  0  0  0  0  0  0  0
  -42.1369   58.7283   66.4800 C   0  0  0  0  0  0  0  0  0  0  0  0
  -42.9596   57.4532   66.6200 C   0  0  0  0  0  0  0  0  0  0  0  0
  -43.7324   57.0811   65.3665 C   0  0  0  0  0  0  0  0  0  0  0  0
  -45.1196   57.6982   65.3016 C   0  0  0  0  0  0  0  0  0  0  0  0
  -45.9329   57.5450   66.5731 C   0  0  0  0  0  0  0  0  0  0  0  0
  -46.8718   58.7109   66.8351 C   0  0  0  0  0  0  0  0  0  0  0  0
  -47.9552   58.8636   65.7855 C   0  0  0  0  0  0  0  0  0  0  0  0
  -49.2478   58.1662   66.1592 C   0  0  0  0  0  0  0  0  0  0  0  0
  -50.4733   58.6895   65.4349 C   0  0  0  0  0  0  0  0  0  0  0  0
  -50.1237   59.4898   64.1957 C   0  0  0  0  0  0  0  0  0  0  0  0
  -50.7584   58.9402   62.9288 C   0  0  0  0  0  0  0  0  0  0  0  0
  -49.8705   57.9817   62.1544 C   0  0  0  0  0  0  0  0  0  0  0  0
  -50.5180   57.4009   60.9066 C   0  0  0  0  0  0  0  0  0  0  0  0
  -49.5653   57.2540   59.7281 C   0  0  0  0  0  0  0  0  0  0  0  0
  -48.2836   58.0566   59.8830 C   0  0  0  0  0  0  0  0  0  0  0  0
  -47.0683   57.9936   57.6705 C   0  0  0  0  0  0  0  0  0  0  0  0
  -47.1036   57.5136   59.0977 C   0  0  0  0  0  0  0  0  0  0  0  0
 43 45  1  0  0  0
 43 42  1  0  0  0
 43 46  1  0  0  0
 64 65  1  0  0  0
 44 45  2  0  0  0
 65 63  1  0  0  0
  2  1  1  0  0  0
  2  4  1  0  0  0
  2  5  1  0  0  0
  3  4  2  0  0  0
 63 62  1  0  0  0
  6  8  1  0  0  0
  6 11  2  0  0  0
  7 10  1  0  0  0
  7 11  1  0  0  0
 62 61  1  0  0  0
 26 28  1  0  0  0
 26 32  1  0  0  0
 26 29  1  0  0  0
 12 18  1  0  0  0
 12 19  1  0  0  0
 61 60  1  0  0  0
 30 36  1  0  0  0
 30 37  1  0  0  0
 30 38  1  0  0  0
 20 21  2  0  0  0
 60 59  1  0  0  0
 22 21  1  0  0  0
 22 23  1  0  0  0
 59 58  1  0  0  0
 27 28  2  0  0  0
 58 57  1  0  0  0
 31 37  2  0  0  0
 57 56  1  0  0  0
 56 55  1  0  0  0
 55 54  1  0  0  0
 54 53  1  0  0  0
 53 52  1  0  0  0
 52 51  1  0  0  0
 51 50  1  0  0  0
 50 49  1  0  0  0
 49 47  1  0  0  0
 47 48  2  0  0  0
 48 45  1  0  0  0
 42 41  1  0  0  0
 41 40  1  0  0  0
 40 39  1  0  0  0
 39  1  1  0  0  0
  1 21  1  0  0  0
  8  4  1  0  0  0
  8  9  1  0  0  0
  8 10  1  0  0  0
 11 13  1  0  0  0
 13 14  2  0  0  0
 13 18  1  0  0  0
 14 15  1  0  0  0
 15 16  2  0  0  0
 16 17  1  0  0  0
 17 18  2  0  0  0
 23 24  1  0  0  0
 23 25  1  0  0  0
 25 28  1  0  0  0
 32 33  1  0  0  0
 32 37  1  0  0  0
 33 34  1  0  0  0
 34 35  1  0  0  0
 35 36  1  0  0  0
M  END
> <minimizedAffinity>
-9.77845

> <CNNscore>
0.2131295800

> <CNNaffinity>
7.5117492676

> <CNN_VS>
1.6009759903

> <CNNaffinity_variance>
1.4987102747

$$$$
/media/chris/experiments/cd1a-new-docking/inputs/ligands/7ryo_ligand.pdb


 65 67  0  0  0  0  0  0  0  0999 V2000
  -40.3193   57.6722   62.4062 C   0  0  0  0  0  0  0  0  0  0  0  0
  -39.4088   57.8770   63.5204 N   0  0  0  0  0  0  0  0  0  0  0  0
  -39.7919   60.0901   63.6164 O   0  0  0  0  0  0  0  0  0  0  0  0
  -39.2224   59.0941   64.0370 C   0  0  0  0  0  0  0  0  0  0  0  0
  -38.9232   57.1087   63.8989 H   0  0  0  0  0  0  0  0  0  0  0  0
  -37.0180   59.9386   64.7438 N   0  0  0  0  0  0  0  0  0  0  0  0
  -37.6769   61.0417   66.5964 O   0  0  0  0  0  0  0  0  0  0  0  0
  -38.2243   59.2278   65.1989 C   0  0  0  0  0  0  0  0  0  0  0  0
  -37.8295   57.8326   65.6737 C   0  0  0  0  0  0  0  0  0  0  0  0
  -38.7474   60.0937   66.3545 C   0  0  0  0  0  0  0  0  0  0  0  0
  -36.8149   60.8906   65.5573 C   0  0  0  0  0  0  0  0  0  0  0  0
  -36.0528   62.2209   63.1214 O   0  0  0  0  0  0  0  0  0  0  0  0
  -35.7197   61.8614   65.4951 C   0  0  0  0  0  0  0  0  0  0  0  0
  -35.0919   62.2853   66.6672 C   0  0  0  0  0  0  0  0  0  0  0  0
  -34.2326   63.3704   66.6506 C   0  0  0  0  0  0  0  0  0  0  0  0
  -33.9854   64.0468   65.4758 C   0  0  0  0  0  0  0  0  0  0  0  0
  -34.5985   63.6497   64.3014 C   0  0  0  0  0  0  0  0  0  0  0  0
  -35.4669   62.5627   64.2983 C   0  0  0  0  0  0  0  0  0  0  0  0
  -36.6428   61.4937   63.0856 H   0  0  0  0  0  0  0  0  0  0  0  0
  -40.5993   59.2433   60.5912 O   0  0  0  0  0  0  0  0  0  0  0  0
  -39.8922   58.4808   61.1904 C   0  0  0  0  0  0  0  0  0  0  0  0
  -38.6166   58.2070   60.8661 O   0  0  0  0  0  0  0  0  0  0  0  0
  -37.7018   59.3318   60.6476 C   0  0  0  0  0  0  0  0  0  0  0  0
  -37.2895   59.3243   59.1972 C   0  0  0  0  0  0  0  0  0  0  0  0
  -36.5312   59.0923   61.5812 C   0  0  0  0  0  0  0  0  0  0  0  0
  -34.9814   57.2804   61.9777 N   0  0  0  0  0  0  0  0  0  0  0  0
  -37.1795   56.8089   61.8915 O   0  0  0  0  0  0  0  0  0  0  0  0
  -36.2636   57.6241   61.8270 C   0  0  0  0  0  0  0  0  0  0  0  0
  -34.7551   56.3356   62.1370 H   0  0  0  0  0  0  0  0  0  0  0  0
  -31.6429   58.3007   61.0251 N   0  0  0  0  0  0  0  0  0  0  0  0
  -32.5358   56.3256   61.6022 O   0  0  0  0  0  0  0  0  0  0  0  0
  -33.9116   58.2608   61.9133 C   0  0  0  0  0  0  0  0  0  0  0  0
  -33.7116   58.9130   63.2860 C   0  0  0  0  0  0  0  0  0  0  0  0
  -32.9560   60.2364   63.2294 C   0  0  0  0  0  0  0  0  0  0  0  0
  -31.5415   60.1565   62.6907 C   0  0  0  0  0  0  0  0  0  0  0  0
  -31.4535   59.7313   61.2400 C   0  0  0  0  0  0  0  0  0  0  0  0
  -32.6355   57.5449   61.4998 C   0  0  0  0  0  0  0  0  0  0  0  0
  -30.9679   57.8449   60.4720 H   0  0  0  0  0  0  0  0  0  0  0  0
  -41.7608   57.9979   62.7999 C   0  0  0  0  0  0  0  0  0  0  0  0
  -42.4919   56.7902   63.3765 C   0  0  0  0  0  0  0  0  0  0  0  0
  -42.0891   56.4745   64.8050 C   0  0  0  0  0  0  0  0  0  0  0  0
  -42.3174   57.5997   65.7905 C   0  0  0  0  0  0  0  0  0  0  0  0
  -43.3004   57.2233   66.7940 N   0  0  0  0  0  0  0  0  0  0  0  0
  -45.4485   57.1057   67.4765 O   0  0  0  0  0  0  0  0  0  0  0  0
  -44.6115   57.4160   66.6131 C   0  0  0  0  0  0  0  0  0  0  0  0
  -42.9906   56.8135   67.6337 H   0  0  0  0  0  0  0  0  0  0  0  0
  -46.1691   58.4242   64.9605 C   0  0  0  0  0  0  0  0  0  0  0  0
  -44.9731   57.9488   65.2805 C   0  0  0  0  0  0  0  0  0  0  0  0
  -47.3735   58.5443   65.8410 C   0  0  0  0  0  0  0  0  0  0  0  0
  -48.3386   57.3826   65.6384 C   0  0  0  0  0  0  0  0  0  0  0  0
  -49.7549   57.6734   66.1039 C   0  0  0  0  0  0  0  0  0  0  0  0
  -50.0283   59.1504   66.3339 C   0  0  0  0  0  0  0  0  0  0  0  0
  -51.1568   59.7165   65.4926 C   0  0  0  0  0  0  0  0  0  0  0  0
  -50.7761   60.9820   64.7421 C   0  0  0  0  0  0  0  0  0  0  0  0
  -49.2985   61.3120   64.8218 C   0  0  0  0  0  0  0  0  0  0  0  0
  -48.5045   60.7721   63.6492 C   0  0  0  0  0  0  0  0  0  0  0  0
  -49.3519   60.1842   62.5372 C   0  0  0  0  0  0  0  0  0  0  0  0
  -49.1805   58.6841   62.4011 C   0  0  0  0  0  0  0  0  0  0  0  0
  -50.4429   57.9766   61.9366 C   0  0  0  0  0  0  0  0  0  0  0  0
  -50.2514   57.1087   60.7049 C   0  0  0  0  0  0  0  0  0  0  0  0
  -50.0448   57.8903   59.4166 C   0  0  0  0  0  0  0  0  0  0  0  0
  -48.8534   57.4200   58.5936 C   0  0  0  0  0  0  0  0  0  0  0  0
  -47.5722   58.1809   58.8948 C   0  0  0  0  0  0  0  0  0  0  0  0
  -46.8016   57.0243   56.7866 C   0  0  0  0  0  0  0  0  0  0  0  0
  -46.5230   58.1026   57.8007 C   0  0  0  0  0  0  0  0  0  0  0  0
 43 45  1  0  0  0
 43 42  1  0  0  0
 43 46  1  0  0  0
 64 65  1  0  0  0
 44 45  2  0  0  0
 65 63  1  0  0  0
  2  1  1  0  0  0
  2  4  1  0  0  0
  2  5  1  0  0  0
  3  4  2  0  0  0
 63 62  1  0  0  0
  6  8  1  0  0  0
  6 11  2  0  0  0
  7 10  1  0  0  0
  7 11  1  0  0  0
 62 61  1  0  0  0
 26 28  1  0  0  0
 26 32  1  0  0  0
 26 29  1  0  0  0
 12 18  1  0  0  0
 12 19  1  0  0  0
 61 60  1  0  0  0
 30 36  1  0  0  0
 30 37  1  0  0  0
 30 38  1  0  0  0
 20 21  2  0  0  0
 60 59  1  0  0  0
 22 21  1  0  0  0
 22 23  1  0  0  0
 59 58  1  0  0  0
 27 28  2  0  0  0
 58 57  1  0  0  0
 31 37  2  0  0  0
 57 56  1  0  0  0
 56 55  1  0  0  0
 55 54  1  0  0  0
 54 53  1  0  0  0
 53 52  1  0  0  0
 52 51  1  0  0  0
 51 50  1  0  0  0
 50 49  1  0  0  0
 49 47  1  0  0  0
 47 48  2  0  0  0
 48 45  1  0  0  0
 42 41  1  0  0  0
 41 40  1  0  0  0
 40 39  1  0  0  0
 39  1  1  0  0  0
  1 21  1  0  0  0
  8  4  1  0  0  0
  8  9  1  0  0  0
  8 10  1  0  0  0
 11 13  1  0  0  0
 13 14  2  0  0  0
 13 18  1  0  0  0
 14 15  1  0  0  0
 15 16  2  0  0  0
 16 17  1  0  0  0
 17 18  2  0  0  0
 23 24  1  0  0  0
 23 25  1  0  0  0
 25 28  1  0  0  0
 32 33  1  0  0  0
 32 37  1  0  0  0
 33 34  1  0  0  0
 34 35  1  0  0  0
 35 36  1  0  0  0
M  END
> <minimizedAffinity>
-10.14823

> <CNNscore>
0.1877052933

> <CNNaffinity>
7.4634246826

> <CNN_VS>
1.4009243250

> <CNNaffinity_variance>
1.8372888565

$$$$
/media/chris/experiments/cd1a-new-docking/inputs/ligands/7ryo_ligand.pdb


 65 67  0  0  0  0  0  0  0  0999 V2000
  -38.1632   59.4071   64.4345 C   0  0  0  0  0  0  0  0  0  0  0  0
  -36.7189   59.5352   64.5339 N   0  0  0  0  0  0  0  0  0  0  0  0
  -36.7610   61.7777   64.3820 O   0  0  0  0  0  0  0  0  0  0  0  0
  -36.1342   60.7351   64.4979 C   0  0  0  0  0  0  0  0  0  0  0  0
  -36.1646   58.7271   64.6288 H   0  0  0  0  0  0  0  0  0  0  0  0
  -34.0354   59.4872   64.1672 N   0  0  0  0  0  0  0  0  0  0  0  0
  -32.9405   61.0239   62.9331 O   0  0  0  0  0  0  0  0  0  0  0  0
  -34.5999   60.7810   64.5854 C   0  0  0  0  0  0  0  0  0  0  0  0
  -34.1959   61.0555   66.0309 C   0  0  0  0  0  0  0  0  0  0  0  0
  -33.9646   61.7897   63.6172 C   0  0  0  0  0  0  0  0  0  0  0  0
  -33.1609   59.7291   63.2806 C   0  0  0  0  0  0  0  0  0  0  0  0
  -31.2869   58.0223   64.6439 O   0  0  0  0  0  0  0  0  0  0  0  0
  -32.3414   58.7363   62.5816 C   0  0  0  0  0  0  0  0  0  0  0  0
  -32.5510   58.4847   61.2251 C   0  0  0  0  0  0  0  0  0  0  0  0
  -31.9614   57.3913   60.6144 C   0  0  0  0  0  0  0  0  0  0  0  0
  -31.1590   56.5364   61.3383 C   0  0  0  0  0  0  0  0  0  0  0  0
  -30.9389   56.7609   62.6851 C   0  0  0  0  0  0  0  0  0  0  0  0
  -31.5244   57.8533   63.3171 C   0  0  0  0  0  0  0  0  0  0  0  0
  -31.6665   58.7481   65.0991 H   0  0  0  0  0  0  0  0  0  0  0  0
  -38.2629   60.0073   66.7735 O   0  0  0  0  0  0  0  0  0  0  0  0
  -38.8309   59.6428   65.7811 C   0  0  0  0  0  0  0  0  0  0  0  0
  -40.1445   59.3656   65.7113 O   0  0  0  0  0  0  0  0  0  0  0  0
  -41.0926   60.3926   66.1541 C   0  0  0  0  0  0  0  0  0  0  0  0
  -41.8348   59.8581   67.3530 C   0  0  0  0  0  0  0  0  0  0  0  0
  -42.0087   60.6387   64.9711 C   0  0  0  0  0  0  0  0  0  0  0  0
  -42.5639   58.6065   63.7863 N   0  0  0  0  0  0  0  0  0  0  0  0
  -40.8939   59.8869   62.9905 O   0  0  0  0  0  0  0  0  0  0  0  0
  -41.7670   59.6780   63.8282 C   0  0  0  0  0  0  0  0  0  0  0  0
  -42.4443   57.9495   63.0628 H   0  0  0  0  0  0  0  0  0  0  0  0
  -43.8635   56.9401   66.7236 N   0  0  0  0  0  0  0  0  0  0  0  0
  -42.4603   56.3017   65.0943 O   0  0  0  0  0  0  0  0  0  0  0  0
  -43.6017   58.3829   64.7775 C   0  0  0  0  0  0  0  0  0  0  0  0
  -44.9603   58.2123   64.0884 C   0  0  0  0  0  0  0  0  0  0  0  0
  -46.1489   58.4247   65.0198 C   0  0  0  0  0  0  0  0  0  0  0  0
  -46.2443   57.4598   66.1848 C   0  0  0  0  0  0  0  0  0  0  0  0
  -45.1021   57.5663   67.1734 C   0  0  0  0  0  0  0  0  0  0  0  0
  -43.2592   57.1167   65.5465 C   0  0  0  0  0  0  0  0  0  0  0  0
  -43.4276   56.3224   67.3544 H   0  0  0  0  0  0  0  0  0  0  0  0
  -38.5620   58.0480   63.8576 C   0  0  0  0  0  0  0  0  0  0  0  0
  -37.3520   57.1865   63.5125 C   0  0  0  0  0  0  0  0  0  0  0  0
  -37.1971   56.9439   62.0226 C   0  0  0  0  0  0  0  0  0  0  0  0
  -36.3096   57.9394   61.3081 C   0  0  0  0  0  0  0  0  0  0  0  0
  -36.6730   59.3046   61.6534 N   0  0  0  0  0  0  0  0  0  0  0  0
  -37.6016   61.2818   61.0858 O   0  0  0  0  0  0  0  0  0  0  0  0
  -37.3035   60.1121   60.7937 C   0  0  0  0  0  0  0  0  0  0  0  0
  -36.4475   59.6453   62.5490 H   0  0  0  0  0  0  0  0  0  0  0  0
  -38.9253   59.2310   59.1303 C   0  0  0  0  0  0  0  0  0  0  0  0
  -37.6786   59.4698   59.5141 C   0  0  0  0  0  0  0  0  0  0  0  0
  -40.1888   59.5590   59.8626 C   0  0  0  0  0  0  0  0  0  0  0  0
  -41.2030   58.4251   59.7738 C   0  0  0  0  0  0  0  0  0  0  0  0
  -41.5805   58.0499   58.3512 C   0  0  0  0  0  0  0  0  0  0  0  0
  -42.0704   59.2251   57.5218 C   0  0  0  0  0  0  0  0  0  0  0  0
  -43.3502   58.9577   56.7520 C   0  0  0  0  0  0  0  0  0  0  0  0
  -44.3622   58.1317   57.5286 C   0  0  0  0  0  0  0  0  0  0  0  0
  -45.7935   58.3472   57.0775 C   0  0  0  0  0  0  0  0  0  0  0  0
  -46.7517   57.3068   57.6221 C   0  0  0  0  0  0  0  0  0  0  0  0
  -46.9827   57.3912   59.1186 C   0  0  0  0  0  0  0  0  0  0  0  0
  -48.1834   58.2438   59.4785 C   0  0  0  0  0  0  0  0  0  0  0  0
  -49.4962   57.4793   59.4329 C   0  0  0  0  0  0  0  0  0  0  0  0
  -50.3901   57.7067   60.6396 C   0  0  0  0  0  0  0  0  0  0  0  0
  -50.0227   58.9290   61.4670 C   0  0  0  0  0  0  0  0  0  0  0  0
  -50.0733   58.6946   62.9705 C   0  0  0  0  0  0  0  0  0  0  0  0
  -50.8988   59.7304   63.7165 C   0  0  0  0  0  0  0  0  0  0  0  0
  -49.5056   59.7783   65.8220 C   0  0  0  0  0  0  0  0  0  0  0  0
  -50.8755   59.5830   65.2271 C   0  0  0  0  0  0  0  0  0  0  0  0
 43 45  1  0  0  0
 43 42  1  0  0  0
 43 46  1  0  0  0
 64 65  1  0  0  0
 44 45  2  0  0  0
 65 63  1  0  0  0
  2  1  1  0  0  0
  2  4  1  0  0  0
  2  5  1  0  0  0
  3  4  2  0  0  0
 63 62  1  0  0  0
  6  8  1  0  0  0
  6 11  2  0  0  0
  7 10  1  0  0  0
  7 11  1  0  0  0
 62 61  1  0  0  0
 26 28  1  0  0  0
 26 32  1  0  0  0
 26 29  1  0  0  0
 12 18  1  0  0  0
 12 19  1  0  0  0
 61 60  1  0  0  0
 30 36  1  0  0  0
 30 37  1  0  0  0
 30 38  1  0  0  0
 20 21  2  0  0  0
 60 59  1  0  0  0
 22 21  1  0  0  0
 22 23  1  0  0  0
 59 58  1  0  0  0
 27 28  2  0  0  0
 58 57  1  0  0  0
 31 37  2  0  0  0
 57 56  1  0  0  0
 56 55  1  0  0  0
 55 54  1  0  0  0
 54 53  1  0  0  0
 53 52  1  0  0  0
 52 51  1  0  0  0
 51 50  1  0  0  0
 50 49  1  0  0  0
 49 47  1  0  0  0
 47 48  2  0  0  0
 48 45  1  0  0  0
 42 41  1  0  0  0
 41 40  1  0  0  0
 40 39  1  0  0  0
 39  1  1  0  0  0
  1 21  1  0  0  0
  8  4  1  0  0  0
  8  9  1  0  0  0
  8 10  1  0  0  0
 11 13  1  0  0  0
 13 14  2  0  0  0
 13 18  1  0  0  0
 14 15  1  0  0  0
 15 16  2  0  0  0
 16 17  1  0  0  0
 17 18  2  0  0  0
 23 24  1  0  0  0
 23 25  1  0  0  0
 25 28  1  0  0  0
 32 33  1  0  0  0
 32 37  1  0  0  0
 33 34  1  0  0  0
 34 35  1  0  0  0
 35 36  1  0  0  0
M  END
> <minimizedAffinity>
-7.47899

> <CNNscore>
0.1728295088

> <CNNaffinity>
7.7005624771

> <CNN_VS>
1.3308844566

> <CNNaffinity_variance>
1.0983309746

$$$$
/media/chris/experiments/cd1a-new-docking/inputs/ligands/7ryo_ligand.pdb


 65 67  0  0  0  0  0  0  0  0999 V2000
  -40.2097   59.3799   63.7991 C   0  0  0  0  0  0  0  0  0  0  0  0
  -38.8889   59.5590   64.3784 N   0  0  0  0  0  0  0  0  0  0  0  0
  -39.4842   61.3938   65.5332 O   0  0  0  0  0  0  0  0  0  0  0  0
  -38.6387   60.5720   65.2117 C   0  0  0  0  0  0  0  0  0  0  0  0
  -38.1694   58.9257   64.1536 H   0  0  0  0  0  0  0  0  0  0  0  0
  -36.4360   61.6397   64.9290 N   0  0  0  0  0  0  0  0  0  0  0  0
  -36.1679   62.3840   67.0402 O   0  0  0  0  0  0  0  0  0  0  0  0
  -37.2090   60.7034   65.7618 C   0  0  0  0  0  0  0  0  0  0  0  0
  -36.5376   59.3339   65.7238 C   0  0  0  0  0  0  0  0  0  0  0  0
  -37.1511   61.3252   67.1649 C   0  0  0  0  0  0  0  0  0  0  0  0
  -35.9230   62.4988   65.7089 C   0  0  0  0  0  0  0  0  0  0  0  0
  -33.6384   63.3306   67.2491 O   0  0  0  0  0  0  0  0  0  0  0  0
  -35.0701   63.6227   65.3152 C   0  0  0  0  0  0  0  0  0  0  0  0
  -35.2597   64.2477   64.0820 C   0  0  0  0  0  0  0  0  0  0  0  0
  -34.3192   65.1387   63.5943 C   0  0  0  0  0  0  0  0  0  0  0  0
  -33.1826   65.4206   64.3207 C   0  0  0  0  0  0  0  0  0  0  0  0
  -32.9687   64.8112   65.5436 C   0  0  0  0  0  0  0  0  0  0  0  0
  -33.9014   63.9113   66.0495 C   0  0  0  0  0  0  0  0  0  0  0  0
  -34.2463   62.7200   67.6174 H   0  0  0  0  0  0  0  0  0  0  0  0
  -40.9738   58.8028   66.0182 O   0  0  0  0  0  0  0  0  0  0  0  0
  -41.2265   58.9831   64.8589 C   0  0  0  0  0  0  0  0  0  0  0  0
  -42.4466   58.8412   64.3124 O   0  0  0  0  0  0  0  0  0  0  0  0
  -42.9602   57.4829   64.1102 C   0  0  0  0  0  0  0  0  0  0  0  0
  -43.1434   57.2680   62.6290 C   0  0  0  0  0  0  0  0  0  0  0  0
  -44.2724   57.4263   64.8680 C   0  0  0  0  0  0  0  0  0  0  0  0
  -45.1602   57.3064   67.1128 N   0  0  0  0  0  0  0  0  0  0  0  0
  -43.0277   56.6762   66.7703 O   0  0  0  0  0  0  0  0  0  0  0  0
  -44.0928   57.1049   66.3350 C   0  0  0  0  0  0  0  0  0  0  0  0
  -45.0929   57.1148   68.0762 H   0  0  0  0  0  0  0  0  0  0  0  0
  -48.0488   59.4816   67.2472 N   0  0  0  0  0  0  0  0  0  0  0  0
  -46.7566   58.5507   68.8266 O   0  0  0  0  0  0  0  0  0  0  0  0
  -46.4171   57.8002   66.5780 C   0  0  0  0  0  0  0  0  0  0  0  0
  -47.3279   56.6255   66.2037 C   0  0  0  0  0  0  0  0  0  0  0  0
  -48.4475   57.0033   65.2398 C   0  0  0  0  0  0  0  0  0  0  0  0
  -49.4312   58.0346   65.7559 C   0  0  0  0  0  0  0  0  0  0  0  0
  -48.8230   59.3973   66.0134 C   0  0  0  0  0  0  0  0  0  0  0  0
  -47.0901   58.6441   67.6489 C   0  0  0  0  0  0  0  0  0  0  0  0
  -48.2552   60.2351   67.8463 H   0  0  0  0  0  0  0  0  0  0  0  0
  -40.1827   58.3606   62.6593 C   0  0  0  0  0  0  0  0  0  0  0  0
  -39.2320   57.2017   62.9395 C   0  0  0  0  0  0  0  0  0  0  0  0
  -38.3258   56.8758   61.7667 C   0  0  0  0  0  0  0  0  0  0  0  0
  -36.9727   57.5518   61.8054 C   0  0  0  0  0  0  0  0  0  0  0  0
  -37.1054   58.9686   62.1052 N   0  0  0  0  0  0  0  0  0  0  0  0
  -37.4310   61.0905   61.4084 O   0  0  0  0  0  0  0  0  0  0  0  0
  -37.3307   59.8795   61.1521 C   0  0  0  0  0  0  0  0  0  0  0  0
  -37.0268   59.2669   63.0400 H   0  0  0  0  0  0  0  0  0  0  0  0
  -38.6788   59.3164   59.1423 C   0  0  0  0  0  0  0  0  0  0  0  0
  -37.5266   59.3130   59.7989 C   0  0  0  0  0  0  0  0  0  0  0  0
  -39.9879   59.8866   59.5910 C   0  0  0  0  0  0  0  0  0  0  0  0
  -41.0664   58.8144   59.6887 C   0  0  0  0  0  0  0  0  0  0  0  0
  -41.5040   58.2602   58.3439 C   0  0  0  0  0  0  0  0  0  0  0  0
  -41.9497   59.3300   57.3610 C   0  0  0  0  0  0  0  0  0  0  0  0
  -43.2673   59.0347   56.6694 C   0  0  0  0  0  0  0  0  0  0  0  0
  -44.1939   58.1486   57.4854 C   0  0  0  0  0  0  0  0  0  0  0  0
  -45.6584   58.3145   57.1303 C   0  0  0  0  0  0  0  0  0  0  0  0
  -46.3638   56.9958   56.8841 C   0  0  0  0  0  0  0  0  0  0  0  0
  -46.7856   56.2668   58.1453 C   0  0  0  0  0  0  0  0  0  0  0  0
  -47.6795   57.1069   59.0360 C   0  0  0  0  0  0  0  0  0  0  0  0
  -48.9610   57.5515   58.3503 C   0  0  0  0  0  0  0  0  0  0  0  0
  -50.0739   57.9432   59.3067 C   0  0  0  0  0  0  0  0  0  0  0  0
  -50.0155   57.2400   60.6540 C   0  0  0  0  0  0  0  0  0  0  0  0
  -51.1773   57.5785   61.5779 C   0  0  0  0  0  0  0  0  0  0  0  0
  -50.8234   58.6028   62.6440 C   0  0  0  0  0  0  0  0  0  0  0  0
  -49.6488   60.4214   61.3442 C   0  0  0  0  0  0  0  0  0  0  0  0
  -49.5248   59.3475   62.3932 C   0  0  0  0  0  0  0  0  0  0  0  0
 43 45  1  0  0  0
 43 42  1  0  0  0
 43 46  1  0  0  0
 64 65  1  0  0  0
 44 45  2  0  0  0
 65 63  1  0  0  0
  2  1  1  0  0  0
  2  4  1  0  0  0
  2  5  1  0  0  0
  3  4  2  0  0  0
 63 62  1  0  0  0
  6  8  1  0  0  0
  6 11  2  0  0  0
  7 10  1  0  0  0
  7 11  1  0  0  0
 62 61  1  0  0  0
 26 28  1  0  0  0
 26 32  1  0  0  0
 26 29  1  0  0  0
 12 18  1  0  0  0
 12 19  1  0  0  0
 61 60  1  0  0  0
 30 36  1  0  0  0
 30 37  1  0  0  0
 30 38  1  0  0  0
 20 21  2  0  0  0
 60 59  1  0  0  0
 22 21  1  0  0  0
 22 23  1  0  0  0
 59 58  1  0  0  0
 27 28  2  0  0  0
 58 57  1  0  0  0
 31 37  2  0  0  0
 57 56  1  0  0  0
 56 55  1  0  0  0
 55 54  1  0  0  0
 54 53  1  0  0  0
 53 52  1  0  0  0
 52 51  1  0  0  0
 51 50  1  0  0  0
 50 49  1  0  0  0
 49 47  1  0  0  0
 47 48  2  0  0  0
 48 45  1  0  0  0
 42 41  1  0  0  0
 41 40  1  0  0  0
 40 39  1  0  0  0
 39  1  1  0  0  0
  1 21  1  0  0  0
  8  4  1  0  0  0
  8  9  1  0  0  0
  8 10  1  0  0  0
 11 13  1  0  0  0
 13 14  2  0  0  0
 13 18  1  0  0  0
 14 15  1  0  0  0
 15 16  2  0  0  0
 16 17  1  0  0  0
 17 18  2  0  0  0
 23 24  1  0  0  0
 23 25  1  0  0  0
 25 28  1  0  0  0
 32 33  1  0  0  0
 32 37  1  0  0  0
 33 34  1  0  0  0
 34 35  1  0  0  0
 35 36  1  0  0  0
M  END
> <minimizedAffinity>
-7.92209

> <CNNscore>
0.1710975170

> <CNNaffinity>
7.5903310776

> <CNN_VS>
1.2986867428

> <CNNaffinity_variance>
1.1820411682

$$$$
/media/chris/experiments/cd1a-new-docking/inputs/ligands/7ryo_ligand.pdb


 65 67  0  0  0  0  0  0  0  0999 V2000
  -38.8671   59.5578   64.6359 C   0  0  0  0  0  0  0  0  0  0  0  0
  -37.6758   60.0790   65.2852 N   0  0  0  0  0  0  0  0  0  0  0  0
  -36.9659   61.1555   63.4437 O   0  0  0  0  0  0  0  0  0  0  0  0
  -36.8130   60.8479   64.6164 C   0  0  0  0  0  0  0  0  0  0  0  0
  -37.5028   59.8624   66.2298 H   0  0  0  0  0  0  0  0  0  0  0  0
  -34.8220   62.2977   64.5372 N   0  0  0  0  0  0  0  0  0  0  0  0
  -35.1117   63.3471   66.5115 O   0  0  0  0  0  0  0  0  0  0  0  0
  -35.5660   61.3386   65.3704 C   0  0  0  0  0  0  0  0  0  0  0  0
  -34.6689   60.1420   65.6722 C   0  0  0  0  0  0  0  0  0  0  0  0
  -35.8969   62.1348   66.6413 C   0  0  0  0  0  0  0  0  0  0  0  0
  -34.6332   63.3368   65.2400 C   0  0  0  0  0  0  0  0  0  0  0  0
  -32.5571   64.5622   66.8123 O   0  0  0  0  0  0  0  0  0  0  0  0
  -33.9320   64.5510   64.8162 C   0  0  0  0  0  0  0  0  0  0  0  0
  -34.1554   65.0813   63.5449 C   0  0  0  0  0  0  0  0  0  0  0  0
  -33.3305   66.0733   63.0429 C   0  0  0  0  0  0  0  0  0  0  0  0
  -32.2774   66.5506   63.7925 C   0  0  0  0  0  0  0  0  0  0  0  0
  -32.0317   66.0386   65.0535 C   0  0  0  0  0  0  0  0  0  0  0  0
  -32.8484   65.0398   65.5744 C   0  0  0  0  0  0  0  0  0  0  0  0
  -33.0877   63.8894   67.1916 H   0  0  0  0  0  0  0  0  0  0  0  0
  -40.2523   60.9424   66.0518 O   0  0  0  0  0  0  0  0  0  0  0  0
  -40.1243   59.9417   65.4018 C   0  0  0  0  0  0  0  0  0  0  0  0
  -41.0671   58.9929   65.2669 O   0  0  0  0  0  0  0  0  0  0  0  0
  -42.3803   59.2315   65.8737 C   0  0  0  0  0  0  0  0  0  0  0  0
  -42.3834   58.6026   67.2442 C   0  0  0  0  0  0  0  0  0  0  0  0
  -43.3845   58.5844   64.9398 C   0  0  0  0  0  0  0  0  0  0  0  0
  -44.5874   56.5571   65.4737 N   0  0  0  0  0  0  0  0  0  0  0  0
  -42.4451   56.3864   64.8080 O   0  0  0  0  0  0  0  0  0  0  0  0
  -43.4253   57.0780   65.0700 C   0  0  0  0  0  0  0  0  0  0  0  0
  -44.6638   55.5810   65.5768 H   0  0  0  0  0  0  0  0  0  0  0  0
  -46.5138   58.6788   67.6830 N   0  0  0  0  0  0  0  0  0  0  0  0
  -45.1381   56.9434   68.0391 O   0  0  0  0  0  0  0  0  0  0  0  0
  -45.7415   57.3896   65.7650 C   0  0  0  0  0  0  0  0  0  0  0  0
  -47.0286   56.6716   65.3438 C   0  0  0  0  0  0  0  0  0  0  0  0
  -48.2240   57.6045   65.1827 C   0  0  0  0  0  0  0  0  0  0  0  0
  -48.6500   58.3403   66.4376 C   0  0  0  0  0  0  0  0  0  0  0  0
  -47.6165   59.3120   66.9676 C   0  0  0  0  0  0  0  0  0  0  0  0
  -45.7723   57.6517   67.2624 C   0  0  0  0  0  0  0  0  0  0  0  0
  -46.2936   59.0477   68.5688 H   0  0  0  0  0  0  0  0  0  0  0  0
  -38.7812   58.0419   64.4519 C   0  0  0  0  0  0  0  0  0  0  0  0
  -39.0245   57.6180   63.0075 C   0  0  0  0  0  0  0  0  0  0  0  0
  -38.0501   58.2462   62.0285 C   0  0  0  0  0  0  0  0  0  0  0  0
  -38.5289   58.2820   60.5937 C   0  0  0  0  0  0  0  0  0  0  0  0
  -39.0093   59.6073   60.2366 N   0  0  0  0  0  0  0  0  0  0  0  0
  -40.5997   60.9316   59.3362 O   0  0  0  0  0  0  0  0  0  0  0  0
  -40.1967   59.8002   59.6521 C   0  0  0  0  0  0  0  0  0  0  0  0
  -38.4419   60.3879   60.4314 H   0  0  0  0  0  0  0  0  0  0  0  0
  -41.7512   58.2950   58.4308 C   0  0  0  0  0  0  0  0  0  0  0  0
  -41.0065   58.5717   59.4927 C   0  0  0  0  0  0  0  0  0  0  0  0
  -41.9229   59.1174   57.1920 C   0  0  0  0  0  0  0  0  0  0  0  0
  -43.3653   59.1029   56.7007 C   0  0  0  0  0  0  0  0  0  0  0  0
  -44.2040   57.9838   57.2933 C   0  0  0  0  0  0  0  0  0  0  0  0
  -45.6665   58.3524   57.4785 C   0  0  0  0  0  0  0  0  0  0  0  0
  -46.6114   57.6723   56.5056 C   0  0  0  0  0  0  0  0  0  0  0  0
  -47.1233   56.3289   56.9981 C   0  0  0  0  0  0  0  0  0  0  0  0
  -46.8901   56.0976   58.4782 C   0  0  0  0  0  0  0  0  0  0  0  0
  -48.1328   56.3174   59.3175 C   0  0  0  0  0  0  0  0  0  0  0  0
  -48.5187   57.7733   59.4949 C   0  0  0  0  0  0  0  0  0  0  0  0
  -50.0006   57.9588   59.7555 C   0  0  0  0  0  0  0  0  0  0  0  0
  -50.5240   57.0865   60.8847 C   0  0  0  0  0  0  0  0  0  0  0  0
  -50.2460   57.6349   62.2735 C   0  0  0  0  0  0  0  0  0  0  0  0
  -51.1770   58.7602   62.6981 C   0  0  0  0  0  0  0  0  0  0  0  0
  -50.5143   60.1305   62.7312 C   0  0  0  0  0  0  0  0  0  0  0  0
  -49.0263   60.0752   63.0377 C   0  0  0  0  0  0  0  0  0  0  0  0
  -49.6925   61.5716   64.9596 C   0  0  0  0  0  0  0  0  0  0  0  0
  -48.5672   61.0562   64.1012 C   0  0  0  0  0  0  0  0  0  0  0  0
 43 45  1  0  0  0
 43 42  1  0  0  0
 43 46  1  0  0  0
 64 65  1  0  0  0
 44 45  2  0  0  0
 65 63  1  0  0  0
  2  1  1  0  0  0
  2  4  1  0  0  0
  2  5  1  0  0  0
  3  4  2  0  0  0
 63 62  1  0  0  0
  6  8  1  0  0  0
  6 11  2  0  0  0
  7 10  1  0  0  0
  7 11  1  0  0  0
 62 61  1  0  0  0
 26 28  1  0  0  0
 26 32  1  0  0  0
 26 29  1  0  0  0
 12 18  1  0  0  0
 12 19  1  0  0  0
 61 60  1  0  0  0
 30 36  1  0  0  0
 30 37  1  0  0  0
 30 38  1  0  0  0
 20 21  2  0  0  0
 60 59  1  0  0  0
 22 21  1  0  0  0
 22 23  1  0  0  0
 59 58  1  0  0  0
 27 28  2  0  0  0
 58 57  1  0  0  0
 31 37  2  0  0  0
 57 56  1  0  0  0
 56 55  1  0  0  0
 55 54  1  0  0  0
 54 53  1  0  0  0
 53 52  1  0  0  0
 52 51  1  0  0  0
 51 50  1  0  0  0
 50 49  1  0  0  0
 49 47  1  0  0  0
 47 48  2  0  0  0
 48 45  1  0  0  0
 42 41  1  0  0  0
 41 40  1  0  0  0
 40 39  1  0  0  0
 39  1  1  0  0  0
  1 21  1  0  0  0
  8  4  1  0  0  0
  8  9  1  0  0  0
  8 10  1  0  0  0
 11 13  1  0  0  0
 13 14  2  0  0  0
 13 18  1  0  0  0
 14 15  1  0  0  0
 15 16  2  0  0  0
 16 17  1  0  0  0
 17 18  2  0  0  0
 23 24  1  0  0  0
 23 25  1  0  0  0
 25 28  1  0  0  0
 32 33  1  0  0  0
 32 37  1  0  0  0
 33 34  1  0  0  0
 34 35  1  0  0  0
 35 36  1  0  0  0
M  END
> <minimizedAffinity>
-8.04721

> <CNNscore>
0.1682782173

> <CNNaffinity>
7.3078069687

> <CNN_VS>
1.2297446728

> <CNNaffinity_variance>
1.5782014132

$$$$
/media/chris/experiments/cd1a-new-docking/inputs/ligands/7ryo_ligand.pdb


 65 67  0  0  0  0  0  0  0  0999 V2000
  -36.5617   58.8922   64.5584 C   0  0  0  0  0  0  0  0  0  0  0  0
  -35.9522   60.0809   65.1310 N   0  0  0  0  0  0  0  0  0  0  0  0
  -35.7191   61.0982   63.1399 O   0  0  0  0  0  0  0  0  0  0  0  0
  -35.5772   61.0997   64.3536 C   0  0  0  0  0  0  0  0  0  0  0  0
  -35.8139   60.1356   66.1042 H   0  0  0  0  0  0  0  0  0  0  0  0
  -33.6549   62.6414   64.3578 N   0  0  0  0  0  0  0  0  0  0  0  0
  -34.8010   64.5816   64.4300 O   0  0  0  0  0  0  0  0  0  0  0  0
  -34.9187   62.3098   65.0364 C   0  0  0  0  0  0  0  0  0  0  0  0
  -34.6237   61.9559   66.4909 C   0  0  0  0  0  0  0  0  0  0  0  0
  -35.7465   63.5984   64.9224 C   0  0  0  0  0  0  0  0  0  0  0  0
  -33.6952   63.8772   64.0741 C   0  0  0  0  0  0  0  0  0  0  0  0
  -33.3476   63.8365   61.2173 O   0  0  0  0  0  0  0  0  0  0  0  0
  -32.6476   64.6421   63.3935 C   0  0  0  0  0  0  0  0  0  0  0  0
  -31.8597   65.5431   64.1111 C   0  0  0  0  0  0  0  0  0  0  0  0
  -31.0411   66.4420   63.4492 C   0  0  0  0  0  0  0  0  0  0  0  0
  -30.9933   66.4590   62.0721 C   0  0  0  0  0  0  0  0  0  0  0  0
  -31.7677   65.5797   61.3376 C   0  0  0  0  0  0  0  0  0  0  0  0
  -32.5982   64.6701   61.9846 C   0  0  0  0  0  0  0  0  0  0  0  0
  -33.9172   63.2124   61.6223 H   0  0  0  0  0  0  0  0  0  0  0  0
  -37.7560   58.1612   66.5282 O   0  0  0  0  0  0  0  0  0  0  0  0
  -37.7750   58.4529   65.3643 C   0  0  0  0  0  0  0  0  0  0  0  0
  -38.8703   58.4162   64.5857 O   0  0  0  0  0  0  0  0  0  0  0  0
  -39.5475   59.6813   64.2844 C   0  0  0  0  0  0  0  0  0  0  0  0
  -40.1991   60.1761   65.5510 C   0  0  0  0  0  0  0  0  0  0  0  0
  -40.5603   59.3544   63.2043 C   0  0  0  0  0  0  0  0  0  0  0  0
  -41.3562   57.0730   63.2659 N   0  0  0  0  0  0  0  0  0  0  0  0
  -39.6448   57.5726   61.8936 O   0  0  0  0  0  0  0  0  0  0  0  0
  -40.4740   57.9209   62.7294 C   0  0  0  0  0  0  0  0  0  0  0  0
  -41.3387   56.1277   62.9914 H   0  0  0  0  0  0  0  0  0  0  0  0
  -42.6882   57.1585   66.6292 N   0  0  0  0  0  0  0  0  0  0  0  0
  -41.5322   55.6198   65.4774 O   0  0  0  0  0  0  0  0  0  0  0  0
  -42.3402   57.5058   64.2427 C   0  0  0  0  0  0  0  0  0  0  0  0
  -43.7557   57.2906   63.6951 C   0  0  0  0  0  0  0  0  0  0  0  0
  -44.8216   58.1057   64.4197 C   0  0  0  0  0  0  0  0  0  0  0  0
  -44.9861   57.7982   65.8948 C   0  0  0  0  0  0  0  0  0  0  0  0
  -43.7717   58.1298   66.7366 C   0  0  0  0  0  0  0  0  0  0  0  0
  -42.1522   56.6789   65.5048 C   0  0  0  0  0  0  0  0  0  0  0  0
  -42.3131   56.8215   67.4748 H   0  0  0  0  0  0  0  0  0  0  0  0
  -35.5481   57.7538   64.4329 C   0  0  0  0  0  0  0  0  0  0  0  0
  -34.9850   57.6312   63.0210 C   0  0  0  0  0  0  0  0  0  0  0  0
  -36.0254   57.2165   61.9972 C   0  0  0  0  0  0  0  0  0  0  0  0
  -36.2910   58.2396   60.9146 C   0  0  0  0  0  0  0  0  0  0  0  0
  -37.0899   59.3429   61.4237 N   0  0  0  0  0  0  0  0  0  0  0  0
  -38.6422   60.9472   61.0907 O   0  0  0  0  0  0  0  0  0  0  0  0
  -37.9700   59.9969   60.6577 C   0  0  0  0  0  0  0  0  0  0  0  0
  -36.9794   59.6174   62.3626 H   0  0  0  0  0  0  0  0  0  0  0  0
  -39.2855   59.1058   58.7475 C   0  0  0  0  0  0  0  0  0  0  0  0
  -38.1251   59.4420   59.2945 C   0  0  0  0  0  0  0  0  0  0  0  0
  -40.6509   59.2226   59.3495 C   0  0  0  0  0  0  0  0  0  0  0  0
  -41.6998   58.4995   58.5135 C   0  0  0  0  0  0  0  0  0  0  0  0
  -41.9180   59.1109   57.1403 C   0  0  0  0  0  0  0  0  0  0  0  0
  -43.3663   59.0751   56.6817 C   0  0  0  0  0  0  0  0  0  0  0  0
  -44.2603   58.1644   57.5021 C   0  0  0  0  0  0  0  0  0  0  0  0
  -45.7422   58.3712   57.2361 C   0  0  0  0  0  0  0  0  0  0  0  0
  -46.5952   57.1703   57.5949 C   0  0  0  0  0  0  0  0  0  0  0  0
  -47.2380   57.2847   58.9627 C   0  0  0  0  0  0  0  0  0  0  0  0
  -48.6866   56.8385   59.0127 C   0  0  0  0  0  0  0  0  0  0  0  0
  -49.6019   57.8872   59.6134 C   0  0  0  0  0  0  0  0  0  0  0  0
  -49.3825   58.0910   61.1035 C   0  0  0  0  0  0  0  0  0  0  0  0
  -50.6533   58.3738   61.8857 C   0  0  0  0  0  0  0  0  0  0  0  0
  -50.4394   59.1934   63.1489 C   0  0  0  0  0  0  0  0  0  0  0  0
  -49.2781   60.1739   63.0593 C   0  0  0  0  0  0  0  0  0  0  0  0
  -48.4839   60.2901   64.3503 C   0  0  0  0  0  0  0  0  0  0  0  0
  -48.3653   59.1832   66.6168 C   0  0  0  0  0  0  0  0  0  0  0  0
  -48.3474   58.9908   65.1230 C   0  0  0  0  0  0  0  0  0  0  0  0
 43 45  1  0  0  0
 43 42  1  0  0  0
 43 46  1  0  0  0
 64 65  1  0  0  0
 44 45  2  0  0  0
 65 63  1  0  0  0
  2  1  1  0  0  0
  2  4  1  0  0  0
  2  5  1  0  0  0
  3  4  2  0  0  0
 63 62  1  0  0  0
  6  8  1  0  0  0
  6 11  2  0  0  0
  7 10  1  0  0  0
  7 11  1  0  0  0
 62 61  1  0  0  0
 26 28  1  0  0  0
 26 32  1  0  0  0
 26 29  1  0  0  0
 12 18  1  0  0  0
 12 19  1  0  0  0
 61 60  1  0  0  0
 30 36  1  0  0  0
 30 37  1  0  0  0
 30 38  1  0  0  0
 20 21  2  0  0  0
 60 59  1  0  0  0
 22 21  1  0  0  0
 22 23  1  0  0  0
 59 58  1  0  0  0
 27 28  2  0  0  0
 58 57  1  0  0  0
 31 37  2  0  0  0
 57 56  1  0  0  0
 56 55  1  0  0  0
 55 54  1  0  0  0
 54 53  1  0  0  0
 53 52  1  0  0  0
 52 51  1  0  0  0
 51 50  1  0  0  0
 50 49  1  0  0  0
 49 47  1  0  0  0
 47 48  2  0  0  0
 48 45  1  0  0  0
 42 41  1  0  0  0
 41 40  1  0  0  0
 40 39  1  0  0  0
 39  1  1  0  0  0
  1 21  1  0  0  0
  8  4  1  0  0  0
  8  9  1  0  0  0
  8 10  1  0  0  0
 11 13  1  0  0  0
 13 14  2  0  0  0
 13 18  1  0  0  0
 14 15  1  0  0  0
 15 16  2  0  0  0
 16 17  1  0  0  0
 17 18  2  0  0  0
 23 24  1  0  0  0
 23 25  1  0  0  0
 25 28  1  0  0  0
 32 33  1  0  0  0
 32 37  1  0  0  0
 33 34  1  0  0  0
 34 35  1  0  0  0
 35 36  1  0  0  0
M  END
> <minimizedAffinity>
-7.72220

> <CNNscore>
0.1590308249

> <CNNaffinity>
7.3831453323

> <CNN_VS>
1.1741477251

> <CNNaffinity_variance>
1.1760458946

$$$$
