/media/chris/experiments/cd1a-new-docking/inputs/ligands/7ryo_ligand.pdb


 65 67  0  0  0  0  0  0  0  0999 V2000
  -37.5813   58.8703   61.3574 C   0  0  0  0  0  0  0  0  0  0  0  0
  -37.4778   59.3166   62.7367 N   0  0  0  0  0  0  0  0  0  0  0  0
  -38.5284   57.5054   63.5550 O   0  0  0  0  0  0  0  0  0  0  0  0
  -37.9714   58.5783   63.7337 C   0  0  0  0  0  0  0  0  0  0  0  0
  -37.0384   60.1742   62.9384 H   0  0  0  0  0  0  0  0  0  0  0  0
  -36.5178   59.7537   65.3392 N   0  0  0  0  0  0  0  0  0  0  0  0
  -37.9889   61.3241   66.0125 O   0  0  0  0  0  0  0  0  0  0  0  0
  -37.8413   59.1339   65.1615 C   0  0  0  0  0  0  0  0  0  0  0  0
  -37.9892   57.9845   66.1538 C   0  0  0  0  0  0  0  0  0  0  0  0
  -38.8250   60.2742   65.4631 C   0  0  0  0  0  0  0  0  0  0  0  0
  -36.7095   60.9220   65.7953 C   0  0  0  0  0  0  0  0  0  0  0  0
  -37.2964   63.6889   66.3273 O   0  0  0  0  0  0  0  0  0  0  0  0
  -35.6717   61.9016   66.1255 C   0  0  0  0  0  0  0  0  0  0  0  0
  -34.3565   61.4850   66.3354 C   0  0  0  0  0  0  0  0  0  0  0  0
  -33.4245   62.3505   66.8815 C   0  0  0  0  0  0  0  0  0  0  0  0
  -33.7831   63.6359   67.2250 C   0  0  0  0  0  0  0  0  0  0  0  0
  -35.0811   64.0721   67.0313 C   0  0  0  0  0  0  0  0  0  0  0  0
  -36.0328   63.2161   66.4857 C   0  0  0  0  0  0  0  0  0  0  0  0
  -37.9605   63.1377   65.9627 H   0  0  0  0  0  0  0  0  0  0  0  0
  -35.8624   58.8692   59.6586 O   0  0  0  0  0  0  0  0  0  0  0  0
  -36.2093   58.5761   60.7694 C   0  0  0  0  0  0  0  0  0  0  0  0
  -35.4444   57.9223   61.6609 O   0  0  0  0  0  0  0  0  0  0  0  0
  -34.0227   58.2717   61.7401 C   0  0  0  0  0  0  0  0  0  0  0  0
  -33.2194   57.0119   61.5371 C   0  0  0  0  0  0  0  0  0  0  0  0
  -33.8253   58.8656   63.1213 C   0  0  0  0  0  0  0  0  0  0  0  0
  -33.5693   61.2688   63.1552 N   0  0  0  0  0  0  0  0  0  0  0  0
  -31.7154   59.9961   63.0843 O   0  0  0  0  0  0  0  0  0  0  0  0
  -32.9391   60.0913   63.1150 C   0  0  0  0  0  0  0  0  0  0  0  0
  -34.5534   61.2840   63.1786 H   0  0  0  0  0  0  0  0  0  0  0  0
  -33.3919   64.8440   63.6848 N   0  0  0  0  0  0  0  0  0  0  0  0
  -35.0401   63.4720   63.0276 O   0  0  0  0  0  0  0  0  0  0  0  0
  -32.8439   62.5272   63.1653 C   0  0  0  0  0  0  0  0  0  0  0  0
  -32.0494   62.6877   61.8643 C   0  0  0  0  0  0  0  0  0  0  0  0
  -30.9278   63.7166   61.9564 C   0  0  0  0  0  0  0  0  0  0  0  0
  -31.3686   65.1363   62.2532 C   0  0  0  0  0  0  0  0  0  0  0  0
  -32.0127   65.3142   63.6121 C   0  0  0  0  0  0  0  0  0  0  0  0
  -33.8545   63.6568   63.2865 C   0  0  0  0  0  0  0  0  0  0  0  0
  -34.0505   65.4676   64.0678 H   0  0  0  0  0  0  0  0  0  0  0  0
  -38.3365   59.8868   60.4998 C   0  0  0  0  0  0  0  0  0  0  0  0
  -39.7625   59.4418   60.1932 C   0  0  0  0  0  0  0  0  0  0  0  0
  -40.0651   58.0345   60.6734 C   0  0  0  0  0  0  0  0  0  0  0  0
  -41.4769   57.8274   61.1767 C   0  0  0  0  0  0  0  0  0  0  0  0
  -41.4806   57.4570   62.5830 N   0  0  0  0  0  0  0  0  0  0  0  0
  -42.0249   59.5256   63.3029 O   0  0  0  0  0  0  0  0  0  0  0  0
  -41.7561   58.3386   63.5503 C   0  0  0  0  0  0  0  0  0  0  0  0
  -41.2736   56.5270   62.8311 H   0  0  0  0  0  0  0  0  0  0  0  0
  -42.5944   57.1422   65.5601 C   0  0  0  0  0  0  0  0  0  0  0  0
  -41.6342   57.7985   64.9228 C   0  0  0  0  0  0  0  0  0  0  0  0
  -43.9590   56.7938   65.0533 C   0  0  0  0  0  0  0  0  0  0  0  0
  -45.0464   57.5816   65.7736 C   0  0  0  0  0  0  0  0  0  0  0  0
  -45.7327   58.6183   64.9010 C   0  0  0  0  0  0  0  0  0  0  0  0
  -47.2104   58.3435   64.6780 C   0  0  0  0  0  0  0  0  0  0  0  0
  -47.8356   57.4137   65.7009 C   0  0  0  0  0  0  0  0  0  0  0  0
  -49.2388   57.8252   66.1151 C   0  0  0  0  0  0  0  0  0  0  0  0
  -49.4138   59.3247   66.2542 C   0  0  0  0  0  0  0  0  0  0  0  0
  -50.5807   59.8642   65.4517 C   0  0  0  0  0  0  0  0  0  0  0  0
  -50.9560   59.0205   64.2485 C   0  0  0  0  0  0  0  0  0  0  0  0
  -51.1773   59.8490   62.9985 C   0  0  0  0  0  0  0  0  0  0  0  0
  -49.9203   60.0169   62.1606 C   0  0  0  0  0  0  0  0  0  0  0  0
  -49.2741   58.7081   61.7408 C   0  0  0  0  0  0  0  0  0  0  0  0
  -49.3704   58.4138   60.2517 C   0  0  0  0  0  0  0  0  0  0  0  0
  -49.2517   56.9360   59.9055 C   0  0  0  0  0  0  0  0  0  0  0  0
  -48.1263   56.6319   58.9296 C   0  0  0  0  0  0  0  0  0  0  0  0
  -46.4308   57.9291   57.5811 C   0  0  0  0  0  0  0  0  0  0  0  0
  -46.9892   57.6371   58.9491 C   0  0  0  0  0  0  0  0  0  0  0  0
 43 45  1  0  0  0
 43 42  1  0  0  0
 43 46  1  0  0  0
 64 65  1  0  0  0
 44 45  2  0  0  0
 65 63  1  0  0  0
  2  1  1  0  0  0
  2  4  1  0  0  0
  2  5  1  0  0  0
  3  4  2  0  0  0
 63 62  1  0  0  0
  6  8  1  0  0  0
  6 11  2  0  0  0
  7 10  1  0  0  0
  7 11  1  0  0  0
 62 61  1  0  0  0
 26 28  1  0  0  0
 26 32  1  0  0  0
 26 29  1  0  0  0
 12 18  1  0  0  0
 12 19  1  0  0  0
 61 60  1  0  0  0
 30 36  1  0  0  0
 30 37  1  0  0  0
 30 38  1  0  0  0
 20 21  2  0  0  0
 60 59  1  0  0  0
 22 21  1  0  0  0
 22 23  1  0  0  0
 59 58  1  0  0  0
 27 28  2  0  0  0
 58 57  1  0  0  0
 31 37  2  0  0  0
 57 56  1  0  0  0
 56 55  1  0  0  0
 55 54  1  0  0  0
 54 53  1  0  0  0
 53 52  1  0  0  0
 52 51  1  0  0  0
 51 50  1  0  0  0
 50 49  1  0  0  0
 49 47  1  0  0  0
 47 48  2  0  0  0
 48 45  1  0  0  0
 42 41  1  0  0  0
 41 40  1  0  0  0
 40 39  1  0  0  0
 39  1  1  0  0  0
  1 21  1  0  0  0
  8  4  1  0  0  0
  8  9  1  0  0  0
  8 10  1  0  0  0
 11 13  1  0  0  0
 13 14  2  0  0  0
 13 18  1  0  0  0
 14 15  1  0  0  0
 15 16  2  0  0  0
 16 17  1  0  0  0
 17 18  2  0  0  0
 23 24  1  0  0  0
 23 25  1  0  0  0
 25 28  1  0  0  0
 32 33  1  0  0  0
 32 37  1  0  0  0
 33 34  1  0  0  0
 34 35  1  0  0  0
 35 36  1  0  0  0
M  END
> <minimizedAffinity>
-8.69059

> <CNNscore>
0.3004375100

> <CNNaffinity>
7.6414322853

> <CNN_VS>
2.2957727909

> <CNNaffinity_variance>
0.8734738231

$$$$
/media/chris/experiments/cd1a-new-docking/inputs/ligands/7ryo_ligand.pdb


 65 67  0  0  0  0  0  0  0  0999 V2000
  -37.1486   57.3238   62.0601 C   0  0  0  0  0  0  0  0  0  0  0  0
  -37.3021   57.8107   63.4210 N   0  0  0  0  0  0  0  0  0  0  0  0
  -38.0574   59.8256   62.7705 O   0  0  0  0  0  0  0  0  0  0  0  0
  -37.7524   59.0447   63.6596 C   0  0  0  0  0  0  0  0  0  0  0  0
  -37.0710   57.2231   64.1764 H   0  0  0  0  0  0  0  0  0  0  0  0
  -36.5753   60.0398   65.5822 N   0  0  0  0  0  0  0  0  0  0  0  0
  -38.0983   61.6168   66.1085 O   0  0  0  0  0  0  0  0  0  0  0  0
  -37.8630   59.4897   65.1272 C   0  0  0  0  0  0  0  0  0  0  0  0
  -38.2170   58.2786   65.9849 C   0  0  0  0  0  0  0  0  0  0  0  0
  -38.8523   60.6449   65.3405 C   0  0  0  0  0  0  0  0  0  0  0  0
  -36.8124   61.1789   66.0880 C   0  0  0  0  0  0  0  0  0  0  0  0
  -33.9912   60.6095   66.0936 O   0  0  0  0  0  0  0  0  0  0  0  0
  -35.8229   62.0882   66.6708 C   0  0  0  0  0  0  0  0  0  0  0  0
  -36.2118   63.3495   67.1239 C   0  0  0  0  0  0  0  0  0  0  0  0
  -35.2620   64.3031   67.4474 C   0  0  0  0  0  0  0  0  0  0  0  0
  -33.9190   64.0193   67.3264 C   0  0  0  0  0  0  0  0  0  0  0  0
  -33.5073   62.7784   66.8754 C   0  0  0  0  0  0  0  0  0  0  0  0
  -34.4470   61.8076   66.5433 C   0  0  0  0  0  0  0  0  0  0  0  0
  -34.5982   59.9345   65.8615 H   0  0  0  0  0  0  0  0  0  0  0  0
  -35.9636   58.6406   60.4163 O   0  0  0  0  0  0  0  0  0  0  0  0
  -35.9295   57.9390   61.3894 C   0  0  0  0  0  0  0  0  0  0  0  0
  -34.8044   57.5703   62.0261 O   0  0  0  0  0  0  0  0  0  0  0  0
  -33.5541   58.2476   61.6689 C   0  0  0  0  0  0  0  0  0  0  0  0
  -32.6384   57.2334   61.0313 C   0  0  0  0  0  0  0  0  0  0  0  0
  -32.9974   58.7893   62.9712 C   0  0  0  0  0  0  0  0  0  0  0  0
  -33.2876   61.1730   63.2466 N   0  0  0  0  0  0  0  0  0  0  0  0
  -31.3411   60.4222   62.4045 O   0  0  0  0  0  0  0  0  0  0  0  0
  -32.4657   60.1995   62.8440 C   0  0  0  0  0  0  0  0  0  0  0  0
  -34.1788   60.9348   63.5905 H   0  0  0  0  0  0  0  0  0  0  0  0
  -33.9947   64.6941   63.6893 N   0  0  0  0  0  0  0  0  0  0  0  0
  -35.2713   62.9305   63.1495 O   0  0  0  0  0  0  0  0  0  0  0  0
  -32.9038   62.5728   63.1914 C   0  0  0  0  0  0  0  0  0  0  0  0
  -32.2358   62.8833   61.8472 C   0  0  0  0  0  0  0  0  0  0  0  0
  -31.4074   64.1634   61.8579 C   0  0  0  0  0  0  0  0  0  0  0  0
  -32.1783   65.4361   62.1470 C   0  0  0  0  0  0  0  0  0  0  0  0
  -32.7838   65.4928   63.5339 C   0  0  0  0  0  0  0  0  0  0  0  0
  -34.1603   63.4159   63.3415 C   0  0  0  0  0  0  0  0  0  0  0  0
  -34.7712   65.1449   64.0931 H   0  0  0  0  0  0  0  0  0  0  0  0
  -38.4113   57.5750   61.2346 C   0  0  0  0  0  0  0  0  0  0  0  0
  -39.6506   56.9480   61.8643 C   0  0  0  0  0  0  0  0  0  0  0  0
  -40.9254   57.7145   61.5647 C   0  0  0  0  0  0  0  0  0  0  0  0
  -41.3507   58.6831   62.6465 C   0  0  0  0  0  0  0  0  0  0  0  0
  -41.8278   57.9745   63.8234 N   0  0  0  0  0  0  0  0  0  0  0  0
  -41.9643   59.8323   65.0975 O   0  0  0  0  0  0  0  0  0  0  0  0
  -42.1018   58.6046   64.9709 C   0  0  0  0  0  0  0  0  0  0  0  0
  -41.9534   56.9993   63.7738 H   0  0  0  0  0  0  0  0  0  0  0  0
  -43.7440   57.3199   66.3223 C   0  0  0  0  0  0  0  0  0  0  0  0
  -42.4996   57.7093   66.0802 C   0  0  0  0  0  0  0  0  0  0  0  0
  -44.9793   57.6656   65.5509 C   0  0  0  0  0  0  0  0  0  0  0  0
  -46.2422   57.4106   66.3646 C   0  0  0  0  0  0  0  0  0  0  0  0
  -46.7363   58.6274   67.1277 C   0  0  0  0  0  0  0  0  0  0  0  0
  -48.1143   59.0988   66.6942 C   0  0  0  0  0  0  0  0  0  0  0  0
  -48.9191   58.0632   65.9316 C   0  0  0  0  0  0  0  0  0  0  0  0
  -50.4140   58.3369   65.9333 C   0  0  0  0  0  0  0  0  0  0  0  0
  -50.7786   59.7108   65.4060 C   0  0  0  0  0  0  0  0  0  0  0  0
  -51.0196   59.7288   63.9099 C   0  0  0  0  0  0  0  0  0  0  0  0
  -49.8133   60.1379   63.0866 C   0  0  0  0  0  0  0  0  0  0  0  0
  -49.7530   59.4330   61.7459 C   0  0  0  0  0  0  0  0  0  0  0  0
  -50.5224   58.1224   61.7230 C   0  0  0  0  0  0  0  0  0  0  0  0
  -50.0080   57.1176   60.7068 C   0  0  0  0  0  0  0  0  0  0  0  0
  -48.6167   57.4245   60.1746 C   0  0  0  0  0  0  0  0  0  0  0  0
  -48.5702   57.6688   58.6725 C   0  0  0  0  0  0  0  0  0  0  0  0
  -47.1599   57.8370   58.1305 C   0  0  0  0  0  0  0  0  0  0  0  0
  -47.2187   55.6161   56.9304 C   0  0  0  0  0  0  0  0  0  0  0  0
  -46.8883   57.0828   56.8415 C   0  0  0  0  0  0  0  0  0  0  0  0
 43 45  1  0  0  0
 43 42  1  0  0  0
 43 46  1  0  0  0
 64 65  1  0  0  0
 44 45  2  0  0  0
 65 63  1  0  0  0
  2  1  1  0  0  0
  2  4  1  0  0  0
  2  5  1  0  0  0
  3  4  2  0  0  0
 63 62  1  0  0  0
  6  8  1  0  0  0
  6 11  2  0  0  0
  7 10  1  0  0  0
  7 11  1  0  0  0
 62 61  1  0  0  0
 26 28  1  0  0  0
 26 32  1  0  0  0
 26 29  1  0  0  0
 12 18  1  0  0  0
 12 19  1  0  0  0
 61 60  1  0  0  0
 30 36  1  0  0  0
 30 37  1  0  0  0
 30 38  1  0  0  0
 20 21  2  0  0  0
 60 59  1  0  0  0
 22 21  1  0  0  0
 22 23  1  0  0  0
 59 58  1  0  0  0
 27 28  2  0  0  0
 58 57  1  0  0  0
 31 37  2  0  0  0
 57 56  1  0  0  0
 56 55  1  0  0  0
 55 54  1  0  0  0
 54 53  1  0  0  0
 53 52  1  0  0  0
 52 51  1  0  0  0
 51 50  1  0  0  0
 50 49  1  0  0  0
 49 47  1  0  0  0
 47 48  2  0  0  0
 48 45  1  0  0  0
 42 41  1  0  0  0
 41 40  1  0  0  0
 40 39  1  0  0  0
 39  1  1  0  0  0
  1 21  1  0  0  0
  8  4  1  0  0  0
  8  9  1  0  0  0
  8 10  1  0  0  0
 11 13  1  0  0  0
 13 14  2  0  0  0
 13 18  1  0  0  0
 14 15  1  0  0  0
 15 16  2  0  0  0
 16 17  1  0  0  0
 17 18  2  0  0  0
 23 24  1  0  0  0
 23 25  1  0  0  0
 25 28  1  0  0  0
 32 33  1  0  0  0
 32 37  1  0  0  0
 33 34  1  0  0  0
 34 35  1  0  0  0
 35 36  1  0  0  0
M  END
> <minimizedAffinity>
-9.86613

> <CNNscore>
0.2569484115

> <CNNaffinity>
7.4193449020

> <CNN_VS>
1.9063888788

> <CNNaffinity_variance>
0.8349798322

$$$$
/media/chris/experiments/cd1a-new-docking/inputs/ligands/7ryo_ligand.pdb


 65 67  0  0  0  0  0  0  0  0999 V2000
  -38.1077   58.5655   60.8509 C   0  0  0  0  0  0  0  0  0  0  0  0
  -38.5073   58.9082   62.2057 N   0  0  0  0  0  0  0  0  0  0  0  0
  -38.0304   56.8673   63.0188 O   0  0  0  0  0  0  0  0  0  0  0  0
  -38.4313   58.0090   63.1897 C   0  0  0  0  0  0  0  0  0  0  0  0
  -38.8382   59.8148   62.4001 H   0  0  0  0  0  0  0  0  0  0  0  0
  -39.1726   59.8915   64.5964 N   0  0  0  0  0  0  0  0  0  0  0  0
  -41.0305   58.9410   65.4499 O   0  0  0  0  0  0  0  0  0  0  0  0
  -38.8960   58.4455   64.5889 C   0  0  0  0  0  0  0  0  0  0  0  0
  -37.7868   58.1464   65.5930 C   0  0  0  0  0  0  0  0  0  0  0  0
  -40.2303   57.8135   65.0122 C   0  0  0  0  0  0  0  0  0  0  0  0
  -40.3384   60.0473   65.0722 C   0  0  0  0  0  0  0  0  0  0  0  0
  -41.2297   61.6830   62.8782 O   0  0  0  0  0  0  0  0  0  0  0  0
  -41.0283   61.3247   65.2669 C   0  0  0  0  0  0  0  0  0  0  0  0
  -41.4080   61.7276   66.5479 C   0  0  0  0  0  0  0  0  0  0  0  0
  -42.2661   62.8000   66.7212 C   0  0  0  0  0  0  0  0  0  0  0  0
  -42.7568   63.4843   65.6305 C   0  0  0  0  0  0  0  0  0  0  0  0
  -42.3995   63.1023   64.3502 C   0  0  0  0  0  0  0  0  0  0  0  0
  -41.5398   62.0257   64.1556 C   0  0  0  0  0  0  0  0  0  0  0  0
  -40.6536   60.9628   62.7131 H   0  0  0  0  0  0  0  0  0  0  0  0
  -36.0538   58.6901   59.5833 O   0  0  0  0  0  0  0  0  0  0  0  0
  -36.6420   58.8942   60.6093 C   0  0  0  0  0  0  0  0  0  0  0  0
  -36.0899   59.4268   61.7132 O   0  0  0  0  0  0  0  0  0  0  0  0
  -34.8524   58.8295   62.2246 C   0  0  0  0  0  0  0  0  0  0  0  0
  -34.9885   57.3300   62.1432 C   0  0  0  0  0  0  0  0  0  0  0  0
  -34.7230   59.3204   63.6534 C   0  0  0  0  0  0  0  0  0  0  0  0
  -34.3049   61.4722   64.6717 N   0  0  0  0  0  0  0  0  0  0  0  0
  -32.8858   60.7458   63.0842 O   0  0  0  0  0  0  0  0  0  0  0  0
  -33.8885   60.5763   63.7721 C   0  0  0  0  0  0  0  0  0  0  0  0
  -35.1166   61.2824   65.1953 H   0  0  0  0  0  0  0  0  0  0  0  0
  -32.9239   64.0034   66.8581 N   0  0  0  0  0  0  0  0  0  0  0  0
  -34.6881   62.6285   67.0275 O   0  0  0  0  0  0  0  0  0  0  0  0
  -33.5939   62.7183   64.8992 C   0  0  0  0  0  0  0  0  0  0  0  0
  -34.1561   63.8186   63.9922 C   0  0  0  0  0  0  0  0  0  0  0  0
  -33.2164   65.0069   63.8188 C   0  0  0  0  0  0  0  0  0  0  0  0
  -32.8810   65.7632   65.0890 C   0  0  0  0  0  0  0  0  0  0  0  0
  -32.1082   64.9520   66.1078 C   0  0  0  0  0  0  0  0  0  0  0  0
  -33.7829   63.1137   66.3552 C   0  0  0  0  0  0  0  0  0  0  0  0
  -32.8313   64.0211   67.8381 H   0  0  0  0  0  0  0  0  0  0  0  0
  -38.9997   59.2550   59.8175 C   0  0  0  0  0  0  0  0  0  0  0  0
  -40.3025   58.4993   59.5790 C   0  0  0  0  0  0  0  0  0  0  0  0
  -41.0771   58.2269   60.8550 C   0  0  0  0  0  0  0  0  0  0  0  0
  -41.7191   56.8587   60.9260 C   0  0  0  0  0  0  0  0  0  0  0  0
  -42.3191   56.6306   62.2309 N   0  0  0  0  0  0  0  0  0  0  0  0
  -40.8129   55.0642   62.8400 O   0  0  0  0  0  0  0  0  0  0  0  0
  -41.8193   55.7443   63.0989 C   0  0  0  0  0  0  0  0  0  0  0  0
  -43.1193   57.1455   62.4837 H   0  0  0  0  0  0  0  0  0  0  0  0
  -43.5172   56.4616   64.7650 C   0  0  0  0  0  0  0  0  0  0  0  0
  -42.6089   55.5930   64.3415 C   0  0  0  0  0  0  0  0  0  0  0  0
  -43.9495   57.7324   64.1028 C   0  0  0  0  0  0  0  0  0  0  0  0
  -44.8926   58.5375   64.9884 C   0  0  0  0  0  0  0  0  0  0  0  0
  -46.3355   58.0661   64.9357 C   0  0  0  0  0  0  0  0  0  0  0  0
  -47.2256   58.7135   65.9833 C   0  0  0  0  0  0  0  0  0  0  0  0
  -48.6670   58.2410   65.9588 C   0  0  0  0  0  0  0  0  0  0  0  0
  -49.6716   59.3479   66.2331 C   0  0  0  0  0  0  0  0  0  0  0  0
  -50.8262   59.3748   65.2508 C   0  0  0  0  0  0  0  0  0  0  0  0
  -50.4774   60.0541   63.9418 C   0  0  0  0  0  0  0  0  0  0  0  0
  -50.9712   59.3246   62.7072 C   0  0  0  0  0  0  0  0  0  0  0  0
  -49.8745   58.5434   62.0108 C   0  0  0  0  0  0  0  0  0  0  0  0
  -50.3379   57.8747   60.7269 C   0  0  0  0  0  0  0  0  0  0  0  0
  -49.5127   56.6652   60.3233 C   0  0  0  0  0  0  0  0  0  0  0  0
  -48.1234   57.0025   59.8043 C   0  0  0  0  0  0  0  0  0  0  0  0
  -48.0163   58.3879   59.1821 C   0  0  0  0  0  0  0  0  0  0  0  0
  -46.9793   58.4748   58.0739 C   0  0  0  0  0  0  0  0  0  0  0  0
  -47.7014   56.9460   56.1984 C   0  0  0  0  0  0  0  0  0  0  0  0
  -46.7390   57.1709   57.3349 C   0  0  0  0  0  0  0  0  0  0  0  0
 43 45  1  0  0  0
 43 42  1  0  0  0
 43 46  1  0  0  0
 64 65  1  0  0  0
 44 45  2  0  0  0
 65 63  1  0  0  0
  2  1  1  0  0  0
  2  4  1  0  0  0
  2  5  1  0  0  0
  3  4  2  0  0  0
 63 62  1  0  0  0
  6  8  1  0  0  0
  6 11  2  0  0  0
  7 10  1  0  0  0
  7 11  1  0  0  0
 62 61  1  0  0  0
 26 28  1  0  0  0
 26 32  1  0  0  0
 26 29  1  0  0  0
 12 18  1  0  0  0
 12 19  1  0  0  0
 61 60  1  0  0  0
 30 36  1  0  0  0
 30 37  1  0  0  0
 30 38  1  0  0  0
 20 21  2  0  0  0
 60 59  1  0  0  0
 22 21  1  0  0  0
 22 23  1  0  0  0
 59 58  1  0  0  0
 27 28  2  0  0  0
 58 57  1  0  0  0
 31 37  2  0  0  0
 57 56  1  0  0  0
 56 55  1  0  0  0
 55 54  1  0  0  0
 54 53  1  0  0  0
 53 52  1  0  0  0
 52 51  1  0  0  0
 51 50  1  0  0  0
 50 49  1  0  0  0
 49 47  1  0  0  0
 47 48  2  0  0  0
 48 45  1  0  0  0
 42 41  1  0  0  0
 41 40  1  0  0  0
 40 39  1  0  0  0
 39  1  1  0  0  0
  1 21  1  0  0  0
  8  4  1  0  0  0
  8  9  1  0  0  0
  8 10  1  0  0  0
 11 13  1  0  0  0
 13 14  2  0  0  0
 13 18  1  0  0  0
 14 15  1  0  0  0
 15 16  2  0  0  0
 16 17  1  0  0  0
 17 18  2  0  0  0
 23 24  1  0  0  0
 23 25  1  0  0  0
 25 28  1  0  0  0
 32 33  1  0  0  0
 32 37  1  0  0  0
 33 34  1  0  0  0
 34 35  1  0  0  0
 35 36  1  0  0  0
M  END
> <minimizedAffinity>
-7.13550

> <CNNscore>
0.2167263031

> <CNNaffinity>
7.6863503456

> <CNN_VS>
1.6658343077

> <CNNaffinity_variance>
0.9282174110

$$$$
/media/chris/experiments/cd1a-new-docking/inputs/ligands/7ryo_ligand.pdb


 65 67  0  0  0  0  0  0  0  0999 V2000
  -34.9372   60.2335   65.6216 C   0  0  0  0  0  0  0  0  0  0  0  0
  -34.2053   61.3922   65.1374 N   0  0  0  0  0  0  0  0  0  0  0  0
  -33.9459   62.2692   67.1910 O   0  0  0  0  0  0  0  0  0  0  0  0
  -33.7657   62.3266   65.9837 C   0  0  0  0  0  0  0  0  0  0  0  0
  -34.0317   61.4892   64.1732 H   0  0  0  0  0  0  0  0  0  0  0  0
  -33.4857   63.7779   64.0120 N   0  0  0  0  0  0  0  0  0  0  0  0
  -33.6715   65.7698   65.0518 O   0  0  0  0  0  0  0  0  0  0  0  0
  -33.0207   63.5322   65.3871 C   0  0  0  0  0  0  0  0  0  0  0  0
  -31.5266   63.2245   65.3591 C   0  0  0  0  0  0  0  0  0  0  0  0
  -33.3150   64.8515   66.1162 C   0  0  0  0  0  0  0  0  0  0  0  0
  -33.8120   65.0018   63.9400 C   0  0  0  0  0  0  0  0  0  0  0  0
  -32.0958   66.1243   61.9206 O   0  0  0  0  0  0  0  0  0  0  0  0
  -34.3296   65.6896   62.7549 C   0  0  0  0  0  0  0  0  0  0  0  0
  -35.7002   65.6976   62.4923 C   0  0  0  0  0  0  0  0  0  0  0  0
  -36.1776   66.1258   61.2655 C   0  0  0  0  0  0  0  0  0  0  0  0
  -35.3054   66.5502   60.2869 C   0  0  0  0  0  0  0  0  0  0  0  0
  -33.9422   66.5478   60.5202 C   0  0  0  0  0  0  0  0  0  0  0  0
  -33.4430   66.1190   61.7461 C   0  0  0  0  0  0  0  0  0  0  0  0
  -31.7278   65.8416   62.7345 H   0  0  0  0  0  0  0  0  0  0  0  0
  -34.0258   57.9966   65.7005 O   0  0  0  0  0  0  0  0  0  0  0  0
  -34.3685   58.9441   65.0485 C   0  0  0  0  0  0  0  0  0  0  0  0
  -34.2831   59.0206   63.7090 O   0  0  0  0  0  0  0  0  0  0  0  0
  -33.4910   58.0057   63.0075 C   0  0  0  0  0  0  0  0  0  0  0  0
  -32.0607   58.4804   62.9583 C   0  0  0  0  0  0  0  0  0  0  0  0
  -34.1081   57.8892   61.6273 C   0  0  0  0  0  0  0  0  0  0  0  0
  -36.1833   58.9233   60.9446 N   0  0  0  0  0  0  0  0  0  0  0  0
  -36.2775   57.1137   62.2780 O   0  0  0  0  0  0  0  0  0  0  0  0
  -35.6196   57.9393   61.6511 C   0  0  0  0  0  0  0  0  0  0  0  0
  -35.6052   59.5568   60.4612 H   0  0  0  0  0  0  0  0  0  0  0  0
  -39.2827   59.0789   59.0834 N   0  0  0  0  0  0  0  0  0  0  0  0
  -37.1642   59.6175   58.5804 O   0  0  0  0  0  0  0  0  0  0  0  0
  -37.6248   59.0852   60.8693 C   0  0  0  0  0  0  0  0  0  0  0  0
  -38.0609   60.3082   61.6838 C   0  0  0  0  0  0  0  0  0  0  0  0
  -39.5430   60.3069   62.0422 C   0  0  0  0  0  0  0  0  0  0  0  0
  -40.4980   60.3344   60.8653 C   0  0  0  0  0  0  0  0  0  0  0  0
  -40.4307   59.1053   59.9833 C   0  0  0  0  0  0  0  0  0  0  0  0
  -38.0047   59.2840   59.4105 C   0  0  0  0  0  0  0  0  0  0  0  0
  -39.4699   58.8900   58.1355 H   0  0  0  0  0  0  0  0  0  0  0  0
  -36.4314   60.3539   65.3184 C   0  0  0  0  0  0  0  0  0  0  0  0
  -37.1324   58.9997   65.3084 C   0  0  0  0  0  0  0  0  0  0  0  0
  -38.3553   58.9537   66.2056 C   0  0  0  0  0  0  0  0  0  0  0  0
  -39.4381   59.9495   65.8512 C   0  0  0  0  0  0  0  0  0  0  0  0
  -40.5443   59.2970   65.1690 N   0  0  0  0  0  0  0  0  0  0  0  0
  -41.5322   61.2316   64.5568 O   0  0  0  0  0  0  0  0  0  0  0  0
  -41.5174   59.9898   64.5674 C   0  0  0  0  0  0  0  0  0  0  0  0
  -40.5780   58.3133   65.1493 H   0  0  0  0  0  0  0  0  0  0  0  0
  -43.4057   58.3811   64.7066 C   0  0  0  0  0  0  0  0  0  0  0  0
  -42.5980   59.1559   63.9954 C   0  0  0  0  0  0  0  0  0  0  0  0
  -43.4233   58.1933   66.1915 C   0  0  0  0  0  0  0  0  0  0  0  0
  -44.6460   57.4056   66.6461 C   0  0  0  0  0  0  0  0  0  0  0  0
  -45.8438   57.5455   65.7225 C   0  0  0  0  0  0  0  0  0  0  0  0
  -46.7945   58.6607   66.1242 C   0  0  0  0  0  0  0  0  0  0  0  0
  -48.1618   58.5833   65.4713 C   0  0  0  0  0  0  0  0  0  0  0  0
  -49.1896   59.5041   66.1080 C   0  0  0  0  0  0  0  0  0  0  0  0
  -50.5953   59.3012   65.5774 C   0  0  0  0  0  0  0  0  0  0  0  0
  -50.9499   60.2540   64.4535 C   0  0  0  0  0  0  0  0  0  0  0  0
  -51.1727   59.5834   63.1115 C   0  0  0  0  0  0  0  0  0  0  0  0
  -50.4257   58.2706   62.9818 C   0  0  0  0  0  0  0  0  0  0  0  0
  -49.1900   58.3689   62.1022 C   0  0  0  0  0  0  0  0  0  0  0  0
  -49.4357   59.0300   60.7571 C   0  0  0  0  0  0  0  0  0  0  0  0
  -50.0604   58.1138   59.7162 C   0  0  0  0  0  0  0  0  0  0  0  0
  -49.0617   57.5379   58.7217 C   0  0  0  0  0  0  0  0  0  0  0  0
  -47.6127   57.7289   59.1402 C   0  0  0  0  0  0  0  0  0  0  0  0
  -46.6034   57.1050   56.9113 C   0  0  0  0  0  0  0  0  0  0  0  0
  -46.6807   58.1306   58.0116 C   0  0  0  0  0  0  0  0  0  0  0  0
 43 45  1  0  0  0
 43 42  1  0  0  0
 43 46  1  0  0  0
 64 65  1  0  0  0
 44 45  2  0  0  0
 65 63  1  0  0  0
  2  1  1  0  0  0
  2  4  1  0  0  0
  2  5  1  0  0  0
  3  4  2  0  0  0
 63 62  1  0  0  0
  6  8  1  0  0  0
  6 11  2  0  0  0
  7 10  1  0  0  0
  7 11  1  0  0  0
 62 61  1  0  0  0
 26 28  1  0  0  0
 26 32  1  0  0  0
 26 29  1  0  0  0
 12 18  1  0  0  0
 12 19  1  0  0  0
 61 60  1  0  0  0
 30 36  1  0  0  0
 30 37  1  0  0  0
 30 38  1  0  0  0
 20 21  2  0  0  0
 60 59  1  0  0  0
 22 21  1  0  0  0
 22 23  1  0  0  0
 59 58  1  0  0  0
 27 28  2  0  0  0
 58 57  1  0  0  0
 31 37  2  0  0  0
 57 56  1  0  0  0
 56 55  1  0  0  0
 55 54  1  0  0  0
 54 53  1  0  0  0
 53 52  1  0  0  0
 52 51  1  0  0  0
 51 50  1  0  0  0
 50 49  1  0  0  0
 49 47  1  0  0  0
 47 48  2  0  0  0
 48 45  1  0  0  0
 42 41  1  0  0  0
 41 40  1  0  0  0
 40 39  1  0  0  0
 39  1  1  0  0  0
  1 21  1  0  0  0
  8  4  1  0  0  0
  8  9  1  0  0  0
  8 10  1  0  0  0
 11 13  1  0  0  0
 13 14  2  0  0  0
 13 18  1  0  0  0
 14 15  1  0  0  0
 15 16  2  0  0  0
 16 17  1  0  0  0
 17 18  2  0  0  0
 23 24  1  0  0  0
 23 25  1  0  0  0
 25 28  1  0  0  0
 32 33  1  0  0  0
 32 37  1  0  0  0
 33 34  1  0  0  0
 34 35  1  0  0  0
 35 36  1  0  0  0
M  END
> <minimizedAffinity>
-7.86443

> <CNNscore>
0.2154823244

> <CNNaffinity>
7.4318923950

> <CNN_VS>
1.6014415026

> <CNNaffinity_variance>
0.5665212870

$$$$
/media/chris/experiments/cd1a-new-docking/inputs/ligands/7ryo_ligand.pdb


 65 67  0  0  0  0  0  0  0  0999 V2000
  -37.7970   58.4466   61.5304 C   0  0  0  0  0  0  0  0  0  0  0  0
  -36.3503   58.4419   61.6706 N   0  0  0  0  0  0  0  0  0  0  0  0
  -36.3954   57.3010   63.6071 O   0  0  0  0  0  0  0  0  0  0  0  0
  -35.7663   57.8569   62.7191 C   0  0  0  0  0  0  0  0  0  0  0  0
  -35.7940   58.8756   60.9838 H   0  0  0  0  0  0  0  0  0  0  0  0
  -33.7380   59.1086   62.0934 N   0  0  0  0  0  0  0  0  0  0  0  0
  -32.7837   59.2121   64.1335 O   0  0  0  0  0  0  0  0  0  0  0  0
  -34.2322   57.9174   62.8036 C   0  0  0  0  0  0  0  0  0  0  0  0
  -33.6520   56.6695   62.1449 C   0  0  0  0  0  0  0  0  0  0  0  0
  -33.7079   58.0991   64.2357 C   0  0  0  0  0  0  0  0  0  0  0  0
  -32.9753   59.7318   62.8930 C   0  0  0  0  0  0  0  0  0  0  0  0
  -31.0549   59.9699   60.7626 O   0  0  0  0  0  0  0  0  0  0  0  0
  -32.2587   60.9775   62.6093 C   0  0  0  0  0  0  0  0  0  0  0  0
  -32.5962   62.1498   63.2870 C   0  0  0  0  0  0  0  0  0  0  0  0
  -32.1045   63.3723   62.8630 C   0  0  0  0  0  0  0  0  0  0  0  0
  -31.2747   63.4480   61.7655 C   0  0  0  0  0  0  0  0  0  0  0  0
  -30.9286   62.3016   61.0737 C   0  0  0  0  0  0  0  0  0  0  0  0
  -31.4145   61.0638   61.4833 C   0  0  0  0  0  0  0  0  0  0  0  0
  -31.3652   59.1217   61.0121 H   0  0  0  0  0  0  0  0  0  0  0  0
  -38.9255   60.5557   61.1863 O   0  0  0  0  0  0  0  0  0  0  0  0
  -38.3851   59.7898   61.9357 C   0  0  0  0  0  0  0  0  0  0  0  0
  -38.1969   60.0104   63.2485 O   0  0  0  0  0  0  0  0  0  0  0  0
  -39.3229   59.7749   64.1576 C   0  0  0  0  0  0  0  0  0  0  0  0
  -40.3089   60.9021   63.9826 C   0  0  0  0  0  0  0  0  0  0  0  0
  -38.7229   59.7440   65.5499 C   0  0  0  0  0  0  0  0  0  0  0  0
  -37.2414   61.6344   65.8215 N   0  0  0  0  0  0  0  0  0  0  0  0
  -36.3345   59.6074   65.4603 O   0  0  0  0  0  0  0  0  0  0  0  0
  -37.3250   60.3190   65.6024 C   0  0  0  0  0  0  0  0  0  0  0  0
  -38.0701   62.1550   65.9279 H   0  0  0  0  0  0  0  0  0  0  0  0
  -34.4030   62.8674   67.6970 N   0  0  0  0  0  0  0  0  0  0  0  0
  -36.5645   62.5615   68.2123 O   0  0  0  0  0  0  0  0  0  0  0  0
  -35.9628   62.3182   65.9072 C   0  0  0  0  0  0  0  0  0  0  0  0
  -36.0214   63.6431   65.1386 C   0  0  0  0  0  0  0  0  0  0  0  0
  -34.6489   64.2056   64.7851 C   0  0  0  0  0  0  0  0  0  0  0  0
  -33.7604   64.5458   65.9652 C   0  0  0  0  0  0  0  0  0  0  0  0
  -33.3566   63.3501   66.8023 C   0  0  0  0  0  0  0  0  0  0  0  0
  -35.6689   62.5936   67.3734 C   0  0  0  0  0  0  0  0  0  0  0  0
  -34.1490   62.7291   68.6380 H   0  0  0  0  0  0  0  0  0  0  0  0
  -38.4359   57.3079   62.3268 C   0  0  0  0  0  0  0  0  0  0  0  0
  -39.8572   57.0036   61.8658 C   0  0  0  0  0  0  0  0  0  0  0  0
  -40.5676   55.9934   62.7476 C   0  0  0  0  0  0  0  0  0  0  0  0
  -42.0591   56.2093   62.8826 C   0  0  0  0  0  0  0  0  0  0  0  0
  -42.4504   56.2900   64.2809 N   0  0  0  0  0  0  0  0  0  0  0  0
  -42.8646   58.5075   64.2145 O   0  0  0  0  0  0  0  0  0  0  0  0
  -42.8272   57.4406   64.8491 C   0  0  0  0  0  0  0  0  0  0  0  0
  -42.4376   55.4709   64.8270 H   0  0  0  0  0  0  0  0  0  0  0  0
  -44.2327   57.7594   66.8731 C   0  0  0  0  0  0  0  0  0  0  0  0
  -43.1128   57.3424   66.2980 C   0  0  0  0  0  0  0  0  0  0  0  0
  -45.4244   58.3820   66.2153 C   0  0  0  0  0  0  0  0  0  0  0  0
  -46.4640   57.3378   65.8269 C   0  0  0  0  0  0  0  0  0  0  0  0
  -47.7836   57.9293   65.3623 C   0  0  0  0  0  0  0  0  0  0  0  0
  -48.9989   57.2938   66.0167 C   0  0  0  0  0  0  0  0  0  0  0  0
  -50.2362   58.1717   66.0252 C   0  0  0  0  0  0  0  0  0  0  0  0
  -49.9317   59.6488   65.8378 C   0  0  0  0  0  0  0  0  0  0  0  0
  -51.0753   60.4292   65.2201 C   0  0  0  0  0  0  0  0  0  0  0  0
  -51.0891   60.3658   63.7060 C   0  0  0  0  0  0  0  0  0  0  0  0
  -49.7145   60.2799   63.0708 C   0  0  0  0  0  0  0  0  0  0  0  0
  -49.6679   59.3129   61.9043 C   0  0  0  0  0  0  0  0  0  0  0  0
  -50.5788   58.1099   62.0866 C   0  0  0  0  0  0  0  0  0  0  0  0
  -50.3618   57.0058   61.0665 C   0  0  0  0  0  0  0  0  0  0  0  0
  -49.3494   57.3465   59.9838 C   0  0  0  0  0  0  0  0  0  0  0  0
  -48.4380   56.1875   59.6040 C   0  0  0  0  0  0  0  0  0  0  0  0
  -47.9157   56.2708   58.1787 C   0  0  0  0  0  0  0  0  0  0  0  0
  -46.2157   58.0844   57.7348 C   0  0  0  0  0  0  0  0  0  0  0  0
  -47.6666   57.6835   57.6825 C   0  0  0  0  0  0  0  0  0  0  0  0
 43 45  1  0  0  0
 43 42  1  0  0  0
 43 46  1  0  0  0
 64 65  1  0  0  0
 44 45  2  0  0  0
 65 63  1  0  0  0
  2  1  1  0  0  0
  2  4  1  0  0  0
  2  5  1  0  0  0
  3  4  2  0  0  0
 63 62  1  0  0  0
  6  8  1  0  0  0
  6 11  2  0  0  0
  7 10  1  0  0  0
  7 11  1  0  0  0
 62 61  1  0  0  0
 26 28  1  0  0  0
 26 32  1  0  0  0
 26 29  1  0  0  0
 12 18  1  0  0  0
 12 19  1  0  0  0
 61 60  1  0  0  0
 30 36  1  0  0  0
 30 37  1  0  0  0
 30 38  1  0  0  0
 20 21  2  0  0  0
 60 59  1  0  0  0
 22 21  1  0  0  0
 22 23  1  0  0  0
 59 58  1  0  0  0
 27 28  2  0  0  0
 58 57  1  0  0  0
 31 37  2  0  0  0
 57 56  1  0  0  0
 56 55  1  0  0  0
 55 54  1  0  0  0
 54 53  1  0  0  0
 53 52  1  0  0  0
 52 51  1  0  0  0
 51 50  1  0  0  0
 50 49  1  0  0  0
 49 47  1  0  0  0
 47 48  2  0  0  0
 48 45  1  0  0  0
 42 41  1  0  0  0
 41 40  1  0  0  0
 40 39  1  0  0  0
 39  1  1  0  0  0
  1 21  1  0  0  0
  8  4  1  0  0  0
  8  9  1  0  0  0
  8 10  1  0  0  0
 11 13  1  0  0  0
 13 14  2  0  0  0
 13 18  1  0  0  0
 14 15  1  0  0  0
 15 16  2  0  0  0
 16 17  1  0  0  0
 17 18  2  0  0  0
 23 24  1  0  0  0
 23 25  1  0  0  0
 25 28  1  0  0  0
 32 33  1  0  0  0
 32 37  1  0  0  0
 33 34  1  0  0  0
 34 35  1  0  0  0
 35 36  1  0  0  0
M  END
> <minimizedAffinity>
-9.90870

> <CNNscore>
0.2136811614

> <CNNaffinity>
7.4623975754

> <CNN_VS>
1.5945737362

> <CNNaffinity_variance>
1.1267565489

$$$$
/media/chris/experiments/cd1a-new-docking/inputs/ligands/7ryo_ligand.pdb


 65 67  0  0  0  0  0  0  0  0999 V2000
  -42.8232   58.0804   65.8440 C   0  0  0  0  0  0  0  0  0  0  0  0
  -44.1608   58.3222   66.3587 N   0  0  0  0  0  0  0  0  0  0  0  0
  -45.0294   56.5005   65.3685 O   0  0  0  0  0  0  0  0  0  0  0  0
  -45.1660   57.4927   66.0686 C   0  0  0  0  0  0  0  0  0  0  0  0
  -44.3277   59.1076   66.9284 H   0  0  0  0  0  0  0  0  0  0  0  0
  -47.2885   58.6830   65.6809 N   0  0  0  0  0  0  0  0  0  0  0  0
  -48.6972   56.9862   66.1498 O   0  0  0  0  0  0  0  0  0  0  0  0
  -46.5547   57.8338   66.6337 C   0  0  0  0  0  0  0  0  0  0  0  0
  -46.3809   58.5938   67.9452 C   0  0  0  0  0  0  0  0  0  0  0  0
  -47.4608   56.6056   66.8053 C   0  0  0  0  0  0  0  0  0  0  0  0
  -48.4187   58.1396   65.4883 C   0  0  0  0  0  0  0  0  0  0  0  0
  -50.3671   60.0716   66.3570 O   0  0  0  0  0  0  0  0  0  0  0  0
  -49.4804   58.6412   64.6127 C   0  0  0  0  0  0  0  0  0  0  0  0
  -49.4942   58.2971   63.2604 C   0  0  0  0  0  0  0  0  0  0  0  0
  -50.3374   58.9503   62.3781 C   0  0  0  0  0  0  0  0  0  0  0  0
  -51.1750   59.9496   62.8238 C   0  0  0  0  0  0  0  0  0  0  0  0
  -51.1775   60.3127   64.1582 C   0  0  0  0  0  0  0  0  0  0  0  0
  -50.3355   59.6693   65.0599 C   0  0  0  0  0  0  0  0  0  0  0  0
  -49.8125   59.6586   66.9892 H   0  0  0  0  0  0  0  0  0  0  0  0
  -42.0300   59.8144   67.3287 O   0  0  0  0  0  0  0  0  0  0  0  0
  -41.8324   59.1005   66.3846 C   0  0  0  0  0  0  0  0  0  0  0  0
  -40.7104   59.1067   65.6440 O   0  0  0  0  0  0  0  0  0  0  0  0
  -39.8143   60.2617   65.7560 C   0  0  0  0  0  0  0  0  0  0  0  0
  -39.3775   60.6512   64.3663 C   0  0  0  0  0  0  0  0  0  0  0  0
  -38.6553   59.7965   66.6160 C   0  0  0  0  0  0  0  0  0  0  0  0
  -37.0648   61.6165   66.6138 N   0  0  0  0  0  0  0  0  0  0  0  0
  -36.5458   59.7405   65.4856 O   0  0  0  0  0  0  0  0  0  0  0  0
  -37.3286   60.3795   66.1830 C   0  0  0  0  0  0  0  0  0  0  0  0
  -37.7305   62.0810   67.1708 H   0  0  0  0  0  0  0  0  0  0  0  0
  -34.2554   63.7264   67.4796 N   0  0  0  0  0  0  0  0  0  0  0  0
  -36.3843   63.6446   68.1813 O   0  0  0  0  0  0  0  0  0  0  0  0
  -35.8240   62.2955   66.2837 C   0  0  0  0  0  0  0  0  0  0  0  0
  -35.9730   63.0503   64.9580 C   0  0  0  0  0  0  0  0  0  0  0  0
  -34.6420   63.4069   64.3049 C   0  0  0  0  0  0  0  0  0  0  0  0
  -33.7463   64.3264   65.1112 C   0  0  0  0  0  0  0  0  0  0  0  0
  -33.2581   63.7299   66.4148 C   0  0  0  0  0  0  0  0  0  0  0  0
  -35.5116   63.2819   67.3979 C   0  0  0  0  0  0  0  0  0  0  0  0
  -33.9723   64.0897   68.3497 H   0  0  0  0  0  0  0  0  0  0  0  0
  -42.8110   58.0642   64.3148 C   0  0  0  0  0  0  0  0  0  0  0  0
  -42.5453   56.6724   63.7512 C   0  0  0  0  0  0  0  0  0  0  0  0
  -42.4140   56.6553   62.2396 C   0  0  0  0  0  0  0  0  0  0  0  0
  -40.9910   56.5998   61.7284 C   0  0  0  0  0  0  0  0  0  0  0  0
  -40.0480   56.9837   62.7667 N   0  0  0  0  0  0  0  0  0  0  0  0
  -38.2429   56.8392   61.4198 O   0  0  0  0  0  0  0  0  0  0  0  0
  -38.7339   57.0762   62.5357 C   0  0  0  0  0  0  0  0  0  0  0  0
  -40.3880   57.1821   63.6691 H   0  0  0  0  0  0  0  0  0  0  0  0
  -36.6057   57.5441   63.7295 C   0  0  0  0  0  0  0  0  0  0  0  0
  -37.9243   57.4025   63.7309 C   0  0  0  0  0  0  0  0  0  0  0  0
  -35.6726   57.4305   62.5647 C   0  0  0  0  0  0  0  0  0  0  0  0
  -35.4657   58.7732   61.8746 C   0  0  0  0  0  0  0  0  0  0  0  0
  -36.3603   59.8799   62.4056 C   0  0  0  0  0  0  0  0  0  0  0  0
  -37.4840   60.2615   61.4565 C   0  0  0  0  0  0  0  0  0  0  0  0
  -37.3472   59.6845   60.0601 C   0  0  0  0  0  0  0  0  0  0  0  0
  -38.6700   59.2450   59.4544 C   0  0  0  0  0  0  0  0  0  0  0  0
  -39.8814   59.7779   60.1941 C   0  0  0  0  0  0  0  0  0  0  0  0
  -41.1095   59.8987   59.3145 C   0  0  0  0  0  0  0  0  0  0  0  0
  -41.5520   58.5964   58.6753 C   0  0  0  0  0  0  0  0  0  0  0  0
  -41.7045   58.7046   57.1710 C   0  0  0  0  0  0  0  0  0  0  0  0
  -43.1184   59.0534   56.7357 C   0  0  0  0  0  0  0  0  0  0  0  0
  -44.2043   58.3323   57.5153 C   0  0  0  0  0  0  0  0  0  0  0  0
  -45.5816   58.3977   56.8735 C   0  0  0  0  0  0  0  0  0  0  0  0
  -46.5827   57.4108   57.4582 C   0  0  0  0  0  0  0  0  0  0  0  0
  -46.8412   57.6190   58.9418 C   0  0  0  0  0  0  0  0  0  0  0  0
  -49.3529   57.5219   59.1822 C   0  0  0  0  0  0  0  0  0  0  0  0
  -48.0361   56.8563   59.4843 C   0  0  0  0  0  0  0  0  0  0  0  0
 43 45  1  0  0  0
 43 42  1  0  0  0
 43 46  1  0  0  0
 64 65  1  0  0  0
 44 45  2  0  0  0
 65 63  1  0  0  0
  2  1  1  0  0  0
  2  4  1  0  0  0
  2  5  1  0  0  0
  3  4  2  0  0  0
 63 62  1  0  0  0
  6  8  1  0  0  0
  6 11  2  0  0  0
  7 10  1  0  0  0
  7 11  1  0  0  0
 62 61  1  0  0  0
 26 28  1  0  0  0
 26 32  1  0  0  0
 26 29  1  0  0  0
 12 18  1  0  0  0
 12 19  1  0  0  0
 61 60  1  0  0  0
 30 36  1  0  0  0
 30 37  1  0  0  0
 30 38  1  0  0  0
 20 21  2  0  0  0
 60 59  1  0  0  0
 22 21  1  0  0  0
 22 23  1  0  0  0
 59 58  1  0  0  0
 27 28  2  0  0  0
 58 57  1  0  0  0
 31 37  2  0  0  0
 57 56  1  0  0  0
 56 55  1  0  0  0
 55 54  1  0  0  0
 54 53  1  0  0  0
 53 52  1  0  0  0
 52 51  1  0  0  0
 51 50  1  0  0  0
 50 49  1  0  0  0
 49 47  1  0  0  0
 47 48  2  0  0  0
 48 45  1  0  0  0
 42 41  1  0  0  0
 41 40  1  0  0  0
 40 39  1  0  0  0
 39  1  1  0  0  0
  1 21  1  0  0  0
  8  4  1  0  0  0
  8  9  1  0  0  0
  8 10  1  0  0  0
 11 13  1  0  0  0
 13 14  2  0  0  0
 13 18  1  0  0  0
 14 15  1  0  0  0
 15 16  2  0  0  0
 16 17  1  0  0  0
 17 18  2  0  0  0
 23 24  1  0  0  0
 23 25  1  0  0  0
 25 28  1  0  0  0
 32 33  1  0  0  0
 32 37  1  0  0  0
 33 34  1  0  0  0
 34 35  1  0  0  0
 35 36  1  0  0  0
M  END
> <minimizedAffinity>
-8.06267

> <CNNscore>
0.1910791695

> <CNNaffinity>
8.0327663422

> <CNN_VS>
1.5348943472

> <CNNaffinity_variance>
1.0332658291

$$$$
/media/chris/experiments/cd1a-new-docking/inputs/ligands/7ryo_ligand.pdb


 65 67  0  0  0  0  0  0  0  0999 V2000
  -40.3101   60.2796   64.0186 C   0  0  0  0  0  0  0  0  0  0  0  0
  -39.3544   59.5726   63.1824 N   0  0  0  0  0  0  0  0  0  0  0  0
  -39.9429   60.6827   61.3182 O   0  0  0  0  0  0  0  0  0  0  0  0
  -39.2542   59.8432   61.8788 C   0  0  0  0  0  0  0  0  0  0  0  0
  -38.7737   58.8855   63.5823 H   0  0  0  0  0  0  0  0  0  0  0  0
  -36.8699   59.4973   61.3613 N   0  0  0  0  0  0  0  0  0  0  0  0
  -36.8001   57.2627   61.6526 O   0  0  0  0  0  0  0  0  0  0  0  0
  -38.2345   59.0334   61.0611 C   0  0  0  0  0  0  0  0  0  0  0  0
  -38.5151   59.2425   59.5760 C   0  0  0  0  0  0  0  0  0  0  0  0
  -38.2054   57.5425   61.4287 C   0  0  0  0  0  0  0  0  0  0  0  0
  -36.1855   58.4741   61.6684 C   0  0  0  0  0  0  0  0  0  0  0  0
  -35.0136   60.4588   63.3920 O   0  0  0  0  0  0  0  0  0  0  0  0
  -34.7687   58.4622   62.0398 C   0  0  0  0  0  0  0  0  0  0  0  0
  -33.9582   57.3859   61.6763 C   0  0  0  0  0  0  0  0  0  0  0  0
  -32.6940   57.2431   62.2219 C   0  0  0  0  0  0  0  0  0  0  0  0
  -32.2189   58.1624   63.1317 C   0  0  0  0  0  0  0  0  0  0  0  0
  -33.0039   59.2355   63.5122 C   0  0  0  0  0  0  0  0  0  0  0  0
  -34.2780   59.3951   62.9764 C   0  0  0  0  0  0  0  0  0  0  0  0
  -35.8754   60.5946   63.0505 H   0  0  0  0  0  0  0  0  0  0  0  0
  -40.2718   59.8439   66.3954 O   0  0  0  0  0  0  0  0  0  0  0  0
  -39.8020   60.4092   65.4468 C   0  0  0  0  0  0  0  0  0  0  0  0
  -38.7649   61.2628   65.5029 O   0  0  0  0  0  0  0  0  0  0  0  0
  -37.4089   60.7078   65.4484 C   0  0  0  0  0  0  0  0  0  0  0  0
  -37.5058   59.2161   65.6462 C   0  0  0  0  0  0  0  0  0  0  0  0
  -36.6442   61.3897   66.5663 C   0  0  0  0  0  0  0  0  0  0  0  0
  -34.9891   62.6835   65.3711 N   0  0  0  0  0  0  0  0  0  0  0  0
  -36.5788   63.7824   66.5231 O   0  0  0  0  0  0  0  0  0  0  0  0
  -36.0690   62.7272   66.1567 C   0  0  0  0  0  0  0  0  0  0  0  0
  -34.6236   61.8079   65.1089 H   0  0  0  0  0  0  0  0  0  0  0  0
  -34.4616   65.2461   62.8712 N   0  0  0  0  0  0  0  0  0  0  0  0
  -35.0338   63.0806   62.7493 O   0  0  0  0  0  0  0  0  0  0  0  0
  -34.3389   63.8912   64.8929 C   0  0  0  0  0  0  0  0  0  0  0  0
  -32.8235   63.7907   65.0994 C   0  0  0  0  0  0  0  0  0  0  0  0
  -32.1108   65.1382   65.0603 C   0  0  0  0  0  0  0  0  0  0  0  0
  -32.2178   65.8943   63.7509 C   0  0  0  0  0  0  0  0  0  0  0  0
  -33.6263   66.3215   63.3949 C   0  0  0  0  0  0  0  0  0  0  0  0
  -34.6414   64.0379   63.4100 C   0  0  0  0  0  0  0  0  0  0  0  0
  -34.9431   65.4305   62.0326 H   0  0  0  0  0  0  0  0  0  0  0  0
  -41.6823   59.6051   63.9861 C   0  0  0  0  0  0  0  0  0  0  0  0
  -41.6239   58.1987   63.3995 C   0  0  0  0  0  0  0  0  0  0  0  0
  -42.9190   57.4265   63.5695 C   0  0  0  0  0  0  0  0  0  0  0  0
  -42.9514   56.5005   64.7657 C   0  0  0  0  0  0  0  0  0  0  0  0
  -44.2375   56.5656   65.4415 N   0  0  0  0  0  0  0  0  0  0  0  0
  -43.7034   58.3958   66.6491 O   0  0  0  0  0  0  0  0  0  0  0  0
  -44.5221   57.5146   66.3399 C   0  0  0  0  0  0  0  0  0  0  0  0
  -44.9210   55.8891   65.2306 H   0  0  0  0  0  0  0  0  0  0  0  0
  -46.9958   57.7328   66.4189 C   0  0  0  0  0  0  0  0  0  0  0  0
  -45.8491   57.3730   66.9796 C   0  0  0  0  0  0  0  0  0  0  0  0
  -47.2064   58.3226   65.0594 C   0  0  0  0  0  0  0  0  0  0  0  0
  -47.9725   59.6380   65.1277 C   0  0  0  0  0  0  0  0  0  0  0  0
  -48.9215   59.7344   66.3098 C   0  0  0  0  0  0  0  0  0  0  0  0
  -50.3577   60.0338   65.9139 C   0  0  0  0  0  0  0  0  0  0  0  0
  -50.4983   60.9043   64.6793 C   0  0  0  0  0  0  0  0  0  0  0  0
  -51.1774   60.2002   63.5163 C   0  0  0  0  0  0  0  0  0  0  0  0
  -51.1752   58.6890   63.6387 C   0  0  0  0  0  0  0  0  0  0  0  0
  -50.7727   57.9892   62.3562 C   0  0  0  0  0  0  0  0  0  0  0  0
  -49.3953   58.3647   61.8441 C   0  0  0  0  0  0  0  0  0  0  0  0
  -49.4413   59.0696   60.5028 C   0  0  0  0  0  0  0  0  0  0  0  0
  -48.4793   58.4814   59.4836 C   0  0  0  0  0  0  0  0  0  0  0  0
  -48.9049   57.1308   58.9346 C   0  0  0  0  0  0  0  0  0  0  0  0
  -47.9057   56.0120   59.1857 C   0  0  0  0  0  0  0  0  0  0  0  0
  -47.1410   55.5767   57.9432 C   0  0  0  0  0  0  0  0  0  0  0  0
  -47.6375   56.2350   56.6659 C   0  0  0  0  0  0  0  0  0  0  0  0
  -45.7734   57.8483   57.2122 C   0  0  0  0  0  0  0  0  0  0  0  0
  -46.9616   57.5532   56.3349 C   0  0  0  0  0  0  0  0  0  0  0  0
 43 45  1  0  0  0
 43 42  1  0  0  0
 43 46  1  0  0  0
 64 65  1  0  0  0
 44 45  2  0  0  0
 65 63  1  0  0  0
  2  1  1  0  0  0
  2  4  1  0  0  0
  2  5  1  0  0  0
  3  4  2  0  0  0
 63 62  1  0  0  0
  6  8  1  0  0  0
  6 11  2  0  0  0
  7 10  1  0  0  0
  7 11  1  0  0  0
 62 61  1  0  0  0
 26 28  1  0  0  0
 26 32  1  0  0  0
 26 29  1  0  0  0
 12 18  1  0  0  0
 12 19  1  0  0  0
 61 60  1  0  0  0
 30 36  1  0  0  0
 30 37  1  0  0  0
 30 38  1  0  0  0
 20 21  2  0  0  0
 60 59  1  0  0  0
 22 21  1  0  0  0
 22 23  1  0  0  0
 59 58  1  0  0  0
 27 28  2  0  0  0
 58 57  1  0  0  0
 31 37  2  0  0  0
 57 56  1  0  0  0
 56 55  1  0  0  0
 55 54  1  0  0  0
 54 53  1  0  0  0
 53 52  1  0  0  0
 52 51  1  0  0  0
 51 50  1  0  0  0
 50 49  1  0  0  0
 49 47  1  0  0  0
 47 48  2  0  0  0
 48 45  1  0  0  0
 42 41  1  0  0  0
 41 40  1  0  0  0
 40 39  1  0  0  0
 39  1  1  0  0  0
  1 21  1  0  0  0
  8  4  1  0  0  0
  8  9  1  0  0  0
  8 10  1  0  0  0
 11 13  1  0  0  0
 13 14  2  0  0  0
 13 18  1  0  0  0
 14 15  1  0  0  0
 15 16  2  0  0  0
 16 17  1  0  0  0
 17 18  2  0  0  0
 23 24  1  0  0  0
 23 25  1  0  0  0
 25 28  1  0  0  0
 32 33  1  0  0  0
 32 37  1  0  0  0
 33 34  1  0  0  0
 34 35  1  0  0  0
 35 36  1  0  0  0
M  END
> <minimizedAffinity>
-10.34752

> <CNNscore>
0.1880556643

> <CNNaffinity>
7.4308295250

> <CNN_VS>
1.3974095583

> <CNNaffinity_variance>
1.3856728077

$$$$
/media/chris/experiments/cd1a-new-docking/inputs/ligands/7ryo_ligand.pdb


 65 67  0  0  0  0  0  0  0  0999 V2000
  -37.5094   58.6994   61.1488 C   0  0  0  0  0  0  0  0  0  0  0  0
  -37.6429   58.9913   62.5664 N   0  0  0  0  0  0  0  0  0  0  0  0
  -36.9153   61.1071   62.3487 O   0  0  0  0  0  0  0  0  0  0  0  0
  -37.3270   60.1950   63.0500 C   0  0  0  0  0  0  0  0  0  0  0  0
  -37.9703   58.2924   63.1777 H   0  0  0  0  0  0  0  0  0  0  0  0
  -38.8959   60.5818   64.9104 N   0  0  0  0  0  0  0  0  0  0  0  0
  -38.1475   58.9718   66.3001 O   0  0  0  0  0  0  0  0  0  0  0  0
  -37.4747   60.4136   64.5648 C   0  0  0  0  0  0  0  0  0  0  0  0
  -36.7148   61.6770   64.9575 C   0  0  0  0  0  0  0  0  0  0  0  0
  -37.0336   59.2030   65.4007 C   0  0  0  0  0  0  0  0  0  0  0  0
  -39.1533   59.7637   65.8453 C   0  0  0  0  0  0  0  0  0  0  0  0
  -40.9557   61.9502   66.3494 O   0  0  0  0  0  0  0  0  0  0  0  0
  -40.4492   59.5850   66.5044 C   0  0  0  0  0  0  0  0  0  0  0  0
  -40.9207   58.3022   66.7863 C   0  0  0  0  0  0  0  0  0  0  0  0
  -42.2334   58.1074   67.1804 C   0  0  0  0  0  0  0  0  0  0  0  0
  -43.0923   59.1783   67.2997 C   0  0  0  0  0  0  0  0  0  0  0  0
  -42.6511   60.4592   67.0218 C   0  0  0  0  0  0  0  0  0  0  0  0
  -41.3359   60.6750   66.6223 C   0  0  0  0  0  0  0  0  0  0  0  0
  -40.0770   62.1292   66.0780 H   0  0  0  0  0  0  0  0  0  0  0  0
  -35.5901   58.6833   59.6802 O   0  0  0  0  0  0  0  0  0  0  0  0
  -36.0538   58.4752   60.7674 C   0  0  0  0  0  0  0  0  0  0  0  0
  -35.3615   57.9907   61.8130 O   0  0  0  0  0  0  0  0  0  0  0  0
  -33.9516   58.3709   61.9447 C   0  0  0  0  0  0  0  0  0  0  0  0
  -33.1273   57.1086   61.9702 C   0  0  0  0  0  0  0  0  0  0  0  0
  -33.8584   59.1472   63.2439 C   0  0  0  0  0  0  0  0  0  0  0  0
  -33.9859   61.5519   63.4522 N   0  0  0  0  0  0  0  0  0  0  0  0
  -32.1035   60.6488   62.6139 O   0  0  0  0  0  0  0  0  0  0  0  0
  -33.2353   60.5145   63.0704 C   0  0  0  0  0  0  0  0  0  0  0  0
  -34.8869   61.3838   63.8114 H   0  0  0  0  0  0  0  0  0  0  0  0
  -32.4297   64.4987   64.8625 N   0  0  0  0  0  0  0  0  0  0  0  0
  -33.6829   62.8584   65.7402 O   0  0  0  0  0  0  0  0  0  0  0  0
  -33.5103   62.9208   63.3524 C   0  0  0  0  0  0  0  0  0  0  0  0
  -34.5823   63.8051   62.7058 C   0  0  0  0  0  0  0  0  0  0  0  0
  -34.0385   65.1166   62.1495 C   0  0  0  0  0  0  0  0  0  0  0  0
  -33.4119   66.0468   63.1691 C   0  0  0  0  0  0  0  0  0  0  0  0
  -32.1660   65.4944   63.8293 C   0  0  0  0  0  0  0  0  0  0  0  0
  -33.2149   63.4242   64.7564 C   0  0  0  0  0  0  0  0  0  0  0  0
  -31.9818   64.6333   65.7288 H   0  0  0  0  0  0  0  0  0  0  0  0
  -38.1345   59.8025   60.2934 C   0  0  0  0  0  0  0  0  0  0  0  0
  -39.5042   59.4097   59.7503 C   0  0  0  0  0  0  0  0  0  0  0  0
  -40.5395   59.1963   60.8389 C   0  0  0  0  0  0  0  0  0  0  0  0
  -41.0567   57.7788   60.9516 C   0  0  0  0  0  0  0  0  0  0  0  0
  -41.4095   57.4596   62.3258 N   0  0  0  0  0  0  0  0  0  0  0  0
  -41.8579   55.2916   61.8877 O   0  0  0  0  0  0  0  0  0  0  0  0
  -41.7870   56.2313   62.6966 C   0  0  0  0  0  0  0  0  0  0  0  0
  -41.3692   58.1708   63.0054 H   0  0  0  0  0  0  0  0  0  0  0  0
  -43.2854   56.6406   64.6358 C   0  0  0  0  0  0  0  0  0  0  0  0
  -42.1829   56.1161   64.1180 C   0  0  0  0  0  0  0  0  0  0  0  0
  -44.3492   57.4209   63.9287 C   0  0  0  0  0  0  0  0  0  0  0  0
  -45.2603   58.1494   64.9091 C   0  0  0  0  0  0  0  0  0  0  0  0
  -45.7653   57.2743   66.0432 C   0  0  0  0  0  0  0  0  0  0  0  0
  -47.2767   57.2927   66.1989 C   0  0  0  0  0  0  0  0  0  0  0  0
  -48.0088   58.0572   65.1120 C   0  0  0  0  0  0  0  0  0  0  0  0
  -49.4990   57.7628   65.0637 C   0  0  0  0  0  0  0  0  0  0  0  0
  -50.3430   58.7900   65.7924 C   0  0  0  0  0  0  0  0  0  0  0  0
  -50.1753   60.1934   65.2455 C   0  0  0  0  0  0  0  0  0  0  0  0
  -51.1203   60.5399   64.1110 C   0  0  0  0  0  0  0  0  0  0  0  0
  -51.1778   59.4618   63.0468 C   0  0  0  0  0  0  0  0  0  0  0  0
  -50.1793   59.6772   61.9213 C   0  0  0  0  0  0  0  0  0  0  0  0
  -50.0162   58.4822   60.9982 C   0  0  0  0  0  0  0  0  0  0  0  0
  -48.6141   57.8929   60.9818 C   0  0  0  0  0  0  0  0  0  0  0  0
  -48.2031   57.3150   59.6345 C   0  0  0  0  0  0  0  0  0  0  0  0
  -47.4560   58.3042   58.7545 C   0  0  0  0  0  0  0  0  0  0  0  0
  -47.9122   56.9267   56.6880 C   0  0  0  0  0  0  0  0  0  0  0  0
  -46.8945   57.7085   57.4764 C   0  0  0  0  0  0  0  0  0  0  0  0
 43 45  1  0  0  0
 43 42  1  0  0  0
 43 46  1  0  0  0
 64 65  1  0  0  0
 44 45  2  0  0  0
 65 63  1  0  0  0
  2  1  1  0  0  0
  2  4  1  0  0  0
  2  5  1  0  0  0
  3  4  2  0  0  0
 63 62  1  0  0  0
  6  8  1  0  0  0
  6 11  2  0  0  0
  7 10  1  0  0  0
  7 11  1  0  0  0
 62 61  1  0  0  0
 26 28  1  0  0  0
 26 32  1  0  0  0
 26 29  1  0  0  0
 12 18  1  0  0  0
 12 19  1  0  0  0
 61 60  1  0  0  0
 30 36  1  0  0  0
 30 37  1  0  0  0
 30 38  1  0  0  0
 20 21  2  0  0  0
 60 59  1  0  0  0
 22 21  1  0  0  0
 22 23  1  0  0  0
 59 58  1  0  0  0
 27 28  2  0  0  0
 58 57  1  0  0  0
 31 37  2  0  0  0
 57 56  1  0  0  0
 56 55  1  0  0  0
 55 54  1  0  0  0
 54 53  1  0  0  0
 53 52  1  0  0  0
 52 51  1  0  0  0
 51 50  1  0  0  0
 50 49  1  0  0  0
 49 47  1  0  0  0
 47 48  2  0  0  0
 48 45  1  0  0  0
 42 41  1  0  0  0
 41 40  1  0  0  0
 40 39  1  0  0  0
 39  1  1  0  0  0
  1 21  1  0  0  0
  8  4  1  0  0  0
  8  9  1  0  0  0
  8 10  1  0  0  0
 11 13  1  0  0  0
 13 14  2  0  0  0
 13 18  1  0  0  0
 14 15  1  0  0  0
 15 16  2  0  0  0
 16 17  1  0  0  0
 17 18  2  0  0  0
 23 24  1  0  0  0
 23 25  1  0  0  0
 25 28  1  0  0  0
 32 33  1  0  0  0
 32 37  1  0  0  0
 33 34  1  0  0  0
 34 35  1  0  0  0
 35 36  1  0  0  0
M  END
> <minimizedAffinity>
-8.29074

> <CNNscore>
0.1803987622

> <CNNaffinity>
7.6369948387

> <CNN_VS>
1.3777043819

> <CNNaffinity_variance>
1.0513577461

$$$$
/media/chris/experiments/cd1a-new-docking/inputs/ligands/7ryo_ligand.pdb


 65 67  0  0  0  0  0  0  0  0999 V2000
  -40.8612   60.3193   64.6525 C   0  0  0  0  0  0  0  0  0  0  0  0
  -41.8280   59.5578   65.4259 N   0  0  0  0  0  0  0  0  0  0  0  0
  -42.5941   58.4344   63.6357 O   0  0  0  0  0  0  0  0  0  0  0  0
  -42.6252   58.6643   64.8355 C   0  0  0  0  0  0  0  0  0  0  0  0
  -41.8958   59.7029   66.3973 H   0  0  0  0  0  0  0  0  0  0  0  0
  -44.8936   58.6803   65.7980 N   0  0  0  0  0  0  0  0  0  0  0  0
  -45.5125   56.5983   65.1933 O   0  0  0  0  0  0  0  0  0  0  0  0
  -43.6361   57.9184   65.7220 C   0  0  0  0  0  0  0  0  0  0  0  0
  -43.0537   57.7794   67.1254 C   0  0  0  0  0  0  0  0  0  0  0  0
  -44.0635   56.5596   65.1477 C   0  0  0  0  0  0  0  0  0  0  0  0
  -45.8332   57.8836   65.4948 C   0  0  0  0  0  0  0  0  0  0  0  0
  -47.8823   56.0471   66.3386 O   0  0  0  0  0  0  0  0  0  0  0  0
  -47.2599   58.2109   65.4411 C   0  0  0  0  0  0  0  0  0  0  0  0
  -47.6704   59.5018   65.1054 C   0  0  0  0  0  0  0  0  0  0  0  0
  -48.9869   59.8893   65.2863 C   0  0  0  0  0  0  0  0  0  0  0  0
  -49.9102   59.0051   65.8004 C   0  0  0  0  0  0  0  0  0  0  0  0
  -49.5282   57.7215   66.1453 C   0  0  0  0  0  0  0  0  0  0  0  0
  -48.2090   57.3139   65.9729 C   0  0  0  0  0  0  0  0  0  0  0  0
  -47.0025   55.7419   66.2354 H   0  0  0  0  0  0  0  0  0  0  0  0
  -39.4973   60.5539   66.6338 O   0  0  0  0  0  0  0  0  0  0  0  0
  -39.5750   60.5335   65.4364 C   0  0  0  0  0  0  0  0  0  0  0  0
  -38.5384   60.7181   64.6005 O   0  0  0  0  0  0  0  0  0  0  0  0
  -37.2097   60.2805   65.0396 C   0  0  0  0  0  0  0  0  0  0  0  0
  -37.2456   58.7838   65.2185 C   0  0  0  0  0  0  0  0  0  0  0  0
  -36.9499   61.0113   66.3426 C   0  0  0  0  0  0  0  0  0  0  0  0
  -35.2333   62.3365   65.2752 N   0  0  0  0  0  0  0  0  0  0  0  0
  -36.6025   63.3449   66.7483 O   0  0  0  0  0  0  0  0  0  0  0  0
  -36.2470   62.3360   66.1457 C   0  0  0  0  0  0  0  0  0  0  0  0
  -34.9926   61.4969   64.8210 H   0  0  0  0  0  0  0  0  0  0  0  0
  -33.4164   64.4841   62.9990 N   0  0  0  0  0  0  0  0  0  0  0  0
  -33.7122   62.2631   63.1040 O   0  0  0  0  0  0  0  0  0  0  0  0
  -34.4762   63.5405   64.9800 C   0  0  0  0  0  0  0  0  0  0  0  0
  -33.3851   63.7489   66.0362 C   0  0  0  0  0  0  0  0  0  0  0  0
  -32.8473   65.1749   66.0859 C   0  0  0  0  0  0  0  0  0  0  0  0
  -32.1779   65.6635   64.8167 C   0  0  0  0  0  0  0  0  0  0  0  0
  -33.1072   65.7650   63.6252 C   0  0  0  0  0  0  0  0  0  0  0  0
  -33.8342   63.3740   63.6117 C   0  0  0  0  0  0  0  0  0  0  0  0
  -33.3056   64.4330   62.0221 H   0  0  0  0  0  0  0  0  0  0  0  0
  -41.4475   61.6539   64.1898 C   0  0  0  0  0  0  0  0  0  0  0  0
  -41.7949   61.6514   62.7050 C   0  0  0  0  0  0  0  0  0  0  0  0
  -41.1436   60.5134   61.9412 C   0  0  0  0  0  0  0  0  0  0  0  0
  -39.9653   60.9195   61.0832 C   0  0  0  0  0  0  0  0  0  0  0  0
  -38.7453   60.2652   61.5285 N   0  0  0  0  0  0  0  0  0  0  0  0
  -38.1920   59.5181   59.4720 O   0  0  0  0  0  0  0  0  0  0  0  0
  -37.9420   59.6077   60.6851 C   0  0  0  0  0  0  0  0  0  0  0  0
  -38.5028   60.3076   62.4817 H   0  0  0  0  0  0  0  0  0  0  0  0
  -36.8096   57.7026   61.8083 C   0  0  0  0  0  0  0  0  0  0  0  0
  -36.7905   58.9403   61.3325 C   0  0  0  0  0  0  0  0  0  0  0  0
  -37.9459   56.7286   61.7845 C   0  0  0  0  0  0  0  0  0  0  0  0
  -39.1762   57.2798   62.4948 C   0  0  0  0  0  0  0  0  0  0  0  0
  -40.3275   56.2928   62.5823 C   0  0  0  0  0  0  0  0  0  0  0  0
  -41.3066   56.3964   61.4248 C   0  0  0  0  0  0  0  0  0  0  0  0
  -41.2230   57.6973   60.6486 C   0  0  0  0  0  0  0  0  0  0  0  0
  -41.5197   57.5380   59.1666 C   0  0  0  0  0  0  0  0  0  0  0  0
  -41.5778   58.8539   58.4159 C   0  0  0  0  0  0  0  0  0  0  0  0
  -42.1836   58.7233   57.0329 C   0  0  0  0  0  0  0  0  0  0  0  0
  -43.6508   59.0994   56.9543 C   0  0  0  0  0  0  0  0  0  0  0  0
  -44.5697   57.9566   57.3384 C   0  0  0  0  0  0  0  0  0  0  0  0
  -46.0363   58.3539   57.3761 C   0  0  0  0  0  0  0  0  0  0  0  0
  -46.7895   57.8356   58.5888 C   0  0  0  0  0  0  0  0  0  0  0  0
  -48.2765   57.6183   58.3543 C   0  0  0  0  0  0  0  0  0  0  0  0
  -49.1653   58.2055   59.4420 C   0  0  0  0  0  0  0  0  0  0  0  0
  -49.1836   57.3806   60.7189 C   0  0  0  0  0  0  0  0  0  0  0  0
  -49.6938   59.6443   61.7145 C   0  0  0  0  0  0  0  0  0  0  0  0
  -49.4778   58.1771   61.9771 C   0  0  0  0  0  0  0  0  0  0  0  0
 43 45  1  0  0  0
 43 42  1  0  0  0
 43 46  1  0  0  0
 64 65  1  0  0  0
 44 45  2  0  0  0
 65 63  1  0  0  0
  2  1  1  0  0  0
  2  4  1  0  0  0
  2  5  1  0  0  0
  3  4  2  0  0  0
 63 62  1  0  0  0
  6  8  1  0  0  0
  6 11  2  0  0  0
  7 10  1  0  0  0
  7 11  1  0  0  0
 62 61  1  0  0  0
 26 28  1  0  0  0
 26 32  1  0  0  0
 26 29  1  0  0  0
 12 18  1  0  0  0
 12 19  1  0  0  0
 61 60  1  0  0  0
 30 36  1  0  0  0
 30 37  1  0  0  0
 30 38  1  0  0  0
 20 21  2  0  0  0
 60 59  1  0  0  0
 22 21  1  0  0  0
 22 23  1  0  0  0
 59 58  1  0  0  0
 27 28  2  0  0  0
 58 57  1  0  0  0
 31 37  2  0  0  0
 57 56  1  0  0  0
 56 55  1  0  0  0
 55 54  1  0  0  0
 54 53  1  0  0  0
 53 52  1  0  0  0
 52 51  1  0  0  0
 51 50  1  0  0  0
 50 49  1  0  0  0
 49 47  1  0  0  0
 47 48  2  0  0  0
 48 45  1  0  0  0
 42 41  1  0  0  0
 41 40  1  0  0  0
 40 39  1  0  0  0
 39  1  1  0  0  0
  1 21  1  0  0  0
  8  4  1  0  0  0
  8  9  1  0  0  0
  8 10  1  0  0  0
 11 13  1  0  0  0
 13 14  2  0  0  0
 13 18  1  0  0  0
 14 15  1  0  0  0
 15 16  2  0  0  0
 16 17  1  0  0  0
 17 18  2  0  0  0
 23 24  1  0  0  0
 23 25  1  0  0  0
 25 28  1  0  0  0
 32 33  1  0  0  0
 32 37  1  0  0  0
 33 34  1  0  0  0
 34 35  1  0  0  0
 35 36  1  0  0  0
M  END
> <minimizedAffinity>
-8.20878

> <CNNscore>
0.1757639647

> <CNNaffinity>
7.6683683395

> <CNN_VS>
1.3478227854

> <CNNaffinity_variance>
1.8318080902

$$$$
