/media/chris/experiments/cd1a-new-docking/inputs/ligands/7ryo_ligand.pdb


 65 67  0  0  0  0  0  0  0  0999 V2000
  -35.1435   58.3184   63.5297 C   0  0  0  0  0  0  0  0  0  0  0  0
  -36.3745   59.0837   63.6353 N   0  0  0  0  0  0  0  0  0  0  0  0
  -37.0964   57.9504   65.4376 O   0  0  0  0  0  0  0  0  0  0  0  0
  -37.2601   58.8258   64.6007 C   0  0  0  0  0  0  0  0  0  0  0  0
  -36.5577   59.8015   62.9868 H   0  0  0  0  0  0  0  0  0  0  0  0
  -39.7103   58.8100   64.3403 N   0  0  0  0  0  0  0  0  0  0  0  0
  -40.2417   59.8901   66.2466 O   0  0  0  0  0  0  0  0  0  0  0  0
  -38.5475   59.6660   64.6274 C   0  0  0  0  0  0  0  0  0  0  0  0
  -38.4520   60.7496   63.5577 C   0  0  0  0  0  0  0  0  0  0  0  0
  -38.8593   60.2586   66.0095 C   0  0  0  0  0  0  0  0  0  0  0  0
  -40.5555   59.0033   65.2664 C   0  0  0  0  0  0  0  0  0  0  0  0
  -42.1500   59.1641   67.6570 O   0  0  0  0  0  0  0  0  0  0  0  0
  -41.8662   58.3605   65.3880 C   0  0  0  0  0  0  0  0  0  0  0  0
  -42.4564   57.7571   64.2768 C   0  0  0  0  0  0  0  0  0  0  0  0
  -43.7837   57.3656   64.3125 C   0  0  0  0  0  0  0  0  0  0  0  0
  -44.5400   57.5663   65.4467 C   0  0  0  0  0  0  0  0  0  0  0  0
  -43.9803   58.1663   66.5599 C   0  0  0  0  0  0  0  0  0  0  0  0
  -42.6485   58.5686   66.5425 C   0  0  0  0  0  0  0  0  0  0  0  0
  -41.2569   59.4468   67.6776 H   0  0  0  0  0  0  0  0  0  0  0  0
  -33.3080   59.3221   64.7398 O   0  0  0  0  0  0  0  0  0  0  0  0
  -33.9238   59.2084   63.7160 C   0  0  0  0  0  0  0  0  0  0  0  0
  -33.6427   59.8675   62.5785 O   0  0  0  0  0  0  0  0  0  0  0  0
  -32.2370   59.9924   62.1810 C   0  0  0  0  0  0  0  0  0  0  0  0
  -31.5463   58.6877   62.4884 C   0  0  0  0  0  0  0  0  0  0  0  0
  -31.6834   61.1444   62.9970 C   0  0  0  0  0  0  0  0  0  0  0  0
  -32.5834   63.3871   62.9465 N   0  0  0  0  0  0  0  0  0  0  0  0
  -31.2927   62.7130   61.2313 O   0  0  0  0  0  0  0  0  0  0  0  0
  -31.8360   62.4821   62.3079 C   0  0  0  0  0  0  0  0  0  0  0  0
  -32.7155   64.2727   62.5372 H   0  0  0  0  0  0  0  0  0  0  0  0
  -35.3621   62.2286   64.9540 N   0  0  0  0  0  0  0  0  0  0  0  0
  -35.2313   63.2398   62.9561 O   0  0  0  0  0  0  0  0  0  0  0  0
  -33.2064   63.1017   64.2271 C   0  0  0  0  0  0  0  0  0  0  0  0
  -33.0240   64.2899   65.1781 C   0  0  0  0  0  0  0  0  0  0  0  0
  -33.2273   63.9339   66.6468 C   0  0  0  0  0  0  0  0  0  0  0  0
  -34.6096   63.4280   67.0092 C   0  0  0  0  0  0  0  0  0  0  0  0
  -34.9791   62.1123   66.3570 C   0  0  0  0  0  0  0  0  0  0  0  0
  -34.6893   62.8626   63.9909 C   0  0  0  0  0  0  0  0  0  0  0  0
  -36.2050   61.7941   64.6898 H   0  0  0  0  0  0  0  0  0  0  0  0
  -35.0710   57.5633   62.2017 C   0  0  0  0  0  0  0  0  0  0  0  0
  -36.3243   57.7572   61.3548 C   0  0  0  0  0  0  0  0  0  0  0  0
  -37.5219   56.9840   61.8748 C   0  0  0  0  0  0  0  0  0  0  0  0
  -38.8618   57.4864   61.3832 C   0  0  0  0  0  0  0  0  0  0  0  0
  -38.7095   58.7103   60.6125 N   0  0  0  0  0  0  0  0  0  0  0  0
  -39.5398   60.2108   59.1451 O   0  0  0  0  0  0  0  0  0  0  0  0
  -39.6766   59.1722   59.8124 C   0  0  0  0  0  0  0  0  0  0  0  0
  -37.8672   59.2152   60.6820 H   0  0  0  0  0  0  0  0  0  0  0  0
  -41.7782   58.2692   58.8423 C   0  0  0  0  0  0  0  0  0  0  0  0
  -40.9322   58.3899   59.8563 C   0  0  0  0  0  0  0  0  0  0  0  0
  -41.6546   58.8553   57.4705 C   0  0  0  0  0  0  0  0  0  0  0  0
  -43.0138   59.2290   56.8921 C   0  0  0  0  0  0  0  0  0  0  0  0
  -44.0092   58.0818   56.8737 C   0  0  0  0  0  0  0  0  0  0  0  0
  -45.4119   58.4869   57.2950 C   0  0  0  0  0  0  0  0  0  0  0  0
  -46.4797   57.4530   56.9913 C   0  0  0  0  0  0  0  0  0  0  0  0
  -47.7601   57.6540   57.7850 C   0  0  0  0  0  0  0  0  0  0  0  0
  -47.5370   57.7401   59.2822 C   0  0  0  0  0  0  0  0  0  0  0  0
  -48.7085   57.2170   60.0890 C   0  0  0  0  0  0  0  0  0  0  0  0
  -49.6766   58.2882   60.5532 C   0  0  0  0  0  0  0  0  0  0  0  0
  -50.9117   57.7129   61.2178 C   0  0  0  0  0  0  0  0  0  0  0  0
  -51.1033   58.1955   62.6462 C   0  0  0  0  0  0  0  0  0  0  0  0
  -51.0184   59.7032   62.8095 C   0  0  0  0  0  0  0  0  0  0  0  0
  -51.1836   60.1861   64.2421 C   0  0  0  0  0  0  0  0  0  0  0  0
  -49.8875   60.6547   64.8891 C   0  0  0  0  0  0  0  0  0  0  0  0
  -48.6892   59.7870   64.5400 C   0  0  0  0  0  0  0  0  0  0  0  0
  -48.1233   58.3020   66.5023 C   0  0  0  0  0  0  0  0  0  0  0  0
  -47.7475   59.5201   65.7002 C   0  0  0  0  0  0  0  0  0  0  0  0
 43 45  1  0  0  0
 43 42  1  0  0  0
 43 46  1  0  0  0
 64 65  1  0  0  0
 44 45  2  0  0  0
 65 63  1  0  0  0
  2  1  1  0  0  0
  2  4  1  0  0  0
  2  5  1  0  0  0
  3  4  2  0  0  0
 63 62  1  0  0  0
  6  8  1  0  0  0
  6 11  2  0  0  0
  7 10  1  0  0  0
  7 11  1  0  0  0
 62 61  1  0  0  0
 26 28  1  0  0  0
 26 32  1  0  0  0
 26 29  1  0  0  0
 12 18  1  0  0  0
 12 19  1  0  0  0
 61 60  1  0  0  0
 30 36  1  0  0  0
 30 37  1  0  0  0
 30 38  1  0  0  0
 20 21  2  0  0  0
 60 59  1  0  0  0
 22 21  1  0  0  0
 22 23  1  0  0  0
 59 58  1  0  0  0
 27 28  2  0  0  0
 58 57  1  0  0  0
 31 37  2  0  0  0
 57 56  1  0  0  0
 56 55  1  0  0  0
 55 54  1  0  0  0
 54 53  1  0  0  0
 53 52  1  0  0  0
 52 51  1  0  0  0
 51 50  1  0  0  0
 50 49  1  0  0  0
 49 47  1  0  0  0
 47 48  2  0  0  0
 48 45  1  0  0  0
 42 41  1  0  0  0
 41 40  1  0  0  0
 40 39  1  0  0  0
 39  1  1  0  0  0
  1 21  1  0  0  0
  8  4  1  0  0  0
  8  9  1  0  0  0
  8 10  1  0  0  0
 11 13  1  0  0  0
 13 14  2  0  0  0
 13 18  1  0  0  0
 14 15  1  0  0  0
 15 16  2  0  0  0
 16 17  1  0  0  0
 17 18  2  0  0  0
 23 24  1  0  0  0
 23 25  1  0  0  0
 25 28  1  0  0  0
 32 33  1  0  0  0
 32 37  1  0  0  0
 33 34  1  0  0  0
 34 35  1  0  0  0
 35 36  1  0  0  0
M  END
> <minimizedAffinity>
-8.96570

> <CNNscore>
0.2700820863

> <CNNaffinity>
7.4144592285

> <CNN_VS>
2.0025126934

> <CNNaffinity_variance>
1.3240232468

$$$$
/media/chris/experiments/cd1a-new-docking/inputs/ligands/7ryo_ligand.pdb


 65 67  0  0  0  0  0  0  0  0999 V2000
  -36.7899   58.6926   64.9972 C   0  0  0  0  0  0  0  0  0  0  0  0
  -37.9823   58.4324   64.2080 N   0  0  0  0  0  0  0  0  0  0  0  0
  -39.3822   58.8575   65.9148 O   0  0  0  0  0  0  0  0  0  0  0  0
  -39.1982   58.5404   64.7490 C   0  0  0  0  0  0  0  0  0  0  0  0
  -37.8923   58.1732   63.2625 H   0  0  0  0  0  0  0  0  0  0  0  0
  -41.4507   57.5478   64.6376 N   0  0  0  0  0  0  0  0  0  0  0  0
  -42.5069   59.2635   63.6257 O   0  0  0  0  0  0  0  0  0  0  0  0
  -40.4062   58.2249   63.8516 C   0  0  0  0  0  0  0  0  0  0  0  0
  -39.9555   57.3013   62.7240 C   0  0  0  0  0  0  0  0  0  0  0  0
  -41.1078   59.4798   63.3114 C   0  0  0  0  0  0  0  0  0  0  0  0
  -42.5324   58.1832   64.4491 C   0  0  0  0  0  0  0  0  0  0  0  0
  -42.8628   57.4937   67.2238 O   0  0  0  0  0  0  0  0  0  0  0  0
  -43.8362   57.8625   65.0349 C   0  0  0  0  0  0  0  0  0  0  0  0
  -45.0007   58.0227   64.2828 C   0  0  0  0  0  0  0  0  0  0  0  0
  -46.2430   57.9599   64.8901 C   0  0  0  0  0  0  0  0  0  0  0  0
  -46.3464   57.7380   66.2461 C   0  0  0  0  0  0  0  0  0  0  0  0
  -45.2076   57.5805   67.0149 C   0  0  0  0  0  0  0  0  0  0  0  0
  -43.9500   57.6424   66.4230 C   0  0  0  0  0  0  0  0  0  0  0  0
  -42.0017   57.5303   66.8563 H   0  0  0  0  0  0  0  0  0  0  0  0
  -36.9749   61.0004   64.3039 O   0  0  0  0  0  0  0  0  0  0  0  0
  -36.4221   60.1685   64.9693 C   0  0  0  0  0  0  0  0  0  0  0  0
  -35.3763   60.4094   65.7790 O   0  0  0  0  0  0  0  0  0  0  0  0
  -34.4890   61.5287   65.4480 C   0  0  0  0  0  0  0  0  0  0  0  0
  -35.0359   62.7698   66.1071 C   0  0  0  0  0  0  0  0  0  0  0  0
  -34.5023   61.6256   63.9347 C   0  0  0  0  0  0  0  0  0  0  0  0
  -32.3590   62.1441   62.9449 N   0  0  0  0  0  0  0  0  0  0  0  0
  -32.9508   59.9826   63.1445 O   0  0  0  0  0  0  0  0  0  0  0  0
  -33.2044   61.1734   63.3035 C   0  0  0  0  0  0  0  0  0  0  0  0
  -31.5015   61.9010   62.5268 H   0  0  0  0  0  0  0  0  0  0  0  0
  -32.9441   65.4986   61.7206 N   0  0  0  0  0  0  0  0  0  0  0  0
  -31.6703   63.8019   60.9927 O   0  0  0  0  0  0  0  0  0  0  0  0
  -32.6691   63.5475   63.1543 C   0  0  0  0  0  0  0  0  0  0  0  0
  -31.7969   64.1176   64.2786 C   0  0  0  0  0  0  0  0  0  0  0  0
  -32.3390   65.4116   64.8761 C   0  0  0  0  0  0  0  0  0  0  0  0
  -32.4457   66.5787   63.9147 C   0  0  0  0  0  0  0  0  0  0  0  0
  -33.4340   66.3650   62.7873 C   0  0  0  0  0  0  0  0  0  0  0  0
  -32.3842   64.2949   61.8612 C   0  0  0  0  0  0  0  0  0  0  0  0
  -33.0360   65.8371   60.8008 H   0  0  0  0  0  0  0  0  0  0  0  0
  -35.6168   57.8284   64.5325 C   0  0  0  0  0  0  0  0  0  0  0  0
  -35.9096   57.1096   63.2199 C   0  0  0  0  0  0  0  0  0  0  0  0
  -35.1248   57.6660   62.0464 C   0  0  0  0  0  0  0  0  0  0  0  0
  -35.9634   58.3637   60.9979 C   0  0  0  0  0  0  0  0  0  0  0  0
  -36.8517   59.3416   61.6058 N   0  0  0  0  0  0  0  0  0  0  0  0
  -38.6010   60.7585   61.4435 O   0  0  0  0  0  0  0  0  0  0  0  0
  -37.8514   59.9140   60.9264 C   0  0  0  0  0  0  0  0  0  0  0  0
  -36.7126   59.5904   62.5482 H   0  0  0  0  0  0  0  0  0  0  0  0
  -39.2026   59.1195   58.9985 C   0  0  0  0  0  0  0  0  0  0  0  0
  -38.0295   59.3984   59.5505 C   0  0  0  0  0  0  0  0  0  0  0  0
  -40.5617   59.2735   59.6065 C   0  0  0  0  0  0  0  0  0  0  0  0
  -41.6080   58.4505   58.8652 C   0  0  0  0  0  0  0  0  0  0  0  0
  -41.6946   58.7617   57.3810 C   0  0  0  0  0  0  0  0  0  0  0  0
  -43.1138   58.9936   56.8900 C   0  0  0  0  0  0  0  0  0  0  0  0
  -44.1686   58.1824   57.6187 C   0  0  0  0  0  0  0  0  0  0  0  0
  -45.5351   58.2311   56.9553 C   0  0  0  0  0  0  0  0  0  0  0  0
  -46.6581   58.5915   57.9080 C   0  0  0  0  0  0  0  0  0  0  0  0
  -47.0470   57.4511   58.8273 C   0  0  0  0  0  0  0  0  0  0  0  0
  -48.4975   57.0230   58.7142 C   0  0  0  0  0  0  0  0  0  0  0  0
  -49.0897   56.6034   60.0451 C   0  0  0  0  0  0  0  0  0  0  0  0
  -50.0031   57.6554   60.6528 C   0  0  0  0  0  0  0  0  0  0  0  0
  -49.3253   58.5511   61.6751 C   0  0  0  0  0  0  0  0  0  0  0  0
  -50.1070   59.8099   62.0178 C   0  0  0  0  0  0  0  0  0  0  0  0
  -51.1088   59.6258   63.1494 C   0  0  0  0  0  0  0  0  0  0  0  0
  -50.8041   60.4775   64.3712 C   0  0  0  0  0  0  0  0  0  0  0  0
  -50.0017   58.4160   65.5889 C   0  0  0  0  0  0  0  0  0  0  0  0
  -50.7688   59.7089   65.6797 C   0  0  0  0  0  0  0  0  0  0  0  0
 43 45  1  0  0  0
 43 42  1  0  0  0
 43 46  1  0  0  0
 64 65  1  0  0  0
 44 45  2  0  0  0
 65 63  1  0  0  0
  2  1  1  0  0  0
  2  4  1  0  0  0
  2  5  1  0  0  0
  3  4  2  0  0  0
 63 62  1  0  0  0
  6  8  1  0  0  0
  6 11  2  0  0  0
  7 10  1  0  0  0
  7 11  1  0  0  0
 62 61  1  0  0  0
 26 28  1  0  0  0
 26 32  1  0  0  0
 26 29  1  0  0  0
 12 18  1  0  0  0
 12 19  1  0  0  0
 61 60  1  0  0  0
 30 36  1  0  0  0
 30 37  1  0  0  0
 30 38  1  0  0  0
 20 21  2  0  0  0
 60 59  1  0  0  0
 22 21  1  0  0  0
 22 23  1  0  0  0
 59 58  1  0  0  0
 27 28  2  0  0  0
 58 57  1  0  0  0
 31 37  2  0  0  0
 57 56  1  0  0  0
 56 55  1  0  0  0
 55 54  1  0  0  0
 54 53  1  0  0  0
 53 52  1  0  0  0
 52 51  1  0  0  0
 51 50  1  0  0  0
 50 49  1  0  0  0
 49 47  1  0  0  0
 47 48  2  0  0  0
 48 45  1  0  0  0
 42 41  1  0  0  0
 41 40  1  0  0  0
 40 39  1  0  0  0
 39  1  1  0  0  0
  1 21  1  0  0  0
  8  4  1  0  0  0
  8  9  1  0  0  0
  8 10  1  0  0  0
 11 13  1  0  0  0
 13 14  2  0  0  0
 13 18  1  0  0  0
 14 15  1  0  0  0
 15 16  2  0  0  0
 16 17  1  0  0  0
 17 18  2  0  0  0
 23 24  1  0  0  0
 23 25  1  0  0  0
 25 28  1  0  0  0
 32 33  1  0  0  0
 32 37  1  0  0  0
 33 34  1  0  0  0
 34 35  1  0  0  0
 35 36  1  0  0  0
M  END
> <minimizedAffinity>
-8.61806

> <CNNscore>
0.2660866380

> <CNNaffinity>
7.4691591263

> <CNN_VS>
1.9874434471

> <CNNaffinity_variance>
0.9836343527

$$$$
/media/chris/experiments/cd1a-new-docking/inputs/ligands/7ryo_ligand.pdb


 65 67  0  0  0  0  0  0  0  0999 V2000
  -39.7424   60.1295   61.3563 C   0  0  0  0  0  0  0  0  0  0  0  0
  -38.8133   59.0714   61.7159 N   0  0  0  0  0  0  0  0  0  0  0  0
  -37.0804   60.4802   61.9725 O   0  0  0  0  0  0  0  0  0  0  0  0
  -37.5377   59.3472   61.9980 C   0  0  0  0  0  0  0  0  0  0  0  0
  -39.1284   58.1393   61.7519 H   0  0  0  0  0  0  0  0  0  0  0  0
  -35.3385   58.3002   61.6253 N   0  0  0  0  0  0  0  0  0  0  0  0
  -34.7581   57.9983   63.7829 O   0  0  0  0  0  0  0  0  0  0  0  0
  -36.6154   58.1673   62.3461 C   0  0  0  0  0  0  0  0  0  0  0  0
  -37.2934   56.8685   61.9205 C   0  0  0  0  0  0  0  0  0  0  0  0
  -36.2014   58.1336   63.8246 C   0  0  0  0  0  0  0  0  0  0  0  0
  -34.4109   58.1980   62.4848 C   0  0  0  0  0  0  0  0  0  0  0  0
  -32.8919   55.9384   61.5517 O   0  0  0  0  0  0  0  0  0  0  0  0
  -32.9726   58.2680   62.2161 C   0  0  0  0  0  0  0  0  0  0  0  0
  -32.3087   59.4942   62.2700 C   0  0  0  0  0  0  0  0  0  0  0  0
  -31.0176   59.6156   61.7858 C   0  0  0  0  0  0  0  0  0  0  0  0
  -30.3703   58.5264   61.2440 C   0  0  0  0  0  0  0  0  0  0  0  0
  -31.0076   57.3011   61.1747 C   0  0  0  0  0  0  0  0  0  0  0  0
  -32.3061   57.1597   61.6542 C   0  0  0  0  0  0  0  0  0  0  0  0
  -33.7656   55.8101   61.8651 H   0  0  0  0  0  0  0  0  0  0  0  0
  -41.4195   61.4105   62.5341 O   0  0  0  0  0  0  0  0  0  0  0  0
  -40.6299   60.5067   62.5330 C   0  0  0  0  0  0  0  0  0  0  0  0
  -40.3922   59.6990   63.5810 O   0  0  0  0  0  0  0  0  0  0  0  0
  -40.2263   60.3118   64.9026 C   0  0  0  0  0  0  0  0  0  0  0  0
  -41.2209   61.4387   65.0238 C   0  0  0  0  0  0  0  0  0  0  0  0
  -38.7918   60.8013   64.9478 C   0  0  0  0  0  0  0  0  0  0  0  0
  -36.9907   61.2808   66.4867 N   0  0  0  0  0  0  0  0  0  0  0  0
  -38.7196   60.0394   67.2161 O   0  0  0  0  0  0  0  0  0  0  0  0
  -38.1660   60.6678   66.3182 C   0  0  0  0  0  0  0  0  0  0  0  0
  -36.5412   61.2209   67.3605 H   0  0  0  0  0  0  0  0  0  0  0  0
  -34.6275   61.5781   63.7626 N   0  0  0  0  0  0  0  0  0  0  0  0
  -34.6297   60.3932   65.6671 O   0  0  0  0  0  0  0  0  0  0  0  0
  -36.3573   62.0326   65.4175 C   0  0  0  0  0  0  0  0  0  0  0  0
  -35.9360   63.4164   65.9248 C   0  0  0  0  0  0  0  0  0  0  0  0
  -35.6871   64.4262   64.8096 C   0  0  0  0  0  0  0  0  0  0  0  0
  -34.5712   64.0718   63.8467 C   0  0  0  0  0  0  0  0  0  0  0  0
  -34.8302   62.8233   63.0299 C   0  0  0  0  0  0  0  0  0  0  0  0
  -35.1285   61.2632   64.9593 C   0  0  0  0  0  0  0  0  0  0  0  0
  -34.0618   60.8989   63.3293 H   0  0  0  0  0  0  0  0  0  0  0  0
  -40.5840   59.7401   60.1401 C   0  0  0  0  0  0  0  0  0  0  0  0
  -40.6525   58.2297   59.9413 C   0  0  0  0  0  0  0  0  0  0  0  0
  -41.7663   57.5729   60.7354 C   0  0  0  0  0  0  0  0  0  0  0  0
  -41.3849   56.2690   61.4015 C   0  0  0  0  0  0  0  0  0  0  0  0
  -40.7575   56.5060   62.6920 N   0  0  0  0  0  0  0  0  0  0  0  0
  -40.9339   56.8675   64.9128 O   0  0  0  0  0  0  0  0  0  0  0  0
  -41.4708   56.6523   63.8138 C   0  0  0  0  0  0  0  0  0  0  0  0
  -39.7757   56.5607   62.7413 H   0  0  0  0  0  0  0  0  0  0  0  0
  -43.8587   57.0913   64.3417 C   0  0  0  0  0  0  0  0  0  0  0  0
  -42.9278   56.4573   63.6416 C   0  0  0  0  0  0  0  0  0  0  0  0
  -43.6602   58.1216   65.4092 C   0  0  0  0  0  0  0  0  0  0  0  0
  -44.3503   57.7272   66.7092 C   0  0  0  0  0  0  0  0  0  0  0  0
  -45.6932   58.4046   66.9210 C   0  0  0  0  0  0  0  0  0  0  0  0
  -46.8669   57.4394   66.9276 C   0  0  0  0  0  0  0  0  0  0  0  0
  -48.0298   57.8621   66.0499 C   0  0  0  0  0  0  0  0  0  0  0  0
  -48.4329   59.3154   66.2376 C   0  0  0  0  0  0  0  0  0  0  0  0
  -49.9050   59.5731   65.9823 C   0  0  0  0  0  0  0  0  0  0  0  0
  -50.1569   60.3994   64.7371 C   0  0  0  0  0  0  0  0  0  0  0  0
  -51.4753   60.1057   64.0473 C   0  0  0  0  0  0  0  0  0  0  0  0
  -51.3150   59.2092   62.8354 C   0  0  0  0  0  0  0  0  0  0  0  0
  -49.8664   58.8606   62.5353 C   0  0  0  0  0  0  0  0  0  0  0  0
  -49.6895   57.8526   61.4130 C   0  0  0  0  0  0  0  0  0  0  0  0
  -49.4346   58.4754   60.0491 C   0  0  0  0  0  0  0  0  0  0  0  0
  -48.5846   57.6134   59.1258 C   0  0  0  0  0  0  0  0  0  0  0  0
  -47.3265   58.3116   58.6352 C   0  0  0  0  0  0  0  0  0  0  0  0
  -47.5918   56.7796   56.6454 C   0  0  0  0  0  0  0  0  0  0  0  0
  -46.6535   57.6364   57.4539 C   0  0  0  0  0  0  0  0  0  0  0  0
 43 45  1  0  0  0
 43 42  1  0  0  0
 43 46  1  0  0  0
 64 65  1  0  0  0
 44 45  2  0  0  0
 65 63  1  0  0  0
  2  1  1  0  0  0
  2  4  1  0  0  0
  2  5  1  0  0  0
  3  4  2  0  0  0
 63 62  1  0  0  0
  6  8  1  0  0  0
  6 11  2  0  0  0
  7 10  1  0  0  0
  7 11  1  0  0  0
 62 61  1  0  0  0
 26 28  1  0  0  0
 26 32  1  0  0  0
 26 29  1  0  0  0
 12 18  1  0  0  0
 12 19  1  0  0  0
 61 60  1  0  0  0
 30 36  1  0  0  0
 30 37  1  0  0  0
 30 38  1  0  0  0
 20 21  2  0  0  0
 60 59  1  0  0  0
 22 21  1  0  0  0
 22 23  1  0  0  0
 59 58  1  0  0  0
 27 28  2  0  0  0
 58 57  1  0  0  0
 31 37  2  0  0  0
 57 56  1  0  0  0
 56 55  1  0  0  0
 55 54  1  0  0  0
 54 53  1  0  0  0
 53 52  1  0  0  0
 52 51  1  0  0  0
 51 50  1  0  0  0
 50 49  1  0  0  0
 49 47  1  0  0  0
 47 48  2  0  0  0
 48 45  1  0  0  0
 42 41  1  0  0  0
 41 40  1  0  0  0
 40 39  1  0  0  0
 39  1  1  0  0  0
  1 21  1  0  0  0
  8  4  1  0  0  0
  8  9  1  0  0  0
  8 10  1  0  0  0
 11 13  1  0  0  0
 13 14  2  0  0  0
 13 18  1  0  0  0
 14 15  1  0  0  0
 15 16  2  0  0  0
 16 17  1  0  0  0
 17 18  2  0  0  0
 23 24  1  0  0  0
 23 25  1  0  0  0
 25 28  1  0  0  0
 32 33  1  0  0  0
 32 37  1  0  0  0
 33 34  1  0  0  0
 34 35  1  0  0  0
 35 36  1  0  0  0
M  END
> <minimizedAffinity>
-9.40269

> <CNNscore>
0.2360723466

> <CNNaffinity>
7.8408508301

> <CNN_VS>
1.8510080576

> <CNNaffinity_variance>
0.9832369089

$$$$
/media/chris/experiments/cd1a-new-docking/inputs/ligands/7ryo_ligand.pdb


 65 67  0  0  0  0  0  0  0  0999 V2000
  -37.8429   60.7418   65.1113 C   0  0  0  0  0  0  0  0  0  0  0  0
  -37.2126   59.9217   64.0903 N   0  0  0  0  0  0  0  0  0  0  0  0
  -38.8060   60.3425   62.5613 O   0  0  0  0  0  0  0  0  0  0  0  0
  -37.7623   59.7926   62.8804 C   0  0  0  0  0  0  0  0  0  0  0  0
  -36.3695   59.4555   64.2933 H   0  0  0  0  0  0  0  0  0  0  0  0
  -35.6026   59.1890   61.8590 N   0  0  0  0  0  0  0  0  0  0  0  0
  -35.7271   56.9559   62.1433 O   0  0  0  0  0  0  0  0  0  0  0  0
  -37.0437   58.8878   61.8659 C   0  0  0  0  0  0  0  0  0  0  0  0
  -37.6138   59.1544   60.4761 C   0  0  0  0  0  0  0  0  0  0  0  0
  -37.1060   57.3968   62.2286 C   0  0  0  0  0  0  0  0  0  0  0  0
  -34.9894   58.0897   62.0167 C   0  0  0  0  0  0  0  0  0  0  0  0
  -33.2545   59.8873   63.4456 O   0  0  0  0  0  0  0  0  0  0  0  0
  -33.5365   57.9109   62.0712 C   0  0  0  0  0  0  0  0  0  0  0  0
  -32.9517   56.7609   61.5395 C   0  0  0  0  0  0  0  0  0  0  0  0
  -31.6243   56.4647   61.7972 C   0  0  0  0  0  0  0  0  0  0  0  0
  -30.8623   57.3021   62.5825 C   0  0  0  0  0  0  0  0  0  0  0  0
  -31.4191   58.4458   63.1252 C   0  0  0  0  0  0  0  0  0  0  0  0
  -32.7521   58.7594   62.8793 C   0  0  0  0  0  0  0  0  0  0  0  0
  -34.1486   60.1267   63.2997 H   0  0  0  0  0  0  0  0  0  0  0  0
  -36.9993   61.9709   67.0134 O   0  0  0  0  0  0  0  0  0  0  0  0
  -36.8060   61.4997   65.9267 C   0  0  0  0  0  0  0  0  0  0  0  0
  -35.6468   61.5872   65.2515 O   0  0  0  0  0  0  0  0  0  0  0  0
  -35.1957   62.9142   64.8211 C   0  0  0  0  0  0  0  0  0  0  0  0
  -35.3160   62.9847   63.3196 C   0  0  0  0  0  0  0  0  0  0  0  0
  -33.7584   63.0282   65.2906 C   0  0  0  0  0  0  0  0  0  0  0  0
  -32.9103   65.2237   65.8406 N   0  0  0  0  0  0  0  0  0  0  0  0
  -33.9625   64.0498   67.4460 O   0  0  0  0  0  0  0  0  0  0  0  0
  -33.5519   64.1422   66.2925 C   0  0  0  0  0  0  0  0  0  0  0  0
  -32.7486   65.9754   66.4555 H   0  0  0  0  0  0  0  0  0  0  0  0
  -30.5855   64.3959   63.1942 N   0  0  0  0  0  0  0  0  0  0  0  0
  -30.3673   64.6015   65.4171 O   0  0  0  0  0  0  0  0  0  0  0  0
  -32.4447   65.3220   64.4684 C   0  0  0  0  0  0  0  0  0  0  0  0
  -32.4146   66.7894   64.0262 C   0  0  0  0  0  0  0  0  0  0  0  0
  -32.3843   66.9709   62.5125 C   0  0  0  0  0  0  0  0  0  0  0  0
  -31.1739   66.3878   61.8104 C   0  0  0  0  0  0  0  0  0  0  0  0
  -31.0684   64.8802   61.9055 C   0  0  0  0  0  0  0  0  0  0  0  0
  -31.0410   64.7416   64.4005 C   0  0  0  0  0  0  0  0  0  0  0  0
  -29.8463   63.7461   63.1720 H   0  0  0  0  0  0  0  0  0  0  0  0
  -38.7450   59.9035   66.0183 C   0  0  0  0  0  0  0  0  0  0  0  0
  -40.1571   60.4707   66.1165 C   0  0  0  0  0  0  0  0  0  0  0  0
  -41.1583   59.7340   65.2462 C   0  0  0  0  0  0  0  0  0  0  0  0
  -40.7210   58.3534   64.8080 C   0  0  0  0  0  0  0  0  0  0  0  0
  -41.0368   58.1261   63.4067 N   0  0  0  0  0  0  0  0  0  0  0  0
  -42.0236   56.8808   61.8037 O   0  0  0  0  0  0  0  0  0  0  0  0
  -41.7658   57.0803   63.0021 C   0  0  0  0  0  0  0  0  0  0  0  0
  -40.7031   58.7628   62.7340 H   0  0  0  0  0  0  0  0  0  0  0  0
  -43.4238   56.4850   64.7543 C   0  0  0  0  0  0  0  0  0  0  0  0
  -42.2954   56.2424   64.1012 C   0  0  0  0  0  0  0  0  0  0  0  0
  -44.3919   57.6039   64.5277 C   0  0  0  0  0  0  0  0  0  0  0  0
  -44.9958   58.1010   65.8353 C   0  0  0  0  0  0  0  0  0  0  0  0
  -46.5086   57.9804   65.8975 C   0  0  0  0  0  0  0  0  0  0  0  0
  -47.2208   58.6586   64.7390 C   0  0  0  0  0  0  0  0  0  0  0  0
  -48.2192   59.7226   65.1547 C   0  0  0  0  0  0  0  0  0  0  0  0
  -49.3318   59.1940   66.0449 C   0  0  0  0  0  0  0  0  0  0  0  0
  -50.7175   59.6155   65.5968 C   0  0  0  0  0  0  0  0  0  0  0  0
  -50.7127   60.3779   64.2870 C   0  0  0  0  0  0  0  0  0  0  0  0
  -51.4651   59.6936   63.1619 C   0  0  0  0  0  0  0  0  0  0  0  0
  -50.7636   58.4461   62.6623 C   0  0  0  0  0  0  0  0  0  0  0  0
  -49.7875   58.7202   61.5299 C   0  0  0  0  0  0  0  0  0  0  0  0
  -49.4711   57.5057   60.6746 C   0  0  0  0  0  0  0  0  0  0  0  0
  -48.0542   57.4834   60.1222 C   0  0  0  0  0  0  0  0  0  0  0  0
  -47.9062   58.1748   58.7738 C   0  0  0  0  0  0  0  0  0  0  0  0
  -46.5984   57.8522   58.0692 C   0  0  0  0  0  0  0  0  0  0  0  0
  -47.2781   55.6144   57.1170 C   0  0  0  0  0  0  0  0  0  0  0  0
  -46.7496   56.9944   56.8260 C   0  0  0  0  0  0  0  0  0  0  0  0
 43 45  1  0  0  0
 43 42  1  0  0  0
 43 46  1  0  0  0
 64 65  1  0  0  0
 44 45  2  0  0  0
 65 63  1  0  0  0
  2  1  1  0  0  0
  2  4  1  0  0  0
  2  5  1  0  0  0
  3  4  2  0  0  0
 63 62  1  0  0  0
  6  8  1  0  0  0
  6 11  2  0  0  0
  7 10  1  0  0  0
  7 11  1  0  0  0
 62 61  1  0  0  0
 26 28  1  0  0  0
 26 32  1  0  0  0
 26 29  1  0  0  0
 12 18  1  0  0  0
 12 19  1  0  0  0
 61 60  1  0  0  0
 30 36  1  0  0  0
 30 37  1  0  0  0
 30 38  1  0  0  0
 20 21  2  0  0  0
 60 59  1  0  0  0
 22 21  1  0  0  0
 22 23  1  0  0  0
 59 58  1  0  0  0
 27 28  2  0  0  0
 58 57  1  0  0  0
 31 37  2  0  0  0
 57 56  1  0  0  0
 56 55  1  0  0  0
 55 54  1  0  0  0
 54 53  1  0  0  0
 53 52  1  0  0  0
 52 51  1  0  0  0
 51 50  1  0  0  0
 50 49  1  0  0  0
 49 47  1  0  0  0
 47 48  2  0  0  0
 48 45  1  0  0  0
 42 41  1  0  0  0
 41 40  1  0  0  0
 40 39  1  0  0  0
 39  1  1  0  0  0
  1 21  1  0  0  0
  8  4  1  0  0  0
  8  9  1  0  0  0
  8 10  1  0  0  0
 11 13  1  0  0  0
 13 14  2  0  0  0
 13 18  1  0  0  0
 14 15  1  0  0  0
 15 16  2  0  0  0
 16 17  1  0  0  0
 17 18  2  0  0  0
 23 24  1  0  0  0
 23 25  1  0  0  0
 25 28  1  0  0  0
 32 33  1  0  0  0
 32 37  1  0  0  0
 33 34  1  0  0  0
 34 35  1  0  0  0
 35 36  1  0  0  0
M  END
> <minimizedAffinity>
-10.47459

> <CNNscore>
0.2028739601

> <CNNaffinity>
7.0910577774

> <CNN_VS>
1.4385910034

> <CNNaffinity_variance>
1.3045724630

$$$$
/media/chris/experiments/cd1a-new-docking/inputs/ligands/7ryo_ligand.pdb


 65 67  0  0  0  0  0  0  0  0999 V2000
  -35.6456   57.7121   62.6521 C   0  0  0  0  0  0  0  0  0  0  0  0
  -36.1240   58.9393   63.2664 N   0  0  0  0  0  0  0  0  0  0  0  0
  -35.2706   58.4345   65.2840 O   0  0  0  0  0  0  0  0  0  0  0  0
  -35.8887   59.1964   64.5553 C   0  0  0  0  0  0  0  0  0  0  0  0
  -36.6281   59.5893   62.7253 H   0  0  0  0  0  0  0  0  0  0  0  0
  -35.3733   61.2652   65.7905 N   0  0  0  0  0  0  0  0  0  0  0  0
  -36.3354   62.7318   64.3739 O   0  0  0  0  0  0  0  0  0  0  0  0
  -36.4498   60.5062   65.1329 C   0  0  0  0  0  0  0  0  0  0  0  0
  -37.5230   60.1711   66.1641 C   0  0  0  0  0  0  0  0  0  0  0  0
  -36.9758   61.4695   64.0586 C   0  0  0  0  0  0  0  0  0  0  0  0
  -35.3969   62.4399   65.3119 C   0  0  0  0  0  0  0  0  0  0  0  0
  -34.0815   62.5892   67.8674 O   0  0  0  0  0  0  0  0  0  0  0  0
  -34.5019   63.5402   65.6779 C   0  0  0  0  0  0  0  0  0  0  0  0
  -34.1412   64.4959   64.7271 C   0  0  0  0  0  0  0  0  0  0  0  0
  -33.1169   65.3907   64.9845 C   0  0  0  0  0  0  0  0  0  0  0  0
  -32.4396   65.3498   66.1838 C   0  0  0  0  0  0  0  0  0  0  0  0
  -32.7744   64.4096   67.1411 C   0  0  0  0  0  0  0  0  0  0  0  0
  -33.7997   63.5004   66.9000 C   0  0  0  0  0  0  0  0  0  0  0  0
  -34.7661   61.9631   67.7361 H   0  0  0  0  0  0  0  0  0  0  0  0
  -34.9514   58.5219   60.4834 O   0  0  0  0  0  0  0  0  0  0  0  0
  -34.6636   58.0054   61.5278 C   0  0  0  0  0  0  0  0  0  0  0  0
  -33.4296   57.5862   61.8579 O   0  0  0  0  0  0  0  0  0  0  0  0
  -32.4008   57.5745   60.8134 C   0  0  0  0  0  0  0  0  0  0  0  0
  -31.8320   56.1803   60.7328 C   0  0  0  0  0  0  0  0  0  0  0  0
  -31.3669   58.5951   61.2482 C   0  0  0  0  0  0  0  0  0  0  0  0
  -30.7739   59.5719   63.3781 N   0  0  0  0  0  0  0  0  0  0  0  0
  -30.8094   57.3291   63.2021 O   0  0  0  0  0  0  0  0  0  0  0  0
  -30.9553   58.4378   62.6951 C   0  0  0  0  0  0  0  0  0  0  0  0
  -30.5025   59.5225   64.3232 H   0  0  0  0  0  0  0  0  0  0  0  0
  -32.7175   62.5685   62.7982 N   0  0  0  0  0  0  0  0  0  0  0  0
  -33.2758   60.4376   63.2208 O   0  0  0  0  0  0  0  0  0  0  0  0
  -30.9657   60.8750   62.7662 C   0  0  0  0  0  0  0  0  0  0  0  0
  -30.6353   60.8084   61.2708 C   0  0  0  0  0  0  0  0  0  0  0  0
  -30.3660   62.1718   60.6432 C   0  0  0  0  0  0  0  0  0  0  0  0
  -31.5249   63.1482   60.6839 C   0  0  0  0  0  0  0  0  0  0  0  0
  -31.9336   63.5678   62.0803 C   0  0  0  0  0  0  0  0  0  0  0  0
  -32.4212   61.2754   62.9479 C   0  0  0  0  0  0  0  0  0  0  0  0
  -33.5526   62.8803   63.2159 H   0  0  0  0  0  0  0  0  0  0  0  0
  -36.8070   56.8517   62.1523 C   0  0  0  0  0  0  0  0  0  0  0  0
  -38.0799   57.6633   61.9372 C   0  0  0  0  0  0  0  0  0  0  0  0
  -39.3362   56.9291   62.3675 C   0  0  0  0  0  0  0  0  0  0  0  0
  -40.5676   57.7997   62.4904 C   0  0  0  0  0  0  0  0  0  0  0  0
  -40.5423   58.5684   63.7247 N   0  0  0  0  0  0  0  0  0  0  0  0
  -41.1188   58.7989   65.8946 O   0  0  0  0  0  0  0  0  0  0  0  0
  -41.1304   58.1350   64.8450 C   0  0  0  0  0  0  0  0  0  0  0  0
  -40.0772   59.4361   63.7359 H   0  0  0  0  0  0  0  0  0  0  0  0
  -42.9877   56.5299   64.4611 C   0  0  0  0  0  0  0  0  0  0  0  0
  -41.7162   56.7797   64.7431 C   0  0  0  0  0  0  0  0  0  0  0  0
  -44.0743   57.5184   64.1736 C   0  0  0  0  0  0  0  0  0  0  0  0
  -44.7175   58.0379   65.4535 C   0  0  0  0  0  0  0  0  0  0  0  0
  -46.1668   58.4599   65.2843 C   0  0  0  0  0  0  0  0  0  0  0  0
  -47.0236   58.1984   66.5118 C   0  0  0  0  0  0  0  0  0  0  0  0
  -48.2281   59.1117   66.6404 C   0  0  0  0  0  0  0  0  0  0  0  0
  -48.4166   60.0364   65.4492 C   0  0  0  0  0  0  0  0  0  0  0  0
  -49.8708   60.2783   65.0947 C   0  0  0  0  0  0  0  0  0  0  0  0
  -50.4592   59.1885   64.2213 C   0  0  0  0  0  0  0  0  0  0  0  0
  -49.4510   58.1673   63.7305 C   0  0  0  0  0  0  0  0  0  0  0  0
  -48.8823   58.5138   62.3686 C   0  0  0  0  0  0  0  0  0  0  0  0
  -49.9362   58.9905   61.3827 C   0  0  0  0  0  0  0  0  0  0  0  0
  -50.3049   57.9663   60.3235 C   0  0  0  0  0  0  0  0  0  0  0  0
  -49.3203   56.8138   60.2003 C   0  0  0  0  0  0  0  0  0  0  0  0
  -48.4790   56.8533   58.9319 C   0  0  0  0  0  0  0  0  0  0  0  0
  -47.1523   57.5742   59.1084 C   0  0  0  0  0  0  0  0  0  0  0  0
  -47.1785   57.4269   56.5877 C   0  0  0  0  0  0  0  0  0  0  0  0
  -46.4421   57.9099   57.8096 C   0  0  0  0  0  0  0  0  0  0  0  0
 43 45  1  0  0  0
 43 42  1  0  0  0
 43 46  1  0  0  0
 64 65  1  0  0  0
 44 45  2  0  0  0
 65 63  1  0  0  0
  2  1  1  0  0  0
  2  4  1  0  0  0
  2  5  1  0  0  0
  3  4  2  0  0  0
 63 62  1  0  0  0
  6  8  1  0  0  0
  6 11  2  0  0  0
  7 10  1  0  0  0
  7 11  1  0  0  0
 62 61  1  0  0  0
 26 28  1  0  0  0
 26 32  1  0  0  0
 26 29  1  0  0  0
 12 18  1  0  0  0
 12 19  1  0  0  0
 61 60  1  0  0  0
 30 36  1  0  0  0
 30 37  1  0  0  0
 30 38  1  0  0  0
 20 21  2  0  0  0
 60 59  1  0  0  0
 22 21  1  0  0  0
 22 23  1  0  0  0
 59 58  1  0  0  0
 27 28  2  0  0  0
 58 57  1  0  0  0
 31 37  2  0  0  0
 57 56  1  0  0  0
 56 55  1  0  0  0
 55 54  1  0  0  0
 54 53  1  0  0  0
 53 52  1  0  0  0
 52 51  1  0  0  0
 51 50  1  0  0  0
 50 49  1  0  0  0
 49 47  1  0  0  0
 47 48  2  0  0  0
 48 45  1  0  0  0
 42 41  1  0  0  0
 41 40  1  0  0  0
 40 39  1  0  0  0
 39  1  1  0  0  0
  1 21  1  0  0  0
  8  4  1  0  0  0
  8  9  1  0  0  0
  8 10  1  0  0  0
 11 13  1  0  0  0
 13 14  2  0  0  0
 13 18  1  0  0  0
 14 15  1  0  0  0
 15 16  2  0  0  0
 16 17  1  0  0  0
 17 18  2  0  0  0
 23 24  1  0  0  0
 23 25  1  0  0  0
 25 28  1  0  0  0
 32 33  1  0  0  0
 32 37  1  0  0  0
 33 34  1  0  0  0
 34 35  1  0  0  0
 35 36  1  0  0  0
M  END
> <minimizedAffinity>
-9.05353

> <CNNscore>
0.1964430809

> <CNNaffinity>
7.1953339577

> <CNN_VS>
1.4134736061

> <CNNaffinity_variance>
0.6798766851

$$$$
/media/chris/experiments/cd1a-new-docking/inputs/ligands/7ryo_ligand.pdb


 65 67  0  0  0  0  0  0  0  0999 V2000
  -38.4710   58.6946   61.6316 C   0  0  0  0  0  0  0  0  0  0  0  0
  -38.0347   59.1533   62.9399 N   0  0  0  0  0  0  0  0  0  0  0  0
  -39.6379   58.0191   64.0340 O   0  0  0  0  0  0  0  0  0  0  0  0
  -38.6709   58.7662   64.0481 C   0  0  0  0  0  0  0  0  0  0  0  0
  -37.2602   59.7571   63.0099 H   0  0  0  0  0  0  0  0  0  0  0  0
  -36.9202   60.0814   65.1781 N   0  0  0  0  0  0  0  0  0  0  0  0
  -38.2634   61.4642   66.3473 O   0  0  0  0  0  0  0  0  0  0  0  0
  -38.1598   59.3158   65.3900 C   0  0  0  0  0  0  0  0  0  0  0  0
  -37.8674   58.1453   66.3238 C   0  0  0  0  0  0  0  0  0  0  0  0
  -39.1139   60.3319   66.0350 C   0  0  0  0  0  0  0  0  0  0  0  0
  -37.0814   61.2143   65.7259 C   0  0  0  0  0  0  0  0  0  0  0  0
  -36.2527   62.4742   68.1772 O   0  0  0  0  0  0  0  0  0  0  0  0
  -36.1018   62.3027   65.7642 C   0  0  0  0  0  0  0  0  0  0  0  0
  -35.4211   62.6739   64.6039 C   0  0  0  0  0  0  0  0  0  0  0  0
  -34.3296   63.5226   64.6712 C   0  0  0  0  0  0  0  0  0  0  0  0
  -33.9007   64.0127   65.8855 C   0  0  0  0  0  0  0  0  0  0  0  0
  -34.5550   63.6566   67.0507 C   0  0  0  0  0  0  0  0  0  0  0  0
  -35.6527   62.8030   67.0037 C   0  0  0  0  0  0  0  0  0  0  0  0
  -36.9943   61.9015   68.1800 H   0  0  0  0  0  0  0  0  0  0  0  0
  -37.2290   59.2882   59.6453 O   0  0  0  0  0  0  0  0  0  0  0  0
  -37.3087   58.6391   60.6515 C   0  0  0  0  0  0  0  0  0  0  0  0
  -36.3909   57.7450   61.0584 O   0  0  0  0  0  0  0  0  0  0  0  0
  -35.0315   58.2236   61.3280 C   0  0  0  0  0  0  0  0  0  0  0  0
  -34.2908   58.2916   60.0163 C   0  0  0  0  0  0  0  0  0  0  0  0
  -34.4249   57.2121   62.2812 C   0  0  0  0  0  0  0  0  0  0  0  0
  -33.7063   58.2739   64.3301 N   0  0  0  0  0  0  0  0  0  0  0  0
  -35.6818   57.1973   64.3186 O   0  0  0  0  0  0  0  0  0  0  0  0
  -34.6626   57.5553   63.7349 C   0  0  0  0  0  0  0  0  0  0  0  0
  -33.8130   58.5203   65.2773 H   0  0  0  0  0  0  0  0  0  0  0  0
  -31.7021   60.8062   62.6978 N   0  0  0  0  0  0  0  0  0  0  0  0
  -33.9140   60.5196   62.9346 O   0  0  0  0  0  0  0  0  0  0  0  0
  -32.5138   58.7017   63.6198 C   0  0  0  0  0  0  0  0  0  0  0  0
  -32.2055   57.7299   62.4752 C   0  0  0  0  0  0  0  0  0  0  0  0
  -30.7697   57.8177   61.9691 C   0  0  0  0  0  0  0  0  0  0  0  0
  -30.3655   59.1570   61.3853 C   0  0  0  0  0  0  0  0  0  0  0  0
  -30.3719   60.2959   62.3833 C   0  0  0  0  0  0  0  0  0  0  0  0
  -32.7706   60.0892   63.0534 C   0  0  0  0  0  0  0  0  0  0  0  0
  -31.8246   61.7813   62.6418 H   0  0  0  0  0  0  0  0  0  0  0  0
  -39.6038   59.5658   61.0869 C   0  0  0  0  0  0  0  0  0  0  0  0
  -40.8649   58.7607   60.7925 C   0  0  0  0  0  0  0  0  0  0  0  0
  -40.7082   57.2790   61.0801 C   0  0  0  0  0  0  0  0  0  0  0  0
  -41.9801   56.5788   61.5060 C   0  0  0  0  0  0  0  0  0  0  0  0
  -41.8032   55.9067   62.7835 N   0  0  0  0  0  0  0  0  0  0  0  0
  -42.2612   55.7492   64.9879 O   0  0  0  0  0  0  0  0  0  0  0  0
  -42.4236   56.3166   63.8951 C   0  0  0  0  0  0  0  0  0  0  0  0
  -41.2073   55.1244   62.8315 H   0  0  0  0  0  0  0  0  0  0  0  0
  -44.2279   57.8720   64.6011 C   0  0  0  0  0  0  0  0  0  0  0  0
  -43.3668   57.4387   63.6905 C   0  0  0  0  0  0  0  0  0  0  0  0
  -44.4236   57.3611   65.9944 C   0  0  0  0  0  0  0  0  0  0  0  0
  -45.6466   57.9830   66.6569 C   0  0  0  0  0  0  0  0  0  0  0  0
  -46.9657   57.4012   66.1789 C   0  0  0  0  0  0  0  0  0  0  0  0
  -47.9977   58.4546   65.8120 C   0  0  0  0  0  0  0  0  0  0  0  0
  -47.5258   59.4597   64.7783 C   0  0  0  0  0  0  0  0  0  0  0  0
  -48.6381   60.3482   64.2460 C   0  0  0  0  0  0  0  0  0  0  0  0
  -49.9892   60.0688   64.8745 C   0  0  0  0  0  0  0  0  0  0  0  0
  -50.9017   59.2501   63.9836 C   0  0  0  0  0  0  0  0  0  0  0  0
  -50.5231   59.2678   62.5151 C   0  0  0  0  0  0  0  0  0  0  0  0
  -49.7558   58.0302   62.0933 C   0  0  0  0  0  0  0  0  0  0  0  0
  -50.3231   57.3690   60.8479 C   0  0  0  0  0  0  0  0  0  0  0  0
  -49.8214   57.9657   59.5443 C   0  0  0  0  0  0  0  0  0  0  0  0
  -48.3654   58.4035   59.5778 C   0  0  0  0  0  0  0  0  0  0  0  0
  -47.3980   57.3746   59.0089 C   0  0  0  0  0  0  0  0  0  0  0  0
  -46.7261   57.8235   57.7213 C   0  0  0  0  0  0  0  0  0  0  0  0
  -47.3777   55.4901   57.0094 C   0  0  0  0  0  0  0  0  0  0  0  0
  -46.8084   56.8187   56.5864 C   0  0  0  0  0  0  0  0  0  0  0  0
 43 45  1  0  0  0
 43 42  1  0  0  0
 43 46  1  0  0  0
 64 65  1  0  0  0
 44 45  2  0  0  0
 65 63  1  0  0  0
  2  1  1  0  0  0
  2  4  1  0  0  0
  2  5  1  0  0  0
  3  4  2  0  0  0
 63 62  1  0  0  0
  6  8  1  0  0  0
  6 11  2  0  0  0
  7 10  1  0  0  0
  7 11  1  0  0  0
 62 61  1  0  0  0
 26 28  1  0  0  0
 26 32  1  0  0  0
 26 29  1  0  0  0
 12 18  1  0  0  0
 12 19  1  0  0  0
 61 60  1  0  0  0
 30 36  1  0  0  0
 30 37  1  0  0  0
 30 38  1  0  0  0
 20 21  2  0  0  0
 60 59  1  0  0  0
 22 21  1  0  0  0
 22 23  1  0  0  0
 59 58  1  0  0  0
 27 28  2  0  0  0
 58 57  1  0  0  0
 31 37  2  0  0  0
 57 56  1  0  0  0
 56 55  1  0  0  0
 55 54  1  0  0  0
 54 53  1  0  0  0
 53 52  1  0  0  0
 52 51  1  0  0  0
 51 50  1  0  0  0
 50 49  1  0  0  0
 49 47  1  0  0  0
 47 48  2  0  0  0
 48 45  1  0  0  0
 42 41  1  0  0  0
 41 40  1  0  0  0
 40 39  1  0  0  0
 39  1  1  0  0  0
  1 21  1  0  0  0
  8  4  1  0  0  0
  8  9  1  0  0  0
  8 10  1  0  0  0
 11 13  1  0  0  0
 13 14  2  0  0  0
 13 18  1  0  0  0
 14 15  1  0  0  0
 15 16  2  0  0  0
 16 17  1  0  0  0
 17 18  2  0  0  0
 23 24  1  0  0  0
 23 25  1  0  0  0
 25 28  1  0  0  0
 32 33  1  0  0  0
 32 37  1  0  0  0
 33 34  1  0  0  0
 34 35  1  0  0  0
 35 36  1  0  0  0
M  END
> <minimizedAffinity>
-10.07798

> <CNNscore>
0.1951490045

> <CNNaffinity>
7.7853493690

> <CNN_VS>
1.5193032026

> <CNNaffinity_variance>
1.4065877199

$$$$
/media/chris/experiments/cd1a-new-docking/inputs/ligands/7ryo_ligand.pdb


 65 67  0  0  0  0  0  0  0  0999 V2000
  -36.2765   61.3067   64.9922 C   0  0  0  0  0  0  0  0  0  0  0  0
  -36.5725   60.0946   64.2470 N   0  0  0  0  0  0  0  0  0  0  0  0
  -35.0555   60.5332   62.6471 O   0  0  0  0  0  0  0  0  0  0  0  0
  -35.9215   59.8100   63.1166 C   0  0  0  0  0  0  0  0  0  0  0  0
  -37.2619   59.4755   64.5799 H   0  0  0  0  0  0  0  0  0  0  0  0
  -37.5783   57.9972   62.9156 N   0  0  0  0  0  0  0  0  0  0  0  0
  -37.8935   58.0975   60.6855 O   0  0  0  0  0  0  0  0  0  0  0  0
  -36.3115   58.5196   62.3772 C   0  0  0  0  0  0  0  0  0  0  0  0
  -35.2155   57.4794   62.5878 C   0  0  0  0  0  0  0  0  0  0  0  0
  -36.6080   58.7379   60.8862 C   0  0  0  0  0  0  0  0  0  0  0  0
  -38.3546   57.8082   61.9302 C   0  0  0  0  0  0  0  0  0  0  0  0
  -40.4080   58.6129   60.0811 O   0  0  0  0  0  0  0  0  0  0  0  0
  -39.7244   57.2932   61.9957 C   0  0  0  0  0  0  0  0  0  0  0  0
  -40.0458   56.2688   62.8871 C   0  0  0  0  0  0  0  0  0  0  0  0
  -41.2597   55.6102   62.7918 C   0  0  0  0  0  0  0  0  0  0  0  0
  -42.1673   55.9579   61.8151 C   0  0  0  0  0  0  0  0  0  0  0  0
  -41.8712   56.9665   60.9164 C   0  0  0  0  0  0  0  0  0  0  0  0
  -40.6555   57.6387   60.9948 C   0  0  0  0  0  0  0  0  0  0  0  0
  -39.5987   59.0844   60.1065 H   0  0  0  0  0  0  0  0  0  0  0  0
  -34.2531   60.3831   65.9374 O   0  0  0  0  0  0  0  0  0  0  0  0
  -34.8308   61.3232   65.4655 C   0  0  0  0  0  0  0  0  0  0  0  0
  -34.2945   62.5450   65.3009 O   0  0  0  0  0  0  0  0  0  0  0  0
  -33.4398   63.0744   66.3681 C   0  0  0  0  0  0  0  0  0  0  0  0
  -34.2425   63.0931   67.6443 C   0  0  0  0  0  0  0  0  0  0  0  0
  -33.0403   64.4662   65.9175 C   0  0  0  0  0  0  0  0  0  0  0  0
  -31.7890   64.8594   63.8873 N   0  0  0  0  0  0  0  0  0  0  0  0
  -30.6700   64.1929   65.7219 O   0  0  0  0  0  0  0  0  0  0  0  0
  -31.7258   64.4893   65.1696 C   0  0  0  0  0  0  0  0  0  0  0  0
  -30.9603   64.8875   63.3564 H   0  0  0  0  0  0  0  0  0  0  0  0
  -34.8748   64.0030   62.2027 N   0  0  0  0  0  0  0  0  0  0  0  0
  -32.8430   63.0544   62.2549 O   0  0  0  0  0  0  0  0  0  0  0  0
  -33.0451   65.2213   63.2542 C   0  0  0  0  0  0  0  0  0  0  0  0
  -32.8207   66.3577   62.2503 C   0  0  0  0  0  0  0  0  0  0  0  0
  -34.0968   67.1046   61.8776 C   0  0  0  0  0  0  0  0  0  0  0  0
  -35.1661   66.2701   61.2007 C   0  0  0  0  0  0  0  0  0  0  0  0
  -35.7387   65.1713   62.0711 C   0  0  0  0  0  0  0  0  0  0  0  0
  -33.5797   63.9980   62.5262 C   0  0  0  0  0  0  0  0  0  0  0  0
  -35.2905   63.1265   62.0353 H   0  0  0  0  0  0  0  0  0  0  0  0
  -37.2382   61.4846   66.1681 C   0  0  0  0  0  0  0  0  0  0  0  0
  -38.2546   60.3518   66.2630 C   0  0  0  0  0  0  0  0  0  0  0  0
  -39.5607   60.6605   65.5548 C   0  0  0  0  0  0  0  0  0  0  0  0
  -40.3279   59.4446   65.0834 C   0  0  0  0  0  0  0  0  0  0  0  0
  -41.0340   58.8128   66.1867 N   0  0  0  0  0  0  0  0  0  0  0  0
  -42.8937   57.8359   67.0120 O   0  0  0  0  0  0  0  0  0  0  0  0
  -42.2878   58.3635   66.0649 C   0  0  0  0  0  0  0  0  0  0  0  0
  -40.5741   58.7126   67.0514 H   0  0  0  0  0  0  0  0  0  0  0  0
  -43.9708   57.8974   64.2974 C   0  0  0  0  0  0  0  0  0  0  0  0
  -42.8484   58.4778   64.6999 C   0  0  0  0  0  0  0  0  0  0  0  0
  -44.9013   57.0444   65.1018 C   0  0  0  0  0  0  0  0  0  0  0  0
  -46.1416   57.8161   65.5352 C   0  0  0  0  0  0  0  0  0  0  0  0
  -47.2649   56.9329   66.0502 C   0  0  0  0  0  0  0  0  0  0  0  0
  -48.6390   57.5732   65.9449 C   0  0  0  0  0  0  0  0  0  0  0  0
  -48.6654   59.0551   66.2685 C   0  0  0  0  0  0  0  0  0  0  0  0
  -50.0497   59.6734   66.1621 C   0  0  0  0  0  0  0  0  0  0  0  0
  -50.2071   60.6051   64.9765 C   0  0  0  0  0  0  0  0  0  0  0  0
  -51.5288   60.4319   64.2554 C   0  0  0  0  0  0  0  0  0  0  0  0
  -51.4254   59.7145   62.9232 C   0  0  0  0  0  0  0  0  0  0  0  0
  -50.6307   58.4266   63.0118 C   0  0  0  0  0  0  0  0  0  0  0  0
  -50.3792   57.7833   61.6579 C   0  0  0  0  0  0  0  0  0  0  0  0
  -49.5877   58.6512   60.6950 C   0  0  0  0  0  0  0  0  0  0  0  0
  -49.4028   58.0422   59.3137 C   0  0  0  0  0  0  0  0  0  0  0  0
  -47.9480   57.9247   58.8803 C   0  0  0  0  0  0  0  0  0  0  0  0
  -47.7763   57.7478   57.3802 C   0  0  0  0  0  0  0  0  0  0  0  0
  -47.2286   55.3417   56.8450 C   0  0  0  0  0  0  0  0  0  0  0  0
  -46.7058   56.7472   56.9841 C   0  0  0  0  0  0  0  0  0  0  0  0
 43 45  1  0  0  0
 43 42  1  0  0  0
 43 46  1  0  0  0
 64 65  1  0  0  0
 44 45  2  0  0  0
 65 63  1  0  0  0
  2  1  1  0  0  0
  2  4  1  0  0  0
  2  5  1  0  0  0
  3  4  2  0  0  0
 63 62  1  0  0  0
  6  8  1  0  0  0
  6 11  2  0  0  0
  7 10  1  0  0  0
  7 11  1  0  0  0
 62 61  1  0  0  0
 26 28  1  0  0  0
 26 32  1  0  0  0
 26 29  1  0  0  0
 12 18  1  0  0  0
 12 19  1  0  0  0
 61 60  1  0  0  0
 30 36  1  0  0  0
 30 37  1  0  0  0
 30 38  1  0  0  0
 20 21  2  0  0  0
 60 59  1  0  0  0
 22 21  1  0  0  0
 22 23  1  0  0  0
 59 58  1  0  0  0
 27 28  2  0  0  0
 58 57  1  0  0  0
 31 37  2  0  0  0
 57 56  1  0  0  0
 56 55  1  0  0  0
 55 54  1  0  0  0
 54 53  1  0  0  0
 53 52  1  0  0  0
 52 51  1  0  0  0
 51 50  1  0  0  0
 50 49  1  0  0  0
 49 47  1  0  0  0
 47 48  2  0  0  0
 48 45  1  0  0  0
 42 41  1  0  0  0
 41 40  1  0  0  0
 40 39  1  0  0  0
 39  1  1  0  0  0
  1 21  1  0  0  0
  8  4  1  0  0  0
  8  9  1  0  0  0
  8 10  1  0  0  0
 11 13  1  0  0  0
 13 14  2  0  0  0
 13 18  1  0  0  0
 14 15  1  0  0  0
 15 16  2  0  0  0
 16 17  1  0  0  0
 17 18  2  0  0  0
 23 24  1  0  0  0
 23 25  1  0  0  0
 25 28  1  0  0  0
 32 33  1  0  0  0
 32 37  1  0  0  0
 33 34  1  0  0  0
 34 35  1  0  0  0
 35 36  1  0  0  0
M  END
> <minimizedAffinity>
-9.99818

> <CNNscore>
0.1948134452

> <CNNaffinity>
7.3337335587

> <CNN_VS>
1.4287098646

> <CNNaffinity_variance>
0.7948887944

$$$$
/media/chris/experiments/cd1a-new-docking/inputs/ligands/7ryo_ligand.pdb


 65 67  0  0  0  0  0  0  0  0999 V2000
  -40.6099   58.4105   59.5797 C   0  0  0  0  0  0  0  0  0  0  0  0
  -40.8369   57.9627   60.9436 N   0  0  0  0  0  0  0  0  0  0  0  0
  -41.8670   56.0691   60.3056 O   0  0  0  0  0  0  0  0  0  0  0  0
  -41.4586   56.8070   61.1900 C   0  0  0  0  0  0  0  0  0  0  0  0
  -40.5284   58.5185   61.6954 H   0  0  0  0  0  0  0  0  0  0  0  0
  -41.0206   57.3965   63.5420 N   0  0  0  0  0  0  0  0  0  0  0  0
  -43.1379   57.2626   64.3051 O   0  0  0  0  0  0  0  0  0  0  0  0
  -41.6796   56.4182   62.6611 C   0  0  0  0  0  0  0  0  0  0  0  0
  -41.0705   55.0408   62.9045 C   0  0  0  0  0  0  0  0  0  0  0  0
  -43.1533   56.4711   63.0901 C   0  0  0  0  0  0  0  0  0  0  0  0
  -41.8871   57.7874   64.3821 C   0  0  0  0  0  0  0  0  0  0  0  0
  -40.6835   60.3614   63.9245 O   0  0  0  0  0  0  0  0  0  0  0  0
  -41.6730   58.7625   65.4541 C   0  0  0  0  0  0  0  0  0  0  0  0
  -42.1853   58.5248   66.7301 C   0  0  0  0  0  0  0  0  0  0  0  0
  -42.2042   59.5332   67.6783 C   0  0  0  0  0  0  0  0  0  0  0  0
  -41.7169   60.7857   67.3745 C   0  0  0  0  0  0  0  0  0  0  0  0
  -41.2079   61.0487   66.1158 C   0  0  0  0  0  0  0  0  0  0  0  0
  -41.1823   60.0487   65.1487 C   0  0  0  0  0  0  0  0  0  0  0  0
  -40.6523   59.7105   63.2511 H   0  0  0  0  0  0  0  0  0  0  0  0
  -40.2588   60.7769   59.2374 O   0  0  0  0  0  0  0  0  0  0  0  0
  -39.8145   59.7070   59.5507 C   0  0  0  0  0  0  0  0  0  0  0  0
  -38.5370   59.4847   59.9053 O   0  0  0  0  0  0  0  0  0  0  0  0
  -38.1649   59.6816   61.3098 C   0  0  0  0  0  0  0  0  0  0  0  0
  -37.6731   61.0981   61.4691 C   0  0  0  0  0  0  0  0  0  0  0  0
  -37.0806   58.6594   61.5912 C   0  0  0  0  0  0  0  0  0  0  0  0
  -37.3902   57.7646   63.8151 N   0  0  0  0  0  0  0  0  0  0  0  0
  -38.0345   56.5141   62.0592 O   0  0  0  0  0  0  0  0  0  0  0  0
  -37.5423   57.5467   62.5056 C   0  0  0  0  0  0  0  0  0  0  0  0
  -37.6728   57.0688   64.4516 H   0  0  0  0  0  0  0  0  0  0  0  0
  -34.5936   59.7431   64.9807 N   0  0  0  0  0  0  0  0  0  0  0  0
  -35.0611   57.5510   65.0655 O   0  0  0  0  0  0  0  0  0  0  0  0
  -36.8196   58.9987   64.3262 C   0  0  0  0  0  0  0  0  0  0  0  0
  -37.6708   59.5326   65.4838 C   0  0  0  0  0  0  0  0  0  0  0  0
  -37.4366   61.0093   65.7840 C   0  0  0  0  0  0  0  0  0  0  0  0
  -36.0285   61.3716   66.2127 C   0  0  0  0  0  0  0  0  0  0  0  0
  -34.9772   61.1408   65.1476 C   0  0  0  0  0  0  0  0  0  0  0  0
  -35.4139   58.7016   64.8237 C   0  0  0  0  0  0  0  0  0  0  0  0
  -33.6288   59.5474   64.9845 H   0  0  0  0  0  0  0  0  0  0  0  0
  -41.9275   58.5608   58.8179 C   0  0  0  0  0  0  0  0  0  0  0  0
  -41.7119   58.8090   57.3288 C   0  0  0  0  0  0  0  0  0  0  0  0
  -43.0077   58.8945   56.5439 C   0  0  0  0  0  0  0  0  0  0  0  0
  -44.2542   58.5856   57.3441 C   0  0  0  0  0  0  0  0  0  0  0  0
  -45.0474   57.5528   56.6968 N   0  0  0  0  0  0  0  0  0  0  0  0
  -47.0407   56.5552   56.3424 O   0  0  0  0  0  0  0  0  0  0  0  0
  -46.3671   57.4458   56.8860 C   0  0  0  0  0  0  0  0  0  0  0  0
  -44.5984   56.9114   56.0998 H   0  0  0  0  0  0  0  0  0  0  0  0
  -47.5569   58.3138   58.8871 C   0  0  0  0  0  0  0  0  0  0  0  0
  -46.9533   58.5159   57.7237 C   0  0  0  0  0  0  0  0  0  0  0  0
  -47.7593   57.0140   59.6014 C   0  0  0  0  0  0  0  0  0  0  0  0
  -49.2188   56.8016   59.9836 C   0  0  0  0  0  0  0  0  0  0  0  0
  -50.0416   58.0783   59.9973 C   0  0  0  0  0  0  0  0  0  0  0  0
  -49.8854   58.8888   61.2731 C   0  0  0  0  0  0  0  0  0  0  0  0
  -50.5801   58.2922   62.4826 C   0  0  0  0  0  0  0  0  0  0  0  0
  -51.7148   59.1522   63.0143 C   0  0  0  0  0  0  0  0  0  0  0  0
  -51.2668   60.5217   63.4860 C   0  0  0  0  0  0  0  0  0  0  0  0
  -51.0908   60.6048   64.9890 C   0  0  0  0  0  0  0  0  0  0  0  0
  -50.7642   59.2819   65.6548 C   0  0  0  0  0  0  0  0  0  0  0  0
  -49.3731   59.2571   66.2568 C   0  0  0  0  0  0  0  0  0  0  0  0
  -48.4519   60.3199   65.6807 C   0  0  0  0  0  0  0  0  0  0  0  0
  -47.6917   59.8783   64.4421 C   0  0  0  0  0  0  0  0  0  0  0  0
  -47.5896   58.3699   64.2773 C   0  0  0  0  0  0  0  0  0  0  0  0
  -46.4457   57.7393   65.0595 C   0  0  0  0  0  0  0  0  0  0  0  0
  -46.9114   56.8670   66.2142 C   0  0  0  0  0  0  0  0  0  0  0  0
  -45.8129   58.7080   67.5485 C   0  0  0  0  0  0  0  0  0  0  0  0
  -46.4944   57.3654   67.5860 C   0  0  0  0  0  0  0  0  0  0  0  0
 43 45  1  0  0  0
 43 42  1  0  0  0
 43 46  1  0  0  0
 64 65  1  0  0  0
 44 45  2  0  0  0
 65 63  1  0  0  0
  2  1  1  0  0  0
  2  4  1  0  0  0
  2  5  1  0  0  0
  3  4  2  0  0  0
 63 62  1  0  0  0
  6  8  1  0  0  0
  6 11  2  0  0  0
  7 10  1  0  0  0
  7 11  1  0  0  0
 62 61  1  0  0  0
 26 28  1  0  0  0
 26 32  1  0  0  0
 26 29  1  0  0  0
 12 18  1  0  0  0
 12 19  1  0  0  0
 61 60  1  0  0  0
 30 36  1  0  0  0
 30 37  1  0  0  0
 30 38  1  0  0  0
 20 21  2  0  0  0
 60 59  1  0  0  0
 22 21  1  0  0  0
 22 23  1  0  0  0
 59 58  1  0  0  0
 27 28  2  0  0  0
 58 57  1  0  0  0
 31 37  2  0  0  0
 57 56  1  0  0  0
 56 55  1  0  0  0
 55 54  1  0  0  0
 54 53  1  0  0  0
 53 52  1  0  0  0
 52 51  1  0  0  0
 51 50  1  0  0  0
 50 49  1  0  0  0
 49 47  1  0  0  0
 47 48  2  0  0  0
 48 45  1  0  0  0
 42 41  1  0  0  0
 41 40  1  0  0  0
 40 39  1  0  0  0
 39  1  1  0  0  0
  1 21  1  0  0  0
  8  4  1  0  0  0
  8  9  1  0  0  0
  8 10  1  0  0  0
 11 13  1  0  0  0
 13 14  2  0  0  0
 13 18  1  0  0  0
 14 15  1  0  0  0
 15 16  2  0  0  0
 16 17  1  0  0  0
 17 18  2  0  0  0
 23 24  1  0  0  0
 23 25  1  0  0  0
 25 28  1  0  0  0
 32 33  1  0  0  0
 32 37  1  0  0  0
 33 34  1  0  0  0
 34 35  1  0  0  0
 35 36  1  0  0  0
M  END
> <minimizedAffinity>
-7.82550

> <CNNscore>
0.1869071126

> <CNNaffinity>
7.9212174416

> <CNN_VS>
1.4805319309

> <CNNaffinity_variance>
2.5781536102

$$$$
/media/chris/experiments/cd1a-new-docking/inputs/ligands/7ryo_ligand.pdb


 65 67  0  0  0  0  0  0  0  0999 V2000
  -37.0516   57.5695   64.0593 C   0  0  0  0  0  0  0  0  0  0  0  0
  -38.1979   58.4401   64.2600 N   0  0  0  0  0  0  0  0  0  0  0  0
  -39.6414   57.0011   63.3116 O   0  0  0  0  0  0  0  0  0  0  0  0
  -39.4167   58.0701   63.8596 C   0  0  0  0  0  0  0  0  0  0  0  0
  -38.0742   59.3137   64.6968 H   0  0  0  0  0  0  0  0  0  0  0  0
  -41.8615   58.3672   63.9378 N   0  0  0  0  0  0  0  0  0  0  0  0
  -41.9932   59.4127   65.9310 O   0  0  0  0  0  0  0  0  0  0  0  0
  -40.5711   59.0597   64.0884 C   0  0  0  0  0  0  0  0  0  0  0  0
  -40.4802   60.1729   63.0491 C   0  0  0  0  0  0  0  0  0  0  0  0
  -40.6187   59.6198   65.5176 C   0  0  0  0  0  0  0  0  0  0  0  0
  -42.5449   58.6186   64.9767 C   0  0  0  0  0  0  0  0  0  0  0  0
  -43.2348   57.2543   67.4152 O   0  0  0  0  0  0  0  0  0  0  0  0
  -43.8993   58.1364   65.2576 C   0  0  0  0  0  0  0  0  0  0  0  0
  -44.9494   58.4553   64.3956 C   0  0  0  0  0  0  0  0  0  0  0  0
  -46.2611   58.2187   64.7693 C   0  0  0  0  0  0  0  0  0  0  0  0
  -46.5475   57.6645   65.9979 C   0  0  0  0  0  0  0  0  0  0  0  0
  -45.5254   57.3435   66.8725 C   0  0  0  0  0  0  0  0  0  0  0  0
  -44.2007   57.5758   66.5158 C   0  0  0  0  0  0  0  0  0  0  0  0
  -42.3329   57.3984   67.2057 H   0  0  0  0  0  0  0  0  0  0  0  0
  -34.7740   57.5334   64.8668 O   0  0  0  0  0  0  0  0  0  0  0  0
  -35.8126   58.1227   64.7474 C   0  0  0  0  0  0  0  0  0  0  0  0
  -36.0488   59.3578   65.2227 O   0  0  0  0  0  0  0  0  0  0  0  0
  -35.1467   60.4396   64.8158 C   0  0  0  0  0  0  0  0  0  0  0  0
  -34.2635   60.7787   65.9899 C   0  0  0  0  0  0  0  0  0  0  0  0
  -36.0471   61.5936   64.4190 C   0  0  0  0  0  0  0  0  0  0  0  0
  -35.4310   63.7524   65.3145 N   0  0  0  0  0  0  0  0  0  0  0  0
  -36.8947   62.4930   66.4693 O   0  0  0  0  0  0  0  0  0  0  0  0
  -36.1623   62.6489   65.4962 C   0  0  0  0  0  0  0  0  0  0  0  0
  -35.4692   64.4679   65.9897 H   0  0  0  0  0  0  0  0  0  0  0  0
  -32.1843   64.1319   63.7626 N   0  0  0  0  0  0  0  0  0  0  0  0
  -33.0028   64.7183   65.7669 O   0  0  0  0  0  0  0  0  0  0  0  0
  -34.5813   63.9264   64.1495 C   0  0  0  0  0  0  0  0  0  0  0  0
  -35.1295   65.0486   63.2607 C   0  0  0  0  0  0  0  0  0  0  0  0
  -34.5989   65.0106   61.8316 C   0  0  0  0  0  0  0  0  0  0  0  0
  -33.0989   65.1769   61.6889 C   0  0  0  0  0  0  0  0  0  0  0  0
  -32.2891   64.0578   62.3093 C   0  0  0  0  0  0  0  0  0  0  0  0
  -33.1863   64.2938   64.6298 C   0  0  0  0  0  0  0  0  0  0  0  0
  -31.2800   64.0545   64.1437 H   0  0  0  0  0  0  0  0  0  0  0  0
  -36.7894   57.3303   62.5717 C   0  0  0  0  0  0  0  0  0  0  0  0
  -36.1267   58.5279   61.8993 C   0  0  0  0  0  0  0  0  0  0  0  0
  -36.6800   58.8181   60.5165 C   0  0  0  0  0  0  0  0  0  0  0  0
  -38.1798   58.6631   60.3894 C   0  0  0  0  0  0  0  0  0  0  0  0
  -38.8020   59.9158   59.9913 N   0  0  0  0  0  0  0  0  0  0  0  0
  -40.6131   61.0562   59.2746 O   0  0  0  0  0  0  0  0  0  0  0  0
  -40.0868   59.9878   59.6267 C   0  0  0  0  0  0  0  0  0  0  0  0
  -38.2599   60.7376   59.9900 H   0  0  0  0  0  0  0  0  0  0  0  0
  -41.4605   58.1078   58.7595 C   0  0  0  0  0  0  0  0  0  0  0  0
  -40.8313   58.7153   59.7564 C   0  0  0  0  0  0  0  0  0  0  0  0
  -41.5435   58.5401   57.3289 C   0  0  0  0  0  0  0  0  0  0  0  0
  -42.7975   59.3627   57.0599 C   0  0  0  0  0  0  0  0  0  0  0  0
  -43.9766   58.5409   56.5683 C   0  0  0  0  0  0  0  0  0  0  0  0
  -44.9358   58.1319   57.6737 C   0  0  0  0  0  0  0  0  0  0  0  0
  -46.2636   57.5885   57.1808 C   0  0  0  0  0  0  0  0  0  0  0  0
  -47.4676   58.2743   57.8053 C   0  0  0  0  0  0  0  0  0  0  0  0
  -47.8339   57.7287   59.1717 C   0  0  0  0  0  0  0  0  0  0  0  0
  -49.3286   57.5770   59.3703 C   0  0  0  0  0  0  0  0  0  0  0  0
  -49.7232   56.9420   60.6898 C   0  0  0  0  0  0  0  0  0  0  0  0
  -51.0696   57.4245   61.1924 C   0  0  0  0  0  0  0  0  0  0  0  0
  -50.9612   58.4076   62.3464 C   0  0  0  0  0  0  0  0  0  0  0  0
  -49.5543   58.5688   62.8954 C   0  0  0  0  0  0  0  0  0  0  0  0
  -49.2493   59.9585   63.4326 C   0  0  0  0  0  0  0  0  0  0  0  0
  -50.4564   60.6680   64.0307 C   0  0  0  0  0  0  0  0  0  0  0  0
  -50.9254   60.0611   65.3431 C   0  0  0  0  0  0  0  0  0  0  0  0
  -50.0962   57.8755   66.2979 C   0  0  0  0  0  0  0  0  0  0  0  0
  -49.8395   59.3500   66.1301 C   0  0  0  0  0  0  0  0  0  0  0  0
 43 45  1  0  0  0
 43 42  1  0  0  0
 43 46  1  0  0  0
 64 65  1  0  0  0
 44 45  2  0  0  0
 65 63  1  0  0  0
  2  1  1  0  0  0
  2  4  1  0  0  0
  2  5  1  0  0  0
  3  4  2  0  0  0
 63 62  1  0  0  0
  6  8  1  0  0  0
  6 11  2  0  0  0
  7 10  1  0  0  0
  7 11  1  0  0  0
 62 61  1  0  0  0
 26 28  1  0  0  0
 26 32  1  0  0  0
 26 29  1  0  0  0
 12 18  1  0  0  0
 12 19  1  0  0  0
 61 60  1  0  0  0
 30 36  1  0  0  0
 30 37  1  0  0  0
 30 38  1  0  0  0
 20 21  2  0  0  0
 60 59  1  0  0  0
 22 21  1  0  0  0
 22 23  1  0  0  0
 59 58  1  0  0  0
 27 28  2  0  0  0
 58 57  1  0  0  0
 31 37  2  0  0  0
 57 56  1  0  0  0
 56 55  1  0  0  0
 55 54  1  0  0  0
 54 53  1  0  0  0
 53 52  1  0  0  0
 52 51  1  0  0  0
 51 50  1  0  0  0
 50 49  1  0  0  0
 49 47  1  0  0  0
 47 48  2  0  0  0
 48 45  1  0  0  0
 42 41  1  0  0  0
 41 40  1  0  0  0
 40 39  1  0  0  0
 39  1  1  0  0  0
  1 21  1  0  0  0
  8  4  1  0  0  0
  8  9  1  0  0  0
  8 10  1  0  0  0
 11 13  1  0  0  0
 13 14  2  0  0  0
 13 18  1  0  0  0
 14 15  1  0  0  0
 15 16  2  0  0  0
 16 17  1  0  0  0
 17 18  2  0  0  0
 23 24  1  0  0  0
 23 25  1  0  0  0
 25 28  1  0  0  0
 32 33  1  0  0  0
 32 37  1  0  0  0
 33 34  1  0  0  0
 34 35  1  0  0  0
 35 36  1  0  0  0
M  END
> <minimizedAffinity>
-8.31139

> <CNNscore>
0.1635640711

> <CNNaffinity>
7.4347352982

> <CNN_VS>
1.2160556316

> <CNNaffinity_variance>
1.2850830555

$$$$
