/media/chris/experiments/cd1a-new-docking/inputs/ligands/7ryo_ligand.pdb


 65 67  0  0  0  0  0  0  0  0999 V2000
  -35.9066   57.8125   62.0849 C   0  0  0  0  0  0  0  0  0  0  0  0
  -36.3010   58.7403   63.1318 N   0  0  0  0  0  0  0  0  0  0  0  0
  -37.6964   57.2730   64.1085 O   0  0  0  0  0  0  0  0  0  0  0  0
  -37.1797   58.3798   64.0704 C   0  0  0  0  0  0  0  0  0  0  0  0
  -35.9156   59.6459   63.1491 H   0  0  0  0  0  0  0  0  0  0  0  0
  -36.3506   60.1118   65.6146 N   0  0  0  0  0  0  0  0  0  0  0  0
  -37.7525   61.7726   65.0150 O   0  0  0  0  0  0  0  0  0  0  0  0
  -37.5607   59.4289   65.1278 C   0  0  0  0  0  0  0  0  0  0  0  0
  -38.2394   58.7251   66.2991 C   0  0  0  0  0  0  0  0  0  0  0  0
  -38.4271   60.5681   64.5709 C   0  0  0  0  0  0  0  0  0  0  0  0
  -36.5563   61.3592   65.5089 C   0  0  0  0  0  0  0  0  0  0  0  0
  -36.3609   62.3975   68.1860 O   0  0  0  0  0  0  0  0  0  0  0  0
  -35.6203   62.4236   65.8782 C   0  0  0  0  0  0  0  0  0  0  0  0
  -34.6764   62.8776   64.9561 C   0  0  0  0  0  0  0  0  0  0  0  0
  -33.6382   63.6990   65.3607 C   0  0  0  0  0  0  0  0  0  0  0  0
  -33.5230   64.0795   66.6799 C   0  0  0  0  0  0  0  0  0  0  0  0
  -34.4426   63.6396   67.6145 C   0  0  0  0  0  0  0  0  0  0  0  0
  -35.4919   62.8119   67.2277 C   0  0  0  0  0  0  0  0  0  0  0  0
  -37.0782   61.8394   67.9583 H   0  0  0  0  0  0  0  0  0  0  0  0
  -33.9291   56.4289   62.2116 O   0  0  0  0  0  0  0  0  0  0  0  0
  -34.4138   57.5244   62.1382 C   0  0  0  0  0  0  0  0  0  0  0  0
  -33.7110   58.6702   62.1128 O   0  0  0  0  0  0  0  0  0  0  0  0
  -32.5323   58.7395   61.2435 C   0  0  0  0  0  0  0  0  0  0  0  0
  -32.1771   57.3352   60.8245 C   0  0  0  0  0  0  0  0  0  0  0  0
  -31.4452   59.3838   62.0817 C   0  0  0  0  0  0  0  0  0  0  0  0
  -31.7690   61.7742   62.2342 N   0  0  0  0  0  0  0  0  0  0  0  0
  -30.2592   60.9907   60.7616 O   0  0  0  0  0  0  0  0  0  0  0  0
  -31.1045   60.7860   61.6284 C   0  0  0  0  0  0  0  0  0  0  0  0
  -32.4362   61.5501   62.9226 H   0  0  0  0  0  0  0  0  0  0  0  0
  -29.9915   64.8968   62.6625 N   0  0  0  0  0  0  0  0  0  0  0  0
  -30.4778   63.2069   64.0546 O   0  0  0  0  0  0  0  0  0  0  0  0
  -31.5352   63.1698   61.9064 C   0  0  0  0  0  0  0  0  0  0  0  0
  -32.8626   63.9361   61.8882 C   0  0  0  0  0  0  0  0  0  0  0  0
  -32.7946   65.2584   61.1319 C   0  0  0  0  0  0  0  0  0  0  0  0
  -31.8282   66.2818   61.6946 C   0  0  0  0  0  0  0  0  0  0  0  0
  -30.3750   65.8603   61.6361 C   0  0  0  0  0  0  0  0  0  0  0  0
  -30.6216   63.7606   62.9686 C   0  0  0  0  0  0  0  0  0  0  0  0
  -29.1832   65.1068   63.1839 H   0  0  0  0  0  0  0  0  0  0  0  0
  -36.3146   58.3274   60.7038 C   0  0  0  0  0  0  0  0  0  0  0  0
  -37.3743   59.4212   60.7820 C   0  0  0  0  0  0  0  0  0  0  0  0
  -38.2650   59.4785   59.5548 C   0  0  0  0  0  0  0  0  0  0  0  0
  -39.7463   59.3657   59.8419 C   0  0  0  0  0  0  0  0  0  0  0  0
  -40.0339   58.1889   60.6464 N   0  0  0  0  0  0  0  0  0  0  0  0
  -41.1886   59.3314   62.2134 O   0  0  0  0  0  0  0  0  0  0  0  0
  -40.7386   58.2575   61.7810 C   0  0  0  0  0  0  0  0  0  0  0  0
  -39.6989   57.3132   60.3461 H   0  0  0  0  0  0  0  0  0  0  0  0
  -41.8181   56.6892   63.3774 C   0  0  0  0  0  0  0  0  0  0  0  0
  -40.8619   56.9714   62.5030 C   0  0  0  0  0  0  0  0  0  0  0  0
  -42.9569   57.5619   63.8042 C   0  0  0  0  0  0  0  0  0  0  0  0
  -43.6408   57.0251   65.0556 C   0  0  0  0  0  0  0  0  0  0  0  0
  -45.0459   57.5626   65.2652 C   0  0  0  0  0  0  0  0  0  0  0  0
  -45.4010   57.7830   66.7262 C   0  0  0  0  0  0  0  0  0  0  0  0
  -46.7730   57.2697   67.1211 C   0  0  0  0  0  0  0  0  0  0  0  0
  -47.6945   57.0318   65.9363 C   0  0  0  0  0  0  0  0  0  0  0  0
  -49.0014   57.7955   66.0226 C   0  0  0  0  0  0  0  0  0  0  0  0
  -49.1311   58.8736   64.9654 C   0  0  0  0  0  0  0  0  0  0  0  0
  -48.5281   58.5089   63.6225 C   0  0  0  0  0  0  0  0  0  0  0  0
  -49.5782   58.2355   62.5639 C   0  0  0  0  0  0  0  0  0  0  0  0
  -49.5279   59.2151   61.4029 C   0  0  0  0  0  0  0  0  0  0  0  0
  -49.6782   58.5683   60.0369 C   0  0  0  0  0  0  0  0  0  0  0  0
  -49.3710   57.0790   60.0144 C   0  0  0  0  0  0  0  0  0  0  0  0
  -48.1608   56.7109   59.1670 C   0  0  0  0  0  0  0  0  0  0  0  0
  -48.3325   57.0389   57.6926 C   0  0  0  0  0  0  0  0  0  0  0  0
  -46.0479   58.1038   57.5411 C   0  0  0  0  0  0  0  0  0  0  0  0
  -47.0318   57.1487   56.9179 C   0  0  0  0  0  0  0  0  0  0  0  0
 43 45  1  0  0  0
 43 42  1  0  0  0
 43 46  1  0  0  0
 64 65  1  0  0  0
 44 45  2  0  0  0
 65 63  1  0  0  0
  2  1  1  0  0  0
  2  4  1  0  0  0
  2  5  1  0  0  0
  3  4  2  0  0  0
 63 62  1  0  0  0
  6  8  1  0  0  0
  6 11  2  0  0  0
  7 10  1  0  0  0
  7 11  1  0  0  0
 62 61  1  0  0  0
 26 28  1  0  0  0
 26 32  1  0  0  0
 26 29  1  0  0  0
 12 18  1  0  0  0
 12 19  1  0  0  0
 61 60  1  0  0  0
 30 36  1  0  0  0
 30 37  1  0  0  0
 30 38  1  0  0  0
 20 21  2  0  0  0
 60 59  1  0  0  0
 22 21  1  0  0  0
 22 23  1  0  0  0
 59 58  1  0  0  0
 27 28  2  0  0  0
 58 57  1  0  0  0
 31 37  2  0  0  0
 57 56  1  0  0  0
 56 55  1  0  0  0
 55 54  1  0  0  0
 54 53  1  0  0  0
 53 52  1  0  0  0
 52 51  1  0  0  0
 51 50  1  0  0  0
 50 49  1  0  0  0
 49 47  1  0  0  0
 47 48  2  0  0  0
 48 45  1  0  0  0
 42 41  1  0  0  0
 41 40  1  0  0  0
 40 39  1  0  0  0
 39  1  1  0  0  0
  1 21  1  0  0  0
  8  4  1  0  0  0
  8  9  1  0  0  0
  8 10  1  0  0  0
 11 13  1  0  0  0
 13 14  2  0  0  0
 13 18  1  0  0  0
 14 15  1  0  0  0
 15 16  2  0  0  0
 16 17  1  0  0  0
 17 18  2  0  0  0
 23 24  1  0  0  0
 23 25  1  0  0  0
 25 28  1  0  0  0
 32 33  1  0  0  0
 32 37  1  0  0  0
 33 34  1  0  0  0
 34 35  1  0  0  0
 35 36  1  0  0  0
M  END
> <minimizedAffinity>
-9.24888

> <CNNscore>
0.4887039959

> <CNNaffinity>
7.7146883011

> <CNN_VS>
3.7701990604

> <CNNaffinity_variance>
0.7209686041

$$$$
/media/chris/experiments/cd1a-new-docking/inputs/ligands/7ryo_ligand.pdb


 65 67  0  0  0  0  0  0  0  0999 V2000
  -35.2528   58.6280   62.6990 C   0  0  0  0  0  0  0  0  0  0  0  0
  -33.8409   58.9301   62.5329 N   0  0  0  0  0  0  0  0  0  0  0  0
  -33.2942   56.8055   62.0420 O   0  0  0  0  0  0  0  0  0  0  0  0
  -32.9689   57.9710   62.2124 C   0  0  0  0  0  0  0  0  0  0  0  0
  -33.5234   59.8535   62.6585 H   0  0  0  0  0  0  0  0  0  0  0  0
  -31.3871   59.7364   61.5392 N   0  0  0  0  0  0  0  0  0  0  0  0
  -30.1121   59.7496   63.3985 O   0  0  0  0  0  0  0  0  0  0  0  0
  -31.4902   58.3705   62.0789 C   0  0  0  0  0  0  0  0  0  0  0  0
  -30.8024   57.4038   61.1195 C   0  0  0  0  0  0  0  0  0  0  0  0
  -30.7571   58.4510   63.4260 C   0  0  0  0  0  0  0  0  0  0  0  0
  -30.6311   60.3914   62.3196 C   0  0  0  0  0  0  0  0  0  0  0  0
  -30.1101   61.5989   59.7596 O   0  0  0  0  0  0  0  0  0  0  0  0
  -30.2462   61.7969   62.1716 C   0  0  0  0  0  0  0  0  0  0  0  0
  -30.2584   62.6470   63.2781 C   0  0  0  0  0  0  0  0  0  0  0  0
  -30.1362   64.0160   63.1132 C   0  0  0  0  0  0  0  0  0  0  0  0
  -30.0008   64.5577   61.8535 C   0  0  0  0  0  0  0  0  0  0  0  0
  -29.9903   63.7375   60.7402 C   0  0  0  0  0  0  0  0  0  0  0  0
  -30.1138   62.3593   60.8853 C   0  0  0  0  0  0  0  0  0  0  0  0
  -30.1916   60.6677   59.8230 H   0  0  0  0  0  0  0  0  0  0  0  0
  -35.2967   57.4738   64.8218 O   0  0  0  0  0  0  0  0  0  0  0  0
  -35.6047   58.4303   64.1658 C   0  0  0  0  0  0  0  0  0  0  0  0
  -36.3282   59.4678   64.6213 O   0  0  0  0  0  0  0  0  0  0  0  0
  -37.4201   59.1906   65.5597 C   0  0  0  0  0  0  0  0  0  0  0  0
  -38.3910   58.2552   64.8843 C   0  0  0  0  0  0  0  0  0  0  0  0
  -38.0405   60.5384   65.8727 C   0  0  0  0  0  0  0  0  0  0  0  0
  -36.3035   61.9992   65.0415 N   0  0  0  0  0  0  0  0  0  0  0  0
  -36.8509   62.1195   67.2203 O   0  0  0  0  0  0  0  0  0  0  0  0
  -37.0108   61.6206   66.1099 C   0  0  0  0  0  0  0  0  0  0  0  0
  -36.4751   61.5634   64.1755 H   0  0  0  0  0  0  0  0  0  0  0  0
  -33.7626   64.0966   63.5454 N   0  0  0  0  0  0  0  0  0  0  0  0
  -34.4988   62.0257   63.0983 O   0  0  0  0  0  0  0  0  0  0  0  0
  -35.2889   63.0354   65.1209 C   0  0  0  0  0  0  0  0  0  0  0  0
  -34.3613   62.7741   66.3129 C   0  0  0  0  0  0  0  0  0  0  0  0
  -33.5705   64.0015   66.7524 C   0  0  0  0  0  0  0  0  0  0  0  0
  -32.6246   64.5731   65.7149 C   0  0  0  0  0  0  0  0  0  0  0  0
  -33.3135   65.1207   64.4826 C   0  0  0  0  0  0  0  0  0  0  0  0
  -34.4812   63.0090   63.8328 C   0  0  0  0  0  0  0  0  0  0  0  0
  -33.5090   64.2207   62.6023 H   0  0  0  0  0  0  0  0  0  0  0  0
  -35.6613   57.4093   61.8702 C   0  0  0  0  0  0  0  0  0  0  0  0
  -37.1412   57.4268   61.5030 C   0  0  0  0  0  0  0  0  0  0  0  0
  -37.5463   58.6586   60.7148 C   0  0  0  0  0  0  0  0  0  0  0  0
  -39.0397   58.8649   60.5862 C   0  0  0  0  0  0  0  0  0  0  0  0
  -39.7684   57.9706   61.4717 N   0  0  0  0  0  0  0  0  0  0  0  0
  -41.4578   57.6271   60.0151 O   0  0  0  0  0  0  0  0  0  0  0  0
  -40.9320   57.4131   61.1197 C   0  0  0  0  0  0  0  0  0  0  0  0
  -39.3930   57.7691   62.3593 H   0  0  0  0  0  0  0  0  0  0  0  0
  -42.0401   57.0809   63.3186 C   0  0  0  0  0  0  0  0  0  0  0  0
  -41.5640   56.5962   62.1797 C   0  0  0  0  0  0  0  0  0  0  0  0
  -42.0647   58.5083   63.7684 C   0  0  0  0  0  0  0  0  0  0  0  0
  -42.4656   58.6314   65.2333 C   0  0  0  0  0  0  0  0  0  0  0  0
  -43.3555   57.5020   65.7227 C   0  0  0  0  0  0  0  0  0  0  0  0
  -44.6716   57.3952   64.9706 C   0  0  0  0  0  0  0  0  0  0  0  0
  -45.8484   58.0462   65.6727 C   0  0  0  0  0  0  0  0  0  0  0  0
  -46.9340   58.5207   64.7210 C   0  0  0  0  0  0  0  0  0  0  0  0
  -48.0340   59.3107   65.4027 C   0  0  0  0  0  0  0  0  0  0  0  0
  -49.0503   59.8756   64.4307 C   0  0  0  0  0  0  0  0  0  0  0  0
  -49.9827   58.8419   63.8290 C   0  0  0  0  0  0  0  0  0  0  0  0
  -50.1918   59.0380   62.3404 C   0  0  0  0  0  0  0  0  0  0  0  0
  -50.8527   57.8469   61.6661 C   0  0  0  0  0  0  0  0  0  0  0  0
  -50.1337   57.3603   60.4198 C   0  0  0  0  0  0  0  0  0  0  0  0
  -48.9504   58.2213   60.0058 C   0  0  0  0  0  0  0  0  0  0  0  0
  -47.7912   57.4330   59.4116 C   0  0  0  0  0  0  0  0  0  0  0  0
  -47.1362   58.1222   58.2255 C   0  0  0  0  0  0  0  0  0  0  0  0
  -46.9396   55.9778   56.9065 C   0  0  0  0  0  0  0  0  0  0  0  0
  -47.3552   57.4256   56.8947 C   0  0  0  0  0  0  0  0  0  0  0  0
 43 45  1  0  0  0
 43 42  1  0  0  0
 43 46  1  0  0  0
 64 65  1  0  0  0
 44 45  2  0  0  0
 65 63  1  0  0  0
  2  1  1  0  0  0
  2  4  1  0  0  0
  2  5  1  0  0  0
  3  4  2  0  0  0
 63 62  1  0  0  0
  6  8  1  0  0  0
  6 11  2  0  0  0
  7 10  1  0  0  0
  7 11  1  0  0  0
 62 61  1  0  0  0
 26 28  1  0  0  0
 26 32  1  0  0  0
 26 29  1  0  0  0
 12 18  1  0  0  0
 12 19  1  0  0  0
 61 60  1  0  0  0
 30 36  1  0  0  0
 30 37  1  0  0  0
 30 38  1  0  0  0
 20 21  2  0  0  0
 60 59  1  0  0  0
 22 21  1  0  0  0
 22 23  1  0  0  0
 59 58  1  0  0  0
 27 28  2  0  0  0
 58 57  1  0  0  0
 31 37  2  0  0  0
 57 56  1  0  0  0
 56 55  1  0  0  0
 55 54  1  0  0  0
 54 53  1  0  0  0
 53 52  1  0  0  0
 52 51  1  0  0  0
 51 50  1  0  0  0
 50 49  1  0  0  0
 49 47  1  0  0  0
 47 48  2  0  0  0
 48 45  1  0  0  0
 42 41  1  0  0  0
 41 40  1  0  0  0
 40 39  1  0  0  0
 39  1  1  0  0  0
  1 21  1  0  0  0
  8  4  1  0  0  0
  8  9  1  0  0  0
  8 10  1  0  0  0
 11 13  1  0  0  0
 13 14  2  0  0  0
 13 18  1  0  0  0
 14 15  1  0  0  0
 15 16  2  0  0  0
 16 17  1  0  0  0
 17 18  2  0  0  0
 23 24  1  0  0  0
 23 25  1  0  0  0
 25 28  1  0  0  0
 32 33  1  0  0  0
 32 37  1  0  0  0
 33 34  1  0  0  0
 34 35  1  0  0  0
 35 36  1  0  0  0
M  END
> <minimizedAffinity>
-10.67358

> <CNNscore>
0.3557478487

> <CNNaffinity>
7.2927427292

> <CNN_VS>
2.5943775177

> <CNNaffinity_variance>
1.7032254934

$$$$
/media/chris/experiments/cd1a-new-docking/inputs/ligands/7ryo_ligand.pdb


 65 67  0  0  0  0  0  0  0  0999 V2000
  -36.7999   58.4463   61.9839 C   0  0  0  0  0  0  0  0  0  0  0  0
  -38.1603   58.3277   62.4814 N   0  0  0  0  0  0  0  0  0  0  0  0
  -38.3728   56.1909   61.8162 O   0  0  0  0  0  0  0  0  0  0  0  0
  -38.8400   57.1859   62.3501 C   0  0  0  0  0  0  0  0  0  0  0  0
  -38.5862   59.0991   62.9204 H   0  0  0  0  0  0  0  0  0  0  0  0
  -40.2934   57.4739   64.3190 N   0  0  0  0  0  0  0  0  0  0  0  0
  -41.8049   58.8712   63.3992 O   0  0  0  0  0  0  0  0  0  0  0  0
  -40.2820   57.1518   62.8824 C   0  0  0  0  0  0  0  0  0  0  0  0
  -40.8487   55.7493   62.6830 C   0  0  0  0  0  0  0  0  0  0  0  0
  -41.1872   58.2239   62.2579 C   0  0  0  0  0  0  0  0  0  0  0  0
  -41.1377   58.4057   64.4872 C   0  0  0  0  0  0  0  0  0  0  0  0
  -40.4588   61.1360   65.0938 O   0  0  0  0  0  0  0  0  0  0  0  0
  -41.4802   59.0416   65.7615 C   0  0  0  0  0  0  0  0  0  0  0  0
  -42.2868   58.3735   66.6836 C   0  0  0  0  0  0  0  0  0  0  0  0
  -42.8153   59.0466   67.7716 C   0  0  0  0  0  0  0  0  0  0  0  0
  -42.5518   60.3860   67.9587 C   0  0  0  0  0  0  0  0  0  0  0  0
  -41.7591   61.0724   67.0571 C   0  0  0  0  0  0  0  0  0  0  0  0
  -41.2204   60.4139   65.9562 C   0  0  0  0  0  0  0  0  0  0  0  0
  -40.0815   60.7222   64.3426 H   0  0  0  0  0  0  0  0  0  0  0  0
  -34.8091   59.6116   62.7049 O   0  0  0  0  0  0  0  0  0  0  0  0
  -35.9856   59.4115   62.8323 C   0  0  0  0  0  0  0  0  0  0  0  0
  -36.7633   59.9953   63.7606 O   0  0  0  0  0  0  0  0  0  0  0  0
  -36.4535   59.7545   65.1733 C   0  0  0  0  0  0  0  0  0  0  0  0
  -36.9550   58.3790   65.5342 C   0  0  0  0  0  0  0  0  0  0  0  0
  -37.1698   60.8493   65.9399 C   0  0  0  0  0  0  0  0  0  0  0  0
  -35.3200   62.2056   65.1781 N   0  0  0  0  0  0  0  0  0  0  0  0
  -36.7843   63.1099   66.6272 O   0  0  0  0  0  0  0  0  0  0  0  0
  -36.4086   62.1562   65.9512 C   0  0  0  0  0  0  0  0  0  0  0  0
  -35.0666   61.4094   64.6576 H   0  0  0  0  0  0  0  0  0  0  0  0
  -33.2971   64.5455   63.3001 N   0  0  0  0  0  0  0  0  0  0  0  0
  -33.6882   62.3468   63.0922 O   0  0  0  0  0  0  0  0  0  0  0  0
  -34.4997   63.4006   65.0836 C   0  0  0  0  0  0  0  0  0  0  0  0
  -33.4596   63.4160   66.2094 C   0  0  0  0  0  0  0  0  0  0  0  0
  -32.8676   64.7958   66.4757 C   0  0  0  0  0  0  0  0  0  0  0  0
  -32.1115   65.4149   65.3169 C   0  0  0  0  0  0  0  0  0  0  0  0
  -32.9701   65.7166   64.1066 C   0  0  0  0  0  0  0  0  0  0  0  0
  -33.7920   63.3856   63.7378 C   0  0  0  0  0  0  0  0  0  0  0  0
  -33.1357   64.6184   62.3317 H   0  0  0  0  0  0  0  0  0  0  0  0
  -36.7809   58.8628   60.5124 C   0  0  0  0  0  0  0  0  0  0  0  0
  -37.8339   59.9189   60.1946 C   0  0  0  0  0  0  0  0  0  0  0  0
  -38.9823   59.3845   59.3589 C   0  0  0  0  0  0  0  0  0  0  0  0
  -40.3368   59.9671   59.6983 C   0  0  0  0  0  0  0  0  0  0  0  0
  -41.1919   60.0192   58.5231 N   0  0  0  0  0  0  0  0  0  0  0  0
  -41.7640   57.8386   58.6312 O   0  0  0  0  0  0  0  0  0  0  0  0
  -41.8476   58.9444   58.0719 C   0  0  0  0  0  0  0  0  0  0  0  0
  -41.2913   60.8736   58.0440 H   0  0  0  0  0  0  0  0  0  0  0  0
  -43.8688   58.8173   56.6325 C   0  0  0  0  0  0  0  0  0  0  0  0
  -42.6044   59.1706   56.8204 C   0  0  0  0  0  0  0  0  0  0  0  0
  -44.7898   58.1535   57.6079 C   0  0  0  0  0  0  0  0  0  0  0  0
  -46.1031   57.7423   56.9537 C   0  0  0  0  0  0  0  0  0  0  0  0
  -47.1044   57.1315   57.9188 C   0  0  0  0  0  0  0  0  0  0  0  0
  -47.6743   58.1275   58.9150 C   0  0  0  0  0  0  0  0  0  0  0  0
  -48.2015   57.5026   60.1930 C   0  0  0  0  0  0  0  0  0  0  0  0
  -49.5987   56.9220   60.0513 C   0  0  0  0  0  0  0  0  0  0  0  0
  -50.5837   57.4583   61.0715 C   0  0  0  0  0  0  0  0  0  0  0  0
  -49.9264   58.2974   62.1487 C   0  0  0  0  0  0  0  0  0  0  0  0
  -50.4524   59.7166   62.2447 C   0  0  0  0  0  0  0  0  0  0  0  0
  -51.5966   59.8516   63.2299 C   0  0  0  0  0  0  0  0  0  0  0  0
  -51.1434   59.8351   64.6805 C   0  0  0  0  0  0  0  0  0  0  0  0
  -50.0580   60.8471   65.0041 C   0  0  0  0  0  0  0  0  0  0  0  0
  -48.8285   60.2514   65.6723 C   0  0  0  0  0  0  0  0  0  0  0  0
  -47.7013   59.9168   64.7052 C   0  0  0  0  0  0  0  0  0  0  0  0
  -47.2932   58.4527   64.7353 C   0  0  0  0  0  0  0  0  0  0  0  0
  -46.1556   58.3204   66.9858 C   0  0  0  0  0  0  0  0  0  0  0  0
  -46.0083   58.1741   65.4939 C   0  0  0  0  0  0  0  0  0  0  0  0
 43 45  1  0  0  0
 43 42  1  0  0  0
 43 46  1  0  0  0
 64 65  1  0  0  0
 44 45  2  0  0  0
 65 63  1  0  0  0
  2  1  1  0  0  0
  2  4  1  0  0  0
  2  5  1  0  0  0
  3  4  2  0  0  0
 63 62  1  0  0  0
  6  8  1  0  0  0
  6 11  2  0  0  0
  7 10  1  0  0  0
  7 11  1  0  0  0
 62 61  1  0  0  0
 26 28  1  0  0  0
 26 32  1  0  0  0
 26 29  1  0  0  0
 12 18  1  0  0  0
 12 19  1  0  0  0
 61 60  1  0  0  0
 30 36  1  0  0  0
 30 37  1  0  0  0
 30 38  1  0  0  0
 20 21  2  0  0  0
 60 59  1  0  0  0
 22 21  1  0  0  0
 22 23  1  0  0  0
 59 58  1  0  0  0
 27 28  2  0  0  0
 58 57  1  0  0  0
 31 37  2  0  0  0
 57 56  1  0  0  0
 56 55  1  0  0  0
 55 54  1  0  0  0
 54 53  1  0  0  0
 53 52  1  0  0  0
 52 51  1  0  0  0
 51 50  1  0  0  0
 50 49  1  0  0  0
 49 47  1  0  0  0
 47 48  2  0  0  0
 48 45  1  0  0  0
 42 41  1  0  0  0
 41 40  1  0  0  0
 40 39  1  0  0  0
 39  1  1  0  0  0
  1 21  1  0  0  0
  8  4  1  0  0  0
  8  9  1  0  0  0
  8 10  1  0  0  0
 11 13  1  0  0  0
 13 14  2  0  0  0
 13 18  1  0  0  0
 14 15  1  0  0  0
 15 16  2  0  0  0
 16 17  1  0  0  0
 17 18  2  0  0  0
 23 24  1  0  0  0
 23 25  1  0  0  0
 25 28  1  0  0  0
 32 33  1  0  0  0
 32 37  1  0  0  0
 33 34  1  0  0  0
 34 35  1  0  0  0
 35 36  1  0  0  0
M  END
> <minimizedAffinity>
-8.68298

> <CNNscore>
0.2750140727

> <CNNaffinity>
7.7179236412

> <CNN_VS>
2.1225376129

> <CNNaffinity_variance>
1.3178832531

$$$$
/media/chris/experiments/cd1a-new-docking/inputs/ligands/7ryo_ligand.pdb


 65 67  0  0  0  0  0  0  0  0999 V2000
  -35.0929   59.5852   64.9688 C   0  0  0  0  0  0  0  0  0  0  0  0
  -35.2525   61.0287   64.9134 N   0  0  0  0  0  0  0  0  0  0  0  0
  -34.1467   61.3716   66.8404 O   0  0  0  0  0  0  0  0  0  0  0  0
  -34.7544   61.8098   65.8750 C   0  0  0  0  0  0  0  0  0  0  0  0
  -35.7341   61.4358   64.1574 H   0  0  0  0  0  0  0  0  0  0  0  0
  -33.7385   64.0487   66.0400 N   0  0  0  0  0  0  0  0  0  0  0  0
  -34.4391   64.8647   64.0585 O   0  0  0  0  0  0  0  0  0  0  0  0
  -34.9877   63.3246   65.7524 C   0  0  0  0  0  0  0  0  0  0  0  0
  -36.0496   63.7439   66.7646 C   0  0  0  0  0  0  0  0  0  0  0  0
  -35.3526   63.7713   64.3290 C   0  0  0  0  0  0  0  0  0  0  0  0
  -33.5351   64.8436   65.0724 C   0  0  0  0  0  0  0  0  0  0  0  0
  -31.1875   64.6843   66.7296 O   0  0  0  0  0  0  0  0  0  0  0  0
  -32.4056   65.7660   64.9348 C   0  0  0  0  0  0  0  0  0  0  0  0
  -32.3715   66.6797   63.8806 C   0  0  0  0  0  0  0  0  0  0  0  0
  -31.2127   67.3817   63.5970 C   0  0  0  0  0  0  0  0  0  0  0  0
  -30.0768   67.1875   64.3524 C   0  0  0  0  0  0  0  0  0  0  0  0
  -30.0828   66.2845   65.3997 C   0  0  0  0  0  0  0  0  0  0  0  0
  -31.2373   65.5679   65.6990 C   0  0  0  0  0  0  0  0  0  0  0  0
  -31.9478   64.1861   66.9567 H   0  0  0  0  0  0  0  0  0  0  0  0
  -33.3028   59.8249   63.3630 O   0  0  0  0  0  0  0  0  0  0  0  0
  -34.0498   59.1078   63.9697 C   0  0  0  0  0  0  0  0  0  0  0  0
  -34.0944   57.7700   63.8440 O   0  0  0  0  0  0  0  0  0  0  0  0
  -33.7211   57.1838   62.5530 C   0  0  0  0  0  0  0  0  0  0  0  0
  -32.2160   57.1283   62.4822 C   0  0  0  0  0  0  0  0  0  0  0  0
  -34.3147   58.1015   61.5018 C   0  0  0  0  0  0  0  0  0  0  0  0
  -36.4396   59.1875   61.1181 N   0  0  0  0  0  0  0  0  0  0  0  0
  -36.4391   57.0196   61.7197 O   0  0  0  0  0  0  0  0  0  0  0  0
  -35.8258   58.0513   61.4608 C   0  0  0  0  0  0  0  0  0  0  0  0
  -35.8958   59.9842   60.9212 H   0  0  0  0  0  0  0  0  0  0  0  0
  -39.5348   59.0396   59.2496 N   0  0  0  0  0  0  0  0  0  0  0  0
  -37.4387   59.6177   58.6994 O   0  0  0  0  0  0  0  0  0  0  0  0
  -37.8862   59.2810   61.0276 C   0  0  0  0  0  0  0  0  0  0  0  0
  -38.3764   60.5549   61.7251 C   0  0  0  0  0  0  0  0  0  0  0  0
  -39.8586   60.5247   62.0816 C   0  0  0  0  0  0  0  0  0  0  0  0
  -40.8090   60.4028   60.9070 C   0  0  0  0  0  0  0  0  0  0  0  0
  -40.6867   59.1011   60.1429 C   0  0  0  0  0  0  0  0  0  0  0  0
  -38.2681   59.3277   59.5566 C   0  0  0  0  0  0  0  0  0  0  0  0
  -39.7103   58.7559   58.3233 H   0  0  0  0  0  0  0  0  0  0  0  0
  -36.4269   58.8701   64.7495 C   0  0  0  0  0  0  0  0  0  0  0  0
  -37.5969   59.6183   65.3793 C   0  0  0  0  0  0  0  0  0  0  0  0
  -38.8624   58.7852   65.4639 C   0  0  0  0  0  0  0  0  0  0  0  0
  -39.1064   57.8821   64.2747 C   0  0  0  0  0  0  0  0  0  0  0  0
  -40.2654   57.0314   64.4944 N   0  0  0  0  0  0  0  0  0  0  0  0
  -41.7209   58.4813   63.5599 O   0  0  0  0  0  0  0  0  0  0  0  0
  -41.4963   57.3951   64.1187 C   0  0  0  0  0  0  0  0  0  0  0  0
  -40.1397   56.1595   64.9340 H   0  0  0  0  0  0  0  0  0  0  0  0
  -43.4806   56.6626   65.4223 C   0  0  0  0  0  0  0  0  0  0  0  0
  -42.5590   56.4365   64.4960 C   0  0  0  0  0  0  0  0  0  0  0  0
  -43.6636   57.8949   66.2521 C   0  0  0  0  0  0  0  0  0  0  0  0
  -45.1080   58.0578   66.7092 C   0  0  0  0  0  0  0  0  0  0  0  0
  -46.1241   57.4417   65.7631 C   0  0  0  0  0  0  0  0  0  0  0  0
  -46.4968   58.3445   64.5991 C   0  0  0  0  0  0  0  0  0  0  0  0
  -47.4785   59.4465   64.9511 C   0  0  0  0  0  0  0  0  0  0  0  0
  -48.3501   59.1197   66.1523 C   0  0  0  0  0  0  0  0  0  0  0  0
  -49.6946   58.5252   65.7812 C   0  0  0  0  0  0  0  0  0  0  0  0
  -50.8453   59.4930   65.9704 C   0  0  0  0  0  0  0  0  0  0  0  0
  -50.9440   60.5645   64.9017 C   0  0  0  0  0  0  0  0  0  0  0  0
  -51.6816   60.0917   63.6646 C   0  0  0  0  0  0  0  0  0  0  0  0
  -50.7543   59.7273   62.5168 C   0  0  0  0  0  0  0  0  0  0  0  0
  -50.7678   58.2533   62.1507 C   0  0  0  0  0  0  0  0  0  0  0  0
  -49.4503   57.7365   61.5940 C   0  0  0  0  0  0  0  0  0  0  0  0
  -49.5822   57.0278   60.2529 C   0  0  0  0  0  0  0  0  0  0  0  0
  -48.9699   57.8023   59.0969 C   0  0  0  0  0  0  0  0  0  0  0  0
  -46.7712   58.3171   57.9667 C   0  0  0  0  0  0  0  0  0  0  0  0
  -47.6307   57.2681   58.6222 C   0  0  0  0  0  0  0  0  0  0  0  0
 43 45  1  0  0  0
 43 42  1  0  0  0
 43 46  1  0  0  0
 64 65  1  0  0  0
 44 45  2  0  0  0
 65 63  1  0  0  0
  2  1  1  0  0  0
  2  4  1  0  0  0
  2  5  1  0  0  0
  3  4  2  0  0  0
 63 62  1  0  0  0
  6  8  1  0  0  0
  6 11  2  0  0  0
  7 10  1  0  0  0
  7 11  1  0  0  0
 62 61  1  0  0  0
 26 28  1  0  0  0
 26 32  1  0  0  0
 26 29  1  0  0  0
 12 18  1  0  0  0
 12 19  1  0  0  0
 61 60  1  0  0  0
 30 36  1  0  0  0
 30 37  1  0  0  0
 30 38  1  0  0  0
 20 21  2  0  0  0
 60 59  1  0  0  0
 22 21  1  0  0  0
 22 23  1  0  0  0
 59 58  1  0  0  0
 27 28  2  0  0  0
 58 57  1  0  0  0
 31 37  2  0  0  0
 57 56  1  0  0  0
 56 55  1  0  0  0
 55 54  1  0  0  0
 54 53  1  0  0  0
 53 52  1  0  0  0
 52 51  1  0  0  0
 51 50  1  0  0  0
 50 49  1  0  0  0
 49 47  1  0  0  0
 47 48  2  0  0  0
 48 45  1  0  0  0
 42 41  1  0  0  0
 41 40  1  0  0  0
 40 39  1  0  0  0
 39  1  1  0  0  0
  1 21  1  0  0  0
  8  4  1  0  0  0
  8  9  1  0  0  0
  8 10  1  0  0  0
 11 13  1  0  0  0
 13 14  2  0  0  0
 13 18  1  0  0  0
 14 15  1  0  0  0
 15 16  2  0  0  0
 16 17  1  0  0  0
 17 18  2  0  0  0
 23 24  1  0  0  0
 23 25  1  0  0  0
 25 28  1  0  0  0
 32 33  1  0  0  0
 32 37  1  0  0  0
 33 34  1  0  0  0
 34 35  1  0  0  0
 35 36  1  0  0  0
M  END
> <minimizedAffinity>
-10.06971

> <CNNscore>
0.2576657534

> <CNNaffinity>
7.3950333595

> <CNN_VS>
1.9054468870

> <CNNaffinity_variance>
0.8590890765

$$$$
/media/chris/experiments/cd1a-new-docking/inputs/ligands/7ryo_ligand.pdb


 65 67  0  0  0  0  0  0  0  0999 V2000
  -37.5353   58.9068   62.5546 C   0  0  0  0  0  0  0  0  0  0  0  0
  -38.8728   58.3690   62.7399 N   0  0  0  0  0  0  0  0  0  0  0  0
  -38.2864   56.2960   62.0977 O   0  0  0  0  0  0  0  0  0  0  0  0
  -39.1345   57.0838   62.4895 C   0  0  0  0  0  0  0  0  0  0  0  0
  -39.5949   58.9598   63.0540 H   0  0  0  0  0  0  0  0  0  0  0  0
  -40.9496   56.6976   64.1106 N   0  0  0  0  0  0  0  0  0  0  0  0
  -42.5964   57.7740   63.0095 O   0  0  0  0  0  0  0  0  0  0  0  0
  -40.5806   56.6010   62.6886 C   0  0  0  0  0  0  0  0  0  0  0  0
  -40.6795   55.1437   62.2473 C   0  0  0  0  0  0  0  0  0  0  0  0
  -41.6196   57.4810   61.9782 C   0  0  0  0  0  0  0  0  0  0  0  0
  -42.0391   57.3446   64.1717 C   0  0  0  0  0  0  0  0  0  0  0  0
  -40.9782   59.0833   66.2051 O   0  0  0  0  0  0  0  0  0  0  0  0
  -42.7783   57.6788   65.3913 C   0  0  0  0  0  0  0  0  0  0  0  0
  -44.1038   57.2693   65.5416 C   0  0  0  0  0  0  0  0  0  0  0  0
  -44.8842   57.7784   66.5652 C   0  0  0  0  0  0  0  0  0  0  0  0
  -44.3623   58.6968   67.4499 C   0  0  0  0  0  0  0  0  0  0  0  0
  -43.0529   59.1225   67.3202 C   0  0  0  0  0  0  0  0  0  0  0  0
  -42.2533   58.6239   66.2965 C   0  0  0  0  0  0  0  0  0  0  0  0
  -40.4140   58.7675   65.5270 H   0  0  0  0  0  0  0  0  0  0  0  0
  -38.3340   60.9332   63.6017 O   0  0  0  0  0  0  0  0  0  0  0  0
  -37.4271   60.3181   63.1123 C   0  0  0  0  0  0  0  0  0  0  0  0
  -36.1774   60.7902   62.9620 O   0  0  0  0  0  0  0  0  0  0  0  0
  -35.3215   60.8719   64.1496 C   0  0  0  0  0  0  0  0  0  0  0  0
  -36.0960   61.5729   65.2370 C   0  0  0  0  0  0  0  0  0  0  0  0
  -34.0974   61.6553   63.7166 C   0  0  0  0  0  0  0  0  0  0  0  0
  -33.1568   59.4641   63.3218 N   0  0  0  0  0  0  0  0  0  0  0  0
  -32.0683   61.2579   62.5100 O   0  0  0  0  0  0  0  0  0  0  0  0
  -33.0133   60.7785   63.1304 C   0  0  0  0  0  0  0  0  0  0  0  0
  -33.9354   59.1368   63.8277 H   0  0  0  0  0  0  0  0  0  0  0  0
  -32.2981   56.5733   61.3219 N   0  0  0  0  0  0  0  0  0  0  0  0
  -34.1522   57.1722   62.4328 O   0  0  0  0  0  0  0  0  0  0  0  0
  -32.1972   58.5041   62.8049 C   0  0  0  0  0  0  0  0  0  0  0  0
  -31.3243   57.9663   63.9444 C   0  0  0  0  0  0  0  0  0  0  0  0
  -30.0263   57.3230   63.4684 C   0  0  0  0  0  0  0  0  0  0  0  0
  -30.1900   56.1096   62.5746 C   0  0  0  0  0  0  0  0  0  0  0  0
  -30.8510   56.4039   61.2444 C   0  0  0  0  0  0  0  0  0  0  0  0
  -32.9676   57.3573   62.1699 C   0  0  0  0  0  0  0  0  0  0  0  0
  -32.8373   56.0550   60.6816 H   0  0  0  0  0  0  0  0  0  0  0  0
  -37.1200   58.8677   61.0831 C   0  0  0  0  0  0  0  0  0  0  0  0
  -37.8664   59.8975   60.2419 C   0  0  0  0  0  0  0  0  0  0  0  0
  -39.0569   59.3151   59.5028 C   0  0  0  0  0  0  0  0  0  0  0  0
  -40.3749   60.0028   59.7841 C   0  0  0  0  0  0  0  0  0  0  0  0
  -41.2113   60.0348   58.5948 N   0  0  0  0  0  0  0  0  0  0  0  0
  -41.6463   57.8204   58.6325 O   0  0  0  0  0  0  0  0  0  0  0  0
  -41.7899   58.9343   58.1021 C   0  0  0  0  0  0  0  0  0  0  0  0
  -41.3562   60.8945   58.1374 H   0  0  0  0  0  0  0  0  0  0  0  0
  -43.7951   58.7761   56.6435 C   0  0  0  0  0  0  0  0  0  0  0  0
  -42.5380   59.1482   56.8431 C   0  0  0  0  0  0  0  0  0  0  0  0
  -44.7156   58.0996   57.6107 C   0  0  0  0  0  0  0  0  0  0  0  0
  -46.1664   58.5099   57.3901 C   0  0  0  0  0  0  0  0  0  0  0  0
  -46.9949   57.4663   56.6610 C   0  0  0  0  0  0  0  0  0  0  0  0
  -46.8175   56.0592   57.2065 C   0  0  0  0  0  0  0  0  0  0  0  0
  -47.9818   55.5601   58.0414 C   0  0  0  0  0  0  0  0  0  0  0  0
  -48.0355   56.1713   59.4317 C   0  0  0  0  0  0  0  0  0  0  0  0
  -49.2506   57.0487   59.6610 C   0  0  0  0  0  0  0  0  0  0  0  0
  -48.8935   58.4806   60.0058 C   0  0  0  0  0  0  0  0  0  0  0  0
  -49.5858   59.0175   61.2437 C   0  0  0  0  0  0  0  0  0  0  0  0
  -50.5514   58.0206   61.8535 C   0  0  0  0  0  0  0  0  0  0  0  0
  -51.2429   58.5429   63.1021 C   0  0  0  0  0  0  0  0  0  0  0  0
  -51.2801   60.0578   63.2044 C   0  0  0  0  0  0  0  0  0  0  0  0
  -50.7625   60.6072   64.5247 C   0  0  0  0  0  0  0  0  0  0  0  0
  -50.6582   59.5643   65.6290 C   0  0  0  0  0  0  0  0  0  0  0  0
  -49.2465   59.3909   66.1657 C   0  0  0  0  0  0  0  0  0  0  0  0
  -47.6769   58.6273   64.3409 C   0  0  0  0  0  0  0  0  0  0  0  0
  -48.4793   58.2332   65.5532 C   0  0  0  0  0  0  0  0  0  0  0  0
 43 45  1  0  0  0
 43 42  1  0  0  0
 43 46  1  0  0  0
 64 65  1  0  0  0
 44 45  2  0  0  0
 65 63  1  0  0  0
  2  1  1  0  0  0
  2  4  1  0  0  0
  2  5  1  0  0  0
  3  4  2  0  0  0
 63 62  1  0  0  0
  6  8  1  0  0  0
  6 11  2  0  0  0
  7 10  1  0  0  0
  7 11  1  0  0  0
 62 61  1  0  0  0
 26 28  1  0  0  0
 26 32  1  0  0  0
 26 29  1  0  0  0
 12 18  1  0  0  0
 12 19  1  0  0  0
 61 60  1  0  0  0
 30 36  1  0  0  0
 30 37  1  0  0  0
 30 38  1  0  0  0
 20 21  2  0  0  0
 60 59  1  0  0  0
 22 21  1  0  0  0
 22 23  1  0  0  0
 59 58  1  0  0  0
 27 28  2  0  0  0
 58 57  1  0  0  0
 31 37  2  0  0  0
 57 56  1  0  0  0
 56 55  1  0  0  0
 55 54  1  0  0  0
 54 53  1  0  0  0
 53 52  1  0  0  0
 52 51  1  0  0  0
 51 50  1  0  0  0
 50 49  1  0  0  0
 49 47  1  0  0  0
 47 48  2  0  0  0
 48 45  1  0  0  0
 42 41  1  0  0  0
 41 40  1  0  0  0
 40 39  1  0  0  0
 39  1  1  0  0  0
  1 21  1  0  0  0
  8  4  1  0  0  0
  8  9  1  0  0  0
  8 10  1  0  0  0
 11 13  1  0  0  0
 13 14  2  0  0  0
 13 18  1  0  0  0
 14 15  1  0  0  0
 15 16  2  0  0  0
 16 17  1  0  0  0
 17 18  2  0  0  0
 23 24  1  0  0  0
 23 25  1  0  0  0
 25 28  1  0  0  0
 32 33  1  0  0  0
 32 37  1  0  0  0
 33 34  1  0  0  0
 34 35  1  0  0  0
 35 36  1  0  0  0
M  END
> <minimizedAffinity>
-8.30295

> <CNNscore>
0.2372593284

> <CNNaffinity>
7.6535034180

> <CNN_VS>
1.8158650398

> <CNNaffinity_variance>
1.3135596514

$$$$
/media/chris/experiments/cd1a-new-docking/inputs/ligands/7ryo_ligand.pdb


 65 67  0  0  0  0  0  0  0  0999 V2000
  -38.1219   58.0378   63.0673 C   0  0  0  0  0  0  0  0  0  0  0  0
  -36.6938   57.7924   63.1802 N   0  0  0  0  0  0  0  0  0  0  0  0
  -36.1834   59.0885   61.4157 O   0  0  0  0  0  0  0  0  0  0  0  0
  -35.8336   58.3517   62.3258 C   0  0  0  0  0  0  0  0  0  0  0  0
  -36.3565   57.2063   63.8956 H   0  0  0  0  0  0  0  0  0  0  0  0
  -33.5232   58.9984   61.7638 N   0  0  0  0  0  0  0  0  0  0  0  0
  -32.6699   58.9827   63.8506 O   0  0  0  0  0  0  0  0  0  0  0  0
  -34.3421   58.0216   62.5005 C   0  0  0  0  0  0  0  0  0  0  0  0
  -34.0763   56.6274   61.9406 C   0  0  0  0  0  0  0  0  0  0  0  0
  -33.8552   58.1530   63.9511 C   0  0  0  0  0  0  0  0  0  0  0  0
  -32.6624   59.4544   62.5766 C   0  0  0  0  0  0  0  0  0  0  0  0
  -30.7477   59.1247   60.4533 O   0  0  0  0  0  0  0  0  0  0  0  0
  -31.6346   60.4538   62.2761 C   0  0  0  0  0  0  0  0  0  0  0  0
  -31.6419   61.6854   62.9319 C   0  0  0  0  0  0  0  0  0  0  0  0
  -30.8364   62.7209   62.4902 C   0  0  0  0  0  0  0  0  0  0  0  0
  -30.0163   62.5491   61.3964 C   0  0  0  0  0  0  0  0  0  0  0  0
  -29.9937   61.3398   60.7259 C   0  0  0  0  0  0  0  0  0  0  0  0
  -30.7975   60.2877   61.1535 C   0  0  0  0  0  0  0  0  0  0  0  0
  -31.2767   58.3971   60.7153 H   0  0  0  0  0  0  0  0  0  0  0  0
  -39.1444   57.4088   65.1648 O   0  0  0  0  0  0  0  0  0  0  0  0
  -38.7497   58.2740   64.4328 C   0  0  0  0  0  0  0  0  0  0  0  0
  -38.8206   59.5900   64.6981 O   0  0  0  0  0  0  0  0  0  0  0  0
  -37.5840   60.2907   65.0582 C   0  0  0  0  0  0  0  0  0  0  0  0
  -37.7783   60.9135   66.4176 C   0  0  0  0  0  0  0  0  0  0  0  0
  -37.3729   61.3286   63.9730 C   0  0  0  0  0  0  0  0  0  0  0  0
  -35.7310   62.8246   64.9260 N   0  0  0  0  0  0  0  0  0  0  0  0
  -35.1306   61.5578   63.1663 O   0  0  0  0  0  0  0  0  0  0  0  0
  -35.9782   61.9138   63.9802 C   0  0  0  0  0  0  0  0  0  0  0  0
  -36.4498   63.0712   65.5518 H   0  0  0  0  0  0  0  0  0  0  0  0
  -32.9226   63.9640   66.9029 N   0  0  0  0  0  0  0  0  0  0  0  0
  -35.1119   63.7413   67.3364 O   0  0  0  0  0  0  0  0  0  0  0  0
  -34.4322   63.4612   65.0573 C   0  0  0  0  0  0  0  0  0  0  0  0
  -34.4122   64.7824   64.2804 C   0  0  0  0  0  0  0  0  0  0  0  0
  -33.0073   65.2917   63.9770 C   0  0  0  0  0  0  0  0  0  0  0  0
  -32.1525   65.6063   65.1888 C   0  0  0  0  0  0  0  0  0  0  0  0
  -31.8255   64.4020   66.0465 C   0  0  0  0  0  0  0  0  0  0  0  0
  -34.1844   63.7350   66.5323 C   0  0  0  0  0  0  0  0  0  0  0  0
  -32.7099   63.8224   67.8536 H   0  0  0  0  0  0  0  0  0  0  0  0
  -38.8254   56.8956   62.3329 C   0  0  0  0  0  0  0  0  0  0  0  0
  -40.0491   57.3710   61.5572 C   0  0  0  0  0  0  0  0  0  0  0  0
  -41.3388   56.7170   62.0171 C   0  0  0  0  0  0  0  0  0  0  0  0
  -41.1571   55.5806   62.9994 C   0  0  0  0  0  0  0  0  0  0  0  0
  -41.8166   55.8718   64.2624 N   0  0  0  0  0  0  0  0  0  0  0  0
  -42.1132   58.0608   63.7992 O   0  0  0  0  0  0  0  0  0  0  0  0
  -42.2496   57.0986   64.5727 C   0  0  0  0  0  0  0  0  0  0  0  0
  -41.9487   55.1422   64.9100 H   0  0  0  0  0  0  0  0  0  0  0  0
  -44.1117   57.3984   66.1901 C   0  0  0  0  0  0  0  0  0  0  0  0
  -42.8234   57.2190   65.9316 C   0  0  0  0  0  0  0  0  0  0  0  0
  -45.2384   57.4973   65.2097 C   0  0  0  0  0  0  0  0  0  0  0  0
  -46.5881   57.2586   65.8754 C   0  0  0  0  0  0  0  0  0  0  0  0
  -46.8709   58.1913   67.0405 C   0  0  0  0  0  0  0  0  0  0  0  0
  -48.0458   59.1247   66.8009 C   0  0  0  0  0  0  0  0  0  0  0  0
  -48.6536   59.0228   65.4146 C   0  0  0  0  0  0  0  0  0  0  0  0
  -48.6768   60.3447   64.6652 C   0  0  0  0  0  0  0  0  0  0  0  0
  -49.9700   61.1169   64.8394 C   0  0  0  0  0  0  0  0  0  0  0  0
  -51.2048   60.2634   64.6316 C   0  0  0  0  0  0  0  0  0  0  0  0
  -51.4276   59.8235   63.1974 C   0  0  0  0  0  0  0  0  0  0  0  0
  -51.0434   58.3760   62.9624 C   0  0  0  0  0  0  0  0  0  0  0  0
  -49.9412   58.2088   61.9293 C   0  0  0  0  0  0  0  0  0  0  0  0
  -50.4091   57.6156   60.6117 C   0  0  0  0  0  0  0  0  0  0  0  0
  -49.3241   56.8852   59.8358 C   0  0  0  0  0  0  0  0  0  0  0  0
  -48.8008   57.6560   58.6317 C   0  0  0  0  0  0  0  0  0  0  0  0
  -47.3685   58.1377   58.7978 C   0  0  0  0  0  0  0  0  0  0  0  0
  -46.9747   56.7217   56.7444 C   0  0  0  0  0  0  0  0  0  0  0  0
  -46.4644   57.8395   57.6155 C   0  0  0  0  0  0  0  0  0  0  0  0
 43 45  1  0  0  0
 43 42  1  0  0  0
 43 46  1  0  0  0
 64 65  1  0  0  0
 44 45  2  0  0  0
 65 63  1  0  0  0
  2  1  1  0  0  0
  2  4  1  0  0  0
  2  5  1  0  0  0
  3  4  2  0  0  0
 63 62  1  0  0  0
  6  8  1  0  0  0
  6 11  2  0  0  0
  7 10  1  0  0  0
  7 11  1  0  0  0
 62 61  1  0  0  0
 26 28  1  0  0  0
 26 32  1  0  0  0
 26 29  1  0  0  0
 12 18  1  0  0  0
 12 19  1  0  0  0
 61 60  1  0  0  0
 30 36  1  0  0  0
 30 37  1  0  0  0
 30 38  1  0  0  0
 20 21  2  0  0  0
 60 59  1  0  0  0
 22 21  1  0  0  0
 22 23  1  0  0  0
 59 58  1  0  0  0
 27 28  2  0  0  0
 58 57  1  0  0  0
 31 37  2  0  0  0
 57 56  1  0  0  0
 56 55  1  0  0  0
 55 54  1  0  0  0
 54 53  1  0  0  0
 53 52  1  0  0  0
 52 51  1  0  0  0
 51 50  1  0  0  0
 50 49  1  0  0  0
 49 47  1  0  0  0
 47 48  2  0  0  0
 48 45  1  0  0  0
 42 41  1  0  0  0
 41 40  1  0  0  0
 40 39  1  0  0  0
 39  1  1  0  0  0
  1 21  1  0  0  0
  8  4  1  0  0  0
  8  9  1  0  0  0
  8 10  1  0  0  0
 11 13  1  0  0  0
 13 14  2  0  0  0
 13 18  1  0  0  0
 14 15  1  0  0  0
 15 16  2  0  0  0
 16 17  1  0  0  0
 17 18  2  0  0  0
 23 24  1  0  0  0
 23 25  1  0  0  0
 25 28  1  0  0  0
 32 33  1  0  0  0
 32 37  1  0  0  0
 33 34  1  0  0  0
 34 35  1  0  0  0
 35 36  1  0  0  0
M  END
> <minimizedAffinity>
-10.19559

> <CNNscore>
0.2351842523

> <CNNaffinity>
7.2714738846

> <CNN_VS>
1.7101361752

> <CNNaffinity_variance>
1.0750595331

$$$$
/media/chris/experiments/cd1a-new-docking/inputs/ligands/7ryo_ligand.pdb


 65 67  0  0  0  0  0  0  0  0999 V2000
  -38.3732   60.4550   64.7230 C   0  0  0  0  0  0  0  0  0  0  0  0
  -37.5935   59.6066   63.8372 N   0  0  0  0  0  0  0  0  0  0  0  0
  -38.3214   60.6332   61.9744 O   0  0  0  0  0  0  0  0  0  0  0  0
  -37.6383   59.7751   62.5133 C   0  0  0  0  0  0  0  0  0  0  0  0
  -37.0253   58.8986   64.2180 H   0  0  0  0  0  0  0  0  0  0  0  0
  -35.3706   59.1336   61.7938 N   0  0  0  0  0  0  0  0  0  0  0  0
  -35.5232   56.9196   62.1914 O   0  0  0  0  0  0  0  0  0  0  0  0
  -36.8015   58.8199   61.6465 C   0  0  0  0  0  0  0  0  0  0  0  0
  -37.2021   59.0005   60.1854 C   0  0  0  0  0  0  0  0  0  0  0  0
  -36.9035   57.3518   62.0857 C   0  0  0  0  0  0  0  0  0  0  0  0
  -34.7782   58.0509   62.0876 C   0  0  0  0  0  0  0  0  0  0  0  0
  -33.4013   59.3686   64.2442 O   0  0  0  0  0  0  0  0  0  0  0  0
  -33.3419   57.8889   62.3253 C   0  0  0  0  0  0  0  0  0  0  0  0
  -32.6094   56.9607   61.5844 C   0  0  0  0  0  0  0  0  0  0  0  0
  -31.3199   56.6239   61.9586 C   0  0  0  0  0  0  0  0  0  0  0  0
  -30.7423   57.2012   63.0684 C   0  0  0  0  0  0  0  0  0  0  0  0
  -31.4484   58.1205   63.8224 C   0  0  0  0  0  0  0  0  0  0  0  0
  -32.7463   58.4704   63.4635 C   0  0  0  0  0  0  0  0  0  0  0  0
  -34.2766   59.6252   64.0297 H   0  0  0  0  0  0  0  0  0  0  0  0
  -37.8469   60.7444   67.0639 O   0  0  0  0  0  0  0  0  0  0  0  0
  -37.5462   60.9141   65.9146 C   0  0  0  0  0  0  0  0  0  0  0  0
  -36.4398   61.5564   65.5016 O   0  0  0  0  0  0  0  0  0  0  0  0
  -35.9100   62.6331   66.3439 C   0  0  0  0  0  0  0  0  0  0  0  0
  -36.0072   63.9234   65.5697 C   0  0  0  0  0  0  0  0  0  0  0  0
  -34.4746   62.2471   66.6439 C   0  0  0  0  0  0  0  0  0  0  0  0
  -33.5120   62.5851   64.4527 N   0  0  0  0  0  0  0  0  0  0  0  0
  -32.6944   63.7780   66.1762 O   0  0  0  0  0  0  0  0  0  0  0  0
  -33.4772   62.9381   65.7408 C   0  0  0  0  0  0  0  0  0  0  0  0
  -34.1616   61.9055   64.1606 H   0  0  0  0  0  0  0  0  0  0  0  0
  -32.8344   64.8444   61.7086 N   0  0  0  0  0  0  0  0  0  0  0  0
  -34.6643   63.7167   62.3490 O   0  0  0  0  0  0  0  0  0  0  0  0
  -32.6191   63.1755   63.4710 C   0  0  0  0  0  0  0  0  0  0  0  0
  -31.8248   62.0779   62.7541 C   0  0  0  0  0  0  0  0  0  0  0  0
  -30.5703   62.5894   62.0543 C   0  0  0  0  0  0  0  0  0  0  0  0
  -30.8065   63.6022   60.9514 C   0  0  0  0  0  0  0  0  0  0  0  0
  -31.4042   64.9095   61.4277 C   0  0  0  0  0  0  0  0  0  0  0  0
  -33.4617   63.9364   62.4595 C   0  0  0  0  0  0  0  0  0  0  0  0
  -33.3956   65.5435   61.3017 H   0  0  0  0  0  0  0  0  0  0  0  0
  -39.6509   59.7518   65.1833 C   0  0  0  0  0  0  0  0  0  0  0  0
  -39.5171   58.2329   65.1622 C   0  0  0  0  0  0  0  0  0  0  0  0
  -40.3093   57.5791   64.0453 C   0  0  0  0  0  0  0  0  0  0  0  0
  -41.3302   58.4783   63.3830 C   0  0  0  0  0  0  0  0  0  0  0  0
  -40.8635   58.9274   62.0809 N   0  0  0  0  0  0  0  0  0  0  0  0
  -41.4048   57.0033   61.0326 O   0  0  0  0  0  0  0  0  0  0  0  0
  -40.9351   58.1524   60.9933 C   0  0  0  0  0  0  0  0  0  0  0  0
  -40.4825   59.8313   61.9973 H   0  0  0  0  0  0  0  0  0  0  0  0
  -40.9690   58.8753   58.6164 C   0  0  0  0  0  0  0  0  0  0  0  0
  -40.3397   58.7494   59.7769 C   0  0  0  0  0  0  0  0  0  0  0  0
  -42.3740   58.4772   58.2874 C   0  0  0  0  0  0  0  0  0  0  0  0
  -42.7642   58.8994   56.8763 C   0  0  0  0  0  0  0  0  0  0  0  0
  -44.2635   58.9154   56.6333 C   0  0  0  0  0  0  0  0  0  0  0  0
  -45.0188   57.8590   57.4223 C   0  0  0  0  0  0  0  0  0  0  0  0
  -46.4389   58.2476   57.7885 C   0  0  0  0  0  0  0  0  0  0  0  0
  -47.0077   57.4424   58.9451 C   0  0  0  0  0  0  0  0  0  0  0  0
  -48.2918   58.0176   59.5098 C   0  0  0  0  0  0  0  0  0  0  0  0
  -49.2970   56.9541   59.9038 C   0  0  0  0  0  0  0  0  0  0  0  0
  -50.4677   57.4703   60.7180 C   0  0  0  0  0  0  0  0  0  0  0  0
  -50.0588   58.5237   61.7285 C   0  0  0  0  0  0  0  0  0  0  0  0
  -50.9275   58.5267   62.9758 C   0  0  0  0  0  0  0  0  0  0  0  0
  -51.4894   59.8903   63.3387 C   0  0  0  0  0  0  0  0  0  0  0  0
  -51.1231   60.3644   64.7365 C   0  0  0  0  0  0  0  0  0  0  0  0
  -49.6487   60.7038   64.9068 C   0  0  0  0  0  0  0  0  0  0  0  0
  -48.9635   59.8936   65.9955 C   0  0  0  0  0  0  0  0  0  0  0  0
  -48.4157   57.4591   65.6085 C   0  0  0  0  0  0  0  0  0  0  0  0
  -47.9496   58.8860   65.4847 C   0  0  0  0  0  0  0  0  0  0  0  0
 43 45  1  0  0  0
 43 42  1  0  0  0
 43 46  1  0  0  0
 64 65  1  0  0  0
 44 45  2  0  0  0
 65 63  1  0  0  0
  2  1  1  0  0  0
  2  4  1  0  0  0
  2  5  1  0  0  0
  3  4  2  0  0  0
 63 62  1  0  0  0
  6  8  1  0  0  0
  6 11  2  0  0  0
  7 10  1  0  0  0
  7 11  1  0  0  0
 62 61  1  0  0  0
 26 28  1  0  0  0
 26 32  1  0  0  0
 26 29  1  0  0  0
 12 18  1  0  0  0
 12 19  1  0  0  0
 61 60  1  0  0  0
 30 36  1  0  0  0
 30 37  1  0  0  0
 30 38  1  0  0  0
 20 21  2  0  0  0
 60 59  1  0  0  0
 22 21  1  0  0  0
 22 23  1  0  0  0
 59 58  1  0  0  0
 27 28  2  0  0  0
 58 57  1  0  0  0
 31 37  2  0  0  0
 57 56  1  0  0  0
 56 55  1  0  0  0
 55 54  1  0  0  0
 54 53  1  0  0  0
 53 52  1  0  0  0
 52 51  1  0  0  0
 51 50  1  0  0  0
 50 49  1  0  0  0
 49 47  1  0  0  0
 47 48  2  0  0  0
 48 45  1  0  0  0
 42 41  1  0  0  0
 41 40  1  0  0  0
 40 39  1  0  0  0
 39  1  1  0  0  0
  1 21  1  0  0  0
  8  4  1  0  0  0
  8  9  1  0  0  0
  8 10  1  0  0  0
 11 13  1  0  0  0
 13 14  2  0  0  0
 13 18  1  0  0  0
 14 15  1  0  0  0
 15 16  2  0  0  0
 16 17  1  0  0  0
 17 18  2  0  0  0
 23 24  1  0  0  0
 23 25  1  0  0  0
 25 28  1  0  0  0
 32 33  1  0  0  0
 32 37  1  0  0  0
 33 34  1  0  0  0
 34 35  1  0  0  0
 35 36  1  0  0  0
M  END
> <minimizedAffinity>
-8.64242

> <CNNscore>
0.2186408788

> <CNNaffinity>
7.0784850121

> <CNN_VS>
1.5476461649

> <CNNaffinity_variance>
0.9133831859

$$$$
/media/chris/experiments/cd1a-new-docking/inputs/ligands/7ryo_ligand.pdb


 65 67  0  0  0  0  0  0  0  0999 V2000
  -39.1189   58.1261   63.2144 C   0  0  0  0  0  0  0  0  0  0  0  0
  -37.8508   57.7404   63.8107 N   0  0  0  0  0  0  0  0  0  0  0  0
  -36.8127   59.6326   63.1816 O   0  0  0  0  0  0  0  0  0  0  0  0
  -36.7879   58.5456   63.7394 C   0  0  0  0  0  0  0  0  0  0  0  0
  -37.7744   56.8746   64.2728 H   0  0  0  0  0  0  0  0  0  0  0  0
  -34.6562   57.3682   63.3634 N   0  0  0  0  0  0  0  0  0  0  0  0
  -33.2805   58.8919   64.2954 O   0  0  0  0  0  0  0  0  0  0  0  0
  -35.4782   58.0518   64.3756 C   0  0  0  0  0  0  0  0  0  0  0  0
  -35.8125   57.0671   65.4922 C   0  0  0  0  0  0  0  0  0  0  0  0
  -34.5763   59.1905   64.8742 C   0  0  0  0  0  0  0  0  0  0  0  0
  -33.5023   57.8941   63.4006 C   0  0  0  0  0  0  0  0  0  0  0  0
  -30.8006   57.8631   64.3923 O   0  0  0  0  0  0  0  0  0  0  0  0
  -32.3572   57.5248   62.5652 C   0  0  0  0  0  0  0  0  0  0  0  0
  -32.5607   57.0301   61.2764 C   0  0  0  0  0  0  0  0  0  0  0  0
  -31.5174   56.4535   60.5727 C   0  0  0  0  0  0  0  0  0  0  0  0
  -30.2633   56.3604   61.1359 C   0  0  0  0  0  0  0  0  0  0  0  0
  -30.0362   56.8389   62.4133 C   0  0  0  0  0  0  0  0  0  0  0  0
  -31.0726   57.4200   63.1373 C   0  0  0  0  0  0  0  0  0  0  0  0
  -31.4767   58.2592   64.9060 H   0  0  0  0  0  0  0  0  0  0  0  0
  -40.6621   56.6324   64.3226 O   0  0  0  0  0  0  0  0  0  0  0  0
  -40.2869   57.7533   64.1152 C   0  0  0  0  0  0  0  0  0  0  0  0
  -40.8554   58.8568   64.6314 O   0  0  0  0  0  0  0  0  0  0  0  0
  -40.3739   59.3403   65.9292 C   0  0  0  0  0  0  0  0  0  0  0  0
  -41.5514   59.4094   66.8686 C   0  0  0  0  0  0  0  0  0  0  0  0
  -39.7717   60.7052   65.6577 C   0  0  0  0  0  0  0  0  0  0  0  0
  -37.6467   61.8499   65.5310 N   0  0  0  0  0  0  0  0  0  0  0  0
  -37.7440   59.8938   66.6381 O   0  0  0  0  0  0  0  0  0  0  0  0
  -38.2967   60.7746   65.9852 C   0  0  0  0  0  0  0  0  0  0  0  0
  -38.1421   62.5244   65.0125 H   0  0  0  0  0  0  0  0  0  0  0  0
  -34.8977   62.9122   67.6306 N   0  0  0  0  0  0  0  0  0  0  0  0
  -37.0275   63.5880   67.4361 O   0  0  0  0  0  0  0  0  0  0  0  0
  -36.2302   62.0524   65.7805 C   0  0  0  0  0  0  0  0  0  0  0  0
  -35.5804   62.7579   64.5849 C   0  0  0  0  0  0  0  0  0  0  0  0
  -34.0630   62.6136   64.5411 C   0  0  0  0  0  0  0  0  0  0  0  0
  -33.3179   63.2058   65.7209 C   0  0  0  0  0  0  0  0  0  0  0  0
  -33.6167   62.5328   67.0441 C   0  0  0  0  0  0  0  0  0  0  0  0
  -36.0857   62.9185   67.0219 C   0  0  0  0  0  0  0  0  0  0  0  0
  -34.8844   63.1929   68.5741 H   0  0  0  0  0  0  0  0  0  0  0  0
  -39.2864   57.5159   61.8221 C   0  0  0  0  0  0  0  0  0  0  0  0
  -40.6547   57.8140   61.2186 C   0  0  0  0  0  0  0  0  0  0  0  0
  -40.8619   59.2844   60.9060 C   0  0  0  0  0  0  0  0  0  0  0  0
  -40.1941   59.7616   59.6349 C   0  0  0  0  0  0  0  0  0  0  0  0
  -41.1658   59.9285   58.5658 N   0  0  0  0  0  0  0  0  0  0  0  0
  -41.3517   57.7166   58.1570 O   0  0  0  0  0  0  0  0  0  0  0  0
  -41.6773   58.8873   57.9001 C   0  0  0  0  0  0  0  0  0  0  0  0
  -41.4565   60.8376   58.3241 H   0  0  0  0  0  0  0  0  0  0  0  0
  -43.8702   58.9169   56.7324 C   0  0  0  0  0  0  0  0  0  0  0  0
  -42.5899   59.2567   56.7951 C   0  0  0  0  0  0  0  0  0  0  0  0
  -44.6601   58.1308   57.7317 C   0  0  0  0  0  0  0  0  0  0  0  0
  -46.1465   58.1240   57.3964 C   0  0  0  0  0  0  0  0  0  0  0  0
  -46.6195   56.8429   56.7315 C   0  0  0  0  0  0  0  0  0  0  0  0
  -47.6959   56.1119   57.5165 C   0  0  0  0  0  0  0  0  0  0  0  0
  -47.5589   56.2267   59.0231 C   0  0  0  0  0  0  0  0  0  0  0  0
  -48.8710   56.0382   59.7663 C   0  0  0  0  0  0  0  0  0  0  0  0
  -49.6485   57.3256   59.9584 C   0  0  0  0  0  0  0  0  0  0  0  0
  -48.7595   58.5218   60.2333 C   0  0  0  0  0  0  0  0  0  0  0  0
  -49.5001   59.7543   60.7154 C   0  0  0  0  0  0  0  0  0  0  0  0
  -49.6906   59.7722   62.2192 C   0  0  0  0  0  0  0  0  0  0  0  0
  -51.1007   59.4023   62.6490 C   0  0  0  0  0  0  0  0  0  0  0  0
  -51.5491   60.0605   63.9423 C   0  0  0  0  0  0  0  0  0  0  0  0
  -50.4119   60.4263   64.8834 C   0  0  0  0  0  0  0  0  0  0  0  0
  -50.1993   59.4275   66.0127 C   0  0  0  0  0  0  0  0  0  0  0  0
  -48.7354   59.2090   66.3593 C   0  0  0  0  0  0  0  0  0  0  0  0
  -46.9127   58.4982   64.7627 C   0  0  0  0  0  0  0  0  0  0  0  0
  -47.7628   59.6319   65.2732 C   0  0  0  0  0  0  0  0  0  0  0  0
 43 45  1  0  0  0
 43 42  1  0  0  0
 43 46  1  0  0  0
 64 65  1  0  0  0
 44 45  2  0  0  0
 65 63  1  0  0  0
  2  1  1  0  0  0
  2  4  1  0  0  0
  2  5  1  0  0  0
  3  4  2  0  0  0
 63 62  1  0  0  0
  6  8  1  0  0  0
  6 11  2  0  0  0
  7 10  1  0  0  0
  7 11  1  0  0  0
 62 61  1  0  0  0
 26 28  1  0  0  0
 26 32  1  0  0  0
 26 29  1  0  0  0
 12 18  1  0  0  0
 12 19  1  0  0  0
 61 60  1  0  0  0
 30 36  1  0  0  0
 30 37  1  0  0  0
 30 38  1  0  0  0
 20 21  2  0  0  0
 60 59  1  0  0  0
 22 21  1  0  0  0
 22 23  1  0  0  0
 59 58  1  0  0  0
 27 28  2  0  0  0
 58 57  1  0  0  0
 31 37  2  0  0  0
 57 56  1  0  0  0
 56 55  1  0  0  0
 55 54  1  0  0  0
 54 53  1  0  0  0
 53 52  1  0  0  0
 52 51  1  0  0  0
 51 50  1  0  0  0
 50 49  1  0  0  0
 49 47  1  0  0  0
 47 48  2  0  0  0
 48 45  1  0  0  0
 42 41  1  0  0  0
 41 40  1  0  0  0
 40 39  1  0  0  0
 39  1  1  0  0  0
  1 21  1  0  0  0
  8  4  1  0  0  0
  8  9  1  0  0  0
  8 10  1  0  0  0
 11 13  1  0  0  0
 13 14  2  0  0  0
 13 18  1  0  0  0
 14 15  1  0  0  0
 15 16  2  0  0  0
 16 17  1  0  0  0
 17 18  2  0  0  0
 23 24  1  0  0  0
 23 25  1  0  0  0
 25 28  1  0  0  0
 32 33  1  0  0  0
 32 37  1  0  0  0
 33 34  1  0  0  0
 34 35  1  0  0  0
 35 36  1  0  0  0
M  END
> <minimizedAffinity>
-8.38517

> <CNNscore>
0.2096552104

> <CNNaffinity>
7.4992156029

> <CNN_VS>
1.5722496510

> <CNNaffinity_variance>
0.5266081095

$$$$
/media/chris/experiments/cd1a-new-docking/inputs/ligands/7ryo_ligand.pdb


 65 67  0  0  0  0  0  0  0  0999 V2000
  -39.1074   60.1117   64.8241 C   0  0  0  0  0  0  0  0  0  0  0  0
  -38.2600   59.4808   63.8260 N   0  0  0  0  0  0  0  0  0  0  0  0
  -39.2937   60.4859   62.1012 O   0  0  0  0  0  0  0  0  0  0  0  0
  -38.4327   59.7296   62.5256 C   0  0  0  0  0  0  0  0  0  0  0  0
  -37.5499   58.8620   64.1123 H   0  0  0  0  0  0  0  0  0  0  0  0
  -36.1082   59.3785   61.7871 N   0  0  0  0  0  0  0  0  0  0  0  0
  -36.1122   57.1239   61.7792 O   0  0  0  0  0  0  0  0  0  0  0  0
  -37.5091   59.0030   61.5341 C   0  0  0  0  0  0  0  0  0  0  0  0
  -37.8859   59.4165   60.1146 C   0  0  0  0  0  0  0  0  0  0  0  0
  -37.5168   57.4764   61.7015 C   0  0  0  0  0  0  0  0  0  0  0  0
  -35.4474   58.3020   61.9053 C   0  0  0  0  0  0  0  0  0  0  0  0
  -34.2218   59.2916   64.3140 O   0  0  0  0  0  0  0  0  0  0  0  0
  -34.0095   58.1947   62.1630 C   0  0  0  0  0  0  0  0  0  0  0  0
  -33.1943   57.4681   61.2942 C   0  0  0  0  0  0  0  0  0  0  0  0
  -31.8935   57.1548   61.6490 C   0  0  0  0  0  0  0  0  0  0  0  0
  -31.3860   57.5564   62.8655 C   0  0  0  0  0  0  0  0  0  0  0  0
  -32.1746   58.2737   63.7465 C   0  0  0  0  0  0  0  0  0  0  0  0
  -33.4851   58.5965   63.4088 C   0  0  0  0  0  0  0  0  0  0  0  0
  -35.1078   59.5246   64.1172 H   0  0  0  0  0  0  0  0  0  0  0  0
  -38.2102   59.7968   67.0460 O   0  0  0  0  0  0  0  0  0  0  0  0
  -38.3118   60.4829   66.0666 C   0  0  0  0  0  0  0  0  0  0  0  0
  -37.7542   61.6979   65.9242 O   0  0  0  0  0  0  0  0  0  0  0  0
  -36.2911   61.7880   65.8932 C   0  0  0  0  0  0  0  0  0  0  0  0
  -35.8475   62.6037   67.0812 C   0  0  0  0  0  0  0  0  0  0  0  0
  -35.9518   62.4568   64.5752 C   0  0  0  0  0  0  0  0  0  0  0  0
  -34.2241   64.1433   64.6868 N   0  0  0  0  0  0  0  0  0  0  0  0
  -33.6243   62.0265   64.2166 O   0  0  0  0  0  0  0  0  0  0  0  0
  -34.4957   62.8528   64.4726 C   0  0  0  0  0  0  0  0  0  0  0  0
  -34.9640   64.7606   64.8883 H   0  0  0  0  0  0  0  0  0  0  0  0
  -31.0433   64.9275   66.2237 N   0  0  0  0  0  0  0  0  0  0  0  0
  -33.1461   64.8610   67.0012 O   0  0  0  0  0  0  0  0  0  0  0  0
  -32.8683   64.6616   64.6311 C   0  0  0  0  0  0  0  0  0  0  0  0
  -32.8526   66.0204   63.9219 C   0  0  0  0  0  0  0  0  0  0  0  0
  -31.4739   66.4291   63.4146 C   0  0  0  0  0  0  0  0  0  0  0  0
  -30.4111   66.5995   64.4820 C   0  0  0  0  0  0  0  0  0  0  0  0
  -30.0622   65.3235   65.2190 C   0  0  0  0  0  0  0  0  0  0  0  0
  -32.3637   64.8259   66.0560 C   0  0  0  0  0  0  0  0  0  0  0  0
  -30.6950   64.7126   67.1190 H   0  0  0  0  0  0  0  0  0  0  0  0
  -40.2985   59.2224   65.1838 C   0  0  0  0  0  0  0  0  0  0  0  0
  -40.0180   57.7454   64.9287 C   0  0  0  0  0  0  0  0  0  0  0  0
  -40.8747   57.1571   63.8231 C   0  0  0  0  0  0  0  0  0  0  0  0
  -41.8371   56.0798   64.2733 C   0  0  0  0  0  0  0  0  0  0  0  0
  -42.6300   56.5288   65.4068 N   0  0  0  0  0  0  0  0  0  0  0  0
  -44.0496   57.7517   64.1485 O   0  0  0  0  0  0  0  0  0  0  0  0
  -43.6854   57.3373   65.2613 C   0  0  0  0  0  0  0  0  0  0  0  0
  -42.3818   56.2277   66.3107 H   0  0  0  0  0  0  0  0  0  0  0  0
  -45.6211   57.9435   66.6961 C   0  0  0  0  0  0  0  0  0  0  0  0
  -44.3193   57.7503   66.5333 C   0  0  0  0  0  0  0  0  0  0  0  0
  -46.7069   57.7770   65.6793 C   0  0  0  0  0  0  0  0  0  0  0  0
  -46.9551   59.0645   64.9030 C   0  0  0  0  0  0  0  0  0  0  0  0
  -48.1314   59.8750   65.4193 C   0  0  0  0  0  0  0  0  0  0  0  0
  -49.1493   59.0484   66.1871 C   0  0  0  0  0  0  0  0  0  0  0  0
  -50.5942   59.4138   65.9036 C   0  0  0  0  0  0  0  0  0  0  0  0
  -50.7475   60.5290   64.8827 C   0  0  0  0  0  0  0  0  0  0  0  0
  -51.5659   60.1314   63.6698 C   0  0  0  0  0  0  0  0  0  0  0  0
  -51.3732   58.6820   63.2716 C   0  0  0  0  0  0  0  0  0  0  0  0
  -50.1069   58.4131   62.4815 C   0  0  0  0  0  0  0  0  0  0  0  0
  -50.3591   58.3034   60.9907 C   0  0  0  0  0  0  0  0  0  0  0  0
  -49.1924   58.7920   60.1480 C   0  0  0  0  0  0  0  0  0  0  0  0
  -48.6203   57.7428   59.2106 C   0  0  0  0  0  0  0  0  0  0  0  0
  -47.1929   57.3291   59.5335 C   0  0  0  0  0  0  0  0  0  0  0  0
  -46.8313   55.9309   59.0518 C   0  0  0  0  0  0  0  0  0  0  0  0
  -47.5410   55.5311   57.7682 C   0  0  0  0  0  0  0  0  0  0  0  0
  -47.6581   57.3212   55.9911 C   0  0  0  0  0  0  0  0  0  0  0  0
  -46.9278   56.1084   56.5053 C   0  0  0  0  0  0  0  0  0  0  0  0
 43 45  1  0  0  0
 43 42  1  0  0  0
 43 46  1  0  0  0
 64 65  1  0  0  0
 44 45  2  0  0  0
 65 63  1  0  0  0
  2  1  1  0  0  0
  2  4  1  0  0  0
  2  5  1  0  0  0
  3  4  2  0  0  0
 63 62  1  0  0  0
  6  8  1  0  0  0
  6 11  2  0  0  0
  7 10  1  0  0  0
  7 11  1  0  0  0
 62 61  1  0  0  0
 26 28  1  0  0  0
 26 32  1  0  0  0
 26 29  1  0  0  0
 12 18  1  0  0  0
 12 19  1  0  0  0
 61 60  1  0  0  0
 30 36  1  0  0  0
 30 37  1  0  0  0
 30 38  1  0  0  0
 20 21  2  0  0  0
 60 59  1  0  0  0
 22 21  1  0  0  0
 22 23  1  0  0  0
 59 58  1  0  0  0
 27 28  2  0  0  0
 58 57  1  0  0  0
 31 37  2  0  0  0
 57 56  1  0  0  0
 56 55  1  0  0  0
 55 54  1  0  0  0
 54 53  1  0  0  0
 53 52  1  0  0  0
 52 51  1  0  0  0
 51 50  1  0  0  0
 50 49  1  0  0  0
 49 47  1  0  0  0
 47 48  2  0  0  0
 48 45  1  0  0  0
 42 41  1  0  0  0
 41 40  1  0  0  0
 40 39  1  0  0  0
 39  1  1  0  0  0
  1 21  1  0  0  0
  8  4  1  0  0  0
  8  9  1  0  0  0
  8 10  1  0  0  0
 11 13  1  0  0  0
 13 14  2  0  0  0
 13 18  1  0  0  0
 14 15  1  0  0  0
 15 16  2  0  0  0
 16 17  1  0  0  0
 17 18  2  0  0  0
 23 24  1  0  0  0
 23 25  1  0  0  0
 25 28  1  0  0  0
 32 33  1  0  0  0
 32 37  1  0  0  0
 33 34  1  0  0  0
 34 35  1  0  0  0
 35 36  1  0  0  0
M  END
> <minimizedAffinity>
-10.23613

> <CNNscore>
0.2083897740

> <CNNaffinity>
7.1121993065

> <CNN_VS>
1.4821095467

> <CNNaffinity_variance>
0.8643534780

$$$$
