/media/chris/experiments/cd1a-new-docking/inputs/ligands/7ryo_ligand.pdb


 65 67  0  0  0  0  0  0  0  0999 V2000
  -39.4046   60.7969   63.8200 C   0  0  0  0  0  0  0  0  0  0  0  0
  -37.9762   60.6116   64.0143 N   0  0  0  0  0  0  0  0  0  0  0  0
  -38.0447   58.4206   63.5153 O   0  0  0  0  0  0  0  0  0  0  0  0
  -37.4117   59.4140   63.8408 C   0  0  0  0  0  0  0  0  0  0  0  0
  -37.4178   61.3786   64.2771 H   0  0  0  0  0  0  0  0  0  0  0  0
  -35.3779   58.0783   63.4514 N   0  0  0  0  0  0  0  0  0  0  0  0
  -34.0437   59.7364   62.7074 O   0  0  0  0  0  0  0  0  0  0  0  0
  -35.8988   59.2987   64.0894 C   0  0  0  0  0  0  0  0  0  0  0  0
  -35.6501   59.2185   65.5926 C   0  0  0  0  0  0  0  0  0  0  0  0
  -35.0869   60.4286   63.4393 C   0  0  0  0  0  0  0  0  0  0  0  0
  -34.3907   58.4232   62.7332 C   0  0  0  0  0  0  0  0  0  0  0  0
  -33.6854   59.0226   60.0080 O   0  0  0  0  0  0  0  0  0  0  0  0
  -33.5639   57.5323   61.9156 C   0  0  0  0  0  0  0  0  0  0  0  0
  -32.9631   56.4112   62.4897 C   0  0  0  0  0  0  0  0  0  0  0  0
  -31.9930   55.7041   61.8005 C   0  0  0  0  0  0  0  0  0  0  0  0
  -31.6075   56.0980   60.5377 C   0  0  0  0  0  0  0  0  0  0  0  0
  -32.1840   57.2082   59.9481 C   0  0  0  0  0  0  0  0  0  0  0  0
  -33.1593   57.9332   60.6257 C   0  0  0  0  0  0  0  0  0  0  0  0
  -34.3441   59.5322   60.4374 H   0  0  0  0  0  0  0  0  0  0  0  0
  -41.3736   60.3130   65.1351 O   0  0  0  0  0  0  0  0  0  0  0  0
  -40.1819   60.4440   65.0792 C   0  0  0  0  0  0  0  0  0  0  0  0
  -39.3500   60.3195   66.1279 O   0  0  0  0  0  0  0  0  0  0  0  0
  -38.6063   61.5050   66.5652 C   0  0  0  0  0  0  0  0  0  0  0  0
  -38.3006   62.3407   65.3480 C   0  0  0  0  0  0  0  0  0  0  0  0
  -37.3514   60.9757   67.2318 C   0  0  0  0  0  0  0  0  0  0  0  0
  -35.8812   62.6476   68.1728 N   0  0  0  0  0  0  0  0  0  0  0  0
  -37.4645   61.7490   69.4947 O   0  0  0  0  0  0  0  0  0  0  0  0
  -36.9050   61.8209   68.4040 C   0  0  0  0  0  0  0  0  0  0  0  0
  -35.5514   63.2169   68.9051 H   0  0  0  0  0  0  0  0  0  0  0  0
  -33.0069   62.2898   66.0038 N   0  0  0  0  0  0  0  0  0  0  0  0
  -33.2336   62.8017   68.1757 O   0  0  0  0  0  0  0  0  0  0  0  0
  -35.2408   62.7304   66.8717 C   0  0  0  0  0  0  0  0  0  0  0  0
  -35.5634   64.0752   66.2105 C   0  0  0  0  0  0  0  0  0  0  0  0
  -35.3337   64.0857   64.7031 C   0  0  0  0  0  0  0  0  0  0  0  0
  -33.9065   63.8319   64.2598 C   0  0  0  0  0  0  0  0  0  0  0  0
  -33.3862   62.4521   64.6043 C   0  0  0  0  0  0  0  0  0  0  0  0
  -33.7385   62.6105   67.0733 C   0  0  0  0  0  0  0  0  0  0  0  0
  -32.1183   61.9033   66.1775 H   0  0  0  0  0  0  0  0  0  0  0  0
  -39.9111   59.9924   62.6219 C   0  0  0  0  0  0  0  0  0  0  0  0
  -41.4036   59.6932   62.7131 C   0  0  0  0  0  0  0  0  0  0  0  0
  -41.7021   58.2880   63.2019 C   0  0  0  0  0  0  0  0  0  0  0  0
  -43.1727   57.9363   63.2579 C   0  0  0  0  0  0  0  0  0  0  0  0
  -43.8351   58.6343   64.3483 N   0  0  0  0  0  0  0  0  0  0  0  0
  -45.2231   56.9208   64.8294 O   0  0  0  0  0  0  0  0  0  0  0  0
  -44.8186   58.0722   65.0595 C   0  0  0  0  0  0  0  0  0  0  0  0
  -43.5504   59.5502   64.5702 H   0  0  0  0  0  0  0  0  0  0  0  0
  -46.6023   59.5575   65.9458 C   0  0  0  0  0  0  0  0  0  0  0  0
  -45.4244   58.9622   66.0750 C   0  0  0  0  0  0  0  0  0  0  0  0
  -47.5600   59.4561   64.7999 C   0  0  0  0  0  0  0  0  0  0  0  0
  -46.9487   59.9793   63.5058 C   0  0  0  0  0  0  0  0  0  0  0  0
  -47.0244   58.9963   62.3503 C   0  0  0  0  0  0  0  0  0  0  0  0
  -46.0767   57.8170   62.4919 C   0  0  0  0  0  0  0  0  0  0  0  0
  -45.8871   57.0103   61.2211 C   0  0  0  0  0  0  0  0  0  0  0  0
  -44.5927   56.2142   61.1971 C   0  0  0  0  0  0  0  0  0  0  0  0
  -43.4634   56.9163   60.4688 C   0  0  0  0  0  0  0  0  0  0  0  0
  -42.1047   56.6584   61.0891 C   0  0  0  0  0  0  0  0  0  0  0  0
  -41.9718   55.3074   61.7651 C   0  0  0  0  0  0  0  0  0  0  0  0
  -41.4313   55.4100   63.1777 C   0  0  0  0  0  0  0  0  0  0  0  0
  -42.2889   56.2759   64.0860 C   0  0  0  0  0  0  0  0  0  0  0  0
  -41.5338   56.8933   65.2502 C   0  0  0  0  0  0  0  0  0  0  0  0
  -41.6048   56.0873   66.5379 C   0  0  0  0  0  0  0  0  0  0  0  0
  -42.2246   56.8426   67.7056 C   0  0  0  0  0  0  0  0  0  0  0  0
  -42.7755   58.2060   67.3198 C   0  0  0  0  0  0  0  0  0  0  0  0
  -40.8582   58.9631   68.7783 C   0  0  0  0  0  0  0  0  0  0  0  0
  -42.0208   59.3802   67.9166 C   0  0  0  0  0  0  0  0  0  0  0  0
 43 45  1  0  0  0
 43 42  1  0  0  0
 43 46  1  0  0  0
 64 65  1  0  0  0
 44 45  2  0  0  0
 65 63  1  0  0  0
  2  1  1  0  0  0
  2  4  1  0  0  0
  2  5  1  0  0  0
  3  4  2  0  0  0
 63 62  1  0  0  0
  6  8  1  0  0  0
  6 11  2  0  0  0
  7 10  1  0  0  0
  7 11  1  0  0  0
 62 61  1  0  0  0
 26 28  1  0  0  0
 26 32  1  0  0  0
 26 29  1  0  0  0
 12 18  1  0  0  0
 12 19  1  0  0  0
 61 60  1  0  0  0
 30 36  1  0  0  0
 30 37  1  0  0  0
 30 38  1  0  0  0
 20 21  2  0  0  0
 60 59  1  0  0  0
 22 21  1  0  0  0
 22 23  1  0  0  0
 59 58  1  0  0  0
 27 28  2  0  0  0
 58 57  1  0  0  0
 31 37  2  0  0  0
 57 56  1  0  0  0
 56 55  1  0  0  0
 55 54  1  0  0  0
 54 53  1  0  0  0
 53 52  1  0  0  0
 52 51  1  0  0  0
 51 50  1  0  0  0
 50 49  1  0  0  0
 49 47  1  0  0  0
 47 48  2  0  0  0
 48 45  1  0  0  0
 42 41  1  0  0  0
 41 40  1  0  0  0
 40 39  1  0  0  0
 39  1  1  0  0  0
  1 21  1  0  0  0
  8  4  1  0  0  0
  8  9  1  0  0  0
  8 10  1  0  0  0
 11 13  1  0  0  0
 13 14  2  0  0  0
 13 18  1  0  0  0
 14 15  1  0  0  0
 15 16  2  0  0  0
 16 17  1  0  0  0
 17 18  2  0  0  0
 23 24  1  0  0  0
 23 25  1  0  0  0
 25 28  1  0  0  0
 32 33  1  0  0  0
 32 37  1  0  0  0
 33 34  1  0  0  0
 34 35  1  0  0  0
 35 36  1  0  0  0
M  END
> <minimizedAffinity>
14.89522

> <CNNscore>
0.3554976881

> <CNNaffinity>
7.3372101784

> <CNN_VS>
2.6083612442

> <CNNaffinity_variance>
0.2250257283

$$$$
/media/chris/experiments/cd1a-new-docking/inputs/ligands/7ryo_ligand.pdb


 65 67  0  0  0  0  0  0  0  0999 V2000
  -37.3206   59.8049   62.0853 C   0  0  0  0  0  0  0  0  0  0  0  0
  -36.1913   60.3500   62.8201 N   0  0  0  0  0  0  0  0  0  0  0  0
  -34.9172   58.5251   62.5031 O   0  0  0  0  0  0  0  0  0  0  0  0
  -35.0662   59.6461   62.9664 C   0  0  0  0  0  0  0  0  0  0  0  0
  -36.2567   61.2495   63.2149 H   0  0  0  0  0  0  0  0  0  0  0  0
  -33.6352   61.6312   63.2555 N   0  0  0  0  0  0  0  0  0  0  0  0
  -33.9353   61.9221   65.4710 O   0  0  0  0  0  0  0  0  0  0  0  0
  -33.9278   60.2862   63.7779 C   0  0  0  0  0  0  0  0  0  0  0  0
  -32.6793   59.4192   63.6458 C   0  0  0  0  0  0  0  0  0  0  0  0
  -34.2934   60.5345   65.2488 C   0  0  0  0  0  0  0  0  0  0  0  0
  -33.6663   62.4305   64.2403 C   0  0  0  0  0  0  0  0  0  0  0  0
  -32.6645   63.9243   66.4871 O   0  0  0  0  0  0  0  0  0  0  0  0
  -33.4309   63.8753   64.1881 C   0  0  0  0  0  0  0  0  0  0  0  0
  -33.5533   64.5619   62.9794 C   0  0  0  0  0  0  0  0  0  0  0  0
  -33.1018   65.8653   62.8633 C   0  0  0  0  0  0  0  0  0  0  0  0
  -32.5253   66.5025   63.9405 C   0  0  0  0  0  0  0  0  0  0  0  0
  -32.3880   65.8428   65.1482 C   0  0  0  0  0  0  0  0  0  0  0  0
  -32.8337   64.5318   65.2839 C   0  0  0  0  0  0  0  0  0  0  0  0
  -32.9539   63.0418   66.6111 H   0  0  0  0  0  0  0  0  0  0  0  0
  -39.4477   60.6420   62.8700 O   0  0  0  0  0  0  0  0  0  0  0  0
  -38.5839   59.8112   62.9330 C   0  0  0  0  0  0  0  0  0  0  0  0
  -38.5893   58.7667   63.7793 O   0  0  0  0  0  0  0  0  0  0  0  0
  -37.8804   58.9067   65.0552 C   0  0  0  0  0  0  0  0  0  0  0  0
  -37.0098   57.6900   65.2424 C   0  0  0  0  0  0  0  0  0  0  0  0
  -38.9619   59.0106   66.1129 C   0  0  0  0  0  0  0  0  0  0  0  0
  -41.0312   60.1826   65.6807 N   0  0  0  0  0  0  0  0  0  0  0  0
  -39.2255   61.3844   66.2780 O   0  0  0  0  0  0  0  0  0  0  0  0
  -39.7467   60.3008   66.0291 C   0  0  0  0  0  0  0  0  0  0  0  0
  -41.5840   60.9940   65.6093 H   0  0  0  0  0  0  0  0  0  0  0  0
  -42.4600   57.7486   63.4162 N   0  0  0  0  0  0  0  0  0  0  0  0
  -42.4101   59.9909   63.4234 O   0  0  0  0  0  0  0  0  0  0  0  0
  -41.6352   58.8909   65.4043 C   0  0  0  0  0  0  0  0  0  0  0  0
  -42.7630   58.6120   66.4043 C   0  0  0  0  0  0  0  0  0  0  0  0
  -43.1479   57.1394   66.4962 C   0  0  0  0  0  0  0  0  0  0  0  0
  -43.6791   56.5237   65.2169 C   0  0  0  0  0  0  0  0  0  0  0  0
  -42.6703   56.4710   64.0887 C   0  0  0  0  0  0  0  0  0  0  0  0
  -42.2030   58.9241   63.9941 C   0  0  0  0  0  0  0  0  0  0  0  0
  -42.5135   57.7431   62.4332 H   0  0  0  0  0  0  0  0  0  0  0  0
  -37.0185   58.3986   61.5656 C   0  0  0  0  0  0  0  0  0  0  0  0
  -38.2815   57.6450   61.1627 C   0  0  0  0  0  0  0  0  0  0  0  0
  -39.2107   58.4632   60.2853 C   0  0  0  0  0  0  0  0  0  0  0  0
  -40.6328   57.9507   60.2188 C   0  0  0  0  0  0  0  0  0  0  0  0
  -41.1568   58.0395   58.8651 N   0  0  0  0  0  0  0  0  0  0  0  0
  -41.3185   60.2905   58.8921 O   0  0  0  0  0  0  0  0  0  0  0  0
  -41.4636   59.2105   58.2964 C   0  0  0  0  0  0  0  0  0  0  0  0
  -41.2901   57.2108   58.3507 H   0  0  0  0  0  0  0  0  0  0  0  0
  -43.3140   58.7497   56.7035 C   0  0  0  0  0  0  0  0  0  0  0  0
  -42.0572   59.0972   56.9454 C   0  0  0  0  0  0  0  0  0  0  0  0
  -44.3830   58.4241   57.6993 C   0  0  0  0  0  0  0  0  0  0  0  0
  -45.7117   58.1156   57.0200 C   0  0  0  0  0  0  0  0  0  0  0  0
  -46.9269   58.4822   57.8542 C   0  0  0  0  0  0  0  0  0  0  0  0
  -47.3413   57.3976   58.8345 C   0  0  0  0  0  0  0  0  0  0  0  0
  -48.8201   57.0597   58.8057 C   0  0  0  0  0  0  0  0  0  0  0  0
  -49.6516   57.9001   59.7607 C   0  0  0  0  0  0  0  0  0  0  0  0
  -49.9785   57.1935   61.0617 C   0  0  0  0  0  0  0  0  0  0  0  0
  -50.9730   57.9526   61.9171 C   0  0  0  0  0  0  0  0  0  0  0  0
  -50.4853   59.3088   62.3891 C   0  0  0  0  0  0  0  0  0  0  0  0
  -51.1773   59.7715   63.6561 C   0  0  0  0  0  0  0  0  0  0  0  0
  -50.3331   59.5775   64.9050 C   0  0  0  0  0  0  0  0  0  0  0  0
  -49.2698   60.6429   65.1080 C   0  0  0  0  0  0  0  0  0  0  0  0
  -47.9601   60.3628   64.3876 C   0  0  0  0  0  0  0  0  0  0  0  0
  -47.5538   58.8954   64.3936 C   0  0  0  0  0  0  0  0  0  0  0  0
  -46.5214   58.5581   65.4574 C   0  0  0  0  0  0  0  0  0  0  0  0
  -48.0816   56.6743   66.0844 C   0  0  0  0  0  0  0  0  0  0  0  0
  -47.0280   57.6416   66.5562 C   0  0  0  0  0  0  0  0  0  0  0  0
 43 45  1  0  0  0
 43 42  1  0  0  0
 43 46  1  0  0  0
 64 65  1  0  0  0
 44 45  2  0  0  0
 65 63  1  0  0  0
  2  1  1  0  0  0
  2  4  1  0  0  0
  2  5  1  0  0  0
  3  4  2  0  0  0
 63 62  1  0  0  0
  6  8  1  0  0  0
  6 11  2  0  0  0
  7 10  1  0  0  0
  7 11  1  0  0  0
 62 61  1  0  0  0
 26 28  1  0  0  0
 26 32  1  0  0  0
 26 29  1  0  0  0
 12 18  1  0  0  0
 12 19  1  0  0  0
 61 60  1  0  0  0
 30 36  1  0  0  0
 30 37  1  0  0  0
 30 38  1  0  0  0
 20 21  2  0  0  0
 60 59  1  0  0  0
 22 21  1  0  0  0
 22 23  1  0  0  0
 59 58  1  0  0  0
 27 28  2  0  0  0
 58 57  1  0  0  0
 31 37  2  0  0  0
 57 56  1  0  0  0
 56 55  1  0  0  0
 55 54  1  0  0  0
 54 53  1  0  0  0
 53 52  1  0  0  0
 52 51  1  0  0  0
 51 50  1  0  0  0
 50 49  1  0  0  0
 49 47  1  0  0  0
 47 48  2  0  0  0
 48 45  1  0  0  0
 42 41  1  0  0  0
 41 40  1  0  0  0
 40 39  1  0  0  0
 39  1  1  0  0  0
  1 21  1  0  0  0
  8  4  1  0  0  0
  8  9  1  0  0  0
  8 10  1  0  0  0
 11 13  1  0  0  0
 13 14  2  0  0  0
 13 18  1  0  0  0
 14 15  1  0  0  0
 15 16  2  0  0  0
 16 17  1  0  0  0
 17 18  2  0  0  0
 23 24  1  0  0  0
 23 25  1  0  0  0
 25 28  1  0  0  0
 32 33  1  0  0  0
 32 37  1  0  0  0
 33 34  1  0  0  0
 34 35  1  0  0  0
 35 36  1  0  0  0
M  END
> <minimizedAffinity>
-8.38145

> <CNNscore>
0.2879929543

> <CNNaffinity>
7.7133994102

> <CNN_VS>
2.2214047909

> <CNNaffinity_variance>
1.0658079386

$$$$
/media/chris/experiments/cd1a-new-docking/inputs/ligands/7ryo_ligand.pdb


 65 67  0  0  0  0  0  0  0  0999 V2000
  -35.2183   58.5974   63.6407 C   0  0  0  0  0  0  0  0  0  0  0  0
  -36.4940   59.2931   63.6702 N   0  0  0  0  0  0  0  0  0  0  0  0
  -37.2584   58.1205   65.4294 O   0  0  0  0  0  0  0  0  0  0  0  0
  -37.4201   58.9857   64.5817 C   0  0  0  0  0  0  0  0  0  0  0  0
  -36.6778   59.9998   63.0099 H   0  0  0  0  0  0  0  0  0  0  0  0
  -39.8536   58.8238   64.2296 N   0  0  0  0  0  0  0  0  0  0  0  0
  -40.5185   59.9374   66.0738 O   0  0  0  0  0  0  0  0  0  0  0  0
  -38.7515   59.7530   64.5290 C   0  0  0  0  0  0  0  0  0  0  0  0
  -38.6728   60.8029   63.4247 C   0  0  0  0  0  0  0  0  0  0  0  0
  -39.1500   60.3745   65.8757 C   0  0  0  0  0  0  0  0  0  0  0  0
  -40.7442   59.0014   65.1154 C   0  0  0  0  0  0  0  0  0  0  0  0
  -42.1653   58.6848   67.5981 O   0  0  0  0  0  0  0  0  0  0  0  0
  -42.0217   58.2908   65.2108 C   0  0  0  0  0  0  0  0  0  0  0  0
  -42.6716   57.8597   64.0537 C   0  0  0  0  0  0  0  0  0  0  0  0
  -43.9798   57.4104   64.1091 C   0  0  0  0  0  0  0  0  0  0  0  0
  -44.6579   57.3827   65.3083 C   0  0  0  0  0  0  0  0  0  0  0  0
  -44.0380   57.8089   66.4688 C   0  0  0  0  0  0  0  0  0  0  0  0
  -42.7243   58.2659   66.4331 C   0  0  0  0  0  0  0  0  0  0  0  0
  -41.2823   58.9984   67.6080 H   0  0  0  0  0  0  0  0  0  0  0  0
  -33.6749   59.8789   64.9885 O   0  0  0  0  0  0  0  0  0  0  0  0
  -34.0637   59.5533   63.9008 C   0  0  0  0  0  0  0  0  0  0  0  0
  -33.5513   60.0006   62.7412 O   0  0  0  0  0  0  0  0  0  0  0  0
  -32.1133   59.8319   62.5098 C   0  0  0  0  0  0  0  0  0  0  0  0
  -31.6573   58.6119   63.2695 C   0  0  0  0  0  0  0  0  0  0  0  0
  -31.4663   61.1047   63.0205 C   0  0  0  0  0  0  0  0  0  0  0  0
  -32.4802   63.2716   62.6756 N   0  0  0  0  0  0  0  0  0  0  0  0
  -31.2904   62.3671   60.9939 O   0  0  0  0  0  0  0  0  0  0  0  0
  -31.7383   62.3006   62.1353 C   0  0  0  0  0  0  0  0  0  0  0  0
  -32.6876   64.0701   62.1384 H   0  0  0  0  0  0  0  0  0  0  0  0
  -35.1576   62.7317   65.0491 N   0  0  0  0  0  0  0  0  0  0  0  0
  -35.0995   63.5663   62.9681 O   0  0  0  0  0  0  0  0  0  0  0  0
  -32.9893   63.1828   64.0330 C   0  0  0  0  0  0  0  0  0  0  0  0
  -32.5145   64.3874   64.8536 C   0  0  0  0  0  0  0  0  0  0  0  0
  -32.6015   64.1727   66.3607 C   0  0  0  0  0  0  0  0  0  0  0  0
  -33.9953   63.9293   66.9047 C   0  0  0  0  0  0  0  0  0  0  0  0
  -34.6393   62.6510   66.4105 C   0  0  0  0  0  0  0  0  0  0  0  0
  -34.5085   63.1770   63.9710 C   0  0  0  0  0  0  0  0  0  0  0  0
  -36.0831   62.4257   64.9111 H   0  0  0  0  0  0  0  0  0  0  0  0
  -35.0229   57.8514   62.3200 C   0  0  0  0  0  0  0  0  0  0  0  0
  -36.1590   56.8762   62.0308 C   0  0  0  0  0  0  0  0  0  0  0  0
  -37.3868   57.5469   61.4433 C   0  0  0  0  0  0  0  0  0  0  0  0
  -37.1009   58.5149   60.3161 C   0  0  0  0  0  0  0  0  0  0  0  0
  -38.2138   59.4302   60.1192 N   0  0  0  0  0  0  0  0  0  0  0  0
  -39.7860   57.9089   60.6739 O   0  0  0  0  0  0  0  0  0  0  0  0
  -39.4837   59.0584   60.3136 C   0  0  0  0  0  0  0  0  0  0  0  0
  -38.0262   60.3534   59.8334 H   0  0  0  0  0  0  0  0  0  0  0  0
  -41.3782   60.0051   59.0143 C   0  0  0  0  0  0  0  0  0  0  0  0
  -40.4827   60.1006   59.9877 C   0  0  0  0  0  0  0  0  0  0  0  0
  -41.5896   58.8613   58.0721 C   0  0  0  0  0  0  0  0  0  0  0  0
  -42.5568   59.2246   56.9520 C   0  0  0  0  0  0  0  0  0  0  0  0
  -43.6677   58.2092   56.7475 C   0  0  0  0  0  0  0  0  0  0  0  0
  -44.9971   58.6326   57.3497 C   0  0  0  0  0  0  0  0  0  0  0  0
  -46.0890   57.5833   57.2565 C   0  0  0  0  0  0  0  0  0  0  0  0
  -47.4248   58.0490   57.8120 C   0  0  0  0  0  0  0  0  0  0  0  0
  -47.5470   57.8831   59.3141 C   0  0  0  0  0  0  0  0  0  0  0  0
  -48.8042   57.1462   59.7306 C   0  0  0  0  0  0  0  0  0  0  0  0
  -49.9770   58.0483   60.0633 C   0  0  0  0  0  0  0  0  0  0  0  0
  -50.8825   57.4626   61.1288 C   0  0  0  0  0  0  0  0  0  0  0  0
  -50.6542   58.0639   62.5059 C   0  0  0  0  0  0  0  0  0  0  0  0
  -50.8515   59.5685   62.5674 C   0  0  0  0  0  0  0  0  0  0  0  0
  -51.0960   60.1092   63.9677 C   0  0  0  0  0  0  0  0  0  0  0  0
  -50.7361   59.1320   65.0784 C   0  0  0  0  0  0  0  0  0  0  0  0
  -49.6386   59.6407   65.9993 C   0  0  0  0  0  0  0  0  0  0  0  0
  -47.6123   59.2439   64.5456 C   0  0  0  0  0  0  0  0  0  0  0  0
  -48.3075   58.9278   65.8438 C   0  0  0  0  0  0  0  0  0  0  0  0
 43 45  1  0  0  0
 43 42  1  0  0  0
 43 46  1  0  0  0
 64 65  1  0  0  0
 44 45  2  0  0  0
 65 63  1  0  0  0
  2  1  1  0  0  0
  2  4  1  0  0  0
  2  5  1  0  0  0
  3  4  2  0  0  0
 63 62  1  0  0  0
  6  8  1  0  0  0
  6 11  2  0  0  0
  7 10  1  0  0  0
  7 11  1  0  0  0
 62 61  1  0  0  0
 26 28  1  0  0  0
 26 32  1  0  0  0
 26 29  1  0  0  0
 12 18  1  0  0  0
 12 19  1  0  0  0
 61 60  1  0  0  0
 30 36  1  0  0  0
 30 37  1  0  0  0
 30 38  1  0  0  0
 20 21  2  0  0  0
 60 59  1  0  0  0
 22 21  1  0  0  0
 22 23  1  0  0  0
 59 58  1  0  0  0
 27 28  2  0  0  0
 58 57  1  0  0  0
 31 37  2  0  0  0
 57 56  1  0  0  0
 56 55  1  0  0  0
 55 54  1  0  0  0
 54 53  1  0  0  0
 53 52  1  0  0  0
 52 51  1  0  0  0
 51 50  1  0  0  0
 50 49  1  0  0  0
 49 47  1  0  0  0
 47 48  2  0  0  0
 48 45  1  0  0  0
 42 41  1  0  0  0
 41 40  1  0  0  0
 40 39  1  0  0  0
 39  1  1  0  0  0
  1 21  1  0  0  0
  8  4  1  0  0  0
  8  9  1  0  0  0
  8 10  1  0  0  0
 11 13  1  0  0  0
 13 14  2  0  0  0
 13 18  1  0  0  0
 14 15  1  0  0  0
 15 16  2  0  0  0
 16 17  1  0  0  0
 17 18  2  0  0  0
 23 24  1  0  0  0
 23 25  1  0  0  0
 25 28  1  0  0  0
 32 33  1  0  0  0
 32 37  1  0  0  0
 33 34  1  0  0  0
 34 35  1  0  0  0
 35 36  1  0  0  0
M  END
> <minimizedAffinity>
-8.16034

> <CNNscore>
0.2707012296

> <CNNaffinity>
7.2767996788

> <CNN_VS>
1.9698386192

> <CNNaffinity_variance>
1.1580319405

$$$$
/media/chris/experiments/cd1a-new-docking/inputs/ligands/7ryo_ligand.pdb


 65 67  0  0  0  0  0  0  0  0999 V2000
  -37.6862   60.2106   61.9250 C   0  0  0  0  0  0  0  0  0  0  0  0
  -36.5638   60.6429   62.7409 N   0  0  0  0  0  0  0  0  0  0  0  0
  -35.8303   58.5484   63.1005 O   0  0  0  0  0  0  0  0  0  0  0  0
  -35.7179   59.7538   63.2670 C   0  0  0  0  0  0  0  0  0  0  0  0
  -36.4255   61.6032   62.9077 H   0  0  0  0  0  0  0  0  0  0  0  0
  -33.9209   61.4287   63.4620 N   0  0  0  0  0  0  0  0  0  0  0  0
  -34.4123   62.1860   65.5279 O   0  0  0  0  0  0  0  0  0  0  0  0
  -34.5706   60.2930   64.1372 C   0  0  0  0  0  0  0  0  0  0  0  0
  -33.5437   59.1836   64.3431 C   0  0  0  0  0  0  0  0  0  0  0  0
  -35.0451   60.8824   65.4737 C   0  0  0  0  0  0  0  0  0  0  0  0
  -33.8891   62.3887   64.2907 C   0  0  0  0  0  0  0  0  0  0  0  0
  -34.8791   64.1418   62.2340 O   0  0  0  0  0  0  0  0  0  0  0  0
  -33.3288   63.7205   64.0490 C   0  0  0  0  0  0  0  0  0  0  0  0
  -32.3726   64.2466   64.9185 C   0  0  0  0  0  0  0  0  0  0  0  0
  -32.0174   65.5826   64.8464 C   0  0  0  0  0  0  0  0  0  0  0  0
  -32.6035   66.4111   63.9144 C   0  0  0  0  0  0  0  0  0  0  0  0
  -33.5573   65.9156   63.0441 C   0  0  0  0  0  0  0  0  0  0  0  0
  -33.9292   64.5761   63.1025 C   0  0  0  0  0  0  0  0  0  0  0  0
  -35.1517   63.2454   62.2476 H   0  0  0  0  0  0  0  0  0  0  0  0
  -39.1146   58.7010   63.1586 O   0  0  0  0  0  0  0  0  0  0  0  0
  -38.8754   59.8173   62.7886 C   0  0  0  0  0  0  0  0  0  0  0  0
  -39.6349   60.8920   63.0632 O   0  0  0  0  0  0  0  0  0  0  0  0
  -41.0124   60.6686   63.5133 C   0  0  0  0  0  0  0  0  0  0  0  0
  -41.9328   61.4441   62.6050 C   0  0  0  0  0  0  0  0  0  0  0  0
  -41.0593   61.1675   64.9444 C   0  0  0  0  0  0  0  0  0  0  0  0
  -40.4485   59.1465   66.1211 N   0  0  0  0  0  0  0  0  0  0  0  0
  -39.1170   60.9483   66.3268 O   0  0  0  0  0  0  0  0  0  0  0  0
  -40.1210   60.4157   65.8621 C   0  0  0  0  0  0  0  0  0  0  0  0
  -39.8709   58.6154   66.7156 H   0  0  0  0  0  0  0  0  0  0  0  0
  -43.9326   58.1818   66.2761 N   0  0  0  0  0  0  0  0  0  0  0  0
  -42.3401   58.4295   67.8360 O   0  0  0  0  0  0  0  0  0  0  0  0
  -41.6323   58.5279   65.5505 C   0  0  0  0  0  0  0  0  0  0  0  0
  -41.2832   57.1485   64.9806 C   0  0  0  0  0  0  0  0  0  0  0  0
  -42.3087   56.6222   63.9824 C   0  0  0  0  0  0  0  0  0  0  0  0
  -43.7048   56.4098   64.5335 C   0  0  0  0  0  0  0  0  0  0  0  0
  -44.3930   57.6807   64.9856 C   0  0  0  0  0  0  0  0  0  0  0  0
  -42.6669   58.3749   66.6541 C   0  0  0  0  0  0  0  0  0  0  0  0
  -44.6283   58.4003   66.9376 H   0  0  0  0  0  0  0  0  0  0  0  0
  -37.2866   59.0665   60.9920 C   0  0  0  0  0  0  0  0  0  0  0  0
  -38.0837   59.0724   59.6921 C   0  0  0  0  0  0  0  0  0  0  0  0
  -39.0675   60.2241   59.6001 C   0  0  0  0  0  0  0  0  0  0  0  0
  -40.5011   59.8589   59.9176 C   0  0  0  0  0  0  0  0  0  0  0  0
  -41.3391   59.9559   58.7330 N   0  0  0  0  0  0  0  0  0  0  0  0
  -41.4795   57.7224   58.4399 O   0  0  0  0  0  0  0  0  0  0  0  0
  -41.7702   58.8736   58.0759 C   0  0  0  0  0  0  0  0  0  0  0  0
  -41.5973   60.8471   58.4040 H   0  0  0  0  0  0  0  0  0  0  0  0
  -43.8003   58.7958   56.6454 C   0  0  0  0  0  0  0  0  0  0  0  0
  -42.5449   59.1707   56.8503 C   0  0  0  0  0  0  0  0  0  0  0  0
  -44.6930   58.0343   57.5748 C   0  0  0  0  0  0  0  0  0  0  0  0
  -46.1610   58.3796   57.3562 C   0  0  0  0  0  0  0  0  0  0  0  0
  -47.0217   57.1871   56.9766 C   0  0  0  0  0  0  0  0  0  0  0  0
  -48.4480   57.2775   57.4930 C   0  0  0  0  0  0  0  0  0  0  0  0
  -48.5833   57.9594   58.8415 C   0  0  0  0  0  0  0  0  0  0  0  0
  -48.3995   57.0152   60.0182 C   0  0  0  0  0  0  0  0  0  0  0  0
  -49.7056   56.5569   60.6368 C   0  0  0  0  0  0  0  0  0  0  0  0
  -50.6873   57.6897   60.8606 C   0  0  0  0  0  0  0  0  0  0  0  0
  -51.0787   57.9011   62.3105 C   0  0  0  0  0  0  0  0  0  0  0  0
  -50.9724   59.3510   62.7403 C   0  0  0  0  0  0  0  0  0  0  0  0
  -49.7156   60.0367   62.2300 C   0  0  0  0  0  0  0  0  0  0  0  0
  -48.5721   60.0618   63.2294 C   0  0  0  0  0  0  0  0  0  0  0  0
  -48.9210   60.7085   64.5609 C   0  0  0  0  0  0  0  0  0  0  0  0
  -48.3995   59.9475   65.7722 C   0  0  0  0  0  0  0  0  0  0  0  0
  -47.9225   58.5419   65.4440 C   0  0  0  0  0  0  0  0  0  0  0  0
  -50.2741   57.9501   66.1483 C   0  0  0  0  0  0  0  0  0  0  0  0
  -48.8904   57.4416   65.8397 C   0  0  0  0  0  0  0  0  0  0  0  0
 43 45  1  0  0  0
 43 42  1  0  0  0
 43 46  1  0  0  0
 64 65  1  0  0  0
 44 45  2  0  0  0
 65 63  1  0  0  0
  2  1  1  0  0  0
  2  4  1  0  0  0
  2  5  1  0  0  0
  3  4  2  0  0  0
 63 62  1  0  0  0
  6  8  1  0  0  0
  6 11  2  0  0  0
  7 10  1  0  0  0
  7 11  1  0  0  0
 62 61  1  0  0  0
 26 28  1  0  0  0
 26 32  1  0  0  0
 26 29  1  0  0  0
 12 18  1  0  0  0
 12 19  1  0  0  0
 61 60  1  0  0  0
 30 36  1  0  0  0
 30 37  1  0  0  0
 30 38  1  0  0  0
 20 21  2  0  0  0
 60 59  1  0  0  0
 22 21  1  0  0  0
 22 23  1  0  0  0
 59 58  1  0  0  0
 27 28  2  0  0  0
 58 57  1  0  0  0
 31 37  2  0  0  0
 57 56  1  0  0  0
 56 55  1  0  0  0
 55 54  1  0  0  0
 54 53  1  0  0  0
 53 52  1  0  0  0
 52 51  1  0  0  0
 51 50  1  0  0  0
 50 49  1  0  0  0
 49 47  1  0  0  0
 47 48  2  0  0  0
 48 45  1  0  0  0
 42 41  1  0  0  0
 41 40  1  0  0  0
 40 39  1  0  0  0
 39  1  1  0  0  0
  1 21  1  0  0  0
  8  4  1  0  0  0
  8  9  1  0  0  0
  8 10  1  0  0  0
 11 13  1  0  0  0
 13 14  2  0  0  0
 13 18  1  0  0  0
 14 15  1  0  0  0
 15 16  2  0  0  0
 16 17  1  0  0  0
 17 18  2  0  0  0
 23 24  1  0  0  0
 23 25  1  0  0  0
 25 28  1  0  0  0
 32 33  1  0  0  0
 32 37  1  0  0  0
 33 34  1  0  0  0
 34 35  1  0  0  0
 35 36  1  0  0  0
M  END
> <minimizedAffinity>
-8.46001

> <CNNscore>
0.2026964575

> <CNNaffinity>
7.5751800537

> <CNN_VS>
1.5354621410

> <CNNaffinity_variance>
1.5205870867

$$$$
/media/chris/experiments/cd1a-new-docking/inputs/ligands/7ryo_ligand.pdb


 65 67  0  0  0  0  0  0  0  0999 V2000
  -38.4566   58.5712   62.3966 C   0  0  0  0  0  0  0  0  0  0  0  0
  -37.1914   59.0683   62.9111 N   0  0  0  0  0  0  0  0  0  0  0  0
  -36.0766   57.1838   62.4012 O   0  0  0  0  0  0  0  0  0  0  0  0
  -36.0907   58.3138   62.8664 C   0  0  0  0  0  0  0  0  0  0  0  0
  -37.1454   59.9727   63.2974 H   0  0  0  0  0  0  0  0  0  0  0  0
  -34.5994   60.2738   62.9465 N   0  0  0  0  0  0  0  0  0  0  0  0
  -34.4291   60.4548   65.1873 O   0  0  0  0  0  0  0  0  0  0  0  0
  -34.7988   58.9059   63.4533 C   0  0  0  0  0  0  0  0  0  0  0  0
  -33.6188   58.0396   63.0233 C   0  0  0  0  0  0  0  0  0  0  0  0
  -34.8476   59.0822   64.9781 C   0  0  0  0  0  0  0  0  0  0  0  0
  -34.4129   61.0228   63.9533 C   0  0  0  0  0  0  0  0  0  0  0  0
  -32.0017   62.1717   62.8813 O   0  0  0  0  0  0  0  0  0  0  0  0
  -34.1704   62.4671   63.9225 C   0  0  0  0  0  0  0  0  0  0  0  0
  -35.1821   63.3553   64.2899 C   0  0  0  0  0  0  0  0  0  0  0  0
  -35.0535   64.7100   64.0359 C   0  0  0  0  0  0  0  0  0  0  0  0
  -33.9241   65.1997   63.4169 C   0  0  0  0  0  0  0  0  0  0  0  0
  -32.9090   64.3400   63.0387 C   0  0  0  0  0  0  0  0  0  0  0  0
  -33.0207   62.9749   63.2833 C   0  0  0  0  0  0  0  0  0  0  0  0
  -32.0462   61.2478   63.0313 H   0  0  0  0  0  0  0  0  0  0  0  0
  -39.1294   57.6478   64.5262 O   0  0  0  0  0  0  0  0  0  0  0  0
  -39.0637   57.5373   63.3330 C   0  0  0  0  0  0  0  0  0  0  0  0
  -39.4986   56.4707   62.6398 O   0  0  0  0  0  0  0  0  0  0  0  0
  -40.8837   56.0336   62.8401 C   0  0  0  0  0  0  0  0  0  0  0  0
  -41.7775   56.9141   62.0039 C   0  0  0  0  0  0  0  0  0  0  0  0
  -41.1487   56.1871   64.3252 C   0  0  0  0  0  0  0  0  0  0  0  0
  -43.0518   57.5437   64.9416 N   0  0  0  0  0  0  0  0  0  0  0  0
  -43.3644   55.3364   64.6385 O   0  0  0  0  0  0  0  0  0  0  0  0
  -42.6201   56.3129   64.6518 C   0  0  0  0  0  0  0  0  0  0  0  0
  -44.0014   57.6774   65.1640 H   0  0  0  0  0  0  0  0  0  0  0  0
  -41.0837   60.0594   66.6421 N   0  0  0  0  0  0  0  0  0  0  0  0
  -42.9777   58.9801   67.1698 O   0  0  0  0  0  0  0  0  0  0  0  0
  -42.1599   58.6901   64.9378 C   0  0  0  0  0  0  0  0  0  0  0  0
  -42.6826   59.7610   63.9737 C   0  0  0  0  0  0  0  0  0  0  0  0
  -41.6243   60.7762   63.5559 C   0  0  0  0  0  0  0  0  0  0  0  0
  -41.0339   61.6026   64.6812 C   0  0  0  0  0  0  0  0  0  0  0  0
  -40.2518   60.7972   65.6976 C   0  0  0  0  0  0  0  0  0  0  0  0
  -42.1090   59.2568   66.3479 C   0  0  0  0  0  0  0  0  0  0  0  0
  -40.8661   60.1646   67.5965 H   0  0  0  0  0  0  0  0  0  0  0  0
  -38.2976   58.0035   60.9853 C   0  0  0  0  0  0  0  0  0  0  0  0
  -37.9435   59.0788   59.9637 C   0  0  0  0  0  0  0  0  0  0  0  0
  -38.9275   60.2338   59.9471 C   0  0  0  0  0  0  0  0  0  0  0  0
  -40.3720   59.8380   60.1615 C   0  0  0  0  0  0  0  0  0  0  0  0
  -41.1339   59.9550   58.9283 N   0  0  0  0  0  0  0  0  0  0  0  0
  -41.4624   57.7319   58.7189 O   0  0  0  0  0  0  0  0  0  0  0  0
  -41.6269   58.8867   58.2924 C   0  0  0  0  0  0  0  0  0  0  0  0
  -41.2918   60.8498   58.5491 H   0  0  0  0  0  0  0  0  0  0  0  0
  -43.5491   58.8425   56.7187 C   0  0  0  0  0  0  0  0  0  0  0  0
  -42.3053   59.1953   57.0138 C   0  0  0  0  0  0  0  0  0  0  0  0
  -44.5203   58.0987   57.5813 C   0  0  0  0  0  0  0  0  0  0  0  0
  -45.9634   58.4110   57.2047 C   0  0  0  0  0  0  0  0  0  0  0  0
  -46.8163   57.1767   56.9673 C   0  0  0  0  0  0  0  0  0  0  0  0
  -47.9214   56.9944   57.9942 C   0  0  0  0  0  0  0  0  0  0  0  0
  -47.9967   58.0958   59.0349 C   0  0  0  0  0  0  0  0  0  0  0  0
  -48.6711   57.6630   60.3264 C   0  0  0  0  0  0  0  0  0  0  0  0
  -50.1847   57.7293   60.2709 C   0  0  0  0  0  0  0  0  0  0  0  0
  -50.8288   57.7715   61.6422 C   0  0  0  0  0  0  0  0  0  0  0  0
  -50.6798   59.0975   62.3629 C   0  0  0  0  0  0  0  0  0  0  0  0
  -50.7988   58.9626   63.8681 C   0  0  0  0  0  0  0  0  0  0  0  0
  -50.4714   60.2466   64.6126 C   0  0  0  0  0  0  0  0  0  0  0  0
  -49.1271   60.2296   65.3193 C   0  0  0  0  0  0  0  0  0  0  0  0
  -47.9311   60.1466   64.3837 C   0  0  0  0  0  0  0  0  0  0  0  0
  -46.9900   58.9885   64.6860 C   0  0  0  0  0  0  0  0  0  0  0  0
  -47.6638   57.8355   65.4126 C   0  0  0  0  0  0  0  0  0  0  0  0
  -46.4315   58.4513   67.5289 C   0  0  0  0  0  0  0  0  0  0  0  0
  -46.9132   57.3390   66.6349 C   0  0  0  0  0  0  0  0  0  0  0  0
 43 45  1  0  0  0
 43 42  1  0  0  0
 43 46  1  0  0  0
 64 65  1  0  0  0
 44 45  2  0  0  0
 65 63  1  0  0  0
  2  1  1  0  0  0
  2  4  1  0  0  0
  2  5  1  0  0  0
  3  4  2  0  0  0
 63 62  1  0  0  0
  6  8  1  0  0  0
  6 11  2  0  0  0
  7 10  1  0  0  0
  7 11  1  0  0  0
 62 61  1  0  0  0
 26 28  1  0  0  0
 26 32  1  0  0  0
 26 29  1  0  0  0
 12 18  1  0  0  0
 12 19  1  0  0  0
 61 60  1  0  0  0
 30 36  1  0  0  0
 30 37  1  0  0  0
 30 38  1  0  0  0
 20 21  2  0  0  0
 60 59  1  0  0  0
 22 21  1  0  0  0
 22 23  1  0  0  0
 59 58  1  0  0  0
 27 28  2  0  0  0
 58 57  1  0  0  0
 31 37  2  0  0  0
 57 56  1  0  0  0
 56 55  1  0  0  0
 55 54  1  0  0  0
 54 53  1  0  0  0
 53 52  1  0  0  0
 52 51  1  0  0  0
 51 50  1  0  0  0
 50 49  1  0  0  0
 49 47  1  0  0  0
 47 48  2  0  0  0
 48 45  1  0  0  0
 42 41  1  0  0  0
 41 40  1  0  0  0
 40 39  1  0  0  0
 39  1  1  0  0  0
  1 21  1  0  0  0
  8  4  1  0  0  0
  8  9  1  0  0  0
  8 10  1  0  0  0
 11 13  1  0  0  0
 13 14  2  0  0  0
 13 18  1  0  0  0
 14 15  1  0  0  0
 15 16  2  0  0  0
 16 17  1  0  0  0
 17 18  2  0  0  0
 23 24  1  0  0  0
 23 25  1  0  0  0
 25 28  1  0  0  0
 32 33  1  0  0  0
 32 37  1  0  0  0
 33 34  1  0  0  0
 34 35  1  0  0  0
 35 36  1  0  0  0
M  END
> <minimizedAffinity>
-8.36151

> <CNNscore>
0.1960256845

> <CNNaffinity>
7.8222641945

> <CNN_VS>
1.5333646536

> <CNNaffinity_variance>
1.7375905514

$$$$
/media/chris/experiments/cd1a-new-docking/inputs/ligands/7ryo_ligand.pdb


 65 67  0  0  0  0  0  0  0  0999 V2000
  -38.6978   60.3787   64.7326 C   0  0  0  0  0  0  0  0  0  0  0  0
  -37.9334   59.5647   63.8023 N   0  0  0  0  0  0  0  0  0  0  0  0
  -38.7687   60.5951   61.9872 O   0  0  0  0  0  0  0  0  0  0  0  0
  -38.0395   59.7497   62.4842 C   0  0  0  0  0  0  0  0  0  0  0  0
  -37.3298   58.8681   64.1483 H   0  0  0  0  0  0  0  0  0  0  0  0
  -35.7840   59.1593   61.6866 N   0  0  0  0  0  0  0  0  0  0  0  0
  -35.8972   56.9332   62.0257 O   0  0  0  0  0  0  0  0  0  0  0  0
  -37.2143   58.8304   61.5688 C   0  0  0  0  0  0  0  0  0  0  0  0
  -37.6564   59.0459   60.1245 C   0  0  0  0  0  0  0  0  0  0  0  0
  -37.2852   57.3494   61.9691 C   0  0  0  0  0  0  0  0  0  0  0  0
  -35.1700   58.0770   61.9338 C   0  0  0  0  0  0  0  0  0  0  0  0
  -33.6463   59.8107   63.6531 O   0  0  0  0  0  0  0  0  0  0  0  0
  -33.7258   57.9281   62.1285 C   0  0  0  0  0  0  0  0  0  0  0  0
  -33.0552   56.8312   61.5860 C   0  0  0  0  0  0  0  0  0  0  0  0
  -31.7531   56.5482   61.9614 C   0  0  0  0  0  0  0  0  0  0  0  0
  -31.1016   57.3465   62.8761 C   0  0  0  0  0  0  0  0  0  0  0  0
  -31.7453   58.4370   63.4321 C   0  0  0  0  0  0  0  0  0  0  0  0
  -33.0547   58.7364   63.0691 C   0  0  0  0  0  0  0  0  0  0  0  0
  -34.5273   60.0392   63.4302 H   0  0  0  0  0  0  0  0  0  0  0  0
  -37.9828   60.5195   67.0369 O   0  0  0  0  0  0  0  0  0  0  0  0
  -37.8327   60.8485   65.8925 C   0  0  0  0  0  0  0  0  0  0  0  0
  -36.8877   61.7017   65.4610 O   0  0  0  0  0  0  0  0  0  0  0  0
  -35.9255   62.2200   66.4383 C   0  0  0  0  0  0  0  0  0  0  0  0
  -36.4882   63.4926   67.0190 C   0  0  0  0  0  0  0  0  0  0  0  0
  -34.6443   62.4569   65.6626 C   0  0  0  0  0  0  0  0  0  0  0  0
  -32.8667   64.0886   65.8043 N   0  0  0  0  0  0  0  0  0  0  0  0
  -33.4318   62.9574   67.6652 O   0  0  0  0  0  0  0  0  0  0  0  0
  -33.5925   63.1852   66.4694 C   0  0  0  0  0  0  0  0  0  0  0  0
  -32.1670   64.5873   66.2846 H   0  0  0  0  0  0  0  0  0  0  0  0
  -32.1909   63.4730   62.3031 N   0  0  0  0  0  0  0  0  0  0  0  0
  -30.9394   63.3102   64.1572 O   0  0  0  0  0  0  0  0  0  0  0  0
  -33.0808   64.3558   64.3927 C   0  0  0  0  0  0  0  0  0  0  0  0
  -33.0330   65.8651   64.1292 C   0  0  0  0  0  0  0  0  0  0  0  0
  -33.6796   66.2760   62.8107 C   0  0  0  0  0  0  0  0  0  0  0  0
  -33.0382   65.7010   61.5635 C   0  0  0  0  0  0  0  0  0  0  0  0
  -33.1346   64.1936   61.4552 C   0  0  0  0  0  0  0  0  0  0  0  0
  -31.9765   63.6673   63.6063 C   0  0  0  0  0  0  0  0  0  0  0  0
  -31.6562   62.7698   61.8685 H   0  0  0  0  0  0  0  0  0  0  0  0
  -39.9324   59.6318   65.2395 C   0  0  0  0  0  0  0  0  0  0  0  0
  -41.2296   60.2130   64.6873 C   0  0  0  0  0  0  0  0  0  0  0  0
  -41.6840   59.5453   63.4027 C   0  0  0  0  0  0  0  0  0  0  0  0
  -42.5624   58.3289   63.5980 C   0  0  0  0  0  0  0  0  0  0  0  0
  -43.2460   58.3792   64.8806 N   0  0  0  0  0  0  0  0  0  0  0  0
  -43.1691   56.1467   65.2027 O   0  0  0  0  0  0  0  0  0  0  0  0
  -43.5014   57.2774   65.5944 C   0  0  0  0  0  0  0  0  0  0  0  0
  -43.5301   59.2527   65.2349 H   0  0  0  0  0  0  0  0  0  0  0  0
  -45.5961   57.4543   66.9189 C   0  0  0  0  0  0  0  0  0  0  0  0
  -44.2743   57.5171   66.8336 C   0  0  0  0  0  0  0  0  0  0  0  0
  -46.5702   57.1215   65.8321 C   0  0  0  0  0  0  0  0  0  0  0  0
  -47.9740   57.6133   66.1627 C   0  0  0  0  0  0  0  0  0  0  0  0
  -48.1198   59.1247   66.1224 C   0  0  0  0  0  0  0  0  0  0  0  0
  -48.0233   59.7079   64.7225 C   0  0  0  0  0  0  0  0  0  0  0  0
  -48.8152   60.9862   64.5210 C   0  0  0  0  0  0  0  0  0  0  0  0
  -50.1773   60.9669   65.1950 C   0  0  0  0  0  0  0  0  0  0  0  0
  -51.0849   59.8602   64.6948 C   0  0  0  0  0  0  0  0  0  0  0  0
  -51.1776   59.8049   63.1830 C   0  0  0  0  0  0  0  0  0  0  0  0
  -51.1559   58.4028   62.6057 C   0  0  0  0  0  0  0  0  0  0  0  0
  -50.1393   58.2434   61.4924 C   0  0  0  0  0  0  0  0  0  0  0  0
  -50.1963   56.8819   60.8193 C   0  0  0  0  0  0  0  0  0  0  0  0
  -49.0588   56.6213   59.8471 C   0  0  0  0  0  0  0  0  0  0  0  0
  -48.9445   57.6476   58.7307 C   0  0  0  0  0  0  0  0  0  0  0  0
  -47.6104   58.3808   58.7003 C   0  0  0  0  0  0  0  0  0  0  0  0
  -46.5400   57.6558   57.9004 C   0  0  0  0  0  0  0  0  0  0  0  0
  -47.1373   55.5156   56.7006 C   0  0  0  0  0  0  0  0  0  0  0  0
  -47.0396   57.0162   56.6176 C   0  0  0  0  0  0  0  0  0  0  0  0
 43 45  1  0  0  0
 43 42  1  0  0  0
 43 46  1  0  0  0
 64 65  1  0  0  0
 44 45  2  0  0  0
 65 63  1  0  0  0
  2  1  1  0  0  0
  2  4  1  0  0  0
  2  5  1  0  0  0
  3  4  2  0  0  0
 63 62  1  0  0  0
  6  8  1  0  0  0
  6 11  2  0  0  0
  7 10  1  0  0  0
  7 11  1  0  0  0
 62 61  1  0  0  0
 26 28  1  0  0  0
 26 32  1  0  0  0
 26 29  1  0  0  0
 12 18  1  0  0  0
 12 19  1  0  0  0
 61 60  1  0  0  0
 30 36  1  0  0  0
 30 37  1  0  0  0
 30 38  1  0  0  0
 20 21  2  0  0  0
 60 59  1  0  0  0
 22 21  1  0  0  0
 22 23  1  0  0  0
 59 58  1  0  0  0
 27 28  2  0  0  0
 58 57  1  0  0  0
 31 37  2  0  0  0
 57 56  1  0  0  0
 56 55  1  0  0  0
 55 54  1  0  0  0
 54 53  1  0  0  0
 53 52  1  0  0  0
 52 51  1  0  0  0
 51 50  1  0  0  0
 50 49  1  0  0  0
 49 47  1  0  0  0
 47 48  2  0  0  0
 48 45  1  0  0  0
 42 41  1  0  0  0
 41 40  1  0  0  0
 40 39  1  0  0  0
 39  1  1  0  0  0
  1 21  1  0  0  0
  8  4  1  0  0  0
  8  9  1  0  0  0
  8 10  1  0  0  0
 11 13  1  0  0  0
 13 14  2  0  0  0
 13 18  1  0  0  0
 14 15  1  0  0  0
 15 16  2  0  0  0
 16 17  1  0  0  0
 17 18  2  0  0  0
 23 24  1  0  0  0
 23 25  1  0  0  0
 25 28  1  0  0  0
 32 33  1  0  0  0
 32 37  1  0  0  0
 33 34  1  0  0  0
 34 35  1  0  0  0
 35 36  1  0  0  0
M  END
> <minimizedAffinity>
-10.21431

> <CNNscore>
0.1839975268

> <CNNaffinity>
7.1089162827

> <CNN_VS>
1.3080229759

> <CNNaffinity_variance>
0.9759567380

$$$$
/media/chris/experiments/cd1a-new-docking/inputs/ligands/7ryo_ligand.pdb


 65 67  0  0  0  0  0  0  0  0999 V2000
  -35.5915   57.2810   63.1271 C   0  0  0  0  0  0  0  0  0  0  0  0
  -34.5124   58.1655   62.7203 N   0  0  0  0  0  0  0  0  0  0  0  0
  -33.1415   56.4742   62.1599 O   0  0  0  0  0  0  0  0  0  0  0  0
  -33.3589   57.6723   62.2631 C   0  0  0  0  0  0  0  0  0  0  0  0
  -34.6335   59.1406   62.7826 H   0  0  0  0  0  0  0  0  0  0  0  0
  -32.7979   60.0463   61.9144 N   0  0  0  0  0  0  0  0  0  0  0  0
  -30.9284   60.1214   63.1723 O   0  0  0  0  0  0  0  0  0  0  0  0
  -32.2604   58.6762   61.8763 C   0  0  0  0  0  0  0  0  0  0  0  0
  -31.7864   58.3675   60.4593 C   0  0  0  0  0  0  0  0  0  0  0  0
  -31.0907   58.7123   62.8708 C   0  0  0  0  0  0  0  0  0  0  0  0
  -32.0139   60.7363   62.6346 C   0  0  0  0  0  0  0  0  0  0  0  0
  -34.2015   61.7728   64.1912 O   0  0  0  0  0  0  0  0  0  0  0  0
  -32.1570   62.1600   62.9483 C   0  0  0  0  0  0  0  0  0  0  0  0
  -31.1407   63.0564   62.6154 C   0  0  0  0  0  0  0  0  0  0  0  0
  -31.1503   64.3467   63.1167 C   0  0  0  0  0  0  0  0  0  0  0  0
  -32.1642   64.7633   63.9515 C   0  0  0  0  0  0  0  0  0  0  0  0
  -33.1808   63.8931   64.3006 C   0  0  0  0  0  0  0  0  0  0  0  0
  -33.1875   62.5916   63.8086 C   0  0  0  0  0  0  0  0  0  0  0  0
  -34.2351   60.8904   63.8775 H   0  0  0  0  0  0  0  0  0  0  0  0
  -37.7574   56.7131   62.2175 O   0  0  0  0  0  0  0  0  0  0  0  0
  -36.8080   57.4472   62.2288 C   0  0  0  0  0  0  0  0  0  0  0  0
  -36.6634   58.5206   61.4325 O   0  0  0  0  0  0  0  0  0  0  0  0
  -37.6523   58.7325   60.3709 C   0  0  0  0  0  0  0  0  0  0  0  0
  -36.9777   59.4741   59.2446 C   0  0  0  0  0  0  0  0  0  0  0  0
  -38.7666   59.5401   61.0075 C   0  0  0  0  0  0  0  0  0  0  0  0
  -40.9696   58.7690   60.3793 N   0  0  0  0  0  0  0  0  0  0  0  0
  -40.0788   60.4987   59.2495 O   0  0  0  0  0  0  0  0  0  0  0  0
  -39.9935   59.6465   60.1294 C   0  0  0  0  0  0  0  0  0  0  0  0
  -41.7880   58.7956   59.8328 H   0  0  0  0  0  0  0  0  0  0  0  0
  -41.5704   55.4655   61.7282 N   0  0  0  0  0  0  0  0  0  0  0  0
  -42.7047   56.7651   60.2947 O   0  0  0  0  0  0  0  0  0  0  0  0
  -40.8577   57.7771   61.4344 C   0  0  0  0  0  0  0  0  0  0  0  0
  -41.2593   58.3917   62.7800 C   0  0  0  0  0  0  0  0  0  0  0  0
  -40.7577   57.6042   63.9856 C   0  0  0  0  0  0  0  0  0  0  0  0
  -41.2792   56.1856   64.1000 C   0  0  0  0  0  0  0  0  0  0  0  0
  -40.8398   55.2708   62.9760 C   0  0  0  0  0  0  0  0  0  0  0  0
  -41.7919   56.6241   61.1032 C   0  0  0  0  0  0  0  0  0  0  0  0
  -41.9387   54.6577   61.3026 H   0  0  0  0  0  0  0  0  0  0  0  0
  -35.9629   57.4965   64.5950 C   0  0  0  0  0  0  0  0  0  0  0  0
  -36.4942   58.9013   64.8590 C   0  0  0  0  0  0  0  0  0  0  0  0
  -37.8376   58.9088   65.5645 C   0  0  0  0  0  0  0  0  0  0  0  0
  -38.4540   60.2798   65.7374 C   0  0  0  0  0  0  0  0  0  0  0  0
  -39.6329   60.2186   66.5868 N   0  0  0  0  0  0  0  0  0  0  0  0
  -41.0136   61.0837   65.0250 O   0  0  0  0  0  0  0  0  0  0  0  0
  -40.8348   60.6276   66.1662 C   0  0  0  0  0  0  0  0  0  0  0  0
  -39.5433   59.8648   67.5011 H   0  0  0  0  0  0  0  0  0  0  0  0
  -42.6361   59.4912   67.4459 C   0  0  0  0  0  0  0  0  0  0  0  0
  -41.8970   60.5633   67.1948 C   0  0  0  0  0  0  0  0  0  0  0  0
  -42.5574   58.1488   66.7881 C   0  0  0  0  0  0  0  0  0  0  0  0
  -43.9413   57.5738   66.5124 C   0  0  0  0  0  0  0  0  0  0  0  0
  -44.4691   57.8849   65.1225 C   0  0  0  0  0  0  0  0  0  0  0  0
  -45.9223   58.3288   65.1091 C   0  0  0  0  0  0  0  0  0  0  0  0
  -46.8398   57.4941   65.9828 C   0  0  0  0  0  0  0  0  0  0  0  0
  -48.3009   57.5697   65.5714 C   0  0  0  0  0  0  0  0  0  0  0  0
  -49.0406   58.7464   66.1772 C   0  0  0  0  0  0  0  0  0  0  0  0
  -50.5047   58.7924   65.7884 C   0  0  0  0  0  0  0  0  0  0  0  0
  -50.9493   60.1081   65.1792 C   0  0  0  0  0  0  0  0  0  0  0  0
  -50.9591   60.0780   63.6635 C   0  0  0  0  0  0  0  0  0  0  0  0
  -51.0172   58.6706   63.0925 C   0  0  0  0  0  0  0  0  0  0  0  0
  -50.0217   58.4118   61.9751 C   0  0  0  0  0  0  0  0  0  0  0  0
  -50.6038   57.6752   60.7787 C   0  0  0  0  0  0  0  0  0  0  0  0
  -49.7431   57.7560   59.5253 C   0  0  0  0  0  0  0  0  0  0  0  0
  -48.5316   56.8384   59.5635 C   0  0  0  0  0  0  0  0  0  0  0  0
  -47.1202   58.0948   57.8884 C   0  0  0  0  0  0  0  0  0  0  0  0
  -47.2103   57.5305   59.2818 C   0  0  0  0  0  0  0  0  0  0  0  0
 43 45  1  0  0  0
 43 42  1  0  0  0
 43 46  1  0  0  0
 64 65  1  0  0  0
 44 45  2  0  0  0
 65 63  1  0  0  0
  2  1  1  0  0  0
  2  4  1  0  0  0
  2  5  1  0  0  0
  3  4  2  0  0  0
 63 62  1  0  0  0
  6  8  1  0  0  0
  6 11  2  0  0  0
  7 10  1  0  0  0
  7 11  1  0  0  0
 62 61  1  0  0  0
 26 28  1  0  0  0
 26 32  1  0  0  0
 26 29  1  0  0  0
 12 18  1  0  0  0
 12 19  1  0  0  0
 61 60  1  0  0  0
 30 36  1  0  0  0
 30 37  1  0  0  0
 30 38  1  0  0  0
 20 21  2  0  0  0
 60 59  1  0  0  0
 22 21  1  0  0  0
 22 23  1  0  0  0
 59 58  1  0  0  0
 27 28  2  0  0  0
 58 57  1  0  0  0
 31 37  2  0  0  0
 57 56  1  0  0  0
 56 55  1  0  0  0
 55 54  1  0  0  0
 54 53  1  0  0  0
 53 52  1  0  0  0
 52 51  1  0  0  0
 51 50  1  0  0  0
 50 49  1  0  0  0
 49 47  1  0  0  0
 47 48  2  0  0  0
 48 45  1  0  0  0
 42 41  1  0  0  0
 41 40  1  0  0  0
 40 39  1  0  0  0
 39  1  1  0  0  0
  1 21  1  0  0  0
  8  4  1  0  0  0
  8  9  1  0  0  0
  8 10  1  0  0  0
 11 13  1  0  0  0
 13 14  2  0  0  0
 13 18  1  0  0  0
 14 15  1  0  0  0
 15 16  2  0  0  0
 16 17  1  0  0  0
 17 18  2  0  0  0
 23 24  1  0  0  0
 23 25  1  0  0  0
 25 28  1  0  0  0
 32 33  1  0  0  0
 32 37  1  0  0  0
 33 34  1  0  0  0
 34 35  1  0  0  0
 35 36  1  0  0  0
M  END
> <minimizedAffinity>
-9.86766

> <CNNscore>
0.1731724739

> <CNNaffinity>
7.4934906960

> <CNN_VS>
1.2976663113

> <CNNaffinity_variance>
2.4220974445

$$$$
/media/chris/experiments/cd1a-new-docking/inputs/ligands/7ryo_ligand.pdb


 65 67  0  0  0  0  0  0  0  0999 V2000
  -40.2615   59.6182   64.7284 C   0  0  0  0  0  0  0  0  0  0  0  0
  -41.3159   58.6652   65.0323 N   0  0  0  0  0  0  0  0  0  0  0  0
  -41.9823   59.7683   66.8744 O   0  0  0  0  0  0  0  0  0  0  0  0
  -42.0990   58.8290   66.1013 C   0  0  0  0  0  0  0  0  0  0  0  0
  -41.4545   57.8891   64.4427 H   0  0  0  0  0  0  0  0  0  0  0  0
  -44.5012   58.3977   66.4413 N   0  0  0  0  0  0  0  0  0  0  0  0
  -44.7423   56.7313   64.9420 O   0  0  0  0  0  0  0  0  0  0  0  0
  -43.1751   57.7627   66.3642 C   0  0  0  0  0  0  0  0  0  0  0  0
  -42.8751   57.0756   67.6930 C   0  0  0  0  0  0  0  0  0  0  0  0
  -43.3192   56.7481   65.2203 C   0  0  0  0  0  0  0  0  0  0  0  0
  -45.2626   57.7731   65.6416 C   0  0  0  0  0  0  0  0  0  0  0  0
  -47.3709   55.9596   66.3830 O   0  0  0  0  0  0  0  0  0  0  0  0
  -46.6774   58.0607   65.3934 C   0  0  0  0  0  0  0  0  0  0  0  0
  -47.0635   59.3108   64.9084 C   0  0  0  0  0  0  0  0  0  0  0  0
  -48.3978   59.6795   64.9005 C   0  0  0  0  0  0  0  0  0  0  0  0
  -49.3629   58.8163   65.3717 C   0  0  0  0  0  0  0  0  0  0  0  0
  -49.0062   57.5733   65.8619 C   0  0  0  0  0  0  0  0  0  0  0  0
  -47.6701   57.1855   65.8801 C   0  0  0  0  0  0  0  0  0  0  0  0
  -46.4807   55.6685   66.4094 H   0  0  0  0  0  0  0  0  0  0  0  0
  -38.7790   58.3161   66.1239 O   0  0  0  0  0  0  0  0  0  0  0  0
  -39.0195   59.3507   65.5653 C   0  0  0  0  0  0  0  0  0  0  0  0
  -38.2367   60.4427   65.6102 O   0  0  0  0  0  0  0  0  0  0  0  0
  -36.8055   60.2575   65.8694 C   0  0  0  0  0  0  0  0  0  0  0  0
  -36.1791   61.6197   66.0293 C   0  0  0  0  0  0  0  0  0  0  0  0
  -36.2662   59.5125   64.6639 C   0  0  0  0  0  0  0  0  0  0  0  0
  -35.2759   60.1590   62.5559 N   0  0  0  0  0  0  0  0  0  0  0  0
  -37.2189   61.1167   63.1638 O   0  0  0  0  0  0  0  0  0  0  0  0
  -36.2982   60.3385   63.3973 C   0  0  0  0  0  0  0  0  0  0  0  0
  -35.2493   60.6760   61.7185 H   0  0  0  0  0  0  0  0  0  0  0  0
  -31.8735   59.4086   63.5328 N   0  0  0  0  0  0  0  0  0  0  0  0
  -32.8106   61.1299   62.4421 O   0  0  0  0  0  0  0  0  0  0  0  0
  -34.2027   59.2229   62.8415 C   0  0  0  0  0  0  0  0  0  0  0  0
  -34.1054   58.1767   61.7254 C   0  0  0  0  0  0  0  0  0  0  0  0
  -33.3456   56.9186   62.1315 C   0  0  0  0  0  0  0  0  0  0  0  0
  -31.8946   57.1294   62.5161 C   0  0  0  0  0  0  0  0  0  0  0  0
  -31.6984   57.9774   63.7553 C   0  0  0  0  0  0  0  0  0  0  0  0
  -32.9004   60.0035   62.9214 C   0  0  0  0  0  0  0  0  0  0  0  0
  -31.1595   59.9974   63.8686 H   0  0  0  0  0  0  0  0  0  0  0  0
  -40.7442   61.0578   64.9119 C   0  0  0  0  0  0  0  0  0  0  0  0
  -41.4430   61.5985   63.6691 C   0  0  0  0  0  0  0  0  0  0  0  0
  -41.4274   60.6258   62.5045 C   0  0  0  0  0  0  0  0  0  0  0  0
  -40.4087   60.9401   61.4309 C   0  0  0  0  0  0  0  0  0  0  0  0
  -39.3208   59.9751   61.4449 N   0  0  0  0  0  0  0  0  0  0  0  0
  -39.0032   60.0435   59.2114 O   0  0  0  0  0  0  0  0  0  0  0  0
  -38.6930   59.5944   60.3270 C   0  0  0  0  0  0  0  0  0  0  0  0
  -39.0373   59.5896   62.3052 H   0  0  0  0  0  0  0  0  0  0  0  0
  -37.6961   57.6431   61.4983 C   0  0  0  0  0  0  0  0  0  0  0  0
  -37.6670   58.5470   60.5284 C   0  0  0  0  0  0  0  0  0  0  0  0
  -38.7393   57.4681   62.5574 C   0  0  0  0  0  0  0  0  0  0  0  0
  -39.7496   56.3911   62.1816 C   0  0  0  0  0  0  0  0  0  0  0  0
  -41.1797   56.8955   62.0934 C   0  0  0  0  0  0  0  0  0  0  0  0
  -41.7643   56.8244   60.6926 C   0  0  0  0  0  0  0  0  0  0  0  0
  -41.4035   57.9994   59.8033 C   0  0  0  0  0  0  0  0  0  0  0  0
  -41.8095   57.8067   58.3515 C   0  0  0  0  0  0  0  0  0  0  0  0
  -42.1230   59.1045   57.6330 C   0  0  0  0  0  0  0  0  0  0  0  0
  -43.4069   59.0444   56.8298 C   0  0  0  0  0  0  0  0  0  0  0  0
  -44.4153   58.0316   57.3370 C   0  0  0  0  0  0  0  0  0  0  0  0
  -45.8359   58.5606   57.3199 C   0  0  0  0  0  0  0  0  0  0  0  0
  -46.8776   57.4738   57.1103 C   0  0  0  0  0  0  0  0  0  0  0  0
  -46.9732   56.4763   58.2516 C   0  0  0  0  0  0  0  0  0  0  0  0
  -47.6896   57.0054   59.4845 C   0  0  0  0  0  0  0  0  0  0  0  0
  -48.9298   57.8311   59.1711 C   0  0  0  0  0  0  0  0  0  0  0  0
  -49.9890   57.7685   60.2598 C   0  0  0  0  0  0  0  0  0  0  0  0
  -49.7079   59.9741   61.4567 C   0  0  0  0  0  0  0  0  0  0  0  0
  -49.6077   58.4742   61.5485 C   0  0  0  0  0  0  0  0  0  0  0  0
 43 45  1  0  0  0
 43 42  1  0  0  0
 43 46  1  0  0  0
 64 65  1  0  0  0
 44 45  2  0  0  0
 65 63  1  0  0  0
  2  1  1  0  0  0
  2  4  1  0  0  0
  2  5  1  0  0  0
  3  4  2  0  0  0
 63 62  1  0  0  0
  6  8  1  0  0  0
  6 11  2  0  0  0
  7 10  1  0  0  0
  7 11  1  0  0  0
 62 61  1  0  0  0
 26 28  1  0  0  0
 26 32  1  0  0  0
 26 29  1  0  0  0
 12 18  1  0  0  0
 12 19  1  0  0  0
 61 60  1  0  0  0
 30 36  1  0  0  0
 30 37  1  0  0  0
 30 38  1  0  0  0
 20 21  2  0  0  0
 60 59  1  0  0  0
 22 21  1  0  0  0
 22 23  1  0  0  0
 59 58  1  0  0  0
 27 28  2  0  0  0
 58 57  1  0  0  0
 31 37  2  0  0  0
 57 56  1  0  0  0
 56 55  1  0  0  0
 55 54  1  0  0  0
 54 53  1  0  0  0
 53 52  1  0  0  0
 52 51  1  0  0  0
 51 50  1  0  0  0
 50 49  1  0  0  0
 49 47  1  0  0  0
 47 48  2  0  0  0
 48 45  1  0  0  0
 42 41  1  0  0  0
 41 40  1  0  0  0
 40 39  1  0  0  0
 39  1  1  0  0  0
  1 21  1  0  0  0
  8  4  1  0  0  0
  8  9  1  0  0  0
  8 10  1  0  0  0
 11 13  1  0  0  0
 13 14  2  0  0  0
 13 18  1  0  0  0
 14 15  1  0  0  0
 15 16  2  0  0  0
 16 17  1  0  0  0
 17 18  2  0  0  0
 23 24  1  0  0  0
 23 25  1  0  0  0
 25 28  1  0  0  0
 32 33  1  0  0  0
 32 37  1  0  0  0
 33 34  1  0  0  0
 34 35  1  0  0  0
 35 36  1  0  0  0
M  END
> <minimizedAffinity>
-7.72080

> <CNNscore>
0.1504445523

> <CNNaffinity>
7.7963051796

> <CNN_VS>
1.1729116440

> <CNNaffinity_variance>
2.0800418854

$$$$
/media/chris/experiments/cd1a-new-docking/inputs/ligands/7ryo_ligand.pdb


 65 67  0  0  0  0  0  0  0  0999 V2000
  -34.0483   58.6948   64.5305 C   0  0  0  0  0  0  0  0  0  0  0  0
  -34.4205   60.0772   64.2794 N   0  0  0  0  0  0  0  0  0  0  0  0
  -34.3009   60.6561   66.4485 O   0  0  0  0  0  0  0  0  0  0  0  0
  -34.5156   60.9532   65.2827 C   0  0  0  0  0  0  0  0  0  0  0  0
  -34.6049   60.3714   63.3582 H   0  0  0  0  0  0  0  0  0  0  0  0
  -33.7478   63.2019   64.6300 N   0  0  0  0  0  0  0  0  0  0  0  0
  -35.1269   63.5136   62.8739 O   0  0  0  0  0  0  0  0  0  0  0  0
  -34.9378   62.3899   64.9340 C   0  0  0  0  0  0  0  0  0  0  0  0
  -35.6605   62.9968   66.1329 C   0  0  0  0  0  0  0  0  0  0  0  0
  -35.7829   62.4830   63.6551 C   0  0  0  0  0  0  0  0  0  0  0  0
  -33.9504   63.7577   63.5077 C   0  0  0  0  0  0  0  0  0  0  0  0
  -32.5739   65.9051   64.8409 O   0  0  0  0  0  0  0  0  0  0  0  0
  -33.0299   64.6601   62.8119 C   0  0  0  0  0  0  0  0  0  0  0  0
  -32.6762   64.4131   61.4848 C   0  0  0  0  0  0  0  0  0  0  0  0
  -31.6322   65.1055   60.8958 C   0  0  0  0  0  0  0  0  0  0  0  0
  -30.9280   66.0484   61.6126 C   0  0  0  0  0  0  0  0  0  0  0  0
  -31.2555   66.3086   62.9308 C   0  0  0  0  0  0  0  0  0  0  0  0
  -32.3002   65.6215   63.5409 C   0  0  0  0  0  0  0  0  0  0  0  0
  -33.2712   65.4599   65.2808 H   0  0  0  0  0  0  0  0  0  0  0  0
  -33.0077   57.5681   62.6627 O   0  0  0  0  0  0  0  0  0  0  0  0
  -34.0095   57.8918   63.2389 C   0  0  0  0  0  0  0  0  0  0  0  0
  -35.2557   57.6120   62.8196 O   0  0  0  0  0  0  0  0  0  0  0  0
  -35.4916   57.5019   61.3767 C   0  0  0  0  0  0  0  0  0  0  0  0
  -34.5332   58.4299   60.6740 C   0  0  0  0  0  0  0  0  0  0  0  0
  -36.9393   57.9023   61.1689 C   0  0  0  0  0  0  0  0  0  0  0  0
  -38.5816   59.1892   62.3890 N   0  0  0  0  0  0  0  0  0  0  0  0
  -36.5168   60.0481   62.1428 O   0  0  0  0  0  0  0  0  0  0  0  0
  -37.3239   59.1452   61.9401 C   0  0  0  0  0  0  0  0  0  0  0  0
  -38.8816   59.9790   62.8944 H   0  0  0  0  0  0  0  0  0  0  0  0
  -41.3978   57.7301   60.6473 N   0  0  0  0  0  0  0  0  0  0  0  0
  -40.8459   59.8399   61.1713 O   0  0  0  0  0  0  0  0  0  0  0  0
  -39.5188   58.1050   62.1527 C   0  0  0  0  0  0  0  0  0  0  0  0
  -40.0917   57.6046   63.4835 C   0  0  0  0  0  0  0  0  0  0  0  0
  -40.7124   56.2144   63.3974 C   0  0  0  0  0  0  0  0  0  0  0  0
  -41.8949   56.0858   62.4578 C   0  0  0  0  0  0  0  0  0  0  0  0
  -41.5578   56.3237   61.0007 C   0  0  0  0  0  0  0  0  0  0  0  0
  -40.6465   58.6337   61.2806 C   0  0  0  0  0  0  0  0  0  0  0  0
  -41.8962   58.0458   59.8591 H   0  0  0  0  0  0  0  0  0  0  0  0
  -34.9841   58.0441   65.5503 C   0  0  0  0  0  0  0  0  0  0  0  0
  -36.3914   57.8408   64.9995 C   0  0  0  0  0  0  0  0  0  0  0  0
  -37.4780   58.3074   65.9505 C   0  0  0  0  0  0  0  0  0  0  0  0
  -37.9671   59.7187   65.7092 C   0  0  0  0  0  0  0  0  0  0  0  0
  -39.1977   59.9768   66.4400 N   0  0  0  0  0  0  0  0  0  0  0  0
  -40.3288   60.6918   64.6225 O   0  0  0  0  0  0  0  0  0  0  0  0
  -40.2962   60.4476   65.8398 C   0  0  0  0  0  0  0  0  0  0  0  0
  -39.2229   59.7991   67.4080 H   0  0  0  0  0  0  0  0  0  0  0  0
  -42.3648   59.8434   67.0765 C   0  0  0  0  0  0  0  0  0  0  0  0
  -41.4244   60.7223   66.7575 C   0  0  0  0  0  0  0  0  0  0  0  0
  -42.4872   58.4242   66.6168 C   0  0  0  0  0  0  0  0  0  0  0  0
  -43.1910   58.3266   65.2688 C   0  0  0  0  0  0  0  0  0  0  0  0
  -44.5238   57.6000   65.3239 C   0  0  0  0  0  0  0  0  0  0  0  0
  -45.1692   57.6167   66.6995 C   0  0  0  0  0  0  0  0  0  0  0  0
  -46.5641   58.2128   66.7292 C   0  0  0  0  0  0  0  0  0  0  0  0
  -47.0779   58.6193   65.3579 C   0  0  0  0  0  0  0  0  0  0  0  0
  -48.1292   59.7107   65.4042 C   0  0  0  0  0  0  0  0  0  0  0  0
  -48.5336   60.2054   64.0298 C   0  0  0  0  0  0  0  0  0  0  0  0
  -49.9628   59.8780   63.6426 C   0  0  0  0  0  0  0  0  0  0  0  0
  -50.1218   59.6150   62.1581 C   0  0  0  0  0  0  0  0  0  0  0  0
  -50.7606   58.2701   61.8528 C   0  0  0  0  0  0  0  0  0  0  0  0
  -50.0298   57.4608   60.7956 C   0  0  0  0  0  0  0  0  0  0  0  0
  -48.5568   57.8097   60.6499 C   0  0  0  0  0  0  0  0  0  0  0  0
  -47.8955   57.1968   59.4231 C   0  0  0  0  0  0  0  0  0  0  0  0
  -47.3647   58.2302   58.4424 C   0  0  0  0  0  0  0  0  0  0  0  0
  -46.7819   56.2220   57.0268 C   0  0  0  0  0  0  0  0  0  0  0  0
  -46.4785   57.6616   57.3491 C   0  0  0  0  0  0  0  0  0  0  0  0
 43 45  1  0  0  0
 43 42  1  0  0  0
 43 46  1  0  0  0
 64 65  1  0  0  0
 44 45  2  0  0  0
 65 63  1  0  0  0
  2  1  1  0  0  0
  2  4  1  0  0  0
  2  5  1  0  0  0
  3  4  2  0  0  0
 63 62  1  0  0  0
  6  8  1  0  0  0
  6 11  2  0  0  0
  7 10  1  0  0  0
  7 11  1  0  0  0
 62 61  1  0  0  0
 26 28  1  0  0  0
 26 32  1  0  0  0
 26 29  1  0  0  0
 12 18  1  0  0  0
 12 19  1  0  0  0
 61 60  1  0  0  0
 30 36  1  0  0  0
 30 37  1  0  0  0
 30 38  1  0  0  0
 20 21  2  0  0  0
 60 59  1  0  0  0
 22 21  1  0  0  0
 22 23  1  0  0  0
 59 58  1  0  0  0
 27 28  2  0  0  0
 58 57  1  0  0  0
 31 37  2  0  0  0
 57 56  1  0  0  0
 56 55  1  0  0  0
 55 54  1  0  0  0
 54 53  1  0  0  0
 53 52  1  0  0  0
 52 51  1  0  0  0
 51 50  1  0  0  0
 50 49  1  0  0  0
 49 47  1  0  0  0
 47 48  2  0  0  0
 48 45  1  0  0  0
 42 41  1  0  0  0
 41 40  1  0  0  0
 40 39  1  0  0  0
 39  1  1  0  0  0
  1 21  1  0  0  0
  8  4  1  0  0  0
  8  9  1  0  0  0
  8 10  1  0  0  0
 11 13  1  0  0  0
 13 14  2  0  0  0
 13 18  1  0  0  0
 14 15  1  0  0  0
 15 16  2  0  0  0
 16 17  1  0  0  0
 17 18  2  0  0  0
 23 24  1  0  0  0
 23 25  1  0  0  0
 25 28  1  0  0  0
 32 33  1  0  0  0
 32 37  1  0  0  0
 33 34  1  0  0  0
 34 35  1  0  0  0
 35 36  1  0  0  0
M  END
> <minimizedAffinity>
-9.03738

> <CNNscore>
0.1492203623

> <CNNaffinity>
7.5251283646

> <CNN_VS>
1.1229023933

> <CNNaffinity_variance>
1.1244390011

$$$$
