/media/chris/experiments/cd1a-new-docking/inputs/ligands/7ryo_ligand.pdb


 65 67  0  0  0  0  0  0  0  0999 V2000
  -34.8526   62.3595   63.8385 C   0  0  0  0  0  0  0  0  0  0  0  0
  -35.1098   60.9443   63.6301 N   0  0  0  0  0  0  0  0  0  0  0  0
  -36.9624   61.3110   62.4106 O   0  0  0  0  0  0  0  0  0  0  0  0
  -36.1646   60.5378   62.9193 C   0  0  0  0  0  0  0  0  0  0  0  0
  -34.4987   60.2769   64.0178 H   0  0  0  0  0  0  0  0  0  0  0  0
  -37.7545   58.6694   63.1490 N   0  0  0  0  0  0  0  0  0  0  0  0
  -37.4651   57.7505   61.1107 O   0  0  0  0  0  0  0  0  0  0  0  0
  -36.3775   59.0228   62.7664 C   0  0  0  0  0  0  0  0  0  0  0  0
  -35.4033   58.2921   63.6853 C   0  0  0  0  0  0  0  0  0  0  0  0
  -36.2627   58.5352   61.3145 C   0  0  0  0  0  0  0  0  0  0  0  0
  -38.2466   57.9932   62.1950 C   0  0  0  0  0  0  0  0  0  0  0  0
  -40.1187   58.6329   60.1046 O   0  0  0  0  0  0  0  0  0  0  0  0
  -39.5974   57.4289   62.1427 C   0  0  0  0  0  0  0  0  0  0  0  0
  -39.9766   56.4342   63.0450 C   0  0  0  0  0  0  0  0  0  0  0  0
  -41.1506   55.7254   62.8563 C   0  0  0  0  0  0  0  0  0  0  0  0
  -41.9609   55.9929   61.7744 C   0  0  0  0  0  0  0  0  0  0  0  0
  -41.6055   56.9705   60.8630 C   0  0  0  0  0  0  0  0  0  0  0  0
  -40.4285   57.6922   61.0344 C   0  0  0  0  0  0  0  0  0  0  0  0
  -39.3330   59.1362   60.1911 H   0  0  0  0  0  0  0  0  0  0  0  0
  -32.8704   62.9246   65.1002 O   0  0  0  0  0  0  0  0  0  0  0  0
  -33.3697   62.6243   64.0510 C   0  0  0  0  0  0  0  0  0  0  0  0
  -32.6971   62.4957   62.8941 O   0  0  0  0  0  0  0  0  0  0  0  0
  -31.7672   63.5632   62.5125 C   0  0  0  0  0  0  0  0  0  0  0  0
  -32.1266   64.0215   61.1217 C   0  0  0  0  0  0  0  0  0  0  0  0
  -30.3854   62.9419   62.5762 C   0  0  0  0  0  0  0  0  0  0  0  0
  -30.6424   60.5504   62.8144 N   0  0  0  0  0  0  0  0  0  0  0  0
  -30.0406   61.3672   60.8063 O   0  0  0  0  0  0  0  0  0  0  0  0
  -30.3363   61.5512   61.9837 C   0  0  0  0  0  0  0  0  0  0  0  0
  -30.8718   60.7579   63.7490 H   0  0  0  0  0  0  0  0  0  0  0  0
  -32.0624   57.8016   60.9379 N   0  0  0  0  0  0  0  0  0  0  0  0
  -32.9556   59.6077   61.9232 O   0  0  0  0  0  0  0  0  0  0  0  0
  -30.6464   59.1650   62.3779 C   0  0  0  0  0  0  0  0  0  0  0  0
  -30.4493   58.2337   63.5793 C   0  0  0  0  0  0  0  0  0  0  0  0
  -29.9915   56.8306   63.1961 C   0  0  0  0  0  0  0  0  0  0  0  0
  -30.9522   56.0475   62.3233 C   0  0  0  0  0  0  0  0  0  0  0  0
  -31.1712   56.6465   60.9498 C   0  0  0  0  0  0  0  0  0  0  0  0
  -31.9895   58.8765   61.7260 C   0  0  0  0  0  0  0  0  0  0  0  0
  -32.7943   57.7867   60.2796 H   0  0  0  0  0  0  0  0  0  0  0  0
  -35.6780   62.9083   65.0033 C   0  0  0  0  0  0  0  0  0  0  0  0
  -35.7255   61.9458   66.1851 C   0  0  0  0  0  0  0  0  0  0  0  0
  -37.1340   61.6824   66.6844 C   0  0  0  0  0  0  0  0  0  0  0  0
  -37.8572   60.5583   65.9752 C   0  0  0  0  0  0  0  0  0  0  0  0
  -39.1634   60.3214   66.5690 N   0  0  0  0  0  0  0  0  0  0  0  0
  -40.2791   60.5369   64.6190 O   0  0  0  0  0  0  0  0  0  0  0  0
  -40.2867   60.3279   65.8432 C   0  0  0  0  0  0  0  0  0  0  0  0
  -39.2227   60.1507   67.5368 H   0  0  0  0  0  0  0  0  0  0  0  0
  -42.2518   59.0371   66.6464 C   0  0  0  0  0  0  0  0  0  0  0  0
  -41.5256   60.1466   66.6323 C   0  0  0  0  0  0  0  0  0  0  0  0
  -41.9875   57.7588   65.9137 C   0  0  0  0  0  0  0  0  0  0  0  0
  -43.2799   57.0910   65.4602 C   0  0  0  0  0  0  0  0  0  0  0  0
  -44.3694   58.0709   65.0606 C   0  0  0  0  0  0  0  0  0  0  0  0
  -45.7709   57.5965   65.4070 C   0  0  0  0  0  0  0  0  0  0  0  0
  -46.8687   58.5874   65.0684 C   0  0  0  0  0  0  0  0  0  0  0  0
  -47.8399   58.8289   66.2122 C   0  0  0  0  0  0  0  0  0  0  0  0
  -48.9043   59.8609   65.8949 C   0  0  0  0  0  0  0  0  0  0  0  0
  -50.2384   59.2445   65.5243 C   0  0  0  0  0  0  0  0  0  0  0  0
  -51.1563   60.1636   64.7415 C   0  0  0  0  0  0  0  0  0  0  0  0
  -51.4024   59.6788   63.3263 C   0  0  0  0  0  0  0  0  0  0  0  0
  -50.1517   59.6916   62.4627 C   0  0  0  0  0  0  0  0  0  0  0  0
  -49.6831   58.3141   62.0273 C   0  0  0  0  0  0  0  0  0  0  0  0
  -50.2966   57.8294   60.7228 C   0  0  0  0  0  0  0  0  0  0  0  0
  -49.4155   56.8575   59.9499 C   0  0  0  0  0  0  0  0  0  0  0  0
  -48.8053   57.4611   58.6952 C   0  0  0  0  0  0  0  0  0  0  0  0
  -46.6151   58.1457   57.6413 C   0  0  0  0  0  0  0  0  0  0  0  0
  -47.4390   58.0894   58.9009 C   0  0  0  0  0  0  0  0  0  0  0  0
 43 45  1  0  0  0
 43 42  1  0  0  0
 43 46  1  0  0  0
 64 65  1  0  0  0
 44 45  2  0  0  0
 65 63  1  0  0  0
  2  1  1  0  0  0
  2  4  1  0  0  0
  2  5  1  0  0  0
  3  4  2  0  0  0
 63 62  1  0  0  0
  6  8  1  0  0  0
  6 11  2  0  0  0
  7 10  1  0  0  0
  7 11  1  0  0  0
 62 61  1  0  0  0
 26 28  1  0  0  0
 26 32  1  0  0  0
 26 29  1  0  0  0
 12 18  1  0  0  0
 12 19  1  0  0  0
 61 60  1  0  0  0
 30 36  1  0  0  0
 30 37  1  0  0  0
 30 38  1  0  0  0
 20 21  2  0  0  0
 60 59  1  0  0  0
 22 21  1  0  0  0
 22 23  1  0  0  0
 59 58  1  0  0  0
 27 28  2  0  0  0
 58 57  1  0  0  0
 31 37  2  0  0  0
 57 56  1  0  0  0
 56 55  1  0  0  0
 55 54  1  0  0  0
 54 53  1  0  0  0
 53 52  1  0  0  0
 52 51  1  0  0  0
 51 50  1  0  0  0
 50 49  1  0  0  0
 49 47  1  0  0  0
 47 48  2  0  0  0
 48 45  1  0  0  0
 42 41  1  0  0  0
 41 40  1  0  0  0
 40 39  1  0  0  0
 39  1  1  0  0  0
  1 21  1  0  0  0
  8  4  1  0  0  0
  8  9  1  0  0  0
  8 10  1  0  0  0
 11 13  1  0  0  0
 13 14  2  0  0  0
 13 18  1  0  0  0
 14 15  1  0  0  0
 15 16  2  0  0  0
 16 17  1  0  0  0
 17 18  2  0  0  0
 23 24  1  0  0  0
 23 25  1  0  0  0
 25 28  1  0  0  0
 32 33  1  0  0  0
 32 37  1  0  0  0
 33 34  1  0  0  0
 34 35  1  0  0  0
 35 36  1  0  0  0
M  END
> <minimizedAffinity>
-10.23357

> <CNNscore>
0.4481611848

> <CNNaffinity>
7.7279825211

> <CNN_VS>
3.4633817673

> <CNNaffinity_variance>
1.0637960434

$$$$
/media/chris/experiments/cd1a-new-docking/inputs/ligands/7ryo_ligand.pdb


 65 67  0  0  0  0  0  0  0  0999 V2000
  -34.4555   58.2126   62.6307 C   0  0  0  0  0  0  0  0  0  0  0  0
  -34.8755   59.5059   63.1439 N   0  0  0  0  0  0  0  0  0  0  0  0
  -35.4043   58.6928   65.1720 O   0  0  0  0  0  0  0  0  0  0  0  0
  -35.3220   59.6331   64.3959 C   0  0  0  0  0  0  0  0  0  0  0  0
  -34.8302   60.2981   62.5613 H   0  0  0  0  0  0  0  0  0  0  0  0
  -34.6989   61.6668   65.6399 N   0  0  0  0  0  0  0  0  0  0  0  0
  -35.2368   63.1846   64.0618 O   0  0  0  0  0  0  0  0  0  0  0  0
  -35.7686   61.0317   64.8526 C   0  0  0  0  0  0  0  0  0  0  0  0
  -37.0122   60.8923   65.7253 C   0  0  0  0  0  0  0  0  0  0  0  0
  -35.9980   62.0077   63.6892 C   0  0  0  0  0  0  0  0  0  0  0  0
  -34.4897   62.8109   65.1331 C   0  0  0  0  0  0  0  0  0  0  0  0
  -34.7222   64.1635   67.6629 O   0  0  0  0  0  0  0  0  0  0  0  0
  -33.5090   63.7951   65.5971 C   0  0  0  0  0  0  0  0  0  0  0  0
  -32.3336   64.0069   64.8754 C   0  0  0  0  0  0  0  0  0  0  0  0
  -31.2973   64.7444   65.4218 C   0  0  0  0  0  0  0  0  0  0  0  0
  -31.4128   65.2796   66.6862 C   0  0  0  0  0  0  0  0  0  0  0  0
  -32.5654   65.0805   67.4241 C   0  0  0  0  0  0  0  0  0  0  0  0
  -33.6171   64.3404   66.8930 C   0  0  0  0  0  0  0  0  0  0  0  0
  -35.4479   63.6701   67.3345 H   0  0  0  0  0  0  0  0  0  0  0  0
  -32.3427   57.2656   61.9379 O   0  0  0  0  0  0  0  0  0  0  0  0
  -32.9953   58.2368   62.2046 C   0  0  0  0  0  0  0  0  0  0  0  0
  -32.5296   59.4980   62.1882 O   0  0  0  0  0  0  0  0  0  0  0  0
  -31.0931   59.7020   61.9770 C   0  0  0  0  0  0  0  0  0  0  0  0
  -30.4714   60.0588   63.3035 C   0  0  0  0  0  0  0  0  0  0  0  0
  -30.9857   60.8286   60.9678 C   0  0  0  0  0  0  0  0  0  0  0  0
  -31.9847   63.0187   61.1858 N   0  0  0  0  0  0  0  0  0  0  0  0
  -30.2046   62.5220   62.4689 O   0  0  0  0  0  0  0  0  0  0  0  0
  -31.0179   62.1986   61.6077 C   0  0  0  0  0  0  0  0  0  0  0  0
  -32.6089   62.7050   60.4921 H   0  0  0  0  0  0  0  0  0  0  0  0
  -34.0236   65.7528   62.3944 N   0  0  0  0  0  0  0  0  0  0  0  0
  -34.3736   64.1308   60.8853 O   0  0  0  0  0  0  0  0  0  0  0  0
  -32.1411   64.3598   61.7212 C   0  0  0  0  0  0  0  0  0  0  0  0
  -31.3047   65.3531   60.9067 C   0  0  0  0  0  0  0  0  0  0  0  0
  -31.0378   66.6670   61.6330 C   0  0  0  0  0  0  0  0  0  0  0  0
  -32.2687   67.4791   61.9838 C   0  0  0  0  0  0  0  0  0  0  0  0
  -33.1952   66.8047   62.9738 C   0  0  0  0  0  0  0  0  0  0  0  0
  -33.6109   64.7388   61.6307 C   0  0  0  0  0  0  0  0  0  0  0  0
  -34.9882   65.7953   62.5869 H   0  0  0  0  0  0  0  0  0  0  0  0
  -35.3527   57.7537   61.4802 C   0  0  0  0  0  0  0  0  0  0  0  0
  -36.7664   57.4200   61.9444 C   0  0  0  0  0  0  0  0  0  0  0  0
  -37.8408   58.1436   61.1540 C   0  0  0  0  0  0  0  0  0  0  0  0
  -38.9071   58.8085   61.9969 C   0  0  0  0  0  0  0  0  0  0  0  0
  -40.1086   57.9915   62.0586 N   0  0  0  0  0  0  0  0  0  0  0  0
  -39.8093   57.4104   64.2188 O   0  0  0  0  0  0  0  0  0  0  0  0
  -40.4748   57.3476   63.1721 C   0  0  0  0  0  0  0  0  0  0  0  0
  -40.6706   57.9097   61.2544 H   0  0  0  0  0  0  0  0  0  0  0  0
  -42.7596   56.5906   63.7884 C   0  0  0  0  0  0  0  0  0  0  0  0
  -41.6811   56.5035   63.0216 C   0  0  0  0  0  0  0  0  0  0  0  0
  -43.0040   57.5357   64.9231 C   0  0  0  0  0  0  0  0  0  0  0  0
  -44.3781   58.1875   64.8284 C   0  0  0  0  0  0  0  0  0  0  0  0
  -45.4877   57.3763   65.4747 C   0  0  0  0  0  0  0  0  0  0  0  0
  -46.8776   57.9346   65.2184 C   0  0  0  0  0  0  0  0  0  0  0  0
  -47.9799   57.2587   66.0120 C   0  0  0  0  0  0  0  0  0  0  0  0
  -49.3010   58.0090   65.9731 C   0  0  0  0  0  0  0  0  0  0  0  0
  -49.1510   59.4827   65.6499 C   0  0  0  0  0  0  0  0  0  0  0  0
  -50.4635   60.2389   65.6998 C   0  0  0  0  0  0  0  0  0  0  0  0
  -50.9113   60.8035   64.3654 C   0  0  0  0  0  0  0  0  0  0  0  0
  -51.7537   59.8264   63.5691 C   0  0  0  0  0  0  0  0  0  0  0  0
  -50.9479   59.0237   62.5609 C   0  0  0  0  0  0  0  0  0  0  0  0
  -49.7615   59.7711   61.9772 C   0  0  0  0  0  0  0  0  0  0  0  0
  -49.4561   59.4236   60.5284 C   0  0  0  0  0  0  0  0  0  0  0  0
  -49.4322   57.9280   60.2441 C   0  0  0  0  0  0  0  0  0  0  0  0
  -48.7666   57.5739   58.9240 C   0  0  0  0  0  0  0  0  0  0  0  0
  -46.6009   58.2492   57.8150 C   0  0  0  0  0  0  0  0  0  0  0  0
  -47.2500   57.5400   58.9745 C   0  0  0  0  0  0  0  0  0  0  0  0
 43 45  1  0  0  0
 43 42  1  0  0  0
 43 46  1  0  0  0
 64 65  1  0  0  0
 44 45  2  0  0  0
 65 63  1  0  0  0
  2  1  1  0  0  0
  2  4  1  0  0  0
  2  5  1  0  0  0
  3  4  2  0  0  0
 63 62  1  0  0  0
  6  8  1  0  0  0
  6 11  2  0  0  0
  7 10  1  0  0  0
  7 11  1  0  0  0
 62 61  1  0  0  0
 26 28  1  0  0  0
 26 32  1  0  0  0
 26 29  1  0  0  0
 12 18  1  0  0  0
 12 19  1  0  0  0
 61 60  1  0  0  0
 30 36  1  0  0  0
 30 37  1  0  0  0
 30 38  1  0  0  0
 20 21  2  0  0  0
 60 59  1  0  0  0
 22 21  1  0  0  0
 22 23  1  0  0  0
 59 58  1  0  0  0
 27 28  2  0  0  0
 58 57  1  0  0  0
 31 37  2  0  0  0
 57 56  1  0  0  0
 56 55  1  0  0  0
 55 54  1  0  0  0
 54 53  1  0  0  0
 53 52  1  0  0  0
 52 51  1  0  0  0
 51 50  1  0  0  0
 50 49  1  0  0  0
 49 47  1  0  0  0
 47 48  2  0  0  0
 48 45  1  0  0  0
 42 41  1  0  0  0
 41 40  1  0  0  0
 40 39  1  0  0  0
 39  1  1  0  0  0
  1 21  1  0  0  0
  8  4  1  0  0  0
  8  9  1  0  0  0
  8 10  1  0  0  0
 11 13  1  0  0  0
 13 14  2  0  0  0
 13 18  1  0  0  0
 14 15  1  0  0  0
 15 16  2  0  0  0
 16 17  1  0  0  0
 17 18  2  0  0  0
 23 24  1  0  0  0
 23 25  1  0  0  0
 25 28  1  0  0  0
 32 33  1  0  0  0
 32 37  1  0  0  0
 33 34  1  0  0  0
 34 35  1  0  0  0
 35 36  1  0  0  0
M  END
> <minimizedAffinity>
-9.69218

> <CNNscore>
0.4408559799

> <CNNaffinity>
7.2065210342

> <CNN_VS>
3.1770379543

> <CNNaffinity_variance>
0.2778664231

$$$$
/media/chris/experiments/cd1a-new-docking/inputs/ligands/7ryo_ligand.pdb


 65 67  0  0  0  0  0  0  0  0999 V2000
  -35.3752   58.7596   62.5709 C   0  0  0  0  0  0  0  0  0  0  0  0
  -33.9524   59.0388   62.4692 N   0  0  0  0  0  0  0  0  0  0  0  0
  -33.4329   56.9334   61.8769 O   0  0  0  0  0  0  0  0  0  0  0  0
  -33.0898   58.0799   62.1238 C   0  0  0  0  0  0  0  0  0  0  0  0
  -33.6205   59.9463   62.6574 H   0  0  0  0  0  0  0  0  0  0  0  0
  -31.4471   59.8239   61.5479 N   0  0  0  0  0  0  0  0  0  0  0  0
  -30.2572   59.7874   63.4626 O   0  0  0  0  0  0  0  0  0  0  0  0
  -31.5995   58.4529   62.0625 C   0  0  0  0  0  0  0  0  0  0  0  0
  -30.8871   57.4867   61.1209 C   0  0  0  0  0  0  0  0  0  0  0  0
  -30.9265   58.5010   63.4421 C   0  0  0  0  0  0  0  0  0  0  0  0
  -30.7152   60.4536   62.3709 C   0  0  0  0  0  0  0  0  0  0  0  0
  -30.2067   61.7297   59.8417 O   0  0  0  0  0  0  0  0  0  0  0  0
  -30.2982   61.8536   62.2606 C   0  0  0  0  0  0  0  0  0  0  0  0
  -30.2713   62.6678   63.3936 C   0  0  0  0  0  0  0  0  0  0  0  0
  -30.1184   64.0381   63.2700 C   0  0  0  0  0  0  0  0  0  0  0  0
  -29.9903   64.6165   62.0260 C   0  0  0  0  0  0  0  0  0  0  0  0
  -30.0183   63.8323   60.8872 C   0  0  0  0  0  0  0  0  0  0  0  0
  -30.1733   62.4536   60.9907 C   0  0  0  0  0  0  0  0  0  0  0  0
  -30.3099   60.7991   59.8771 H   0  0  0  0  0  0  0  0  0  0  0  0
  -34.9327   57.8921   64.7827 O   0  0  0  0  0  0  0  0  0  0  0  0
  -35.7300   58.1995   63.9401 C   0  0  0  0  0  0  0  0  0  0  0  0
  -37.0627   58.0765   64.0685 O   0  0  0  0  0  0  0  0  0  0  0  0
  -37.7247   58.8167   65.1472 C   0  0  0  0  0  0  0  0  0  0  0  0
  -38.9826   58.0738   65.5205 C   0  0  0  0  0  0  0  0  0  0  0  0
  -38.0141   60.1925   64.5794 C   0  0  0  0  0  0  0  0  0  0  0  0
  -36.0558   61.6092   64.5577 N   0  0  0  0  0  0  0  0  0  0  0  0
  -37.5145   61.8258   66.2569 O   0  0  0  0  0  0  0  0  0  0  0  0
  -37.1738   61.2799   65.2112 C   0  0  0  0  0  0  0  0  0  0  0  0
  -35.8332   61.1371   63.7231 H   0  0  0  0  0  0  0  0  0  0  0  0
  -33.4643   64.0823   64.0464 N   0  0  0  0  0  0  0  0  0  0  0  0
  -33.9371   62.1293   63.0498 O   0  0  0  0  0  0  0  0  0  0  0  0
  -35.1597   62.6439   65.0436 C   0  0  0  0  0  0  0  0  0  0  0  0
  -34.4453   62.1683   66.3136 C   0  0  0  0  0  0  0  0  0  0  0  0
  -33.8494   63.3024   67.1406 C   0  0  0  0  0  0  0  0  0  0  0  0
  -32.7807   64.1231   66.4464 C   0  0  0  0  0  0  0  0  0  0  0  0
  -33.2769   64.8963   65.2425 C   0  0  0  0  0  0  0  0  0  0  0  0
  -34.1326   62.9301   63.9594 C   0  0  0  0  0  0  0  0  0  0  0  0
  -33.0549   64.4180   63.2164 H   0  0  0  0  0  0  0  0  0  0  0  0
  -35.8370   57.8170   61.4586 C   0  0  0  0  0  0  0  0  0  0  0  0
  -37.3563   57.7552   61.3439 C   0  0  0  0  0  0  0  0  0  0  0  0
  -37.9426   58.9080   60.5502 C   0  0  0  0  0  0  0  0  0  0  0  0
  -39.4378   58.8304   60.3319 C   0  0  0  0  0  0  0  0  0  0  0  0
  -40.1563   59.5273   61.3870 N   0  0  0  0  0  0  0  0  0  0  0  0
  -40.7739   57.6353   62.4514 O   0  0  0  0  0  0  0  0  0  0  0  0
  -40.7761   58.8750   62.3765 C   0  0  0  0  0  0  0  0  0  0  0  0
  -40.1874   60.5112   61.3724 H   0  0  0  0  0  0  0  0  0  0  0  0
  -42.5810   59.3681   64.0113 C   0  0  0  0  0  0  0  0  0  0  0  0
  -41.5198   59.7476   63.3123 C   0  0  0  0  0  0  0  0  0  0  0  0
  -43.2331   58.0209   64.0294 C   0  0  0  0  0  0  0  0  0  0  0  0
  -43.8542   57.7131   65.3863 C   0  0  0  0  0  0  0  0  0  0  0  0
  -45.3707   57.6305   65.3623 C   0  0  0  0  0  0  0  0  0  0  0  0
  -45.9920   57.4534   66.7378 C   0  0  0  0  0  0  0  0  0  0  0  0
  -47.1321   58.4083   67.0373 C   0  0  0  0  0  0  0  0  0  0  0  0
  -48.2057   58.4255   65.9617 C   0  0  0  0  0  0  0  0  0  0  0  0
  -49.1071   59.6429   66.0255 C   0  0  0  0  0  0  0  0  0  0  0  0
  -50.5018   59.3784   65.4946 C   0  0  0  0  0  0  0  0  0  0  0  0
  -50.9838   60.3888   64.4714 C   0  0  0  0  0  0  0  0  0  0  0  0
  -51.5472   59.7362   63.2244 C   0  0  0  0  0  0  0  0  0  0  0  0
  -50.8667   58.4226   62.8759 C   0  0  0  0  0  0  0  0  0  0  0  0
  -49.7646   58.5497   61.8387 C   0  0  0  0  0  0  0  0  0  0  0  0
  -49.7295   57.4181   60.8232 C   0  0  0  0  0  0  0  0  0  0  0  0
  -49.1171   57.8083   59.4849 C   0  0  0  0  0  0  0  0  0  0  0  0
  -47.6117   57.6043   59.4263 C   0  0  0  0  0  0  0  0  0  0  0  0
  -47.2316   57.5574   56.9304 C   0  0  0  0  0  0  0  0  0  0  0  0
  -46.9358   58.2541   58.2326 C   0  0  0  0  0  0  0  0  0  0  0  0
 43 45  1  0  0  0
 43 42  1  0  0  0
 43 46  1  0  0  0
 64 65  1  0  0  0
 44 45  2  0  0  0
 65 63  1  0  0  0
  2  1  1  0  0  0
  2  4  1  0  0  0
  2  5  1  0  0  0
  3  4  2  0  0  0
 63 62  1  0  0  0
  6  8  1  0  0  0
  6 11  2  0  0  0
  7 10  1  0  0  0
  7 11  1  0  0  0
 62 61  1  0  0  0
 26 28  1  0  0  0
 26 32  1  0  0  0
 26 29  1  0  0  0
 12 18  1  0  0  0
 12 19  1  0  0  0
 61 60  1  0  0  0
 30 36  1  0  0  0
 30 37  1  0  0  0
 30 38  1  0  0  0
 20 21  2  0  0  0
 60 59  1  0  0  0
 22 21  1  0  0  0
 22 23  1  0  0  0
 59 58  1  0  0  0
 27 28  2  0  0  0
 58 57  1  0  0  0
 31 37  2  0  0  0
 57 56  1  0  0  0
 56 55  1  0  0  0
 55 54  1  0  0  0
 54 53  1  0  0  0
 53 52  1  0  0  0
 52 51  1  0  0  0
 51 50  1  0  0  0
 50 49  1  0  0  0
 49 47  1  0  0  0
 47 48  2  0  0  0
 48 45  1  0  0  0
 42 41  1  0  0  0
 41 40  1  0  0  0
 40 39  1  0  0  0
 39  1  1  0  0  0
  1 21  1  0  0  0
  8  4  1  0  0  0
  8  9  1  0  0  0
  8 10  1  0  0  0
 11 13  1  0  0  0
 13 14  2  0  0  0
 13 18  1  0  0  0
 14 15  1  0  0  0
 15 16  2  0  0  0
 16 17  1  0  0  0
 17 18  2  0  0  0
 23 24  1  0  0  0
 23 25  1  0  0  0
 25 28  1  0  0  0
 32 33  1  0  0  0
 32 37  1  0  0  0
 33 34  1  0  0  0
 34 35  1  0  0  0
 35 36  1  0  0  0
M  END
> <minimizedAffinity>
-10.60107

> <CNNscore>
0.4132967889

> <CNNaffinity>
7.4607224464

> <CNN_VS>
3.0834925175

> <CNNaffinity_variance>
0.8427329063

$$$$
/media/chris/experiments/cd1a-new-docking/inputs/ligands/7ryo_ligand.pdb


 65 67  0  0  0  0  0  0  0  0999 V2000
  -35.1315   60.3642   65.1420 C   0  0  0  0  0  0  0  0  0  0  0  0
  -34.5541   61.5741   64.5806 N   0  0  0  0  0  0  0  0  0  0  0  0
  -36.0394   61.6760   62.8961 O   0  0  0  0  0  0  0  0  0  0  0  0
  -35.0710   62.1339   63.4840 C   0  0  0  0  0  0  0  0  0  0  0  0
  -33.7722   61.9860   65.0141 H   0  0  0  0  0  0  0  0  0  0  0  0
  -33.9762   64.2652   64.0594 N   0  0  0  0  0  0  0  0  0  0  0  0
  -32.1191   64.0199   62.8048 O   0  0  0  0  0  0  0  0  0  0  0  0
  -34.3860   63.3991   62.9416 C   0  0  0  0  0  0  0  0  0  0  0  0
  -35.3752   64.1575   62.0620 C   0  0  0  0  0  0  0  0  0  0  0  0
  -33.0726   63.1100   62.1998 C   0  0  0  0  0  0  0  0  0  0  0  0
  -32.7483   64.5366   63.8923 C   0  0  0  0  0  0  0  0  0  0  0  0
  -32.6028   64.1418   66.7395 O   0  0  0  0  0  0  0  0  0  0  0  0
  -31.9217   65.3730   64.7659 C   0  0  0  0  0  0  0  0  0  0  0  0
  -31.0522   66.3155   64.2155 C   0  0  0  0  0  0  0  0  0  0  0  0
  -30.0975   66.9348   65.0038 C   0  0  0  0  0  0  0  0  0  0  0  0
  -29.9932   66.6287   66.3432 C   0  0  0  0  0  0  0  0  0  0  0  0
  -30.8398   65.6947   66.9121 C   0  0  0  0  0  0  0  0  0  0  0  0
  -31.8043   65.0601   66.1358 C   0  0  0  0  0  0  0  0  0  0  0  0
  -33.2622   63.6967   66.2446 H   0  0  0  0  0  0  0  0  0  0  0  0
  -34.0430   58.2509   65.5776 O   0  0  0  0  0  0  0  0  0  0  0  0
  -34.2824   59.1452   64.8139 C   0  0  0  0  0  0  0  0  0  0  0  0
  -33.8189   59.2184   63.5541 O   0  0  0  0  0  0  0  0  0  0  0  0
  -33.3869   57.9778   62.9030 C   0  0  0  0  0  0  0  0  0  0  0  0
  -31.8855   58.0181   62.7694 C   0  0  0  0  0  0  0  0  0  0  0  0
  -34.0856   57.9592   61.5574 C   0  0  0  0  0  0  0  0  0  0  0  0
  -36.3373   58.3215   60.7570 N   0  0  0  0  0  0  0  0  0  0  0  0
  -36.0384   56.9872   62.5438 O   0  0  0  0  0  0  0  0  0  0  0  0
  -35.5736   57.7127   61.6689 C   0  0  0  0  0  0  0  0  0  0  0  0
  -35.9090   58.8921   60.0787 H   0  0  0  0  0  0  0  0  0  0  0  0
  -39.6244   59.2005   59.5260 N   0  0  0  0  0  0  0  0  0  0  0  0
  -37.7256   60.3645   59.7914 O   0  0  0  0  0  0  0  0  0  0  0  0
  -37.7812   58.1654   60.7378 C   0  0  0  0  0  0  0  0  0  0  0  0
  -38.3287   58.1524   62.1695 C   0  0  0  0  0  0  0  0  0  0  0  0
  -39.7262   57.5531   62.2839 C   0  0  0  0  0  0  0  0  0  0  0  0
  -40.8127   58.2833   61.5198 C   0  0  0  0  0  0  0  0  0  0  0  0
  -40.6321   58.2663   60.0163 C   0  0  0  0  0  0  0  0  0  0  0  0
  -38.3758   59.3399   59.9768 C   0  0  0  0  0  0  0  0  0  0  0  0
  -39.8937   59.7900   58.7848 H   0  0  0  0  0  0  0  0  0  0  0  0
  -36.5738   60.1676   64.6729 C   0  0  0  0  0  0  0  0  0  0  0  0
  -37.5808   60.8548   65.5890 C   0  0  0  0  0  0  0  0  0  0  0  0
  -38.4649   59.8790   66.3431 C   0  0  0  0  0  0  0  0  0  0  0  0
  -39.9501   60.1313   66.2018 C   0  0  0  0  0  0  0  0  0  0  0  0
  -40.6745   58.8860   66.0034 N   0  0  0  0  0  0  0  0  0  0  0  0
  -42.0498   59.7374   64.4293 O   0  0  0  0  0  0  0  0  0  0  0  0
  -41.6782   58.7787   65.1259 C   0  0  0  0  0  0  0  0  0  0  0  0
  -40.4178   58.0962   66.5321 H   0  0  0  0  0  0  0  0  0  0  0  0
  -43.6035   57.2504   65.4870 C   0  0  0  0  0  0  0  0  0  0  0  0
  -42.3464   57.4582   65.1196 C   0  0  0  0  0  0  0  0  0  0  0  0
  -44.6014   58.2633   65.9549 C   0  0  0  0  0  0  0  0  0  0  0  0
  -45.7399   57.6157   66.7334 C   0  0  0  0  0  0  0  0  0  0  0  0
  -46.8830   57.1303   65.8588 C   0  0  0  0  0  0  0  0  0  0  0  0
  -48.0027   58.1458   65.7025 C   0  0  0  0  0  0  0  0  0  0  0  0
  -49.3971   57.5691   65.8590 C   0  0  0  0  0  0  0  0  0  0  0  0
  -50.4731   58.6273   66.0382 C   0  0  0  0  0  0  0  0  0  0  0  0
  -49.9667   60.0438   65.8490 C   0  0  0  0  0  0  0  0  0  0  0  0
  -50.8882   60.8963   64.9998 C   0  0  0  0  0  0  0  0  0  0  0  0
  -51.6174   60.1346   63.9098 C   0  0  0  0  0  0  0  0  0  0  0  0
  -50.7108   59.7505   62.7570 C   0  0  0  0  0  0  0  0  0  0  0  0
  -50.9279   58.3263   62.2729 C   0  0  0  0  0  0  0  0  0  0  0  0
  -49.6764   57.6557   61.7335 C   0  0  0  0  0  0  0  0  0  0  0  0
  -49.0340   58.3828   60.5623 C   0  0  0  0  0  0  0  0  0  0  0  0
  -47.9536   57.5775   59.8534 C   0  0  0  0  0  0  0  0  0  0  0  0
  -47.4707   58.2186   58.5623 C   0  0  0  0  0  0  0  0  0  0  0  0
  -47.4749   57.0967   56.3001 C   0  0  0  0  0  0  0  0  0  0  0  0
  -46.7616   57.2673   57.6156 C   0  0  0  0  0  0  0  0  0  0  0  0
 43 45  1  0  0  0
 43 42  1  0  0  0
 43 46  1  0  0  0
 64 65  1  0  0  0
 44 45  2  0  0  0
 65 63  1  0  0  0
  2  1  1  0  0  0
  2  4  1  0  0  0
  2  5  1  0  0  0
  3  4  2  0  0  0
 63 62  1  0  0  0
  6  8  1  0  0  0
  6 11  2  0  0  0
  7 10  1  0  0  0
  7 11  1  0  0  0
 62 61  1  0  0  0
 26 28  1  0  0  0
 26 32  1  0  0  0
 26 29  1  0  0  0
 12 18  1  0  0  0
 12 19  1  0  0  0
 61 60  1  0  0  0
 30 36  1  0  0  0
 30 37  1  0  0  0
 30 38  1  0  0  0
 20 21  2  0  0  0
 60 59  1  0  0  0
 22 21  1  0  0  0
 22 23  1  0  0  0
 59 58  1  0  0  0
 27 28  2  0  0  0
 58 57  1  0  0  0
 31 37  2  0  0  0
 57 56  1  0  0  0
 56 55  1  0  0  0
 55 54  1  0  0  0
 54 53  1  0  0  0
 53 52  1  0  0  0
 52 51  1  0  0  0
 51 50  1  0  0  0
 50 49  1  0  0  0
 49 47  1  0  0  0
 47 48  2  0  0  0
 48 45  1  0  0  0
 42 41  1  0  0  0
 41 40  1  0  0  0
 40 39  1  0  0  0
 39  1  1  0  0  0
  1 21  1  0  0  0
  8  4  1  0  0  0
  8  9  1  0  0  0
  8 10  1  0  0  0
 11 13  1  0  0  0
 13 14  2  0  0  0
 13 18  1  0  0  0
 14 15  1  0  0  0
 15 16  2  0  0  0
 16 17  1  0  0  0
 17 18  2  0  0  0
 23 24  1  0  0  0
 23 25  1  0  0  0
 25 28  1  0  0  0
 32 33  1  0  0  0
 32 37  1  0  0  0
 33 34  1  0  0  0
 34 35  1  0  0  0
 35 36  1  0  0  0
M  END
> <minimizedAffinity>
-9.57001

> <CNNscore>
0.3230201602

> <CNNaffinity>
7.3934607506

> <CNN_VS>
2.3882367611

> <CNNaffinity_variance>
0.5130890608

$$$$
/media/chris/experiments/cd1a-new-docking/inputs/ligands/7ryo_ligand.pdb


 65 67  0  0  0  0  0  0  0  0999 V2000
  -35.2839   58.8447   62.5537 C   0  0  0  0  0  0  0  0  0  0  0  0
  -33.8701   59.1427   62.3956 N   0  0  0  0  0  0  0  0  0  0  0  0
  -33.3149   57.0024   61.9896 O   0  0  0  0  0  0  0  0  0  0  0  0
  -32.9931   58.1738   62.1217 C   0  0  0  0  0  0  0  0  0  0  0  0
  -33.5552   60.0704   62.4917 H   0  0  0  0  0  0  0  0  0  0  0  0
  -31.4059   59.9549   61.5048 N   0  0  0  0  0  0  0  0  0  0  0  0
  -30.1193   59.8919   63.3552 O   0  0  0  0  0  0  0  0  0  0  0  0
  -31.5130   58.5703   61.9936 C   0  0  0  0  0  0  0  0  0  0  0  0
  -30.8366   57.6368   60.9944 C   0  0  0  0  0  0  0  0  0  0  0  0
  -30.7711   58.5965   63.3381 C   0  0  0  0  0  0  0  0  0  0  0  0
  -30.6416   60.5763   62.3043 C   0  0  0  0  0  0  0  0  0  0  0  0
  -30.1487   61.8814   59.7868 O   0  0  0  0  0  0  0  0  0  0  0  0
  -30.2499   61.9844   62.2064 C   0  0  0  0  0  0  0  0  0  0  0  0
  -30.2415   62.7901   63.3457 C   0  0  0  0  0  0  0  0  0  0  0  0
  -30.1133   64.1638   63.2334 C   0  0  0  0  0  0  0  0  0  0  0  0
  -29.9920   64.7543   61.9944 C   0  0  0  0  0  0  0  0  0  0  0  0
  -30.0021   63.9788   60.8494 C   0  0  0  0  0  0  0  0  0  0  0  0
  -30.1321   62.5966   60.9416 C   0  0  0  0  0  0  0  0  0  0  0  0
  -30.2349   60.9487   59.8146 H   0  0  0  0  0  0  0  0  0  0  0  0
  -35.0270   57.7186   64.6765 O   0  0  0  0  0  0  0  0  0  0  0  0
  -35.6187   58.5142   64.0004 C   0  0  0  0  0  0  0  0  0  0  0  0
  -36.6847   59.2228   64.4116 O   0  0  0  0  0  0  0  0  0  0  0  0
  -37.4409   58.7275   65.5660 C   0  0  0  0  0  0  0  0  0  0  0  0
  -38.6314   57.9591   65.0504 C   0  0  0  0  0  0  0  0  0  0  0  0
  -37.8455   59.9619   66.3481 C   0  0  0  0  0  0  0  0  0  0  0  0
  -35.6670   61.0090   66.3426 N   0  0  0  0  0  0  0  0  0  0  0  0
  -37.4250   62.1925   65.5872 O   0  0  0  0  0  0  0  0  0  0  0  0
  -36.9646   61.1573   66.0604 C   0  0  0  0  0  0  0  0  0  0  0  0
  -35.3545   60.1556   66.7210 H   0  0  0  0  0  0  0  0  0  0  0  0
  -33.7630   63.8874   67.4304 N   0  0  0  0  0  0  0  0  0  0  0  0
  -35.7796   63.0823   67.9926 O   0  0  0  0  0  0  0  0  0  0  0  0
  -34.7044   62.0709   66.1069 C   0  0  0  0  0  0  0  0  0  0  0  0
  -35.0233   62.7884   64.7904 C   0  0  0  0  0  0  0  0  0  0  0  0
  -33.8521   63.5888   64.2314 C   0  0  0  0  0  0  0  0  0  0  0  0
  -33.3549   64.7176   65.1125 C   0  0  0  0  0  0  0  0  0  0  0  0
  -32.7675   64.2619   66.4318 C   0  0  0  0  0  0  0  0  0  0  0  0
  -34.7954   63.0587   67.2592 C   0  0  0  0  0  0  0  0  0  0  0  0
  -33.6629   64.2878   68.3242 H   0  0  0  0  0  0  0  0  0  0  0  0
  -35.7211   57.7151   61.6199 C   0  0  0  0  0  0  0  0  0  0  0  0
  -37.2384   57.5992   61.5201 C   0  0  0  0  0  0  0  0  0  0  0  0
  -37.8589   58.6462   60.6139 C   0  0  0  0  0  0  0  0  0  0  0  0
  -38.2547   59.9305   61.3090 C   0  0  0  0  0  0  0  0  0  0  0  0
  -39.6935   59.9926   61.5112 N   0  0  0  0  0  0  0  0  0  0  0  0
  -39.5367   60.8584   63.5896 O   0  0  0  0  0  0  0  0  0  0  0  0
  -40.2336   60.4550   62.6441 C   0  0  0  0  0  0  0  0  0  0  0  0
  -40.2895   59.6841   60.7909 H   0  0  0  0  0  0  0  0  0  0  0  0
  -42.3992   59.9250   63.7406 C   0  0  0  0  0  0  0  0  0  0  0  0
  -41.7100   60.3678   62.6978 C   0  0  0  0  0  0  0  0  0  0  0  0
  -41.8669   59.4492   65.0563 C   0  0  0  0  0  0  0  0  0  0  0  0
  -42.3045   58.0213   65.3587 C   0  0  0  0  0  0  0  0  0  0  0  0
  -43.0211   57.3418   64.2047 C   0  0  0  0  0  0  0  0  0  0  0  0
  -44.5068   57.1351   64.4485 C   0  0  0  0  0  0  0  0  0  0  0  0
  -44.9596   57.4535   65.8609 C   0  0  0  0  0  0  0  0  0  0  0  0
  -45.9882   58.5702   65.9295 C   0  0  0  0  0  0  0  0  0  0  0  0
  -47.2182   58.3134   65.0811 C   0  0  0  0  0  0  0  0  0  0  0  0
  -47.6293   59.5132   64.2514 C   0  0  0  0  0  0  0  0  0  0  0  0
  -49.1248   59.7613   64.2085 C   0  0  0  0  0  0  0  0  0  0  0  0
  -49.6544   59.9043   62.7951 C   0  0  0  0  0  0  0  0  0  0  0  0
  -49.5212   58.6324   61.9738 C   0  0  0  0  0  0  0  0  0  0  0  0
  -49.1078   58.8648   60.5310 C   0  0  0  0  0  0  0  0  0  0  0  0
  -48.7916   57.5928   59.7596 C   0  0  0  0  0  0  0  0  0  0  0  0
  -47.3775   57.5475   59.1968 C   0  0  0  0  0  0  0  0  0  0  0  0
  -47.2658   58.1247   57.7949 C   0  0  0  0  0  0  0  0  0  0  0  0
  -46.8750   55.8561   56.7569 C   0  0  0  0  0  0  0  0  0  0  0  0
  -47.6329   57.1558   56.6856 C   0  0  0  0  0  0  0  0  0  0  0  0
 43 45  1  0  0  0
 43 42  1  0  0  0
 43 46  1  0  0  0
 64 65  1  0  0  0
 44 45  2  0  0  0
 65 63  1  0  0  0
  2  1  1  0  0  0
  2  4  1  0  0  0
  2  5  1  0  0  0
  3  4  2  0  0  0
 63 62  1  0  0  0
  6  8  1  0  0  0
  6 11  2  0  0  0
  7 10  1  0  0  0
  7 11  1  0  0  0
 62 61  1  0  0  0
 26 28  1  0  0  0
 26 32  1  0  0  0
 26 29  1  0  0  0
 12 18  1  0  0  0
 12 19  1  0  0  0
 61 60  1  0  0  0
 30 36  1  0  0  0
 30 37  1  0  0  0
 30 38  1  0  0  0
 20 21  2  0  0  0
 60 59  1  0  0  0
 22 21  1  0  0  0
 22 23  1  0  0  0
 59 58  1  0  0  0
 27 28  2  0  0  0
 58 57  1  0  0  0
 31 37  2  0  0  0
 57 56  1  0  0  0
 56 55  1  0  0  0
 55 54  1  0  0  0
 54 53  1  0  0  0
 53 52  1  0  0  0
 52 51  1  0  0  0
 51 50  1  0  0  0
 50 49  1  0  0  0
 49 47  1  0  0  0
 47 48  2  0  0  0
 48 45  1  0  0  0
 42 41  1  0  0  0
 41 40  1  0  0  0
 40 39  1  0  0  0
 39  1  1  0  0  0
  1 21  1  0  0  0
  8  4  1  0  0  0
  8  9  1  0  0  0
  8 10  1  0  0  0
 11 13  1  0  0  0
 13 14  2  0  0  0
 13 18  1  0  0  0
 14 15  1  0  0  0
 15 16  2  0  0  0
 16 17  1  0  0  0
 17 18  2  0  0  0
 23 24  1  0  0  0
 23 25  1  0  0  0
 25 28  1  0  0  0
 32 33  1  0  0  0
 32 37  1  0  0  0
 33 34  1  0  0  0
 34 35  1  0  0  0
 35 36  1  0  0  0
M  END
> <minimizedAffinity>
-9.57989

> <CNNscore>
0.2861599624

> <CNNaffinity>
7.6132049561

> <CNN_VS>
2.1785943508

> <CNNaffinity_variance>
1.1707626581

$$$$
/media/chris/experiments/cd1a-new-docking/inputs/ligands/7ryo_ligand.pdb


 65 67  0  0  0  0  0  0  0  0999 V2000
  -38.5500   60.6893   64.6470 C   0  0  0  0  0  0  0  0  0  0  0  0
  -37.8311   59.6593   63.9157 N   0  0  0  0  0  0  0  0  0  0  0  0
  -37.5823   60.9317   62.0791 O   0  0  0  0  0  0  0  0  0  0  0  0
  -37.4022   59.8774   62.6702 C   0  0  0  0  0  0  0  0  0  0  0  0
  -37.6582   58.7900   64.3440 H   0  0  0  0  0  0  0  0  0  0  0  0
  -35.2550   59.0801   61.7615 N   0  0  0  0  0  0  0  0  0  0  0  0
  -35.2153   57.0594   62.7607 O   0  0  0  0  0  0  0  0  0  0  0  0
  -36.6707   58.7273   61.9587 C   0  0  0  0  0  0  0  0  0  0  0  0
  -37.3196   58.4966   60.5974 C   0  0  0  0  0  0  0  0  0  0  0  0
  -36.6157   57.4355   62.7876 C   0  0  0  0  0  0  0  0  0  0  0  0
  -34.5624   58.1243   62.2265 C   0  0  0  0  0  0  0  0  0  0  0  0
  -33.0119   58.4703   64.6265 O   0  0  0  0  0  0  0  0  0  0  0  0
  -33.0998   58.0447   62.2419 C   0  0  0  0  0  0  0  0  0  0  0  0
  -32.4076   57.6502   61.0963 C   0  0  0  0  0  0  0  0  0  0  0  0
  -31.0609   57.3367   61.1626 C   0  0  0  0  0  0  0  0  0  0  0  0
  -30.3856   57.4102   62.3615 C   0  0  0  0  0  0  0  0  0  0  0  0
  -31.0495   57.7940   63.5123 C   0  0  0  0  0  0  0  0  0  0  0  0
  -32.4035   58.1111   63.4663 C   0  0  0  0  0  0  0  0  0  0  0  0
  -33.9228   58.6899   64.6294 H   0  0  0  0  0  0  0  0  0  0  0  0
  -37.9731   60.3397   66.9677 O   0  0  0  0  0  0  0  0  0  0  0  0
  -37.8697   61.0010   65.9716 C   0  0  0  0  0  0  0  0  0  0  0  0
  -37.1516   62.1337   65.8779 O   0  0  0  0  0  0  0  0  0  0  0  0
  -35.8596   62.0782   65.1869 C   0  0  0  0  0  0  0  0  0  0  0  0
  -34.9240   61.2312   66.0120 C   0  0  0  0  0  0  0  0  0  0  0  0
  -35.3927   63.5168   65.0797 C   0  0  0  0  0  0  0  0  0  0  0  0
  -33.7889   62.9693   63.3563 N   0  0  0  0  0  0  0  0  0  0  0  0
  -33.1445   64.3374   65.0222 O   0  0  0  0  0  0  0  0  0  0  0  0
  -34.0064   63.6444   64.4887 C   0  0  0  0  0  0  0  0  0  0  0  0
  -34.5179   62.4293   62.9741 H   0  0  0  0  0  0  0  0  0  0  0  0
  -31.5207   64.3718   60.9106 N   0  0  0  0  0  0  0  0  0  0  0  0
  -33.7539   64.1822   60.9981 O   0  0  0  0  0  0  0  0  0  0  0  0
  -32.5077   63.0093   62.6732 C   0  0  0  0  0  0  0  0  0  0  0  0
  -32.1033   61.5991   62.2290 C   0  0  0  0  0  0  0  0  0  0  0  0
  -30.6164   61.4580   61.9219 C   0  0  0  0  0  0  0  0  0  0  0  0
  -30.1001   62.3233   60.7895 C   0  0  0  0  0  0  0  0  0  0  0  0
  -30.1819   63.8113   61.0591 C   0  0  0  0  0  0  0  0  0  0  0  0
  -32.6478   63.9060   61.4532 C   0  0  0  0  0  0  0  0  0  0  0  0
  -31.6013   65.1781   60.3514 H   0  0  0  0  0  0  0  0  0  0  0  0
  -40.0129   60.2986   64.8629 C   0  0  0  0  0  0  0  0  0  0  0  0
  -40.9794   61.3242   64.2803 C   0  0  0  0  0  0  0  0  0  0  0  0
  -41.6109   60.8758   62.9754 C   0  0  0  0  0  0  0  0  0  0  0  0
  -41.0319   59.6034   62.3964 C   0  0  0  0  0  0  0  0  0  0  0  0
  -41.8059   58.4431   62.8081 N   0  0  0  0  0  0  0  0  0  0  0  0
  -39.9960   57.2313   63.3992 O   0  0  0  0  0  0  0  0  0  0  0  0
  -41.2281   57.3342   63.2827 C   0  0  0  0  0  0  0  0  0  0  0  0
  -42.7872   58.4749   62.7351 H   0  0  0  0  0  0  0  0  0  0  0  0
  -42.9929   56.2009   64.6147 C   0  0  0  0  0  0  0  0  0  0  0  0
  -42.1703   56.2309   63.5750 C   0  0  0  0  0  0  0  0  0  0  0  0
  -43.1655   57.2406   65.6776 C   0  0  0  0  0  0  0  0  0  0  0  0
  -44.4678   58.0127   65.5053 C   0  0  0  0  0  0  0  0  0  0  0  0
  -45.5538   57.6111   66.4883 C   0  0  0  0  0  0  0  0  0  0  0  0
  -46.9318   57.4950   65.8582 C   0  0  0  0  0  0  0  0  0  0  0  0
  -47.1759   58.4511   64.7059 C   0  0  0  0  0  0  0  0  0  0  0  0
  -48.0125   59.6605   65.0898 C   0  0  0  0  0  0  0  0  0  0  0  0
  -48.9584   59.4000   66.2457 C   0  0  0  0  0  0  0  0  0  0  0  0
  -50.4032   59.2570   65.8110 C   0  0  0  0  0  0  0  0  0  0  0  0
  -50.9190   60.4059   64.9660 C   0  0  0  0  0  0  0  0  0  0  0  0
  -51.6118   59.9378   63.7014 C   0  0  0  0  0  0  0  0  0  0  0  0
  -50.6544   59.7086   62.5434 C   0  0  0  0  0  0  0  0  0  0  0  0
  -50.2233   58.2626   62.3704 C   0  0  0  0  0  0  0  0  0  0  0  0
  -50.4597   57.7033   60.9760 C   0  0  0  0  0  0  0  0  0  0  0  0
  -49.6643   58.4075   59.8853 C   0  0  0  0  0  0  0  0  0  0  0  0
  -48.8914   57.4536   58.9888 C   0  0  0  0  0  0  0  0  0  0  0  0
  -46.7507   58.2798   57.9347 C   0  0  0  0  0  0  0  0  0  0  0  0
  -47.3822   57.5685   59.1026 C   0  0  0  0  0  0  0  0  0  0  0  0
 43 45  1  0  0  0
 43 42  1  0  0  0
 43 46  1  0  0  0
 64 65  1  0  0  0
 44 45  2  0  0  0
 65 63  1  0  0  0
  2  1  1  0  0  0
  2  4  1  0  0  0
  2  5  1  0  0  0
  3  4  2  0  0  0
 63 62  1  0  0  0
  6  8  1  0  0  0
  6 11  2  0  0  0
  7 10  1  0  0  0
  7 11  1  0  0  0
 62 61  1  0  0  0
 26 28  1  0  0  0
 26 32  1  0  0  0
 26 29  1  0  0  0
 12 18  1  0  0  0
 12 19  1  0  0  0
 61 60  1  0  0  0
 30 36  1  0  0  0
 30 37  1  0  0  0
 30 38  1  0  0  0
 20 21  2  0  0  0
 60 59  1  0  0  0
 22 21  1  0  0  0
 22 23  1  0  0  0
 59 58  1  0  0  0
 27 28  2  0  0  0
 58 57  1  0  0  0
 31 37  2  0  0  0
 57 56  1  0  0  0
 56 55  1  0  0  0
 55 54  1  0  0  0
 54 53  1  0  0  0
 53 52  1  0  0  0
 52 51  1  0  0  0
 51 50  1  0  0  0
 50 49  1  0  0  0
 49 47  1  0  0  0
 47 48  2  0  0  0
 48 45  1  0  0  0
 42 41  1  0  0  0
 41 40  1  0  0  0
 40 39  1  0  0  0
 39  1  1  0  0  0
  1 21  1  0  0  0
  8  4  1  0  0  0
  8  9  1  0  0  0
  8 10  1  0  0  0
 11 13  1  0  0  0
 13 14  2  0  0  0
 13 18  1  0  0  0
 14 15  1  0  0  0
 15 16  2  0  0  0
 16 17  1  0  0  0
 17 18  2  0  0  0
 23 24  1  0  0  0
 23 25  1  0  0  0
 25 28  1  0  0  0
 32 33  1  0  0  0
 32 37  1  0  0  0
 33 34  1  0  0  0
 34 35  1  0  0  0
 35 36  1  0  0  0
M  END
> <minimizedAffinity>
-10.48981

> <CNNscore>
0.2562717199

> <CNNaffinity>
7.3853821754

> <CNN_VS>
1.8926645517

> <CNNaffinity_variance>
1.2369191647

$$$$
/media/chris/experiments/cd1a-new-docking/inputs/ligands/7ryo_ligand.pdb


 65 67  0  0  0  0  0  0  0  0999 V2000
  -36.3902   61.1801   65.0702 C   0  0  0  0  0  0  0  0  0  0  0  0
  -36.6752   60.1446   64.0910 N   0  0  0  0  0  0  0  0  0  0  0  0
  -36.5745   61.5608   62.3480 O   0  0  0  0  0  0  0  0  0  0  0  0
  -36.7434   60.4339   62.7892 C   0  0  0  0  0  0  0  0  0  0  0  0
  -36.8199   59.2183   64.3912 H   0  0  0  0  0  0  0  0  0  0  0  0
  -38.0577   58.3795   62.4370 N   0  0  0  0  0  0  0  0  0  0  0  0
  -38.9244   58.8958   60.4208 O   0  0  0  0  0  0  0  0  0  0  0  0
  -37.0729   59.2849   61.8221 C   0  0  0  0  0  0  0  0  0  0  0  0
  -35.7953   58.5043   61.5291 C   0  0  0  0  0  0  0  0  0  0  0  0
  -37.7604   59.7537   60.5312 C   0  0  0  0  0  0  0  0  0  0  0  0
  -39.0075   58.2402   61.6077 C   0  0  0  0  0  0  0  0  0  0  0  0
  -41.1612   58.1724   59.6996 O   0  0  0  0  0  0  0  0  0  0  0  0
  -40.2081   57.4228   61.7983 C   0  0  0  0  0  0  0  0  0  0  0  0
  -40.2825   56.5251   62.8641 C   0  0  0  0  0  0  0  0  0  0  0  0
  -41.2934   55.5810   62.9178 C   0  0  0  0  0  0  0  0  0  0  0  0
  -42.2403   55.5151   61.9190 C   0  0  0  0  0  0  0  0  0  0  0  0
  -42.1864   56.3902   60.8495 C   0  0  0  0  0  0  0  0  0  0  0  0
  -41.1768   57.3448   60.7766 C   0  0  0  0  0  0  0  0  0  0  0  0
  -40.4945   58.8261   59.6207 H   0  0  0  0  0  0  0  0  0  0  0  0
  -34.4137   61.9369   66.2370 O   0  0  0  0  0  0  0  0  0  0  0  0
  -34.9343   61.1370   65.5095 C   0  0  0  0  0  0  0  0  0  0  0  0
  -34.3043   60.0882   64.9521 O   0  0  0  0  0  0  0  0  0  0  0  0
  -33.5574   60.3105   63.7101 C   0  0  0  0  0  0  0  0  0  0  0  0
  -32.7993   59.0475   63.3880 C   0  0  0  0  0  0  0  0  0  0  0  0
  -32.6355   61.4806   63.9930 C   0  0  0  0  0  0  0  0  0  0  0  0
  -33.4659   63.6961   63.4987 N   0  0  0  0  0  0  0  0  0  0  0  0
  -32.3944   62.5676   61.8737 O   0  0  0  0  0  0  0  0  0  0  0  0
  -32.8220   62.6261   63.0233 C   0  0  0  0  0  0  0  0  0  0  0  0
  -33.7867   63.6865   64.4294 H   0  0  0  0  0  0  0  0  0  0  0  0
  -32.8026   67.1337   62.5844 N   0  0  0  0  0  0  0  0  0  0  0  0
  -32.6909   66.0153   64.5254 O   0  0  0  0  0  0  0  0  0  0  0  0
  -33.7060   64.8728   62.6818 C   0  0  0  0  0  0  0  0  0  0  0  0
  -35.2112   65.1426   62.5764 C   0  0  0  0  0  0  0  0  0  0  0  0
  -35.5895   66.0471   61.4085 C   0  0  0  0  0  0  0  0  0  0  0  0
  -35.0040   67.4446   61.4505 C   0  0  0  0  0  0  0  0  0  0  0  0
  -33.4937   67.4875   61.3492 C   0  0  0  0  0  0  0  0  0  0  0  0
  -33.0221   66.0583   63.3442 C   0  0  0  0  0  0  0  0  0  0  0  0
  -32.1009   67.7531   62.8897 H   0  0  0  0  0  0  0  0  0  0  0  0
  -37.3274   61.0788   66.2745 C   0  0  0  0  0  0  0  0  0  0  0  0
  -38.4519   60.0732   66.0517 C   0  0  0  0  0  0  0  0  0  0  0  0
  -39.6378   60.6585   65.3077 C   0  0  0  0  0  0  0  0  0  0  0  0
  -40.9295   60.6836   66.0952 C   0  0  0  0  0  0  0  0  0  0  0  0
  -41.4589   59.3408   66.2726 N   0  0  0  0  0  0  0  0  0  0  0  0
  -42.3196   59.2200   64.1898 O   0  0  0  0  0  0  0  0  0  0  0  0
  -42.1198   58.7023   65.3008 C   0  0  0  0  0  0  0  0  0  0  0  0
  -41.3265   58.8869   67.1362 H   0  0  0  0  0  0  0  0  0  0  0  0
  -43.9011   56.9808   65.4912 C   0  0  0  0  0  0  0  0  0  0  0  0
  -42.6517   57.3776   65.6914 C   0  0  0  0  0  0  0  0  0  0  0  0
  -45.0106   57.7413   64.8344 C   0  0  0  0  0  0  0  0  0  0  0  0
  -45.9391   58.3817   65.8588 C   0  0  0  0  0  0  0  0  0  0  0  0
  -46.5561   57.3914   66.8313 C   0  0  0  0  0  0  0  0  0  0  0  0
  -47.7072   56.5950   66.2398 C   0  0  0  0  0  0  0  0  0  0  0  0
  -48.6212   57.3960   65.3318 C   0  0  0  0  0  0  0  0  0  0  0  0
  -49.7399   58.1077   66.0744 C   0  0  0  0  0  0  0  0  0  0  0  0
  -49.7144   59.6145   65.9077 C   0  0  0  0  0  0  0  0  0  0  0  0
  -50.4274   60.0864   64.6564 C   0  0  0  0  0  0  0  0  0  0  0  0
  -49.5596   60.1095   63.4129 C   0  0  0  0  0  0  0  0  0  0  0  0
  -50.3025   59.6553   62.1718 C   0  0  0  0  0  0  0  0  0  0  0  0
  -50.5069   58.1504   62.1130 C   0  0  0  0  0  0  0  0  0  0  0  0
  -50.1515   57.5269   60.7745 C   0  0  0  0  0  0  0  0  0  0  0  0
  -49.0996   58.2938   59.9881 C   0  0  0  0  0  0  0  0  0  0  0  0
  -48.0014   57.4146   59.4057 C   0  0  0  0  0  0  0  0  0  0  0  0
  -47.2060   58.0923   58.3016 C   0  0  0  0  0  0  0  0  0  0  0  0
  -46.9292   56.0056   56.9067 C   0  0  0  0  0  0  0  0  0  0  0  0
  -47.3558   57.4499   56.9345 C   0  0  0  0  0  0  0  0  0  0  0  0
 43 45  1  0  0  0
 43 42  1  0  0  0
 43 46  1  0  0  0
 64 65  1  0  0  0
 44 45  2  0  0  0
 65 63  1  0  0  0
  2  1  1  0  0  0
  2  4  1  0  0  0
  2  5  1  0  0  0
  3  4  2  0  0  0
 63 62  1  0  0  0
  6  8  1  0  0  0
  6 11  2  0  0  0
  7 10  1  0  0  0
  7 11  1  0  0  0
 62 61  1  0  0  0
 26 28  1  0  0  0
 26 32  1  0  0  0
 26 29  1  0  0  0
 12 18  1  0  0  0
 12 19  1  0  0  0
 61 60  1  0  0  0
 30 36  1  0  0  0
 30 37  1  0  0  0
 30 38  1  0  0  0
 20 21  2  0  0  0
 60 59  1  0  0  0
 22 21  1  0  0  0
 22 23  1  0  0  0
 59 58  1  0  0  0
 27 28  2  0  0  0
 58 57  1  0  0  0
 31 37  2  0  0  0
 57 56  1  0  0  0
 56 55  1  0  0  0
 55 54  1  0  0  0
 54 53  1  0  0  0
 53 52  1  0  0  0
 52 51  1  0  0  0
 51 50  1  0  0  0
 50 49  1  0  0  0
 49 47  1  0  0  0
 47 48  2  0  0  0
 48 45  1  0  0  0
 42 41  1  0  0  0
 41 40  1  0  0  0
 40 39  1  0  0  0
 39  1  1  0  0  0
  1 21  1  0  0  0
  8  4  1  0  0  0
  8  9  1  0  0  0
  8 10  1  0  0  0
 11 13  1  0  0  0
 13 14  2  0  0  0
 13 18  1  0  0  0
 14 15  1  0  0  0
 15 16  2  0  0  0
 16 17  1  0  0  0
 17 18  2  0  0  0
 23 24  1  0  0  0
 23 25  1  0  0  0
 25 28  1  0  0  0
 32 33  1  0  0  0
 32 37  1  0  0  0
 33 34  1  0  0  0
 34 35  1  0  0  0
 35 36  1  0  0  0
M  END
> <minimizedAffinity>
-9.68977

> <CNNscore>
0.2495443225

> <CNNaffinity>
7.5622434616

> <CNN_VS>
1.8871148825

> <CNNaffinity_variance>
0.9724287987

$$$$
/media/chris/experiments/cd1a-new-docking/inputs/ligands/7ryo_ligand.pdb


 65 67  0  0  0  0  0  0  0  0999 V2000
  -38.9438   59.5543   64.7250 C   0  0  0  0  0  0  0  0  0  0  0  0
  -37.8309   58.8517   64.1083 N   0  0  0  0  0  0  0  0  0  0  0  0
  -37.5810   60.3782   62.4770 O   0  0  0  0  0  0  0  0  0  0  0  0
  -37.2361   59.3371   63.0158 C   0  0  0  0  0  0  0  0  0  0  0  0
  -37.5115   58.0074   64.5010 H   0  0  0  0  0  0  0  0  0  0  0  0
  -34.9552   59.4102   62.0865 N   0  0  0  0  0  0  0  0  0  0  0  0
  -34.0503   57.7610   63.3293 O   0  0  0  0  0  0  0  0  0  0  0  0
  -36.0817   58.5201   62.4126 C   0  0  0  0  0  0  0  0  0  0  0  0
  -36.5692   57.8464   61.1336 C   0  0  0  0  0  0  0  0  0  0  0  0
  -35.4763   57.5052   63.3936 C   0  0  0  0  0  0  0  0  0  0  0  0
  -33.9188   58.9157   62.6258 C   0  0  0  0  0  0  0  0  0  0  0  0
  -33.3930   61.7454   62.6414 O   0  0  0  0  0  0  0  0  0  0  0  0
  -32.5640   59.4691   62.5620 C   0  0  0  0  0  0  0  0  0  0  0  0
  -31.4572   58.6224   62.6362 C   0  0  0  0  0  0  0  0  0  0  0  0
  -30.1874   59.1413   62.8222 C   0  0  0  0  0  0  0  0  0  0  0  0
  -29.9993   60.5015   62.9364 C   0  0  0  0  0  0  0  0  0  0  0  0
  -31.0800   61.3619   62.8709 C   0  0  0  0  0  0  0  0  0  0  0  0
  -32.3642   60.8594   62.6865 C   0  0  0  0  0  0  0  0  0  0  0  0
  -34.2700   61.4392   62.5183 H   0  0  0  0  0  0  0  0  0  0  0  0
  -39.1124   61.4273   66.2428 O   0  0  0  0  0  0  0  0  0  0  0  0
  -38.4589   60.5301   65.7866 C   0  0  0  0  0  0  0  0  0  0  0  0
  -37.1869   60.2611   66.1287 O   0  0  0  0  0  0  0  0  0  0  0  0
  -36.1450   61.2064   65.7158 C   0  0  0  0  0  0  0  0  0  0  0  0
  -34.8481   60.4476   65.5901 C   0  0  0  0  0  0  0  0  0  0  0  0
  -36.0943   62.2588   66.8063 C   0  0  0  0  0  0  0  0  0  0  0  0
  -34.8167   63.6804   65.3268 N   0  0  0  0  0  0  0  0  0  0  0  0
  -34.3377   63.7180   67.5248 O   0  0  0  0  0  0  0  0  0  0  0  0
  -35.0016   63.2815   66.5886 C   0  0  0  0  0  0  0  0  0  0  0  0
  -35.3792   63.2955   64.6165 H   0  0  0  0  0  0  0  0  0  0  0  0
  -33.4825   66.2330   63.1365 N   0  0  0  0  0  0  0  0  0  0  0  0
  -34.7240   64.4001   62.7759 O   0  0  0  0  0  0  0  0  0  0  0  0
  -33.8098   64.6657   64.9733 C   0  0  0  0  0  0  0  0  0  0  0  0
  -32.4087   64.0584   65.1073 C   0  0  0  0  0  0  0  0  0  0  0  0
  -31.2984   65.0990   65.2039 C   0  0  0  0  0  0  0  0  0  0  0  0
  -31.1519   66.0091   64.0006 C   0  0  0  0  0  0  0  0  0  0  0  0
  -32.3456   66.9076   63.7536 C   0  0  0  0  0  0  0  0  0  0  0  0
  -34.0448   65.0887   63.5318 C   0  0  0  0  0  0  0  0  0  0  0  0
  -33.8762   66.6672   62.3455 H   0  0  0  0  0  0  0  0  0  0  0  0
  -39.9640   58.5753   65.3080 C   0  0  0  0  0  0  0  0  0  0  0  0
  -41.3592   59.1825   65.4084 C   0  0  0  0  0  0  0  0  0  0  0  0
  -42.1884   58.5910   66.5332 C   0  0  0  0  0  0  0  0  0  0  0  0
  -42.8771   57.2873   66.1938 C   0  0  0  0  0  0  0  0  0  0  0  0
  -44.2666   57.3037   66.6229 N   0  0  0  0  0  0  0  0  0  0  0  0
  -45.0933   57.3450   64.5233 O   0  0  0  0  0  0  0  0  0  0  0  0
  -45.2803   57.3316   65.7510 C   0  0  0  0  0  0  0  0  0  0  0  0
  -44.4675   57.2941   67.5867 H   0  0  0  0  0  0  0  0  0  0  0  0
  -47.6126   58.1730   65.9114 C   0  0  0  0  0  0  0  0  0  0  0  0
  -46.6198   57.4250   66.3734 C   0  0  0  0  0  0  0  0  0  0  0  0
  -47.6144   59.0442   64.6941 C   0  0  0  0  0  0  0  0  0  0  0  0
  -48.6332   60.1715   64.8088 C   0  0  0  0  0  0  0  0  0  0  0  0
  -49.4994   60.3438   63.5731 C   0  0  0  0  0  0  0  0  0  0  0  0
  -50.8226   59.6004   63.6493 C   0  0  0  0  0  0  0  0  0  0  0  0
  -51.0134   58.5497   62.5718 C   0  0  0  0  0  0  0  0  0  0  0  0
  -49.7130   58.1054   61.9227 C   0  0  0  0  0  0  0  0  0  0  0  0
  -49.5655   58.5658   60.4856 C   0  0  0  0  0  0  0  0  0  0  0  0
  -48.6763   57.6586   59.6590 C   0  0  0  0  0  0  0  0  0  0  0  0
  -47.7682   58.3883   58.6880 C   0  0  0  0  0  0  0  0  0  0  0  0
  -46.7023   57.4885   58.0941 C   0  0  0  0  0  0  0  0  0  0  0  0
  -45.7564   58.2192   57.1552 C   0  0  0  0  0  0  0  0  0  0  0  0
  -44.2988   58.1694   57.5791 C   0  0  0  0  0  0  0  0  0  0  0  0
  -43.3538   58.9214   56.6547 C   0  0  0  0  0  0  0  0  0  0  0  0
  -42.0104   59.2589   57.2869 C   0  0  0  0  0  0  0  0  0  0  0  0
  -41.6092   58.3046   58.4002 C   0  0  0  0  0  0  0  0  0  0  0  0
  -40.6105   58.1245   60.7125 C   0  0  0  0  0  0  0  0  0  0  0  0
  -40.6516   58.8953   59.4191 C   0  0  0  0  0  0  0  0  0  0  0  0
 43 45  1  0  0  0
 43 42  1  0  0  0
 43 46  1  0  0  0
 64 65  1  0  0  0
 44 45  2  0  0  0
 65 63  1  0  0  0
  2  1  1  0  0  0
  2  4  1  0  0  0
  2  5  1  0  0  0
  3  4  2  0  0  0
 63 62  1  0  0  0
  6  8  1  0  0  0
  6 11  2  0  0  0
  7 10  1  0  0  0
  7 11  1  0  0  0
 62 61  1  0  0  0
 26 28  1  0  0  0
 26 32  1  0  0  0
 26 29  1  0  0  0
 12 18  1  0  0  0
 12 19  1  0  0  0
 61 60  1  0  0  0
 30 36  1  0  0  0
 30 37  1  0  0  0
 30 38  1  0  0  0
 20 21  2  0  0  0
 60 59  1  0  0  0
 22 21  1  0  0  0
 22 23  1  0  0  0
 59 58  1  0  0  0
 27 28  2  0  0  0
 58 57  1  0  0  0
 31 37  2  0  0  0
 57 56  1  0  0  0
 56 55  1  0  0  0
 55 54  1  0  0  0
 54 53  1  0  0  0
 53 52  1  0  0  0
 52 51  1  0  0  0
 51 50  1  0  0  0
 50 49  1  0  0  0
 49 47  1  0  0  0
 47 48  2  0  0  0
 48 45  1  0  0  0
 42 41  1  0  0  0
 41 40  1  0  0  0
 40 39  1  0  0  0
 39  1  1  0  0  0
  1 21  1  0  0  0
  8  4  1  0  0  0
  8  9  1  0  0  0
  8 10  1  0  0  0
 11 13  1  0  0  0
 13 14  2  0  0  0
 13 18  1  0  0  0
 14 15  1  0  0  0
 15 16  2  0  0  0
 16 17  1  0  0  0
 17 18  2  0  0  0
 23 24  1  0  0  0
 23 25  1  0  0  0
 25 28  1  0  0  0
 32 33  1  0  0  0
 32 37  1  0  0  0
 33 34  1  0  0  0
 34 35  1  0  0  0
 35 36  1  0  0  0
M  END
> <minimizedAffinity>
-8.65874

> <CNNscore>
0.2352965623

> <CNNaffinity>
7.1526136398

> <CNN_VS>
1.6829854250

> <CNNaffinity_variance>
1.1143424511

$$$$
/media/chris/experiments/cd1a-new-docking/inputs/ligands/7ryo_ligand.pdb


 65 67  0  0  0  0  0  0  0  0999 V2000
  -40.6985   57.9427   62.7328 C   0  0  0  0  0  0  0  0  0  0  0  0
  -39.7190   58.1067   63.7940 N   0  0  0  0  0  0  0  0  0  0  0  0
  -39.7586   60.3517   63.6830 O   0  0  0  0  0  0  0  0  0  0  0  0
  -39.3282   59.3229   64.1827 C   0  0  0  0  0  0  0  0  0  0  0  0
  -39.3389   57.3111   64.2318 H   0  0  0  0  0  0  0  0  0  0  0  0
  -37.1681   60.2870   64.8729 N   0  0  0  0  0  0  0  0  0  0  0  0
  -37.7995   61.0768   66.8880 O   0  0  0  0  0  0  0  0  0  0  0  0
  -38.2708   59.4078   65.2957 C   0  0  0  0  0  0  0  0  0  0  0  0
  -37.7188   58.0103   65.5599 C   0  0  0  0  0  0  0  0  0  0  0  0
  -38.7923   60.0649   66.5822 C   0  0  0  0  0  0  0  0  0  0  0  0
  -36.9990   61.1444   65.7925 C   0  0  0  0  0  0  0  0  0  0  0  0
  -36.2014   62.5098   68.1974 O   0  0  0  0  0  0  0  0  0  0  0  0
  -36.0042   62.2196   65.7990 C   0  0  0  0  0  0  0  0  0  0  0  0
  -35.2946   62.5246   64.6368 C   0  0  0  0  0  0  0  0  0  0  0  0
  -34.1922   63.3603   64.6860 C   0  0  0  0  0  0  0  0  0  0  0  0
  -33.7806   63.9025   65.8840 C   0  0  0  0  0  0  0  0  0  0  0  0
  -34.4637   63.6124   67.0510 C   0  0  0  0  0  0  0  0  0  0  0  0
  -35.5729   62.7730   67.0222 C   0  0  0  0  0  0  0  0  0  0  0  0
  -36.9514   61.9483   68.2120 H   0  0  0  0  0  0  0  0  0  0  0  0
  -40.7451   59.3746   60.7865 O   0  0  0  0  0  0  0  0  0  0  0  0
  -40.1901   58.5198   61.4201 C   0  0  0  0  0  0  0  0  0  0  0  0
  -39.0413   57.9237   61.0564 O   0  0  0  0  0  0  0  0  0  0  0  0
  -37.8090   58.7174   61.0920 C   0  0  0  0  0  0  0  0  0  0  0  0
  -37.5438   59.2320   59.6998 C   0  0  0  0  0  0  0  0  0  0  0  0
  -36.7275   57.7694   61.5725 C   0  0  0  0  0  0  0  0  0  0  0  0
  -34.3150   57.8705   61.6800 N   0  0  0  0  0  0  0  0  0  0  0  0
  -35.4978   59.5637   62.5722 O   0  0  0  0  0  0  0  0  0  0  0  0
  -35.4612   58.4828   61.9908 C   0  0  0  0  0  0  0  0  0  0  0  0
  -34.3469   57.0044   61.2131 H   0  0  0  0  0  0  0  0  0  0  0  0
  -31.1201   59.2877   60.7432 N   0  0  0  0  0  0  0  0  0  0  0  0
  -32.4653   57.7721   59.7819 O   0  0  0  0  0  0  0  0  0  0  0  0
  -33.0232   58.4463   62.0111 C   0  0  0  0  0  0  0  0  0  0  0  0
  -32.3249   57.5951   63.0776 C   0  0  0  0  0  0  0  0  0  0  0  0
  -31.2071   58.3295   63.8099 C   0  0  0  0  0  0  0  0  0  0  0  0
  -30.0516   58.7883   62.9427 C   0  0  0  0  0  0  0  0  0  0  0  0
  -30.4276   59.8282   61.9080 C   0  0  0  0  0  0  0  0  0  0  0  0
  -32.1773   58.4729   60.7478 C   0  0  0  0  0  0  0  0  0  0  0  0
  -30.7709   59.5516   59.8613 H   0  0  0  0  0  0  0  0  0  0  0  0
  -42.0430   58.5620   63.1175 C   0  0  0  0  0  0  0  0  0  0  0  0
  -42.8571   57.6570   64.0360 C   0  0  0  0  0  0  0  0  0  0  0  0
  -43.1884   58.3019   65.3690 C   0  0  0  0  0  0  0  0  0  0  0  0
  -43.9242   57.4051   66.3405 C   0  0  0  0  0  0  0  0  0  0  0  0
  -45.2582   57.0913   65.8535 N   0  0  0  0  0  0  0  0  0  0  0  0
  -46.2776   57.6177   67.7971 O   0  0  0  0  0  0  0  0  0  0  0  0
  -46.3450   57.2212   66.6220 C   0  0  0  0  0  0  0  0  0  0  0  0
  -45.3646   56.7729   64.9280 H   0  0  0  0  0  0  0  0  0  0  0  0
  -48.6875   57.5337   65.8552 C   0  0  0  0  0  0  0  0  0  0  0  0
  -47.6037   56.7800   65.9807 C   0  0  0  0  0  0  0  0  0  0  0  0
  -48.8745   58.9516   66.2972 C   0  0  0  0  0  0  0  0  0  0  0  0
  -50.3097   59.4213   66.0936 C   0  0  0  0  0  0  0  0  0  0  0  0
  -50.4330   60.6539   65.2147 C   0  0  0  0  0  0  0  0  0  0  0  0
  -51.3353   60.4530   64.0085 C   0  0  0  0  0  0  0  0  0  0  0  0
  -51.3445   59.0377   63.4624 C   0  0  0  0  0  0  0  0  0  0  0  0
  -50.0728   58.6683   62.7168 C   0  0  0  0  0  0  0  0  0  0  0  0
  -49.3947   59.8511   62.0534 C   0  0  0  0  0  0  0  0  0  0  0  0
  -49.3683   59.7502   60.5414 C   0  0  0  0  0  0  0  0  0  0  0  0
  -50.3114   58.7106   59.9672 C   0  0  0  0  0  0  0  0  0  0  0  0
  -49.5928   57.6572   59.1472 C   0  0  0  0  0  0  0  0  0  0  0  0
  -48.5691   56.8697   59.9483 C   0  0  0  0  0  0  0  0  0  0  0  0
  -48.2433   55.5042   59.3686 C   0  0  0  0  0  0  0  0  0  0  0  0
  -47.0366   55.4906   58.4431 C   0  0  0  0  0  0  0  0  0  0  0  0
  -47.3932   55.5224   56.9632 C   0  0  0  0  0  0  0  0  0  0  0  0
  -47.2006   56.8881   56.3239 C   0  0  0  0  0  0  0  0  0  0  0  0
  -46.6782   58.9068   57.7481 C   0  0  0  0  0  0  0  0  0  0  0  0
  -46.1249   57.7396   56.9734 C   0  0  0  0  0  0  0  0  0  0  0  0
 43 45  1  0  0  0
 43 42  1  0  0  0
 43 46  1  0  0  0
 64 65  1  0  0  0
 44 45  2  0  0  0
 65 63  1  0  0  0
  2  1  1  0  0  0
  2  4  1  0  0  0
  2  5  1  0  0  0
  3  4  2  0  0  0
 63 62  1  0  0  0
  6  8  1  0  0  0
  6 11  2  0  0  0
  7 10  1  0  0  0
  7 11  1  0  0  0
 62 61  1  0  0  0
 26 28  1  0  0  0
 26 32  1  0  0  0
 26 29  1  0  0  0
 12 18  1  0  0  0
 12 19  1  0  0  0
 61 60  1  0  0  0
 30 36  1  0  0  0
 30 37  1  0  0  0
 30 38  1  0  0  0
 20 21  2  0  0  0
 60 59  1  0  0  0
 22 21  1  0  0  0
 22 23  1  0  0  0
 59 58  1  0  0  0
 27 28  2  0  0  0
 58 57  1  0  0  0
 31 37  2  0  0  0
 57 56  1  0  0  0
 56 55  1  0  0  0
 55 54  1  0  0  0
 54 53  1  0  0  0
 53 52  1  0  0  0
 52 51  1  0  0  0
 51 50  1  0  0  0
 50 49  1  0  0  0
 49 47  1  0  0  0
 47 48  2  0  0  0
 48 45  1  0  0  0
 42 41  1  0  0  0
 41 40  1  0  0  0
 40 39  1  0  0  0
 39  1  1  0  0  0
  1 21  1  0  0  0
  8  4  1  0  0  0
  8  9  1  0  0  0
  8 10  1  0  0  0
 11 13  1  0  0  0
 13 14  2  0  0  0
 13 18  1  0  0  0
 14 15  1  0  0  0
 15 16  2  0  0  0
 16 17  1  0  0  0
 17 18  2  0  0  0
 23 24  1  0  0  0
 23 25  1  0  0  0
 25 28  1  0  0  0
 32 33  1  0  0  0
 32 37  1  0  0  0
 33 34  1  0  0  0
 34 35  1  0  0  0
 35 36  1  0  0  0
M  END
> <minimizedAffinity>
-10.91310

> <CNNscore>
0.2286782116

> <CNNaffinity>
7.5383329391

> <CNN_VS>
1.7238525152

> <CNNaffinity_variance>
1.1873363256

$$$$
