/media/chris/experiments/cd1a-new-docking/inputs/ligands/7ryo_ligand.pdb


 65 67  0  0  0  0  0  0  0  0999 V2000
  -36.5869   57.9756   61.6248 C   0  0  0  0  0  0  0  0  0  0  0  0
  -36.9956   58.7438   62.7890 N   0  0  0  0  0  0  0  0  0  0  0  0
  -38.5307   57.2315   63.4296 O   0  0  0  0  0  0  0  0  0  0  0  0
  -37.9516   58.2932   63.6050 C   0  0  0  0  0  0  0  0  0  0  0  0
  -36.5619   59.6071   62.9784 H   0  0  0  0  0  0  0  0  0  0  0  0
  -37.1373   59.5425   65.5667 N   0  0  0  0  0  0  0  0  0  0  0  0
  -38.1768   61.5000   65.1535 O   0  0  0  0  0  0  0  0  0  0  0  0
  -38.3407   59.1781   64.8007 C   0  0  0  0  0  0  0  0  0  0  0  0
  -39.2880   58.3963   65.7058 C   0  0  0  0  0  0  0  0  0  0  0  0
  -38.9378   60.5315   64.3880 C   0  0  0  0  0  0  0  0  0  0  0  0
  -37.1442   60.8043   65.6972 C   0  0  0  0  0  0  0  0  0  0  0  0
  -34.3353   60.1823   65.6159 O   0  0  0  0  0  0  0  0  0  0  0  0
  -36.1358   61.6064   66.3939 C   0  0  0  0  0  0  0  0  0  0  0  0
  -36.4982   62.8026   67.0145 C   0  0  0  0  0  0  0  0  0  0  0  0
  -35.5287   63.6842   67.4604 C   0  0  0  0  0  0  0  0  0  0  0  0
  -34.1920   63.3922   67.2976 C   0  0  0  0  0  0  0  0  0  0  0  0
  -33.8063   62.2155   66.6816 C   0  0  0  0  0  0  0  0  0  0  0  0
  -34.7660   61.3177   66.2248 C   0  0  0  0  0  0  0  0  0  0  0  0
  -34.9563   59.5573   65.2969 H   0  0  0  0  0  0  0  0  0  0  0  0
  -34.7530   56.6572   62.4843 O   0  0  0  0  0  0  0  0  0  0  0  0
  -35.1405   57.5199   61.7456 C   0  0  0  0  0  0  0  0  0  0  0  0
  -34.3510   58.2331   60.9237 O   0  0  0  0  0  0  0  0  0  0  0  0
  -32.9205   58.3122   61.2353 C   0  0  0  0  0  0  0  0  0  0  0  0
  -32.3266   56.9376   61.0583 C   0  0  0  0  0  0  0  0  0  0  0  0
  -32.8424   58.7939   62.6710 C   0  0  0  0  0  0  0  0  0  0  0  0
  -33.1720   61.1729   62.9435 N   0  0  0  0  0  0  0  0  0  0  0  0
  -31.0674   60.3975   62.7668 O   0  0  0  0  0  0  0  0  0  0  0  0
  -32.2775   60.1916   62.7942 C   0  0  0  0  0  0  0  0  0  0  0  0
  -34.1304   60.9480   62.9582 H   0  0  0  0  0  0  0  0  0  0  0  0
  -33.8400   64.6079   63.8643 N   0  0  0  0  0  0  0  0  0  0  0  0
  -35.1334   62.9527   63.0781 O   0  0  0  0  0  0  0  0  0  0  0  0
  -32.7709   62.5617   63.0847 C   0  0  0  0  0  0  0  0  0  0  0  0
  -32.0886   63.0461   61.8004 C   0  0  0  0  0  0  0  0  0  0  0  0
  -31.2448   64.3016   61.9930 C   0  0  0  0  0  0  0  0  0  0  0  0
  -32.0027   65.5321   62.4504 C   0  0  0  0  0  0  0  0  0  0  0  0
  -32.6182   65.4045   63.8281 C   0  0  0  0  0  0  0  0  0  0  0  0
  -34.0181   63.3923   63.3422 C   0  0  0  0  0  0  0  0  0  0  0  0
  -34.6141   65.0088   64.3217 H   0  0  0  0  0  0  0  0  0  0  0  0
  -36.8046   58.7660   60.3336 C   0  0  0  0  0  0  0  0  0  0  0  0
  -38.0964   59.5760   60.3598 C   0  0  0  0  0  0  0  0  0  0  0  0
  -39.3422   58.7170   60.2478 C   0  0  0  0  0  0  0  0  0  0  0  0
  -40.5037   59.1717   61.1042 C   0  0  0  0  0  0  0  0  0  0  0  0
  -41.0630   58.0608   61.8578 N   0  0  0  0  0  0  0  0  0  0  0  0
  -41.9709   59.3758   63.4517 O   0  0  0  0  0  0  0  0  0  0  0  0
  -41.7605   58.2446   62.9841 C   0  0  0  0  0  0  0  0  0  0  0  0
  -40.9237   57.1436   61.5281 H   0  0  0  0  0  0  0  0  0  0  0  0
  -43.3053   56.8524   64.3437 C   0  0  0  0  0  0  0  0  0  0  0  0
  -42.1820   56.9937   63.6533 C   0  0  0  0  0  0  0  0  0  0  0  0
  -44.3712   57.8765   64.5799 C   0  0  0  0  0  0  0  0  0  0  0  0
  -45.4197   57.3817   65.5688 C   0  0  0  0  0  0  0  0  0  0  0  0
  -45.6440   58.3172   66.7443 C   0  0  0  0  0  0  0  0  0  0  0  0
  -47.1109   58.5854   67.0369 C   0  0  0  0  0  0  0  0  0  0  0  0
  -47.9739   58.7590   65.8013 C   0  0  0  0  0  0  0  0  0  0  0  0
  -49.3296   58.0810   65.9099 C   0  0  0  0  0  0  0  0  0  0  0  0
  -50.4975   59.0275   65.7122 C   0  0  0  0  0  0  0  0  0  0  0  0
  -50.2676   60.0317   64.6007 C   0  0  0  0  0  0  0  0  0  0  0  0
  -51.1775   59.8554   63.4002 C   0  0  0  0  0  0  0  0  0  0  0  0
  -51.0218   58.4988   62.7416 C   0  0  0  0  0  0  0  0  0  0  0  0
  -49.6089   58.2305   62.2495 C   0  0  0  0  0  0  0  0  0  0  0  0
  -49.5414   57.5829   60.8773 C   0  0  0  0  0  0  0  0  0  0  0  0
  -48.6843   58.3373   59.8726 C   0  0  0  0  0  0  0  0  0  0  0  0
  -47.5978   57.4881   59.2272 C   0  0  0  0  0  0  0  0  0  0  0  0
  -46.9027   58.1771   58.0640 C   0  0  0  0  0  0  0  0  0  0  0  0
  -47.2180   55.9303   56.9555 C   0  0  0  0  0  0  0  0  0  0  0  0
  -46.4839   57.2454   56.9413 C   0  0  0  0  0  0  0  0  0  0  0  0
 43 45  1  0  0  0
 43 42  1  0  0  0
 43 46  1  0  0  0
 64 65  1  0  0  0
 44 45  2  0  0  0
 65 63  1  0  0  0
  2  1  1  0  0  0
  2  4  1  0  0  0
  2  5  1  0  0  0
  3  4  2  0  0  0
 63 62  1  0  0  0
  6  8  1  0  0  0
  6 11  2  0  0  0
  7 10  1  0  0  0
  7 11  1  0  0  0
 62 61  1  0  0  0
 26 28  1  0  0  0
 26 32  1  0  0  0
 26 29  1  0  0  0
 12 18  1  0  0  0
 12 19  1  0  0  0
 61 60  1  0  0  0
 30 36  1  0  0  0
 30 37  1  0  0  0
 30 38  1  0  0  0
 20 21  2  0  0  0
 60 59  1  0  0  0
 22 21  1  0  0  0
 22 23  1  0  0  0
 59 58  1  0  0  0
 27 28  2  0  0  0
 58 57  1  0  0  0
 31 37  2  0  0  0
 57 56  1  0  0  0
 56 55  1  0  0  0
 55 54  1  0  0  0
 54 53  1  0  0  0
 53 52  1  0  0  0
 52 51  1  0  0  0
 51 50  1  0  0  0
 50 49  1  0  0  0
 49 47  1  0  0  0
 47 48  2  0  0  0
 48 45  1  0  0  0
 42 41  1  0  0  0
 41 40  1  0  0  0
 40 39  1  0  0  0
 39  1  1  0  0  0
  1 21  1  0  0  0
  8  4  1  0  0  0
  8  9  1  0  0  0
  8 10  1  0  0  0
 11 13  1  0  0  0
 13 14  2  0  0  0
 13 18  1  0  0  0
 14 15  1  0  0  0
 15 16  2  0  0  0
 16 17  1  0  0  0
 17 18  2  0  0  0
 23 24  1  0  0  0
 23 25  1  0  0  0
 25 28  1  0  0  0
 32 33  1  0  0  0
 32 37  1  0  0  0
 33 34  1  0  0  0
 34 35  1  0  0  0
 35 36  1  0  0  0
M  END
> <minimizedAffinity>
-9.66623

> <CNNscore>
0.3276193738

> <CNNaffinity>
7.5793275833

> <CNN_VS>
2.4831345081

> <CNNaffinity_variance>
0.9203944206

$$$$
/media/chris/experiments/cd1a-new-docking/inputs/ligands/7ryo_ligand.pdb


 65 67  0  0  0  0  0  0  0  0999 V2000
  -38.5585   60.3170   64.9904 C   0  0  0  0  0  0  0  0  0  0  0  0
  -37.7823   59.5902   63.9996 N   0  0  0  0  0  0  0  0  0  0  0  0
  -38.8293   60.5538   62.2592 O   0  0  0  0  0  0  0  0  0  0  0  0
  -37.9917   59.7777   62.6943 C   0  0  0  0  0  0  0  0  0  0  0  0
  -37.0935   58.9516   64.2946 H   0  0  0  0  0  0  0  0  0  0  0  0
  -35.7204   59.2938   61.8700 N   0  0  0  0  0  0  0  0  0  0  0  0
  -35.7974   57.0456   62.0214 O   0  0  0  0  0  0  0  0  0  0  0  0
  -37.1438   58.9520   61.7127 C   0  0  0  0  0  0  0  0  0  0  0  0
  -37.5790   59.2801   60.2877 C   0  0  0  0  0  0  0  0  0  0  0  0
  -37.1920   57.4418   61.9874 C   0  0  0  0  0  0  0  0  0  0  0  0
  -35.0895   58.2051   62.0316 C   0  0  0  0  0  0  0  0  0  0  0  0
  -33.6101   59.8091   63.9083 O   0  0  0  0  0  0  0  0  0  0  0  0
  -33.6445   58.0646   62.2258 C   0  0  0  0  0  0  0  0  0  0  0  0
  -32.9501   57.0306   61.5965 C   0  0  0  0  0  0  0  0  0  0  0  0
  -31.6462   56.7386   61.9577 C   0  0  0  0  0  0  0  0  0  0  0  0
  -31.0159   57.4656   62.9440 C   0  0  0  0  0  0  0  0  0  0  0  0
  -31.6833   58.4924   63.5865 C   0  0  0  0  0  0  0  0  0  0  0  0
  -32.9950   58.7997   63.2388 C   0  0  0  0  0  0  0  0  0  0  0  0
  -34.4933   60.0407   63.6981 H   0  0  0  0  0  0  0  0  0  0  0  0
  -37.8709   60.3990   67.3058 O   0  0  0  0  0  0  0  0  0  0  0  0
  -37.6924   60.7375   66.1684 C   0  0  0  0  0  0  0  0  0  0  0  0
  -36.7095   61.5595   65.7614 O   0  0  0  0  0  0  0  0  0  0  0  0
  -35.9312   62.2658   66.7836 C   0  0  0  0  0  0  0  0  0  0  0  0
  -36.1569   63.7458   66.6036 C   0  0  0  0  0  0  0  0  0  0  0  0
  -34.4876   61.8690   66.5430 C   0  0  0  0  0  0  0  0  0  0  0  0
  -33.8150   62.8948   64.4603 N   0  0  0  0  0  0  0  0  0  0  0  0
  -33.0184   63.7522   66.3817 O   0  0  0  0  0  0  0  0  0  0  0  0
  -33.7039   62.9221   65.7915 C   0  0  0  0  0  0  0  0  0  0  0  0
  -34.3795   62.2054   64.0415 H   0  0  0  0  0  0  0  0  0  0  0  0
  -33.5581   66.1301   62.8601 N   0  0  0  0  0  0  0  0  0  0  0  0
  -35.2999   64.8454   63.4488 O   0  0  0  0  0  0  0  0  0  0  0  0
  -33.1267   63.8531   63.6132 C   0  0  0  0  0  0  0  0  0  0  0  0
  -32.6843   63.1807   62.3087 C   0  0  0  0  0  0  0  0  0  0  0  0
  -31.5889   63.9419   61.5699 C   0  0  0  0  0  0  0  0  0  0  0  0
  -31.9604   65.3389   61.1136 C   0  0  0  0  0  0  0  0  0  0  0  0
  -32.2470   66.3047   62.2443 C   0  0  0  0  0  0  0  0  0  0  0  0
  -34.0898   64.9871   63.2995 C   0  0  0  0  0  0  0  0  0  0  0  0
  -34.1084   66.9400   62.9623 H   0  0  0  0  0  0  0  0  0  0  0  0
  -39.7622   59.4995   65.4618 C   0  0  0  0  0  0  0  0  0  0  0  0
  -40.9901   60.3675   65.7147 C   0  0  0  0  0  0  0  0  0  0  0  0
  -41.3876   61.2044   64.5129 C   0  0  0  0  0  0  0  0  0  0  0  0
  -41.7544   60.4075   63.2801 C   0  0  0  0  0  0  0  0  0  0  0  0
  -42.5161   59.2201   63.6336 N   0  0  0  0  0  0  0  0  0  0  0  0
  -41.0405   57.7878   62.7035 O   0  0  0  0  0  0  0  0  0  0  0  0
  -42.1012   57.9885   63.3176 C   0  0  0  0  0  0  0  0  0  0  0  0
  -43.3646   59.3264   64.1214 H   0  0  0  0  0  0  0  0  0  0  0  0
  -43.4037   56.6221   64.9330 C   0  0  0  0  0  0  0  0  0  0  0  0
  -43.0453   56.9111   63.6894 C   0  0  0  0  0  0  0  0  0  0  0  0
  -42.9696   57.3022   66.1938 C   0  0  0  0  0  0  0  0  0  0  0  0
  -44.0366   58.2565   66.7161 C   0  0  0  0  0  0  0  0  0  0  0  0
  -45.4444   57.6880   66.6687 C   0  0  0  0  0  0  0  0  0  0  0  0
  -46.4650   58.5277   67.4188 C   0  0  0  0  0  0  0  0  0  0  0  0
  -47.7225   58.8377   66.6288 C   0  0  0  0  0  0  0  0  0  0  0  0
  -47.4936   58.9030   65.1278 C   0  0  0  0  0  0  0  0  0  0  0  0
  -48.1655   60.0889   64.4639 C   0  0  0  0  0  0  0  0  0  0  0  0
  -49.5263   60.4067   65.0505 C   0  0  0  0  0  0  0  0  0  0  0  0
  -50.6491   59.5240   64.5403 C   0  0  0  0  0  0  0  0  0  0  0  0
  -50.9108   59.7074   63.0583 C   0  0  0  0  0  0  0  0  0  0  0  0
  -50.7092   58.4346   62.2524 C   0  0  0  0  0  0  0  0  0  0  0  0
  -49.6660   58.5527   61.1549 C   0  0  0  0  0  0  0  0  0  0  0  0
  -49.3212   57.2355   60.4772 C   0  0  0  0  0  0  0  0  0  0  0  0
  -48.9062   57.3811   59.0195 C   0  0  0  0  0  0  0  0  0  0  0  0
  -47.6736   58.2493   58.8255 C   0  0  0  0  0  0  0  0  0  0  0  0
  -47.4589   57.2472   56.5177 C   0  0  0  0  0  0  0  0  0  0  0  0
  -46.7367   57.7743   57.7297 C   0  0  0  0  0  0  0  0  0  0  0  0
 43 45  1  0  0  0
 43 42  1  0  0  0
 43 46  1  0  0  0
 64 65  1  0  0  0
 44 45  2  0  0  0
 65 63  1  0  0  0
  2  1  1  0  0  0
  2  4  1  0  0  0
  2  5  1  0  0  0
  3  4  2  0  0  0
 63 62  1  0  0  0
  6  8  1  0  0  0
  6 11  2  0  0  0
  7 10  1  0  0  0
  7 11  1  0  0  0
 62 61  1  0  0  0
 26 28  1  0  0  0
 26 32  1  0  0  0
 26 29  1  0  0  0
 12 18  1  0  0  0
 12 19  1  0  0  0
 61 60  1  0  0  0
 30 36  1  0  0  0
 30 37  1  0  0  0
 30 38  1  0  0  0
 20 21  2  0  0  0
 60 59  1  0  0  0
 22 21  1  0  0  0
 22 23  1  0  0  0
 59 58  1  0  0  0
 27 28  2  0  0  0
 58 57  1  0  0  0
 31 37  2  0  0  0
 57 56  1  0  0  0
 56 55  1  0  0  0
 55 54  1  0  0  0
 54 53  1  0  0  0
 53 52  1  0  0  0
 52 51  1  0  0  0
 51 50  1  0  0  0
 50 49  1  0  0  0
 49 47  1  0  0  0
 47 48  2  0  0  0
 48 45  1  0  0  0
 42 41  1  0  0  0
 41 40  1  0  0  0
 40 39  1  0  0  0
 39  1  1  0  0  0
  1 21  1  0  0  0
  8  4  1  0  0  0
  8  9  1  0  0  0
  8 10  1  0  0  0
 11 13  1  0  0  0
 13 14  2  0  0  0
 13 18  1  0  0  0
 14 15  1  0  0  0
 15 16  2  0  0  0
 16 17  1  0  0  0
 17 18  2  0  0  0
 23 24  1  0  0  0
 23 25  1  0  0  0
 25 28  1  0  0  0
 32 33  1  0  0  0
 32 37  1  0  0  0
 33 34  1  0  0  0
 34 35  1  0  0  0
 35 36  1  0  0  0
M  END
> <minimizedAffinity>
-10.18649

> <CNNscore>
0.3119787872

> <CNNaffinity>
7.6161203384

> <CNN_VS>
2.3760678768

> <CNNaffinity_variance>
1.1154503822

$$$$
/media/chris/experiments/cd1a-new-docking/inputs/ligands/7ryo_ligand.pdb


 65 67  0  0  0  0  0  0  0  0999 V2000
  -38.6013   60.7759   64.5330 C   0  0  0  0  0  0  0  0  0  0  0  0
  -37.9111   59.7798   63.7306 N   0  0  0  0  0  0  0  0  0  0  0  0
  -38.1008   60.9666   61.8307 O   0  0  0  0  0  0  0  0  0  0  0  0
  -37.7184   59.9684   62.4229 C   0  0  0  0  0  0  0  0  0  0  0  0
  -37.5814   58.9558   64.1566 H   0  0  0  0  0  0  0  0  0  0  0  0
  -35.5485   59.1021   61.6395 N   0  0  0  0  0  0  0  0  0  0  0  0
  -35.7739   56.9772   62.3585 O   0  0  0  0  0  0  0  0  0  0  0  0
  -37.0000   58.8552   61.6426 C   0  0  0  0  0  0  0  0  0  0  0  0
  -37.5070   58.8549   60.2036 C   0  0  0  0  0  0  0  0  0  0  0  0
  -37.1361   57.4704   62.2927 C   0  0  0  0  0  0  0  0  0  0  0  0
  -34.9867   58.0379   62.0407 C   0  0  0  0  0  0  0  0  0  0  0  0
  -33.3651   59.6172   63.8182 O   0  0  0  0  0  0  0  0  0  0  0  0
  -33.5454   57.8268   62.1943 C   0  0  0  0  0  0  0  0  0  0  0  0
  -32.9268   56.7389   61.5771 C   0  0  0  0  0  0  0  0  0  0  0  0
  -31.6287   56.3891   61.9067 C   0  0  0  0  0  0  0  0  0  0  0  0
  -30.9294   57.1112   62.8492 C   0  0  0  0  0  0  0  0  0  0  0  0
  -31.5211   58.1911   63.4789 C   0  0  0  0  0  0  0  0  0  0  0  0
  -32.8256   58.5568   63.1626 C   0  0  0  0  0  0  0  0  0  0  0  0
  -34.2415   59.8890   63.6283 H   0  0  0  0  0  0  0  0  0  0  0  0
  -38.2539   60.4839   66.9068 O   0  0  0  0  0  0  0  0  0  0  0  0
  -37.9077   60.9821   65.8713 C   0  0  0  0  0  0  0  0  0  0  0  0
  -36.8634   61.8180   65.7375 O   0  0  0  0  0  0  0  0  0  0  0  0
  -36.0746   62.1358   66.9318 C   0  0  0  0  0  0  0  0  0  0  0  0
  -36.1830   63.6187   67.1829 C   0  0  0  0  0  0  0  0  0  0  0  0
  -34.6562   61.7076   66.6091 C   0  0  0  0  0  0  0  0  0  0  0  0
  -33.9803   62.7758   64.5489 N   0  0  0  0  0  0  0  0  0  0  0  0
  -33.1817   63.5897   66.4884 O   0  0  0  0  0  0  0  0  0  0  0  0
  -33.8694   62.7743   65.8805 C   0  0  0  0  0  0  0  0  0  0  0  0
  -34.5466   62.0971   64.1155 H   0  0  0  0  0  0  0  0  0  0  0  0
  -33.6801   66.0657   63.0726 N   0  0  0  0  0  0  0  0  0  0  0  0
  -35.4391   64.8024   63.6558 O   0  0  0  0  0  0  0  0  0  0  0  0
  -33.2891   63.7501   63.7227 C   0  0  0  0  0  0  0  0  0  0  0  0
  -32.8980   63.1202   62.3811 C   0  0  0  0  0  0  0  0  0  0  0  0
  -31.8023   63.8830   61.6443 C   0  0  0  0  0  0  0  0  0  0  0  0
  -32.1488   65.3062   61.2541 C   0  0  0  0  0  0  0  0  0  0  0  0
  -32.3811   66.2322   62.4295 C   0  0  0  0  0  0  0  0  0  0  0  0
  -34.2300   64.9196   63.4802 C   0  0  0  0  0  0  0  0  0  0  0  0
  -34.2062   66.8844   63.2216 H   0  0  0  0  0  0  0  0  0  0  0  0
  -40.0723   60.4072   64.7312 C   0  0  0  0  0  0  0  0  0  0  0  0
  -40.2922   58.8987   64.7709 C   0  0  0  0  0  0  0  0  0  0  0  0
  -41.6260   58.5055   65.3784 C   0  0  0  0  0  0  0  0  0  0  0  0
  -42.0086   57.0550   65.1805 C   0  0  0  0  0  0  0  0  0  0  0  0
  -42.3912   56.7996   63.8009 N   0  0  0  0  0  0  0  0  0  0  0  0
  -40.6256   55.4582   63.3797 O   0  0  0  0  0  0  0  0  0  0  0  0
  -41.6673   56.0147   62.9954 C   0  0  0  0  0  0  0  0  0  0  0  0
  -43.2097   57.2181   63.4484 H   0  0  0  0  0  0  0  0  0  0  0  0
  -41.7717   56.7265   60.6172 C   0  0  0  0  0  0  0  0  0  0  0  0
  -42.1692   55.9365   61.6054 C   0  0  0  0  0  0  0  0  0  0  0  0
  -40.7523   57.8213   60.6723 C   0  0  0  0  0  0  0  0  0  0  0  0
  -41.0832   58.9494   59.7029 C   0  0  0  0  0  0  0  0  0  0  0  0
  -41.1769   58.5050   58.2534 C   0  0  0  0  0  0  0  0  0  0  0  0
  -42.1528   59.3263   57.4273 C   0  0  0  0  0  0  0  0  0  0  0  0
  -43.2365   58.5118   56.7463 C   0  0  0  0  0  0  0  0  0  0  0  0
  -44.6388   58.8512   57.2236 C   0  0  0  0  0  0  0  0  0  0  0  0
  -45.5611   57.6500   57.2955 C   0  0  0  0  0  0  0  0  0  0  0  0
  -47.0282   58.0208   57.2102 C   0  0  0  0  0  0  0  0  0  0  0  0
  -47.9804   56.8606   57.4283 C   0  0  0  0  0  0  0  0  0  0  0  0
  -48.3610   56.6814   58.8847 C   0  0  0  0  0  0  0  0  0  0  0  0
  -48.2995   57.9732   59.6834 C   0  0  0  0  0  0  0  0  0  0  0  0
  -49.6514   58.4721   60.1631 C   0  0  0  0  0  0  0  0  0  0  0  0
  -50.3758   57.5131   61.0951 C   0  0  0  0  0  0  0  0  0  0  0  0
  -50.9416   58.1750   62.3441 C   0  0  0  0  0  0  0  0  0  0  0  0
  -50.4938   59.6171   62.5199 C   0  0  0  0  0  0  0  0  0  0  0  0
  -48.8283   58.8507   64.2563 C   0  0  0  0  0  0  0  0  0  0  0  0
  -49.8203   59.9082   63.8487 C   0  0  0  0  0  0  0  0  0  0  0  0
 43 45  1  0  0  0
 43 42  1  0  0  0
 43 46  1  0  0  0
 64 65  1  0  0  0
 44 45  2  0  0  0
 65 63  1  0  0  0
  2  1  1  0  0  0
  2  4  1  0  0  0
  2  5  1  0  0  0
  3  4  2  0  0  0
 63 62  1  0  0  0
  6  8  1  0  0  0
  6 11  2  0  0  0
  7 10  1  0  0  0
  7 11  1  0  0  0
 62 61  1  0  0  0
 26 28  1  0  0  0
 26 32  1  0  0  0
 26 29  1  0  0  0
 12 18  1  0  0  0
 12 19  1  0  0  0
 61 60  1  0  0  0
 30 36  1  0  0  0
 30 37  1  0  0  0
 30 38  1  0  0  0
 20 21  2  0  0  0
 60 59  1  0  0  0
 22 21  1  0  0  0
 22 23  1  0  0  0
 59 58  1  0  0  0
 27 28  2  0  0  0
 58 57  1  0  0  0
 31 37  2  0  0  0
 57 56  1  0  0  0
 56 55  1  0  0  0
 55 54  1  0  0  0
 54 53  1  0  0  0
 53 52  1  0  0  0
 52 51  1  0  0  0
 51 50  1  0  0  0
 50 49  1  0  0  0
 49 47  1  0  0  0
 47 48  2  0  0  0
 48 45  1  0  0  0
 42 41  1  0  0  0
 41 40  1  0  0  0
 40 39  1  0  0  0
 39  1  1  0  0  0
  1 21  1  0  0  0
  8  4  1  0  0  0
  8  9  1  0  0  0
  8 10  1  0  0  0
 11 13  1  0  0  0
 13 14  2  0  0  0
 13 18  1  0  0  0
 14 15  1  0  0  0
 15 16  2  0  0  0
 16 17  1  0  0  0
 17 18  2  0  0  0
 23 24  1  0  0  0
 23 25  1  0  0  0
 25 28  1  0  0  0
 32 33  1  0  0  0
 32 37  1  0  0  0
 33 34  1  0  0  0
 34 35  1  0  0  0
 35 36  1  0  0  0
M  END
> <minimizedAffinity>
-7.91174

> <CNNscore>
0.2213471681

> <CNNaffinity>
7.3560571671

> <CNN_VS>
1.6282423735

> <CNNaffinity_variance>
1.0168323517

$$$$
/media/chris/experiments/cd1a-new-docking/inputs/ligands/7ryo_ligand.pdb


 65 67  0  0  0  0  0  0  0  0999 V2000
  -34.4575   59.9694   63.2916 C   0  0  0  0  0  0  0  0  0  0  0  0
  -35.7660   59.9748   62.6590 N   0  0  0  0  0  0  0  0  0  0  0  0
  -35.2647   58.2775   61.2728 O   0  0  0  0  0  0  0  0  0  0  0  0
  -36.0589   59.1096   61.6851 C   0  0  0  0  0  0  0  0  0  0  0  0
  -36.4450   60.6246   62.9523 H   0  0  0  0  0  0  0  0  0  0  0  0
  -38.1806   57.9316   61.2574 N   0  0  0  0  0  0  0  0  0  0  0  0
  -39.5886   59.5293   61.9978 O   0  0  0  0  0  0  0  0  0  0  0  0
  -37.4578   59.1979   61.0530 C   0  0  0  0  0  0  0  0  0  0  0  0
  -37.3079   59.4483   59.5555 C   0  0  0  0  0  0  0  0  0  0  0  0
  -38.3608   60.2481   61.7165 C   0  0  0  0  0  0  0  0  0  0  0  0
  -39.3051   58.2205   61.7687 C   0  0  0  0  0  0  0  0  0  0  0  0
  -41.5413   57.6275   60.0568 O   0  0  0  0  0  0  0  0  0  0  0  0
  -40.3553   57.2694   62.1401 C   0  0  0  0  0  0  0  0  0  0  0  0
  -40.2269   56.5003   63.2974 C   0  0  0  0  0  0  0  0  0  0  0  0
  -41.0799   55.4356   63.5312 C   0  0  0  0  0  0  0  0  0  0  0  0
  -42.0679   55.1207   62.6240 C   0  0  0  0  0  0  0  0  0  0  0  0
  -42.2135   55.8642   61.4669 C   0  0  0  0  0  0  0  0  0  0  0  0
  -41.3646   56.9369   61.2132 C   0  0  0  0  0  0  0  0  0  0  0  0
  -40.9861   58.3551   59.8561 H   0  0  0  0  0  0  0  0  0  0  0  0
  -35.0399   58.0860   64.6896 O   0  0  0  0  0  0  0  0  0  0  0  0
  -34.2142   58.6688   64.0424 C   0  0  0  0  0  0  0  0  0  0  0  0
  -32.9378   58.2723   63.8977 O   0  0  0  0  0  0  0  0  0  0  0  0
  -32.2500   58.5989   62.6448 C   0  0  0  0  0  0  0  0  0  0  0  0
  -31.8628   57.3057   61.9730 C   0  0  0  0  0  0  0  0  0  0  0  0
  -31.0430   59.4245   63.0458 C   0  0  0  0  0  0  0  0  0  0  0  0
  -31.1824   61.8241   63.3002 N   0  0  0  0  0  0  0  0  0  0  0  0
  -30.9278   60.9806   61.2301 O   0  0  0  0  0  0  0  0  0  0  0  0
  -31.0489   60.8105   62.4400 C   0  0  0  0  0  0  0  0  0  0  0  0
  -31.2759   61.6274   64.2604 H   0  0  0  0  0  0  0  0  0  0  0  0
  -31.0284   65.3803   63.9511 N   0  0  0  0  0  0  0  0  0  0  0  0
  -31.7889   63.6364   65.1390 O   0  0  0  0  0  0  0  0  0  0  0  0
  -31.1935   63.2080   62.8594 C   0  0  0  0  0  0  0  0  0  0  0  0
  -32.3580   63.4430   61.8908 C   0  0  0  0  0  0  0  0  0  0  0  0
  -32.1993   64.6964   61.0370 C   0  0  0  0  0  0  0  0  0  0  0  0
  -32.1363   66.0029   61.8031 C   0  0  0  0  0  0  0  0  0  0  0  0
  -30.9278   66.1344   62.7061 C   0  0  0  0  0  0  0  0  0  0  0  0
  -31.3631   64.0947   64.0829 C   0  0  0  0  0  0  0  0  0  0  0  0
  -30.8284   65.8709   64.7808 H   0  0  0  0  0  0  0  0  0  0  0  0
  -34.2827   61.1749   64.2164 C   0  0  0  0  0  0  0  0  0  0  0  0
  -34.6891   60.8675   65.6536 C   0  0  0  0  0  0  0  0  0  0  0  0
  -35.3542   62.0403   66.3500 C   0  0  0  0  0  0  0  0  0  0  0  0
  -36.8669   62.0142   66.3284 C   0  0  0  0  0  0  0  0  0  0  0  0
  -37.3613   60.6891   65.9899 N   0  0  0  0  0  0  0  0  0  0  0  0
  -39.5279   61.3206   65.9502 O   0  0  0  0  0  0  0  0  0  0  0  0
  -38.6643   60.4369   65.8243 C   0  0  0  0  0  0  0  0  0  0  0  0
  -36.7160   59.9540   65.8790 H   0  0  0  0  0  0  0  0  0  0  0  0
  -40.2113   58.5172   65.5157 C   0  0  0  0  0  0  0  0  0  0  0  0
  -38.9833   59.0158   65.5613 C   0  0  0  0  0  0  0  0  0  0  0  0
  -41.5050   59.2489   65.6931 C   0  0  0  0  0  0  0  0  0  0  0  0
  -42.3706   58.6109   66.7729 C   0  0  0  0  0  0  0  0  0  0  0  0
  -42.9693   57.2746   66.3690 C   0  0  0  0  0  0  0  0  0  0  0  0
  -44.2146   57.4017   65.5073 C   0  0  0  0  0  0  0  0  0  0  0  0
  -45.3635   58.1359   66.1723 C   0  0  0  0  0  0  0  0  0  0  0  0
  -46.4550   58.5570   65.2024 C   0  0  0  0  0  0  0  0  0  0  0  0
  -47.6926   59.1061   65.8847 C   0  0  0  0  0  0  0  0  0  0  0  0
  -48.9734   58.7873   65.1398 C   0  0  0  0  0  0  0  0  0  0  0  0
  -48.7712   58.0175   63.8488 C   0  0  0  0  0  0  0  0  0  0  0  0
  -49.1526   58.8218   62.6216 C   0  0  0  0  0  0  0  0  0  0  0  0
  -50.5515   58.5126   62.1137 C   0  0  0  0  0  0  0  0  0  0  0  0
  -50.5836   57.6139   60.8898 C   0  0  0  0  0  0  0  0  0  0  0  0
  -49.2143   57.1412   60.4264 C   0  0  0  0  0  0  0  0  0  0  0  0
  -48.8830   57.5223   58.9900 C   0  0  0  0  0  0  0  0  0  0  0  0
  -47.4667   58.0457   58.8145 C   0  0  0  0  0  0  0  0  0  0  0  0
  -47.7489   57.0410   56.5152 C   0  0  0  0  0  0  0  0  0  0  0  0
  -46.9318   57.9479   57.3973 C   0  0  0  0  0  0  0  0  0  0  0  0
 43 45  1  0  0  0
 43 42  1  0  0  0
 43 46  1  0  0  0
 64 65  1  0  0  0
 44 45  2  0  0  0
 65 63  1  0  0  0
  2  1  1  0  0  0
  2  4  1  0  0  0
  2  5  1  0  0  0
  3  4  2  0  0  0
 63 62  1  0  0  0
  6  8  1  0  0  0
  6 11  2  0  0  0
  7 10  1  0  0  0
  7 11  1  0  0  0
 62 61  1  0  0  0
 26 28  1  0  0  0
 26 32  1  0  0  0
 26 29  1  0  0  0
 12 18  1  0  0  0
 12 19  1  0  0  0
 61 60  1  0  0  0
 30 36  1  0  0  0
 30 37  1  0  0  0
 30 38  1  0  0  0
 20 21  2  0  0  0
 60 59  1  0  0  0
 22 21  1  0  0  0
 22 23  1  0  0  0
 59 58  1  0  0  0
 27 28  2  0  0  0
 58 57  1  0  0  0
 31 37  2  0  0  0
 57 56  1  0  0  0
 56 55  1  0  0  0
 55 54  1  0  0  0
 54 53  1  0  0  0
 53 52  1  0  0  0
 52 51  1  0  0  0
 51 50  1  0  0  0
 50 49  1  0  0  0
 49 47  1  0  0  0
 47 48  2  0  0  0
 48 45  1  0  0  0
 42 41  1  0  0  0
 41 40  1  0  0  0
 40 39  1  0  0  0
 39  1  1  0  0  0
  1 21  1  0  0  0
  8  4  1  0  0  0
  8  9  1  0  0  0
  8 10  1  0  0  0
 11 13  1  0  0  0
 13 14  2  0  0  0
 13 18  1  0  0  0
 14 15  1  0  0  0
 15 16  2  0  0  0
 16 17  1  0  0  0
 17 18  2  0  0  0
 23 24  1  0  0  0
 23 25  1  0  0  0
 25 28  1  0  0  0
 32 33  1  0  0  0
 32 37  1  0  0  0
 33 34  1  0  0  0
 34 35  1  0  0  0
 35 36  1  0  0  0
M  END
> <minimizedAffinity>
-9.33419

> <CNNscore>
0.1896083653

> <CNNaffinity>
7.4459571838

> <CNN_VS>
1.4118157625

> <CNNaffinity_variance>
1.1444542408

$$$$
/media/chris/experiments/cd1a-new-docking/inputs/ligands/7ryo_ligand.pdb


 65 67  0  0  0  0  0  0  0  0999 V2000
  -38.0904   57.5606   63.4197 C   0  0  0  0  0  0  0  0  0  0  0  0
  -36.8390   58.2099   63.0661 N   0  0  0  0  0  0  0  0  0  0  0  0
  -35.6334   57.0143   64.5395 O   0  0  0  0  0  0  0  0  0  0  0  0
  -35.6977   57.8713   63.6708 C   0  0  0  0  0  0  0  0  0  0  0  0
  -36.8328   58.9081   62.3720 H   0  0  0  0  0  0  0  0  0  0  0  0
  -34.7428   60.0311   62.9668 N   0  0  0  0  0  0  0  0  0  0  0  0
  -33.0263   60.1130   64.4262 O   0  0  0  0  0  0  0  0  0  0  0  0
  -34.4227   58.6232   63.2545 C   0  0  0  0  0  0  0  0  0  0  0  0
  -33.8565   57.9749   61.9947 C   0  0  0  0  0  0  0  0  0  0  0  0
  -33.3721   58.7057   64.3717 C   0  0  0  0  0  0  0  0  0  0  0  0
  -33.9414   60.7435   63.6447 C   0  0  0  0  0  0  0  0  0  0  0  0
  -36.1908   62.3583   64.4294 O   0  0  0  0  0  0  0  0  0  0  0  0
  -33.8946   62.2074   63.6679 C   0  0  0  0  0  0  0  0  0  0  0  0
  -32.6896   62.8736   63.4417 C   0  0  0  0  0  0  0  0  0  0  0  0
  -32.5775   64.2291   63.6989 C   0  0  0  0  0  0  0  0  0  0  0  0
  -33.6551   64.9391   64.1818 C   0  0  0  0  0  0  0  0  0  0  0  0
  -34.8593   64.3017   64.4188 C   0  0  0  0  0  0  0  0  0  0  0  0
  -34.9910   62.9394   64.1685 C   0  0  0  0  0  0  0  0  0  0  0  0
  -36.3121   61.4427   64.2718 H   0  0  0  0  0  0  0  0  0  0  0  0
  -38.6644   57.6094   61.0727 O   0  0  0  0  0  0  0  0  0  0  0  0
  -39.0025   57.4266   62.2096 C   0  0  0  0  0  0  0  0  0  0  0  0
  -40.2479   57.0948   62.5920 O   0  0  0  0  0  0  0  0  0  0  0  0
  -40.9497   56.0540   61.8345 C   0  0  0  0  0  0  0  0  0  0  0  0
  -42.1768   56.6737   61.2148 C   0  0  0  0  0  0  0  0  0  0  0  0
  -41.2949   54.9774   62.8449 C   0  0  0  0  0  0  0  0  0  0  0  0
  -42.9415   56.2515   64.0728 N   0  0  0  0  0  0  0  0  0  0  0  0
  -41.2311   55.3349   65.2112 O   0  0  0  0  0  0  0  0  0  0  0  0
  -41.8143   55.5383   64.1501 C   0  0  0  0  0  0  0  0  0  0  0  0
  -43.3656   56.3819   63.1939 H   0  0  0  0  0  0  0  0  0  0  0  0
  -45.7415   57.7885   65.7732 N   0  0  0  0  0  0  0  0  0  0  0  0
  -45.0509   57.7993   63.6393 O   0  0  0  0  0  0  0  0  0  0  0  0
  -43.5591   56.8401   65.2483 C   0  0  0  0  0  0  0  0  0  0  0  0
  -42.6193   57.8768   65.8738 C   0  0  0  0  0  0  0  0  0  0  0  0
  -42.9575   58.2128   67.3223 C   0  0  0  0  0  0  0  0  0  0  0  0
  -44.3251   58.8269   67.5464 C   0  0  0  0  0  0  0  0  0  0  0  0
  -45.4803   57.9097   67.2035 C   0  0  0  0  0  0  0  0  0  0  0  0
  -44.8498   57.5185   64.8172 C   0  0  0  0  0  0  0  0  0  0  0  0
  -46.6729   57.9195   65.4827 H   0  0  0  0  0  0  0  0  0  0  0  0
  -38.7971   58.2992   64.5574 C   0  0  0  0  0  0  0  0  0  0  0  0
  -38.3768   59.7621   64.6489 C   0  0  0  0  0  0  0  0  0  0  0  0
  -39.0558   60.5088   65.7821 C   0  0  0  0  0  0  0  0  0  0  0  0
  -40.5610   60.6070   65.6630 C   0  0  0  0  0  0  0  0  0  0  0  0
  -40.9437   61.3163   64.4526 N   0  0  0  0  0  0  0  0  0  0  0  0
  -42.1343   59.5922   63.6136 O   0  0  0  0  0  0  0  0  0  0  0  0
  -41.7075   60.7538   63.5096 C   0  0  0  0  0  0  0  0  0  0  0  0
  -40.6304   62.2406   64.3230 H   0  0  0  0  0  0  0  0  0  0  0  0
  -41.4470   61.3337   61.1077 C   0  0  0  0  0  0  0  0  0  0  0  0
  -41.9264   61.5998   62.3151 C   0  0  0  0  0  0  0  0  0  0  0  0
  -40.6244   60.1559   60.6870 C   0  0  0  0  0  0  0  0  0  0  0  0
  -40.6451   59.9645   59.1754 C   0  0  0  0  0  0  0  0  0  0  0  0
  -41.4270   58.7436   58.7224 C   0  0  0  0  0  0  0  0  0  0  0  0
  -41.7541   58.7471   57.2383 C   0  0  0  0  0  0  0  0  0  0  0  0
  -43.1727   59.1737   56.9111 C   0  0  0  0  0  0  0  0  0  0  0  0
  -44.2128   58.1129   57.2312 C   0  0  0  0  0  0  0  0  0  0  0  0
  -45.6302   58.6492   57.2773 C   0  0  0  0  0  0  0  0  0  0  0  0
  -46.6594   57.5829   57.5947 C   0  0  0  0  0  0  0  0  0  0  0  0
  -46.7220   57.1897   59.0582 C   0  0  0  0  0  0  0  0  0  0  0  0
  -48.1207   56.8101   59.5031 C   0  0  0  0  0  0  0  0  0  0  0  0
  -49.1639   57.8616   59.1621 C   0  0  0  0  0  0  0  0  0  0  0  0
  -50.3167   57.9358   60.1482 C   0  0  0  0  0  0  0  0  0  0  0  0
  -49.9145   57.7067   61.5969 C   0  0  0  0  0  0  0  0  0  0  0  0
  -50.7159   58.5282   62.5975 C   0  0  0  0  0  0  0  0  0  0  0  0
  -49.9916   59.7777   63.0720 C   0  0  0  0  0  0  0  0  0  0  0  0
  -48.4890   60.1306   65.0706 C   0  0  0  0  0  0  0  0  0  0  0  0
  -48.6360   59.5165   63.7032 C   0  0  0  0  0  0  0  0  0  0  0  0
 43 45  1  0  0  0
 43 42  1  0  0  0
 43 46  1  0  0  0
 64 65  1  0  0  0
 44 45  2  0  0  0
 65 63  1  0  0  0
  2  1  1  0  0  0
  2  4  1  0  0  0
  2  5  1  0  0  0
  3  4  2  0  0  0
 63 62  1  0  0  0
  6  8  1  0  0  0
  6 11  2  0  0  0
  7 10  1  0  0  0
  7 11  1  0  0  0
 62 61  1  0  0  0
 26 28  1  0  0  0
 26 32  1  0  0  0
 26 29  1  0  0  0
 12 18  1  0  0  0
 12 19  1  0  0  0
 61 60  1  0  0  0
 30 36  1  0  0  0
 30 37  1  0  0  0
 30 38  1  0  0  0
 20 21  2  0  0  0
 60 59  1  0  0  0
 22 21  1  0  0  0
 22 23  1  0  0  0
 59 58  1  0  0  0
 27 28  2  0  0  0
 58 57  1  0  0  0
 31 37  2  0  0  0
 57 56  1  0  0  0
 56 55  1  0  0  0
 55 54  1  0  0  0
 54 53  1  0  0  0
 53 52  1  0  0  0
 52 51  1  0  0  0
 51 50  1  0  0  0
 50 49  1  0  0  0
 49 47  1  0  0  0
 47 48  2  0  0  0
 48 45  1  0  0  0
 42 41  1  0  0  0
 41 40  1  0  0  0
 40 39  1  0  0  0
 39  1  1  0  0  0
  1 21  1  0  0  0
  8  4  1  0  0  0
  8  9  1  0  0  0
  8 10  1  0  0  0
 11 13  1  0  0  0
 13 14  2  0  0  0
 13 18  1  0  0  0
 14 15  1  0  0  0
 15 16  2  0  0  0
 16 17  1  0  0  0
 17 18  2  0  0  0
 23 24  1  0  0  0
 23 25  1  0  0  0
 25 28  1  0  0  0
 32 33  1  0  0  0
 32 37  1  0  0  0
 33 34  1  0  0  0
 34 35  1  0  0  0
 35 36  1  0  0  0
M  END
> <minimizedAffinity>
-7.36334

> <CNNscore>
0.1890684813

> <CNNaffinity>
7.6613645554

> <CNN_VS>
1.4485225677

> <CNNaffinity_variance>
2.1167442799

$$$$
/media/chris/experiments/cd1a-new-docking/inputs/ligands/7ryo_ligand.pdb


 65 67  0  0  0  0  0  0  0  0999 V2000
  -39.0085   57.9788   63.7311 C   0  0  0  0  0  0  0  0  0  0  0  0
  -37.5810   57.7076   63.6964 N   0  0  0  0  0  0  0  0  0  0  0  0
  -37.1770   59.2558   62.1173 O   0  0  0  0  0  0  0  0  0  0  0  0
  -36.7755   58.3851   62.8748 C   0  0  0  0  0  0  0  0  0  0  0  0
  -37.2033   57.0157   64.2862 H   0  0  0  0  0  0  0  0  0  0  0  0
  -34.5048   59.0746   62.2110 N   0  0  0  0  0  0  0  0  0  0  0  0
  -33.4874   58.7845   64.2020 O   0  0  0  0  0  0  0  0  0  0  0  0
  -35.2818   58.0202   62.8835 C   0  0  0  0  0  0  0  0  0  0  0  0
  -35.0904   56.7061   62.1322 C   0  0  0  0  0  0  0  0  0  0  0  0
  -34.6775   57.9609   64.2941 C   0  0  0  0  0  0  0  0  0  0  0  0
  -33.5725   59.4145   63.0013 C   0  0  0  0  0  0  0  0  0  0  0  0
  -31.6744   59.2077   60.8478 O   0  0  0  0  0  0  0  0  0  0  0  0
  -32.5518   60.4336   62.7458 C   0  0  0  0  0  0  0  0  0  0  0  0
  -32.5590   61.6287   63.4662 C   0  0  0  0  0  0  0  0  0  0  0  0
  -31.7623   62.6902   63.0735 C   0  0  0  0  0  0  0  0  0  0  0  0
  -30.9506   62.5809   61.9654 C   0  0  0  0  0  0  0  0  0  0  0  0
  -30.9283   61.4090   61.2314 C   0  0  0  0  0  0  0  0  0  0  0  0
  -31.7235   60.3317   61.6091 C   0  0  0  0  0  0  0  0  0  0  0  0
  -32.1978   58.4646   61.0751 H   0  0  0  0  0  0  0  0  0  0  0  0
  -40.5648   57.5565   65.5311 O   0  0  0  0  0  0  0  0  0  0  0  0
  -39.5252   58.0283   65.1611 C   0  0  0  0  0  0  0  0  0  0  0  0
  -38.6642   58.6934   65.9510 O   0  0  0  0  0  0  0  0  0  0  0  0
  -38.9464   60.1005   66.2508 C   0  0  0  0  0  0  0  0  0  0  0  0
  -40.4373   60.2534   66.4166 C   0  0  0  0  0  0  0  0  0  0  0  0
  -38.4144   60.8840   65.0666 C   0  0  0  0  0  0  0  0  0  0  0  0
  -36.9383   62.6897   65.7013 N   0  0  0  0  0  0  0  0  0  0  0  0
  -36.0268   60.7172   65.1184 O   0  0  0  0  0  0  0  0  0  0  0  0
  -37.0183   61.4199   65.2932 C   0  0  0  0  0  0  0  0  0  0  0  0
  -37.7679   63.2055   65.8247 H   0  0  0  0  0  0  0  0  0  0  0  0
  -34.1322   64.7463   64.7064 N   0  0  0  0  0  0  0  0  0  0  0  0
  -35.5025   63.3742   63.5793 O   0  0  0  0  0  0  0  0  0  0  0  0
  -35.6627   63.3309   65.9682 C   0  0  0  0  0  0  0  0  0  0  0  0
  -34.6934   62.3300   66.6070 C   0  0  0  0  0  0  0  0  0  0  0  0
  -33.5216   62.9885   67.3270 C   0  0  0  0  0  0  0  0  0  0  0  0
  -32.6072   63.8247   66.4539 C   0  0  0  0  0  0  0  0  0  0  0  0
  -33.2723   65.0424   65.8473 C   0  0  0  0  0  0  0  0  0  0  0  0
  -35.0912   63.8196   64.6467 C   0  0  0  0  0  0  0  0  0  0  0  0
  -33.9906   65.2867   63.8958 H   0  0  0  0  0  0  0  0  0  0  0  0
  -39.7884   56.9560   62.9036 C   0  0  0  0  0  0  0  0  0  0  0  0
  -40.8982   57.6007   62.0802 C   0  0  0  0  0  0  0  0  0  0  0  0
  -41.9303   58.3200   62.9286 C   0  0  0  0  0  0  0  0  0  0  0  0
  -43.0833   57.4559   63.3907 C   0  0  0  0  0  0  0  0  0  0  0  0
  -43.8566   58.1262   64.4239 N   0  0  0  0  0  0  0  0  0  0  0  0
  -44.9201   56.2488   65.0860 O   0  0  0  0  0  0  0  0  0  0  0  0
  -44.7244   57.4698   65.2016 C   0  0  0  0  0  0  0  0  0  0  0  0
  -43.7373   59.0946   64.5553 H   0  0  0  0  0  0  0  0  0  0  0  0
  -46.6740   58.8443   65.8967 C   0  0  0  0  0  0  0  0  0  0  0  0
  -45.4760   58.3312   66.1416 C   0  0  0  0  0  0  0  0  0  0  0  0
  -47.5162   58.6630   64.6726 C   0  0  0  0  0  0  0  0  0  0  0  0
  -48.1876   59.9647   64.2519 C   0  0  0  0  0  0  0  0  0  0  0  0
  -49.3793   60.3464   65.1129 C   0  0  0  0  0  0  0  0  0  0  0  0
  -50.6878   59.7286   64.6487 C   0  0  0  0  0  0  0  0  0  0  0  0
  -50.8761   59.7190   63.1434 C   0  0  0  0  0  0  0  0  0  0  0  0
  -51.1226   58.3321   62.5731 C   0  0  0  0  0  0  0  0  0  0  0  0
  -50.7007   58.1896   61.1238 C   0  0  0  0  0  0  0  0  0  0  0  0
  -49.3243   57.5761   60.9627 C   0  0  0  0  0  0  0  0  0  0  0  0
  -49.3303   56.1593   60.4215 C   0  0  0  0  0  0  0  0  0  0  0  0
  -48.4419   55.9936   59.2043 C   0  0  0  0  0  0  0  0  0  0  0  0
  -48.6860   57.0473   58.1365 C   0  0  0  0  0  0  0  0  0  0  0  0
  -48.0883   56.7093   56.7818 C   0  0  0  0  0  0  0  0  0  0  0  0
  -46.6019   57.0085   56.6632 C   0  0  0  0  0  0  0  0  0  0  0  0
  -46.1070   58.0729   57.6331 C   0  0  0  0  0  0  0  0  0  0  0  0
  -44.5917   58.1766   57.6955 C   0  0  0  0  0  0  0  0  0  0  0  0
  -42.5383   59.2236   56.6643 C   0  0  0  0  0  0  0  0  0  0  0  0
  -43.9487   58.7437   56.4430 C   0  0  0  0  0  0  0  0  0  0  0  0
 43 45  1  0  0  0
 43 42  1  0  0  0
 43 46  1  0  0  0
 64 65  1  0  0  0
 44 45  2  0  0  0
 65 63  1  0  0  0
  2  1  1  0  0  0
  2  4  1  0  0  0
  2  5  1  0  0  0
  3  4  2  0  0  0
 63 62  1  0  0  0
  6  8  1  0  0  0
  6 11  2  0  0  0
  7 10  1  0  0  0
  7 11  1  0  0  0
 62 61  1  0  0  0
 26 28  1  0  0  0
 26 32  1  0  0  0
 26 29  1  0  0  0
 12 18  1  0  0  0
 12 19  1  0  0  0
 61 60  1  0  0  0
 30 36  1  0  0  0
 30 37  1  0  0  0
 30 38  1  0  0  0
 20 21  2  0  0  0
 60 59  1  0  0  0
 22 21  1  0  0  0
 22 23  1  0  0  0
 59 58  1  0  0  0
 27 28  2  0  0  0
 58 57  1  0  0  0
 31 37  2  0  0  0
 57 56  1  0  0  0
 56 55  1  0  0  0
 55 54  1  0  0  0
 54 53  1  0  0  0
 53 52  1  0  0  0
 52 51  1  0  0  0
 51 50  1  0  0  0
 50 49  1  0  0  0
 49 47  1  0  0  0
 47 48  2  0  0  0
 48 45  1  0  0  0
 42 41  1  0  0  0
 41 40  1  0  0  0
 40 39  1  0  0  0
 39  1  1  0  0  0
  1 21  1  0  0  0
  8  4  1  0  0  0
  8  9  1  0  0  0
  8 10  1  0  0  0
 11 13  1  0  0  0
 13 14  2  0  0  0
 13 18  1  0  0  0
 14 15  1  0  0  0
 15 16  2  0  0  0
 16 17  1  0  0  0
 17 18  2  0  0  0
 23 24  1  0  0  0
 23 25  1  0  0  0
 25 28  1  0  0  0
 32 33  1  0  0  0
 32 37  1  0  0  0
 33 34  1  0  0  0
 34 35  1  0  0  0
 35 36  1  0  0  0
M  END
> <minimizedAffinity>
-7.74131

> <CNNscore>
0.1837847531

> <CNNaffinity>
7.2668318748

> <CNN_VS>
1.3355329037

> <CNNaffinity_variance>
0.3241049647

$$$$
/media/chris/experiments/cd1a-new-docking/inputs/ligands/7ryo_ligand.pdb


 65 67  0  0  0  0  0  0  0  0999 V2000
  -38.5326   57.4047   64.3895 C   0  0  0  0  0  0  0  0  0  0  0  0
  -37.5166   58.0761   63.5962 N   0  0  0  0  0  0  0  0  0  0  0  0
  -35.8107   57.1455   64.7266 O   0  0  0  0  0  0  0  0  0  0  0  0
  -36.2184   57.8823   63.8410 C   0  0  0  0  0  0  0  0  0  0  0  0
  -37.7890   58.6815   62.8691 H   0  0  0  0  0  0  0  0  0  0  0  0
  -35.4188   60.0985   63.1192 N   0  0  0  0  0  0  0  0  0  0  0  0
  -33.2200   59.7880   63.5089 O   0  0  0  0  0  0  0  0  0  0  0  0
  -35.2088   58.6488   62.9708 C   0  0  0  0  0  0  0  0  0  0  0  0
  -35.4228   58.2627   61.5104 C   0  0  0  0  0  0  0  0  0  0  0  0
  -33.7502   58.4422   63.4048 C   0  0  0  0  0  0  0  0  0  0  0  0
  -34.2955   60.6119   63.4091 C   0  0  0  0  0  0  0  0  0  0  0  0
  -36.2076   62.3624   64.6594 O   0  0  0  0  0  0  0  0  0  0  0  0
  -34.0304   62.0328   63.6463 C   0  0  0  0  0  0  0  0  0  0  0  0
  -32.7629   62.5603   63.3968 C   0  0  0  0  0  0  0  0  0  0  0  0
  -32.4300   63.8284   63.8408 C   0  0  0  0  0  0  0  0  0  0  0  0
  -33.3466   64.5874   64.5354 C   0  0  0  0  0  0  0  0  0  0  0  0
  -34.6082   64.0862   64.7998 C   0  0  0  0  0  0  0  0  0  0  0  0
  -34.9607   62.8130   64.3635 C   0  0  0  0  0  0  0  0  0  0  0  0
  -36.4760   61.5092   64.3800 H   0  0  0  0  0  0  0  0  0  0  0  0
  -39.8069   56.6330   62.4866 O   0  0  0  0  0  0  0  0  0  0  0  0
  -39.7888   57.1464   63.5711 C   0  0  0  0  0  0  0  0  0  0  0  0
  -40.8765   57.5927   64.2231 O   0  0  0  0  0  0  0  0  0  0  0  0
  -41.9781   56.6532   64.4544 C   0  0  0  0  0  0  0  0  0  0  0  0
  -42.9199   56.7386   63.2800 C   0  0  0  0  0  0  0  0  0  0  0  0
  -42.6288   57.0992   65.7493 C   0  0  0  0  0  0  0  0  0  0  0  0
  -45.0245   57.2141   66.0486 N   0  0  0  0  0  0  0  0  0  0  0  0
  -44.0053   58.8768   64.9267 O   0  0  0  0  0  0  0  0  0  0  0  0
  -43.9459   57.8107   65.5330 C   0  0  0  0  0  0  0  0  0  0  0  0
  -44.9163   56.3594   66.5251 H   0  0  0  0  0  0  0  0  0  0  0  0
  -47.6105   59.5183   67.0959 N   0  0  0  0  0  0  0  0  0  0  0  0
  -45.9655   58.4593   68.1926 O   0  0  0  0  0  0  0  0  0  0  0  0
  -46.3521   57.7903   65.9261 C   0  0  0  0  0  0  0  0  0  0  0  0
  -47.4004   56.6781   65.8092 C   0  0  0  0  0  0  0  0  0  0  0  0
  -48.7310   57.1506   65.2334 C   0  0  0  0  0  0  0  0  0  0  0  0
  -49.4553   58.2050   66.0466 C   0  0  0  0  0  0  0  0  0  0  0  0
  -48.7189   59.5245   66.1472 C   0  0  0  0  0  0  0  0  0  0  0  0
  -46.6267   58.6191   67.1709 C   0  0  0  0  0  0  0  0  0  0  0  0
  -47.5854   60.2545   67.7490 H   0  0  0  0  0  0  0  0  0  0  0  0
  -38.8595   58.1952   65.6573 C   0  0  0  0  0  0  0  0  0  0  0  0
  -38.4851   59.6684   65.5354 C   0  0  0  0  0  0  0  0  0  0  0  0
  -39.3150   60.5714   66.4288 C   0  0  0  0  0  0  0  0  0  0  0  0
  -40.8107   60.4544   66.2328 C   0  0  0  0  0  0  0  0  0  0  0  0
  -41.1473   60.3741   64.8203 N   0  0  0  0  0  0  0  0  0  0  0  0
  -41.7711   62.5380   64.6702 O   0  0  0  0  0  0  0  0  0  0  0  0
  -41.6060   61.4285   64.1371 C   0  0  0  0  0  0  0  0  0  0  0  0
  -41.0338   59.5157   64.3517 H   0  0  0  0  0  0  0  0  0  0  0  0
  -41.1151   60.7200   61.8068 C   0  0  0  0  0  0  0  0  0  0  0  0
  -41.9687   61.1361   62.7324 C   0  0  0  0  0  0  0  0  0  0  0  0
  -39.6527   60.4430   61.9665 C   0  0  0  0  0  0  0  0  0  0  0  0
  -39.1084   59.6046   60.8163 C   0  0  0  0  0  0  0  0  0  0  0  0
  -40.1479   58.7095   60.1642 C   0  0  0  0  0  0  0  0  0  0  0  0
  -40.5371   59.1504   58.7629 C   0  0  0  0  0  0  0  0  0  0  0  0
  -41.8496   58.5731   58.2671 C   0  0  0  0  0  0  0  0  0  0  0  0
  -42.1633   58.9347   56.8248 C   0  0  0  0  0  0  0  0  0  0  0  0
  -43.6484   59.0022   56.5268 C   0  0  0  0  0  0  0  0  0  0  0  0
  -44.4925   58.2519   57.5375 C   0  0  0  0  0  0  0  0  0  0  0  0
  -45.8961   57.9280   57.0629 C   0  0  0  0  0  0  0  0  0  0  0  0
  -46.9636   58.3820   58.0390 C   0  0  0  0  0  0  0  0  0  0  0  0
  -47.1961   57.3972   59.1732 C   0  0  0  0  0  0  0  0  0  0  0  0
  -48.5631   56.7358   59.1514 C   0  0  0  0  0  0  0  0  0  0  0  0
  -49.6738   57.5781   59.7596 C   0  0  0  0  0  0  0  0  0  0  0  0
  -49.7675   57.4746   61.2758 C   0  0  0  0  0  0  0  0  0  0  0  0
  -51.1041   57.9381   61.8322 C   0  0  0  0  0  0  0  0  0  0  0  0
  -49.8383   59.9681   62.6402 C   0  0  0  0  0  0  0  0  0  0  0  0
  -51.0042   59.0425   62.8687 C   0  0  0  0  0  0  0  0  0  0  0  0
 43 45  1  0  0  0
 43 42  1  0  0  0
 43 46  1  0  0  0
 64 65  1  0  0  0
 44 45  2  0  0  0
 65 63  1  0  0  0
  2  1  1  0  0  0
  2  4  1  0  0  0
  2  5  1  0  0  0
  3  4  2  0  0  0
 63 62  1  0  0  0
  6  8  1  0  0  0
  6 11  2  0  0  0
  7 10  1  0  0  0
  7 11  1  0  0  0
 62 61  1  0  0  0
 26 28  1  0  0  0
 26 32  1  0  0  0
 26 29  1  0  0  0
 12 18  1  0  0  0
 12 19  1  0  0  0
 61 60  1  0  0  0
 30 36  1  0  0  0
 30 37  1  0  0  0
 30 38  1  0  0  0
 20 21  2  0  0  0
 60 59  1  0  0  0
 22 21  1  0  0  0
 22 23  1  0  0  0
 59 58  1  0  0  0
 27 28  2  0  0  0
 58 57  1  0  0  0
 31 37  2  0  0  0
 57 56  1  0  0  0
 56 55  1  0  0  0
 55 54  1  0  0  0
 54 53  1  0  0  0
 53 52  1  0  0  0
 52 51  1  0  0  0
 51 50  1  0  0  0
 50 49  1  0  0  0
 49 47  1  0  0  0
 47 48  2  0  0  0
 48 45  1  0  0  0
 42 41  1  0  0  0
 41 40  1  0  0  0
 40 39  1  0  0  0
 39  1  1  0  0  0
  1 21  1  0  0  0
  8  4  1  0  0  0
  8  9  1  0  0  0
  8 10  1  0  0  0
 11 13  1  0  0  0
 13 14  2  0  0  0
 13 18  1  0  0  0
 14 15  1  0  0  0
 15 16  2  0  0  0
 16 17  1  0  0  0
 17 18  2  0  0  0
 23 24  1  0  0  0
 23 25  1  0  0  0
 25 28  1  0  0  0
 32 33  1  0  0  0
 32 37  1  0  0  0
 33 34  1  0  0  0
 34 35  1  0  0  0
 35 36  1  0  0  0
M  END
> <minimizedAffinity>
-8.44962

> <CNNscore>
0.1511795968

> <CNNaffinity>
7.7853021622

> <CNN_VS>
1.1769788265

> <CNNaffinity_variance>
1.8909288645

$$$$
/media/chris/experiments/cd1a-new-docking/inputs/ligands/7ryo_ligand.pdb


 65 67  0  0  0  0  0  0  0  0999 V2000
  -36.6380   61.5240   65.2008 C   0  0  0  0  0  0  0  0  0  0  0  0
  -36.7943   60.1920   64.6406 N   0  0  0  0  0  0  0  0  0  0  0  0
  -36.2501   60.8446   62.5593 O   0  0  0  0  0  0  0  0  0  0  0  0
  -36.5818   59.9665   63.3418 C   0  0  0  0  0  0  0  0  0  0  0  0
  -37.0602   59.4465   65.2262 H   0  0  0  0  0  0  0  0  0  0  0  0
  -38.1386   58.0626   63.1887 N   0  0  0  0  0  0  0  0  0  0  0  0
  -37.9723   57.6908   60.9711 O   0  0  0  0  0  0  0  0  0  0  0  0
  -36.7917   58.5335   62.8256 C   0  0  0  0  0  0  0  0  0  0  0  0
  -35.7549   57.6193   63.4714 C   0  0  0  0  0  0  0  0  0  0  0  0
  -36.7658   58.4281   61.2937 C   0  0  0  0  0  0  0  0  0  0  0  0
  -38.6850   57.6354   62.1264 C   0  0  0  0  0  0  0  0  0  0  0  0
  -40.7218   58.7909   60.4532 O   0  0  0  0  0  0  0  0  0  0  0  0
  -40.0317   57.0701   62.0146 C   0  0  0  0  0  0  0  0  0  0  0  0
  -40.3311   55.8483   62.6185 C   0  0  0  0  0  0  0  0  0  0  0  0
  -41.5114   55.1889   62.3218 C   0  0  0  0  0  0  0  0  0  0  0  0
  -42.4071   55.7305   61.4257 C   0  0  0  0  0  0  0  0  0  0  0  0
  -42.1322   56.9380   60.8099 C   0  0  0  0  0  0  0  0  0  0  0  0
  -40.9502   57.6148   61.0937 C   0  0  0  0  0  0  0  0  0  0  0  0
  -39.9352   59.2712   60.6220 H   0  0  0  0  0  0  0  0  0  0  0  0
  -34.4511   61.5858   66.2274 O   0  0  0  0  0  0  0  0  0  0  0  0
  -35.1693   61.9026   65.3197 C   0  0  0  0  0  0  0  0  0  0  0  0
  -34.7916   62.6605   64.2755 O   0  0  0  0  0  0  0  0  0  0  0  0
  -33.4187   63.1747   64.2551 C   0  0  0  0  0  0  0  0  0  0  0  0
  -33.4719   64.6600   64.5096 C   0  0  0  0  0  0  0  0  0  0  0  0
  -32.8804   62.8445   62.8766 C   0  0  0  0  0  0  0  0  0  0  0  0
  -32.6488   60.5131   62.2823 N   0  0  0  0  0  0  0  0  0  0  0  0
  -30.9305   61.5285   63.3208 O   0  0  0  0  0  0  0  0  0  0  0  0
  -32.0643   61.5713   62.8515 C   0  0  0  0  0  0  0  0  0  0  0  0
  -33.5605   60.6064   61.9227 H   0  0  0  0  0  0  0  0  0  0  0  0
  -32.0871   57.3293   60.6570 N   0  0  0  0  0  0  0  0  0  0  0  0
  -33.8866   58.6537   60.8528 O   0  0  0  0  0  0  0  0  0  0  0  0
  -31.9775   59.2293   62.1789 C   0  0  0  0  0  0  0  0  0  0  0  0
  -31.9713   58.5268   63.5412 C   0  0  0  0  0  0  0  0  0  0  0  0
  -30.9280   57.4203   63.6535 C   0  0  0  0  0  0  0  0  0  0  0  0
  -31.0960   56.2658   62.6857 C   0  0  0  0  0  0  0  0  0  0  0  0
  -30.9309   56.6482   61.2298 C   0  0  0  0  0  0  0  0  0  0  0  0
  -32.7337   58.3779   61.1713 C   0  0  0  0  0  0  0  0  0  0  0  0
  -32.4258   56.9790   59.8016 H   0  0  0  0  0  0  0  0  0  0  0  0
  -37.3443   61.6446   66.5520 C   0  0  0  0  0  0  0  0  0  0  0  0
  -38.2198   60.4344   66.8592 C   0  0  0  0  0  0  0  0  0  0  0  0
  -39.5361   60.4425   66.1043 C   0  0  0  0  0  0  0  0  0  0  0  0
  -39.9422   59.1047   65.5258 C   0  0  0  0  0  0  0  0  0  0  0  0
  -41.3034   59.1481   65.0158 N   0  0  0  0  0  0  0  0  0  0  0  0
  -41.6938   56.9560   65.3848 O   0  0  0  0  0  0  0  0  0  0  0  0
  -42.0855   58.0636   64.9821 C   0  0  0  0  0  0  0  0  0  0  0  0
  -41.6609   60.0036   64.6847 H   0  0  0  0  0  0  0  0  0  0  0  0
  -44.5700   58.0710   64.9618 C   0  0  0  0  0  0  0  0  0  0  0  0
  -43.4090   58.2834   64.3573 C   0  0  0  0  0  0  0  0  0  0  0  0
  -44.8010   57.5980   66.3631 C   0  0  0  0  0  0  0  0  0  0  0  0
  -46.2851   57.4273   66.6635 C   0  0  0  0  0  0  0  0  0  0  0  0
  -46.9305   58.6545   67.2837 C   0  0  0  0  0  0  0  0  0  0  0  0
  -48.0757   59.2208   66.4608 C   0  0  0  0  0  0  0  0  0  0  0  0
  -49.2040   58.2406   66.2005 C   0  0  0  0  0  0  0  0  0  0  0  0
  -50.5483   58.9117   65.9727 C   0  0  0  0  0  0  0  0  0  0  0  0
  -50.4357   60.3405   65.4782 C   0  0  0  0  0  0  0  0  0  0  0  0
  -50.4262   60.4477   63.9665 C   0  0  0  0  0  0  0  0  0  0  0  0
  -51.1767   59.3377   63.2558 C   0  0  0  0  0  0  0  0  0  0  0  0
  -50.2515   58.3130   62.6297 C   0  0  0  0  0  0  0  0  0  0  0  0
  -50.8285   57.6697   61.3793 C   0  0  0  0  0  0  0  0  0  0  0  0
  -49.7883   57.0487   60.4634 C   0  0  0  0  0  0  0  0  0  0  0  0
  -48.7952   58.0433   59.8821 C   0  0  0  0  0  0  0  0  0  0  0  0
  -47.5555   57.3971   59.2788 C   0  0  0  0  0  0  0  0  0  0  0  0
  -46.9149   58.2281   58.1789 C   0  0  0  0  0  0  0  0  0  0  0  0
  -46.9459   55.9987   56.9934 C   0  0  0  0  0  0  0  0  0  0  0  0
  -46.4859   57.4325   56.9594 C   0  0  0  0  0  0  0  0  0  0  0  0
 43 45  1  0  0  0
 43 42  1  0  0  0
 43 46  1  0  0  0
 64 65  1  0  0  0
 44 45  2  0  0  0
 65 63  1  0  0  0
  2  1  1  0  0  0
  2  4  1  0  0  0
  2  5  1  0  0  0
  3  4  2  0  0  0
 63 62  1  0  0  0
  6  8  1  0  0  0
  6 11  2  0  0  0
  7 10  1  0  0  0
  7 11  1  0  0  0
 62 61  1  0  0  0
 26 28  1  0  0  0
 26 32  1  0  0  0
 26 29  1  0  0  0
 12 18  1  0  0  0
 12 19  1  0  0  0
 61 60  1  0  0  0
 30 36  1  0  0  0
 30 37  1  0  0  0
 30 38  1  0  0  0
 20 21  2  0  0  0
 60 59  1  0  0  0
 22 21  1  0  0  0
 22 23  1  0  0  0
 59 58  1  0  0  0
 27 28  2  0  0  0
 58 57  1  0  0  0
 31 37  2  0  0  0
 57 56  1  0  0  0
 56 55  1  0  0  0
 55 54  1  0  0  0
 54 53  1  0  0  0
 53 52  1  0  0  0
 52 51  1  0  0  0
 51 50  1  0  0  0
 50 49  1  0  0  0
 49 47  1  0  0  0
 47 48  2  0  0  0
 48 45  1  0  0  0
 42 41  1  0  0  0
 41 40  1  0  0  0
 40 39  1  0  0  0
 39  1  1  0  0  0
  1 21  1  0  0  0
  8  4  1  0  0  0
  8  9  1  0  0  0
  8 10  1  0  0  0
 11 13  1  0  0  0
 13 14  2  0  0  0
 13 18  1  0  0  0
 14 15  1  0  0  0
 15 16  2  0  0  0
 16 17  1  0  0  0
 17 18  2  0  0  0
 23 24  1  0  0  0
 23 25  1  0  0  0
 25 28  1  0  0  0
 32 33  1  0  0  0
 32 37  1  0  0  0
 33 34  1  0  0  0
 34 35  1  0  0  0
 35 36  1  0  0  0
M  END
> <minimizedAffinity>
-9.76880

> <CNNscore>
0.1509549916

> <CNNaffinity>
7.4641151428

> <CNN_VS>
1.1267454624

> <CNNaffinity_variance>
0.9833327532

$$$$
/media/chris/experiments/cd1a-new-docking/inputs/ligands/7ryo_ligand.pdb


 65 67  0  0  0  0  0  0  0  0999 V2000
  -36.2299   59.4227   65.3454 C   0  0  0  0  0  0  0  0  0  0  0  0
  -35.4791   60.6668   65.3126 N   0  0  0  0  0  0  0  0  0  0  0  0
  -36.8308   61.6914   66.7881 O   0  0  0  0  0  0  0  0  0  0  0  0
  -35.8548   61.7125   66.0530 C   0  0  0  0  0  0  0  0  0  0  0  0
  -34.6834   60.7393   64.7374 H   0  0  0  0  0  0  0  0  0  0  0  0
  -33.7755   62.7257   65.2033 N   0  0  0  0  0  0  0  0  0  0  0  0
  -34.6884   64.5067   64.1651 O   0  0  0  0  0  0  0  0  0  0  0  0
  -35.0193   62.9985   65.9423 C   0  0  0  0  0  0  0  0  0  0  0  0
  -34.6675   63.4809   67.3464 C   0  0  0  0  0  0  0  0  0  0  0  0
  -35.7027   64.0998   65.1184 C   0  0  0  0  0  0  0  0  0  0  0  0
  -33.6958   63.5856   64.2740 C   0  0  0  0  0  0  0  0  0  0  0  0
  -32.7723   61.3426   62.7249 O   0  0  0  0  0  0  0  0  0  0  0  0
  -32.6178   63.6950   63.2884 C   0  0  0  0  0  0  0  0  0  0  0  0
  -32.0910   64.9453   62.9620 C   0  0  0  0  0  0  0  0  0  0  0  0
  -31.2537   65.0912   61.8694 C   0  0  0  0  0  0  0  0  0  0  0  0
  -30.9289   64.0031   61.0891 C   0  0  0  0  0  0  0  0  0  0  0  0
  -31.4412   62.7538   61.3882 C   0  0  0  0  0  0  0  0  0  0  0  0
  -32.2861   62.5875   62.4811 C   0  0  0  0  0  0  0  0  0  0  0  0
  -33.3437   61.1972   63.4530 H   0  0  0  0  0  0  0  0  0  0  0  0
  -35.5123   57.1269   65.1107 O   0  0  0  0  0  0  0  0  0  0  0  0
  -35.4168   58.2733   64.7689 C   0  0  0  0  0  0  0  0  0  0  0  0
  -34.5596   58.7233   63.8360 O   0  0  0  0  0  0  0  0  0  0  0  0
  -33.8482   57.7367   63.0174 C   0  0  0  0  0  0  0  0  0  0  0  0
  -32.3682   57.9805   63.1722 C   0  0  0  0  0  0  0  0  0  0  0  0
  -34.3251   57.9664   61.5964 C   0  0  0  0  0  0  0  0  0  0  0  0
  -36.3985   59.0814   61.0484 N   0  0  0  0  0  0  0  0  0  0  0  0
  -36.4835   56.9397   61.7323 O   0  0  0  0  0  0  0  0  0  0  0  0
  -35.8322   57.9469   61.4698 C   0  0  0  0  0  0  0  0  0  0  0  0
  -35.8256   59.8578   60.8529 H   0  0  0  0  0  0  0  0  0  0  0  0
  -39.3713   59.0449   58.9858 N   0  0  0  0  0  0  0  0  0  0  0  0
  -37.2363   59.6049   58.5873 O   0  0  0  0  0  0  0  0  0  0  0  0
  -37.8350   59.2020   60.8707 C   0  0  0  0  0  0  0  0  0  0  0  0
  -38.3493   60.4612   61.5773 C   0  0  0  0  0  0  0  0  0  0  0  0
  -39.8515   60.4444   61.8391 C   0  0  0  0  0  0  0  0  0  0  0  0
  -40.7274   60.3760   60.6038 C   0  0  0  0  0  0  0  0  0  0  0  0
  -40.5763   59.0973   59.8067 C   0  0  0  0  0  0  0  0  0  0  0  0
  -38.1223   59.3017   59.3809 C   0  0  0  0  0  0  0  0  0  0  0  0
  -39.4919   58.7938   58.0416 H   0  0  0  0  0  0  0  0  0  0  0  0
  -37.5687   59.5628   64.6193 C   0  0  0  0  0  0  0  0  0  0  0  0
  -38.6030   58.5554   65.1098 C   0  0  0  0  0  0  0  0  0  0  0  0
  -40.0324   59.0342   64.9357 C   0  0  0  0  0  0  0  0  0  0  0  0
  -40.9895   58.5751   66.0138 C   0  0  0  0  0  0  0  0  0  0  0  0
  -42.3607   58.5759   65.5294 N   0  0  0  0  0  0  0  0  0  0  0  0
  -42.2814   56.4452   64.7891 O   0  0  0  0  0  0  0  0  0  0  0  0
  -42.9107   57.5040   64.9485 C   0  0  0  0  0  0  0  0  0  0  0  0
  -42.9017   59.3920   65.6325 H   0  0  0  0  0  0  0  0  0  0  0  0
  -45.3480   57.9004   65.2241 C   0  0  0  0  0  0  0  0  0  0  0  0
  -44.2874   57.7181   64.4492 C   0  0  0  0  0  0  0  0  0  0  0  0
  -45.3933   57.9489   66.7196 C   0  0  0  0  0  0  0  0  0  0  0  0
  -46.7576   57.5334   67.2564 C   0  0  0  0  0  0  0  0  0  0  0  0
  -47.6397   56.8493   66.2263 C   0  0  0  0  0  0  0  0  0  0  0  0
  -48.9953   57.5129   66.0495 C   0  0  0  0  0  0  0  0  0  0  0  0
  -49.0005   59.0064   66.3160 C   0  0  0  0  0  0  0  0  0  0  0  0
  -48.5689   59.8364   65.1183 C   0  0  0  0  0  0  0  0  0  0  0  0
  -49.6823   60.6858   64.5374 C   0  0  0  0  0  0  0  0  0  0  0  0
  -50.9924   59.9363   64.4004 C   0  0  0  0  0  0  0  0  0  0  0  0
  -51.1086   59.1053   63.1370 C   0  0  0  0  0  0  0  0  0  0  0  0
  -50.3098   59.6790   61.9833 C   0  0  0  0  0  0  0  0  0  0  0  0
  -49.4258   58.6506   61.2968 C   0  0  0  0  0  0  0  0  0  0  0  0
  -50.1010   57.9161   60.1516 C   0  0  0  0  0  0  0  0  0  0  0  0
  -49.2019   57.6738   58.9491 C   0  0  0  0  0  0  0  0  0  0  0  0
  -47.7144   57.7513   59.2648 C   0  0  0  0  0  0  0  0  0  0  0  0
  -46.8534   58.0563   58.0496 C   0  0  0  0  0  0  0  0  0  0  0  0
  -47.0541   55.7877   56.9590 C   0  0  0  0  0  0  0  0  0  0  0  0
  -47.2274   57.2757   56.8027 C   0  0  0  0  0  0  0  0  0  0  0  0
 43 45  1  0  0  0
 43 42  1  0  0  0
 43 46  1  0  0  0
 64 65  1  0  0  0
 44 45  2  0  0  0
 65 63  1  0  0  0
  2  1  1  0  0  0
  2  4  1  0  0  0
  2  5  1  0  0  0
  3  4  2  0  0  0
 63 62  1  0  0  0
  6  8  1  0  0  0
  6 11  2  0  0  0
  7 10  1  0  0  0
  7 11  1  0  0  0
 62 61  1  0  0  0
 26 28  1  0  0  0
 26 32  1  0  0  0
 26 29  1  0  0  0
 12 18  1  0  0  0
 12 19  1  0  0  0
 61 60  1  0  0  0
 30 36  1  0  0  0
 30 37  1  0  0  0
 30 38  1  0  0  0
 20 21  2  0  0  0
 60 59  1  0  0  0
 22 21  1  0  0  0
 22 23  1  0  0  0
 59 58  1  0  0  0
 27 28  2  0  0  0
 58 57  1  0  0  0
 31 37  2  0  0  0
 57 56  1  0  0  0
 56 55  1  0  0  0
 55 54  1  0  0  0
 54 53  1  0  0  0
 53 52  1  0  0  0
 52 51  1  0  0  0
 51 50  1  0  0  0
 50 49  1  0  0  0
 49 47  1  0  0  0
 47 48  2  0  0  0
 48 45  1  0  0  0
 42 41  1  0  0  0
 41 40  1  0  0  0
 40 39  1  0  0  0
 39  1  1  0  0  0
  1 21  1  0  0  0
  8  4  1  0  0  0
  8  9  1  0  0  0
  8 10  1  0  0  0
 11 13  1  0  0  0
 13 14  2  0  0  0
 13 18  1  0  0  0
 14 15  1  0  0  0
 15 16  2  0  0  0
 16 17  1  0  0  0
 17 18  2  0  0  0
 23 24  1  0  0  0
 23 25  1  0  0  0
 25 28  1  0  0  0
 32 33  1  0  0  0
 32 37  1  0  0  0
 33 34  1  0  0  0
 34 35  1  0  0  0
 35 36  1  0  0  0
M  END
> <minimizedAffinity>
-10.23805

> <CNNscore>
0.1461705863

> <CNNaffinity>
7.2974214554

> <CNN_VS>
1.0666683912

> <CNNaffinity_variance>
1.3901598454

$$$$
