/media/chris/experiments/cd1a-new-docking/inputs/ligands/7ryo_ligand.pdb


 65 67  0  0  0  0  0  0  0  0999 V2000
  -35.4262   58.7776   62.3944 C   0  0  0  0  0  0  0  0  0  0  0  0
  -33.9769   58.8381   62.3035 N   0  0  0  0  0  0  0  0  0  0  0  0
  -33.7480   56.6078   62.1397 O   0  0  0  0  0  0  0  0  0  0  0  0
  -33.2516   57.7237   62.1816 C   0  0  0  0  0  0  0  0  0  0  0  0
  -33.5241   59.7120   62.3322 H   0  0  0  0  0  0  0  0  0  0  0  0
  -31.3727   59.1622   61.4942 N   0  0  0  0  0  0  0  0  0  0  0  0
  -30.2100   59.1145   63.4252 O   0  0  0  0  0  0  0  0  0  0  0  0
  -31.7229   57.8741   62.1154 C   0  0  0  0  0  0  0  0  0  0  0  0
  -31.1517   56.7417   61.2673 C   0  0  0  0  0  0  0  0  0  0  0  0
  -31.0569   57.9395   63.4978 C   0  0  0  0  0  0  0  0  0  0  0  0
  -30.5622   59.7469   62.2756 C   0  0  0  0  0  0  0  0  0  0  0  0
  -29.5919   60.6046   59.7053 O   0  0  0  0  0  0  0  0  0  0  0  0
  -29.9482   61.0591   62.0594 C   0  0  0  0  0  0  0  0  0  0  0  0
  -29.9433   62.0075   63.0829 C   0  0  0  0  0  0  0  0  0  0  0  0
  -29.5916   63.3207   62.8218 C   0  0  0  0  0  0  0  0  0  0  0  0
  -29.2410   63.7088   61.5470 C   0  0  0  0  0  0  0  0  0  0  0  0
  -29.2422   62.7893   60.5140 C   0  0  0  0  0  0  0  0  0  0  0  0
  -29.5949   61.4654   60.7562 C   0  0  0  0  0  0  0  0  0  0  0  0
  -29.8245   59.7062   59.8349 H   0  0  0  0  0  0  0  0  0  0  0  0
  -35.4907   57.7753   64.5924 O   0  0  0  0  0  0  0  0  0  0  0  0
  -35.8815   58.6225   63.8377 C   0  0  0  0  0  0  0  0  0  0  0  0
  -36.7999   59.5547   64.1453 O   0  0  0  0  0  0  0  0  0  0  0  0
  -37.3715   59.5434   65.4954 C   0  0  0  0  0  0  0  0  0  0  0  0
  -38.4364   58.4769   65.5435 C   0  0  0  0  0  0  0  0  0  0  0  0
  -37.9374   60.9338   65.7101 C   0  0  0  0  0  0  0  0  0  0  0  0
  -35.9995   62.1186   64.8838 N   0  0  0  0  0  0  0  0  0  0  0  0
  -36.8109   62.6741   66.9072 O   0  0  0  0  0  0  0  0  0  0  0  0
  -36.8654   61.9851   65.8925 C   0  0  0  0  0  0  0  0  0  0  0  0
  -36.0920   61.5379   64.0941 H   0  0  0  0  0  0  0  0  0  0  0  0
  -33.2219   63.8617   63.3539 N   0  0  0  0  0  0  0  0  0  0  0  0
  -34.0618   61.7972   63.1017 O   0  0  0  0  0  0  0  0  0  0  0  0
  -34.9258   63.0961   64.9187 C   0  0  0  0  0  0  0  0  0  0  0  0
  -34.1061   62.9325   66.2036 C   0  0  0  0  0  0  0  0  0  0  0  0
  -33.2682   64.1574   66.5540 C   0  0  0  0  0  0  0  0  0  0  0  0
  -32.2137   64.5389   65.5342 C   0  0  0  0  0  0  0  0  0  0  0  0
  -32.7735   64.9671   64.1938 C   0  0  0  0  0  0  0  0  0  0  0  0
  -34.0311   62.8620   63.7118 C   0  0  0  0  0  0  0  0  0  0  0  0
  -32.8932   63.8518   62.4259 H   0  0  0  0  0  0  0  0  0  0  0  0
  -35.9912   57.6573   61.5199 C   0  0  0  0  0  0  0  0  0  0  0  0
  -37.5049   57.5267   61.6503 C   0  0  0  0  0  0  0  0  0  0  0  0
  -38.2665   58.4475   60.7151 C   0  0  0  0  0  0  0  0  0  0  0  0
  -39.6483   58.8348   61.1948 C   0  0  0  0  0  0  0  0  0  0  0  0
  -40.1832   57.8361   62.1067 N   0  0  0  0  0  0  0  0  0  0  0  0
  -41.6835   57.0361   60.6224 O   0  0  0  0  0  0  0  0  0  0  0  0
  -41.1683   57.0039   61.7521 C   0  0  0  0  0  0  0  0  0  0  0  0
  -39.8081   57.7706   63.0145 H   0  0  0  0  0  0  0  0  0  0  0  0
  -42.4212   56.4897   63.8351 C   0  0  0  0  0  0  0  0  0  0  0  0
  -41.6348   56.1113   62.8366 C   0  0  0  0  0  0  0  0  0  0  0  0
  -43.0099   57.8446   64.0758 C   0  0  0  0  0  0  0  0  0  0  0  0
  -44.3893   57.7546   64.7169 C   0  0  0  0  0  0  0  0  0  0  0  0
  -44.3588   57.7150   66.2350 C   0  0  0  0  0  0  0  0  0  0  0  0
  -45.6647   58.1469   66.8810 C   0  0  0  0  0  0  0  0  0  0  0  0
  -46.7659   58.4929   65.8964 C   0  0  0  0  0  0  0  0  0  0  0  0
  -48.0562   58.9395   66.5637 C   0  0  0  0  0  0  0  0  0  0  0  0
  -49.2966   58.2985   65.9730 C   0  0  0  0  0  0  0  0  0  0  0  0
  -50.4481   59.2704   65.8102 C   0  0  0  0  0  0  0  0  0  0  0  0
  -50.3742   60.1241   64.5588 C   0  0  0  0  0  0  0  0  0  0  0  0
  -51.3551   59.6832   63.4905 C   0  0  0  0  0  0  0  0  0  0  0  0
  -50.7270   58.7921   62.4314 C   0  0  0  0  0  0  0  0  0  0  0  0
  -49.8519   59.5329   61.4353 C   0  0  0  0  0  0  0  0  0  0  0  0
  -49.6074   58.7787   60.1375 C   0  0  0  0  0  0  0  0  0  0  0  0
  -48.9266   57.4300   60.3261 C   0  0  0  0  0  0  0  0  0  0  0  0
  -47.9157   57.1055   59.2379 C   0  0  0  0  0  0  0  0  0  0  0  0
  -46.1279   57.9900   57.6894 C   0  0  0  0  0  0  0  0  0  0  0  0
  -47.3134   58.3212   58.5573 C   0  0  0  0  0  0  0  0  0  0  0  0
 43 45  1  0  0  0
 43 42  1  0  0  0
 43 46  1  0  0  0
 64 65  1  0  0  0
 44 45  2  0  0  0
 65 63  1  0  0  0
  2  1  1  0  0  0
  2  4  1  0  0  0
  2  5  1  0  0  0
  3  4  2  0  0  0
 63 62  1  0  0  0
  6  8  1  0  0  0
  6 11  2  0  0  0
  7 10  1  0  0  0
  7 11  1  0  0  0
 62 61  1  0  0  0
 26 28  1  0  0  0
 26 32  1  0  0  0
 26 29  1  0  0  0
 12 18  1  0  0  0
 12 19  1  0  0  0
 61 60  1  0  0  0
 30 36  1  0  0  0
 30 37  1  0  0  0
 30 38  1  0  0  0
 20 21  2  0  0  0
 60 59  1  0  0  0
 22 21  1  0  0  0
 22 23  1  0  0  0
 59 58  1  0  0  0
 27 28  2  0  0  0
 58 57  1  0  0  0
 31 37  2  0  0  0
 57 56  1  0  0  0
 56 55  1  0  0  0
 55 54  1  0  0  0
 54 53  1  0  0  0
 53 52  1  0  0  0
 52 51  1  0  0  0
 51 50  1  0  0  0
 50 49  1  0  0  0
 49 47  1  0  0  0
 47 48  2  0  0  0
 48 45  1  0  0  0
 42 41  1  0  0  0
 41 40  1  0  0  0
 40 39  1  0  0  0
 39  1  1  0  0  0
  1 21  1  0  0  0
  8  4  1  0  0  0
  8  9  1  0  0  0
  8 10  1  0  0  0
 11 13  1  0  0  0
 13 14  2  0  0  0
 13 18  1  0  0  0
 14 15  1  0  0  0
 15 16  2  0  0  0
 16 17  1  0  0  0
 17 18  2  0  0  0
 23 24  1  0  0  0
 23 25  1  0  0  0
 25 28  1  0  0  0
 32 33  1  0  0  0
 32 37  1  0  0  0
 33 34  1  0  0  0
 34 35  1  0  0  0
 35 36  1  0  0  0
M  END
> <minimizedAffinity>
-11.09774

> <CNNscore>
0.4898767471

> <CNNaffinity>
7.4820694923

> <CNN_VS>
3.6652917862

> <CNNaffinity_variance>
1.0794585943

$$$$
/media/chris/experiments/cd1a-new-docking/inputs/ligands/7ryo_ligand.pdb


 65 67  0  0  0  0  0  0  0  0999 V2000
  -37.2802   59.3863   62.1259 C   0  0  0  0  0  0  0  0  0  0  0  0
  -36.3628   60.1522   62.9531 N   0  0  0  0  0  0  0  0  0  0  0  0
  -37.9193   60.6133   64.5082 O   0  0  0  0  0  0  0  0  0  0  0  0
  -36.7733   60.7093   64.0951 C   0  0  0  0  0  0  0  0  0  0  0  0
  -35.4269   60.2616   62.6678 H   0  0  0  0  0  0  0  0  0  0  0  0
  -35.0051   62.4228   63.9993 N   0  0  0  0  0  0  0  0  0  0  0  0
  -35.7561   63.7507   65.6593 O   0  0  0  0  0  0  0  0  0  0  0  0
  -35.7455   61.5227   64.8988 C   0  0  0  0  0  0  0  0  0  0  0  0
  -34.7622   60.5608   65.5591 C   0  0  0  0  0  0  0  0  0  0  0  0
  -36.3860   62.4713   65.9228 C   0  0  0  0  0  0  0  0  0  0  0  0
  -35.0747   63.5884   64.4953 C   0  0  0  0  0  0  0  0  0  0  0  0
  -32.8168   64.9085   65.6965 O   0  0  0  0  0  0  0  0  0  0  0  0
  -34.4781   64.8030   63.9346 C   0  0  0  0  0  0  0  0  0  0  0  0
  -34.9056   65.2868   62.6976 C   0  0  0  0  0  0  0  0  0  0  0  0
  -34.1928   66.2795   62.0473 C   0  0  0  0  0  0  0  0  0  0  0  0
  -33.0510   66.8034   62.6133 C   0  0  0  0  0  0  0  0  0  0  0  0
  -32.6034   66.3380   63.8364 C   0  0  0  0  0  0  0  0  0  0  0  0
  -33.3050   65.3393   64.5043 C   0  0  0  0  0  0  0  0  0  0  0  0
  -33.2658   64.2372   66.1716 H   0  0  0  0  0  0  0  0  0  0  0  0
  -37.4588   56.9953   61.8228 O   0  0  0  0  0  0  0  0  0  0  0  0
  -36.7664   57.9727   61.8972 C   0  0  0  0  0  0  0  0  0  0  0  0
  -35.4249   57.9667   61.8109 O   0  0  0  0  0  0  0  0  0  0  0  0
  -34.6838   56.9988   62.6257 C   0  0  0  0  0  0  0  0  0  0  0  0
  -34.4470   57.6136   63.9821 C   0  0  0  0  0  0  0  0  0  0  0  0
  -33.3913   56.7400   61.8761 C   0  0  0  0  0  0  0  0  0  0  0  0
  -32.3408   58.9024   62.1262 N   0  0  0  0  0  0  0  0  0  0  0  0
  -32.7518   58.1465   60.0475 O   0  0  0  0  0  0  0  0  0  0  0  0
  -32.8035   57.9922   61.2645 C   0  0  0  0  0  0  0  0  0  0  0  0
  -32.4089   58.7244   63.0922 H   0  0  0  0  0  0  0  0  0  0  0  0
  -29.5410   60.8251   60.8778 N   0  0  0  0  0  0  0  0  0  0  0  0
  -29.6924   59.0207   62.2015 O   0  0  0  0  0  0  0  0  0  0  0  0
  -31.7401   60.1469   61.6789 C   0  0  0  0  0  0  0  0  0  0  0  0
  -32.0635   61.2729   62.6672 C   0  0  0  0  0  0  0  0  0  0  0  0
  -31.8808   62.6697   62.0833 C   0  0  0  0  0  0  0  0  0  0  0  0
  -30.4719   63.0115   61.6404 C   0  0  0  0  0  0  0  0  0  0  0  0
  -29.9613   62.1677   60.4913 C   0  0  0  0  0  0  0  0  0  0  0  0
  -30.2342   59.9490   61.6087 C   0  0  0  0  0  0  0  0  0  0  0  0
  -28.6531   60.5347   60.5670 H   0  0  0  0  0  0  0  0  0  0  0  0
  -37.5495   60.0916   60.7958 C   0  0  0  0  0  0  0  0  0  0  0  0
  -38.3380   59.2188   59.8253 C   0  0  0  0  0  0  0  0  0  0  0  0
  -39.8057   59.5947   59.7415 C   0  0  0  0  0  0  0  0  0  0  0  0
  -40.7652   58.4886   60.1230 C   0  0  0  0  0  0  0  0  0  0  0  0
  -40.4363   57.9398   61.4290 N   0  0  0  0  0  0  0  0  0  0  0  0
  -41.5477   59.5383   62.5706 O   0  0  0  0  0  0  0  0  0  0  0  0
  -40.8540   58.5081   62.5654 C   0  0  0  0  0  0  0  0  0  0  0  0
  -39.8882   57.1235   61.4783 H   0  0  0  0  0  0  0  0  0  0  0  0
  -41.0065   56.9105   64.4620 C   0  0  0  0  0  0  0  0  0  0  0  0
  -40.3551   57.8540   63.7956 C   0  0  0  0  0  0  0  0  0  0  0  0
  -42.3322   56.3010   64.1279 C   0  0  0  0  0  0  0  0  0  0  0  0
  -43.4059   56.7000   65.1328 C   0  0  0  0  0  0  0  0  0  0  0  0
  -44.2637   57.8697   64.6817 C   0  0  0  0  0  0  0  0  0  0  0  0
  -45.4086   58.1854   65.6299 C   0  0  0  0  0  0  0  0  0  0  0  0
  -46.7850   58.1105   64.9962 C   0  0  0  0  0  0  0  0  0  0  0  0
  -47.4278   59.4709   64.7825 C   0  0  0  0  0  0  0  0  0  0  0  0
  -48.6920   59.6773   65.5936 C   0  0  0  0  0  0  0  0  0  0  0  0
  -49.6387   60.6852   64.9731 C   0  0  0  0  0  0  0  0  0  0  0  0
  -51.0365   60.1554   64.7167 C   0  0  0  0  0  0  0  0  0  0  0  0
  -51.3289   59.9648   63.2415 C   0  0  0  0  0  0  0  0  0  0  0  0
  -51.1515   58.5288   62.7762 C   0  0  0  0  0  0  0  0  0  0  0  0
  -49.7162   58.1540   62.4502 C   0  0  0  0  0  0  0  0  0  0  0  0
  -49.2811   58.5183   61.0392 C   0  0  0  0  0  0  0  0  0  0  0  0
  -49.1530   57.3232   60.1047 C   0  0  0  0  0  0  0  0  0  0  0  0
  -48.5036   57.6638   58.7729 C   0  0  0  0  0  0  0  0  0  0  0  0
  -46.2328   58.0995   57.7580 C   0  0  0  0  0  0  0  0  0  0  0  0
  -47.0626   57.2052   58.6413 C   0  0  0  0  0  0  0  0  0  0  0  0
 43 45  1  0  0  0
 43 42  1  0  0  0
 43 46  1  0  0  0
 64 65  1  0  0  0
 44 45  2  0  0  0
 65 63  1  0  0  0
  2  1  1  0  0  0
  2  4  1  0  0  0
  2  5  1  0  0  0
  3  4  2  0  0  0
 63 62  1  0  0  0
  6  8  1  0  0  0
  6 11  2  0  0  0
  7 10  1  0  0  0
  7 11  1  0  0  0
 62 61  1  0  0  0
 26 28  1  0  0  0
 26 32  1  0  0  0
 26 29  1  0  0  0
 12 18  1  0  0  0
 12 19  1  0  0  0
 61 60  1  0  0  0
 30 36  1  0  0  0
 30 37  1  0  0  0
 30 38  1  0  0  0
 20 21  2  0  0  0
 60 59  1  0  0  0
 22 21  1  0  0  0
 22 23  1  0  0  0
 59 58  1  0  0  0
 27 28  2  0  0  0
 58 57  1  0  0  0
 31 37  2  0  0  0
 57 56  1  0  0  0
 56 55  1  0  0  0
 55 54  1  0  0  0
 54 53  1  0  0  0
 53 52  1  0  0  0
 52 51  1  0  0  0
 51 50  1  0  0  0
 50 49  1  0  0  0
 49 47  1  0  0  0
 47 48  2  0  0  0
 48 45  1  0  0  0
 42 41  1  0  0  0
 41 40  1  0  0  0
 40 39  1  0  0  0
 39  1  1  0  0  0
  1 21  1  0  0  0
  8  4  1  0  0  0
  8  9  1  0  0  0
  8 10  1  0  0  0
 11 13  1  0  0  0
 13 14  2  0  0  0
 13 18  1  0  0  0
 14 15  1  0  0  0
 15 16  2  0  0  0
 16 17  1  0  0  0
 17 18  2  0  0  0
 23 24  1  0  0  0
 23 25  1  0  0  0
 25 28  1  0  0  0
 32 33  1  0  0  0
 32 37  1  0  0  0
 33 34  1  0  0  0
 34 35  1  0  0  0
 35 36  1  0  0  0
M  END
> <minimizedAffinity>
-10.13213

> <CNNscore>
0.4029684365

> <CNNaffinity>
7.5483918190

> <CNN_VS>
3.0417635441

> <CNNaffinity_variance>
1.1029642820

$$$$
/media/chris/experiments/cd1a-new-docking/inputs/ligands/7ryo_ligand.pdb


 65 67  0  0  0  0  0  0  0  0999 V2000
  -36.7768   61.4901   64.4085 C   0  0  0  0  0  0  0  0  0  0  0  0
  -36.3147   60.2400   63.8289 N   0  0  0  0  0  0  0  0  0  0  0  0
  -37.3551   60.5952   61.8680 O   0  0  0  0  0  0  0  0  0  0  0  0
  -36.6525   59.8968   62.5835 C   0  0  0  0  0  0  0  0  0  0  0  0
  -35.7454   59.6385   64.3613 H   0  0  0  0  0  0  0  0  0  0  0  0
  -34.7309   58.6690   61.6497 N   0  0  0  0  0  0  0  0  0  0  0  0
  -34.7847   56.8901   63.0337 O   0  0  0  0  0  0  0  0  0  0  0  0
  -36.1411   58.5467   62.0547 C   0  0  0  0  0  0  0  0  0  0  0  0
  -36.9737   58.1446   60.8409 C   0  0  0  0  0  0  0  0  0  0  0  0
  -36.1228   57.4422   63.1216 C   0  0  0  0  0  0  0  0  0  0  0  0
  -34.0925   57.7390   62.2300 C   0  0  0  0  0  0  0  0  0  0  0  0
  -32.2204   58.4047   64.3122 O   0  0  0  0  0  0  0  0  0  0  0  0
  -32.6561   57.4756   62.1163 C   0  0  0  0  0  0  0  0  0  0  0  0
  -32.1605   56.7502   61.0322 C   0  0  0  0  0  0  0  0  0  0  0  0
  -30.8560   56.2870   61.0345 C   0  0  0  0  0  0  0  0  0  0  0  0
  -30.0289   56.5365   62.1080 C   0  0  0  0  0  0  0  0  0  0  0  0
  -30.4971   57.2491   63.1969 C   0  0  0  0  0  0  0  0  0  0  0  0
  -31.8058   57.7210   63.2140 C   0  0  0  0  0  0  0  0  0  0  0  0
  -33.0959   58.7359   64.3551 H   0  0  0  0  0  0  0  0  0  0  0  0
  -35.2383   62.9355   63.2319 O   0  0  0  0  0  0  0  0  0  0  0  0
  -35.7274   62.5828   64.2695 C   0  0  0  0  0  0  0  0  0  0  0  0
  -35.4072   63.0853   65.4745 O   0  0  0  0  0  0  0  0  0  0  0  0
  -34.0308   62.9165   65.9507 C   0  0  0  0  0  0  0  0  0  0  0  0
  -34.0750   62.7030   67.4428 C   0  0  0  0  0  0  0  0  0  0  0  0
  -33.3090   64.1953   65.5721 C   0  0  0  0  0  0  0  0  0  0  0  0
  -32.3444   63.0630   63.6670 N   0  0  0  0  0  0  0  0  0  0  0  0
  -31.0863   64.5700   64.7658 O   0  0  0  0  0  0  0  0  0  0  0  0
  -32.1439   63.9600   64.6367 C   0  0  0  0  0  0  0  0  0  0  0  0
  -33.2138   62.6041   63.6123 H   0  0  0  0  0  0  0  0  0  0  0  0
  -30.6908   63.5859   60.4911 N   0  0  0  0  0  0  0  0  0  0  0  0
  -32.8116   63.8416   61.1752 O   0  0  0  0  0  0  0  0  0  0  0  0
  -31.3166   62.7455   62.6911 C   0  0  0  0  0  0  0  0  0  0  0  0
  -31.2536   61.2306   62.4664 C   0  0  0  0  0  0  0  0  0  0  0  0
  -29.9490   60.7606   61.8320 C   0  0  0  0  0  0  0  0  0  0  0  0
  -29.6603   61.3132   60.4503 C   0  0  0  0  0  0  0  0  0  0  0  0
  -29.4558   62.8132   60.4127 C   0  0  0  0  0  0  0  0  0  0  0  0
  -31.6712   63.4388   61.3852 C   0  0  0  0  0  0  0  0  0  0  0  0
  -30.8143   64.2894   59.8136 H   0  0  0  0  0  0  0  0  0  0  0  0
  -37.1843   61.3070   65.8712 C   0  0  0  0  0  0  0  0  0  0  0  0
  -38.0482   60.0682   66.0822 C   0  0  0  0  0  0  0  0  0  0  0  0
  -39.5273   60.3275   65.8640 C   0  0  0  0  0  0  0  0  0  0  0  0
  -39.9487   60.4073   64.4129 C   0  0  0  0  0  0  0  0  0  0  0  0
  -41.0329   59.4794   64.1325 N   0  0  0  0  0  0  0  0  0  0  0  0
  -39.6630   57.8080   63.4815 O   0  0  0  0  0  0  0  0  0  0  0  0
  -40.8100   58.2392   63.6842 C   0  0  0  0  0  0  0  0  0  0  0  0
  -41.9611   59.7738   64.2772 H   0  0  0  0  0  0  0  0  0  0  0  0
  -42.8556   56.9686   64.2959 C   0  0  0  0  0  0  0  0  0  0  0  0
  -42.0368   57.4691   63.3806 C   0  0  0  0  0  0  0  0  0  0  0  0
  -42.7437   57.0783   65.7845 C   0  0  0  0  0  0  0  0  0  0  0  0
  -43.8701   57.9179   66.3745 C   0  0  0  0  0  0  0  0  0  0  0  0
  -45.1637   57.8535   65.5808 C   0  0  0  0  0  0  0  0  0  0  0  0
  -46.3568   57.3885   66.3992 C   0  0  0  0  0  0  0  0  0  0  0  0
  -47.7040   57.7039   65.7768 C   0  0  0  0  0  0  0  0  0  0  0  0
  -47.6282   58.7274   64.6559 C   0  0  0  0  0  0  0  0  0  0  0  0
  -48.3994   60.0002   64.9452 C   0  0  0  0  0  0  0  0  0  0  0  0
  -49.3495   60.3864   63.8293 C   0  0  0  0  0  0  0  0  0  0  0  0
  -50.7903   59.9751   64.0639 C   0  0  0  0  0  0  0  0  0  0  0  0
  -51.3841   59.2254   62.8876 C   0  0  0  0  0  0  0  0  0  0  0  0
  -50.5538   58.0260   62.4608 C   0  0  0  0  0  0  0  0  0  0  0  0
  -50.7974   57.5792   61.0297 C   0  0  0  0  0  0  0  0  0  0  0  0
  -49.5676   57.0175   60.3333 C   0  0  0  0  0  0  0  0  0  0  0  0
  -48.5294   58.0702   59.9694 C   0  0  0  0  0  0  0  0  0  0  0  0
  -47.3184   57.5010   59.2478 C   0  0  0  0  0  0  0  0  0  0  0  0
  -46.9254   57.0514   56.7943 C   0  0  0  0  0  0  0  0  0  0  0  0
  -47.0711   58.0932   57.8722 C   0  0  0  0  0  0  0  0  0  0  0  0
 43 45  1  0  0  0
 43 42  1  0  0  0
 43 46  1  0  0  0
 64 65  1  0  0  0
 44 45  2  0  0  0
 65 63  1  0  0  0
  2  1  1  0  0  0
  2  4  1  0  0  0
  2  5  1  0  0  0
  3  4  2  0  0  0
 63 62  1  0  0  0
  6  8  1  0  0  0
  6 11  2  0  0  0
  7 10  1  0  0  0
  7 11  1  0  0  0
 62 61  1  0  0  0
 26 28  1  0  0  0
 26 32  1  0  0  0
 26 29  1  0  0  0
 12 18  1  0  0  0
 12 19  1  0  0  0
 61 60  1  0  0  0
 30 36  1  0  0  0
 30 37  1  0  0  0
 30 38  1  0  0  0
 20 21  2  0  0  0
 60 59  1  0  0  0
 22 21  1  0  0  0
 22 23  1  0  0  0
 59 58  1  0  0  0
 27 28  2  0  0  0
 58 57  1  0  0  0
 31 37  2  0  0  0
 57 56  1  0  0  0
 56 55  1  0  0  0
 55 54  1  0  0  0
 54 53  1  0  0  0
 53 52  1  0  0  0
 52 51  1  0  0  0
 51 50  1  0  0  0
 50 49  1  0  0  0
 49 47  1  0  0  0
 47 48  2  0  0  0
 48 45  1  0  0  0
 42 41  1  0  0  0
 41 40  1  0  0  0
 40 39  1  0  0  0
 39  1  1  0  0  0
  1 21  1  0  0  0
  8  4  1  0  0  0
  8  9  1  0  0  0
  8 10  1  0  0  0
 11 13  1  0  0  0
 13 14  2  0  0  0
 13 18  1  0  0  0
 14 15  1  0  0  0
 15 16  2  0  0  0
 16 17  1  0  0  0
 17 18  2  0  0  0
 23 24  1  0  0  0
 23 25  1  0  0  0
 25 28  1  0  0  0
 32 33  1  0  0  0
 32 37  1  0  0  0
 33 34  1  0  0  0
 34 35  1  0  0  0
 35 36  1  0  0  0
M  END
> <minimizedAffinity>
-10.54250

> <CNNscore>
0.3548758924

> <CNNaffinity>
7.3180389404

> <CNN_VS>
2.5969955921

> <CNNaffinity_variance>
0.9090837240

$$$$
/media/chris/experiments/cd1a-new-docking/inputs/ligands/7ryo_ligand.pdb


 65 67  0  0  0  0  0  0  0  0999 V2000
  -37.9604   60.4476   64.6123 C   0  0  0  0  0  0  0  0  0  0  0  0
  -36.9303   59.4780   64.2791 N   0  0  0  0  0  0  0  0  0  0  0  0
  -36.0703   60.7400   62.6296 O   0  0  0  0  0  0  0  0  0  0  0  0
  -36.0584   59.7160   63.2962 C   0  0  0  0  0  0  0  0  0  0  0  0
  -36.8747   58.6349   64.7846 H   0  0  0  0  0  0  0  0  0  0  0  0
  -33.9779   59.1651   62.0963 N   0  0  0  0  0  0  0  0  0  0  0  0
  -32.8425   58.2623   63.8223 O   0  0  0  0  0  0  0  0  0  0  0  0
  -35.0152   58.6281   62.9926 C   0  0  0  0  0  0  0  0  0  0  0  0
  -35.7095   57.4570   62.3037 C   0  0  0  0  0  0  0  0  0  0  0  0
  -34.2308   58.1735   64.2322 C   0  0  0  0  0  0  0  0  0  0  0  0
  -32.8551   58.9196   62.6334 C   0  0  0  0  0  0  0  0  0  0  0  0
  -30.8448   56.9528   62.0219 O   0  0  0  0  0  0  0  0  0  0  0  0
  -31.5416   59.2734   62.0901 C   0  0  0  0  0  0  0  0  0  0  0  0
  -31.2711   60.5890   61.7118 C   0  0  0  0  0  0  0  0  0  0  0  0
  -30.1362   60.8896   60.9784 C   0  0  0  0  0  0  0  0  0  0  0  0
  -29.2578   59.8932   60.6122 C   0  0  0  0  0  0  0  0  0  0  0  0
  -29.5052   58.5805   60.9706 C   0  0  0  0  0  0  0  0  0  0  0  0
  -30.6416   58.2582   61.7058 C   0  0  0  0  0  0  0  0  0  0  0  0
  -31.6006   56.7026   62.5161 H   0  0  0  0  0  0  0  0  0  0  0  0
  -38.1329   60.3275   67.0199 O   0  0  0  0  0  0  0  0  0  0  0  0
  -37.8081   60.9435   66.0425 C   0  0  0  0  0  0  0  0  0  0  0  0
  -37.2778   62.1787   66.0595 O   0  0  0  0  0  0  0  0  0  0  0  0
  -35.8224   62.3081   65.9379 C   0  0  0  0  0  0  0  0  0  0  0  0
  -35.2801   62.7600   67.2703 C   0  0  0  0  0  0  0  0  0  0  0  0
  -35.5946   63.3339   64.8445 C   0  0  0  0  0  0  0  0  0  0  0  0
  -33.7010   64.8329   64.7477 N   0  0  0  0  0  0  0  0  0  0  0  0
  -33.3859   62.6742   64.1982 O   0  0  0  0  0  0  0  0  0  0  0  0
  -34.1290   63.5807   64.5636 C   0  0  0  0  0  0  0  0  0  0  0  0
  -34.3427   65.5192   65.0419 H   0  0  0  0  0  0  0  0  0  0  0  0
  -30.2522   65.0790   65.8149 N   0  0  0  0  0  0  0  0  0  0  0  0
  -32.2049   65.1313   66.9171 O   0  0  0  0  0  0  0  0  0  0  0  0
  -32.3161   65.2107   64.5263 C   0  0  0  0  0  0  0  0  0  0  0  0
  -32.2413   66.6405   63.9789 C   0  0  0  0  0  0  0  0  0  0  0  0
  -30.9157   66.9660   63.2991 C   0  0  0  0  0  0  0  0  0  0  0  0
  -29.6907   66.8867   64.1883 C   0  0  0  0  0  0  0  0  0  0  0  0
  -29.3935   65.4972   64.7120 C   0  0  0  0  0  0  0  0  0  0  0  0
  -31.5852   65.1372   65.8575 C   0  0  0  0  0  0  0  0  0  0  0  0
  -29.8013   64.7158   66.6112 H   0  0  0  0  0  0  0  0  0  0  0  0
  -39.3590   59.8745   64.3788 C   0  0  0  0  0  0  0  0  0  0  0  0
  -39.5269   59.3086   62.9728 C   0  0  0  0  0  0  0  0  0  0  0  0
  -39.6753   57.7986   62.9507 C   0  0  0  0  0  0  0  0  0  0  0  0
  -41.1049   57.3031   62.9429 C   0  0  0  0  0  0  0  0  0  0  0  0
  -41.6179   57.1680   64.2970 N   0  0  0  0  0  0  0  0  0  0  0  0
  -42.9185   59.0082   64.1712 O   0  0  0  0  0  0  0  0  0  0  0  0
  -42.4930   58.0359   64.8163 C   0  0  0  0  0  0  0  0  0  0  0  0
  -41.3109   56.4132   64.8495 H   0  0  0  0  0  0  0  0  0  0  0  0
  -44.0685   57.5529   66.6758 C   0  0  0  0  0  0  0  0  0  0  0  0
  -42.8397   57.7814   66.2324 C   0  0  0  0  0  0  0  0  0  0  0  0
  -45.3331   57.4835   65.8780 C   0  0  0  0  0  0  0  0  0  0  0  0
  -46.5663   57.5019   66.7727 C   0  0  0  0  0  0  0  0  0  0  0  0
  -47.4012   58.7640   66.6405 C   0  0  0  0  0  0  0  0  0  0  0  0
  -47.5119   59.2732   65.2130 C   0  0  0  0  0  0  0  0  0  0  0  0
  -48.6659   60.2294   64.9771 C   0  0  0  0  0  0  0  0  0  0  0  0
  -50.0304   59.5966   65.1943 C   0  0  0  0  0  0  0  0  0  0  0  0
  -51.1692   60.3882   64.5819 C   0  0  0  0  0  0  0  0  0  0  0  0
  -51.6400   59.8242   63.2562 C   0  0  0  0  0  0  0  0  0  0  0  0
  -50.9271   58.5562   62.8271 C   0  0  0  0  0  0  0  0  0  0  0  0
  -50.1745   58.7210   61.5216 C   0  0  0  0  0  0  0  0  0  0  0  0
  -50.4964   57.6390   60.5037 C   0  0  0  0  0  0  0  0  0  0  0  0
  -49.4040   57.4101   59.4737 C   0  0  0  0  0  0  0  0  0  0  0  0
  -48.0069   57.7699   59.9551 C   0  0  0  0  0  0  0  0  0  0  0  0
  -46.9036   57.4185   58.9663 C   0  0  0  0  0  0  0  0  0  0  0  0
  -47.1081   58.0302   57.5896 C   0  0  0  0  0  0  0  0  0  0  0  0
  -47.1841   55.6259   56.8217 C   0  0  0  0  0  0  0  0  0  0  0  0
  -47.5781   57.0500   56.5303 C   0  0  0  0  0  0  0  0  0  0  0  0
 43 45  1  0  0  0
 43 42  1  0  0  0
 43 46  1  0  0  0
 64 65  1  0  0  0
 44 45  2  0  0  0
 65 63  1  0  0  0
  2  1  1  0  0  0
  2  4  1  0  0  0
  2  5  1  0  0  0
  3  4  2  0  0  0
 63 62  1  0  0  0
  6  8  1  0  0  0
  6 11  2  0  0  0
  7 10  1  0  0  0
  7 11  1  0  0  0
 62 61  1  0  0  0
 26 28  1  0  0  0
 26 32  1  0  0  0
 26 29  1  0  0  0
 12 18  1  0  0  0
 12 19  1  0  0  0
 61 60  1  0  0  0
 30 36  1  0  0  0
 30 37  1  0  0  0
 30 38  1  0  0  0
 20 21  2  0  0  0
 60 59  1  0  0  0
 22 21  1  0  0  0
 22 23  1  0  0  0
 59 58  1  0  0  0
 27 28  2  0  0  0
 58 57  1  0  0  0
 31 37  2  0  0  0
 57 56  1  0  0  0
 56 55  1  0  0  0
 55 54  1  0  0  0
 54 53  1  0  0  0
 53 52  1  0  0  0
 52 51  1  0  0  0
 51 50  1  0  0  0
 50 49  1  0  0  0
 49 47  1  0  0  0
 47 48  2  0  0  0
 48 45  1  0  0  0
 42 41  1  0  0  0
 41 40  1  0  0  0
 40 39  1  0  0  0
 39  1  1  0  0  0
  1 21  1  0  0  0
  8  4  1  0  0  0
  8  9  1  0  0  0
  8 10  1  0  0  0
 11 13  1  0  0  0
 13 14  2  0  0  0
 13 18  1  0  0  0
 14 15  1  0  0  0
 15 16  2  0  0  0
 16 17  1  0  0  0
 17 18  2  0  0  0
 23 24  1  0  0  0
 23 25  1  0  0  0
 25 28  1  0  0  0
 32 33  1  0  0  0
 32 37  1  0  0  0
 33 34  1  0  0  0
 34 35  1  0  0  0
 35 36  1  0  0  0
M  END
> <minimizedAffinity>
-10.68000

> <CNNscore>
0.3352105618

> <CNNaffinity>
7.1253461838

> <CNN_VS>
2.3884913921

> <CNNaffinity_variance>
0.6520660520

$$$$
/media/chris/experiments/cd1a-new-docking/inputs/ligands/7ryo_ligand.pdb


 65 67  0  0  0  0  0  0  0  0999 V2000
  -39.5320   60.0594   61.6785 C   0  0  0  0  0  0  0  0  0  0  0  0
  -38.6148   58.9948   62.0497 N   0  0  0  0  0  0  0  0  0  0  0  0
  -36.7854   60.1811   61.5027 O   0  0  0  0  0  0  0  0  0  0  0  0
  -37.2950   59.1542   61.9259 C   0  0  0  0  0  0  0  0  0  0  0  0
  -38.9714   58.1452   62.3968 H   0  0  0  0  0  0  0  0  0  0  0  0
  -35.2126   57.9280   61.4439 N   0  0  0  0  0  0  0  0  0  0  0  0
  -34.3864   57.8638   63.5407 O   0  0  0  0  0  0  0  0  0  0  0  0
  -36.3960   57.9703   62.3188 C   0  0  0  0  0  0  0  0  0  0  0  0
  -37.1846   56.6749   62.1512 C   0  0  0  0  0  0  0  0  0  0  0  0
  -35.8052   58.0966   63.7307 C   0  0  0  0  0  0  0  0  0  0  0  0
  -34.1924   57.8751   62.1961 C   0  0  0  0  0  0  0  0  0  0  0  0
  -32.3529   60.0568   62.5699 O   0  0  0  0  0  0  0  0  0  0  0  0
  -32.7965   57.8172   61.7559 C   0  0  0  0  0  0  0  0  0  0  0  0
  -32.2674   56.6254   61.2592 C   0  0  0  0  0  0  0  0  0  0  0  0
  -30.9029   56.4875   61.0708 C   0  0  0  0  0  0  0  0  0  0  0  0
  -30.0486   57.5260   61.3712 C   0  0  0  0  0  0  0  0  0  0  0  0
  -30.5472   58.7161   61.8690 C   0  0  0  0  0  0  0  0  0  0  0  0
  -31.9153   58.8730   62.0673 C   0  0  0  0  0  0  0  0  0  0  0  0
  -33.2683   60.1944   62.7151 H   0  0  0  0  0  0  0  0  0  0  0  0
  -41.4495   60.8714   62.9050 O   0  0  0  0  0  0  0  0  0  0  0  0
  -40.2838   60.5866   62.8915 C   0  0  0  0  0  0  0  0  0  0  0  0
  -39.4553   60.7097   63.9431 O   0  0  0  0  0  0  0  0  0  0  0  0
  -39.6820   59.8470   65.1067 C   0  0  0  0  0  0  0  0  0  0  0  0
  -40.5412   60.6027   66.0889 C   0  0  0  0  0  0  0  0  0  0  0  0
  -38.3044   59.5410   65.6616 C   0  0  0  0  0  0  0  0  0  0  0  0
  -36.4505   60.9994   65.1341 N   0  0  0  0  0  0  0  0  0  0  0  0
  -37.7885   61.5501   66.8568 O   0  0  0  0  0  0  0  0  0  0  0  0
  -37.4922   60.7855   65.9430 C   0  0  0  0  0  0  0  0  0  0  0  0
  -36.2606   60.3514   64.4176 H   0  0  0  0  0  0  0  0  0  0  0  0
  -34.1972   63.4911   63.7895 N   0  0  0  0  0  0  0  0  0  0  0  0
  -34.6323   61.3611   63.2376 O   0  0  0  0  0  0  0  0  0  0  0  0
  -35.5903   62.1603   65.2816 C   0  0  0  0  0  0  0  0  0  0  0  0
  -34.6569   61.9750   66.4832 C   0  0  0  0  0  0  0  0  0  0  0  0
  -34.0512   63.2782   66.9932 C   0  0  0  0  0  0  0  0  0  0  0  0
  -33.1749   64.0205   66.0038 C   0  0  0  0  0  0  0  0  0  0  0  0
  -33.9106   64.5236   64.7796 C   0  0  0  0  0  0  0  0  0  0  0  0
  -34.7639   62.3032   64.0133 C   0  0  0  0  0  0  0  0  0  0  0  0
  -33.9464   63.6912   62.8588 H   0  0  0  0  0  0  0  0  0  0  0  0
  -40.5038   59.6010   60.5902 C   0  0  0  0  0  0  0  0  0  0  0  0
  -40.5064   58.0862   60.4152 C   0  0  0  0  0  0  0  0  0  0  0  0
  -41.6476   57.4027   61.1454 C   0  0  0  0  0  0  0  0  0  0  0  0
  -41.2392   56.6449   62.3897 C   0  0  0  0  0  0  0  0  0  0  0  0
  -41.6970   57.3268   63.5899 N   0  0  0  0  0  0  0  0  0  0  0  0
  -41.9793   55.4238   64.7701 O   0  0  0  0  0  0  0  0  0  0  0  0
  -42.0361   56.6625   64.7001 C   0  0  0  0  0  0  0  0  0  0  0  0
  -41.7595   58.3093   63.5849 H   0  0  0  0  0  0  0  0  0  0  0  0
  -43.8167   57.9016   65.9114 C   0  0  0  0  0  0  0  0  0  0  0  0
  -42.5528   57.5188   65.7912 C   0  0  0  0  0  0  0  0  0  0  0  0
  -44.9684   57.5555   65.0201 C   0  0  0  0  0  0  0  0  0  0  0  0
  -46.2432   57.3064   65.8167 C   0  0  0  0  0  0  0  0  0  0  0  0
  -46.5506   58.3893   66.8366 C   0  0  0  0  0  0  0  0  0  0  0  0
  -47.8274   59.1585   66.5409 C   0  0  0  0  0  0  0  0  0  0  0  0
  -48.1656   59.2668   65.0659 C   0  0  0  0  0  0  0  0  0  0  0  0
  -48.7212   60.6250   64.6705 C   0  0  0  0  0  0  0  0  0  0  0  0
  -50.1762   60.8179   65.0503 C   0  0  0  0  0  0  0  0  0  0  0  0
  -51.0721   59.6977   64.5606 C   0  0  0  0  0  0  0  0  0  0  0  0
  -51.3307   59.7112   63.0663 C   0  0  0  0  0  0  0  0  0  0  0  0
  -50.7307   58.5131   62.3574 C   0  0  0  0  0  0  0  0  0  0  0  0
  -49.6545   58.8887   61.3520 C   0  0  0  0  0  0  0  0  0  0  0  0
  -49.8881   58.3370   59.9564 C   0  0  0  0  0  0  0  0  0  0  0  0
  -49.0592   57.1057   59.6251 C   0  0  0  0  0  0  0  0  0  0  0  0
  -47.5682   57.3831   59.4904 C   0  0  0  0  0  0  0  0  0  0  0  0
  -47.1938   58.0516   58.1773 C   0  0  0  0  0  0  0  0  0  0  0  0
  -46.9036   55.9790   56.7643 C   0  0  0  0  0  0  0  0  0  0  0  0
  -47.6265   57.2888   56.9383 C   0  0  0  0  0  0  0  0  0  0  0  0
 43 45  1  0  0  0
 43 42  1  0  0  0
 43 46  1  0  0  0
 64 65  1  0  0  0
 44 45  2  0  0  0
 65 63  1  0  0  0
  2  1  1  0  0  0
  2  4  1  0  0  0
  2  5  1  0  0  0
  3  4  2  0  0  0
 63 62  1  0  0  0
  6  8  1  0  0  0
  6 11  2  0  0  0
  7 10  1  0  0  0
  7 11  1  0  0  0
 62 61  1  0  0  0
 26 28  1  0  0  0
 26 32  1  0  0  0
 26 29  1  0  0  0
 12 18  1  0  0  0
 12 19  1  0  0  0
 61 60  1  0  0  0
 30 36  1  0  0  0
 30 37  1  0  0  0
 30 38  1  0  0  0
 20 21  2  0  0  0
 60 59  1  0  0  0
 22 21  1  0  0  0
 22 23  1  0  0  0
 59 58  1  0  0  0
 27 28  2  0  0  0
 58 57  1  0  0  0
 31 37  2  0  0  0
 57 56  1  0  0  0
 56 55  1  0  0  0
 55 54  1  0  0  0
 54 53  1  0  0  0
 53 52  1  0  0  0
 52 51  1  0  0  0
 51 50  1  0  0  0
 50 49  1  0  0  0
 49 47  1  0  0  0
 47 48  2  0  0  0
 48 45  1  0  0  0
 42 41  1  0  0  0
 41 40  1  0  0  0
 40 39  1  0  0  0
 39  1  1  0  0  0
  1 21  1  0  0  0
  8  4  1  0  0  0
  8  9  1  0  0  0
  8 10  1  0  0  0
 11 13  1  0  0  0
 13 14  2  0  0  0
 13 18  1  0  0  0
 14 15  1  0  0  0
 15 16  2  0  0  0
 16 17  1  0  0  0
 17 18  2  0  0  0
 23 24  1  0  0  0
 23 25  1  0  0  0
 25 28  1  0  0  0
 32 33  1  0  0  0
 32 37  1  0  0  0
 33 34  1  0  0  0
 34 35  1  0  0  0
 35 36  1  0  0  0
M  END
> <minimizedAffinity>
-10.86430

> <CNNscore>
0.2962089777

> <CNNaffinity>
7.7316017151

> <CNN_VS>
2.2901699543

> <CNNaffinity_variance>
1.8846671581

$$$$
/media/chris/experiments/cd1a-new-docking/inputs/ligands/7ryo_ligand.pdb


 65 67  0  0  0  0  0  0  0  0999 V2000
  -40.0160   57.7207   62.4833 C   0  0  0  0  0  0  0  0  0  0  0  0
  -39.1261   57.9686   63.6053 N   0  0  0  0  0  0  0  0  0  0  0  0
  -39.7380   60.1225   63.8035 O   0  0  0  0  0  0  0  0  0  0  0  0
  -39.0653   59.1734   64.1775 C   0  0  0  0  0  0  0  0  0  0  0  0
  -38.5608   57.2388   63.9478 H   0  0  0  0  0  0  0  0  0  0  0  0
  -36.9597   60.2141   64.9228 N   0  0  0  0  0  0  0  0  0  0  0  0
  -37.7220   61.1509   66.8265 O   0  0  0  0  0  0  0  0  0  0  0  0
  -38.0807   59.3576   65.3440 C   0  0  0  0  0  0  0  0  0  0  0  0
  -37.5366   57.9914   65.7510 C   0  0  0  0  0  0  0  0  0  0  0  0
  -38.6866   60.1066   66.5400 C   0  0  0  0  0  0  0  0  0  0  0  0
  -36.8547   61.1425   65.7809 C   0  0  0  0  0  0  0  0  0  0  0  0
  -36.0730   62.5681   68.1557 O   0  0  0  0  0  0  0  0  0  0  0  0
  -35.8698   62.2267   65.7647 C   0  0  0  0  0  0  0  0  0  0  0  0
  -35.1616   62.5124   64.5968 C   0  0  0  0  0  0  0  0  0  0  0  0
  -34.0668   63.3591   64.6288 C   0  0  0  0  0  0  0  0  0  0  0  0
  -33.6619   63.9315   65.8149 C   0  0  0  0  0  0  0  0  0  0  0  0
  -34.3440   63.6611   66.9873 C   0  0  0  0  0  0  0  0  0  0  0  0
  -35.4453   62.8109   66.9757 C   0  0  0  0  0  0  0  0  0  0  0  0
  -36.8178   62.0002   68.1821 H   0  0  0  0  0  0  0  0  0  0  0  0
  -39.9742   58.8269   60.3350 O   0  0  0  0  0  0  0  0  0  0  0  0
  -39.3983   58.1930   61.1756 C   0  0  0  0  0  0  0  0  0  0  0  0
  -38.1214   57.7830   61.0820 O   0  0  0  0  0  0  0  0  0  0  0  0
  -37.0675   58.6935   61.5402 C   0  0  0  0  0  0  0  0  0  0  0  0
  -37.4443   60.0927   61.1231 C   0  0  0  0  0  0  0  0  0  0  0  0
  -35.7949   58.2144   60.8688 C   0  0  0  0  0  0  0  0  0  0  0  0
  -33.4699   57.7804   61.3668 N   0  0  0  0  0  0  0  0  0  0  0  0
  -34.9696   57.6207   63.0361 O   0  0  0  0  0  0  0  0  0  0  0  0
  -34.7116   57.8417   61.8563 C   0  0  0  0  0  0  0  0  0  0  0  0
  -33.3227   57.9678   60.4115 H   0  0  0  0  0  0  0  0  0  0  0  0
  -30.7619   58.6973   63.5849 N   0  0  0  0  0  0  0  0  0  0  0  0
  -31.7722   59.7516   61.8823 O   0  0  0  0  0  0  0  0  0  0  0  0
  -32.3310   57.4453   62.2035 C   0  0  0  0  0  0  0  0  0  0  0  0
  -31.3868   56.4990   61.4535 C   0  0  0  0  0  0  0  0  0  0  0  0
  -30.4284   55.7419   62.3665 C   0  0  0  0  0  0  0  0  0  0  0  0
  -29.4697   56.6042   63.1634 C   0  0  0  0  0  0  0  0  0  0  0  0
  -30.1435   57.5128   64.1703 C   0  0  0  0  0  0  0  0  0  0  0  0
  -31.5963   58.7324   62.5433 C   0  0  0  0  0  0  0  0  0  0  0  0
  -30.5407   59.5615   64.0015 H   0  0  0  0  0  0  0  0  0  0  0  0
  -41.3840   58.3671   62.7061 C   0  0  0  0  0  0  0  0  0  0  0  0
  -42.5236   57.3573   62.6227 C   0  0  0  0  0  0  0  0  0  0  0  0
  -42.1666   56.0042   63.2095 C   0  0  0  0  0  0  0  0  0  0  0  0
  -41.8637   56.0172   64.6919 C   0  0  0  0  0  0  0  0  0  0  0  0
  -43.0430   56.3781   65.4625 N   0  0  0  0  0  0  0  0  0  0  0  0
  -42.2018   58.3584   66.1443 O   0  0  0  0  0  0  0  0  0  0  0  0
  -43.1271   57.5300   66.1371 C   0  0  0  0  0  0  0  0  0  0  0  0
  -43.8042   55.7544   65.4885 H   0  0  0  0  0  0  0  0  0  0  0  0
  -45.5468   58.0207   66.4147 C   0  0  0  0  0  0  0  0  0  0  0  0
  -44.3695   57.6873   66.9259 C   0  0  0  0  0  0  0  0  0  0  0  0
  -45.8818   58.2852   64.9800 C   0  0  0  0  0  0  0  0  0  0  0  0
  -47.2281   58.9839   64.8345 C   0  0  0  0  0  0  0  0  0  0  0  0
  -47.9256   59.2528   66.1568 C   0  0  0  0  0  0  0  0  0  0  0  0
  -49.4272   59.4456   66.0241 C   0  0  0  0  0  0  0  0  0  0  0  0
  -49.8338   60.5701   65.0904 C   0  0  0  0  0  0  0  0  0  0  0  0
  -51.2846   60.4918   64.6445 C   0  0  0  0  0  0  0  0  0  0  0  0
  -51.4916   59.6461   63.4033 C   0  0  0  0  0  0  0  0  0  0  0  0
  -50.1933   59.2606   62.7230 C   0  0  0  0  0  0  0  0  0  0  0  0
  -49.7047   60.2619   61.6940 C   0  0  0  0  0  0  0  0  0  0  0  0
  -49.4122   59.6248   60.3500 C   0  0  0  0  0  0  0  0  0  0  0  0
  -50.0351   58.2475   60.1915 C   0  0  0  0  0  0  0  0  0  0  0  0
  -49.3032   57.3430   59.2153 C   0  0  0  0  0  0  0  0  0  0  0  0
  -47.9463   56.8629   59.7065 C   0  0  0  0  0  0  0  0  0  0  0  0
  -46.7727   57.3926   58.8938 C   0  0  0  0  0  0  0  0  0  0  0  0
  -47.1916   58.0804   57.6043 C   0  0  0  0  0  0  0  0  0  0  0  0
  -46.8708   55.7544   56.6751 C   0  0  0  0  0  0  0  0  0  0  0  0
  -47.4093   57.1400   56.4329 C   0  0  0  0  0  0  0  0  0  0  0  0
 43 45  1  0  0  0
 43 42  1  0  0  0
 43 46  1  0  0  0
 64 65  1  0  0  0
 44 45  2  0  0  0
 65 63  1  0  0  0
  2  1  1  0  0  0
  2  4  1  0  0  0
  2  5  1  0  0  0
  3  4  2  0  0  0
 63 62  1  0  0  0
  6  8  1  0  0  0
  6 11  2  0  0  0
  7 10  1  0  0  0
  7 11  1  0  0  0
 62 61  1  0  0  0
 26 28  1  0  0  0
 26 32  1  0  0  0
 26 29  1  0  0  0
 12 18  1  0  0  0
 12 19  1  0  0  0
 61 60  1  0  0  0
 30 36  1  0  0  0
 30 37  1  0  0  0
 30 38  1  0  0  0
 20 21  2  0  0  0
 60 59  1  0  0  0
 22 21  1  0  0  0
 22 23  1  0  0  0
 59 58  1  0  0  0
 27 28  2  0  0  0
 58 57  1  0  0  0
 31 37  2  0  0  0
 57 56  1  0  0  0
 56 55  1  0  0  0
 55 54  1  0  0  0
 54 53  1  0  0  0
 53 52  1  0  0  0
 52 51  1  0  0  0
 51 50  1  0  0  0
 50 49  1  0  0  0
 49 47  1  0  0  0
 47 48  2  0  0  0
 48 45  1  0  0  0
 42 41  1  0  0  0
 41 40  1  0  0  0
 40 39  1  0  0  0
 39  1  1  0  0  0
  1 21  1  0  0  0
  8  4  1  0  0  0
  8  9  1  0  0  0
  8 10  1  0  0  0
 11 13  1  0  0  0
 13 14  2  0  0  0
 13 18  1  0  0  0
 14 15  1  0  0  0
 15 16  2  0  0  0
 16 17  1  0  0  0
 17 18  2  0  0  0
 23 24  1  0  0  0
 23 25  1  0  0  0
 25 28  1  0  0  0
 32 33  1  0  0  0
 32 37  1  0  0  0
 33 34  1  0  0  0
 34 35  1  0  0  0
 35 36  1  0  0  0
M  END
> <minimizedAffinity>
-11.16902

> <CNNscore>
0.2833200693

> <CNNaffinity>
7.7970442772

> <CNN_VS>
2.2090592384

> <CNNaffinity_variance>
1.4689210653

$$$$
/media/chris/experiments/cd1a-new-docking/inputs/ligands/7ryo_ligand.pdb


 65 67  0  0  0  0  0  0  0  0999 V2000
  -35.2672   58.6189   62.7432 C   0  0  0  0  0  0  0  0  0  0  0  0
  -33.8252   58.7166   62.5894 N   0  0  0  0  0  0  0  0  0  0  0  0
  -33.5787   56.5291   62.1341 O   0  0  0  0  0  0  0  0  0  0  0  0
  -33.0940   57.6396   62.2922 C   0  0  0  0  0  0  0  0  0  0  0  0
  -33.3820   59.5880   62.7059 H   0  0  0  0  0  0  0  0  0  0  0  0
  -31.2749   59.1206   61.5375 N   0  0  0  0  0  0  0  0  0  0  0  0
  -30.0416   59.0997   63.4247 O   0  0  0  0  0  0  0  0  0  0  0  0
  -31.5726   57.8249   62.1702 C   0  0  0  0  0  0  0  0  0  0  0  0
  -31.0071   56.7057   61.3010 C   0  0  0  0  0  0  0  0  0  0  0  0
  -30.8582   57.9057   63.5274 C   0  0  0  0  0  0  0  0  0  0  0  0
  -30.4499   59.7237   62.2891 C   0  0  0  0  0  0  0  0  0  0  0  0
  -29.5899   60.6014   59.6865 O   0  0  0  0  0  0  0  0  0  0  0  0
  -29.8743   61.0496   62.0516 C   0  0  0  0  0  0  0  0  0  0  0  0
  -29.8557   61.9988   63.0742 C   0  0  0  0  0  0  0  0  0  0  0  0
  -29.5437   63.3195   62.8008 C   0  0  0  0  0  0  0  0  0  0  0  0
  -29.2469   63.7145   61.5146 C   0  0  0  0  0  0  0  0  0  0  0  0
  -29.2628   62.7943   60.4823 C   0  0  0  0  0  0  0  0  0  0  0  0
  -29.5761   61.4628   60.7368 C   0  0  0  0  0  0  0  0  0  0  0  0
  -29.7970   59.6979   59.8242 H   0  0  0  0  0  0  0  0  0  0  0  0
  -35.8006   57.2560   64.6663 O   0  0  0  0  0  0  0  0  0  0  0  0
  -35.6495   58.3473   64.1905 C   0  0  0  0  0  0  0  0  0  0  0  0
  -35.8158   59.5017   64.8590 O   0  0  0  0  0  0  0  0  0  0  0  0
  -37.1843   59.9638   65.1111 C   0  0  0  0  0  0  0  0  0  0  0  0
  -37.6542   60.7200   63.8940 C   0  0  0  0  0  0  0  0  0  0  0  0
  -37.0960   60.8472   66.3405 C   0  0  0  0  0  0  0  0  0  0  0  0
  -35.2095   62.0141   65.3807 N   0  0  0  0  0  0  0  0  0  0  0  0
  -36.7426   63.2085   66.5140 O   0  0  0  0  0  0  0  0  0  0  0  0
  -36.3349   62.1303   66.0913 C   0  0  0  0  0  0  0  0  0  0  0  0
  -34.9315   61.1230   65.0675 H   0  0  0  0  0  0  0  0  0  0  0  0
  -33.1709   63.9335   63.0886 N   0  0  0  0  0  0  0  0  0  0  0  0
  -33.5695   61.7379   63.3148 O   0  0  0  0  0  0  0  0  0  0  0  0
  -34.3844   63.1647   65.0569 C   0  0  0  0  0  0  0  0  0  0  0  0
  -33.3484   63.3978   66.1622 C   0  0  0  0  0  0  0  0  0  0  0  0
  -32.7521   64.8013   66.1549 C   0  0  0  0  0  0  0  0  0  0  0  0
  -31.9894   65.1785   64.9004 C   0  0  0  0  0  0  0  0  0  0  0  0
  -32.8424   65.2392   63.6507 C   0  0  0  0  0  0  0  0  0  0  0  0
  -33.6719   62.8836   63.7434 C   0  0  0  0  0  0  0  0  0  0  0  0
  -33.0057   63.8142   62.1254 H   0  0  0  0  0  0  0  0  0  0  0  0
  -35.8539   57.5550   61.8143 C   0  0  0  0  0  0  0  0  0  0  0  0
  -37.3404   57.7704   61.5511 C   0  0  0  0  0  0  0  0  0  0  0  0
  -37.6154   58.8777   60.5505 C   0  0  0  0  0  0  0  0  0  0  0  0
  -39.0718   59.0455   60.1765 C   0  0  0  0  0  0  0  0  0  0  0  0
  -39.7597   59.9032   61.1285 N   0  0  0  0  0  0  0  0  0  0  0  0
  -41.1587   58.2812   61.8396 O   0  0  0  0  0  0  0  0  0  0  0  0
  -40.7597   59.4560   61.8959 C   0  0  0  0  0  0  0  0  0  0  0  0
  -39.4803   60.8436   61.2106 H   0  0  0  0  0  0  0  0  0  0  0  0
  -41.4340   60.4524   64.0697 C   0  0  0  0  0  0  0  0  0  0  0  0
  -41.3892   60.4920   62.7449 C   0  0  0  0  0  0  0  0  0  0  0  0
  -40.8655   59.4051   64.9755 C   0  0  0  0  0  0  0  0  0  0  0  0
  -41.4828   59.4675   66.3673 C   0  0  0  0  0  0  0  0  0  0  0  0
  -42.5766   58.4394   66.5998 C   0  0  0  0  0  0  0  0  0  0  0  0
  -42.5131   57.2577   65.6464 C   0  0  0  0  0  0  0  0  0  0  0  0
  -43.8336   56.9186   64.9809 C   0  0  0  0  0  0  0  0  0  0  0  0
  -44.7360   58.1244   64.7773 C   0  0  0  0  0  0  0  0  0  0  0  0
  -45.9863   58.0965   65.6343 C   0  0  0  0  0  0  0  0  0  0  0  0
  -47.2636   58.2103   64.8265 C   0  0  0  0  0  0  0  0  0  0  0  0
  -47.7002   59.6350   64.5438 C   0  0  0  0  0  0  0  0  0  0  0  0
  -48.8756   59.7086   63.5892 C   0  0  0  0  0  0  0  0  0  0  0  0
  -49.4033   58.3425   63.1821 C   0  0  0  0  0  0  0  0  0  0  0  0
  -50.5437   58.3903   62.1802 C   0  0  0  0  0  0  0  0  0  0  0  0
  -50.4074   57.4024   61.0319 C   0  0  0  0  0  0  0  0  0  0  0  0
  -50.0669   58.0507   59.6970 C   0  0  0  0  0  0  0  0  0  0  0  0
  -48.9430   57.3478   58.9526 C   0  0  0  0  0  0  0  0  0  0  0  0
  -46.8238   58.2480   57.9159 C   0  0  0  0  0  0  0  0  0  0  0  0
  -47.5657   57.9400   59.1899 C   0  0  0  0  0  0  0  0  0  0  0  0
 43 45  1  0  0  0
 43 42  1  0  0  0
 43 46  1  0  0  0
 64 65  1  0  0  0
 44 45  2  0  0  0
 65 63  1  0  0  0
  2  1  1  0  0  0
  2  4  1  0  0  0
  2  5  1  0  0  0
  3  4  2  0  0  0
 63 62  1  0  0  0
  6  8  1  0  0  0
  6 11  2  0  0  0
  7 10  1  0  0  0
  7 11  1  0  0  0
 62 61  1  0  0  0
 26 28  1  0  0  0
 26 32  1  0  0  0
 26 29  1  0  0  0
 12 18  1  0  0  0
 12 19  1  0  0  0
 61 60  1  0  0  0
 30 36  1  0  0  0
 30 37  1  0  0  0
 30 38  1  0  0  0
 20 21  2  0  0  0
 60 59  1  0  0  0
 22 21  1  0  0  0
 22 23  1  0  0  0
 59 58  1  0  0  0
 27 28  2  0  0  0
 58 57  1  0  0  0
 31 37  2  0  0  0
 57 56  1  0  0  0
 56 55  1  0  0  0
 55 54  1  0  0  0
 54 53  1  0  0  0
 53 52  1  0  0  0
 52 51  1  0  0  0
 51 50  1  0  0  0
 50 49  1  0  0  0
 49 47  1  0  0  0
 47 48  2  0  0  0
 48 45  1  0  0  0
 42 41  1  0  0  0
 41 40  1  0  0  0
 40 39  1  0  0  0
 39  1  1  0  0  0
  1 21  1  0  0  0
  8  4  1  0  0  0
  8  9  1  0  0  0
  8 10  1  0  0  0
 11 13  1  0  0  0
 13 14  2  0  0  0
 13 18  1  0  0  0
 14 15  1  0  0  0
 15 16  2  0  0  0
 16 17  1  0  0  0
 17 18  2  0  0  0
 23 24  1  0  0  0
 23 25  1  0  0  0
 25 28  1  0  0  0
 32 33  1  0  0  0
 32 37  1  0  0  0
 33 34  1  0  0  0
 34 35  1  0  0  0
 35 36  1  0  0  0
M  END
> <minimizedAffinity>
-10.49745

> <CNNscore>
0.2625504136

> <CNNaffinity>
7.3018264771

> <CNN_VS>
1.9170975685

> <CNNaffinity_variance>
2.3976871967

$$$$
/media/chris/experiments/cd1a-new-docking/inputs/ligands/7ryo_ligand.pdb


 65 67  0  0  0  0  0  0  0  0999 V2000
  -35.5778   58.8438   62.3043 C   0  0  0  0  0  0  0  0  0  0  0  0
  -34.1252   58.7979   62.3167 N   0  0  0  0  0  0  0  0  0  0  0  0
  -33.9147   60.9823   62.8041 O   0  0  0  0  0  0  0  0  0  0  0  0
  -33.4079   59.8951   62.5710 C   0  0  0  0  0  0  0  0  0  0  0  0
  -33.6642   57.9471   62.1352 H   0  0  0  0  0  0  0  0  0  0  0  0
  -31.4490   58.6704   63.4283 N   0  0  0  0  0  0  0  0  0  0  0  0
  -30.4509   58.2404   61.4529 O   0  0  0  0  0  0  0  0  0  0  0  0
  -31.8762   59.7655   62.5417 C   0  0  0  0  0  0  0  0  0  0  0  0
  -31.2608   61.0721   63.0339 C   0  0  0  0  0  0  0  0  0  0  0  0
  -31.3253   59.3613   61.1663 C   0  0  0  0  0  0  0  0  0  0  0  0
  -30.6937   57.9111   62.7483 C   0  0  0  0  0  0  0  0  0  0  0  0
  -29.6433   57.6571   65.4158 O   0  0  0  0  0  0  0  0  0  0  0  0
  -30.0366   56.6926   63.2272 C   0  0  0  0  0  0  0  0  0  0  0  0
  -30.0257   55.5446   62.4341 C   0  0  0  0  0  0  0  0  0  0  0  0
  -29.6296   54.3286   62.9642 C   0  0  0  0  0  0  0  0  0  0  0  0
  -29.2404   54.2358   64.2827 C   0  0  0  0  0  0  0  0  0  0  0  0
  -29.2465   55.3579   65.0912 C   0  0  0  0  0  0  0  0  0  0  0  0
  -29.6434   56.5884   64.5773 C   0  0  0  0  0  0  0  0  0  0  0  0
  -29.9051   58.4999   65.1008 H   0  0  0  0  0  0  0  0  0  0  0  0
  -35.8374   57.4254   64.2437 O   0  0  0  0  0  0  0  0  0  0  0  0
  -36.1538   58.4169   63.6461 C   0  0  0  0  0  0  0  0  0  0  0  0
  -37.0837   59.2946   64.0609 O   0  0  0  0  0  0  0  0  0  0  0  0
  -37.3433   59.3984   65.5002 C   0  0  0  0  0  0  0  0  0  0  0  0
  -38.7263   58.8595   65.7661 C   0  0  0  0  0  0  0  0  0  0  0  0
  -37.2259   60.8738   65.8301 C   0  0  0  0  0  0  0  0  0  0  0  0
  -35.6863   62.7035   65.4781 N   0  0  0  0  0  0  0  0  0  0  0  0
  -34.8426   60.6485   65.8333 O   0  0  0  0  0  0  0  0  0  0  0  0
  -35.8106   61.3938   65.7113 C   0  0  0  0  0  0  0  0  0  0  0  0
  -36.4987   63.2526   65.3893 H   0  0  0  0  0  0  0  0  0  0  0  0
  -32.7039   64.1758   66.9033 N   0  0  0  0  0  0  0  0  0  0  0  0
  -34.8360   64.0632   67.5904 O   0  0  0  0  0  0  0  0  0  0  0  0
  -34.3871   63.3405   65.3519 C   0  0  0  0  0  0  0  0  0  0  0  0
  -34.4586   64.4861   64.3361 C   0  0  0  0  0  0  0  0  0  0  0  0
  -33.0965   64.9130   63.7996 C   0  0  0  0  0  0  0  0  0  0  0  0
  -32.1269   65.4476   64.8349 C   0  0  0  0  0  0  0  0  0  0  0  0
  -31.7033   64.4289   65.8721 C   0  0  0  0  0  0  0  0  0  0  0  0
  -33.9944   63.8921   66.7133 C   0  0  0  0  0  0  0  0  0  0  0  0
  -32.3950   64.2189   67.8371 H   0  0  0  0  0  0  0  0  0  0  0  0
  -36.1506   57.9943   61.1687 C   0  0  0  0  0  0  0  0  0  0  0  0
  -37.6197   57.6485   61.3868 C   0  0  0  0  0  0  0  0  0  0  0  0
  -38.5686   58.6187   60.7079 C   0  0  0  0  0  0  0  0  0  0  0  0
  -40.0347   58.2709   60.8454 C   0  0  0  0  0  0  0  0  0  0  0  0
  -40.2930   57.5859   62.1021 N   0  0  0  0  0  0  0  0  0  0  0  0
  -41.7791   56.1421   61.2072 O   0  0  0  0  0  0  0  0  0  0  0  0
  -41.1520   56.5647   62.1924 C   0  0  0  0  0  0  0  0  0  0  0  0
  -39.8203   57.8837   62.9127 H   0  0  0  0  0  0  0  0  0  0  0  0
  -42.3244   56.4157   64.3778 C   0  0  0  0  0  0  0  0  0  0  0  0
  -41.3435   56.0464   63.5654 C   0  0  0  0  0  0  0  0  0  0  0  0
  -43.4292   57.3865   64.0995 C   0  0  0  0  0  0  0  0  0  0  0  0
  -44.1485   57.8039   65.3763 C   0  0  0  0  0  0  0  0  0  0  0  0
  -45.6282   57.4605   65.3869 C   0  0  0  0  0  0  0  0  0  0  0  0
  -46.4123   58.1826   66.4700 C   0  0  0  0  0  0  0  0  0  0  0  0
  -47.6012   58.9749   65.9595 C   0  0  0  0  0  0  0  0  0  0  0  0
  -47.7055   59.0005   64.4436 C   0  0  0  0  0  0  0  0  0  0  0  0
  -48.6576   60.0579   63.9201 C   0  0  0  0  0  0  0  0  0  0  0  0
  -50.0679   59.9049   64.4538 C   0  0  0  0  0  0  0  0  0  0  0  0
  -50.8521   58.7655   63.8317 C   0  0  0  0  0  0  0  0  0  0  0  0
  -51.0856   58.9579   62.3463 C   0  0  0  0  0  0  0  0  0  0  0  0
  -50.8904   57.6847   61.5393 C   0  0  0  0  0  0  0  0  0  0  0  0
  -50.0797   57.8725   60.2688 C   0  0  0  0  0  0  0  0  0  0  0  0
  -48.9314   56.8879   60.1099 C   0  0  0  0  0  0  0  0  0  0  0  0
  -47.5668   57.5484   59.9693 C   0  0  0  0  0  0  0  0  0  0  0  0
  -46.8539   57.1938   58.6742 C   0  0  0  0  0  0  0  0  0  0  0  0
  -47.7484   57.0798   56.3155 C   0  0  0  0  0  0  0  0  0  0  0  0
  -47.3353   57.9673   57.4601 C   0  0  0  0  0  0  0  0  0  0  0  0
 43 45  1  0  0  0
 43 42  1  0  0  0
 43 46  1  0  0  0
 64 65  1  0  0  0
 44 45  2  0  0  0
 65 63  1  0  0  0
  2  1  1  0  0  0
  2  4  1  0  0  0
  2  5  1  0  0  0
  3  4  2  0  0  0
 63 62  1  0  0  0
  6  8  1  0  0  0
  6 11  2  0  0  0
  7 10  1  0  0  0
  7 11  1  0  0  0
 62 61  1  0  0  0
 26 28  1  0  0  0
 26 32  1  0  0  0
 26 29  1  0  0  0
 12 18  1  0  0  0
 12 19  1  0  0  0
 61 60  1  0  0  0
 30 36  1  0  0  0
 30 37  1  0  0  0
 30 38  1  0  0  0
 20 21  2  0  0  0
 60 59  1  0  0  0
 22 21  1  0  0  0
 22 23  1  0  0  0
 59 58  1  0  0  0
 27 28  2  0  0  0
 58 57  1  0  0  0
 31 37  2  0  0  0
 57 56  1  0  0  0
 56 55  1  0  0  0
 55 54  1  0  0  0
 54 53  1  0  0  0
 53 52  1  0  0  0
 52 51  1  0  0  0
 51 50  1  0  0  0
 50 49  1  0  0  0
 49 47  1  0  0  0
 47 48  2  0  0  0
 48 45  1  0  0  0
 42 41  1  0  0  0
 41 40  1  0  0  0
 40 39  1  0  0  0
 39  1  1  0  0  0
  1 21  1  0  0  0
  8  4  1  0  0  0
  8  9  1  0  0  0
  8 10  1  0  0  0
 11 13  1  0  0  0
 13 14  2  0  0  0
 13 18  1  0  0  0
 14 15  1  0  0  0
 15 16  2  0  0  0
 16 17  1  0  0  0
 17 18  2  0  0  0
 23 24  1  0  0  0
 23 25  1  0  0  0
 25 28  1  0  0  0
 32 33  1  0  0  0
 32 37  1  0  0  0
 33 34  1  0  0  0
 34 35  1  0  0  0
 35 36  1  0  0  0
M  END
> <minimizedAffinity>
-10.53376

> <CNNscore>
0.2611645460

> <CNNaffinity>
7.3884329796

> <CNN_VS>
1.9295967817

> <CNNaffinity_variance>
0.5531342030

$$$$
/media/chris/experiments/cd1a-new-docking/inputs/ligands/7ryo_ligand.pdb


 65 67  0  0  0  0  0  0  0  0999 V2000
  -34.4930   57.8927   62.6410 C   0  0  0  0  0  0  0  0  0  0  0  0
  -35.0765   59.1218   63.1522 N   0  0  0  0  0  0  0  0  0  0  0  0
  -35.0199   58.4313   65.2908 O   0  0  0  0  0  0  0  0  0  0  0  0
  -35.2925   59.2847   64.4598 C   0  0  0  0  0  0  0  0  0  0  0  0
  -35.3155   59.8433   62.5264 H   0  0  0  0  0  0  0  0  0  0  0  0
  -34.9447   61.4213   65.6372 N   0  0  0  0  0  0  0  0  0  0  0  0
  -35.7914   62.7955   64.0632 O   0  0  0  0  0  0  0  0  0  0  0  0
  -35.9348   60.6054   64.9149 C   0  0  0  0  0  0  0  0  0  0  0  0
  -37.0981   60.2916   65.8510 C   0  0  0  0  0  0  0  0  0  0  0  0
  -36.3713   61.5041   63.7485 C   0  0  0  0  0  0  0  0  0  0  0  0
  -34.9448   62.5714   65.1017 C   0  0  0  0  0  0  0  0  0  0  0  0
  -34.0175   62.9509   67.7998 O   0  0  0  0  0  0  0  0  0  0  0  0
  -34.1133   63.7097   65.4998 C   0  0  0  0  0  0  0  0  0  0  0  0
  -33.6177   64.5868   64.5343 C   0  0  0  0  0  0  0  0  0  0  0  0
  -32.6422   65.5129   64.8614 C   0  0  0  0  0  0  0  0  0  0  0  0
  -32.1476   65.5812   66.1457 C   0  0  0  0  0  0  0  0  0  0  0  0
  -32.6188   64.7203   67.1201 C   0  0  0  0  0  0  0  0  0  0  0  0
  -33.5975   63.7812   66.8101 C   0  0  0  0  0  0  0  0  0  0  0  0
  -34.6754   62.3073   67.6238 H   0  0  0  0  0  0  0  0  0  0  0  0
  -33.1860   57.8594   60.6085 O   0  0  0  0  0  0  0  0  0  0  0  0
  -33.2862   58.1805   61.7605 C   0  0  0  0  0  0  0  0  0  0  0  0
  -32.3365   58.8271   62.4585 O   0  0  0  0  0  0  0  0  0  0  0  0
  -30.9738   58.2865   62.4369 C   0  0  0  0  0  0  0  0  0  0  0  0
  -30.1859   58.9605   63.5318 C   0  0  0  0  0  0  0  0  0  0  0  0
  -30.4314   58.6039   61.0568 C   0  0  0  0  0  0  0  0  0  0  0  0
  -30.9280   60.9193   61.5405 N   0  0  0  0  0  0  0  0  0  0  0  0
  -29.2435   60.4601   60.1217 O   0  0  0  0  0  0  0  0  0  0  0  0
  -30.1469   60.0762   60.8592 C   0  0  0  0  0  0  0  0  0  0  0  0
  -31.6374   60.5539   62.1172 H   0  0  0  0  0  0  0  0  0  0  0  0
  -29.2410   63.9933   62.4341 N   0  0  0  0  0  0  0  0  0  0  0  0
  -29.5948   62.0661   63.5257 O   0  0  0  0  0  0  0  0  0  0  0  0
  -30.7606   62.3596   61.4546 C   0  0  0  0  0  0  0  0  0  0  0  0
  -32.1131   63.0585   61.6323 C   0  0  0  0  0  0  0  0  0  0  0  0
  -32.1309   64.4946   61.1196 C   0  0  0  0  0  0  0  0  0  0  0  0
  -31.1730   65.4448   61.8105 C   0  0  0  0  0  0  0  0  0  0  0  0
  -29.7109   65.1039   61.6129 C   0  0  0  0  0  0  0  0  0  0  0  0
  -29.8142   62.7945   62.5623 C   0  0  0  0  0  0  0  0  0  0  0  0
  -28.4146   64.1438   62.9476 H   0  0  0  0  0  0  0  0  0  0  0  0
  -35.5300   57.0560   61.8902 C   0  0  0  0  0  0  0  0  0  0  0  0
  -36.8162   57.8300   61.6220 C   0  0  0  0  0  0  0  0  0  0  0  0
  -37.9626   57.4145   62.5252 C   0  0  0  0  0  0  0  0  0  0  0  0
  -39.3123   57.3477   61.8448 C   0  0  0  0  0  0  0  0  0  0  0  0
  -40.2474   58.2847   62.4470 N   0  0  0  0  0  0  0  0  0  0  0  0
  -40.6615   56.9819   64.2429 O   0  0  0  0  0  0  0  0  0  0  0  0
  -40.8581   58.0322   63.6099 C   0  0  0  0  0  0  0  0  0  0  0  0
  -40.4371   59.1323   61.9837 H   0  0  0  0  0  0  0  0  0  0  0  0
  -43.1118   58.8290   64.2874 C   0  0  0  0  0  0  0  0  0  0  0  0
  -41.8334   59.0650   64.0251 C   0  0  0  0  0  0  0  0  0  0  0  0
  -43.8294   57.5161   64.2447 C   0  0  0  0  0  0  0  0  0  0  0  0
  -44.4531   57.1700   65.5912 C   0  0  0  0  0  0  0  0  0  0  0  0
  -45.5773   58.1041   66.0046 C   0  0  0  0  0  0  0  0  0  0  0  0
  -46.6690   58.2431   64.9565 C   0  0  0  0  0  0  0  0  0  0  0  0
  -47.9560   57.5135   65.2925 C   0  0  0  0  0  0  0  0  0  0  0  0
  -48.8195   58.2452   66.3067 C   0  0  0  0  0  0  0  0  0  0  0  0
  -50.2373   58.4910   65.8294 C   0  0  0  0  0  0  0  0  0  0  0  0
  -50.5897   59.9627   65.7454 C   0  0  0  0  0  0  0  0  0  0  0  0
  -50.8493   60.4646   64.3380 C   0  0  0  0  0  0  0  0  0  0  0  0
  -49.7706   60.0455   63.3587 C   0  0  0  0  0  0  0  0  0  0  0  0
  -50.3131   59.6992   61.9818 C   0  0  0  0  0  0  0  0  0  0  0  0
  -50.8346   58.2780   61.8588 C   0  0  0  0  0  0  0  0  0  0  0  0
  -49.7911   57.2671   61.4091 C   0  0  0  0  0  0  0  0  0  0  0  0
  -48.6477   57.8747   60.6081 C   0  0  0  0  0  0  0  0  0  0  0  0
  -48.2448   57.0417   59.4019 C   0  0  0  0  0  0  0  0  0  0  0  0
  -46.8122   58.4867   57.9066 C   0  0  0  0  0  0  0  0  0  0  0  0
  -46.8517   57.3333   58.8743 C   0  0  0  0  0  0  0  0  0  0  0  0
 43 45  1  0  0  0
 43 42  1  0  0  0
 43 46  1  0  0  0
 64 65  1  0  0  0
 44 45  2  0  0  0
 65 63  1  0  0  0
  2  1  1  0  0  0
  2  4  1  0  0  0
  2  5  1  0  0  0
  3  4  2  0  0  0
 63 62  1  0  0  0
  6  8  1  0  0  0
  6 11  2  0  0  0
  7 10  1  0  0  0
  7 11  1  0  0  0
 62 61  1  0  0  0
 26 28  1  0  0  0
 26 32  1  0  0  0
 26 29  1  0  0  0
 12 18  1  0  0  0
 12 19  1  0  0  0
 61 60  1  0  0  0
 30 36  1  0  0  0
 30 37  1  0  0  0
 30 38  1  0  0  0
 20 21  2  0  0  0
 60 59  1  0  0  0
 22 21  1  0  0  0
 22 23  1  0  0  0
 59 58  1  0  0  0
 27 28  2  0  0  0
 58 57  1  0  0  0
 31 37  2  0  0  0
 57 56  1  0  0  0
 56 55  1  0  0  0
 55 54  1  0  0  0
 54 53  1  0  0  0
 53 52  1  0  0  0
 52 51  1  0  0  0
 51 50  1  0  0  0
 50 49  1  0  0  0
 49 47  1  0  0  0
 47 48  2  0  0  0
 48 45  1  0  0  0
 42 41  1  0  0  0
 41 40  1  0  0  0
 40 39  1  0  0  0
 39  1  1  0  0  0
  1 21  1  0  0  0
  8  4  1  0  0  0
  8  9  1  0  0  0
  8 10  1  0  0  0
 11 13  1  0  0  0
 13 14  2  0  0  0
 13 18  1  0  0  0
 14 15  1  0  0  0
 15 16  2  0  0  0
 16 17  1  0  0  0
 17 18  2  0  0  0
 23 24  1  0  0  0
 23 25  1  0  0  0
 25 28  1  0  0  0
 32 33  1  0  0  0
 32 37  1  0  0  0
 33 34  1  0  0  0
 34 35  1  0  0  0
 35 36  1  0  0  0
M  END
> <minimizedAffinity>
-10.06271

> <CNNscore>
0.2578708231

> <CNNaffinity>
7.0190763474

> <CNN_VS>
1.8100149632

> <CNNaffinity_variance>
0.8104694486

$$$$
