/media/chris/experiments/cd1a-new-docking/inputs/ligands/7ryo_ligand.pdb


 65 67  0  0  0  0  0  0  0  0999 V2000
  -40.2406   59.1713   64.1196 C   0  0  0  0  0  0  0  0  0  0  0  0
  -39.1398   58.7140   63.2880 N   0  0  0  0  0  0  0  0  0  0  0  0
  -39.2783   60.4663   61.8866 O   0  0  0  0  0  0  0  0  0  0  0  0
  -38.7487   59.4176   62.2228 C   0  0  0  0  0  0  0  0  0  0  0  0
  -38.6769   57.8748   63.5129 H   0  0  0  0  0  0  0  0  0  0  0  0
  -36.3103   59.3894   61.8689 N   0  0  0  0  0  0  0  0  0  0  0  0
  -36.0200   57.1542   61.8191 O   0  0  0  0  0  0  0  0  0  0  0  0
  -37.5918   58.8517   61.3829 C   0  0  0  0  0  0  0  0  0  0  0  0
  -37.7869   59.2701   59.9287 C   0  0  0  0  0  0  0  0  0  0  0  0
  -37.4277   57.3308   61.5188 C   0  0  0  0  0  0  0  0  0  0  0  0
  -35.5428   58.4003   62.0739 C   0  0  0  0  0  0  0  0  0  0  0  0
  -34.8912   58.6610   64.8652 O   0  0  0  0  0  0  0  0  0  0  0  0
  -34.1630   58.4640   62.5617 C   0  0  0  0  0  0  0  0  0  0  0  0
  -33.0990   58.2535   61.6837 C   0  0  0  0  0  0  0  0  0  0  0  0
  -31.8152   58.0691   62.1675 C   0  0  0  0  0  0  0  0  0  0  0  0
  -31.5707   58.0912   63.5233 C   0  0  0  0  0  0  0  0  0  0  0  0
  -32.6083   58.2934   64.4149 C   0  0  0  0  0  0  0  0  0  0  0  0
  -33.9058   58.4786   63.9481 C   0  0  0  0  0  0  0  0  0  0  0  0
  -35.7757   58.7884   64.5835 H   0  0  0  0  0  0  0  0  0  0  0  0
  -39.9694   59.1203   66.5206 O   0  0  0  0  0  0  0  0  0  0  0  0
  -39.7433   59.6589   65.4722 C   0  0  0  0  0  0  0  0  0  0  0  0
  -39.0315   60.7909   65.3331 O   0  0  0  0  0  0  0  0  0  0  0  0
  -37.5869   60.7337   65.5765 C   0  0  0  0  0  0  0  0  0  0  0  0
  -37.3020   61.4526   66.8710 C   0  0  0  0  0  0  0  0  0  0  0  0
  -36.9454   61.4165   64.3842 C   0  0  0  0  0  0  0  0  0  0  0  0
  -35.6283   63.4431   64.3897 N   0  0  0  0  0  0  0  0  0  0  0  0
  -34.7519   61.5949   65.3267 O   0  0  0  0  0  0  0  0  0  0  0  0
  -35.6744   62.1548   64.7410 C   0  0  0  0  0  0  0  0  0  0  0  0
  -36.3984   63.8390   63.9214 H   0  0  0  0  0  0  0  0  0  0  0  0
  -32.6033   65.1601   63.3920 N   0  0  0  0  0  0  0  0  0  0  0  0
  -33.6100   63.2879   62.6763 O   0  0  0  0  0  0  0  0  0  0  0  0
  -34.4741   64.2763   64.6790 C   0  0  0  0  0  0  0  0  0  0  0  0
  -33.7636   63.7724   65.9403 C   0  0  0  0  0  0  0  0  0  0  0  0
  -32.8429   64.8075   66.5777 C   0  0  0  0  0  0  0  0  0  0  0  0
  -31.6899   65.2750   65.7117 C   0  0  0  0  0  0  0  0  0  0  0  0
  -32.1143   66.0206   64.4639 C   0  0  0  0  0  0  0  0  0  0  0  0
  -33.5236   64.1987   63.4947 C   0  0  0  0  0  0  0  0  0  0  0  0
  -32.2137   65.3035   62.4993 H   0  0  0  0  0  0  0  0  0  0  0  0
  -41.3000   58.0811   64.2877 C   0  0  0  0  0  0  0  0  0  0  0  0
  -42.6942   58.6565   64.5125 C   0  0  0  0  0  0  0  0  0  0  0  0
  -43.7893   57.6076   64.4561 C   0  0  0  0  0  0  0  0  0  0  0  0
  -45.1623   58.1039   64.8532 C   0  0  0  0  0  0  0  0  0  0  0  0
  -45.3162   58.1126   66.2993 N   0  0  0  0  0  0  0  0  0  0  0  0
  -46.5292   57.6198   68.1376 O   0  0  0  0  0  0  0  0  0  0  0  0
  -46.3938   57.6000   66.9033 C   0  0  0  0  0  0  0  0  0  0  0  0
  -44.6040   58.5088   66.8516 H   0  0  0  0  0  0  0  0  0  0  0  0
  -48.5569   57.4232   65.6938 C   0  0  0  0  0  0  0  0  0  0  0  0
  -47.3550   56.9461   65.9873 C   0  0  0  0  0  0  0  0  0  0  0  0
  -49.1857   58.6896   66.1851 C   0  0  0  0  0  0  0  0  0  0  0  0
  -50.5907   58.8759   65.6254 C   0  0  0  0  0  0  0  0  0  0  0  0
  -50.7619   60.1441   64.8073 C   0  0  0  0  0  0  0  0  0  0  0  0
  -51.1772   59.8879   63.3681 C   0  0  0  0  0  0  0  0  0  0  0  0
  -50.3007   58.8926   62.6313 C   0  0  0  0  0  0  0  0  0  0  0  0
  -51.0883   57.8756   61.8219 C   0  0  0  0  0  0  0  0  0  0  0  0
  -50.2137   56.9295   61.0228 C   0  0  0  0  0  0  0  0  0  0  0  0
  -49.1286   57.6410   60.2397 C   0  0  0  0  0  0  0  0  0  0  0  0
  -49.3647   57.6859   58.7423 C   0  0  0  0  0  0  0  0  0  0  0  0
  -48.2850   56.9677   57.9573 C   0  0  0  0  0  0  0  0  0  0  0  0
  -46.8778   57.3611   58.3758 C   0  0  0  0  0  0  0  0  0  0  0  0
  -45.9900   57.8080   57.2272 C   0  0  0  0  0  0  0  0  0  0  0  0
  -44.7082   58.5014   57.6623 C   0  0  0  0  0  0  0  0  0  0  0  0
  -43.7569   58.8162   56.5161 C   0  0  0  0  0  0  0  0  0  0  0  0
  -42.2986   58.8797   56.9405 C   0  0  0  0  0  0  0  0  0  0  0  0
  -40.7072   58.9686   58.8990 C   0  0  0  0  0  0  0  0  0  0  0  0
  -42.0503   58.5125   58.3923 C   0  0  0  0  0  0  0  0  0  0  0  0
 43 45  1  0  0  0
 43 42  1  0  0  0
 43 46  1  0  0  0
 64 65  1  0  0  0
 44 45  2  0  0  0
 65 63  1  0  0  0
  2  1  1  0  0  0
  2  4  1  0  0  0
  2  5  1  0  0  0
  3  4  2  0  0  0
 63 62  1  0  0  0
  6  8  1  0  0  0
  6 11  2  0  0  0
  7 10  1  0  0  0
  7 11  1  0  0  0
 62 61  1  0  0  0
 26 28  1  0  0  0
 26 32  1  0  0  0
 26 29  1  0  0  0
 12 18  1  0  0  0
 12 19  1  0  0  0
 61 60  1  0  0  0
 30 36  1  0  0  0
 30 37  1  0  0  0
 30 38  1  0  0  0
 20 21  2  0  0  0
 60 59  1  0  0  0
 22 21  1  0  0  0
 22 23  1  0  0  0
 59 58  1  0  0  0
 27 28  2  0  0  0
 58 57  1  0  0  0
 31 37  2  0  0  0
 57 56  1  0  0  0
 56 55  1  0  0  0
 55 54  1  0  0  0
 54 53  1  0  0  0
 53 52  1  0  0  0
 52 51  1  0  0  0
 51 50  1  0  0  0
 50 49  1  0  0  0
 49 47  1  0  0  0
 47 48  2  0  0  0
 48 45  1  0  0  0
 42 41  1  0  0  0
 41 40  1  0  0  0
 40 39  1  0  0  0
 39  1  1  0  0  0
  1 21  1  0  0  0
  8  4  1  0  0  0
  8  9  1  0  0  0
  8 10  1  0  0  0
 11 13  1  0  0  0
 13 14  2  0  0  0
 13 18  1  0  0  0
 14 15  1  0  0  0
 15 16  2  0  0  0
 16 17  1  0  0  0
 17 18  2  0  0  0
 23 24  1  0  0  0
 23 25  1  0  0  0
 25 28  1  0  0  0
 32 33  1  0  0  0
 32 37  1  0  0  0
 33 34  1  0  0  0
 34 35  1  0  0  0
 35 36  1  0  0  0
M  END
> <minimizedAffinity>
-8.40357

> <CNNscore>
0.3311394453

> <CNNaffinity>
7.5165114403

> <CNN_VS>
2.4890134335

> <CNNaffinity_variance>
0.5951661468

$$$$
/media/chris/experiments/cd1a-new-docking/inputs/ligands/7ryo_ligand.pdb


 65 67  0  0  0  0  0  0  0  0999 V2000
  -39.5375   59.5802   64.3615 C   0  0  0  0  0  0  0  0  0  0  0  0
  -38.5750   58.8897   63.5194 N   0  0  0  0  0  0  0  0  0  0  0  0
  -38.4515   60.5702   62.0314 O   0  0  0  0  0  0  0  0  0  0  0  0
  -38.1080   59.4588   62.4055 C   0  0  0  0  0  0  0  0  0  0  0  0
  -38.2635   57.9910   63.7734 H   0  0  0  0  0  0  0  0  0  0  0  0
  -35.7395   59.1227   61.8145 N   0  0  0  0  0  0  0  0  0  0  0  0
  -35.6494   56.8896   62.1113 O   0  0  0  0  0  0  0  0  0  0  0  0
  -37.1106   58.6510   61.5589 C   0  0  0  0  0  0  0  0  0  0  0  0
  -37.4387   58.8533   60.0827 C   0  0  0  0  0  0  0  0  0  0  0  0
  -37.0623   57.1616   61.9307 C   0  0  0  0  0  0  0  0  0  0  0  0
  -35.0407   58.1041   62.1033 C   0  0  0  0  0  0  0  0  0  0  0  0
  -32.9849   58.1640   60.0899 O   0  0  0  0  0  0  0  0  0  0  0  0
  -33.6129   58.1004   62.4302 C   0  0  0  0  0  0  0  0  0  0  0  0
  -33.1976   58.2130   63.7577 C   0  0  0  0  0  0  0  0  0  0  0  0
  -31.8686   58.4550   64.0597 C   0  0  0  0  0  0  0  0  0  0  0  0
  -30.9373   58.5878   63.0529 C   0  0  0  0  0  0  0  0  0  0  0  0
  -31.3235   58.4850   61.7290 C   0  0  0  0  0  0  0  0  0  0  0  0
  -32.6551   58.2441   61.4053 C   0  0  0  0  0  0  0  0  0  0  0  0
  -33.8730   58.0028   59.8386 H   0  0  0  0  0  0  0  0  0  0  0  0
  -39.3115   61.3106   66.0335 O   0  0  0  0  0  0  0  0  0  0  0  0
  -38.8417   60.3643   65.4642 C   0  0  0  0  0  0  0  0  0  0  0  0
  -37.6167   59.8627   65.6988 O   0  0  0  0  0  0  0  0  0  0  0  0
  -36.4937   60.7996   65.8008 C   0  0  0  0  0  0  0  0  0  0  0  0
  -36.8131   61.7962   66.8864 C   0  0  0  0  0  0  0  0  0  0  0  0
  -36.3803   61.4501   64.4358 C   0  0  0  0  0  0  0  0  0  0  0  0
  -34.7660   63.1153   65.1164 N   0  0  0  0  0  0  0  0  0  0  0  0
  -34.3120   61.8630   63.3032 O   0  0  0  0  0  0  0  0  0  0  0  0
  -35.0614   62.1610   64.2291 C   0  0  0  0  0  0  0  0  0  0  0  0
  -35.4056   63.3114   65.8385 H   0  0  0  0  0  0  0  0  0  0  0  0
  -31.8794   64.6597   66.6581 N   0  0  0  0  0  0  0  0  0  0  0  0
  -33.9758   64.2845   67.3618 O   0  0  0  0  0  0  0  0  0  0  0  0
  -33.5279   63.8718   65.0459 C   0  0  0  0  0  0  0  0  0  0  0  0
  -33.7215   65.1188   64.1757 C   0  0  0  0  0  0  0  0  0  0  0  0
  -32.4143   65.7210   63.6717 C   0  0  0  0  0  0  0  0  0  0  0  0
  -31.4654   66.2111   64.7475 C   0  0  0  0  0  0  0  0  0  0  0  0
  -30.9311   65.1173   65.6482 C   0  0  0  0  0  0  0  0  0  0  0  0
  -33.1465   64.2907   66.4569 C   0  0  0  0  0  0  0  0  0  0  0  0
  -31.5505   64.6188   67.5851 H   0  0  0  0  0  0  0  0  0  0  0  0
  -40.5624   58.6073   64.9465 C   0  0  0  0  0  0  0  0  0  0  0  0
  -40.4119   57.1981   64.3838 C   0  0  0  0  0  0  0  0  0  0  0  0
  -41.6783   56.3703   64.5000 C   0  0  0  0  0  0  0  0  0  0  0  0
  -42.7701   56.9978   65.3388 C   0  0  0  0  0  0  0  0  0  0  0  0
  -43.7511   57.6694   64.5012 N   0  0  0  0  0  0  0  0  0  0  0  0
  -45.8223   58.5197   64.2171 O   0  0  0  0  0  0  0  0  0  0  0  0
  -44.9817   57.9577   64.9382 C   0  0  0  0  0  0  0  0  0  0  0  0
  -43.5011   57.9199   63.5824 H   0  0  0  0  0  0  0  0  0  0  0  0
  -46.4126   57.3868   66.8876 C   0  0  0  0  0  0  0  0  0  0  0  0
  -45.2192   57.6244   66.3605 C   0  0  0  0  0  0  0  0  0  0  0  0
  -47.7378   57.3821   66.1916 C   0  0  0  0  0  0  0  0  0  0  0  0
  -48.5762   58.5979   66.5667 C   0  0  0  0  0  0  0  0  0  0  0  0
  -49.9968   58.5523   66.0311 C   0  0  0  0  0  0  0  0  0  0  0  0
  -50.6507   59.9198   65.9242 C   0  0  0  0  0  0  0  0  0  0  0  0
  -50.3303   60.6686   64.6442 C   0  0  0  0  0  0  0  0  0  0  0  0
  -51.1767   60.2322   63.4598 C   0  0  0  0  0  0  0  0  0  0  0  0
  -50.4160   59.4011   62.4453 C   0  0  0  0  0  0  0  0  0  0  0  0
  -51.0218   58.0293   62.2262 C   0  0  0  0  0  0  0  0  0  0  0  0
  -50.5842   57.3497   60.9429 C   0  0  0  0  0  0  0  0  0  0  0  0
  -50.0323   58.3253   59.9223 C   0  0  0  0  0  0  0  0  0  0  0  0
  -49.2245   57.6517   58.8252 C   0  0  0  0  0  0  0  0  0  0  0  0
  -48.1216   56.7407   59.3357 C   0  0  0  0  0  0  0  0  0  0  0  0
  -46.7352   57.0864   58.8146 C   0  0  0  0  0  0  0  0  0  0  0  0
  -46.7316   58.1598   57.7348 C   0  0  0  0  0  0  0  0  0  0  0  0
  -45.5276   58.0832   56.8099 C   0  0  0  0  0  0  0  0  0  0  0  0
  -43.1899   59.0078   56.5721 C   0  0  0  0  0  0  0  0  0  0  0  0
  -44.1973   58.3609   57.4861 C   0  0  0  0  0  0  0  0  0  0  0  0
 43 45  1  0  0  0
 43 42  1  0  0  0
 43 46  1  0  0  0
 64 65  1  0  0  0
 44 45  2  0  0  0
 65 63  1  0  0  0
  2  1  1  0  0  0
  2  4  1  0  0  0
  2  5  1  0  0  0
  3  4  2  0  0  0
 63 62  1  0  0  0
  6  8  1  0  0  0
  6 11  2  0  0  0
  7 10  1  0  0  0
  7 11  1  0  0  0
 62 61  1  0  0  0
 26 28  1  0  0  0
 26 32  1  0  0  0
 26 29  1  0  0  0
 12 18  1  0  0  0
 12 19  1  0  0  0
 61 60  1  0  0  0
 30 36  1  0  0  0
 30 37  1  0  0  0
 30 38  1  0  0  0
 20 21  2  0  0  0
 60 59  1  0  0  0
 22 21  1  0  0  0
 22 23  1  0  0  0
 59 58  1  0  0  0
 27 28  2  0  0  0
 58 57  1  0  0  0
 31 37  2  0  0  0
 57 56  1  0  0  0
 56 55  1  0  0  0
 55 54  1  0  0  0
 54 53  1  0  0  0
 53 52  1  0  0  0
 52 51  1  0  0  0
 51 50  1  0  0  0
 50 49  1  0  0  0
 49 47  1  0  0  0
 47 48  2  0  0  0
 48 45  1  0  0  0
 42 41  1  0  0  0
 41 40  1  0  0  0
 40 39  1  0  0  0
 39  1  1  0  0  0
  1 21  1  0  0  0
  8  4  1  0  0  0
  8  9  1  0  0  0
  8 10  1  0  0  0
 11 13  1  0  0  0
 13 14  2  0  0  0
 13 18  1  0  0  0
 14 15  1  0  0  0
 15 16  2  0  0  0
 16 17  1  0  0  0
 17 18  2  0  0  0
 23 24  1  0  0  0
 23 25  1  0  0  0
 25 28  1  0  0  0
 32 33  1  0  0  0
 32 37  1  0  0  0
 33 34  1  0  0  0
 34 35  1  0  0  0
 35 36  1  0  0  0
M  END
> <minimizedAffinity>
-9.46909

> <CNNscore>
0.3169139028

> <CNNaffinity>
7.3904480934

> <CNN_VS>
2.3421356678

> <CNNaffinity_variance>
0.5974725485

$$$$
/media/chris/experiments/cd1a-new-docking/inputs/ligands/7ryo_ligand.pdb


 65 67  0  0  0  0  0  0  0  0999 V2000
  -36.1106   57.8948   61.8039 C   0  0  0  0  0  0  0  0  0  0  0  0
  -36.5768   58.6192   62.9744 N   0  0  0  0  0  0  0  0  0  0  0  0
  -38.4154   57.3474   63.2101 O   0  0  0  0  0  0  0  0  0  0  0  0
  -37.7121   58.2733   63.5861 C   0  0  0  0  0  0  0  0  0  0  0  0
  -36.0489   59.3746   63.3206 H   0  0  0  0  0  0  0  0  0  0  0  0
  -36.9602   59.5543   65.5522 N   0  0  0  0  0  0  0  0  0  0  0  0
  -38.1606   61.4283   65.1913 O   0  0  0  0  0  0  0  0  0  0  0  0
  -38.1460   59.1062   64.8034 C   0  0  0  0  0  0  0  0  0  0  0  0
  -39.0095   58.2377   65.7134 C   0  0  0  0  0  0  0  0  0  0  0  0
  -38.8574   60.4136   64.4246 C   0  0  0  0  0  0  0  0  0  0  0  0
  -37.0651   60.8095   65.7036 C   0  0  0  0  0  0  0  0  0  0  0  0
  -34.2262   60.3369   65.6691 O   0  0  0  0  0  0  0  0  0  0  0  0
  -36.1098   61.6792   66.3941 C   0  0  0  0  0  0  0  0  0  0  0  0
  -36.5433   62.8674   66.9836 C   0  0  0  0  0  0  0  0  0  0  0  0
  -35.6279   63.8091   67.4212 C   0  0  0  0  0  0  0  0  0  0  0  0
  -34.2755   63.5854   67.2805 C   0  0  0  0  0  0  0  0  0  0  0  0
  -33.8199   62.4180   66.6955 C   0  0  0  0  0  0  0  0  0  0  0  0
  -34.7245   61.4605   66.2476 C   0  0  0  0  0  0  0  0  0  0  0  0
  -34.8088   59.6729   65.3569 H   0  0  0  0  0  0  0  0  0  0  0  0
  -34.1864   56.4328   61.8353 O   0  0  0  0  0  0  0  0  0  0  0  0
  -34.6357   57.5420   61.9259 C   0  0  0  0  0  0  0  0  0  0  0  0
  -33.9057   58.6440   62.1707 O   0  0  0  0  0  0  0  0  0  0  0  0
  -32.4644   58.4849   62.3869 C   0  0  0  0  0  0  0  0  0  0  0  0
  -32.2354   58.2481   63.8583 C   0  0  0  0  0  0  0  0  0  0  0  0
  -31.8350   59.7779   61.9059 C   0  0  0  0  0  0  0  0  0  0  0  0
  -31.5982   62.0498   62.6963 N   0  0  0  0  0  0  0  0  0  0  0  0
  -33.5814   61.0230   62.9695 O   0  0  0  0  0  0  0  0  0  0  0  0
  -32.4189   61.0024   62.5749 C   0  0  0  0  0  0  0  0  0  0  0  0
  -30.6755   61.9757   62.3614 H   0  0  0  0  0  0  0  0  0  0  0  0
  -33.0501   65.3593   62.5137 N   0  0  0  0  0  0  0  0  0  0  0  0
  -31.8485   64.1312   61.0719 O   0  0  0  0  0  0  0  0  0  0  0  0
  -32.0286   63.2947   63.3085 C   0  0  0  0  0  0  0  0  0  0  0  0
  -30.9304   63.8352   64.2313 C   0  0  0  0  0  0  0  0  0  0  0  0
  -31.4327   64.8572   65.2455 C   0  0  0  0  0  0  0  0  0  0  0  0
  -32.0241   66.1227   64.6568 C   0  0  0  0  0  0  0  0  0  0  0  0
  -33.2849   65.9001   63.8482 C   0  0  0  0  0  0  0  0  0  0  0  0
  -32.3015   64.2994   62.2003 C   0  0  0  0  0  0  0  0  0  0  0  0
  -33.4898   65.8248   61.7659 H   0  0  0  0  0  0  0  0  0  0  0  0
  -36.3796   58.6813   60.5201 C   0  0  0  0  0  0  0  0  0  0  0  0
  -37.6010   59.5865   60.6394 C   0  0  0  0  0  0  0  0  0  0  0  0
  -38.6882   59.2581   59.6331 C   0  0  0  0  0  0  0  0  0  0  0  0
  -39.8769   58.5167   60.2047 C   0  0  0  0  0  0  0  0  0  0  0  0
  -40.3838   59.1817   61.3947 N   0  0  0  0  0  0  0  0  0  0  0  0
  -41.7127   59.1766   63.2189 O   0  0  0  0  0  0  0  0  0  0  0  0
  -41.2713   58.6021   62.2101 C   0  0  0  0  0  0  0  0  0  0  0  0
  -40.0631   60.0881   61.6068 H   0  0  0  0  0  0  0  0  0  0  0  0
  -41.8533   56.2428   62.7284 C   0  0  0  0  0  0  0  0  0  0  0  0
  -41.6118   57.2073   61.8509 C   0  0  0  0  0  0  0  0  0  0  0  0
  -41.8561   56.3419   64.2220 C   0  0  0  0  0  0  0  0  0  0  0  0
  -43.2657   56.2394   64.7915 C   0  0  0  0  0  0  0  0  0  0  0  0
  -43.7831   57.5380   65.3856 C   0  0  0  0  0  0  0  0  0  0  0  0
  -45.0767   58.0234   64.7529 C   0  0  0  0  0  0  0  0  0  0  0  0
  -46.1968   58.2870   65.7417 C   0  0  0  0  0  0  0  0  0  0  0  0
  -47.5266   58.6062   65.0788 C   0  0  0  0  0  0  0  0  0  0  0  0
  -48.6796   58.7172   66.0571 C   0  0  0  0  0  0  0  0  0  0  0  0
  -50.0088   58.9885   65.3814 C   0  0  0  0  0  0  0  0  0  0  0  0
  -49.9251   59.9193   64.1870 C   0  0  0  0  0  0  0  0  0  0  0  0
  -51.0096   59.6549   63.1614 C   0  0  0  0  0  0  0  0  0  0  0  0
  -50.9524   58.2531   62.5766 C   0  0  0  0  0  0  0  0  0  0  0  0
  -50.4706   58.1996   61.1372 C   0  0  0  0  0  0  0  0  0  0  0  0
  -49.0676   57.6370   60.9691 C   0  0  0  0  0  0  0  0  0  0  0  0
  -48.6886   57.3450   59.5237 C   0  0  0  0  0  0  0  0  0  0  0  0
  -47.1947   57.4413   59.2589 C   0  0  0  0  0  0  0  0  0  0  0  0
  -46.6657   57.3796   56.7906 C   0  0  0  0  0  0  0  0  0  0  0  0
  -46.8264   58.2360   58.0191 C   0  0  0  0  0  0  0  0  0  0  0  0
 43 45  1  0  0  0
 43 42  1  0  0  0
 43 46  1  0  0  0
 64 65  1  0  0  0
 44 45  2  0  0  0
 65 63  1  0  0  0
  2  1  1  0  0  0
  2  4  1  0  0  0
  2  5  1  0  0  0
  3  4  2  0  0  0
 63 62  1  0  0  0
  6  8  1  0  0  0
  6 11  2  0  0  0
  7 10  1  0  0  0
  7 11  1  0  0  0
 62 61  1  0  0  0
 26 28  1  0  0  0
 26 32  1  0  0  0
 26 29  1  0  0  0
 12 18  1  0  0  0
 12 19  1  0  0  0
 61 60  1  0  0  0
 30 36  1  0  0  0
 30 37  1  0  0  0
 30 38  1  0  0  0
 20 21  2  0  0  0
 60 59  1  0  0  0
 22 21  1  0  0  0
 22 23  1  0  0  0
 59 58  1  0  0  0
 27 28  2  0  0  0
 58 57  1  0  0  0
 31 37  2  0  0  0
 57 56  1  0  0  0
 56 55  1  0  0  0
 55 54  1  0  0  0
 54 53  1  0  0  0
 53 52  1  0  0  0
 52 51  1  0  0  0
 51 50  1  0  0  0
 50 49  1  0  0  0
 49 47  1  0  0  0
 47 48  2  0  0  0
 48 45  1  0  0  0
 42 41  1  0  0  0
 41 40  1  0  0  0
 40 39  1  0  0  0
 39  1  1  0  0  0
  1 21  1  0  0  0
  8  4  1  0  0  0
  8  9  1  0  0  0
  8 10  1  0  0  0
 11 13  1  0  0  0
 13 14  2  0  0  0
 13 18  1  0  0  0
 14 15  1  0  0  0
 15 16  2  0  0  0
 16 17  1  0  0  0
 17 18  2  0  0  0
 23 24  1  0  0  0
 23 25  1  0  0  0
 25 28  1  0  0  0
 32 33  1  0  0  0
 32 37  1  0  0  0
 33 34  1  0  0  0
 34 35  1  0  0  0
 35 36  1  0  0  0
M  END
> <minimizedAffinity>
-9.34625

> <CNNscore>
0.2034110576

> <CNNaffinity>
7.3918609619

> <CNN_VS>
1.5035862923

> <CNNaffinity_variance>
1.2194135189

$$$$
/media/chris/experiments/cd1a-new-docking/inputs/ligands/7ryo_ligand.pdb


 65 67  0  0  0  0  0  0  0  0999 V2000
  -38.5268   60.5058   65.0402 C   0  0  0  0  0  0  0  0  0  0  0  0
  -37.7282   59.9537   63.9587 N   0  0  0  0  0  0  0  0  0  0  0  0
  -39.4227   60.0110   62.4826 O   0  0  0  0  0  0  0  0  0  0  0  0
  -38.2590   59.7513   62.7504 C   0  0  0  0  0  0  0  0  0  0  0  0
  -36.7839   59.7262   64.1191 H   0  0  0  0  0  0  0  0  0  0  0  0
  -35.9442   59.4611   61.9572 N   0  0  0  0  0  0  0  0  0  0  0  0
  -35.9840   57.2259   61.6647 O   0  0  0  0  0  0  0  0  0  0  0  0
  -37.3521   59.1418   61.6687 C   0  0  0  0  0  0  0  0  0  0  0  0
  -37.7295   59.7370   60.3154 C   0  0  0  0  0  0  0  0  0  0  0  0
  -37.3831   57.6066   61.6420 C   0  0  0  0  0  0  0  0  0  0  0  0
  -35.3000   58.3684   61.9339 C   0  0  0  0  0  0  0  0  0  0  0  0
  -33.8457   59.9597   63.8409 O   0  0  0  0  0  0  0  0  0  0  0  0
  -33.8626   58.2078   62.1658 C   0  0  0  0  0  0  0  0  0  0  0  0
  -33.1677   57.1607   61.5592 C   0  0  0  0  0  0  0  0  0  0  0  0
  -31.8778   56.8515   61.9551 C   0  0  0  0  0  0  0  0  0  0  0  0
  -31.2624   57.5740   62.9540 C   0  0  0  0  0  0  0  0  0  0  0  0
  -31.9309   58.6136   63.5745 C   0  0  0  0  0  0  0  0  0  0  0  0
  -33.2286   58.9383   63.1919 C   0  0  0  0  0  0  0  0  0  0  0  0
  -34.7197   60.2032   63.6070 H   0  0  0  0  0  0  0  0  0  0  0  0
  -37.8396   60.4941   67.3572 O   0  0  0  0  0  0  0  0  0  0  0  0
  -37.6581   60.8745   66.2336 C   0  0  0  0  0  0  0  0  0  0  0  0
  -36.6690   61.7042   65.8586 O   0  0  0  0  0  0  0  0  0  0  0  0
  -35.9170   62.4018   66.9062 C   0  0  0  0  0  0  0  0  0  0  0  0
  -36.1486   63.8826   66.7407 C   0  0  0  0  0  0  0  0  0  0  0  0
  -34.4661   62.0173   66.6911 C   0  0  0  0  0  0  0  0  0  0  0  0
  -33.8536   63.0395   64.5882 N   0  0  0  0  0  0  0  0  0  0  0  0
  -32.9628   63.8685   66.4806 O   0  0  0  0  0  0  0  0  0  0  0  0
  -33.6895   63.0569   65.9141 C   0  0  0  0  0  0  0  0  0  0  0  0
  -34.4494   62.3651   64.1890 H   0  0  0  0  0  0  0  0  0  0  0  0
  -33.6193   66.2555   62.9462 N   0  0  0  0  0  0  0  0  0  0  0  0
  -35.3527   64.9799   63.5777 O   0  0  0  0  0  0  0  0  0  0  0  0
  -33.1781   63.9871   63.7190 C   0  0  0  0  0  0  0  0  0  0  0  0
  -32.7573   63.2989   62.4156 C   0  0  0  0  0  0  0  0  0  0  0  0
  -31.6730   64.0501   61.6504 C   0  0  0  0  0  0  0  0  0  0  0  0
  -32.0505   65.4421   61.1839 C   0  0  0  0  0  0  0  0  0  0  0  0
  -32.3181   66.4214   62.3075 C   0  0  0  0  0  0  0  0  0  0  0  0
  -34.1450   65.1185   63.4074 C   0  0  0  0  0  0  0  0  0  0  0  0
  -34.1671   67.0672   63.0477 H   0  0  0  0  0  0  0  0  0  0  0  0
  -39.6428   59.5450   65.4532 C   0  0  0  0  0  0  0  0  0  0  0  0
  -40.9972   60.2381   65.5552 C   0  0  0  0  0  0  0  0  0  0  0  0
  -41.5867   60.1942   66.9527 C   0  0  0  0  0  0  0  0  0  0  0  0
  -42.3908   58.9503   67.2617 C   0  0  0  0  0  0  0  0  0  0  0  0
  -42.3580   58.0171   66.1468 N   0  0  0  0  0  0  0  0  0  0  0  0
  -43.3554   56.4121   64.9128 O   0  0  0  0  0  0  0  0  0  0  0  0
  -43.3902   57.2174   65.8576 C   0  0  0  0  0  0  0  0  0  0  0  0
  -41.5496   57.9726   65.5866 H   0  0  0  0  0  0  0  0  0  0  0  0
  -45.7252   57.9595   66.2709 C   0  0  0  0  0  0  0  0  0  0  0  0
  -44.5865   57.4338   66.7017 C   0  0  0  0  0  0  0  0  0  0  0  0
  -46.0566   58.4188   64.8854 C   0  0  0  0  0  0  0  0  0  0  0  0
  -47.5610   58.4445   64.6444 C   0  0  0  0  0  0  0  0  0  0  0  0
  -48.3440   57.5146   65.5549 C   0  0  0  0  0  0  0  0  0  0  0  0
  -49.6486   58.1109   66.0567 C   0  0  0  0  0  0  0  0  0  0  0  0
  -49.7883   59.6025   65.8165 C   0  0  0  0  0  0  0  0  0  0  0  0
  -51.1661   60.0093   65.3207 C   0  0  0  0  0  0  0  0  0  0  0  0
  -51.1462   60.6845   63.9634 C   0  0  0  0  0  0  0  0  0  0  0  0
  -50.3248   59.9311   62.9364 C   0  0  0  0  0  0  0  0  0  0  0  0
  -50.9351   58.6168   62.4890 C   0  0  0  0  0  0  0  0  0  0  0  0
  -49.9019   57.6407   61.9621 C   0  0  0  0  0  0  0  0  0  0  0  0
  -50.2921   57.0144   60.6333 C   0  0  0  0  0  0  0  0  0  0  0  0
  -49.7336   57.7354   59.4187 C   0  0  0  0  0  0  0  0  0  0  0  0
  -48.3783   58.3865   59.6479 C   0  0  0  0  0  0  0  0  0  0  0  0
  -47.2022   57.5523   59.1590 C   0  0  0  0  0  0  0  0  0  0  0  0
  -46.6715   57.9908   57.8037 C   0  0  0  0  0  0  0  0  0  0  0  0
  -47.5651   55.7294   57.1229 C   0  0  0  0  0  0  0  0  0  0  0  0
  -46.7309   56.9201   56.7294 C   0  0  0  0  0  0  0  0  0  0  0  0
 43 45  1  0  0  0
 43 42  1  0  0  0
 43 46  1  0  0  0
 64 65  1  0  0  0
 44 45  2  0  0  0
 65 63  1  0  0  0
  2  1  1  0  0  0
  2  4  1  0  0  0
  2  5  1  0  0  0
  3  4  2  0  0  0
 63 62  1  0  0  0
  6  8  1  0  0  0
  6 11  2  0  0  0
  7 10  1  0  0  0
  7 11  1  0  0  0
 62 61  1  0  0  0
 26 28  1  0  0  0
 26 32  1  0  0  0
 26 29  1  0  0  0
 12 18  1  0  0  0
 12 19  1  0  0  0
 61 60  1  0  0  0
 30 36  1  0  0  0
 30 37  1  0  0  0
 30 38  1  0  0  0
 20 21  2  0  0  0
 60 59  1  0  0  0
 22 21  1  0  0  0
 22 23  1  0  0  0
 59 58  1  0  0  0
 27 28  2  0  0  0
 58 57  1  0  0  0
 31 37  2  0  0  0
 57 56  1  0  0  0
 56 55  1  0  0  0
 55 54  1  0  0  0
 54 53  1  0  0  0
 53 52  1  0  0  0
 52 51  1  0  0  0
 51 50  1  0  0  0
 50 49  1  0  0  0
 49 47  1  0  0  0
 47 48  2  0  0  0
 48 45  1  0  0  0
 42 41  1  0  0  0
 41 40  1  0  0  0
 40 39  1  0  0  0
 39  1  1  0  0  0
  1 21  1  0  0  0
  8  4  1  0  0  0
  8  9  1  0  0  0
  8 10  1  0  0  0
 11 13  1  0  0  0
 13 14  2  0  0  0
 13 18  1  0  0  0
 14 15  1  0  0  0
 15 16  2  0  0  0
 16 17  1  0  0  0
 17 18  2  0  0  0
 23 24  1  0  0  0
 23 25  1  0  0  0
 25 28  1  0  0  0
 32 33  1  0  0  0
 32 37  1  0  0  0
 33 34  1  0  0  0
 34 35  1  0  0  0
 35 36  1  0  0  0
M  END
> <minimizedAffinity>
-10.51858

> <CNNscore>
0.1796200275

> <CNNaffinity>
7.1632781029

> <CNN_VS>
1.2866681814

> <CNNaffinity_variance>
0.8269580603

$$$$
/media/chris/experiments/cd1a-new-docking/inputs/ligands/7ryo_ligand.pdb


 65 67  0  0  0  0  0  0  0  0999 V2000
  -40.3656   59.9675   64.3321 C   0  0  0  0  0  0  0  0  0  0  0  0
  -39.4237   59.3488   63.4142 N   0  0  0  0  0  0  0  0  0  0  0  0
  -40.1462   60.5322   61.6447 O   0  0  0  0  0  0  0  0  0  0  0  0
  -39.3978   59.6939   62.1247 C   0  0  0  0  0  0  0  0  0  0  0  0
  -38.7971   58.6666   63.7475 H   0  0  0  0  0  0  0  0  0  0  0  0
  -37.0230   59.4398   61.5179 N   0  0  0  0  0  0  0  0  0  0  0  0
  -36.9050   57.1907   61.6225 O   0  0  0  0  0  0  0  0  0  0  0  0
  -38.3869   58.9744   61.2165 C   0  0  0  0  0  0  0  0  0  0  0  0
  -38.7125   59.2986   59.7616 C   0  0  0  0  0  0  0  0  0  0  0  0
  -38.3207   57.4594   61.4594 C   0  0  0  0  0  0  0  0  0  0  0  0
  -36.3121   58.4090   61.7215 C   0  0  0  0  0  0  0  0  0  0  0  0
  -35.0732   60.4406   63.3406 O   0  0  0  0  0  0  0  0  0  0  0  0
  -34.8854   58.3953   62.0535 C   0  0  0  0  0  0  0  0  0  0  0  0
  -34.0956   57.2986   61.7058 C   0  0  0  0  0  0  0  0  0  0  0  0
  -32.8179   57.1619   62.2205 C   0  0  0  0  0  0  0  0  0  0  0  0
  -32.3086   58.1077   63.0836 C   0  0  0  0  0  0  0  0  0  0  0  0
  -33.0724   59.2015   63.4476 C   0  0  0  0  0  0  0  0  0  0  0  0
  -34.3596   59.3554   62.9424 C   0  0  0  0  0  0  0  0  0  0  0  0
  -35.9430   60.5732   63.0186 H   0  0  0  0  0  0  0  0  0  0  0  0
  -40.0010   60.4126   66.6794 O   0  0  0  0  0  0  0  0  0  0  0  0
  -39.6518   60.5555   65.5402 C   0  0  0  0  0  0  0  0  0  0  0  0
  -38.5852   61.2765   65.1531 O   0  0  0  0  0  0  0  0  0  0  0  0
  -37.2498   60.7294   65.4117 C   0  0  0  0  0  0  0  0  0  0  0  0
  -37.3838   59.2397   65.6030 C   0  0  0  0  0  0  0  0  0  0  0  0
  -36.7578   61.4297   66.6634 C   0  0  0  0  0  0  0  0  0  0  0  0
  -35.0891   62.7314   65.4959 N   0  0  0  0  0  0  0  0  0  0  0  0
  -36.4763   63.7940   66.9131 O   0  0  0  0  0  0  0  0  0  0  0  0
  -36.0958   62.7585   66.3740 C   0  0  0  0  0  0  0  0  0  0  0  0
  -34.8272   61.8712   65.0951 H   0  0  0  0  0  0  0  0  0  0  0  0
  -33.8596   65.0638   63.0175 N   0  0  0  0  0  0  0  0  0  0  0  0
  -34.2589   62.8570   62.9802 O   0  0  0  0  0  0  0  0  0  0  0  0
  -34.3700   63.9349   65.1158 C   0  0  0  0  0  0  0  0  0  0  0  0
  -33.0116   63.9828   65.8244 C   0  0  0  0  0  0  0  0  0  0  0  0
  -32.3891   65.3744   65.8586 C   0  0  0  0  0  0  0  0  0  0  0  0
  -32.0791   65.9829   64.5053 C   0  0  0  0  0  0  0  0  0  0  0  0
  -33.3007   66.2527   63.6522 C   0  0  0  0  0  0  0  0  0  0  0  0
  -34.1574   63.9055   63.6105 C   0  0  0  0  0  0  0  0  0  0  0  0
  -34.0356   65.1219   62.0506 H   0  0  0  0  0  0  0  0  0  0  0  0
  -41.4494   58.9794   64.7656 C   0  0  0  0  0  0  0  0  0  0  0  0
  -40.9309   57.5476   64.8461 C   0  0  0  0  0  0  0  0  0  0  0  0
  -41.8468   56.5421   64.1735 C   0  0  0  0  0  0  0  0  0  0  0  0
  -43.1927   56.3655   64.8421 C   0  0  0  0  0  0  0  0  0  0  0  0
  -44.2152   57.1541   64.1732 N   0  0  0  0  0  0  0  0  0  0  0  0
  -45.9276   58.6209   64.2732 O   0  0  0  0  0  0  0  0  0  0  0  0
  -45.0466   57.9580   64.8449 C   0  0  0  0  0  0  0  0  0  0  0  0
  -44.2982   57.0942   63.1940 H   0  0  0  0  0  0  0  0  0  0  0  0
  -45.6287   57.6922   67.2457 C   0  0  0  0  0  0  0  0  0  0  0  0
  -44.7726   58.0456   66.2967 C   0  0  0  0  0  0  0  0  0  0  0  0
  -47.0050   57.1289   67.0755 C   0  0  0  0  0  0  0  0  0  0  0  0
  -48.0073   58.2019   66.6684 C   0  0  0  0  0  0  0  0  0  0  0  0
  -49.1094   57.6965   65.7536 C   0  0  0  0  0  0  0  0  0  0  0  0
  -50.4672   58.3175   66.0365 C   0  0  0  0  0  0  0  0  0  0  0  0
  -50.5050   59.8281   65.9012 C   0  0  0  0  0  0  0  0  0  0  0  0
  -50.9282   60.3018   64.5206 C   0  0  0  0  0  0  0  0  0  0  0  0
  -49.7809   60.3935   63.5338 C   0  0  0  0  0  0  0  0  0  0  0  0
  -49.9771   59.5203   62.3108 C   0  0  0  0  0  0  0  0  0  0  0  0
  -51.0333   58.4442   62.4731 C   0  0  0  0  0  0  0  0  0  0  0  0
  -51.0457   57.4574   61.3225 C   0  0  0  0  0  0  0  0  0  0  0  0
  -50.3277   57.9706   60.0851 C   0  0  0  0  0  0  0  0  0  0  0  0
  -49.2413   57.0437   59.5678 C   0  0  0  0  0  0  0  0  0  0  0  0
  -47.8285   57.4739   59.9313 C   0  0  0  0  0  0  0  0  0  0  0  0
  -46.8508   57.4308   58.7650 C   0  0  0  0  0  0  0  0  0  0  0  0
  -46.6517   56.0361   58.1938 C   0  0  0  0  0  0  0  0  0  0  0  0
  -47.7094   57.1248   56.1758 C   0  0  0  0  0  0  0  0  0  0  0  0
  -47.1986   55.8481   56.7904 C   0  0  0  0  0  0  0  0  0  0  0  0
 43 45  1  0  0  0
 43 42  1  0  0  0
 43 46  1  0  0  0
 64 65  1  0  0  0
 44 45  2  0  0  0
 65 63  1  0  0  0
  2  1  1  0  0  0
  2  4  1  0  0  0
  2  5  1  0  0  0
  3  4  2  0  0  0
 63 62  1  0  0  0
  6  8  1  0  0  0
  6 11  2  0  0  0
  7 10  1  0  0  0
  7 11  1  0  0  0
 62 61  1  0  0  0
 26 28  1  0  0  0
 26 32  1  0  0  0
 26 29  1  0  0  0
 12 18  1  0  0  0
 12 19  1  0  0  0
 61 60  1  0  0  0
 30 36  1  0  0  0
 30 37  1  0  0  0
 30 38  1  0  0  0
 20 21  2  0  0  0
 60 59  1  0  0  0
 22 21  1  0  0  0
 22 23  1  0  0  0
 59 58  1  0  0  0
 27 28  2  0  0  0
 58 57  1  0  0  0
 31 37  2  0  0  0
 57 56  1  0  0  0
 56 55  1  0  0  0
 55 54  1  0  0  0
 54 53  1  0  0  0
 53 52  1  0  0  0
 52 51  1  0  0  0
 51 50  1  0  0  0
 50 49  1  0  0  0
 49 47  1  0  0  0
 47 48  2  0  0  0
 48 45  1  0  0  0
 42 41  1  0  0  0
 41 40  1  0  0  0
 40 39  1  0  0  0
 39  1  1  0  0  0
  1 21  1  0  0  0
  8  4  1  0  0  0
  8  9  1  0  0  0
  8 10  1  0  0  0
 11 13  1  0  0  0
 13 14  2  0  0  0
 13 18  1  0  0  0
 14 15  1  0  0  0
 15 16  2  0  0  0
 16 17  1  0  0  0
 17 18  2  0  0  0
 23 24  1  0  0  0
 23 25  1  0  0  0
 25 28  1  0  0  0
 32 33  1  0  0  0
 32 37  1  0  0  0
 33 34  1  0  0  0
 34 35  1  0  0  0
 35 36  1  0  0  0
M  END
> <minimizedAffinity>
-10.63736

> <CNNscore>
0.1776386350

> <CNNaffinity>
7.3914060593

> <CNN_VS>
1.3129992485

> <CNNaffinity_variance>
1.3357385397

$$$$
/media/chris/experiments/cd1a-new-docking/inputs/ligands/7ryo_ligand.pdb


 65 67  0  0  0  0  0  0  0  0999 V2000
  -37.5116   60.0498   65.1212 C   0  0  0  0  0  0  0  0  0  0  0  0
  -36.7941   61.3034   65.2827 N   0  0  0  0  0  0  0  0  0  0  0  0
  -34.8918   60.2994   65.9357 O   0  0  0  0  0  0  0  0  0  0  0  0
  -35.5208   61.3164   65.6842 C   0  0  0  0  0  0  0  0  0  0  0  0
  -37.2529   62.1537   65.0936 H   0  0  0  0  0  0  0  0  0  0  0  0
  -33.6989   62.7948   64.9315 N   0  0  0  0  0  0  0  0  0  0  0  0
  -34.9259   64.6482   64.5543 O   0  0  0  0  0  0  0  0  0  0  0  0
  -34.8425   62.6859   65.8523 C   0  0  0  0  0  0  0  0  0  0  0  0
  -34.3394   62.8148   67.2870 C   0  0  0  0  0  0  0  0  0  0  0  0
  -35.7447   63.8649   65.4592 C   0  0  0  0  0  0  0  0  0  0  0  0
  -33.8414   63.8762   64.2836 C   0  0  0  0  0  0  0  0  0  0  0  0
  -32.7541   62.2217   62.1946 O   0  0  0  0  0  0  0  0  0  0  0  0
  -32.9348   64.3934   63.2558 C   0  0  0  0  0  0  0  0  0  0  0  0
  -32.6776   65.7624   63.1730 C   0  0  0  0  0  0  0  0  0  0  0  0
  -32.0263   66.2893   62.0709 C   0  0  0  0  0  0  0  0  0  0  0  0
  -31.6229   65.4682   61.0405 C   0  0  0  0  0  0  0  0  0  0  0  0
  -31.8697   64.1086   61.0959 C   0  0  0  0  0  0  0  0  0  0  0  0
  -32.5248   63.5606   62.1943 C   0  0  0  0  0  0  0  0  0  0  0  0
  -33.1929   61.8217   62.9193 H   0  0  0  0  0  0  0  0  0  0  0  0
  -38.3615   60.9196   63.0327 O   0  0  0  0  0  0  0  0  0  0  0  0
  -38.2134   59.9866   63.7728 C   0  0  0  0  0  0  0  0  0  0  0  0
  -38.6643   58.7429   63.5336 O   0  0  0  0  0  0  0  0  0  0  0  0
  -38.8747   58.3398   62.1397 C   0  0  0  0  0  0  0  0  0  0  0  0
  -40.3313   57.9892   61.9690 C   0  0  0  0  0  0  0  0  0  0  0  0
  -37.9646   57.1473   61.9186 C   0  0  0  0  0  0  0  0  0  0  0  0
  -35.7764   57.4149   62.9099 N   0  0  0  0  0  0  0  0  0  0  0  0
  -36.0337   57.9195   60.7324 O   0  0  0  0  0  0  0  0  0  0  0  0
  -36.5069   57.5325   61.7973 C   0  0  0  0  0  0  0  0  0  0  0  0
  -36.2099   57.0993   63.7355 H   0  0  0  0  0  0  0  0  0  0  0  0
  -33.0435   59.7287   63.4312 N   0  0  0  0  0  0  0  0  0  0  0  0
  -35.1590   59.9880   62.7323 O   0  0  0  0  0  0  0  0  0  0  0  0
  -34.3608   57.7394   62.9360 C   0  0  0  0  0  0  0  0  0  0  0  0
  -33.6813   57.2360   61.6576 C   0  0  0  0  0  0  0  0  0  0  0  0
  -32.1659   57.1159   61.7778 C   0  0  0  0  0  0  0  0  0  0  0  0
  -31.4299   58.4114   62.0567 C   0  0  0  0  0  0  0  0  0  0  0  0
  -31.7599   59.0361   63.3960 C   0  0  0  0  0  0  0  0  0  0  0  0
  -34.2218   59.2510   63.0242 C   0  0  0  0  0  0  0  0  0  0  0  0
  -33.0405   60.6444   63.7929 H   0  0  0  0  0  0  0  0  0  0  0  0
  -38.5031   59.8260   66.2640 C   0  0  0  0  0  0  0  0  0  0  0  0
  -39.8076   60.5884   66.0581 C   0  0  0  0  0  0  0  0  0  0  0  0
  -41.0384   59.7686   66.3982 C   0  0  0  0  0  0  0  0  0  0  0  0
  -41.7795   59.2133   65.2016 C   0  0  0  0  0  0  0  0  0  0  0  0
  -41.9262   57.7699   65.3024 N   0  0  0  0  0  0  0  0  0  0  0  0
  -43.1813   55.9115   65.0477 O   0  0  0  0  0  0  0  0  0  0  0  0
  -43.0534   57.1429   64.9489 C   0  0  0  0  0  0  0  0  0  0  0  0
  -41.1712   57.2370   65.6420 H   0  0  0  0  0  0  0  0  0  0  0  0
  -45.3292   58.1308   64.8148 C   0  0  0  0  0  0  0  0  0  0  0  0
  -44.0867   58.0262   64.3636 C   0  0  0  0  0  0  0  0  0  0  0  0
  -45.9430   57.4241   65.9828 C   0  0  0  0  0  0  0  0  0  0  0  0
  -46.4753   58.4055   67.0198 C   0  0  0  0  0  0  0  0  0  0  0  0
  -47.8573   58.9476   66.6986 C   0  0  0  0  0  0  0  0  0  0  0  0
  -48.7652   57.9353   66.0202 C   0  0  0  0  0  0  0  0  0  0  0  0
  -50.2331   58.3189   66.0100 C   0  0  0  0  0  0  0  0  0  0  0  0
  -50.4676   59.8111   65.8430 C   0  0  0  0  0  0  0  0  0  0  0  0
  -50.3079   60.2929   64.4144 C   0  0  0  0  0  0  0  0  0  0  0  0
  -51.1775   59.5359   63.4308 C   0  0  0  0  0  0  0  0  0  0  0  0
  -50.4441   58.4716   62.6374 C   0  0  0  0  0  0  0  0  0  0  0  0
  -50.1125   58.9171   61.2268 C   0  0  0  0  0  0  0  0  0  0  0  0
  -50.4443   57.8716   60.1747 C   0  0  0  0  0  0  0  0  0  0  0  0
  -49.2833   57.5193   59.2610 C   0  0  0  0  0  0  0  0  0  0  0  0
  -47.9196   57.5842   59.9312 C   0  0  0  0  0  0  0  0  0  0  0  0
  -46.7515   57.3916   58.9739 C   0  0  0  0  0  0  0  0  0  0  0  0
  -46.9578   58.0622   57.6253 C   0  0  0  0  0  0  0  0  0  0  0  0
  -47.0756   55.7068   56.7227 C   0  0  0  0  0  0  0  0  0  0  0  0
  -47.4921   57.1429   56.5419 C   0  0  0  0  0  0  0  0  0  0  0  0
 43 45  1  0  0  0
 43 42  1  0  0  0
 43 46  1  0  0  0
 64 65  1  0  0  0
 44 45  2  0  0  0
 65 63  1  0  0  0
  2  1  1  0  0  0
  2  4  1  0  0  0
  2  5  1  0  0  0
  3  4  2  0  0  0
 63 62  1  0  0  0
  6  8  1  0  0  0
  6 11  2  0  0  0
  7 10  1  0  0  0
  7 11  1  0  0  0
 62 61  1  0  0  0
 26 28  1  0  0  0
 26 32  1  0  0  0
 26 29  1  0  0  0
 12 18  1  0  0  0
 12 19  1  0  0  0
 61 60  1  0  0  0
 30 36  1  0  0  0
 30 37  1  0  0  0
 30 38  1  0  0  0
 20 21  2  0  0  0
 60 59  1  0  0  0
 22 21  1  0  0  0
 22 23  1  0  0  0
 59 58  1  0  0  0
 27 28  2  0  0  0
 58 57  1  0  0  0
 31 37  2  0  0  0
 57 56  1  0  0  0
 56 55  1  0  0  0
 55 54  1  0  0  0
 54 53  1  0  0  0
 53 52  1  0  0  0
 52 51  1  0  0  0
 51 50  1  0  0  0
 50 49  1  0  0  0
 49 47  1  0  0  0
 47 48  2  0  0  0
 48 45  1  0  0  0
 42 41  1  0  0  0
 41 40  1  0  0  0
 40 39  1  0  0  0
 39  1  1  0  0  0
  1 21  1  0  0  0
  8  4  1  0  0  0
  8  9  1  0  0  0
  8 10  1  0  0  0
 11 13  1  0  0  0
 13 14  2  0  0  0
 13 18  1  0  0  0
 14 15  1  0  0  0
 15 16  2  0  0  0
 16 17  1  0  0  0
 17 18  2  0  0  0
 23 24  1  0  0  0
 23 25  1  0  0  0
 25 28  1  0  0  0
 32 33  1  0  0  0
 32 37  1  0  0  0
 33 34  1  0  0  0
 34 35  1  0  0  0
 35 36  1  0  0  0
M  END
> <minimizedAffinity>
-10.70898

> <CNNscore>
0.1758267432

> <CNNaffinity>
7.0902595520

> <CNN_VS>
1.2466572523

> <CNNaffinity_variance>
1.4853665829

$$$$
/media/chris/experiments/cd1a-new-docking/inputs/ligands/7ryo_ligand.pdb


 65 67  0  0  0  0  0  0  0  0999 V2000
  -40.4914   57.2457   63.4109 C   0  0  0  0  0  0  0  0  0  0  0  0
  -40.2814   58.3581   64.3224 N   0  0  0  0  0  0  0  0  0  0  0  0
  -38.2752   57.6090   65.0064 O   0  0  0  0  0  0  0  0  0  0  0  0
  -39.1680   58.4421   65.0545 C   0  0  0  0  0  0  0  0  0  0  0  0
  -40.9688   59.0584   64.4010 H   0  0  0  0  0  0  0  0  0  0  0  0
  -37.6169   60.0052   66.1603 N   0  0  0  0  0  0  0  0  0  0  0  0
  -38.6597   61.9288   65.6169 O   0  0  0  0  0  0  0  0  0  0  0  0
  -39.0349   59.6383   66.0112 C   0  0  0  0  0  0  0  0  0  0  0  0
  -39.5923   59.2436   67.3756 C   0  0  0  0  0  0  0  0  0  0  0  0
  -39.6924   60.9201   65.4788 C   0  0  0  0  0  0  0  0  0  0  0  0
  -37.5251   61.2485   65.9259 C   0  0  0  0  0  0  0  0  0  0  0  0
  -36.4813   62.3906   68.3528 O   0  0  0  0  0  0  0  0  0  0  0  0
  -36.2968   62.0459   65.9607 C   0  0  0  0  0  0  0  0  0  0  0  0
  -35.5027   62.1597   64.8189 C   0  0  0  0  0  0  0  0  0  0  0  0
  -34.2302   62.6987   64.8992 C   0  0  0  0  0  0  0  0  0  0  0  0
  -33.7305   63.1305   66.1085 C   0  0  0  0  0  0  0  0  0  0  0  0
  -34.4953   63.0247   67.2559 C   0  0  0  0  0  0  0  0  0  0  0  0
  -35.7758   62.4838   67.1957 C   0  0  0  0  0  0  0  0  0  0  0  0
  -37.3465   62.0310   68.3464 H   0  0  0  0  0  0  0  0  0  0  0  0
  -38.7759   56.8841   61.7474 O   0  0  0  0  0  0  0  0  0  0  0  0
  -39.7652   57.4691   62.0928 C   0  0  0  0  0  0  0  0  0  0  0  0
  -40.3740   58.4296   61.3757 O   0  0  0  0  0  0  0  0  0  0  0  0
  -39.5744   59.5783   60.9390 C   0  0  0  0  0  0  0  0  0  0  0  0
  -38.4635   59.0666   60.0570 C   0  0  0  0  0  0  0  0  0  0  0  0
  -39.0528   60.2189   62.2105 C   0  0  0  0  0  0  0  0  0  0  0  0
  -36.9369   59.2216   62.8192 N   0  0  0  0  0  0  0  0  0  0  0  0
  -36.9215   61.2352   61.8157 O   0  0  0  0  0  0  0  0  0  0  0  0
  -37.5423   60.2760   62.2653 C   0  0  0  0  0  0  0  0  0  0  0  0
  -37.4864   58.4808   63.1633 H   0  0  0  0  0  0  0  0  0  0  0  0
  -33.7021   58.1613   61.5920 N   0  0  0  0  0  0  0  0  0  0  0  0
  -35.7650   57.2978   61.4194 O   0  0  0  0  0  0  0  0  0  0  0  0
  -35.4909   59.1371   62.9283 C   0  0  0  0  0  0  0  0  0  0  0  0
  -35.0944   58.6890   64.3396 C   0  0  0  0  0  0  0  0  0  0  0  0
  -33.6442   58.9995   64.6945 C   0  0  0  0  0  0  0  0  0  0  0  0
  -32.6020   58.3228   63.8264 C   0  0  0  0  0  0  0  0  0  0  0  0
  -32.6258   58.7576   62.3760 C   0  0  0  0  0  0  0  0  0  0  0  0
  -34.9969   58.1179   61.9138 C   0  0  0  0  0  0  0  0  0  0  0  0
  -33.4467   57.7474   60.7360 H   0  0  0  0  0  0  0  0  0  0  0  0
  -41.9815   56.9926   63.1774 C   0  0  0  0  0  0  0  0  0  0  0  0
  -42.7564   56.8440   64.4823 C   0  0  0  0  0  0  0  0  0  0  0  0
  -44.0760   57.5931   64.4818 C   0  0  0  0  0  0  0  0  0  0  0  0
  -45.2135   56.8720   65.1713 C   0  0  0  0  0  0  0  0  0  0  0  0
  -45.3198   57.2761   66.5643 N   0  0  0  0  0  0  0  0  0  0  0  0
  -46.5766   57.9621   68.3088 O   0  0  0  0  0  0  0  0  0  0  0  0
  -46.4898   57.6049   67.1225 C   0  0  0  0  0  0  0  0  0  0  0  0
  -44.5038   57.3088   67.1143 H   0  0  0  0  0  0  0  0  0  0  0  0
  -48.3932   58.4235   65.7513 C   0  0  0  0  0  0  0  0  0  0  0  0
  -47.6613   57.4293   66.2354 C   0  0  0  0  0  0  0  0  0  0  0  0
  -48.2005   59.8924   65.9654 C   0  0  0  0  0  0  0  0  0  0  0  0
  -49.1330   60.7175   65.0871 C   0  0  0  0  0  0  0  0  0  0  0  0
  -50.5634   60.2071   65.0620 C   0  0  0  0  0  0  0  0  0  0  0  0
  -51.1773   60.1857   63.6721 C   0  0  0  0  0  0  0  0  0  0  0  0
  -50.3095   59.5297   62.6145 C   0  0  0  0  0  0  0  0  0  0  0  0
  -50.6455   58.0665   62.3782 C   0  0  0  0  0  0  0  0  0  0  0  0
  -49.7396   57.3930   61.3661 C   0  0  0  0  0  0  0  0  0  0  0  0
  -50.1238   57.6937   59.9313 C   0  0  0  0  0  0  0  0  0  0  0  0
  -48.9598   57.6968   58.9592 C   0  0  0  0  0  0  0  0  0  0  0  0
  -48.4852   56.3003   58.6092 C   0  0  0  0  0  0  0  0  0  0  0  0
  -47.0162   56.2458   58.2230 C   0  0  0  0  0  0  0  0  0  0  0  0
  -46.2079   57.4468   58.6825 C   0  0  0  0  0  0  0  0  0  0  0  0
  -45.8110   58.3971   57.5634 C   0  0  0  0  0  0  0  0  0  0  0  0
  -44.4786   58.0583   56.9093 C   0  0  0  0  0  0  0  0  0  0  0  0
  -43.5749   59.2655   56.7171 C   0  0  0  0  0  0  0  0  0  0  0  0
  -41.8746   58.3151   58.3240 C   0  0  0  0  0  0  0  0  0  0  0  0
  -42.1076   59.0040   57.0050 C   0  0  0  0  0  0  0  0  0  0  0  0
 43 45  1  0  0  0
 43 42  1  0  0  0
 43 46  1  0  0  0
 64 65  1  0  0  0
 44 45  2  0  0  0
 65 63  1  0  0  0
  2  1  1  0  0  0
  2  4  1  0  0  0
  2  5  1  0  0  0
  3  4  2  0  0  0
 63 62  1  0  0  0
  6  8  1  0  0  0
  6 11  2  0  0  0
  7 10  1  0  0  0
  7 11  1  0  0  0
 62 61  1  0  0  0
 26 28  1  0  0  0
 26 32  1  0  0  0
 26 29  1  0  0  0
 12 18  1  0  0  0
 12 19  1  0  0  0
 61 60  1  0  0  0
 30 36  1  0  0  0
 30 37  1  0  0  0
 30 38  1  0  0  0
 20 21  2  0  0  0
 60 59  1  0  0  0
 22 21  1  0  0  0
 22 23  1  0  0  0
 59 58  1  0  0  0
 27 28  2  0  0  0
 58 57  1  0  0  0
 31 37  2  0  0  0
 57 56  1  0  0  0
 56 55  1  0  0  0
 55 54  1  0  0  0
 54 53  1  0  0  0
 53 52  1  0  0  0
 52 51  1  0  0  0
 51 50  1  0  0  0
 50 49  1  0  0  0
 49 47  1  0  0  0
 47 48  2  0  0  0
 48 45  1  0  0  0
 42 41  1  0  0  0
 41 40  1  0  0  0
 40 39  1  0  0  0
 39  1  1  0  0  0
  1 21  1  0  0  0
  8  4  1  0  0  0
  8  9  1  0  0  0
  8 10  1  0  0  0
 11 13  1  0  0  0
 13 14  2  0  0  0
 13 18  1  0  0  0
 14 15  1  0  0  0
 15 16  2  0  0  0
 16 17  1  0  0  0
 17 18  2  0  0  0
 23 24  1  0  0  0
 23 25  1  0  0  0
 25 28  1  0  0  0
 32 33  1  0  0  0
 32 37  1  0  0  0
 33 34  1  0  0  0
 34 35  1  0  0  0
 35 36  1  0  0  0
M  END
> <minimizedAffinity>
-7.43647

> <CNNscore>
0.1659088582

> <CNNaffinity>
7.8076791763

> <CNN_VS>
1.2953631878

> <CNNaffinity_variance>
0.6377276182

$$$$
/media/chris/experiments/cd1a-new-docking/inputs/ligands/7ryo_ligand.pdb


 65 67  0  0  0  0  0  0  0  0999 V2000
  -39.4729   58.8394   64.7284 C   0  0  0  0  0  0  0  0  0  0  0  0
  -38.0775   58.6623   65.0944 N   0  0  0  0  0  0  0  0  0  0  0  0
  -37.6859   57.1714   63.4581 O   0  0  0  0  0  0  0  0  0  0  0  0
  -37.2918   57.8260   64.4118 C   0  0  0  0  0  0  0  0  0  0  0  0
  -37.7070   59.1654   65.8552 H   0  0  0  0  0  0  0  0  0  0  0  0
  -34.9509   57.4996   63.7148 N   0  0  0  0  0  0  0  0  0  0  0  0
  -34.0293   59.1908   64.8867 O   0  0  0  0  0  0  0  0  0  0  0  0
  -35.8343   57.6793   64.8788 C   0  0  0  0  0  0  0  0  0  0  0  0
  -35.7256   56.4525   65.7794 C   0  0  0  0  0  0  0  0  0  0  0  0
  -35.2853   58.9383   65.5661 C   0  0  0  0  0  0  0  0  0  0  0  0
  -34.0214   58.3572   63.8140 C   0  0  0  0  0  0  0  0  0  0  0  0
  -33.3320   56.4011   61.8185 O   0  0  0  0  0  0  0  0  0  0  0  0
  -32.9125   58.5420   62.8750 C   0  0  0  0  0  0  0  0  0  0  0  0
  -32.2318   59.7591   62.8252 C   0  0  0  0  0  0  0  0  0  0  0  0
  -31.3547   60.0315   61.7895 C   0  0  0  0  0  0  0  0  0  0  0  0
  -31.1419   59.1037   60.7933 C   0  0  0  0  0  0  0  0  0  0  0  0
  -31.8073   57.8916   60.8167 C   0  0  0  0  0  0  0  0  0  0  0  0
  -32.6944   57.6003   61.8483 C   0  0  0  0  0  0  0  0  0  0  0  0
  -33.9356   56.1745   62.4983 H   0  0  0  0  0  0  0  0  0  0  0  0
  -40.2095   60.9802   63.8827 O   0  0  0  0  0  0  0  0  0  0  0  0
  -39.6352   59.9435   63.6942 C   0  0  0  0  0  0  0  0  0  0  0  0
  -39.0632   59.5878   62.5308 O   0  0  0  0  0  0  0  0  0  0  0  0
  -38.1533   60.5407   61.8877 C   0  0  0  0  0  0  0  0  0  0  0  0
  -38.2061   60.3061   60.3991 C   0  0  0  0  0  0  0  0  0  0  0  0
  -36.7830   60.2516   62.4690 C   0  0  0  0  0  0  0  0  0  0  0  0
  -35.1535   61.9082   63.1341 N   0  0  0  0  0  0  0  0  0  0  0  0
  -36.9754   61.6217   64.4227 O   0  0  0  0  0  0  0  0  0  0  0  0
  -36.3145   61.3185   63.4333 C   0  0  0  0  0  0  0  0  0  0  0  0
  -34.6667   61.6238   62.3271 H   0  0  0  0  0  0  0  0  0  0  0  0
  -33.1029   64.8532   63.5998 N   0  0  0  0  0  0  0  0  0  0  0  0
  -32.9814   63.1071   62.1971 O   0  0  0  0  0  0  0  0  0  0  0  0
  -34.5889   62.9570   63.9656 C   0  0  0  0  0  0  0  0  0  0  0  0
  -34.0023   62.3545   65.2473 C   0  0  0  0  0  0  0  0  0  0  0  0
  -33.8030   63.3723   66.3652 C   0  0  0  0  0  0  0  0  0  0  0  0
  -32.8374   64.4990   66.0559 C   0  0  0  0  0  0  0  0  0  0  0  0
  -33.2881   65.4118   64.9348 C   0  0  0  0  0  0  0  0  0  0  0  0
  -33.4867   63.6465   63.1772 C   0  0  0  0  0  0  0  0  0  0  0  0
  -32.6472   65.4262   62.9416 H   0  0  0  0  0  0  0  0  0  0  0  0
  -40.3396   59.1117   65.9587 C   0  0  0  0  0  0  0  0  0  0  0  0
  -41.7798   58.6483   65.7681 C   0  0  0  0  0  0  0  0  0  0  0  0
  -41.8858   57.2728   65.1362 C   0  0  0  0  0  0  0  0  0  0  0  0
  -43.2654   56.6542   65.1940 C   0  0  0  0  0  0  0  0  0  0  0  0
  -44.2335   57.4693   64.4774 N   0  0  0  0  0  0  0  0  0  0  0  0
  -46.1894   58.5945   64.4351 O   0  0  0  0  0  0  0  0  0  0  0  0
  -45.3578   57.9093   65.0526 C   0  0  0  0  0  0  0  0  0  0  0  0
  -44.0553   57.7048   63.5382 H   0  0  0  0  0  0  0  0  0  0  0  0
  -46.5162   57.9018   67.2507 C   0  0  0  0  0  0  0  0  0  0  0  0
  -45.4790   57.5787   66.4901 C   0  0  0  0  0  0  0  0  0  0  0  0
  -47.7603   58.6280   66.8442 C   0  0  0  0  0  0  0  0  0  0  0  0
  -48.8521   57.6666   66.3909 C   0  0  0  0  0  0  0  0  0  0  0  0
  -50.0476   58.3528   65.7531 C   0  0  0  0  0  0  0  0  0  0  0  0
  -50.1379   59.8363   66.0700 C   0  0  0  0  0  0  0  0  0  0  0  0
  -50.1698   60.7364   64.8491 C   0  0  0  0  0  0  0  0  0  0  0  0
  -49.0796   60.4232   63.8377 C   0  0  0  0  0  0  0  0  0  0  0  0
  -49.6087   60.1387   62.4457 C   0  0  0  0  0  0  0  0  0  0  0  0
  -50.9112   59.3640   62.4514 C   0  0  0  0  0  0  0  0  0  0  0  0
  -50.7468   57.8624   62.3165 C   0  0  0  0  0  0  0  0  0  0  0  0
  -50.8473   57.3890   60.8799 C   0  0  0  0  0  0  0  0  0  0  0  0
  -49.5157   56.9359   60.3038 C   0  0  0  0  0  0  0  0  0  0  0  0
  -48.9084   57.9058   59.3052 C   0  0  0  0  0  0  0  0  0  0  0  0
  -47.3917   57.8400   59.2143 C   0  0  0  0  0  0  0  0  0  0  0  0
  -46.8251   58.4145   57.9232 C   0  0  0  0  0  0  0  0  0  0  0  0
  -47.2581   57.6526   56.6810 C   0  0  0  0  0  0  0  0  0  0  0  0
  -47.5107   55.1842   57.1494 C   0  0  0  0  0  0  0  0  0  0  0  0
  -46.6519   56.2671   56.5507 C   0  0  0  0  0  0  0  0  0  0  0  0
 43 45  1  0  0  0
 43 42  1  0  0  0
 43 46  1  0  0  0
 64 65  1  0  0  0
 44 45  2  0  0  0
 65 63  1  0  0  0
  2  1  1  0  0  0
  2  4  1  0  0  0
  2  5  1  0  0  0
  3  4  2  0  0  0
 63 62  1  0  0  0
  6  8  1  0  0  0
  6 11  2  0  0  0
  7 10  1  0  0  0
  7 11  1  0  0  0
 62 61  1  0  0  0
 26 28  1  0  0  0
 26 32  1  0  0  0
 26 29  1  0  0  0
 12 18  1  0  0  0
 12 19  1  0  0  0
 61 60  1  0  0  0
 30 36  1  0  0  0
 30 37  1  0  0  0
 30 38  1  0  0  0
 20 21  2  0  0  0
 60 59  1  0  0  0
 22 21  1  0  0  0
 22 23  1  0  0  0
 59 58  1  0  0  0
 27 28  2  0  0  0
 58 57  1  0  0  0
 31 37  2  0  0  0
 57 56  1  0  0  0
 56 55  1  0  0  0
 55 54  1  0  0  0
 54 53  1  0  0  0
 53 52  1  0  0  0
 52 51  1  0  0  0
 51 50  1  0  0  0
 50 49  1  0  0  0
 49 47  1  0  0  0
 47 48  2  0  0  0
 48 45  1  0  0  0
 42 41  1  0  0  0
 41 40  1  0  0  0
 40 39  1  0  0  0
 39  1  1  0  0  0
  1 21  1  0  0  0
  8  4  1  0  0  0
  8  9  1  0  0  0
  8 10  1  0  0  0
 11 13  1  0  0  0
 13 14  2  0  0  0
 13 18  1  0  0  0
 14 15  1  0  0  0
 15 16  2  0  0  0
 16 17  1  0  0  0
 17 18  2  0  0  0
 23 24  1  0  0  0
 23 25  1  0  0  0
 25 28  1  0  0  0
 32 33  1  0  0  0
 32 37  1  0  0  0
 33 34  1  0  0  0
 34 35  1  0  0  0
 35 36  1  0  0  0
M  END
> <minimizedAffinity>
-9.48281

> <CNNscore>
0.1553435326

> <CNNaffinity>
7.3295226097

> <CNN_VS>
1.1385939121

> <CNNaffinity_variance>
0.6974165440

$$$$
/media/chris/experiments/cd1a-new-docking/inputs/ligands/7ryo_ligand.pdb


 65 67  0  0  0  0  0  0  0  0999 V2000
  -39.3412   59.7365   64.8871 C   0  0  0  0  0  0  0  0  0  0  0  0
  -38.5215   59.0971   63.8714 N   0  0  0  0  0  0  0  0  0  0  0  0
  -39.1138   60.5558   62.2668 O   0  0  0  0  0  0  0  0  0  0  0  0
  -38.4802   59.5743   62.6251 C   0  0  0  0  0  0  0  0  0  0  0  0
  -37.9900   58.3021   64.1054 H   0  0  0  0  0  0  0  0  0  0  0  0
  -36.2075   59.2689   61.7231 N   0  0  0  0  0  0  0  0  0  0  0  0
  -36.1146   57.0195   61.8447 O   0  0  0  0  0  0  0  0  0  0  0  0
  -37.6064   58.8250   61.6057 C   0  0  0  0  0  0  0  0  0  0  0  0
  -38.1105   59.1370   60.1998 C   0  0  0  0  0  0  0  0  0  0  0  0
  -37.5348   57.3122   61.8604 C   0  0  0  0  0  0  0  0  0  0  0  0
  -35.4936   58.2278   61.8492 C   0  0  0  0  0  0  0  0  0  0  0  0
  -33.9915   60.4046   62.9845 O   0  0  0  0  0  0  0  0  0  0  0  0
  -34.0366   58.1919   61.9959 C   0  0  0  0  0  0  0  0  0  0  0  0
  -33.3327   57.0204   61.7143 C   0  0  0  0  0  0  0  0  0  0  0  0
  -32.0026   56.8958   62.0772 C   0  0  0  0  0  0  0  0  0  0  0  0
  -31.3557   57.9278   62.7216 C   0  0  0  0  0  0  0  0  0  0  0  0
  -32.0318   59.0976   63.0163 C   0  0  0  0  0  0  0  0  0  0  0  0
  -33.3695   59.2409   62.6614 C   0  0  0  0  0  0  0  0  0  0  0  0
  -34.8920   60.5325   62.7596 H   0  0  0  0  0  0  0  0  0  0  0  0
  -38.3653   60.0240   67.0794 O   0  0  0  0  0  0  0  0  0  0  0  0
  -38.4806   60.4067   65.9478 C   0  0  0  0  0  0  0  0  0  0  0  0
  -37.8821   61.5015   65.4471 O   0  0  0  0  0  0  0  0  0  0  0  0
  -36.4182   61.5140   65.3675 C   0  0  0  0  0  0  0  0  0  0  0  0
  -35.9312   60.0920   65.4868 C   0  0  0  0  0  0  0  0  0  0  0  0
  -35.9547   62.3813   66.5217 C   0  0  0  0  0  0  0  0  0  0  0  0
  -34.3791   63.2176   64.8906 N   0  0  0  0  0  0  0  0  0  0  0  0
  -34.1904   63.9210   67.0194 O   0  0  0  0  0  0  0  0  0  0  0  0
  -34.7604   63.2406   66.1710 C   0  0  0  0  0  0  0  0  0  0  0  0
  -34.8742   62.6526   64.2543 H   0  0  0  0  0  0  0  0  0  0  0  0
  -32.9518   66.2691   63.5696 N   0  0  0  0  0  0  0  0  0  0  0  0
  -34.9720   65.3136   63.3778 O   0  0  0  0  0  0  0  0  0  0  0  0
  -33.2549   64.0023   64.4107 C   0  0  0  0  0  0  0  0  0  0  0  0
  -32.4410   63.1909   63.3964 C   0  0  0  0  0  0  0  0  0  0  0  0
  -31.0285   63.7234   63.1805 C   0  0  0  0  0  0  0  0  0  0  0  0
  -30.9408   65.1315   62.6259 C   0  0  0  0  0  0  0  0  0  0  0  0
  -31.4948   66.1969   63.5486 C   0  0  0  0  0  0  0  0  0  0  0  0
  -33.8008   65.2532   63.7403 C   0  0  0  0  0  0  0  0  0  0  0  0
  -33.3507   67.1605   63.4448 H   0  0  0  0  0  0  0  0  0  0  0  0
  -40.3150   58.7426   65.5219 C   0  0  0  0  0  0  0  0  0  0  0  0
  -41.3014   58.1698   64.5098 C   0  0  0  0  0  0  0  0  0  0  0  0
  -42.2477   57.1472   65.1111 C   0  0  0  0  0  0  0  0  0  0  0  0
  -43.7160   57.4844   64.9714 C   0  0  0  0  0  0  0  0  0  0  0  0
  -44.4498   57.1305   66.1761 N   0  0  0  0  0  0  0  0  0  0  0  0
  -46.3930   57.0219   67.3188 O   0  0  0  0  0  0  0  0  0  0  0  0
  -45.7702   57.3130   66.2844 C   0  0  0  0  0  0  0  0  0  0  0  0
  -43.9584   56.7441   66.9368 H   0  0  0  0  0  0  0  0  0  0  0  0
  -47.2698   58.8277   65.0077 C   0  0  0  0  0  0  0  0  0  0  0  0
  -46.4221   57.8090   65.0518 C   0  0  0  0  0  0  0  0  0  0  0  0
  -47.7296   59.6876   66.1434 C   0  0  0  0  0  0  0  0  0  0  0  0
  -49.2479   59.8124   66.1777 C   0  0  0  0  0  0  0  0  0  0  0  0
  -49.8018   60.8318   65.1974 C   0  0  0  0  0  0  0  0  0  0  0  0
  -51.1384   60.4322   64.5947 C   0  0  0  0  0  0  0  0  0  0  0  0
  -51.1772   59.0214   64.0380 C   0  0  0  0  0  0  0  0  0  0  0  0
  -51.1556   58.9691   62.5193 C   0  0  0  0  0  0  0  0  0  0  0  0
  -50.3286   57.8259   61.9645 C   0  0  0  0  0  0  0  0  0  0  0  0
  -48.9524   58.2584   61.4997 C   0  0  0  0  0  0  0  0  0  0  0  0
  -48.8747   58.6244   60.0300 C   0  0  0  0  0  0  0  0  0  0  0  0
  -49.3020   57.4896   59.1204 C   0  0  0  0  0  0  0  0  0  0  0  0
  -48.9331   56.1175   59.6603 C   0  0  0  0  0  0  0  0  0  0  0  0
  -47.7211   55.4920   58.9921 C   0  0  0  0  0  0  0  0  0  0  0  0
  -47.8557   55.3240   57.4865 C   0  0  0  0  0  0  0  0  0  0  0  0
  -46.8247   56.1050   56.6835 C   0  0  0  0  0  0  0  0  0  0  0  0
  -47.1286   57.5917   56.5925 C   0  0  0  0  0  0  0  0  0  0  0  0
  -44.7882   58.4089   57.0731 C   0  0  0  0  0  0  0  0  0  0  0  0
  -46.2428   58.4682   57.4593 C   0  0  0  0  0  0  0  0  0  0  0  0
 43 45  1  0  0  0
 43 42  1  0  0  0
 43 46  1  0  0  0
 64 65  1  0  0  0
 44 45  2  0  0  0
 65 63  1  0  0  0
  2  1  1  0  0  0
  2  4  1  0  0  0
  2  5  1  0  0  0
  3  4  2  0  0  0
 63 62  1  0  0  0
  6  8  1  0  0  0
  6 11  2  0  0  0
  7 10  1  0  0  0
  7 11  1  0  0  0
 62 61  1  0  0  0
 26 28  1  0  0  0
 26 32  1  0  0  0
 26 29  1  0  0  0
 12 18  1  0  0  0
 12 19  1  0  0  0
 61 60  1  0  0  0
 30 36  1  0  0  0
 30 37  1  0  0  0
 30 38  1  0  0  0
 20 21  2  0  0  0
 60 59  1  0  0  0
 22 21  1  0  0  0
 22 23  1  0  0  0
 59 58  1  0  0  0
 27 28  2  0  0  0
 58 57  1  0  0  0
 31 37  2  0  0  0
 57 56  1  0  0  0
 56 55  1  0  0  0
 55 54  1  0  0  0
 54 53  1  0  0  0
 53 52  1  0  0  0
 52 51  1  0  0  0
 51 50  1  0  0  0
 50 49  1  0  0  0
 49 47  1  0  0  0
 47 48  2  0  0  0
 48 45  1  0  0  0
 42 41  1  0  0  0
 41 40  1  0  0  0
 40 39  1  0  0  0
 39  1  1  0  0  0
  1 21  1  0  0  0
  8  4  1  0  0  0
  8  9  1  0  0  0
  8 10  1  0  0  0
 11 13  1  0  0  0
 13 14  2  0  0  0
 13 18  1  0  0  0
 14 15  1  0  0  0
 15 16  2  0  0  0
 16 17  1  0  0  0
 17 18  2  0  0  0
 23 24  1  0  0  0
 23 25  1  0  0  0
 25 28  1  0  0  0
 32 33  1  0  0  0
 32 37  1  0  0  0
 33 34  1  0  0  0
 34 35  1  0  0  0
 35 36  1  0  0  0
M  END
> <minimizedAffinity>
-9.72701

> <CNNscore>
0.1526481658

> <CNNaffinity>
7.1058135033

> <CNN_VS>
1.0846893787

> <CNNaffinity_variance>
0.7875317335

$$$$
