/media/chris/experiments/cd1a-new-docking/inputs/ligands/7ryo_ligand.pdb


 65 67  0  0  0  0  0  0  0  0999 V2000
  -34.8990   60.6899   63.6314 C   0  0  0  0  0  0  0  0  0  0  0  0
  -34.8205   59.5067   64.4718 N   0  0  0  0  0  0  0  0  0  0  0  0
  -35.3610   57.3457   64.7752 O   0  0  0  0  0  0  0  0  0  0  0  0
  -35.3917   58.3603   64.0947 C   0  0  0  0  0  0  0  0  0  0  0  0
  -34.3400   59.5511   65.3300 H   0  0  0  0  0  0  0  0  0  0  0  0
  -37.2479   57.4181   62.7761 N   0  0  0  0  0  0  0  0  0  0  0  0
  -38.0747   59.3507   61.9610 O   0  0  0  0  0  0  0  0  0  0  0  0
  -36.0952   58.3327   62.7278 C   0  0  0  0  0  0  0  0  0  0  0  0
  -35.1094   57.8346   61.6752 C   0  0  0  0  0  0  0  0  0  0  0  0
  -36.7128   59.6823   62.3334 C   0  0  0  0  0  0  0  0  0  0  0  0
  -38.2543   58.0610   62.3481 C   0  0  0  0  0  0  0  0  0  0  0  0
  -39.9587   58.7104   60.1216 O   0  0  0  0  0  0  0  0  0  0  0  0
  -39.6188   57.5440   62.2190 C   0  0  0  0  0  0  0  0  0  0  0  0
  -40.0938   56.5882   63.1180 C   0  0  0  0  0  0  0  0  0  0  0  0
  -41.2782   55.9168   62.8683 C   0  0  0  0  0  0  0  0  0  0  0  0
  -42.0047   56.1836   61.7281 C   0  0  0  0  0  0  0  0  0  0  0  0
  -41.5535   57.1231   60.8189 C   0  0  0  0  0  0  0  0  0  0  0  0
  -40.3643   57.8067   61.0513 C   0  0  0  0  0  0  0  0  0  0  0  0
  -39.1622   59.1875   60.2482 H   0  0  0  0  0  0  0  0  0  0  0  0
  -33.3442   62.5359   63.5077 O   0  0  0  0  0  0  0  0  0  0  0  0
  -33.5371   61.3517   63.4835 C   0  0  0  0  0  0  0  0  0  0  0  0
  -32.5800   60.4255   63.3005 O   0  0  0  0  0  0  0  0  0  0  0  0
  -31.6765   60.5815   62.1563 C   0  0  0  0  0  0  0  0  0  0  0  0
  -31.7578   59.3282   61.3219 C   0  0  0  0  0  0  0  0  0  0  0  0
  -30.2976   60.7900   62.7515 C   0  0  0  0  0  0  0  0  0  0  0  0
  -30.5448   62.9857   63.7313 N   0  0  0  0  0  0  0  0  0  0  0  0
  -29.0299   62.7103   62.0908 O   0  0  0  0  0  0  0  0  0  0  0  0
  -29.9003   62.2476   62.8228 C   0  0  0  0  0  0  0  0  0  0  0  0
  -31.2340   62.5605   64.2910 H   0  0  0  0  0  0  0  0  0  0  0  0
  -30.1586   65.9145   65.8209 N   0  0  0  0  0  0  0  0  0  0  0  0
  -31.4414   64.0809   65.9741 O   0  0  0  0  0  0  0  0  0  0  0  0
  -30.2574   64.3973   63.9167 C   0  0  0  0  0  0  0  0  0  0  0  0
  -31.0473   65.2333   62.9034 C   0  0  0  0  0  0  0  0  0  0  0  0
  -30.4932   66.6403   62.7077 C   0  0  0  0  0  0  0  0  0  0  0  0
  -30.5004   67.5207   63.9416 C   0  0  0  0  0  0  0  0  0  0  0  0
  -29.6050   67.0291   65.0596 C   0  0  0  0  0  0  0  0  0  0  0  0
  -30.6709   64.7848   65.3277 C   0  0  0  0  0  0  0  0  0  0  0  0
  -30.1540   66.0051   66.8013 H   0  0  0  0  0  0  0  0  0  0  0  0
  -35.9335   61.6822   64.1646 C   0  0  0  0  0  0  0  0  0  0  0  0
  -35.9865   61.7025   65.6885 C   0  0  0  0  0  0  0  0  0  0  0  0
  -37.2352   61.0494   66.2513 C   0  0  0  0  0  0  0  0  0  0  0  0
  -38.3095   60.7512   65.2285 C   0  0  0  0  0  0  0  0  0  0  0  0
  -39.3121   59.8489   65.7723 N   0  0  0  0  0  0  0  0  0  0  0  0
  -40.8698   61.4613   66.0321 O   0  0  0  0  0  0  0  0  0  0  0  0
  -40.5273   60.2722   66.1370 C   0  0  0  0  0  0  0  0  0  0  0  0
  -39.0889   58.8957   65.8755 H   0  0  0  0  0  0  0  0  0  0  0  0
  -42.3864   58.6240   66.1185 C   0  0  0  0  0  0  0  0  0  0  0  0
  -41.3829   59.2269   66.7416 C   0  0  0  0  0  0  0  0  0  0  0  0
  -42.8542   58.8384   64.7129 C   0  0  0  0  0  0  0  0  0  0  0  0
  -44.0303   57.9341   64.3656 C   0  0  0  0  0  0  0  0  0  0  0  0
  -45.0997   57.8775   65.4427 C   0  0  0  0  0  0  0  0  0  0  0  0
  -46.5058   58.1124   64.9167 C   0  0  0  0  0  0  0  0  0  0  0  0
  -47.5536   58.3074   65.9964 C   0  0  0  0  0  0  0  0  0  0  0  0
  -48.9501   57.8885   65.5673 C   0  0  0  0  0  0  0  0  0  0  0  0
  -50.0211   58.9027   65.9181 C   0  0  0  0  0  0  0  0  0  0  0  0
  -50.0655   60.0762   64.9601 C   0  0  0  0  0  0  0  0  0  0  0  0
  -51.3737   60.2196   64.2064 C   0  0  0  0  0  0  0  0  0  0  0  0
  -51.3684   59.4869   62.8794 C   0  0  0  0  0  0  0  0  0  0  0  0
  -50.0235   59.5369   62.1728 C   0  0  0  0  0  0  0  0  0  0  0  0
  -49.5518   58.1955   61.6389 C   0  0  0  0  0  0  0  0  0  0  0  0
  -50.2325   57.7625   60.3496 C   0  0  0  0  0  0  0  0  0  0  0  0
  -49.2689   57.5036   59.1995 C   0  0  0  0  0  0  0  0  0  0  0  0
  -47.8092   57.4947   59.6239 C   0  0  0  0  0  0  0  0  0  0  0  0
  -47.2933   57.5796   57.1534 C   0  0  0  0  0  0  0  0  0  0  0  0
  -46.8383   57.9369   58.5441 C   0  0  0  0  0  0  0  0  0  0  0  0
 43 45  1  0  0  0
 43 42  1  0  0  0
 43 46  1  0  0  0
 64 65  1  0  0  0
 44 45  2  0  0  0
 65 63  1  0  0  0
  2  1  1  0  0  0
  2  4  1  0  0  0
  2  5  1  0  0  0
  3  4  2  0  0  0
 63 62  1  0  0  0
  6  8  1  0  0  0
  6 11  2  0  0  0
  7 10  1  0  0  0
  7 11  1  0  0  0
 62 61  1  0  0  0
 26 28  1  0  0  0
 26 32  1  0  0  0
 26 29  1  0  0  0
 12 18  1  0  0  0
 12 19  1  0  0  0
 61 60  1  0  0  0
 30 36  1  0  0  0
 30 37  1  0  0  0
 30 38  1  0  0  0
 20 21  2  0  0  0
 60 59  1  0  0  0
 22 21  1  0  0  0
 22 23  1  0  0  0
 59 58  1  0  0  0
 27 28  2  0  0  0
 58 57  1  0  0  0
 31 37  2  0  0  0
 57 56  1  0  0  0
 56 55  1  0  0  0
 55 54  1  0  0  0
 54 53  1  0  0  0
 53 52  1  0  0  0
 52 51  1  0  0  0
 51 50  1  0  0  0
 50 49  1  0  0  0
 49 47  1  0  0  0
 47 48  2  0  0  0
 48 45  1  0  0  0
 42 41  1  0  0  0
 41 40  1  0  0  0
 40 39  1  0  0  0
 39  1  1  0  0  0
  1 21  1  0  0  0
  8  4  1  0  0  0
  8  9  1  0  0  0
  8 10  1  0  0  0
 11 13  1  0  0  0
 13 14  2  0  0  0
 13 18  1  0  0  0
 14 15  1  0  0  0
 15 16  2  0  0  0
 16 17  1  0  0  0
 17 18  2  0  0  0
 23 24  1  0  0  0
 23 25  1  0  0  0
 25 28  1  0  0  0
 32 33  1  0  0  0
 32 37  1  0  0  0
 33 34  1  0  0  0
 34 35  1  0  0  0
 35 36  1  0  0  0
M  END
> <minimizedAffinity>
-10.28660

> <CNNscore>
0.2971478701

> <CNNaffinity>
7.2471771240

> <CNN_VS>
2.1534831524

> <CNNaffinity_variance>
1.4363586903

$$$$
/media/chris/experiments/cd1a-new-docking/inputs/ligands/7ryo_ligand.pdb


 65 67  0  0  0  0  0  0  0  0999 V2000
  -33.6116   59.5351   63.3282 C   0  0  0  0  0  0  0  0  0  0  0  0
  -34.2261   58.7539   64.3887 N   0  0  0  0  0  0  0  0  0  0  0  0
  -35.9169   57.4232   65.0402 O   0  0  0  0  0  0  0  0  0  0  0  0
  -35.3598   58.0818   64.1746 C   0  0  0  0  0  0  0  0  0  0  0  0
  -33.8010   58.7198   65.2760 H   0  0  0  0  0  0  0  0  0  0  0  0
  -37.1869   57.3208   62.7068 N   0  0  0  0  0  0  0  0  0  0  0  0
  -37.7882   59.3290   61.8769 O   0  0  0  0  0  0  0  0  0  0  0  0
  -35.9616   58.1352   62.7607 C   0  0  0  0  0  0  0  0  0  0  0  0
  -34.9466   57.5719   61.7707 C   0  0  0  0  0  0  0  0  0  0  0  0
  -36.4342   59.5383   62.3526 C   0  0  0  0  0  0  0  0  0  0  0  0
  -38.1023   58.0532   62.2222 C   0  0  0  0  0  0  0  0  0  0  0  0
  -39.5930   58.9130   59.9151 O   0  0  0  0  0  0  0  0  0  0  0  0
  -39.4921   57.6557   61.9849 C   0  0  0  0  0  0  0  0  0  0  0  0
  -40.1029   56.7142   62.8143 C   0  0  0  0  0  0  0  0  0  0  0  0
  -41.3178   56.1518   62.4627 C   0  0  0  0  0  0  0  0  0  0  0  0
  -41.9409   56.5144   61.2884 C   0  0  0  0  0  0  0  0  0  0  0  0
  -41.3545   57.4419   60.4465 C   0  0  0  0  0  0  0  0  0  0  0  0
  -40.1326   58.0167   60.7817 C   0  0  0  0  0  0  0  0  0  0  0  0
  -38.7711   59.3181   60.1113 H   0  0  0  0  0  0  0  0  0  0  0  0
  -31.8370   57.9386   62.9509 O   0  0  0  0  0  0  0  0  0  0  0  0
  -32.1830   59.0818   63.0672 C   0  0  0  0  0  0  0  0  0  0  0  0
  -31.3562   60.1401   63.0055 O   0  0  0  0  0  0  0  0  0  0  0  0
  -30.0810   59.9811   62.2996 C   0  0  0  0  0  0  0  0  0  0  0  0
  -28.9918   60.5632   63.1647 C   0  0  0  0  0  0  0  0  0  0  0  0
  -30.2427   60.7320   60.9922 C   0  0  0  0  0  0  0  0  0  0  0  0
  -31.4930   62.6525   61.7607 N   0  0  0  0  0  0  0  0  0  0  0  0
  -29.4728   62.9931   60.8307 O   0  0  0  0  0  0  0  0  0  0  0  0
  -30.3660   62.2273   61.1824 C   0  0  0  0  0  0  0  0  0  0  0  0
  -32.1749   61.9922   62.0219 H   0  0  0  0  0  0  0  0  0  0  0  0
  -30.9791   65.6893   63.6599 N   0  0  0  0  0  0  0  0  0  0  0  0
  -30.9540   63.5150   64.2100 O   0  0  0  0  0  0  0  0  0  0  0  0
  -31.7408   64.0608   62.0151 C   0  0  0  0  0  0  0  0  0  0  0  0
  -33.2467   64.3452   61.9815 C   0  0  0  0  0  0  0  0  0  0  0  0
  -33.5861   65.8186   61.7844 C   0  0  0  0  0  0  0  0  0  0  0  0
  -33.0966   66.7513   62.8744 C   0  0  0  0  0  0  0  0  0  0  0  0
  -31.5888   66.8329   62.9900 C   0  0  0  0  0  0  0  0  0  0  0  0
  -31.1903   64.3988   63.3916 C   0  0  0  0  0  0  0  0  0  0  0  0
  -30.3455   65.8904   64.3862 H   0  0  0  0  0  0  0  0  0  0  0  0
  -33.6615   61.0315   63.6405 C   0  0  0  0  0  0  0  0  0  0  0  0
  -34.3336   61.3231   64.9779 C   0  0  0  0  0  0  0  0  0  0  0  0
  -35.4547   62.3403   64.8736 C   0  0  0  0  0  0  0  0  0  0  0  0
  -36.6202   62.0957   65.8068 C   0  0  0  0  0  0  0  0  0  0  0  0
  -37.5251   61.0965   65.2611 N   0  0  0  0  0  0  0  0  0  0  0  0
  -38.2164   60.3700   67.2830 O   0  0  0  0  0  0  0  0  0  0  0  0
  -38.2623   60.3010   66.0438 C   0  0  0  0  0  0  0  0  0  0  0  0
  -37.5973   61.0026   64.2838 H   0  0  0  0  0  0  0  0  0  0  0  0
  -40.3707   59.1269   65.4528 C   0  0  0  0  0  0  0  0  0  0  0  0
  -39.0627   59.2943   65.3117 C   0  0  0  0  0  0  0  0  0  0  0  0
  -41.3038   59.8974   66.3336 C   0  0  0  0  0  0  0  0  0  0  0  0
  -42.3405   58.9915   66.9865 C   0  0  0  0  0  0  0  0  0  0  0  0
  -42.5865   57.6969   66.2312 C   0  0  0  0  0  0  0  0  0  0  0  0
  -44.0473   57.2799   66.1985 C   0  0  0  0  0  0  0  0  0  0  0  0
  -44.9166   58.1163   65.2786 C   0  0  0  0  0  0  0  0  0  0  0  0
  -46.3622   58.2159   65.7370 C   0  0  0  0  0  0  0  0  0  0  0  0
  -47.2643   58.9251   64.7461 C   0  0  0  0  0  0  0  0  0  0  0  0
  -48.4120   59.6612   65.4078 C   0  0  0  0  0  0  0  0  0  0  0  0
  -49.5473   60.0229   64.4695 C   0  0  0  0  0  0  0  0  0  0  0  0
  -50.2210   58.8051   63.8687 C   0  0  0  0  0  0  0  0  0  0  0  0
  -50.7046   59.0291   62.4452 C   0  0  0  0  0  0  0  0  0  0  0  0
  -51.0852   57.7554   61.7106 C   0  0  0  0  0  0  0  0  0  0  0  0
  -50.1232   57.3644   60.5994 C   0  0  0  0  0  0  0  0  0  0  0  0
  -48.7799   58.0780   60.6663 C   0  0  0  0  0  0  0  0  0  0  0  0
  -47.7097   57.4353   59.7989 C   0  0  0  0  0  0  0  0  0  0  0  0
  -46.4872   58.1173   57.6973 C   0  0  0  0  0  0  0  0  0  0  0  0
  -47.8130   57.7705   58.3220 C   0  0  0  0  0  0  0  0  0  0  0  0
 43 45  1  0  0  0
 43 42  1  0  0  0
 43 46  1  0  0  0
 64 65  1  0  0  0
 44 45  2  0  0  0
 65 63  1  0  0  0
  2  1  1  0  0  0
  2  4  1  0  0  0
  2  5  1  0  0  0
  3  4  2  0  0  0
 63 62  1  0  0  0
  6  8  1  0  0  0
  6 11  2  0  0  0
  7 10  1  0  0  0
  7 11  1  0  0  0
 62 61  1  0  0  0
 26 28  1  0  0  0
 26 32  1  0  0  0
 26 29  1  0  0  0
 12 18  1  0  0  0
 12 19  1  0  0  0
 61 60  1  0  0  0
 30 36  1  0  0  0
 30 37  1  0  0  0
 30 38  1  0  0  0
 20 21  2  0  0  0
 60 59  1  0  0  0
 22 21  1  0  0  0
 22 23  1  0  0  0
 59 58  1  0  0  0
 27 28  2  0  0  0
 58 57  1  0  0  0
 31 37  2  0  0  0
 57 56  1  0  0  0
 56 55  1  0  0  0
 55 54  1  0  0  0
 54 53  1  0  0  0
 53 52  1  0  0  0
 52 51  1  0  0  0
 51 50  1  0  0  0
 50 49  1  0  0  0
 49 47  1  0  0  0
 47 48  2  0  0  0
 48 45  1  0  0  0
 42 41  1  0  0  0
 41 40  1  0  0  0
 40 39  1  0  0  0
 39  1  1  0  0  0
  1 21  1  0  0  0
  8  4  1  0  0  0
  8  9  1  0  0  0
  8 10  1  0  0  0
 11 13  1  0  0  0
 13 14  2  0  0  0
 13 18  1  0  0  0
 14 15  1  0  0  0
 15 16  2  0  0  0
 16 17  1  0  0  0
 17 18  2  0  0  0
 23 24  1  0  0  0
 23 25  1  0  0  0
 25 28  1  0  0  0
 32 33  1  0  0  0
 32 37  1  0  0  0
 33 34  1  0  0  0
 34 35  1  0  0  0
 35 36  1  0  0  0
M  END
> <minimizedAffinity>
-10.11191

> <CNNscore>
0.2921216786

> <CNNaffinity>
7.3318772316

> <CNN_VS>
2.1418001652

> <CNNaffinity_variance>
1.6945419312

$$$$
/media/chris/experiments/cd1a-new-docking/inputs/ligands/7ryo_ligand.pdb


 65 67  0  0  0  0  0  0  0  0999 V2000
  -35.1809   60.8216   63.8718 C   0  0  0  0  0  0  0  0  0  0  0  0
  -34.9900   59.6256   64.6753 N   0  0  0  0  0  0  0  0  0  0  0  0
  -35.3001   57.4102   64.8981 O   0  0  0  0  0  0  0  0  0  0  0  0
  -35.4281   58.4383   64.2499 C   0  0  0  0  0  0  0  0  0  0  0  0
  -34.5318   59.6919   65.5441 H   0  0  0  0  0  0  0  0  0  0  0  0
  -37.2667   57.4840   62.9155 N   0  0  0  0  0  0  0  0  0  0  0  0
  -38.0490   59.4040   62.0296 O   0  0  0  0  0  0  0  0  0  0  0  0
  -36.1011   58.3821   62.8686 C   0  0  0  0  0  0  0  0  0  0  0  0
  -35.0987   57.8428   61.8527 C   0  0  0  0  0  0  0  0  0  0  0  0
  -36.6916   59.7282   62.4238 C   0  0  0  0  0  0  0  0  0  0  0  0
  -38.2546   58.1278   62.4474 C   0  0  0  0  0  0  0  0  0  0  0  0
  -39.7848   58.4633   60.0329 O   0  0  0  0  0  0  0  0  0  0  0  0
  -39.6226   57.6250   62.3014 C   0  0  0  0  0  0  0  0  0  0  0  0
  -40.1863   56.8278   63.2985 C   0  0  0  0  0  0  0  0  0  0  0  0
  -41.3714   56.1503   63.0696 C   0  0  0  0  0  0  0  0  0  0  0  0
  -42.0111   56.2542   61.8535 C   0  0  0  0  0  0  0  0  0  0  0  0
  -41.4710   57.0341   60.8471 C   0  0  0  0  0  0  0  0  0  0  0  0
  -40.2796   57.7210   61.0573 C   0  0  0  0  0  0  0  0  0  0  0  0
  -38.9842   58.9380   60.1421 H   0  0  0  0  0  0  0  0  0  0  0  0
  -33.5585   62.4523   64.6128 O   0  0  0  0  0  0  0  0  0  0  0  0
  -33.9031   61.6437   63.7957 C   0  0  0  0  0  0  0  0  0  0  0  0
  -33.2219   61.3539   62.6734 O   0  0  0  0  0  0  0  0  0  0  0  0
  -31.9311   62.0151   62.4577 C   0  0  0  0  0  0  0  0  0  0  0  0
  -32.1916   63.3448   61.7962 C   0  0  0  0  0  0  0  0  0  0  0  0
  -31.1353   61.0761   61.5722 C   0  0  0  0  0  0  0  0  0  0  0  0
  -30.7796   58.7960   62.2909 N   0  0  0  0  0  0  0  0  0  0  0  0
  -29.3494   60.3787   63.0059 O   0  0  0  0  0  0  0  0  0  0  0  0
  -30.3411   60.0564   62.3576 C   0  0  0  0  0  0  0  0  0  0  0  0
  -31.5810   58.5963   61.7550 H   0  0  0  0  0  0  0  0  0  0  0  0
  -29.8428   55.3169   62.6250 N   0  0  0  0  0  0  0  0  0  0  0  0
  -31.6305   56.3446   61.7426 O   0  0  0  0  0  0  0  0  0  0  0  0
  -30.1078   57.7120   62.9862 C   0  0  0  0  0  0  0  0  0  0  0  0
  -30.4420   57.7582   64.4815 C   0  0  0  0  0  0  0  0  0  0  0  0
  -29.4628   56.9770   65.3509 C   0  0  0  0  0  0  0  0  0  0  0  0
  -29.3892   55.4887   65.0732 C   0  0  0  0  0  0  0  0  0  0  0  0
  -28.8671   55.1399   63.6951 C   0  0  0  0  0  0  0  0  0  0  0  0
  -30.5934   56.3970   62.3972 C   0  0  0  0  0  0  0  0  0  0  0  0
  -29.9600   54.5603   62.0060 H   0  0  0  0  0  0  0  0  0  0  0  0
  -36.3427   61.6652   64.3988 C   0  0  0  0  0  0  0  0  0  0  0  0
  -36.4885   61.5699   65.9138 C   0  0  0  0  0  0  0  0  0  0  0  0
  -37.6013   60.6345   66.3489 C   0  0  0  0  0  0  0  0  0  0  0  0
  -38.7467   60.5138   65.3676 C   0  0  0  0  0  0  0  0  0  0  0  0
  -39.8129   59.6862   65.9090 N   0  0  0  0  0  0  0  0  0  0  0  0
  -41.1558   61.4339   66.3947 O   0  0  0  0  0  0  0  0  0  0  0  0
  -40.9474   60.2096   66.3863 C   0  0  0  0  0  0  0  0  0  0  0  0
  -39.6957   58.7088   65.9247 H   0  0  0  0  0  0  0  0  0  0  0  0
  -42.8403   58.6031   66.2899 C   0  0  0  0  0  0  0  0  0  0  0  0
  -41.8808   59.2190   66.9673 C   0  0  0  0  0  0  0  0  0  0  0  0
  -43.1749   58.7469   64.8381 C   0  0  0  0  0  0  0  0  0  0  0  0
  -44.3620   57.8768   64.4439 C   0  0  0  0  0  0  0  0  0  0  0  0
  -45.1470   57.3375   65.6271 C   0  0  0  0  0  0  0  0  0  0  0  0
  -46.5051   57.9951   65.8066 C   0  0  0  0  0  0  0  0  0  0  0  0
  -46.9143   58.9079   64.6659 C   0  0  0  0  0  0  0  0  0  0  0  0
  -48.0459   59.8564   65.0259 C   0  0  0  0  0  0  0  0  0  0  0  0
  -48.9594   59.3243   66.1127 C   0  0  0  0  0  0  0  0  0  0  0  0
  -50.4170   59.6735   65.8880 C   0  0  0  0  0  0  0  0  0  0  0  0
  -50.6647   60.6002   64.7134 C   0  0  0  0  0  0  0  0  0  0  0  0
  -51.6394   60.0220   63.7067 C   0  0  0  0  0  0  0  0  0  0  0  0
  -50.9682   59.1606   62.6494 C   0  0  0  0  0  0  0  0  0  0  0  0
  -49.7995   59.8330   61.9503 C   0  0  0  0  0  0  0  0  0  0  0  0
  -49.4866   59.2676   60.5735 C   0  0  0  0  0  0  0  0  0  0  0  0
  -48.5889   58.0382   60.6004 C   0  0  0  0  0  0  0  0  0  0  0  0
  -48.3284   57.4493   59.2234 C   0  0  0  0  0  0  0  0  0  0  0  0
  -46.9543   57.5204   57.1059 C   0  0  0  0  0  0  0  0  0  0  0  0
  -47.1005   58.0045   58.5247 C   0  0  0  0  0  0  0  0  0  0  0  0
 43 45  1  0  0  0
 43 42  1  0  0  0
 43 46  1  0  0  0
 64 65  1  0  0  0
 44 45  2  0  0  0
 65 63  1  0  0  0
  2  1  1  0  0  0
  2  4  1  0  0  0
  2  5  1  0  0  0
  3  4  2  0  0  0
 63 62  1  0  0  0
  6  8  1  0  0  0
  6 11  2  0  0  0
  7 10  1  0  0  0
  7 11  1  0  0  0
 62 61  1  0  0  0
 26 28  1  0  0  0
 26 32  1  0  0  0
 26 29  1  0  0  0
 12 18  1  0  0  0
 12 19  1  0  0  0
 61 60  1  0  0  0
 30 36  1  0  0  0
 30 37  1  0  0  0
 30 38  1  0  0  0
 20 21  2  0  0  0
 60 59  1  0  0  0
 22 21  1  0  0  0
 22 23  1  0  0  0
 59 58  1  0  0  0
 27 28  2  0  0  0
 58 57  1  0  0  0
 31 37  2  0  0  0
 57 56  1  0  0  0
 56 55  1  0  0  0
 55 54  1  0  0  0
 54 53  1  0  0  0
 53 52  1  0  0  0
 52 51  1  0  0  0
 51 50  1  0  0  0
 50 49  1  0  0  0
 49 47  1  0  0  0
 47 48  2  0  0  0
 48 45  1  0  0  0
 42 41  1  0  0  0
 41 40  1  0  0  0
 40 39  1  0  0  0
 39  1  1  0  0  0
  1 21  1  0  0  0
  8  4  1  0  0  0
  8  9  1  0  0  0
  8 10  1  0  0  0
 11 13  1  0  0  0
 13 14  2  0  0  0
 13 18  1  0  0  0
 14 15  1  0  0  0
 15 16  2  0  0  0
 16 17  1  0  0  0
 17 18  2  0  0  0
 23 24  1  0  0  0
 23 25  1  0  0  0
 25 28  1  0  0  0
 32 33  1  0  0  0
 32 37  1  0  0  0
 33 34  1  0  0  0
 34 35  1  0  0  0
 35 36  1  0  0  0
M  END
> <minimizedAffinity>
-11.11163

> <CNNscore>
0.2716266811

> <CNNaffinity>
7.4239587784

> <CNN_VS>
2.0165452957

> <CNNaffinity_variance>
2.1718919277

$$$$
/media/chris/experiments/cd1a-new-docking/inputs/ligands/7ryo_ligand.pdb


 65 67  0  0  0  0  0  0  0  0999 V2000
  -35.1494   60.4979   65.1528 C   0  0  0  0  0  0  0  0  0  0  0  0
  -35.8957   60.8606   63.9594 N   0  0  0  0  0  0  0  0  0  0  0  0
  -37.8693   60.8960   62.8837 O   0  0  0  0  0  0  0  0  0  0  0  0
  -37.2060   60.6193   63.8720 C   0  0  0  0  0  0  0  0  0  0  0  0
  -35.4291   61.2895   63.2061 H   0  0  0  0  0  0  0  0  0  0  0  0
  -39.3290   59.7985   64.8158 N   0  0  0  0  0  0  0  0  0  0  0  0
  -38.6074   57.7821   65.5205 O   0  0  0  0  0  0  0  0  0  0  0  0
  -37.8947   59.9844   65.0913 C   0  0  0  0  0  0  0  0  0  0  0  0
  -37.7354   60.9161   66.2889 C   0  0  0  0  0  0  0  0  0  0  0  0
  -37.3934   58.5669   65.4042 C   0  0  0  0  0  0  0  0  0  0  0  0
  -39.6061   58.5879   65.0748 C   0  0  0  0  0  0  0  0  0  0  0  0
  -41.9214   59.5119   66.5134 O   0  0  0  0  0  0  0  0  0  0  0  0
  -40.9215   57.9562   64.9465 C   0  0  0  0  0  0  0  0  0  0  0  0
  -41.1286   56.9556   63.9961 C   0  0  0  0  0  0  0  0  0  0  0  0
  -42.4098   56.5253   63.6972 C   0  0  0  0  0  0  0  0  0  0  0  0
  -43.4985   57.0793   64.3348 C   0  0  0  0  0  0  0  0  0  0  0  0
  -43.3209   58.0757   65.2774 C   0  0  0  0  0  0  0  0  0  0  0  0
  -42.0410   58.5229   65.5899 C   0  0  0  0  0  0  0  0  0  0  0  0
  -41.0734   59.8356   66.7461 H   0  0  0  0  0  0  0  0  0  0  0  0
  -34.4063   61.8867   66.9857 O   0  0  0  0  0  0  0  0  0  0  0  0
  -34.5212   61.7217   65.8026 C   0  0  0  0  0  0  0  0  0  0  0  0
  -34.1305   62.6044   64.8668 O   0  0  0  0  0  0  0  0  0  0  0  0
  -34.5008   64.0116   65.0461 C   0  0  0  0  0  0  0  0  0  0  0  0
  -35.1794   64.4811   63.7841 C   0  0  0  0  0  0  0  0  0  0  0  0
  -33.1999   64.7450   65.3087 C   0  0  0  0  0  0  0  0  0  0  0  0
  -32.2232   63.9609   63.2415 N   0  0  0  0  0  0  0  0  0  0  0  0
  -30.9688   63.9004   65.1082 O   0  0  0  0  0  0  0  0  0  0  0  0
  -32.0300   64.1613   64.5483 C   0  0  0  0  0  0  0  0  0  0  0  0
  -33.0958   64.1889   62.8467 H   0  0  0  0  0  0  0  0  0  0  0  0
  -30.0373   64.1471   60.3639 N   0  0  0  0  0  0  0  0  0  0  0  0
  -32.0921   64.9435   60.7816 O   0  0  0  0  0  0  0  0  0  0  0  0
  -31.1828   63.4165   62.3867 C   0  0  0  0  0  0  0  0  0  0  0  0
  -31.4901   61.9531   62.0495 C   0  0  0  0  0  0  0  0  0  0  0  0
  -30.2771   61.1720   61.5561 C   0  0  0  0  0  0  0  0  0  0  0  0
  -29.6504   61.6832   60.2741 C   0  0  0  0  0  0  0  0  0  0  0  0
  -29.0532   63.0704   60.3859 C   0  0  0  0  0  0  0  0  0  0  0  0
  -31.1432   64.2356   61.1063 C   0  0  0  0  0  0  0  0  0  0  0  0
  -29.8681   64.8860   59.7356 H   0  0  0  0  0  0  0  0  0  0  0  0
  -34.0902   59.4385   64.8449 C   0  0  0  0  0  0  0  0  0  0  0  0
  -33.6498   59.4653   63.3852 C   0  0  0  0  0  0  0  0  0  0  0  0
  -33.1126   58.1320   62.8990 C   0  0  0  0  0  0  0  0  0  0  0  0
  -34.1461   57.2257   62.2667 C   0  0  0  0  0  0  0  0  0  0  0  0
  -35.0133   57.9704   61.3677 N   0  0  0  0  0  0  0  0  0  0  0  0
  -36.9209   57.2512   62.3360 O   0  0  0  0  0  0  0  0  0  0  0  0
  -36.3464   57.9289   61.4682 C   0  0  0  0  0  0  0  0  0  0  0  0
  -34.6059   58.5231   60.6622 H   0  0  0  0  0  0  0  0  0  0  0  0
  -38.3823   58.7858   60.3306 C   0  0  0  0  0  0  0  0  0  0  0  0
  -37.0627   58.6871   60.4183 C   0  0  0  0  0  0  0  0  0  0  0  0
  -39.4087   58.1941   61.2453 C   0  0  0  0  0  0  0  0  0  0  0  0
  -40.7736   58.0982   60.5747 C   0  0  0  0  0  0  0  0  0  0  0  0
  -40.8661   58.8547   59.2609 C   0  0  0  0  0  0  0  0  0  0  0  0
  -41.8035   58.2109   58.2530 C   0  0  0  0  0  0  0  0  0  0  0  0
  -42.1237   59.0804   57.0517 C   0  0  0  0  0  0  0  0  0  0  0  0
  -43.5641   58.9581   56.5827 C   0  0  0  0  0  0  0  0  0  0  0  0
  -44.4467   58.1753   57.5351 C   0  0  0  0  0  0  0  0  0  0  0  0
  -45.9249   58.4365   57.3267 C   0  0  0  0  0  0  0  0  0  0  0  0
  -46.8399   57.4785   58.0650 C   0  0  0  0  0  0  0  0  0  0  0  0
  -47.9307   58.1907   58.8401 C   0  0  0  0  0  0  0  0  0  0  0  0
  -48.8137   57.2452   59.6379 C   0  0  0  0  0  0  0  0  0  0  0  0
  -50.1667   57.8253   60.0118 C   0  0  0  0  0  0  0  0  0  0  0  0
  -50.6355   57.4634   61.4126 C   0  0  0  0  0  0  0  0  0  0  0  0
  -50.8982   58.6678   62.3062 C   0  0  0  0  0  0  0  0  0  0  0  0
  -49.6529   59.4912   62.5929 C   0  0  0  0  0  0  0  0  0  0  0  0
  -49.9735   58.5619   64.9188 C   0  0  0  0  0  0  0  0  0  0  0  0
  -49.0352   59.2422   63.9569 C   0  0  0  0  0  0  0  0  0  0  0  0
 43 45  1  0  0  0
 43 42  1  0  0  0
 43 46  1  0  0  0
 64 65  1  0  0  0
 44 45  2  0  0  0
 65 63  1  0  0  0
  2  1  1  0  0  0
  2  4  1  0  0  0
  2  5  1  0  0  0
  3  4  2  0  0  0
 63 62  1  0  0  0
  6  8  1  0  0  0
  6 11  2  0  0  0
  7 10  1  0  0  0
  7 11  1  0  0  0
 62 61  1  0  0  0
 26 28  1  0  0  0
 26 32  1  0  0  0
 26 29  1  0  0  0
 12 18  1  0  0  0
 12 19  1  0  0  0
 61 60  1  0  0  0
 30 36  1  0  0  0
 30 37  1  0  0  0
 30 38  1  0  0  0
 20 21  2  0  0  0
 60 59  1  0  0  0
 22 21  1  0  0  0
 22 23  1  0  0  0
 59 58  1  0  0  0
 27 28  2  0  0  0
 58 57  1  0  0  0
 31 37  2  0  0  0
 57 56  1  0  0  0
 56 55  1  0  0  0
 55 54  1  0  0  0
 54 53  1  0  0  0
 53 52  1  0  0  0
 52 51  1  0  0  0
 51 50  1  0  0  0
 50 49  1  0  0  0
 49 47  1  0  0  0
 47 48  2  0  0  0
 48 45  1  0  0  0
 42 41  1  0  0  0
 41 40  1  0  0  0
 40 39  1  0  0  0
 39  1  1  0  0  0
  1 21  1  0  0  0
  8  4  1  0  0  0
  8  9  1  0  0  0
  8 10  1  0  0  0
 11 13  1  0  0  0
 13 14  2  0  0  0
 13 18  1  0  0  0
 14 15  1  0  0  0
 15 16  2  0  0  0
 16 17  1  0  0  0
 17 18  2  0  0  0
 23 24  1  0  0  0
 23 25  1  0  0  0
 25 28  1  0  0  0
 32 33  1  0  0  0
 32 37  1  0  0  0
 33 34  1  0  0  0
 34 35  1  0  0  0
 35 36  1  0  0  0
M  END
> <minimizedAffinity>
-8.74078

> <CNNscore>
0.2711604536

> <CNNaffinity>
7.3149933815

> <CNN_VS>
1.9835369587

> <CNNaffinity_variance>
1.1021913290

$$$$
/media/chris/experiments/cd1a-new-docking/inputs/ligands/7ryo_ligand.pdb


 65 67  0  0  0  0  0  0  0  0999 V2000
  -35.3423   59.1544   63.1090 C   0  0  0  0  0  0  0  0  0  0  0  0
  -34.6738   60.4301   63.3045 N   0  0  0  0  0  0  0  0  0  0  0  0
  -34.5612   62.3684   64.4376 O   0  0  0  0  0  0  0  0  0  0  0  0
  -35.0856   61.2812   64.2472 C   0  0  0  0  0  0  0  0  0  0  0  0
  -33.9076   60.6696   62.7346 H   0  0  0  0  0  0  0  0  0  0  0  0
  -37.5156   61.4225   64.6308 N   0  0  0  0  0  0  0  0  0  0  0  0
  -37.9363   59.2169   64.8337 O   0  0  0  0  0  0  0  0  0  0  0  0
  -36.2606   60.8425   65.1367 C   0  0  0  0  0  0  0  0  0  0  0  0
  -36.0185   61.3440   66.5571 C   0  0  0  0  0  0  0  0  0  0  0  0
  -36.5161   59.3285   65.1051 C   0  0  0  0  0  0  0  0  0  0  0  0
  -38.3431   60.4697   64.5014 C   0  0  0  0  0  0  0  0  0  0  0  0
  -40.5324   61.1585   66.2383 O   0  0  0  0  0  0  0  0  0  0  0  0
  -39.7243   60.5833   64.0267 C   0  0  0  0  0  0  0  0  0  0  0  0
  -40.0055   60.4981   62.6625 C   0  0  0  0  0  0  0  0  0  0  0  0
  -41.2562   60.8436   62.1804 C   0  0  0  0  0  0  0  0  0  0  0  0
  -42.2410   61.2762   63.0417 C   0  0  0  0  0  0  0  0  0  0  0  0
  -41.9866   61.3739   64.3977 C   0  0  0  0  0  0  0  0  0  0  0  0
  -40.7350   61.0332   64.9009 C   0  0  0  0  0  0  0  0  0  0  0  0
  -39.7006   60.9373   66.6089 H   0  0  0  0  0  0  0  0  0  0  0  0
  -34.5135   56.8943   63.3218 O   0  0  0  0  0  0  0  0  0  0  0  0
  -34.3365   58.0233   62.9557 C   0  0  0  0  0  0  0  0  0  0  0  0
  -33.2109   58.4691   62.3710 O   0  0  0  0  0  0  0  0  0  0  0  0
  -32.0148   57.6239   62.4394 C   0  0  0  0  0  0  0  0  0  0  0  0
  -31.2948   57.9357   63.7270 C   0  0  0  0  0  0  0  0  0  0  0  0
  -31.1922   57.9824   61.2170 C   0  0  0  0  0  0  0  0  0  0  0  0
  -31.0688   60.3907   61.3822 N   0  0  0  0  0  0  0  0  0  0  0  0
  -29.1650   59.2063   61.5686 O   0  0  0  0  0  0  0  0  0  0  0  0
  -30.3809   59.2454   61.4019 C   0  0  0  0  0  0  0  0  0  0  0  0
  -32.0432   60.3608   61.2446 H   0  0  0  0  0  0  0  0  0  0  0  0
  -30.9579   63.7492   62.7244 N   0  0  0  0  0  0  0  0  0  0  0  0
  -32.6391   62.4089   62.0856 O   0  0  0  0  0  0  0  0  0  0  0  0
  -30.4203   61.6783   61.5582 C   0  0  0  0  0  0  0  0  0  0  0  0
  -29.9293   62.2098   60.2069 C   0  0  0  0  0  0  0  0  0  0  0  0
  -28.8654   63.2955   60.3273 C   0  0  0  0  0  0  0  0  0  0  0  0
  -29.3019   64.5590   61.0420 C   0  0  0  0  0  0  0  0  0  0  0  0
  -29.6504   64.3569   62.5018 C   0  0  0  0  0  0  0  0  0  0  0  0
  -31.4360   62.6452   62.1460 C   0  0  0  0  0  0  0  0  0  0  0  0
  -31.5498   64.2007   63.3687 H   0  0  0  0  0  0  0  0  0  0  0  0
  -36.2950   59.2041   61.9136 C   0  0  0  0  0  0  0  0  0  0  0  0
  -36.9316   57.8494   61.6222 C   0  0  0  0  0  0  0  0  0  0  0  0
  -38.4309   57.9291   61.4026 C   0  0  0  0  0  0  0  0  0  0  0  0
  -39.2316   56.8549   62.1057 C   0  0  0  0  0  0  0  0  0  0  0  0
  -39.8768   57.3810   63.2981 N   0  0  0  0  0  0  0  0  0  0  0  0
  -41.2196   55.5877   63.5710 O   0  0  0  0  0  0  0  0  0  0  0  0
  -40.8301   56.7049   63.9484 C   0  0  0  0  0  0  0  0  0  0  0  0
  -39.6030   58.2636   63.6376 H   0  0  0  0  0  0  0  0  0  0  0  0
  -42.6831   57.8467   65.1468 C   0  0  0  0  0  0  0  0  0  0  0  0
  -41.4243   57.4328   65.0917 C   0  0  0  0  0  0  0  0  0  0  0  0
  -43.7540   57.6644   64.1171 C   0  0  0  0  0  0  0  0  0  0  0  0
  -45.0982   58.1938   64.6013 C   0  0  0  0  0  0  0  0  0  0  0  0
  -45.5822   57.5516   65.8899 C   0  0  0  0  0  0  0  0  0  0  0  0
  -46.9876   57.9708   66.2879 C   0  0  0  0  0  0  0  0  0  0  0  0
  -47.6662   58.9018   65.3007 C   0  0  0  0  0  0  0  0  0  0  0  0
  -48.7484   59.7647   65.9285 C   0  0  0  0  0  0  0  0  0  0  0  0
  -50.1487   59.2174   65.7332 C   0  0  0  0  0  0  0  0  0  0  0  0
  -51.0358   60.1323   64.9128 C   0  0  0  0  0  0  0  0  0  0  0  0
  -51.2709   59.6646   63.4894 C   0  0  0  0  0  0  0  0  0  0  0  0
  -50.5688   58.3576   63.1790 C   0  0  0  0  0  0  0  0  0  0  0  0
  -49.6713   58.4356   61.9547 C   0  0  0  0  0  0  0  0  0  0  0  0
  -50.2974   57.8772   60.6886 C   0  0  0  0  0  0  0  0  0  0  0  0
  -49.3403   57.0760   59.8198 C   0  0  0  0  0  0  0  0  0  0  0  0
  -48.7130   57.8797   58.6889 C   0  0  0  0  0  0  0  0  0  0  0  0
  -47.1992   57.9796   58.7853 C   0  0  0  0  0  0  0  0  0  0  0  0
  -47.2253   56.8132   56.5458 C   0  0  0  0  0  0  0  0  0  0  0  0
  -46.4681   57.7192   57.4808 C   0  0  0  0  0  0  0  0  0  0  0  0
 43 45  1  0  0  0
 43 42  1  0  0  0
 43 46  1  0  0  0
 64 65  1  0  0  0
 44 45  2  0  0  0
 65 63  1  0  0  0
  2  1  1  0  0  0
  2  4  1  0  0  0
  2  5  1  0  0  0
  3  4  2  0  0  0
 63 62  1  0  0  0
  6  8  1  0  0  0
  6 11  2  0  0  0
  7 10  1  0  0  0
  7 11  1  0  0  0
 62 61  1  0  0  0
 26 28  1  0  0  0
 26 32  1  0  0  0
 26 29  1  0  0  0
 12 18  1  0  0  0
 12 19  1  0  0  0
 61 60  1  0  0  0
 30 36  1  0  0  0
 30 37  1  0  0  0
 30 38  1  0  0  0
 20 21  2  0  0  0
 60 59  1  0  0  0
 22 21  1  0  0  0
 22 23  1  0  0  0
 59 58  1  0  0  0
 27 28  2  0  0  0
 58 57  1  0  0  0
 31 37  2  0  0  0
 57 56  1  0  0  0
 56 55  1  0  0  0
 55 54  1  0  0  0
 54 53  1  0  0  0
 53 52  1  0  0  0
 52 51  1  0  0  0
 51 50  1  0  0  0
 50 49  1  0  0  0
 49 47  1  0  0  0
 47 48  2  0  0  0
 48 45  1  0  0  0
 42 41  1  0  0  0
 41 40  1  0  0  0
 40 39  1  0  0  0
 39  1  1  0  0  0
  1 21  1  0  0  0
  8  4  1  0  0  0
  8  9  1  0  0  0
  8 10  1  0  0  0
 11 13  1  0  0  0
 13 14  2  0  0  0
 13 18  1  0  0  0
 14 15  1  0  0  0
 15 16  2  0  0  0
 16 17  1  0  0  0
 17 18  2  0  0  0
 23 24  1  0  0  0
 23 25  1  0  0  0
 25 28  1  0  0  0
 32 33  1  0  0  0
 32 37  1  0  0  0
 33 34  1  0  0  0
 34 35  1  0  0  0
 35 36  1  0  0  0
M  END
> <minimizedAffinity>
-9.81574

> <CNNscore>
0.2616468370

> <CNNaffinity>
7.4414911270

> <CNN_VS>
1.9470425844

> <CNNaffinity_variance>
1.1393153667

$$$$
/media/chris/experiments/cd1a-new-docking/inputs/ligands/7ryo_ligand.pdb


 65 67  0  0  0  0  0  0  0  0999 V2000
  -36.1548   60.7854   64.5640 C   0  0  0  0  0  0  0  0  0  0  0  0
  -35.6339   59.5247   65.0657 N   0  0  0  0  0  0  0  0  0  0  0  0
  -35.3022   57.3280   64.7215 O   0  0  0  0  0  0  0  0  0  0  0  0
  -35.7155   58.4108   64.3341 C   0  0  0  0  0  0  0  0  0  0  0  0
  -35.2155   59.4917   65.9563 H   0  0  0  0  0  0  0  0  0  0  0  0
  -37.4458   57.5598   62.7999 N   0  0  0  0  0  0  0  0  0  0  0  0
  -38.3268   59.5407   62.1809 O   0  0  0  0  0  0  0  0  0  0  0  0
  -36.3415   58.5241   62.9343 C   0  0  0  0  0  0  0  0  0  0  0  0
  -35.2754   58.2075   61.8897 C   0  0  0  0  0  0  0  0  0  0  0  0
  -37.0063   59.8836   62.6727 C   0  0  0  0  0  0  0  0  0  0  0  0
  -38.4597   58.2057   62.3946 C   0  0  0  0  0  0  0  0  0  0  0  0
  -39.9986   58.9245   60.0710 O   0  0  0  0  0  0  0  0  0  0  0  0
  -39.7864   57.6483   62.1207 C   0  0  0  0  0  0  0  0  0  0  0  0
  -40.2947   56.6240   62.9206 C   0  0  0  0  0  0  0  0  0  0  0  0
  -41.4258   55.9263   62.5335 C   0  0  0  0  0  0  0  0  0  0  0  0
  -42.0654   56.2342   61.3524 C   0  0  0  0  0  0  0  0  0  0  0  0
  -41.5793   57.2418   60.5393 C   0  0  0  0  0  0  0  0  0  0  0  0
  -40.4425   57.9530   60.9104 C   0  0  0  0  0  0  0  0  0  0  0  0
  -39.2357   59.4218   60.2917 H   0  0  0  0  0  0  0  0  0  0  0  0
  -34.2230   61.6143   63.3717 O   0  0  0  0  0  0  0  0  0  0  0  0
  -35.0297   61.7596   64.2482 C   0  0  0  0  0  0  0  0  0  0  0  0
  -35.0513   62.7979   65.1020 O   0  0  0  0  0  0  0  0  0  0  0  0
  -33.8552   63.0532   65.9105 C   0  0  0  0  0  0  0  0  0  0  0  0
  -34.2216   62.8631   67.3607 C   0  0  0  0  0  0  0  0  0  0  0  0
  -33.4507   64.4812   65.6000 C   0  0  0  0  0  0  0  0  0  0  0  0
  -32.2848   63.6917   63.6354 N   0  0  0  0  0  0  0  0  0  0  0  0
  -31.3957   65.4052   64.7909 O   0  0  0  0  0  0  0  0  0  0  0  0
  -32.2821   64.5684   64.6437 C   0  0  0  0  0  0  0  0  0  0  0  0
  -33.0223   63.0430   63.5677 H   0  0  0  0  0  0  0  0  0  0  0  0
  -30.9722   64.5105   60.3643 N   0  0  0  0  0  0  0  0  0  0  0  0
  -33.0399   64.0885   61.1242 O   0  0  0  0  0  0  0  0  0  0  0  0
  -31.2310   63.6684   62.6361 C   0  0  0  0  0  0  0  0  0  0  0  0
  -30.6652   62.2503   62.5003 C   0  0  0  0  0  0  0  0  0  0  0  0
  -29.2923   62.2009   61.8386 C   0  0  0  0  0  0  0  0  0  0  0  0
  -29.2362   62.7183   60.4150 C   0  0  0  0  0  0  0  0  0  0  0  0
  -29.5508   64.1933   60.2783 C   0  0  0  0  0  0  0  0  0  0  0  0
  -31.8263   64.1076   61.3077 C   0  0  0  0  0  0  0  0  0  0  0  0
  -31.3401   65.0817   59.6517 H   0  0  0  0  0  0  0  0  0  0  0  0
  -37.1533   61.4031   65.5441 C   0  0  0  0  0  0  0  0  0  0  0  0
  -38.1470   60.3794   66.0825 C   0  0  0  0  0  0  0  0  0  0  0  0
  -39.4768   60.3965   65.3519 C   0  0  0  0  0  0  0  0  0  0  0  0
  -40.6753   60.0568   66.2107 C   0  0  0  0  0  0  0  0  0  0  0  0
  -41.3505   58.8669   65.7175 N   0  0  0  0  0  0  0  0  0  0  0  0
  -42.7843   58.7512   67.4566 O   0  0  0  0  0  0  0  0  0  0  0  0
  -42.3625   58.2968   66.3805 C   0  0  0  0  0  0  0  0  0  0  0  0
  -41.0529   58.4682   64.8681 H   0  0  0  0  0  0  0  0  0  0  0  0
  -43.9721   56.9698   65.0308 C   0  0  0  0  0  0  0  0  0  0  0  0
  -42.8711   57.0504   65.7658 C   0  0  0  0  0  0  0  0  0  0  0  0
  -44.9053   58.0774   64.6530 C   0  0  0  0  0  0  0  0  0  0  0  0
  -46.0204   58.2497   65.6771 C   0  0  0  0  0  0  0  0  0  0  0  0
  -47.3985   57.8899   65.1496 C   0  0  0  0  0  0  0  0  0  0  0  0
  -48.4660   57.8283   66.2293 C   0  0  0  0  0  0  0  0  0  0  0  0
  -49.8554   58.2155   65.7587 C   0  0  0  0  0  0  0  0  0  0  0  0
  -50.2270   59.6522   66.0866 C   0  0  0  0  0  0  0  0  0  0  0  0
  -50.3629   60.5370   64.8629 C   0  0  0  0  0  0  0  0  0  0  0  0
  -51.5803   60.2068   64.0227 C   0  0  0  0  0  0  0  0  0  0  0  0
  -51.2669   59.5031   62.7163 C   0  0  0  0  0  0  0  0  0  0  0  0
  -49.8245   59.6827   62.2859 C   0  0  0  0  0  0  0  0  0  0  0  0
  -49.1222   58.3694   61.9815 C   0  0  0  0  0  0  0  0  0  0  0  0
  -49.9228   57.4263   61.1003 C   0  0  0  0  0  0  0  0  0  0  0  0
  -49.4564   57.3769   59.6536 C   0  0  0  0  0  0  0  0  0  0  0  0
  -48.2375   58.2434   59.3679 C   0  0  0  0  0  0  0  0  0  0  0  0
  -47.0184   57.4473   58.9308 C   0  0  0  0  0  0  0  0  0  0  0  0
  -47.2922   57.0324   56.4551 C   0  0  0  0  0  0  0  0  0  0  0  0
  -46.5307   57.7642   57.5288 C   0  0  0  0  0  0  0  0  0  0  0  0
 43 45  1  0  0  0
 43 42  1  0  0  0
 43 46  1  0  0  0
 64 65  1  0  0  0
 44 45  2  0  0  0
 65 63  1  0  0  0
  2  1  1  0  0  0
  2  4  1  0  0  0
  2  5  1  0  0  0
  3  4  2  0  0  0
 63 62  1  0  0  0
  6  8  1  0  0  0
  6 11  2  0  0  0
  7 10  1  0  0  0
  7 11  1  0  0  0
 62 61  1  0  0  0
 26 28  1  0  0  0
 26 32  1  0  0  0
 26 29  1  0  0  0
 12 18  1  0  0  0
 12 19  1  0  0  0
 61 60  1  0  0  0
 30 36  1  0  0  0
 30 37  1  0  0  0
 30 38  1  0  0  0
 20 21  2  0  0  0
 60 59  1  0  0  0
 22 21  1  0  0  0
 22 23  1  0  0  0
 59 58  1  0  0  0
 27 28  2  0  0  0
 58 57  1  0  0  0
 31 37  2  0  0  0
 57 56  1  0  0  0
 56 55  1  0  0  0
 55 54  1  0  0  0
 54 53  1  0  0  0
 53 52  1  0  0  0
 52 51  1  0  0  0
 51 50  1  0  0  0
 50 49  1  0  0  0
 49 47  1  0  0  0
 47 48  2  0  0  0
 48 45  1  0  0  0
 42 41  1  0  0  0
 41 40  1  0  0  0
 40 39  1  0  0  0
 39  1  1  0  0  0
  1 21  1  0  0  0
  8  4  1  0  0  0
  8  9  1  0  0  0
  8 10  1  0  0  0
 11 13  1  0  0  0
 13 14  2  0  0  0
 13 18  1  0  0  0
 14 15  1  0  0  0
 15 16  2  0  0  0
 16 17  1  0  0  0
 17 18  2  0  0  0
 23 24  1  0  0  0
 23 25  1  0  0  0
 25 28  1  0  0  0
 32 33  1  0  0  0
 32 37  1  0  0  0
 33 34  1  0  0  0
 34 35  1  0  0  0
 35 36  1  0  0  0
M  END
> <minimizedAffinity>
-10.84125

> <CNNscore>
0.2463797927

> <CNNaffinity>
7.1236062050

> <CNN_VS>
1.7551126480

> <CNNaffinity_variance>
1.7317526340

$$$$
/media/chris/experiments/cd1a-new-docking/inputs/ligands/7ryo_ligand.pdb


 65 67  0  0  0  0  0  0  0  0999 V2000
  -32.8731   58.3657   62.7660 C   0  0  0  0  0  0  0  0  0  0  0  0
  -32.5684   56.9767   62.4654 N   0  0  0  0  0  0  0  0  0  0  0  0
  -31.0132   55.4320   61.9664 O   0  0  0  0  0  0  0  0  0  0  0  0
  -31.3127   56.5859   62.2348 C   0  0  0  0  0  0  0  0  0  0  0  0
  -33.2972   56.3157   62.4314 H   0  0  0  0  0  0  0  0  0  0  0  0
  -30.4611   58.7327   61.3757 N   0  0  0  0  0  0  0  0  0  0  0  0
  -30.1634   59.7733   63.3535 O   0  0  0  0  0  0  0  0  0  0  0  0
  -30.2069   57.6491   62.3394 C   0  0  0  0  0  0  0  0  0  0  0  0
  -28.8652   56.9994   62.0142 C   0  0  0  0  0  0  0  0  0  0  0  0
  -30.1766   58.3646   63.6979 C   0  0  0  0  0  0  0  0  0  0  0  0
  -30.4186   59.8246   62.0202 C   0  0  0  0  0  0  0  0  0  0  0  0
  -32.4397   61.6311   62.9875 O   0  0  0  0  0  0  0  0  0  0  0  0
  -30.6141   61.1651   61.4627 C   0  0  0  0  0  0  0  0  0  0  0  0
  -29.7157   61.6705   60.5220 C   0  0  0  0  0  0  0  0  0  0  0  0
  -29.7447   63.0094   60.1721 C   0  0  0  0  0  0  0  0  0  0  0  0
  -30.6617   63.8616   60.7481 C   0  0  0  0  0  0  0  0  0  0  0  0
  -31.5600   63.3867   61.6864 C   0  0  0  0  0  0  0  0  0  0  0  0
  -31.5450   62.0446   62.0527 C   0  0  0  0  0  0  0  0  0  0  0  0
  -32.4556   60.7335   63.2562 H   0  0  0  0  0  0  0  0  0  0  0  0
  -33.0376   57.7747   65.1035 O   0  0  0  0  0  0  0  0  0  0  0  0
  -33.3090   58.5331   64.2139 C   0  0  0  0  0  0  0  0  0  0  0  0
  -34.0596   59.6394   64.3556 O   0  0  0  0  0  0  0  0  0  0  0  0
  -35.2753   59.5505   65.1705 C   0  0  0  0  0  0  0  0  0  0  0  0
  -35.9924   58.2759   64.8031 C   0  0  0  0  0  0  0  0  0  0  0  0
  -36.0850   60.7866   64.8304 C   0  0  0  0  0  0  0  0  0  0  0  0
  -34.4185   62.4500   65.3764 N   0  0  0  0  0  0  0  0  0  0  0  0
  -35.2655   62.4277   63.2921 O   0  0  0  0  0  0  0  0  0  0  0  0
  -35.2240   61.9632   64.4280 C   0  0  0  0  0  0  0  0  0  0  0  0
  -34.4278   62.0369   66.2699 H   0  0  0  0  0  0  0  0  0  0  0  0
  -32.0194   64.9250   66.4773 N   0  0  0  0  0  0  0  0  0  0  0  0
  -33.7413   63.9037   67.4886 O   0  0  0  0  0  0  0  0  0  0  0  0
  -33.5293   63.5710   65.1266 C   0  0  0  0  0  0  0  0  0  0  0  0
  -34.2548   64.6473   64.3113 C   0  0  0  0  0  0  0  0  0  0  0  0
  -33.3140   65.6287   63.6208 C   0  0  0  0  0  0  0  0  0  0  0  0
  -32.4351   66.4484   64.5446 C   0  0  0  0  0  0  0  0  0  0  0  0
  -31.4390   65.6308   65.3400 C   0  0  0  0  0  0  0  0  0  0  0  0
  -33.1052   64.1487   66.4677 C   0  0  0  0  0  0  0  0  0  0  0  0
  -31.5623   65.0326   67.3426 H   0  0  0  0  0  0  0  0  0  0  0  0
  -33.9291   58.9221   61.8097 C   0  0  0  0  0  0  0  0  0  0  0  0
  -34.7614   57.8217   61.1604 C   0  0  0  0  0  0  0  0  0  0  0  0
  -36.1561   57.7033   61.7465 C   0  0  0  0  0  0  0  0  0  0  0  0
  -37.1655   58.6779   61.1804 C   0  0  0  0  0  0  0  0  0  0  0  0
  -38.4306   58.0167   60.9024 N   0  0  0  0  0  0  0  0  0  0  0  0
  -39.6423   59.4177   62.1918 O   0  0  0  0  0  0  0  0  0  0  0  0
  -39.5846   58.4372   61.4317 C   0  0  0  0  0  0  0  0  0  0  0  0
  -38.4376   57.2340   60.3053 H   0  0  0  0  0  0  0  0  0  0  0  0
  -41.6007   57.0968   61.9904 C   0  0  0  0  0  0  0  0  0  0  0  0
  -40.7536   57.5930   61.0987 C   0  0  0  0  0  0  0  0  0  0  0  0
  -41.5822   57.2835   63.4754 C   0  0  0  0  0  0  0  0  0  0  0  0
  -42.8365   57.9931   63.9703 C   0  0  0  0  0  0  0  0  0  0  0  0
  -43.6570   57.1750   64.9524 C   0  0  0  0  0  0  0  0  0  0  0  0
  -44.8458   57.9274   65.5266 C   0  0  0  0  0  0  0  0  0  0  0  0
  -46.0903   57.8867   64.6599 C   0  0  0  0  0  0  0  0  0  0  0  0
  -46.9967   59.0925   64.8454 C   0  0  0  0  0  0  0  0  0  0  0  0
  -48.1237   58.8568   65.8318 C   0  0  0  0  0  0  0  0  0  0  0  0
  -49.4417   58.5257   65.1609 C   0  0  0  0  0  0  0  0  0  0  0  0
  -50.0562   59.6759   64.3867 C   0  0  0  0  0  0  0  0  0  0  0  0
  -50.4998   59.2737   62.9941 C   0  0  0  0  0  0  0  0  0  0  0  0
  -49.8714   57.9745   62.5170 C   0  0  0  0  0  0  0  0  0  0  0  0
  -50.0630   57.6989   61.0357 C   0  0  0  0  0  0  0  0  0  0  0  0
  -49.0637   58.4074   60.1345 C   0  0  0  0  0  0  0  0  0  0  0  0
  -48.2952   57.4730   59.2100 C   0  0  0  0  0  0  0  0  0  0  0  0
  -47.0786   58.1216   58.5697 C   0  0  0  0  0  0  0  0  0  0  0  0
  -47.8226   56.7115   56.6115 C   0  0  0  0  0  0  0  0  0  0  0  0
  -46.8859   57.7838   57.1024 C   0  0  0  0  0  0  0  0  0  0  0  0
 43 45  1  0  0  0
 43 42  1  0  0  0
 43 46  1  0  0  0
 64 65  1  0  0  0
 44 45  2  0  0  0
 65 63  1  0  0  0
  2  1  1  0  0  0
  2  4  1  0  0  0
  2  5  1  0  0  0
  3  4  2  0  0  0
 63 62  1  0  0  0
  6  8  1  0  0  0
  6 11  2  0  0  0
  7 10  1  0  0  0
  7 11  1  0  0  0
 62 61  1  0  0  0
 26 28  1  0  0  0
 26 32  1  0  0  0
 26 29  1  0  0  0
 12 18  1  0  0  0
 12 19  1  0  0  0
 61 60  1  0  0  0
 30 36  1  0  0  0
 30 37  1  0  0  0
 30 38  1  0  0  0
 20 21  2  0  0  0
 60 59  1  0  0  0
 22 21  1  0  0  0
 22 23  1  0  0  0
 59 58  1  0  0  0
 27 28  2  0  0  0
 58 57  1  0  0  0
 31 37  2  0  0  0
 57 56  1  0  0  0
 56 55  1  0  0  0
 55 54  1  0  0  0
 54 53  1  0  0  0
 53 52  1  0  0  0
 52 51  1  0  0  0
 51 50  1  0  0  0
 50 49  1  0  0  0
 49 47  1  0  0  0
 47 48  2  0  0  0
 48 45  1  0  0  0
 42 41  1  0  0  0
 41 40  1  0  0  0
 40 39  1  0  0  0
 39  1  1  0  0  0
  1 21  1  0  0  0
  8  4  1  0  0  0
  8  9  1  0  0  0
  8 10  1  0  0  0
 11 13  1  0  0  0
 13 14  2  0  0  0
 13 18  1  0  0  0
 14 15  1  0  0  0
 15 16  2  0  0  0
 16 17  1  0  0  0
 17 18  2  0  0  0
 23 24  1  0  0  0
 23 25  1  0  0  0
 25 28  1  0  0  0
 32 33  1  0  0  0
 32 37  1  0  0  0
 33 34  1  0  0  0
 34 35  1  0  0  0
 35 36  1  0  0  0
M  END
> <minimizedAffinity>
-9.29662

> <CNNscore>
0.2404831350

> <CNNaffinity>
7.1992950439

> <CNN_VS>
1.7313090563

> <CNNaffinity_variance>
0.4916083813

$$$$
/media/chris/experiments/cd1a-new-docking/inputs/ligands/7ryo_ligand.pdb


 65 67  0  0  0  0  0  0  0  0999 V2000
  -37.9318   58.4220   62.4586 C   0  0  0  0  0  0  0  0  0  0  0  0
  -39.0163   59.3883   62.4084 N   0  0  0  0  0  0  0  0  0  0  0  0
  -40.2644   60.9100   63.4949 O   0  0  0  0  0  0  0  0  0  0  0  0
  -39.3522   60.0969   63.4890 C   0  0  0  0  0  0  0  0  0  0  0  0
  -39.5095   59.5220   61.5669 H   0  0  0  0  0  0  0  0  0  0  0  0
  -37.1581   60.3904   64.5714 N   0  0  0  0  0  0  0  0  0  0  0  0
  -37.8698   61.3538   66.4814 O   0  0  0  0  0  0  0  0  0  0  0  0
  -38.5249   59.8796   64.7668 C   0  0  0  0  0  0  0  0  0  0  0  0
  -38.4591   58.3846   65.0639 C   0  0  0  0  0  0  0  0  0  0  0  0
  -39.0462   60.6755   65.9723 C   0  0  0  0  0  0  0  0  0  0  0  0
  -36.9078   61.1704   65.5400 C   0  0  0  0  0  0  0  0  0  0  0  0
  -35.3521   62.2649   63.3799 O   0  0  0  0  0  0  0  0  0  0  0  0
  -35.6593   61.9052   65.7572 C   0  0  0  0  0  0  0  0  0  0  0  0
  -35.2513   62.2260   67.0526 C   0  0  0  0  0  0  0  0  0  0  0  0
  -34.2157   63.1202   67.2615 C   0  0  0  0  0  0  0  0  0  0  0  0
  -33.5731   63.7059   66.1924 C   0  0  0  0  0  0  0  0  0  0  0  0
  -33.9611   63.4085   64.8986 C   0  0  0  0  0  0  0  0  0  0  0  0
  -35.0013   62.5137   64.6685 C   0  0  0  0  0  0  0  0  0  0  0  0
  -36.0487   61.6673   63.1909 H   0  0  0  0  0  0  0  0  0  0  0  0
  -36.7816   58.6666   60.3472 O   0  0  0  0  0  0  0  0  0  0  0  0
  -36.7911   58.8261   61.5366 C   0  0  0  0  0  0  0  0  0  0  0  0
  -35.7837   59.3687   62.2425 O   0  0  0  0  0  0  0  0  0  0  0  0
  -34.4797   58.6990   62.2134 C   0  0  0  0  0  0  0  0  0  0  0  0
  -34.7131   57.2151   62.3437 C   0  0  0  0  0  0  0  0  0  0  0  0
  -33.7042   59.2663   63.3864 C   0  0  0  0  0  0  0  0  0  0  0  0
  -32.5812   61.2293   62.5333 N   0  0  0  0  0  0  0  0  0  0  0  0
  -31.3410   59.4204   63.0354 O   0  0  0  0  0  0  0  0  0  0  0  0
  -32.4349   59.9740   62.9673 C   0  0  0  0  0  0  0  0  0  0  0  0
  -33.4834   61.6217   62.5002 H   0  0  0  0  0  0  0  0  0  0  0  0
  -31.0473   64.4023   61.7131 N   0  0  0  0  0  0  0  0  0  0  0  0
  -33.1433   63.6229   61.5393 O   0  0  0  0  0  0  0  0  0  0  0  0
  -31.4470   62.0314   62.1091 C   0  0  0  0  0  0  0  0  0  0  0  0
  -30.7891   61.4027   60.8757 C   0  0  0  0  0  0  0  0  0  0  0  0
  -29.3646   61.8876   60.6289 C   0  0  0  0  0  0  0  0  0  0  0  0
  -29.2191   63.3726   60.3619 C   0  0  0  0  0  0  0  0  0  0  0  0
  -29.6075   64.2539   61.5306 C   0  0  0  0  0  0  0  0  0  0  0  0
  -31.9528   63.4227   61.7618 C   0  0  0  0  0  0  0  0  0  0  0  0
  -31.3867   65.3213   61.8106 H   0  0  0  0  0  0  0  0  0  0  0  0
  -38.4275   57.0131   62.1292 C   0  0  0  0  0  0  0  0  0  0  0  0
  -39.8764   57.0041   61.6540 C   0  0  0  0  0  0  0  0  0  0  0  0
  -40.8111   56.2753   62.6014 C   0  0  0  0  0  0  0  0  0  0  0  0
  -42.2215   56.8213   62.6438 C   0  0  0  0  0  0  0  0  0  0  0  0
  -42.4559   57.5671   63.8701 N   0  0  0  0  0  0  0  0  0  0  0  0
  -42.9085   55.7312   65.1025 O   0  0  0  0  0  0  0  0  0  0  0  0
  -42.7845   56.9641   65.0178 C   0  0  0  0  0  0  0  0  0  0  0  0
  -42.3700   58.5477   63.8549 H   0  0  0  0  0  0  0  0  0  0  0  0
  -44.2711   58.1628   66.6073 C   0  0  0  0  0  0  0  0  0  0  0  0
  -43.0609   57.8907   66.1381 C   0  0  0  0  0  0  0  0  0  0  0  0
  -45.5806   57.6048   66.1444 C   0  0  0  0  0  0  0  0  0  0  0  0
  -46.0454   58.2572   64.8483 C   0  0  0  0  0  0  0  0  0  0  0  0
  -47.5393   58.5271   64.7987 C   0  0  0  0  0  0  0  0  0  0  0  0
  -48.3660   57.5173   65.5773 C   0  0  0  0  0  0  0  0  0  0  0  0
  -49.7544   58.0008   65.9517 C   0  0  0  0  0  0  0  0  0  0  0  0
  -49.8442   59.5080   66.1252 C   0  0  0  0  0  0  0  0  0  0  0  0
  -50.9367   60.1495   65.2925 C   0  0  0  0  0  0  0  0  0  0  0  0
  -50.5504   60.3241   63.8374 C   0  0  0  0  0  0  0  0  0  0  0  0
  -51.1655   59.3030   62.8998 C   0  0  0  0  0  0  0  0  0  0  0  0
  -50.1437   58.6591   61.9837 C   0  0  0  0  0  0  0  0  0  0  0  0
  -50.6772   57.4346   61.2580 C   0  0  0  0  0  0  0  0  0  0  0  0
  -49.6882   56.8044   60.2929 C   0  0  0  0  0  0  0  0  0  0  0  0
  -49.1035   57.7734   59.2770 C   0  0  0  0  0  0  0  0  0  0  0  0
  -47.5841   57.7311   59.1868 C   0  0  0  0  0  0  0  0  0  0  0  0
  -47.0508   58.0680   57.8037 C   0  0  0  0  0  0  0  0  0  0  0  0
  -47.2426   55.7144   56.9092 C   0  0  0  0  0  0  0  0  0  0  0  0
  -47.5676   57.1694   56.6950 C   0  0  0  0  0  0  0  0  0  0  0  0
 43 45  1  0  0  0
 43 42  1  0  0  0
 43 46  1  0  0  0
 64 65  1  0  0  0
 44 45  2  0  0  0
 65 63  1  0  0  0
  2  1  1  0  0  0
  2  4  1  0  0  0
  2  5  1  0  0  0
  3  4  2  0  0  0
 63 62  1  0  0  0
  6  8  1  0  0  0
  6 11  2  0  0  0
  7 10  1  0  0  0
  7 11  1  0  0  0
 62 61  1  0  0  0
 26 28  1  0  0  0
 26 32  1  0  0  0
 26 29  1  0  0  0
 12 18  1  0  0  0
 12 19  1  0  0  0
 61 60  1  0  0  0
 30 36  1  0  0  0
 30 37  1  0  0  0
 30 38  1  0  0  0
 20 21  2  0  0  0
 60 59  1  0  0  0
 22 21  1  0  0  0
 22 23  1  0  0  0
 59 58  1  0  0  0
 27 28  2  0  0  0
 58 57  1  0  0  0
 31 37  2  0  0  0
 57 56  1  0  0  0
 56 55  1  0  0  0
 55 54  1  0  0  0
 54 53  1  0  0  0
 53 52  1  0  0  0
 52 51  1  0  0  0
 51 50  1  0  0  0
 50 49  1  0  0  0
 49 47  1  0  0  0
 47 48  2  0  0  0
 48 45  1  0  0  0
 42 41  1  0  0  0
 41 40  1  0  0  0
 40 39  1  0  0  0
 39  1  1  0  0  0
  1 21  1  0  0  0
  8  4  1  0  0  0
  8  9  1  0  0  0
  8 10  1  0  0  0
 11 13  1  0  0  0
 13 14  2  0  0  0
 13 18  1  0  0  0
 14 15  1  0  0  0
 15 16  2  0  0  0
 16 17  1  0  0  0
 17 18  2  0  0  0
 23 24  1  0  0  0
 23 25  1  0  0  0
 25 28  1  0  0  0
 32 33  1  0  0  0
 32 37  1  0  0  0
 33 34  1  0  0  0
 34 35  1  0  0  0
 35 36  1  0  0  0
M  END
> <minimizedAffinity>
-11.12241

> <CNNscore>
0.2273856401

> <CNNaffinity>
7.1040472984

> <CNN_VS>
1.6153583527

> <CNNaffinity_variance>
1.6311527491

$$$$
/media/chris/experiments/cd1a-new-docking/inputs/ligands/7ryo_ligand.pdb


 65 67  0  0  0  0  0  0  0  0999 V2000
  -36.9254   58.8851   63.3350 C   0  0  0  0  0  0  0  0  0  0  0  0
  -36.2603   57.7223   62.7711 N   0  0  0  0  0  0  0  0  0  0  0  0
  -34.3307   56.6485   62.3500 O   0  0  0  0  0  0  0  0  0  0  0  0
  -34.9315   57.6022   62.8220 C   0  0  0  0  0  0  0  0  0  0  0  0
  -36.7964   57.0142   62.3462 H   0  0  0  0  0  0  0  0  0  0  0  0
  -32.8100   58.8515   62.9236 N   0  0  0  0  0  0  0  0  0  0  0  0
  -33.6662   60.9372   62.9153 O   0  0  0  0  0  0  0  0  0  0  0  0
  -34.1439   58.7159   63.5317 C   0  0  0  0  0  0  0  0  0  0  0  0
  -33.9839   58.3463   65.0033 C   0  0  0  0  0  0  0  0  0  0  0  0
  -34.7694   60.1080   63.3608 C   0  0  0  0  0  0  0  0  0  0  0  0
  -32.6558   60.0757   62.6285 C   0  0  0  0  0  0  0  0  0  0  0  0
  -30.6014   58.4986   61.3729 O   0  0  0  0  0  0  0  0  0  0  0  0
  -31.4727   60.6711   62.0026 C   0  0  0  0  0  0  0  0  0  0  0  0
  -31.3734   62.0565   61.8685 C   0  0  0  0  0  0  0  0  0  0  0  0
  -30.3903   62.6161   61.0708 C   0  0  0  0  0  0  0  0  0  0  0  0
  -29.4959   61.8121   60.3981 C   0  0  0  0  0  0  0  0  0  0  0  0
  -29.5756   60.4360   60.5105 C   0  0  0  0  0  0  0  0  0  0  0  0
  -30.5581   59.8547   61.3059 C   0  0  0  0  0  0  0  0  0  0  0  0
  -31.2510   58.0760   61.8997 H   0  0  0  0  0  0  0  0  0  0  0  0
  -38.6830   57.8109   64.5990 O   0  0  0  0  0  0  0  0  0  0  0  0
  -37.7131   58.5174   64.5836 C   0  0  0  0  0  0  0  0  0  0  0  0
  -37.1837   59.1115   65.6672 O   0  0  0  0  0  0  0  0  0  0  0  0
  -37.8502   60.3056   66.1960 C   0  0  0  0  0  0  0  0  0  0  0  0
  -39.3188   59.9962   66.3405 C   0  0  0  0  0  0  0  0  0  0  0  0
  -37.5885   61.4014   65.1810 C   0  0  0  0  0  0  0  0  0  0  0  0
  -35.7817   62.9104   64.6330 N   0  0  0  0  0  0  0  0  0  0  0  0
  -36.3088   62.6146   66.8002 O   0  0  0  0  0  0  0  0  0  0  0  0
  -36.5016   62.3595   65.6147 C   0  0  0  0  0  0  0  0  0  0  0  0
  -35.9813   62.6682   63.6999 H   0  0  0  0  0  0  0  0  0  0  0  0
  -33.5302   65.5546   63.6172 N   0  0  0  0  0  0  0  0  0  0  0  0
  -34.4789   63.8438   62.5200 O   0  0  0  0  0  0  0  0  0  0  0  0
  -34.7131   63.8563   64.9032 C   0  0  0  0  0  0  0  0  0  0  0  0
  -33.5526   63.1511   65.6142 C   0  0  0  0  0  0  0  0  0  0  0  0
  -32.6058   64.1059   66.3333 C   0  0  0  0  0  0  0  0  0  0  0  0
  -31.8923   65.1068   65.4463 C   0  0  0  0  0  0  0  0  0  0  0  0
  -32.8124   66.0982   64.7651 C   0  0  0  0  0  0  0  0  0  0  0  0
  -34.2296   64.4184   63.5757 C   0  0  0  0  0  0  0  0  0  0  0  0
  -33.4949   66.0810   62.7859 H   0  0  0  0  0  0  0  0  0  0  0  0
  -37.8251   59.5655   62.3023 C   0  0  0  0  0  0  0  0  0  0  0  0
  -37.9591   58.7488   61.0215 C   0  0  0  0  0  0  0  0  0  0  0  0
  -39.3491   58.1734   60.8229 C   0  0  0  0  0  0  0  0  0  0  0  0
  -40.4077   58.7445   61.7408 C   0  0  0  0  0  0  0  0  0  0  0  0
  -41.2979   57.7009   62.2239 N   0  0  0  0  0  0  0  0  0  0  0  0
  -41.8803   58.8249   64.0924 O   0  0  0  0  0  0  0  0  0  0  0  0
  -41.9740   57.8176   63.3720 C   0  0  0  0  0  0  0  0  0  0  0  0
  -41.4064   56.8820   61.6885 H   0  0  0  0  0  0  0  0  0  0  0  0
  -43.3451   56.4377   64.9178 C   0  0  0  0  0  0  0  0  0  0  0  0
  -42.7672   56.6232   63.7386 C   0  0  0  0  0  0  0  0  0  0  0  0
  -43.3449   57.3627   66.0945 C   0  0  0  0  0  0  0  0  0  0  0  0
  -44.5995   58.2265   66.1333 C   0  0  0  0  0  0  0  0  0  0  0  0
  -45.7726   57.5728   66.8429 C   0  0  0  0  0  0  0  0  0  0  0  0
  -47.0071   57.4264   65.9691 C   0  0  0  0  0  0  0  0  0  0  0  0
  -47.0530   58.3755   64.7864 C   0  0  0  0  0  0  0  0  0  0  0  0
  -47.9163   59.6027   65.0285 C   0  0  0  0  0  0  0  0  0  0  0  0
  -49.0466   59.3639   66.0103 C   0  0  0  0  0  0  0  0  0  0  0  0
  -50.3218   58.8868   65.3445 C   0  0  0  0  0  0  0  0  0  0  0  0
  -51.1307   59.9853   64.6820 C   0  0  0  0  0  0  0  0  0  0  0  0
  -51.1378   59.8768   63.1701 C   0  0  0  0  0  0  0  0  0  0  0  0
  -50.9768   58.4500   62.6710 C   0  0  0  0  0  0  0  0  0  0  0  0
  -49.8880   58.2763   61.6264 C   0  0  0  0  0  0  0  0  0  0  0  0
  -50.3926   57.8059   60.2711 C   0  0  0  0  0  0  0  0  0  0  0  0
  -49.2924   57.6077   59.2374 C   0  0  0  0  0  0  0  0  0  0  0  0
  -47.8927   57.6429   59.8296 C   0  0  0  0  0  0  0  0  0  0  0  0
  -47.2089   57.7740   57.4023 C   0  0  0  0  0  0  0  0  0  0  0  0
  -46.7766   57.4772   58.8143 C   0  0  0  0  0  0  0  0  0  0  0  0
 43 45  1  0  0  0
 43 42  1  0  0  0
 43 46  1  0  0  0
 64 65  1  0  0  0
 44 45  2  0  0  0
 65 63  1  0  0  0
  2  1  1  0  0  0
  2  4  1  0  0  0
  2  5  1  0  0  0
  3  4  2  0  0  0
 63 62  1  0  0  0
  6  8  1  0  0  0
  6 11  2  0  0  0
  7 10  1  0  0  0
  7 11  1  0  0  0
 62 61  1  0  0  0
 26 28  1  0  0  0
 26 32  1  0  0  0
 26 29  1  0  0  0
 12 18  1  0  0  0
 12 19  1  0  0  0
 61 60  1  0  0  0
 30 36  1  0  0  0
 30 37  1  0  0  0
 30 38  1  0  0  0
 20 21  2  0  0  0
 60 59  1  0  0  0
 22 21  1  0  0  0
 22 23  1  0  0  0
 59 58  1  0  0  0
 27 28  2  0  0  0
 58 57  1  0  0  0
 31 37  2  0  0  0
 57 56  1  0  0  0
 56 55  1  0  0  0
 55 54  1  0  0  0
 54 53  1  0  0  0
 53 52  1  0  0  0
 52 51  1  0  0  0
 51 50  1  0  0  0
 50 49  1  0  0  0
 49 47  1  0  0  0
 47 48  2  0  0  0
 48 45  1  0  0  0
 42 41  1  0  0  0
 41 40  1  0  0  0
 40 39  1  0  0  0
 39  1  1  0  0  0
  1 21  1  0  0  0
  8  4  1  0  0  0
  8  9  1  0  0  0
  8 10  1  0  0  0
 11 13  1  0  0  0
 13 14  2  0  0  0
 13 18  1  0  0  0
 14 15  1  0  0  0
 15 16  2  0  0  0
 16 17  1  0  0  0
 17 18  2  0  0  0
 23 24  1  0  0  0
 23 25  1  0  0  0
 25 28  1  0  0  0
 32 33  1  0  0  0
 32 37  1  0  0  0
 33 34  1  0  0  0
 34 35  1  0  0  0
 35 36  1  0  0  0
M  END
> <minimizedAffinity>
-10.28651

> <CNNscore>
0.2273787111

> <CNNaffinity>
7.3302130699

> <CNN_VS>
1.6667344570

> <CNNaffinity_variance>
0.9623315930

$$$$
