/media/chris/experiments/cd1a-new-docking/inputs/ligands/7ryo_ligand.pdb


 65 67  0  0  0  0  0  0  0  0999 V2000
  -39.4441   58.7791   64.6806 C   0  0  0  0  0  0  0  0  0  0  0  0
  -38.0575   58.5834   65.0696 N   0  0  0  0  0  0  0  0  0  0  0  0
  -37.6187   57.1999   63.3528 O   0  0  0  0  0  0  0  0  0  0  0  0
  -37.2513   57.7942   64.3554 C   0  0  0  0  0  0  0  0  0  0  0  0
  -37.7082   59.0384   65.8697 H   0  0  0  0  0  0  0  0  0  0  0  0
  -34.8982   57.4716   63.6989 N   0  0  0  0  0  0  0  0  0  0  0  0
  -33.9906   59.1195   64.9414 O   0  0  0  0  0  0  0  0  0  0  0  0
  -35.8051   57.6224   64.8488 C   0  0  0  0  0  0  0  0  0  0  0  0
  -35.7243   56.3679   65.7134 C   0  0  0  0  0  0  0  0  0  0  0  0
  -35.2626   58.8558   65.5858 C   0  0  0  0  0  0  0  0  0  0  0  0
  -33.9652   58.3189   63.8442 C   0  0  0  0  0  0  0  0  0  0  0  0
  -33.1953   56.3817   61.8596 O   0  0  0  0  0  0  0  0  0  0  0  0
  -32.8350   58.5238   62.9351 C   0  0  0  0  0  0  0  0  0  0  0  0
  -32.1712   59.7510   62.9080 C   0  0  0  0  0  0  0  0  0  0  0  0
  -31.2715   60.0406   61.8967 C   0  0  0  0  0  0  0  0  0  0  0  0
  -31.0191   59.1203   60.9027 C   0  0  0  0  0  0  0  0  0  0  0  0
  -31.6671   57.8985   60.9040 C   0  0  0  0  0  0  0  0  0  0  0  0
  -32.5764   57.5899   61.9109 C   0  0  0  0  0  0  0  0  0  0  0  0
  -33.8131   56.1433   62.5226 H   0  0  0  0  0  0  0  0  0  0  0  0
  -40.1023   61.0463   64.1638 O   0  0  0  0  0  0  0  0  0  0  0  0
  -39.6020   60.0152   63.8078 C   0  0  0  0  0  0  0  0  0  0  0  0
  -39.1215   59.7856   62.5735 O   0  0  0  0  0  0  0  0  0  0  0  0
  -38.1359   60.7249   62.0292 C   0  0  0  0  0  0  0  0  0  0  0  0
  -38.1134   60.5627   60.5303 C   0  0  0  0  0  0  0  0  0  0  0  0
  -36.8150   60.3464   62.6704 C   0  0  0  0  0  0  0  0  0  0  0  0
  -35.1714   62.0440   63.1793 N   0  0  0  0  0  0  0  0  0  0  0  0
  -36.8398   61.6955   64.6478 O   0  0  0  0  0  0  0  0  0  0  0  0
  -36.2780   61.4189   63.5918 C   0  0  0  0  0  0  0  0  0  0  0  0
  -34.7640   61.7797   62.3229 H   0  0  0  0  0  0  0  0  0  0  0  0
  -33.0166   64.9345   63.4879 N   0  0  0  0  0  0  0  0  0  0  0  0
  -32.9872   63.1373   62.1462 O   0  0  0  0  0  0  0  0  0  0  0  0
  -34.5523   63.1021   63.9583 C   0  0  0  0  0  0  0  0  0  0  0  0
  -33.9521   62.5261   65.2457 C   0  0  0  0  0  0  0  0  0  0  0  0
  -33.6915   63.5753   66.3212 C   0  0  0  0  0  0  0  0  0  0  0  0
  -32.6988   64.6583   65.9478 C   0  0  0  0  0  0  0  0  0  0  0  0
  -33.1490   65.5454   64.8061 C   0  0  0  0  0  0  0  0  0  0  0  0
  -33.4496   63.7270   63.1185 C   0  0  0  0  0  0  0  0  0  0  0  0
  -32.5600   65.4688   62.7984 H   0  0  0  0  0  0  0  0  0  0  0  0
  -40.3590   58.8537   65.9039 C   0  0  0  0  0  0  0  0  0  0  0  0
  -41.5812   57.9517   65.7704 C   0  0  0  0  0  0  0  0  0  0  0  0
  -42.5447   58.4076   64.6903 C   0  0  0  0  0  0  0  0  0  0  0  0
  -42.5998   57.5119   63.4721 C   0  0  0  0  0  0  0  0  0  0  0  0
  -41.7920   58.0521   62.3901 N   0  0  0  0  0  0  0  0  0  0  0  0
  -41.6000   56.0758   61.3173 O   0  0  0  0  0  0  0  0  0  0  0  0
  -41.3479   57.2901   61.3848 C   0  0  0  0  0  0  0  0  0  0  0  0
  -41.5648   59.0100   62.3980 H   0  0  0  0  0  0  0  0  0  0  0  0
  -40.8447   58.3565   59.1978 C   0  0  0  0  0  0  0  0  0  0  0  0
  -40.4764   57.9974   60.4202 C   0  0  0  0  0  0  0  0  0  0  0  0
  -42.1767   58.1552   58.5453 C   0  0  0  0  0  0  0  0  0  0  0  0
  -42.3238   59.0051   57.2891 C   0  0  0  0  0  0  0  0  0  0  0  0
  -43.7145   58.9637   56.6799 C   0  0  0  0  0  0  0  0  0  0  0  0
  -44.6672   58.0257   57.4023 C   0  0  0  0  0  0  0  0  0  0  0  0
  -46.1154   58.4776   57.3958 C   0  0  0  0  0  0  0  0  0  0  0  0
  -47.1047   57.3364   57.2272 C   0  0  0  0  0  0  0  0  0  0  0  0
  -47.4912   56.6719   58.5340 C   0  0  0  0  0  0  0  0  0  0  0  0
  -47.9357   57.6591   59.5945 C   0  0  0  0  0  0  0  0  0  0  0  0
  -49.3823   58.0984   59.4735 C   0  0  0  0  0  0  0  0  0  0  0  0
  -50.0970   58.1342   60.8100 C   0  0  0  0  0  0  0  0  0  0  0  0
  -49.8300   59.4061   61.5983 C   0  0  0  0  0  0  0  0  0  0  0  0
  -50.7922   59.6365   62.7507 C   0  0  0  0  0  0  0  0  0  0  0  0
  -50.6340   58.6549   63.9016 C   0  0  0  0  0  0  0  0  0  0  0  0
  -50.5066   59.3186   65.2659 C   0  0  0  0  0  0  0  0  0  0  0  0
  -49.2921   58.8539   66.0534 C   0  0  0  0  0  0  0  0  0  0  0  0
  -47.0720   58.7786   64.8528 C   0  0  0  0  0  0  0  0  0  0  0  0
  -48.3081   58.0180   65.2554 C   0  0  0  0  0  0  0  0  0  0  0  0
 43 45  1  0  0  0
 43 42  1  0  0  0
 43 46  1  0  0  0
 64 65  1  0  0  0
 44 45  2  0  0  0
 65 63  1  0  0  0
  2  1  1  0  0  0
  2  4  1  0  0  0
  2  5  1  0  0  0
  3  4  2  0  0  0
 63 62  1  0  0  0
  6  8  1  0  0  0
  6 11  2  0  0  0
  7 10  1  0  0  0
  7 11  1  0  0  0
 62 61  1  0  0  0
 26 28  1  0  0  0
 26 32  1  0  0  0
 26 29  1  0  0  0
 12 18  1  0  0  0
 12 19  1  0  0  0
 61 60  1  0  0  0
 30 36  1  0  0  0
 30 37  1  0  0  0
 30 38  1  0  0  0
 20 21  2  0  0  0
 60 59  1  0  0  0
 22 21  1  0  0  0
 22 23  1  0  0  0
 59 58  1  0  0  0
 27 28  2  0  0  0
 58 57  1  0  0  0
 31 37  2  0  0  0
 57 56  1  0  0  0
 56 55  1  0  0  0
 55 54  1  0  0  0
 54 53  1  0  0  0
 53 52  1  0  0  0
 52 51  1  0  0  0
 51 50  1  0  0  0
 50 49  1  0  0  0
 49 47  1  0  0  0
 47 48  2  0  0  0
 48 45  1  0  0  0
 42 41  1  0  0  0
 41 40  1  0  0  0
 40 39  1  0  0  0
 39  1  1  0  0  0
  1 21  1  0  0  0
  8  4  1  0  0  0
  8  9  1  0  0  0
  8 10  1  0  0  0
 11 13  1  0  0  0
 13 14  2  0  0  0
 13 18  1  0  0  0
 14 15  1  0  0  0
 15 16  2  0  0  0
 16 17  1  0  0  0
 17 18  2  0  0  0
 23 24  1  0  0  0
 23 25  1  0  0  0
 25 28  1  0  0  0
 32 33  1  0  0  0
 32 37  1  0  0  0
 33 34  1  0  0  0
 34 35  1  0  0  0
 35 36  1  0  0  0
M  END
> <minimizedAffinity>
-7.47496

> <CNNscore>
0.3809379637

> <CNNaffinity>
7.6844511032

> <CNN_VS>
2.9272992611

> <CNNaffinity_variance>
0.5206391215

$$$$
/media/chris/experiments/cd1a-new-docking/inputs/ligands/7ryo_ligand.pdb


 65 67  0  0  0  0  0  0  0  0999 V2000
  -36.9863   57.9642   62.0724 C   0  0  0  0  0  0  0  0  0  0  0  0
  -38.3092   57.8885   62.6696 N   0  0  0  0  0  0  0  0  0  0  0  0
  -38.8551   56.0022   61.5753 O   0  0  0  0  0  0  0  0  0  0  0  0
  -39.1434   56.8926   62.3610 C   0  0  0  0  0  0  0  0  0  0  0  0
  -38.5938   58.5802   63.3098 H   0  0  0  0  0  0  0  0  0  0  0  0
  -40.4255   57.3664   64.4113 N   0  0  0  0  0  0  0  0  0  0  0  0
  -42.0362   58.6487   63.4923 O   0  0  0  0  0  0  0  0  0  0  0  0
  -40.5330   56.8997   63.0192 C   0  0  0  0  0  0  0  0  0  0  0  0
  -41.0894   55.4790   63.0127 C   0  0  0  0  0  0  0  0  0  0  0  0
  -41.5082   57.8942   62.3721 C   0  0  0  0  0  0  0  0  0  0  0  0
  -41.2688   58.3027   64.5586 C   0  0  0  0  0  0  0  0  0  0  0  0
  -40.5059   61.0618   64.8572 O   0  0  0  0  0  0  0  0  0  0  0  0
  -41.5109   59.0619   65.7877 C   0  0  0  0  0  0  0  0  0  0  0  0
  -42.2613   58.5006   66.8216 C   0  0  0  0  0  0  0  0  0  0  0  0
  -42.7017   59.2835   67.8749 C   0  0  0  0  0  0  0  0  0  0  0  0
  -42.4045   60.6283   67.9165 C   0  0  0  0  0  0  0  0  0  0  0  0
  -41.6662   61.2101   66.9020 C   0  0  0  0  0  0  0  0  0  0  0  0
  -41.2165   60.4401   65.8339 C   0  0  0  0  0  0  0  0  0  0  0  0
  -40.1888   60.5716   64.1244 H   0  0  0  0  0  0  0  0  0  0  0  0
  -36.0259   57.5106   64.2431 O   0  0  0  0  0  0  0  0  0  0  0  0
  -35.9001   57.9602   63.1376 C   0  0  0  0  0  0  0  0  0  0  0  0
  -34.7840   58.5500   62.6754 O   0  0  0  0  0  0  0  0  0  0  0  0
  -33.9605   57.8130   61.7119 C   0  0  0  0  0  0  0  0  0  0  0  0
  -33.5741   56.4966   62.3375 C   0  0  0  0  0  0  0  0  0  0  0  0
  -32.7592   58.6980   61.4417 C   0  0  0  0  0  0  0  0  0  0  0  0
  -33.2022   60.7855   62.5767 N   0  0  0  0  0  0  0  0  0  0  0  0
  -31.6282   59.4197   63.4243 O   0  0  0  0  0  0  0  0  0  0  0  0
  -32.4739   59.6653   62.5689 C   0  0  0  0  0  0  0  0  0  0  0  0
  -33.8665   60.9289   61.8644 H   0  0  0  0  0  0  0  0  0  0  0  0
  -34.5335   62.9775   65.1294 N   0  0  0  0  0  0  0  0  0  0  0  0
  -35.3767   62.1618   63.2178 O   0  0  0  0  0  0  0  0  0  0  0  0
  -33.0420   61.7976   63.6061 C   0  0  0  0  0  0  0  0  0  0  0  0
  -32.1706   62.9458   63.0847 C   0  0  0  0  0  0  0  0  0  0  0  0
  -31.5752   63.8117   64.1897 C   0  0  0  0  0  0  0  0  0  0  0  0
  -32.5807   64.5304   65.0674 C   0  0  0  0  0  0  0  0  0  0  0  0
  -33.4585   63.6085   65.8876 C   0  0  0  0  0  0  0  0  0  0  0  0
  -34.4198   62.3290   63.9682 C   0  0  0  0  0  0  0  0  0  0  0  0
  -35.4377   63.0362   65.5147 H   0  0  0  0  0  0  0  0  0  0  0  0
  -36.8561   59.1878   61.1641 C   0  0  0  0  0  0  0  0  0  0  0  0
  -37.7181   59.0749   59.9113 C   0  0  0  0  0  0  0  0  0  0  0  0
  -38.7540   60.1779   59.7978 C   0  0  0  0  0  0  0  0  0  0  0  0
  -40.1800   59.7343   60.0407 C   0  0  0  0  0  0  0  0  0  0  0  0
  -40.9813   59.8692   58.8345 N   0  0  0  0  0  0  0  0  0  0  0  0
  -41.6511   57.7139   58.8327 O   0  0  0  0  0  0  0  0  0  0  0  0
  -41.6631   58.8427   58.3147 C   0  0  0  0  0  0  0  0  0  0  0  0
  -41.0232   60.7447   58.3861 H   0  0  0  0  0  0  0  0  0  0  0  0
  -43.6012   58.7935   56.7608 C   0  0  0  0  0  0  0  0  0  0  0  0
  -42.3554   59.1498   57.0433 C   0  0  0  0  0  0  0  0  0  0  0  0
  -44.5612   58.0465   57.6332 C   0  0  0  0  0  0  0  0  0  0  0  0
  -46.0088   58.3823   57.2957 C   0  0  0  0  0  0  0  0  0  0  0  0
  -46.8719   57.1641   57.0165 C   0  0  0  0  0  0  0  0  0  0  0  0
  -47.4897   56.5573   58.2653 C   0  0  0  0  0  0  0  0  0  0  0  0
  -47.9213   57.5725   59.3067 C   0  0  0  0  0  0  0  0  0  0  0  0
  -49.4199   57.8247   59.3215 C   0  0  0  0  0  0  0  0  0  0  0  0
  -50.0805   57.4713   60.6396 C   0  0  0  0  0  0  0  0  0  0  0  0
  -49.9281   58.5530   61.6900 C   0  0  0  0  0  0  0  0  0  0  0  0
  -51.0212   58.5629   62.7413 C   0  0  0  0  0  0  0  0  0  0  0  0
  -51.1776   59.9140   63.4107 C   0  0  0  0  0  0  0  0  0  0  0  0
  -50.4569   60.0084   64.7456 C   0  0  0  0  0  0  0  0  0  0  0  0
  -50.6349   58.7905   65.6354 C   0  0  0  0  0  0  0  0  0  0  0  0
  -49.3308   58.1515   66.0870 C   0  0  0  0  0  0  0  0  0  0  0  0
  -48.2219   59.1526   66.3806 C   0  0  0  0  0  0  0  0  0  0  0  0
  -47.0862   58.5718   67.2076 C   0  0  0  0  0  0  0  0  0  0  0  0
  -45.9909   58.4228   64.9373 C   0  0  0  0  0  0  0  0  0  0  0  0
  -45.9258   58.0332   66.3907 C   0  0  0  0  0  0  0  0  0  0  0  0
 43 45  1  0  0  0
 43 42  1  0  0  0
 43 46  1  0  0  0
 64 65  1  0  0  0
 44 45  2  0  0  0
 65 63  1  0  0  0
  2  1  1  0  0  0
  2  4  1  0  0  0
  2  5  1  0  0  0
  3  4  2  0  0  0
 63 62  1  0  0  0
  6  8  1  0  0  0
  6 11  2  0  0  0
  7 10  1  0  0  0
  7 11  1  0  0  0
 62 61  1  0  0  0
 26 28  1  0  0  0
 26 32  1  0  0  0
 26 29  1  0  0  0
 12 18  1  0  0  0
 12 19  1  0  0  0
 61 60  1  0  0  0
 30 36  1  0  0  0
 30 37  1  0  0  0
 30 38  1  0  0  0
 20 21  2  0  0  0
 60 59  1  0  0  0
 22 21  1  0  0  0
 22 23  1  0  0  0
 59 58  1  0  0  0
 27 28  2  0  0  0
 58 57  1  0  0  0
 31 37  2  0  0  0
 57 56  1  0  0  0
 56 55  1  0  0  0
 55 54  1  0  0  0
 54 53  1  0  0  0
 53 52  1  0  0  0
 52 51  1  0  0  0
 51 50  1  0  0  0
 50 49  1  0  0  0
 49 47  1  0  0  0
 47 48  2  0  0  0
 48 45  1  0  0  0
 42 41  1  0  0  0
 41 40  1  0  0  0
 40 39  1  0  0  0
 39  1  1  0  0  0
  1 21  1  0  0  0
  8  4  1  0  0  0
  8  9  1  0  0  0
  8 10  1  0  0  0
 11 13  1  0  0  0
 13 14  2  0  0  0
 13 18  1  0  0  0
 14 15  1  0  0  0
 15 16  2  0  0  0
 16 17  1  0  0  0
 17 18  2  0  0  0
 23 24  1  0  0  0
 23 25  1  0  0  0
 25 28  1  0  0  0
 32 33  1  0  0  0
 32 37  1  0  0  0
 33 34  1  0  0  0
 34 35  1  0  0  0
 35 36  1  0  0  0
M  END
> <minimizedAffinity>
-7.75315

> <CNNscore>
0.3701064289

> <CNNaffinity>
7.7695169449

> <CNN_VS>
2.8755481243

> <CNNaffinity_variance>
0.9775451422

$$$$
/media/chris/experiments/cd1a-new-docking/inputs/ligands/7ryo_ligand.pdb


 65 67  0  0  0  0  0  0  0  0999 V2000
  -38.0873   59.5650   64.4976 C   0  0  0  0  0  0  0  0  0  0  0  0
  -37.1804   60.4134   65.2526 N   0  0  0  0  0  0  0  0  0  0  0  0
  -36.2173   61.2715   63.4114 O   0  0  0  0  0  0  0  0  0  0  0  0
  -36.3076   61.2081   64.6284 C   0  0  0  0  0  0  0  0  0  0  0  0
  -37.2100   60.4021   66.2366 H   0  0  0  0  0  0  0  0  0  0  0  0
  -34.1724   62.4339   64.7299 N   0  0  0  0  0  0  0  0  0  0  0  0
  -34.9564   64.3730   65.5717 O   0  0  0  0  0  0  0  0  0  0  0  0
  -35.3679   62.0561   65.5015 C   0  0  0  0  0  0  0  0  0  0  0  0
  -34.9387   61.2304   66.7107 C   0  0  0  0  0  0  0  0  0  0  0  0
  -35.9760   63.4026   65.9205 C   0  0  0  0  0  0  0  0  0  0  0  0
  -34.0439   63.6920   64.8305 C   0  0  0  0  0  0  0  0  0  0  0  0
  -33.1161   63.2732   62.1384 O   0  0  0  0  0  0  0  0  0  0  0  0
  -32.9870   64.5039   64.2226 C   0  0  0  0  0  0  0  0  0  0  0  0
  -32.4862   65.6194   64.8949 C   0  0  0  0  0  0  0  0  0  0  0  0
  -31.6726   66.5277   64.2395 C   0  0  0  0  0  0  0  0  0  0  0  0
  -31.3463   66.3421   62.9137 C   0  0  0  0  0  0  0  0  0  0  0  0
  -31.8334   65.2472   62.2233 C   0  0  0  0  0  0  0  0  0  0  0  0
  -32.6542   64.3244   62.8642 C   0  0  0  0  0  0  0  0  0  0  0  0
  -33.6710   62.6341   62.5405 H   0  0  0  0  0  0  0  0  0  0  0  0
  -39.8521   61.1988   64.2596 O   0  0  0  0  0  0  0  0  0  0  0  0
  -39.1228   60.3927   63.7511 C   0  0  0  0  0  0  0  0  0  0  0  0
  -39.1225   60.0808   62.4435 O   0  0  0  0  0  0  0  0  0  0  0  0
  -37.8297   59.8985   61.7763 C   0  0  0  0  0  0  0  0  0  0  0  0
  -37.9948   60.2754   60.3256 C   0  0  0  0  0  0  0  0  0  0  0  0
  -37.4815   58.4336   61.9557 C   0  0  0  0  0  0  0  0  0  0  0  0
  -35.2756   58.1430   62.8999 N   0  0  0  0  0  0  0  0  0  0  0  0
  -35.5218   57.9384   60.6730 O   0  0  0  0  0  0  0  0  0  0  0  0
  -36.0056   58.1526   61.7809 C   0  0  0  0  0  0  0  0  0  0  0  0
  -35.7180   58.3218   63.7610 H   0  0  0  0  0  0  0  0  0  0  0  0
  -31.8294   59.1985   63.2214 N   0  0  0  0  0  0  0  0  0  0  0  0
  -33.6943   60.2413   62.5393 O   0  0  0  0  0  0  0  0  0  0  0  0
  -33.8479   57.8763   62.8823 C   0  0  0  0  0  0  0  0  0  0  0  0
  -33.4776   57.0729   61.6305 C   0  0  0  0  0  0  0  0  0  0  0  0
  -32.1312   56.3648   61.7350 C   0  0  0  0  0  0  0  0  0  0  0  0
  -30.9300   57.2719   61.9144 C   0  0  0  0  0  0  0  0  0  0  0  0
  -30.9293   58.0503   63.2134 C   0  0  0  0  0  0  0  0  0  0  0  0
  -33.1160   59.2090   62.8660 C   0  0  0  0  0  0  0  0  0  0  0  0
  -31.4478   60.0554   63.5204 H   0  0  0  0  0  0  0  0  0  0  0  0
  -38.7621   58.5313   65.4005 C   0  0  0  0  0  0  0  0  0  0  0  0
  -39.7218   57.6285   64.6328 C   0  0  0  0  0  0  0  0  0  0  0  0
  -41.1609   58.1071   64.6829 C   0  0  0  0  0  0  0  0  0  0  0  0
  -41.9884   57.7529   63.4668 C   0  0  0  0  0  0  0  0  0  0  0  0
  -41.4131   58.3243   62.2595 N   0  0  0  0  0  0  0  0  0  0  0  0
  -41.3464   56.3574   61.1546 O   0  0  0  0  0  0  0  0  0  0  0  0
  -41.1321   57.5804   61.1841 C   0  0  0  0  0  0  0  0  0  0  0  0
  -41.2245   59.2902   62.2329 H   0  0  0  0  0  0  0  0  0  0  0  0
  -41.0337   58.5528   58.8998 C   0  0  0  0  0  0  0  0  0  0  0  0
  -40.4790   58.3213   60.0819 C   0  0  0  0  0  0  0  0  0  0  0  0
  -42.3984   58.1521   58.4333 C   0  0  0  0  0  0  0  0  0  0  0  0
  -42.8827   59.0300   57.2857 C   0  0  0  0  0  0  0  0  0  0  0  0
  -44.1917   58.5675   56.6698 C   0  0  0  0  0  0  0  0  0  0  0  0
  -45.1887   58.0376   57.6869 C   0  0  0  0  0  0  0  0  0  0  0  0
  -46.6241   58.4586   57.4345 C   0  0  0  0  0  0  0  0  0  0  0  0
  -47.6274   57.3331   57.6250 C   0  0  0  0  0  0  0  0  0  0  0  0
  -47.8951   57.0002   59.0797 C   0  0  0  0  0  0  0  0  0  0  0  0
  -49.0921   57.7359   59.6475 C   0  0  0  0  0  0  0  0  0  0  0  0
  -49.7818   57.0191   60.7925 C   0  0  0  0  0  0  0  0  0  0  0  0
  -51.0695   57.6972   61.2169 C   0  0  0  0  0  0  0  0  0  0  0  0
  -50.9703   58.3762   62.5732 C   0  0  0  0  0  0  0  0  0  0  0  0
  -50.3277   59.7518   62.5340 C   0  0  0  0  0  0  0  0  0  0  0  0
  -49.2425   59.9638   63.5781 C   0  0  0  0  0  0  0  0  0  0  0  0
  -49.2488   58.9283   64.6942 C   0  0  0  0  0  0  0  0  0  0  0  0
  -47.8581   58.4658   65.0980 C   0  0  0  0  0  0  0  0  0  0  0  0
  -46.2927   58.0454   67.0342 C   0  0  0  0  0  0  0  0  0  0  0  0
  -47.4539   58.8487   66.5101 C   0  0  0  0  0  0  0  0  0  0  0  0
 43 45  1  0  0  0
 43 42  1  0  0  0
 43 46  1  0  0  0
 64 65  1  0  0  0
 44 45  2  0  0  0
 65 63  1  0  0  0
  2  1  1  0  0  0
  2  4  1  0  0  0
  2  5  1  0  0  0
  3  4  2  0  0  0
 63 62  1  0  0  0
  6  8  1  0  0  0
  6 11  2  0  0  0
  7 10  1  0  0  0
  7 11  1  0  0  0
 62 61  1  0  0  0
 26 28  1  0  0  0
 26 32  1  0  0  0
 26 29  1  0  0  0
 12 18  1  0  0  0
 12 19  1  0  0  0
 61 60  1  0  0  0
 30 36  1  0  0  0
 30 37  1  0  0  0
 30 38  1  0  0  0
 20 21  2  0  0  0
 60 59  1  0  0  0
 22 21  1  0  0  0
 22 23  1  0  0  0
 59 58  1  0  0  0
 27 28  2  0  0  0
 58 57  1  0  0  0
 31 37  2  0  0  0
 57 56  1  0  0  0
 56 55  1  0  0  0
 55 54  1  0  0  0
 54 53  1  0  0  0
 53 52  1  0  0  0
 52 51  1  0  0  0
 51 50  1  0  0  0
 50 49  1  0  0  0
 49 47  1  0  0  0
 47 48  2  0  0  0
 48 45  1  0  0  0
 42 41  1  0  0  0
 41 40  1  0  0  0
 40 39  1  0  0  0
 39  1  1  0  0  0
  1 21  1  0  0  0
  8  4  1  0  0  0
  8  9  1  0  0  0
  8 10  1  0  0  0
 11 13  1  0  0  0
 13 14  2  0  0  0
 13 18  1  0  0  0
 14 15  1  0  0  0
 15 16  2  0  0  0
 16 17  1  0  0  0
 17 18  2  0  0  0
 23 24  1  0  0  0
 23 25  1  0  0  0
 25 28  1  0  0  0
 32 33  1  0  0  0
 32 37  1  0  0  0
 33 34  1  0  0  0
 34 35  1  0  0  0
 35 36  1  0  0  0
M  END
> <minimizedAffinity>
-7.75761

> <CNNscore>
0.2608464360

> <CNNaffinity>
7.3597593307

> <CNN_VS>
1.9197670221

> <CNNaffinity_variance>
0.5463179350

$$$$
/media/chris/experiments/cd1a-new-docking/inputs/ligands/7ryo_ligand.pdb


 65 67  0  0  0  0  0  0  0  0999 V2000
  -37.9958   59.8943   64.2547 C   0  0  0  0  0  0  0  0  0  0  0  0
  -37.2094   61.0619   64.6164 N   0  0  0  0  0  0  0  0  0  0  0  0
  -35.4678   59.8431   65.3482 O   0  0  0  0  0  0  0  0  0  0  0  0
  -35.9892   60.9289   65.1421 C   0  0  0  0  0  0  0  0  0  0  0  0
  -37.5808   61.9620   64.4718 H   0  0  0  0  0  0  0  0  0  0  0  0
  -34.1147   62.4286   64.5862 N   0  0  0  0  0  0  0  0  0  0  0  0
  -35.2518   64.3754   64.5855 O   0  0  0  0  0  0  0  0  0  0  0  0
  -35.2335   62.2141   65.5186 C   0  0  0  0  0  0  0  0  0  0  0  0
  -34.6805   62.0651   66.9328 C   0  0  0  0  0  0  0  0  0  0  0  0
  -36.0832   63.4850   65.3723 C   0  0  0  0  0  0  0  0  0  0  0  0
  -34.2190   63.6124   64.1421 C   0  0  0  0  0  0  0  0  0  0  0  0
  -32.4692   62.1256   62.4067 O   0  0  0  0  0  0  0  0  0  0  0  0
  -33.3180   64.2585   63.1847 C   0  0  0  0  0  0  0  0  0  0  0  0
  -33.3844   65.6374   62.9809 C   0  0  0  0  0  0  0  0  0  0  0  0
  -32.7195   66.2229   61.9172 C   0  0  0  0  0  0  0  0  0  0  0  0
  -31.9828   65.4514   61.0450 C   0  0  0  0  0  0  0  0  0  0  0  0
  -31.9047   64.0820   61.2221 C   0  0  0  0  0  0  0  0  0  0  0  0
  -32.5676   63.4749   62.2841 C   0  0  0  0  0  0  0  0  0  0  0  0
  -32.9038   61.6863   63.1110 H   0  0  0  0  0  0  0  0  0  0  0  0
  -39.8697   61.2163   63.4921 O   0  0  0  0  0  0  0  0  0  0  0  0
  -39.1485   60.2700   63.3356 C   0  0  0  0  0  0  0  0  0  0  0  0
  -39.2612   59.3814   62.3330 O   0  0  0  0  0  0  0  0  0  0  0  0
  -38.1869   59.3228   61.3370 C   0  0  0  0  0  0  0  0  0  0  0  0
  -38.7461   59.7924   60.0177 C   0  0  0  0  0  0  0  0  0  0  0  0
  -37.7495   57.8715   61.2944 C   0  0  0  0  0  0  0  0  0  0  0  0
  -35.3350   57.9197   61.3952 N   0  0  0  0  0  0  0  0  0  0  0  0
  -36.4665   57.1793   63.1932 O   0  0  0  0  0  0  0  0  0  0  0  0
  -36.4621   57.6213   62.0479 C   0  0  0  0  0  0  0  0  0  0  0  0
  -35.3927   58.2713   60.4774 H   0  0  0  0  0  0  0  0  0  0  0  0
  -32.6877   58.9547   63.6344 N   0  0  0  0  0  0  0  0  0  0  0  0
  -34.2253   60.0832   62.4541 O   0  0  0  0  0  0  0  0  0  0  0  0
  -34.0272   57.7401   62.0009 C   0  0  0  0  0  0  0  0  0  0  0  0
  -32.9838   57.4339   60.9206 C   0  0  0  0  0  0  0  0  0  0  0  0
  -31.7107   56.7946   61.4642 C   0  0  0  0  0  0  0  0  0  0  0  0
  -30.9284   57.6379   62.4514 C   0  0  0  0  0  0  0  0  0  0  0  0
  -31.6639   57.9212   63.7445 C   0  0  0  0  0  0  0  0  0  0  0  0
  -33.6545   59.0287   62.7169 C   0  0  0  0  0  0  0  0  0  0  0  0
  -32.6631   59.6728   64.3075 H   0  0  0  0  0  0  0  0  0  0  0  0
  -38.5043   59.1608   65.4967 C   0  0  0  0  0  0  0  0  0  0  0  0
  -39.9041   58.5886   65.3003 C   0  0  0  0  0  0  0  0  0  0  0  0
  -39.9163   57.3044   64.4921 C   0  0  0  0  0  0  0  0  0  0  0  0
  -41.2680   56.6316   64.3931 C   0  0  0  0  0  0  0  0  0  0  0  0
  -42.1371   57.0435   65.4840 N   0  0  0  0  0  0  0  0  0  0  0  0
  -43.3414   58.4685   64.2140 O   0  0  0  0  0  0  0  0  0  0  0  0
  -43.1170   57.9377   65.3143 C   0  0  0  0  0  0  0  0  0  0  0  0
  -41.9997   56.6511   66.3765 H   0  0  0  0  0  0  0  0  0  0  0  0
  -45.1607   58.2206   66.6988 C   0  0  0  0  0  0  0  0  0  0  0  0
  -43.8443   58.2905   66.5540 C   0  0  0  0  0  0  0  0  0  0  0  0
  -46.1712   57.7695   65.6908 C   0  0  0  0  0  0  0  0  0  0  0  0
  -47.0773   56.6791   66.2495 C   0  0  0  0  0  0  0  0  0  0  0  0
  -48.5487   56.8819   65.9320 C   0  0  0  0  0  0  0  0  0  0  0  0
  -48.9922   58.3335   66.0056 C   0  0  0  0  0  0  0  0  0  0  0  0
  -50.4900   58.5377   65.8767 C   0  0  0  0  0  0  0  0  0  0  0  0
  -50.8941   59.9982   65.7621 C   0  0  0  0  0  0  0  0  0  0  0  0
  -50.3992   60.6658   64.4939 C   0  0  0  0  0  0  0  0  0  0  0  0
  -50.9462   60.0270   63.2333 C   0  0  0  0  0  0  0  0  0  0  0  0
  -49.9527   59.9475   62.0902 C   0  0  0  0  0  0  0  0  0  0  0  0
  -49.2202   58.6211   62.0423 C   0  0  0  0  0  0  0  0  0  0  0  0
  -50.0121   57.5239   61.3500 C   0  0  0  0  0  0  0  0  0  0  0  0
  -49.8046   57.4617   59.8467 C   0  0  0  0  0  0  0  0  0  0  0  0
  -48.5233   58.1248   59.3655 C   0  0  0  0  0  0  0  0  0  0  0  0
  -47.3321   57.1801   59.2843 C   0  0  0  0  0  0  0  0  0  0  0  0
  -47.6523   55.8605   58.6008 C   0  0  0  0  0  0  0  0  0  0  0  0
  -47.4629   56.9550   56.3332 C   0  0  0  0  0  0  0  0  0  0  0  0
  -47.1392   55.7499   57.1766 C   0  0  0  0  0  0  0  0  0  0  0  0
 43 45  1  0  0  0
 43 42  1  0  0  0
 43 46  1  0  0  0
 64 65  1  0  0  0
 44 45  2  0  0  0
 65 63  1  0  0  0
  2  1  1  0  0  0
  2  4  1  0  0  0
  2  5  1  0  0  0
  3  4  2  0  0  0
 63 62  1  0  0  0
  6  8  1  0  0  0
  6 11  2  0  0  0
  7 10  1  0  0  0
  7 11  1  0  0  0
 62 61  1  0  0  0
 26 28  1  0  0  0
 26 32  1  0  0  0
 26 29  1  0  0  0
 12 18  1  0  0  0
 12 19  1  0  0  0
 61 60  1  0  0  0
 30 36  1  0  0  0
 30 37  1  0  0  0
 30 38  1  0  0  0
 20 21  2  0  0  0
 60 59  1  0  0  0
 22 21  1  0  0  0
 22 23  1  0  0  0
 59 58  1  0  0  0
 27 28  2  0  0  0
 58 57  1  0  0  0
 31 37  2  0  0  0
 57 56  1  0  0  0
 56 55  1  0  0  0
 55 54  1  0  0  0
 54 53  1  0  0  0
 53 52  1  0  0  0
 52 51  1  0  0  0
 51 50  1  0  0  0
 50 49  1  0  0  0
 49 47  1  0  0  0
 47 48  2  0  0  0
 48 45  1  0  0  0
 42 41  1  0  0  0
 41 40  1  0  0  0
 40 39  1  0  0  0
 39  1  1  0  0  0
  1 21  1  0  0  0
  8  4  1  0  0  0
  8  9  1  0  0  0
  8 10  1  0  0  0
 11 13  1  0  0  0
 13 14  2  0  0  0
 13 18  1  0  0  0
 14 15  1  0  0  0
 15 16  2  0  0  0
 16 17  1  0  0  0
 17 18  2  0  0  0
 23 24  1  0  0  0
 23 25  1  0  0  0
 25 28  1  0  0  0
 32 33  1  0  0  0
 32 37  1  0  0  0
 33 34  1  0  0  0
 34 35  1  0  0  0
 35 36  1  0  0  0
M  END
> <minimizedAffinity>
-10.06881

> <CNNscore>
0.2539270520

> <CNNaffinity>
7.3944330215

> <CNN_VS>
1.8776465654

> <CNNaffinity_variance>
0.6694037318

$$$$
/media/chris/experiments/cd1a-new-docking/inputs/ligands/7ryo_ligand.pdb


 65 67  0  0  0  0  0  0  0  0999 V2000
  -34.5713   59.4944   63.6688 C   0  0  0  0  0  0  0  0  0  0  0  0
  -35.6676   59.1056   62.7973 N   0  0  0  0  0  0  0  0  0  0  0  0
  -36.4171   61.2116   62.5581 O   0  0  0  0  0  0  0  0  0  0  0  0
  -36.5107   60.0189   62.3093 C   0  0  0  0  0  0  0  0  0  0  0  0
  -35.7901   58.1572   62.5637 H   0  0  0  0  0  0  0  0  0  0  0  0
  -38.2081   58.2679   61.9558 N   0  0  0  0  0  0  0  0  0  0  0  0
  -39.9965   59.6098   61.6656 O   0  0  0  0  0  0  0  0  0  0  0  0
  -37.6574   59.5211   61.4139 C   0  0  0  0  0  0  0  0  0  0  0  0
  -37.1120   59.2596   60.0132 C   0  0  0  0  0  0  0  0  0  0  0  0
  -38.8639   60.4710   61.3852 C   0  0  0  0  0  0  0  0  0  0  0  0
  -39.4636   58.4220   62.0536 C   0  0  0  0  0  0  0  0  0  0  0  0
  -41.4572   57.2133   60.3659 O   0  0  0  0  0  0  0  0  0  0  0  0
  -40.4202   57.4280   62.5462 C   0  0  0  0  0  0  0  0  0  0  0  0
  -40.3003   56.9218   63.8410 C   0  0  0  0  0  0  0  0  0  0  0  0
  -41.0364   55.8173   64.2342 C   0  0  0  0  0  0  0  0  0  0  0  0
  -41.8979   55.2028   63.3517 C   0  0  0  0  0  0  0  0  0  0  0  0
  -42.0317   55.6820   62.0612 C   0  0  0  0  0  0  0  0  0  0  0  0
  -41.2988   56.7897   61.6468 C   0  0  0  0  0  0  0  0  0  0  0  0
  -40.9781   57.9564   60.0556 H   0  0  0  0  0  0  0  0  0  0  0  0
  -32.5334   58.2759   64.1188 O   0  0  0  0  0  0  0  0  0  0  0  0
  -33.2960   58.7425   63.3183 C   0  0  0  0  0  0  0  0  0  0  0  0
  -33.1300   58.6910   61.9852 O   0  0  0  0  0  0  0  0  0  0  0  0
  -31.9092   59.2716   61.4175 C   0  0  0  0  0  0  0  0  0  0  0  0
  -31.0143   58.1405   60.9776 C   0  0  0  0  0  0  0  0  0  0  0  0
  -31.2931   60.0948   62.5319 C   0  0  0  0  0  0  0  0  0  0  0  0
  -32.1353   62.2472   63.2392 N   0  0  0  0  0  0  0  0  0  0  0  0
  -30.9283   62.1407   61.3436 O   0  0  0  0  0  0  0  0  0  0  0  0
  -31.4364   61.5845   62.3130 C   0  0  0  0  0  0  0  0  0  0  0  0
  -32.5202   61.7481   63.9956 H   0  0  0  0  0  0  0  0  0  0  0  0
  -32.6271   65.4860   64.7758 N   0  0  0  0  0  0  0  0  0  0  0  0
  -33.1746   63.3994   65.3899 O   0  0  0  0  0  0  0  0  0  0  0  0
  -32.3435   63.6825   63.1620 C   0  0  0  0  0  0  0  0  0  0  0  0
  -33.4534   64.0004   62.1537 C   0  0  0  0  0  0  0  0  0  0  0  0
  -33.4414   65.4454   61.6668 C   0  0  0  0  0  0  0  0  0  0  0  0
  -33.6558   66.4958   62.7385 C   0  0  0  0  0  0  0  0  0  0  0  0
  -32.5589   66.5511   63.7810 C   0  0  0  0  0  0  0  0  0  0  0  0
  -32.7516   64.1780   64.5403 C   0  0  0  0  0  0  0  0  0  0  0  0
  -32.5758   65.7609   65.7198 H   0  0  0  0  0  0  0  0  0  0  0  0
  -34.9352   59.2963   65.1410 C   0  0  0  0  0  0  0  0  0  0  0  0
  -35.9190   60.3480   65.6423 C   0  0  0  0  0  0  0  0  0  0  0  0
  -37.3397   59.8283   65.7606 C   0  0  0  0  0  0  0  0  0  0  0  0
  -38.4110   60.8952   65.7020 C   0  0  0  0  0  0  0  0  0  0  0  0
  -39.5612   60.4386   64.9381 N   0  0  0  0  0  0  0  0  0  0  0  0
  -41.0497   61.6394   66.1365 O   0  0  0  0  0  0  0  0  0  0  0  0
  -40.8050   60.8464   65.2125 C   0  0  0  0  0  0  0  0  0  0  0  0
  -39.4195   59.8088   64.1947 H   0  0  0  0  0  0  0  0  0  0  0  0
  -42.6336   59.2202   64.7819 C   0  0  0  0  0  0  0  0  0  0  0  0
  -41.8532   60.2144   64.3804 C   0  0  0  0  0  0  0  0  0  0  0  0
  -42.6473   58.5483   66.1194 C   0  0  0  0  0  0  0  0  0  0  0  0
  -43.6772   57.4266   66.1767 C   0  0  0  0  0  0  0  0  0  0  0  0
  -44.8241   57.5962   65.1954 C   0  0  0  0  0  0  0  0  0  0  0  0
  -46.1900   57.6476   65.8593 C   0  0  0  0  0  0  0  0  0  0  0  0
  -47.3070   58.1359   64.9562 C   0  0  0  0  0  0  0  0  0  0  0  0
  -48.6923   57.9523   65.5536 C   0  0  0  0  0  0  0  0  0  0  0  0
  -49.3841   59.2584   65.8913 C   0  0  0  0  0  0  0  0  0  0  0  0
  -50.7489   59.3926   65.2463 C   0  0  0  0  0  0  0  0  0  0  0  0
  -50.7381   60.0862   63.8976 C   0  0  0  0  0  0  0  0  0  0  0  0
  -51.1179   59.1595   62.7596 C   0  0  0  0  0  0  0  0  0  0  0  0
  -49.9324   58.4051   62.1799 C   0  0  0  0  0  0  0  0  0  0  0  0
  -49.4898   58.8985   60.8134 C   0  0  0  0  0  0  0  0  0  0  0  0
  -49.1684   57.7897   59.8234 C   0  0  0  0  0  0  0  0  0  0  0  0
  -47.6778   57.5434   59.6348 C   0  0  0  0  0  0  0  0  0  0  0  0
  -47.1207   58.1539   58.3588 C   0  0  0  0  0  0  0  0  0  0  0  0
  -47.0576   55.9494   57.1291 C   0  0  0  0  0  0  0  0  0  0  0  0
  -47.4756   57.3959   57.0926 C   0  0  0  0  0  0  0  0  0  0  0  0
 43 45  1  0  0  0
 43 42  1  0  0  0
 43 46  1  0  0  0
 64 65  1  0  0  0
 44 45  2  0  0  0
 65 63  1  0  0  0
  2  1  1  0  0  0
  2  4  1  0  0  0
  2  5  1  0  0  0
  3  4  2  0  0  0
 63 62  1  0  0  0
  6  8  1  0  0  0
  6 11  2  0  0  0
  7 10  1  0  0  0
  7 11  1  0  0  0
 62 61  1  0  0  0
 26 28  1  0  0  0
 26 32  1  0  0  0
 26 29  1  0  0  0
 12 18  1  0  0  0
 12 19  1  0  0  0
 61 60  1  0  0  0
 30 36  1  0  0  0
 30 37  1  0  0  0
 30 38  1  0  0  0
 20 21  2  0  0  0
 60 59  1  0  0  0
 22 21  1  0  0  0
 22 23  1  0  0  0
 59 58  1  0  0  0
 27 28  2  0  0  0
 58 57  1  0  0  0
 31 37  2  0  0  0
 57 56  1  0  0  0
 56 55  1  0  0  0
 55 54  1  0  0  0
 54 53  1  0  0  0
 53 52  1  0  0  0
 52 51  1  0  0  0
 51 50  1  0  0  0
 50 49  1  0  0  0
 49 47  1  0  0  0
 47 48  2  0  0  0
 48 45  1  0  0  0
 42 41  1  0  0  0
 41 40  1  0  0  0
 40 39  1  0  0  0
 39  1  1  0  0  0
  1 21  1  0  0  0
  8  4  1  0  0  0
  8  9  1  0  0  0
  8 10  1  0  0  0
 11 13  1  0  0  0
 13 14  2  0  0  0
 13 18  1  0  0  0
 14 15  1  0  0  0
 15 16  2  0  0  0
 16 17  1  0  0  0
 17 18  2  0  0  0
 23 24  1  0  0  0
 23 25  1  0  0  0
 25 28  1  0  0  0
 32 33  1  0  0  0
 32 37  1  0  0  0
 33 34  1  0  0  0
 34 35  1  0  0  0
 35 36  1  0  0  0
M  END
> <minimizedAffinity>
-9.45315

> <CNNscore>
0.2180706710

> <CNNaffinity>
7.5719404221

> <CNN_VS>
1.6512181759

> <CNNaffinity_variance>
1.1041601896

$$$$
/media/chris/experiments/cd1a-new-docking/inputs/ligands/7ryo_ligand.pdb


 65 67  0  0  0  0  0  0  0  0999 V2000
  -40.3617   57.2681   62.3940 C   0  0  0  0  0  0  0  0  0  0  0  0
  -40.0941   57.9298   63.6601 N   0  0  0  0  0  0  0  0  0  0  0  0
  -41.9218   59.2326   63.5324 O   0  0  0  0  0  0  0  0  0  0  0  0
  -40.9160   58.8733   64.1262 C   0  0  0  0  0  0  0  0  0  0  0  0
  -39.2970   57.6792   64.1807 H   0  0  0  0  0  0  0  0  0  0  0  0
  -39.0991   59.4240   65.6971 N   0  0  0  0  0  0  0  0  0  0  0  0
  -39.5550   61.6165   65.9578 O   0  0  0  0  0  0  0  0  0  0  0  0
  -40.5478   59.5402   65.4619 C   0  0  0  0  0  0  0  0  0  0  0  0
  -41.2928   58.8318   66.5892 C   0  0  0  0  0  0  0  0  0  0  0  0
  -40.8025   61.0547   65.4769 C   0  0  0  0  0  0  0  0  0  0  0  0
  -38.6662   60.5891   65.9508 C   0  0  0  0  0  0  0  0  0  0  0  0
  -36.4199   59.2713   64.7255 O   0  0  0  0  0  0  0  0  0  0  0  0
  -37.2781   60.9490   66.2501 C   0  0  0  0  0  0  0  0  0  0  0  0
  -36.9985   62.0593   67.0476 C   0  0  0  0  0  0  0  0  0  0  0  0
  -35.7080   62.5520   67.1381 C   0  0  0  0  0  0  0  0  0  0  0  0
  -34.6817   61.9520   66.4414 C   0  0  0  0  0  0  0  0  0  0  0  0
  -34.9331   60.8529   65.6403 C   0  0  0  0  0  0  0  0  0  0  0  0
  -36.2239   60.3445   65.5350 C   0  0  0  0  0  0  0  0  0  0  0  0
  -37.2774   58.9050   64.6328 H   0  0  0  0  0  0  0  0  0  0  0  0
  -40.9958   58.1513   60.2357 O   0  0  0  0  0  0  0  0  0  0  0  0
  -40.3489   58.2601   61.2407 C   0  0  0  0  0  0  0  0  0  0  0  0
  -39.4950   59.2670   61.4941 O   0  0  0  0  0  0  0  0  0  0  0  0
  -38.1219   59.1521   60.9928 C   0  0  0  0  0  0  0  0  0  0  0  0
  -38.1134   59.5859   59.5487 C   0  0  0  0  0  0  0  0  0  0  0  0
  -37.7486   57.6918   61.1586 C   0  0  0  0  0  0  0  0  0  0  0  0
  -35.3448   57.9206   61.2676 N   0  0  0  0  0  0  0  0  0  0  0  0
  -36.4113   56.9879   63.0153 O   0  0  0  0  0  0  0  0  0  0  0  0
  -36.4439   57.4971   61.8986 C   0  0  0  0  0  0  0  0  0  0  0  0
  -35.4318   58.3214   60.3726 H   0  0  0  0  0  0  0  0  0  0  0  0
  -32.8111   58.9680   63.6292 N   0  0  0  0  0  0  0  0  0  0  0  0
  -34.4520   60.0589   62.5577 O   0  0  0  0  0  0  0  0  0  0  0  0
  -34.0256   57.8067   61.8645 C   0  0  0  0  0  0  0  0  0  0  0  0
  -32.9575   57.7185   60.7686 C   0  0  0  0  0  0  0  0  0  0  0  0
  -31.6278   57.1527   61.2554 C   0  0  0  0  0  0  0  0  0  0  0  0
  -30.9315   57.9600   62.3330 C   0  0  0  0  0  0  0  0  0  0  0  0
  -31.6910   58.0332   63.6411 C   0  0  0  0  0  0  0  0  0  0  0  0
  -33.7806   59.0433   62.7147 C   0  0  0  0  0  0  0  0  0  0  0  0
  -32.8568   59.6105   64.3737 H   0  0  0  0  0  0  0  0  0  0  0  0
  -41.6826   56.4984   62.4379 C   0  0  0  0  0  0  0  0  0  0  0  0
  -41.7636   55.5522   63.6310 C   0  0  0  0  0  0  0  0  0  0  0  0
  -42.7324   56.0214   64.7005 C   0  0  0  0  0  0  0  0  0  0  0  0
  -43.8551   56.9012   64.1956 C   0  0  0  0  0  0  0  0  0  0  0  0
  -44.3774   57.7433   65.2601 N   0  0  0  0  0  0  0  0  0  0  0  0
  -46.2290   56.4919   65.5749 O   0  0  0  0  0  0  0  0  0  0  0  0
  -45.5337   57.4759   65.8765 C   0  0  0  0  0  0  0  0  0  0  0  0
  -43.8628   58.5360   65.5360 H   0  0  0  0  0  0  0  0  0  0  0  0
  -47.1954   58.8459   67.1155 C   0  0  0  0  0  0  0  0  0  0  0  0
  -45.9412   58.4870   66.8775 C   0  0  0  0  0  0  0  0  0  0  0  0
  -48.4382   58.3199   66.4678 C   0  0  0  0  0  0  0  0  0  0  0  0
  -49.3994   59.4426   66.0965 C   0  0  0  0  0  0  0  0  0  0  0  0
  -48.7576   60.5577   65.2893 C   0  0  0  0  0  0  0  0  0  0  0  0
  -48.2821   60.1174   63.9147 C   0  0  0  0  0  0  0  0  0  0  0  0
  -49.3087   59.3340   63.1186 C   0  0  0  0  0  0  0  0  0  0  0  0
  -49.7327   60.0243   61.8327 C   0  0  0  0  0  0  0  0  0  0  0  0
  -49.6732   59.1241   60.6141 C   0  0  0  0  0  0  0  0  0  0  0  0
  -50.6258   57.9484   60.6963 C   0  0  0  0  0  0  0  0  0  0  0  0
  -49.9487   56.5915   60.6726 C   0  0  0  0  0  0  0  0  0  0  0  0
  -48.5245   56.6567   60.1573 C   0  0  0  0  0  0  0  0  0  0  0  0
  -48.2304   55.6285   59.0771 C   0  0  0  0  0  0  0  0  0  0  0  0
  -47.0093   55.9470   58.2320 C   0  0  0  0  0  0  0  0  0  0  0  0
  -46.9933   57.3581   57.6651 C   0  0  0  0  0  0  0  0  0  0  0  0
  -45.8055   57.6452   56.7569 C   0  0  0  0  0  0  0  0  0  0  0  0
  -44.7298   58.4923   57.4175 C   0  0  0  0  0  0  0  0  0  0  0  0
  -42.2581   58.9347   57.1510 C   0  0  0  0  0  0  0  0  0  0  0  0
  -43.6103   58.9233   56.4877 C   0  0  0  0  0  0  0  0  0  0  0  0
 43 45  1  0  0  0
 43 42  1  0  0  0
 43 46  1  0  0  0
 64 65  1  0  0  0
 44 45  2  0  0  0
 65 63  1  0  0  0
  2  1  1  0  0  0
  2  4  1  0  0  0
  2  5  1  0  0  0
  3  4  2  0  0  0
 63 62  1  0  0  0
  6  8  1  0  0  0
  6 11  2  0  0  0
  7 10  1  0  0  0
  7 11  1  0  0  0
 62 61  1  0  0  0
 26 28  1  0  0  0
 26 32  1  0  0  0
 26 29  1  0  0  0
 12 18  1  0  0  0
 12 19  1  0  0  0
 61 60  1  0  0  0
 30 36  1  0  0  0
 30 37  1  0  0  0
 30 38  1  0  0  0
 20 21  2  0  0  0
 60 59  1  0  0  0
 22 21  1  0  0  0
 22 23  1  0  0  0
 59 58  1  0  0  0
 27 28  2  0  0  0
 58 57  1  0  0  0
 31 37  2  0  0  0
 57 56  1  0  0  0
 56 55  1  0  0  0
 55 54  1  0  0  0
 54 53  1  0  0  0
 53 52  1  0  0  0
 52 51  1  0  0  0
 51 50  1  0  0  0
 50 49  1  0  0  0
 49 47  1  0  0  0
 47 48  2  0  0  0
 48 45  1  0  0  0
 42 41  1  0  0  0
 41 40  1  0  0  0
 40 39  1  0  0  0
 39  1  1  0  0  0
  1 21  1  0  0  0
  8  4  1  0  0  0
  8  9  1  0  0  0
  8 10  1  0  0  0
 11 13  1  0  0  0
 13 14  2  0  0  0
 13 18  1  0  0  0
 14 15  1  0  0  0
 15 16  2  0  0  0
 16 17  1  0  0  0
 17 18  2  0  0  0
 23 24  1  0  0  0
 23 25  1  0  0  0
 25 28  1  0  0  0
 32 33  1  0  0  0
 32 37  1  0  0  0
 33 34  1  0  0  0
 34 35  1  0  0  0
 35 36  1  0  0  0
M  END
> <minimizedAffinity>
-8.53440

> <CNNscore>
0.2078034729

> <CNNaffinity>
7.7659058571

> <CNN_VS>
1.6137821674

> <CNNaffinity_variance>
1.1933778524

$$$$
/media/chris/experiments/cd1a-new-docking/inputs/ligands/7ryo_ligand.pdb


 65 67  0  0  0  0  0  0  0  0999 V2000
  -40.6405   58.1348   62.7197 C   0  0  0  0  0  0  0  0  0  0  0  0
  -39.6228   58.2405   63.7520 N   0  0  0  0  0  0  0  0  0  0  0  0
  -39.9739   60.4370   64.0779 O   0  0  0  0  0  0  0  0  0  0  0  0
  -39.3752   59.4075   64.3518 C   0  0  0  0  0  0  0  0  0  0  0  0
  -39.1096   57.4417   64.0123 H   0  0  0  0  0  0  0  0  0  0  0  0
  -37.1723   60.3190   64.9750 N   0  0  0  0  0  0  0  0  0  0  0  0
  -37.6987   61.0407   67.0452 O   0  0  0  0  0  0  0  0  0  0  0  0
  -38.2662   59.4382   65.4165 C   0  0  0  0  0  0  0  0  0  0  0  0
  -37.7220   58.0251   65.6032 C   0  0  0  0  0  0  0  0  0  0  0  0
  -38.7185   60.0531   66.7492 C   0  0  0  0  0  0  0  0  0  0  0  0
  -36.9489   61.1395   65.9166 C   0  0  0  0  0  0  0  0  0  0  0  0
  -36.2302   62.6024   68.2888 O   0  0  0  0  0  0  0  0  0  0  0  0
  -35.9400   62.2015   65.9159 C   0  0  0  0  0  0  0  0  0  0  0  0
  -35.1797   62.4448   64.7714 C   0  0  0  0  0  0  0  0  0  0  0  0
  -34.0684   63.2683   64.8286 C   0  0  0  0  0  0  0  0  0  0  0  0
  -33.6981   63.8591   66.0171 C   0  0  0  0  0  0  0  0  0  0  0  0
  -34.4321   63.6305   67.1668 C   0  0  0  0  0  0  0  0  0  0  0  0
  -35.5510   62.8043   67.1298 C   0  0  0  0  0  0  0  0  0  0  0  0
  -36.9881   62.0514   68.2977 H   0  0  0  0  0  0  0  0  0  0  0  0
  -40.9728   59.7597   60.9620 O   0  0  0  0  0  0  0  0  0  0  0  0
  -40.2642   58.9478   61.4901 C   0  0  0  0  0  0  0  0  0  0  0  0
  -39.0335   58.6153   61.0633 O   0  0  0  0  0  0  0  0  0  0  0  0
  -38.1271   59.6943   60.6584 C   0  0  0  0  0  0  0  0  0  0  0  0
  -37.2530   59.1772   59.5439 C   0  0  0  0  0  0  0  0  0  0  0  0
  -37.3310   60.0452   61.9003 C   0  0  0  0  0  0  0  0  0  0  0  0
  -34.9874   59.5177   62.1674 N   0  0  0  0  0  0  0  0  0  0  0  0
  -36.4950   57.8752   62.4690 O   0  0  0  0  0  0  0  0  0  0  0  0
  -36.2368   59.0453   62.2015 C   0  0  0  0  0  0  0  0  0  0  0  0
  -34.8405   60.4658   61.9466 H   0  0  0  0  0  0  0  0  0  0  0  0
  -31.6385   59.0036   63.4379 N   0  0  0  0  0  0  0  0  0  0  0  0
  -32.6673   60.7599   62.4957 O   0  0  0  0  0  0  0  0  0  0  0  0
  -33.8397   58.6724   62.4468 C   0  0  0  0  0  0  0  0  0  0  0  0
  -33.4937   57.8297   61.2141 C   0  0  0  0  0  0  0  0  0  0  0  0
  -32.6269   56.6150   61.5278 C   0  0  0  0  0  0  0  0  0  0  0  0
  -31.2628   56.9219   62.1135 C   0  0  0  0  0  0  0  0  0  0  0  0
  -31.3071   57.5833   63.4751 C   0  0  0  0  0  0  0  0  0  0  0  0
  -32.6629   59.5696   62.7959 C   0  0  0  0  0  0  0  0  0  0  0  0
  -31.0443   59.6080   63.9389 H   0  0  0  0  0  0  0  0  0  0  0  0
  -42.0140   58.5494   63.2494 C   0  0  0  0  0  0  0  0  0  0  0  0
  -42.6389   57.4814   64.1406 C   0  0  0  0  0  0  0  0  0  0  0  0
  -42.3364   57.6814   65.6141 C   0  0  0  0  0  0  0  0  0  0  0  0
  -43.5021   58.1851   66.4368 C   0  0  0  0  0  0  0  0  0  0  0  0
  -44.6426   57.2893   66.3293 N   0  0  0  0  0  0  0  0  0  0  0  0
  -46.0403   58.6561   67.4572 O   0  0  0  0  0  0  0  0  0  0  0  0
  -45.8366   57.5917   66.8505 C   0  0  0  0  0  0  0  0  0  0  0  0
  -44.5322   56.4323   65.8573 H   0  0  0  0  0  0  0  0  0  0  0  0
  -48.0197   56.6740   66.0988 C   0  0  0  0  0  0  0  0  0  0  0  0
  -46.8527   56.5248   66.7108 C   0  0  0  0  0  0  0  0  0  0  0  0
  -48.5489   57.8985   65.4197 C   0  0  0  0  0  0  0  0  0  0  0  0
  -49.2193   58.8460   66.4071 C   0  0  0  0  0  0  0  0  0  0  0  0
  -50.6218   59.2639   66.0004 C   0  0  0  0  0  0  0  0  0  0  0  0
  -50.6896   60.6552   65.3929 C   0  0  0  0  0  0  0  0  0  0  0  0
  -49.5050   61.0135   64.5155 C   0  0  0  0  0  0  0  0  0  0  0  0
  -49.5323   60.3359   63.1555 C   0  0  0  0  0  0  0  0  0  0  0  0
  -50.9313   60.0161   62.6662 C   0  0  0  0  0  0  0  0  0  0  0  0
  -51.1737   58.5309   62.4876 C   0  0  0  0  0  0  0  0  0  0  0  0
  -49.9533   57.7462   62.0459 C   0  0  0  0  0  0  0  0  0  0  0  0
  -50.2868   56.6620   61.0403 C   0  0  0  0  0  0  0  0  0  0  0  0
  -49.2073   56.4682   59.9879 C   0  0  0  0  0  0  0  0  0  0  0  0
  -49.1851   57.5432   58.9152 C   0  0  0  0  0  0  0  0  0  0  0  0
  -47.9881   58.4781   58.9930 C   0  0  0  0  0  0  0  0  0  0  0  0
  -46.6625   57.8141   58.6468 C   0  0  0  0  0  0  0  0  0  0  0  0
  -46.3727   57.7840   57.1547 C   0  0  0  0  0  0  0  0  0  0  0  0
  -47.2057   55.4231   56.8256 C   0  0  0  0  0  0  0  0  0  0  0  0
  -47.2702   56.8537   56.3591 C   0  0  0  0  0  0  0  0  0  0  0  0
 43 45  1  0  0  0
 43 42  1  0  0  0
 43 46  1  0  0  0
 64 65  1  0  0  0
 44 45  2  0  0  0
 65 63  1  0  0  0
  2  1  1  0  0  0
  2  4  1  0  0  0
  2  5  1  0  0  0
  3  4  2  0  0  0
 63 62  1  0  0  0
  6  8  1  0  0  0
  6 11  2  0  0  0
  7 10  1  0  0  0
  7 11  1  0  0  0
 62 61  1  0  0  0
 26 28  1  0  0  0
 26 32  1  0  0  0
 26 29  1  0  0  0
 12 18  1  0  0  0
 12 19  1  0  0  0
 61 60  1  0  0  0
 30 36  1  0  0  0
 30 37  1  0  0  0
 30 38  1  0  0  0
 20 21  2  0  0  0
 60 59  1  0  0  0
 22 21  1  0  0  0
 22 23  1  0  0  0
 59 58  1  0  0  0
 27 28  2  0  0  0
 58 57  1  0  0  0
 31 37  2  0  0  0
 57 56  1  0  0  0
 56 55  1  0  0  0
 55 54  1  0  0  0
 54 53  1  0  0  0
 53 52  1  0  0  0
 52 51  1  0  0  0
 51 50  1  0  0  0
 50 49  1  0  0  0
 49 47  1  0  0  0
 47 48  2  0  0  0
 48 45  1  0  0  0
 42 41  1  0  0  0
 41 40  1  0  0  0
 40 39  1  0  0  0
 39  1  1  0  0  0
  1 21  1  0  0  0
  8  4  1  0  0  0
  8  9  1  0  0  0
  8 10  1  0  0  0
 11 13  1  0  0  0
 13 14  2  0  0  0
 13 18  1  0  0  0
 14 15  1  0  0  0
 15 16  2  0  0  0
 16 17  1  0  0  0
 17 18  2  0  0  0
 23 24  1  0  0  0
 23 25  1  0  0  0
 25 28  1  0  0  0
 32 33  1  0  0  0
 32 37  1  0  0  0
 33 34  1  0  0  0
 34 35  1  0  0  0
 35 36  1  0  0  0
M  END
> <minimizedAffinity>
-10.64833

> <CNNscore>
0.2062360793

> <CNNaffinity>
7.6664175987

> <CNN_VS>
1.5810918808

> <CNNaffinity_variance>
1.1227265596

$$$$
/media/chris/experiments/cd1a-new-docking/inputs/ligands/7ryo_ligand.pdb


 65 67  0  0  0  0  0  0  0  0999 V2000
  -37.3375   60.1294   64.5061 C   0  0  0  0  0  0  0  0  0  0  0  0
  -36.5977   61.3727   64.6455 N   0  0  0  0  0  0  0  0  0  0  0  0
  -35.0926   60.4882   66.0620 O   0  0  0  0  0  0  0  0  0  0  0  0
  -35.5180   61.4423   65.4279 C   0  0  0  0  0  0  0  0  0  0  0  0
  -36.8964   62.1734   64.1569 H   0  0  0  0  0  0  0  0  0  0  0  0
  -33.5901   62.7985   64.7097 N   0  0  0  0  0  0  0  0  0  0  0  0
  -34.7162   64.6479   64.0812 O   0  0  0  0  0  0  0  0  0  0  0  0
  -34.8068   62.8011   65.5385 C   0  0  0  0  0  0  0  0  0  0  0  0
  -34.4160   63.0366   66.9945 C   0  0  0  0  0  0  0  0  0  0  0  0
  -35.6322   63.9679   64.9765 C   0  0  0  0  0  0  0  0  0  0  0  0
  -33.6417   63.8247   63.9656 C   0  0  0  0  0  0  0  0  0  0  0  0
  -32.4151   61.9598   62.1486 O   0  0  0  0  0  0  0  0  0  0  0  0
  -32.6378   64.2267   62.9774 C   0  0  0  0  0  0  0  0  0  0  0  0
  -32.3434   65.5774   62.7873 C   0  0  0  0  0  0  0  0  0  0  0  0
  -31.5871   65.9854   61.7020 C   0  0  0  0  0  0  0  0  0  0  0  0
  -31.1146   65.0625   60.7944 C   0  0  0  0  0  0  0  0  0  0  0  0
  -31.3962   63.7183   60.9574 C   0  0  0  0  0  0  0  0  0  0  0  0
  -32.1564   63.2890   62.0408 C   0  0  0  0  0  0  0  0  0  0  0  0
  -32.9242   61.6384   62.8666 H   0  0  0  0  0  0  0  0  0  0  0  0
  -39.0732   61.1370   65.8524 O   0  0  0  0  0  0  0  0  0  0  0  0
  -38.7079   60.2278   65.1596 C   0  0  0  0  0  0  0  0  0  0  0  0
  -39.4473   59.1429   64.8704 O   0  0  0  0  0  0  0  0  0  0  0  0
  -40.8982   59.2226   65.0668 C   0  0  0  0  0  0  0  0  0  0  0  0
  -41.1778   59.0969   66.5431 C   0  0  0  0  0  0  0  0  0  0  0  0
  -41.4810   58.0721   64.2693 C   0  0  0  0  0  0  0  0  0  0  0  0
  -43.7961   58.2010   64.9519 N   0  0  0  0  0  0  0  0  0  0  0  0
  -42.6502   56.3187   65.4049 O   0  0  0  0  0  0  0  0  0  0  0  0
  -42.6912   57.4501   64.9299 C   0  0  0  0  0  0  0  0  0  0  0  0
  -43.7700   59.1017   64.5553 H   0  0  0  0  0  0  0  0  0  0  0  0
  -47.3956   57.8309   64.9509 N   0  0  0  0  0  0  0  0  0  0  0  0
  -46.0173   59.4109   64.1542 O   0  0  0  0  0  0  0  0  0  0  0  0
  -45.0345   57.7265   65.5441 C   0  0  0  0  0  0  0  0  0  0  0  0
  -45.0794   58.0893   67.0327 C   0  0  0  0  0  0  0  0  0  0  0  0
  -46.0860   57.2685   67.8317 C   0  0  0  0  0  0  0  0  0  0  0  0
  -47.5336   57.4218   67.4090 C   0  0  0  0  0  0  0  0  0  0  0  0
  -47.8270   56.9240   66.0093 C   0  0  0  0  0  0  0  0  0  0  0  0
  -46.1932   58.3963   64.8225 C   0  0  0  0  0  0  0  0  0  0  0  0
  -48.0611   58.0487   64.2588 H   0  0  0  0  0  0  0  0  0  0  0  0
  -36.5476   58.9469   65.0689 C   0  0  0  0  0  0  0  0  0  0  0  0
  -36.3641   57.8317   64.0452 C   0  0  0  0  0  0  0  0  0  0  0  0
  -35.4047   58.1984   62.9282 C   0  0  0  0  0  0  0  0  0  0  0  0
  -35.9761   58.0642   61.5336 C   0  0  0  0  0  0  0  0  0  0  0  0
  -37.3494   57.5877   61.5758 N   0  0  0  0  0  0  0  0  0  0  0  0
  -38.2364   59.5677   60.9540 O   0  0  0  0  0  0  0  0  0  0  0  0
  -38.3866   58.3789   61.2810 C   0  0  0  0  0  0  0  0  0  0  0  0
  -37.5212   56.6520   61.8295 H   0  0  0  0  0  0  0  0  0  0  0  0
  -40.7365   57.9016   60.6304 C   0  0  0  0  0  0  0  0  0  0  0  0
  -39.7109   57.7417   61.4557 C   0  0  0  0  0  0  0  0  0  0  0  0
  -40.7843   58.7139   59.3740 C   0  0  0  0  0  0  0  0  0  0  0  0
  -41.8452   58.1987   58.4091 C   0  0  0  0  0  0  0  0  0  0  0  0
  -42.1280   59.1382   57.2497 C   0  0  0  0  0  0  0  0  0  0  0  0
  -43.5052   58.9493   56.6357 C   0  0  0  0  0  0  0  0  0  0  0  0
  -44.4912   58.2146   57.5243 C   0  0  0  0  0  0  0  0  0  0  0  0
  -45.9058   58.1920   56.9693 C   0  0  0  0  0  0  0  0  0  0  0  0
  -46.9720   58.4384   58.0186 C   0  0  0  0  0  0  0  0  0  0  0  0
  -47.9361   57.2790   58.1706 C   0  0  0  0  0  0  0  0  0  0  0  0
  -47.7962   56.5156   59.4735 C   0  0  0  0  0  0  0  0  0  0  0  0
  -49.1145   56.3600   60.2054 C   0  0  0  0  0  0  0  0  0  0  0  0
  -49.8620   57.6721   60.3791 C   0  0  0  0  0  0  0  0  0  0  0  0
  -51.1662   57.5474   61.1474 C   0  0  0  0  0  0  0  0  0  0  0  0
  -51.1638   58.2455   62.4986 C   0  0  0  0  0  0  0  0  0  0  0  0
  -49.7870   58.7136   62.9493 C   0  0  0  0  0  0  0  0  0  0  0  0
  -49.7559   60.1698   63.3846 C   0  0  0  0  0  0  0  0  0  0  0  0
  -50.5837   59.5780   65.6956 C   0  0  0  0  0  0  0  0  0  0  0  0
  -50.7085   60.5075   64.5171 C   0  0  0  0  0  0  0  0  0  0  0  0
 43 45  1  0  0  0
 43 42  1  0  0  0
 43 46  1  0  0  0
 64 65  1  0  0  0
 44 45  2  0  0  0
 65 63  1  0  0  0
  2  1  1  0  0  0
  2  4  1  0  0  0
  2  5  1  0  0  0
  3  4  2  0  0  0
 63 62  1  0  0  0
  6  8  1  0  0  0
  6 11  2  0  0  0
  7 10  1  0  0  0
  7 11  1  0  0  0
 62 61  1  0  0  0
 26 28  1  0  0  0
 26 32  1  0  0  0
 26 29  1  0  0  0
 12 18  1  0  0  0
 12 19  1  0  0  0
 61 60  1  0  0  0
 30 36  1  0  0  0
 30 37  1  0  0  0
 30 38  1  0  0  0
 20 21  2  0  0  0
 60 59  1  0  0  0
 22 21  1  0  0  0
 22 23  1  0  0  0
 59 58  1  0  0  0
 27 28  2  0  0  0
 58 57  1  0  0  0
 31 37  2  0  0  0
 57 56  1  0  0  0
 56 55  1  0  0  0
 55 54  1  0  0  0
 54 53  1  0  0  0
 53 52  1  0  0  0
 52 51  1  0  0  0
 51 50  1  0  0  0
 50 49  1  0  0  0
 49 47  1  0  0  0
 47 48  2  0  0  0
 48 45  1  0  0  0
 42 41  1  0  0  0
 41 40  1  0  0  0
 40 39  1  0  0  0
 39  1  1  0  0  0
  1 21  1  0  0  0
  8  4  1  0  0  0
  8  9  1  0  0  0
  8 10  1  0  0  0
 11 13  1  0  0  0
 13 14  2  0  0  0
 13 18  1  0  0  0
 14 15  1  0  0  0
 15 16  2  0  0  0
 16 17  1  0  0  0
 17 18  2  0  0  0
 23 24  1  0  0  0
 23 25  1  0  0  0
 25 28  1  0  0  0
 32 33  1  0  0  0
 32 37  1  0  0  0
 33 34  1  0  0  0
 34 35  1  0  0  0
 35 36  1  0  0  0
M  END
> <minimizedAffinity>
-8.21160

> <CNNscore>
0.2021463066

> <CNNaffinity>
7.3854813576

> <CNN_VS>
1.4929478168

> <CNNaffinity_variance>
1.1384689808

$$$$
/media/chris/experiments/cd1a-new-docking/inputs/ligands/7ryo_ligand.pdb


 65 67  0  0  0  0  0  0  0  0999 V2000
  -36.5273   58.2155   62.1445 C   0  0  0  0  0  0  0  0  0  0  0  0
  -37.4752   58.9504   62.9655 N   0  0  0  0  0  0  0  0  0  0  0  0
  -38.9498   57.2550   63.0379 O   0  0  0  0  0  0  0  0  0  0  0  0
  -38.6266   58.3923   63.3471 C   0  0  0  0  0  0  0  0  0  0  0  0
  -37.2656   59.8711   63.2438 H   0  0  0  0  0  0  0  0  0  0  0  0
  -40.9595   58.7390   64.0610 N   0  0  0  0  0  0  0  0  0  0  0  0
  -40.5994   58.8602   66.2833 O   0  0  0  0  0  0  0  0  0  0  0  0
  -39.5839   59.2463   64.1947 C   0  0  0  0  0  0  0  0  0  0  0  0
  -39.5346   60.6869   63.6943 C   0  0  0  0  0  0  0  0  0  0  0  0
  -39.3047   59.1592   65.7024 C   0  0  0  0  0  0  0  0  0  0  0  0
  -41.4096   58.5636   65.2340 C   0  0  0  0  0  0  0  0  0  0  0  0
  -42.8648   59.5051   67.5318 O   0  0  0  0  0  0  0  0  0  0  0  0
  -42.7439   58.0696   65.5825 C   0  0  0  0  0  0  0  0  0  0  0  0
  -43.4229   57.2137   64.7143 C   0  0  0  0  0  0  0  0  0  0  0  0
  -44.7651   56.9364   64.9087 C   0  0  0  0  0  0  0  0  0  0  0  0
  -45.4489   57.5020   65.9629 C   0  0  0  0  0  0  0  0  0  0  0  0
  -44.8003   58.3572   66.8350 C   0  0  0  0  0  0  0  0  0  0  0  0
  -43.4520   58.6498   66.6549 C   0  0  0  0  0  0  0  0  0  0  0  0
  -41.9582   59.7227   67.4382 H   0  0  0  0  0  0  0  0  0  0  0  0
  -34.2247   57.5802   62.5120 O   0  0  0  0  0  0  0  0  0  0  0  0
  -35.1064   58.3803   62.6626 C   0  0  0  0  0  0  0  0  0  0  0  0
  -34.9800   59.5391   63.3323 O   0  0  0  0  0  0  0  0  0  0  0  0
  -34.5829   59.4830   64.7426 C   0  0  0  0  0  0  0  0  0  0  0  0
  -34.6937   58.0515   65.2031 C   0  0  0  0  0  0  0  0  0  0  0  0
  -35.5443   60.4001   65.4733 C   0  0  0  0  0  0  0  0  0  0  0  0
  -34.1345   62.1485   64.5801 N   0  0  0  0  0  0  0  0  0  0  0  0
  -36.0865   62.7310   65.5350 O   0  0  0  0  0  0  0  0  0  0  0  0
  -35.2816   61.8651   65.2039 C   0  0  0  0  0  0  0  0  0  0  0  0
  -33.5271   61.4124   64.3386 H   0  0  0  0  0  0  0  0  0  0  0  0
  -33.1593   64.7005   62.2074 N   0  0  0  0  0  0  0  0  0  0  0  0
  -32.8338   62.4829   62.2933 O   0  0  0  0  0  0  0  0  0  0  0  0
  -33.7580   63.5115   64.2483 C   0  0  0  0  0  0  0  0  0  0  0  0
  -32.6810   64.0113   65.2177 C   0  0  0  0  0  0  0  0  0  0  0  0
  -32.5464   65.5299   65.2516 C   0  0  0  0  0  0  0  0  0  0  0  0
  -32.1409   66.1774   63.9424 C   0  0  0  0  0  0  0  0  0  0  0  0
  -33.1575   66.0193   62.8312 C   0  0  0  0  0  0  0  0  0  0  0  0
  -33.2096   63.5209   62.8302 C   0  0  0  0  0  0  0  0  0  0  0  0
  -33.1192   64.6781   61.2239 H   0  0  0  0  0  0  0  0  0  0  0  0
  -36.6250   58.6316   60.6761 C   0  0  0  0  0  0  0  0  0  0  0  0
  -38.0585   58.5970   60.1572 C   0  0  0  0  0  0  0  0  0  0  0  0
  -38.6723   59.9764   60.0062 C   0  0  0  0  0  0  0  0  0  0  0  0
  -40.1705   60.0285   60.2111 C   0  0  0  0  0  0  0  0  0  0  0  0
  -40.8715   60.0411   58.9369 N   0  0  0  0  0  0  0  0  0  0  0  0
  -41.4647   57.8663   59.0467 O   0  0  0  0  0  0  0  0  0  0  0  0
  -41.4716   58.9523   58.4440 C   0  0  0  0  0  0  0  0  0  0  0  0
  -40.9055   60.8787   58.4205 H   0  0  0  0  0  0  0  0  0  0  0  0
  -43.3094   58.8122   56.7778 C   0  0  0  0  0  0  0  0  0  0  0  0
  -42.0646   59.1362   57.1006 C   0  0  0  0  0  0  0  0  0  0  0  0
  -44.3640   58.2280   57.6649 C   0  0  0  0  0  0  0  0  0  0  0  0
  -45.7435   58.2950   57.0209 C   0  0  0  0  0  0  0  0  0  0  0  0
  -46.3651   56.9340   56.7596 C   0  0  0  0  0  0  0  0  0  0  0  0
  -47.8467   56.9957   56.4276 C   0  0  0  0  0  0  0  0  0  0  0  0
  -48.7522   57.1578   57.6340 C   0  0  0  0  0  0  0  0  0  0  0  0
  -48.1341   56.6520   58.9270 C   0  0  0  0  0  0  0  0  0  0  0  0
  -49.1371   56.4795   60.0508 C   0  0  0  0  0  0  0  0  0  0  0  0
  -50.0193   57.6951   60.2524 C   0  0  0  0  0  0  0  0  0  0  0  0
  -51.1768   57.4768   61.2078 C   0  0  0  0  0  0  0  0  0  0  0  0
  -50.9145   58.0505   62.5862 C   0  0  0  0  0  0  0  0  0  0  0  0
  -49.7143   58.9823   62.6290 C   0  0  0  0  0  0  0  0  0  0  0  0
  -50.0173   60.3605   63.1907 C   0  0  0  0  0  0  0  0  0  0  0  0
  -51.1771   60.3926   64.1740 C   0  0  0  0  0  0  0  0  0  0  0  0
  -50.7565   60.2454   65.6299 C   0  0  0  0  0  0  0  0  0  0  0  0
  -49.2522   60.3214   65.8354 C   0  0  0  0  0  0  0  0  0  0  0  0
  -49.3779   57.8126   66.0926 C   0  0  0  0  0  0  0  0  0  0  0  0
  -48.6381   59.0755   66.4475 C   0  0  0  0  0  0  0  0  0  0  0  0
 43 45  1  0  0  0
 43 42  1  0  0  0
 43 46  1  0  0  0
 64 65  1  0  0  0
 44 45  2  0  0  0
 65 63  1  0  0  0
  2  1  1  0  0  0
  2  4  1  0  0  0
  2  5  1  0  0  0
  3  4  2  0  0  0
 63 62  1  0  0  0
  6  8  1  0  0  0
  6 11  2  0  0  0
  7 10  1  0  0  0
  7 11  1  0  0  0
 62 61  1  0  0  0
 26 28  1  0  0  0
 26 32  1  0  0  0
 26 29  1  0  0  0
 12 18  1  0  0  0
 12 19  1  0  0  0
 61 60  1  0  0  0
 30 36  1  0  0  0
 30 37  1  0  0  0
 30 38  1  0  0  0
 20 21  2  0  0  0
 60 59  1  0  0  0
 22 21  1  0  0  0
 22 23  1  0  0  0
 59 58  1  0  0  0
 27 28  2  0  0  0
 58 57  1  0  0  0
 31 37  2  0  0  0
 57 56  1  0  0  0
 56 55  1  0  0  0
 55 54  1  0  0  0
 54 53  1  0  0  0
 53 52  1  0  0  0
 52 51  1  0  0  0
 51 50  1  0  0  0
 50 49  1  0  0  0
 49 47  1  0  0  0
 47 48  2  0  0  0
 48 45  1  0  0  0
 42 41  1  0  0  0
 41 40  1  0  0  0
 40 39  1  0  0  0
 39  1  1  0  0  0
  1 21  1  0  0  0
  8  4  1  0  0  0
  8  9  1  0  0  0
  8 10  1  0  0  0
 11 13  1  0  0  0
 13 14  2  0  0  0
 13 18  1  0  0  0
 14 15  1  0  0  0
 15 16  2  0  0  0
 16 17  1  0  0  0
 17 18  2  0  0  0
 23 24  1  0  0  0
 23 25  1  0  0  0
 25 28  1  0  0  0
 32 33  1  0  0  0
 32 37  1  0  0  0
 33 34  1  0  0  0
 34 35  1  0  0  0
 35 36  1  0  0  0
M  END
> <minimizedAffinity>
-8.29281

> <CNNscore>
0.1950424016

> <CNNaffinity>
7.4483366013

> <CNN_VS>
1.4527415037

> <CNNaffinity_variance>
0.8572015762

$$$$
