/media/chris/experiments/cd1a-new-docking/inputs/ligands/7ryo_ligand.pdb


 65 67  0  0  0  0  0  0  0  0999 V2000
  -36.6133   61.0109   65.0141 C   0  0  0  0  0  0  0  0  0  0  0  0
  -36.9108   59.9327   64.0859 N   0  0  0  0  0  0  0  0  0  0  0  0
  -35.1140   60.3475   62.8002 O   0  0  0  0  0  0  0  0  0  0  0  0
  -36.1174   59.6922   63.0394 C   0  0  0  0  0  0  0  0  0  0  0  0
  -37.7075   59.3727   64.2309 H   0  0  0  0  0  0  0  0  0  0  0  0
  -37.7114   57.8624   62.6119 N   0  0  0  0  0  0  0  0  0  0  0  0
  -38.2171   58.3713   60.4745 O   0  0  0  0  0  0  0  0  0  0  0  0
  -36.5164   58.5481   62.0930 C   0  0  0  0  0  0  0  0  0  0  0  0
  -35.3658   57.5494   62.0131 C   0  0  0  0  0  0  0  0  0  0  0  0
  -36.9458   59.0318   60.6999 C   0  0  0  0  0  0  0  0  0  0  0  0
  -38.5597   57.8233   61.6695 C   0  0  0  0  0  0  0  0  0  0  0  0
  -40.6504   58.4930   59.8083 O   0  0  0  0  0  0  0  0  0  0  0  0
  -39.8974   57.2300   61.7352 C   0  0  0  0  0  0  0  0  0  0  0  0
  -40.1617   56.1955   62.6337 C   0  0  0  0  0  0  0  0  0  0  0  0
  -41.3348   55.4667   62.5401 C   0  0  0  0  0  0  0  0  0  0  0  0
  -42.2579   55.7533   61.5580 C   0  0  0  0  0  0  0  0  0  0  0  0
  -42.0180   56.7706   60.6524 C   0  0  0  0  0  0  0  0  0  0  0  0
  -40.8438   57.5130   60.7289 C   0  0  0  0  0  0  0  0  0  0  0  0
  -39.8699   59.0110   59.8323 H   0  0  0  0  0  0  0  0  0  0  0  0
  -34.5595   60.0931   65.8974 O   0  0  0  0  0  0  0  0  0  0  0  0
  -35.1413   61.0166   65.3983 C   0  0  0  0  0  0  0  0  0  0  0  0
  -34.5858   62.2088   65.1204 O   0  0  0  0  0  0  0  0  0  0  0  0
  -34.2181   63.0787   66.2420 C   0  0  0  0  0  0  0  0  0  0  0  0
  -35.3509   63.0628   67.2370 C   0  0  0  0  0  0  0  0  0  0  0  0
  -34.0002   64.4523   65.6378 C   0  0  0  0  0  0  0  0  0  0  0  0
  -31.8856   65.5671   65.2797 N   0  0  0  0  0  0  0  0  0  0  0  0
  -32.6230   65.3240   67.3913 O   0  0  0  0  0  0  0  0  0  0  0  0
  -32.7748   65.1497   66.1854 C   0  0  0  0  0  0  0  0  0  0  0  0
  -31.0694   66.0242   65.5863 H   0  0  0  0  0  0  0  0  0  0  0  0
  -32.1001   63.4441   62.3573 N   0  0  0  0  0  0  0  0  0  0  0  0
  -30.9291   63.3110   64.2657 O   0  0  0  0  0  0  0  0  0  0  0  0
  -32.0888   65.3657   63.8557 C   0  0  0  0  0  0  0  0  0  0  0  0
  -31.2488   66.3685   63.0567 C   0  0  0  0  0  0  0  0  0  0  0  0
  -31.7181   66.5484   61.6170 C   0  0  0  0  0  0  0  0  0  0  0  0
  -31.6604   65.3045   60.7527 C   0  0  0  0  0  0  0  0  0  0  0  0
  -32.5852   64.1932   61.2030 C   0  0  0  0  0  0  0  0  0  0  0  0
  -31.6552   63.9500   63.5098 C   0  0  0  0  0  0  0  0  0  0  0  0
  -32.1009   62.4628   62.2779 H   0  0  0  0  0  0  0  0  0  0  0  0
  -37.5019   60.9352   66.2566 C   0  0  0  0  0  0  0  0  0  0  0  0
  -38.8515   60.2875   65.9663 C   0  0  0  0  0  0  0  0  0  0  0  0
  -39.5427   60.8685   64.7468 C   0  0  0  0  0  0  0  0  0  0  0  0
  -40.6205   59.9894   64.1512 C   0  0  0  0  0  0  0  0  0  0  0  0
  -41.0710   58.9934   65.1104 N   0  0  0  0  0  0  0  0  0  0  0  0
  -42.8756   58.3910   63.8960 O   0  0  0  0  0  0  0  0  0  0  0  0
  -42.1729   58.2618   64.9119 C   0  0  0  0  0  0  0  0  0  0  0  0
  -40.5478   58.8532   65.9325 H   0  0  0  0  0  0  0  0  0  0  0  0
  -43.7492   57.1313   66.4645 C   0  0  0  0  0  0  0  0  0  0  0  0
  -42.5162   57.3574   66.0320 C   0  0  0  0  0  0  0  0  0  0  0  0
  -45.0268   57.6997   65.9303 C   0  0  0  0  0  0  0  0  0  0  0  0
  -46.1657   57.5689   66.9341 C   0  0  0  0  0  0  0  0  0  0  0  0
  -47.5399   57.8246   66.3396 C   0  0  0  0  0  0  0  0  0  0  0  0
  -48.0007   59.2667   66.4713 C   0  0  0  0  0  0  0  0  0  0  0  0
  -49.3223   59.5663   65.7893 C   0  0  0  0  0  0  0  0  0  0  0  0
  -49.2531   60.7372   64.8230 C   0  0  0  0  0  0  0  0  0  0  0  0
  -50.0277   60.5098   63.5396 C   0  0  0  0  0  0  0  0  0  0  0  0
  -51.0814   59.4278   63.6647 C   0  0  0  0  0  0  0  0  0  0  0  0
  -50.8854   58.2520   62.7270 C   0  0  0  0  0  0  0  0  0  0  0  0
  -49.8816   58.5402   61.6283 C   0  0  0  0  0  0  0  0  0  0  0  0
  -49.0893   57.3145   61.2038 C   0  0  0  0  0  0  0  0  0  0  0  0
  -49.2149   56.9734   59.7292 C   0  0  0  0  0  0  0  0  0  0  0  0
  -48.5886   57.9979   58.7958 C   0  0  0  0  0  0  0  0  0  0  0  0
  -47.0670   57.9568   58.7657 C   0  0  0  0  0  0  0  0  0  0  0  0
  -46.4947   57.7669   57.3701 C   0  0  0  0  0  0  0  0  0  0  0  0
  -47.3880   55.4292   57.0340 C   0  0  0  0  0  0  0  0  0  0  0  0
  -47.2951   56.8288   56.4852 C   0  0  0  0  0  0  0  0  0  0  0  0
 43 45  1  0  0  0
 43 42  1  0  0  0
 43 46  1  0  0  0
 64 65  1  0  0  0
 44 45  2  0  0  0
 65 63  1  0  0  0
  2  1  1  0  0  0
  2  4  1  0  0  0
  2  5  1  0  0  0
  3  4  2  0  0  0
 63 62  1  0  0  0
  6  8  1  0  0  0
  6 11  2  0  0  0
  7 10  1  0  0  0
  7 11  1  0  0  0
 62 61  1  0  0  0
 26 28  1  0  0  0
 26 32  1  0  0  0
 26 29  1  0  0  0
 12 18  1  0  0  0
 12 19  1  0  0  0
 61 60  1  0  0  0
 30 36  1  0  0  0
 30 37  1  0  0  0
 30 38  1  0  0  0
 20 21  2  0  0  0
 60 59  1  0  0  0
 22 21  1  0  0  0
 22 23  1  0  0  0
 59 58  1  0  0  0
 27 28  2  0  0  0
 58 57  1  0  0  0
 31 37  2  0  0  0
 57 56  1  0  0  0
 56 55  1  0  0  0
 55 54  1  0  0  0
 54 53  1  0  0  0
 53 52  1  0  0  0
 52 51  1  0  0  0
 51 50  1  0  0  0
 50 49  1  0  0  0
 49 47  1  0  0  0
 47 48  2  0  0  0
 48 45  1  0  0  0
 42 41  1  0  0  0
 41 40  1  0  0  0
 40 39  1  0  0  0
 39  1  1  0  0  0
  1 21  1  0  0  0
  8  4  1  0  0  0
  8  9  1  0  0  0
  8 10  1  0  0  0
 11 13  1  0  0  0
 13 14  2  0  0  0
 13 18  1  0  0  0
 14 15  1  0  0  0
 15 16  2  0  0  0
 16 17  1  0  0  0
 17 18  2  0  0  0
 23 24  1  0  0  0
 23 25  1  0  0  0
 25 28  1  0  0  0
 32 33  1  0  0  0
 32 37  1  0  0  0
 33 34  1  0  0  0
 34 35  1  0  0  0
 35 36  1  0  0  0
M  END
> <minimizedAffinity>
-9.79136

> <CNNscore>
0.2681013048

> <CNNaffinity>
7.4998960495

> <CNN_VS>
2.0107319355

> <CNNaffinity_variance>
0.6367219687

$$$$
/media/chris/experiments/cd1a-new-docking/inputs/ligands/7ryo_ligand.pdb


 65 67  0  0  0  0  0  0  0  0999 V2000
  -40.2046   59.1597   62.2983 C   0  0  0  0  0  0  0  0  0  0  0  0
  -39.0955   59.3344   63.2212 N   0  0  0  0  0  0  0  0  0  0  0  0
  -39.7335   57.6292   64.5399 O   0  0  0  0  0  0  0  0  0  0  0  0
  -38.9561   58.5363   64.2825 C   0  0  0  0  0  0  0  0  0  0  0  0
  -38.4388   60.0504   63.0618 H   0  0  0  0  0  0  0  0  0  0  0  0
  -36.7522   59.6109   64.5271 N   0  0  0  0  0  0  0  0  0  0  0  0
  -37.1433   60.7074   66.4578 O   0  0  0  0  0  0  0  0  0  0  0  0
  -37.7686   58.8036   65.2218 C   0  0  0  0  0  0  0  0  0  0  0  0
  -37.1507   57.4693   65.6286 C   0  0  0  0  0  0  0  0  0  0  0  0
  -38.1399   59.6538   66.4459 C   0  0  0  0  0  0  0  0  0  0  0  0
  -36.4905   60.6047   65.2709 C   0  0  0  0  0  0  0  0  0  0  0  0
  -36.3372   61.8986   62.7046 O   0  0  0  0  0  0  0  0  0  0  0  0
  -35.5317   61.6731   64.9795 C   0  0  0  0  0  0  0  0  0  0  0  0
  -34.7429   62.2043   66.0008 C   0  0  0  0  0  0  0  0  0  0  0  0
  -34.0180   63.3657   65.7962 C   0  0  0  0  0  0  0  0  0  0  0  0
  -34.0652   64.0128   64.5806 C   0  0  0  0  0  0  0  0  0  0  0  0
  -34.8426   63.5094   63.5535 C   0  0  0  0  0  0  0  0  0  0  0  0
  -35.5802   62.3446   63.7405 C   0  0  0  0  0  0  0  0  0  0  0  0
  -36.8456   61.1170   62.7983 H   0  0  0  0  0  0  0  0  0  0  0  0
  -40.4175   58.4544   59.9965 O   0  0  0  0  0  0  0  0  0  0  0  0
  -39.7331   58.5758   60.9749 C   0  0  0  0  0  0  0  0  0  0  0  0
  -38.4468   58.1943   61.0592 O   0  0  0  0  0  0  0  0  0  0  0  0
  -37.4142   59.1458   60.6370 C   0  0  0  0  0  0  0  0  0  0  0  0
  -37.7117   59.5595   59.2179 C   0  0  0  0  0  0  0  0  0  0  0  0
  -36.0994   58.4000   60.7569 C   0  0  0  0  0  0  0  0  0  0  0  0
  -34.9116   57.5107   62.6651 N   0  0  0  0  0  0  0  0  0  0  0  0
  -37.0015   56.7777   62.2688 O   0  0  0  0  0  0  0  0  0  0  0  0
  -36.0472   57.4866   61.9614 C   0  0  0  0  0  0  0  0  0  0  0  0
  -34.8272   56.9315   63.4566 H   0  0  0  0  0  0  0  0  0  0  0  0
  -31.7287   58.0810   61.0411 N   0  0  0  0  0  0  0  0  0  0  0  0
  -32.6539   56.2826   62.0109 O   0  0  0  0  0  0  0  0  0  0  0  0
  -33.7982   58.3670   62.2953 C   0  0  0  0  0  0  0  0  0  0  0  0
  -33.3060   59.1485   63.5187 C   0  0  0  0  0  0  0  0  0  0  0  0
  -32.4729   60.3757   63.1650 C   0  0  0  0  0  0  0  0  0  0  0  0
  -31.1878   60.0957   62.4113 C   0  0  0  0  0  0  0  0  0  0  0  0
  -31.3939   59.5011   61.0339 C   0  0  0  0  0  0  0  0  0  0  0  0
  -32.6758   57.4861   61.7697 C   0  0  0  0  0  0  0  0  0  0  0  0
  -31.2007   57.5008   60.4462 H   0  0  0  0  0  0  0  0  0  0  0  0
  -40.9567   60.4732   62.0787 C   0  0  0  0  0  0  0  0  0  0  0  0
  -42.0101   60.7251   63.1522 C   0  0  0  0  0  0  0  0  0  0  0  0
  -41.5560   61.7080   64.2154 C   0  0  0  0  0  0  0  0  0  0  0  0
  -41.2658   61.0904   65.5658 C   0  0  0  0  0  0  0  0  0  0  0  0
  -41.7190   59.7094   65.6165 N   0  0  0  0  0  0  0  0  0  0  0  0
  -42.3421   59.8138   67.7833 O   0  0  0  0  0  0  0  0  0  0  0  0
  -42.2275   59.1679   66.7287 C   0  0  0  0  0  0  0  0  0  0  0  0
  -41.6492   59.1553   64.8058 H   0  0  0  0  0  0  0  0  0  0  0  0
  -43.6613   57.2578   66.0438 C   0  0  0  0  0  0  0  0  0  0  0  0
  -42.5603   57.7306   66.6119 C   0  0  0  0  0  0  0  0  0  0  0  0
  -44.7666   58.0349   65.3993 C   0  0  0  0  0  0  0  0  0  0  0  0
  -46.1320   57.6267   65.9386 C   0  0  0  0  0  0  0  0  0  0  0  0
  -46.7215   58.6165   66.9285 C   0  0  0  0  0  0  0  0  0  0  0  0
  -48.1222   59.0798   66.5642 C   0  0  0  0  0  0  0  0  0  0  0  0
  -49.0394   57.9748   66.0749 C   0  0  0  0  0  0  0  0  0  0  0  0
  -50.5041   58.3780   66.0330 C   0  0  0  0  0  0  0  0  0  0  0  0
  -50.7266   59.8037   65.5676 C   0  0  0  0  0  0  0  0  0  0  0  0
  -51.0390   59.9044   64.0882 C   0  0  0  0  0  0  0  0  0  0  0  0
  -49.8272   60.1406   63.2073 C   0  0  0  0  0  0  0  0  0  0  0  0
  -49.4258   58.9083   62.4210 C   0  0  0  0  0  0  0  0  0  0  0  0
  -50.6047   58.0230   62.0511 C   0  0  0  0  0  0  0  0  0  0  0  0
  -50.4107   57.2338   60.7682 C   0  0  0  0  0  0  0  0  0  0  0  0
  -49.6215   57.9691   59.6961 C   0  0  0  0  0  0  0  0  0  0  0  0
  -48.3654   57.2376   59.2431 C   0  0  0  0  0  0  0  0  0  0  0  0
  -47.3156   58.1561   58.6385 C   0  0  0  0  0  0  0  0  0  0  0  0
  -46.9933   56.1921   57.0845 C   0  0  0  0  0  0  0  0  0  0  0  0
  -46.7060   57.6476   57.3448 C   0  0  0  0  0  0  0  0  0  0  0  0
 43 45  1  0  0  0
 43 42  1  0  0  0
 43 46  1  0  0  0
 64 65  1  0  0  0
 44 45  2  0  0  0
 65 63  1  0  0  0
  2  1  1  0  0  0
  2  4  1  0  0  0
  2  5  1  0  0  0
  3  4  2  0  0  0
 63 62  1  0  0  0
  6  8  1  0  0  0
  6 11  2  0  0  0
  7 10  1  0  0  0
  7 11  1  0  0  0
 62 61  1  0  0  0
 26 28  1  0  0  0
 26 32  1  0  0  0
 26 29  1  0  0  0
 12 18  1  0  0  0
 12 19  1  0  0  0
 61 60  1  0  0  0
 30 36  1  0  0  0
 30 37  1  0  0  0
 30 38  1  0  0  0
 20 21  2  0  0  0
 60 59  1  0  0  0
 22 21  1  0  0  0
 22 23  1  0  0  0
 59 58  1  0  0  0
 27 28  2  0  0  0
 58 57  1  0  0  0
 31 37  2  0  0  0
 57 56  1  0  0  0
 56 55  1  0  0  0
 55 54  1  0  0  0
 54 53  1  0  0  0
 53 52  1  0  0  0
 52 51  1  0  0  0
 51 50  1  0  0  0
 50 49  1  0  0  0
 49 47  1  0  0  0
 47 48  2  0  0  0
 48 45  1  0  0  0
 42 41  1  0  0  0
 41 40  1  0  0  0
 40 39  1  0  0  0
 39  1  1  0  0  0
  1 21  1  0  0  0
  8  4  1  0  0  0
  8  9  1  0  0  0
  8 10  1  0  0  0
 11 13  1  0  0  0
 13 14  2  0  0  0
 13 18  1  0  0  0
 14 15  1  0  0  0
 15 16  2  0  0  0
 16 17  1  0  0  0
 17 18  2  0  0  0
 23 24  1  0  0  0
 23 25  1  0  0  0
 25 28  1  0  0  0
 32 33  1  0  0  0
 32 37  1  0  0  0
 33 34  1  0  0  0
 34 35  1  0  0  0
 35 36  1  0  0  0
M  END
> <minimizedAffinity>
-10.27295

> <CNNscore>
0.2672219574

> <CNNaffinity>
7.6424207687

> <CNN_VS>
2.0422227383

> <CNNaffinity_variance>
2.2029206753

$$$$
/media/chris/experiments/cd1a-new-docking/inputs/ligands/7ryo_ligand.pdb


 65 67  0  0  0  0  0  0  0  0999 V2000
  -41.1198   59.9522   64.5758 C   0  0  0  0  0  0  0  0  0  0  0  0
  -40.2582   59.1998   63.6791 N   0  0  0  0  0  0  0  0  0  0  0  0
  -41.1089   60.1507   61.8281 O   0  0  0  0  0  0  0  0  0  0  0  0
  -40.3314   59.3700   62.3568 C   0  0  0  0  0  0  0  0  0  0  0  0
  -39.6126   58.5566   64.0514 H   0  0  0  0  0  0  0  0  0  0  0  0
  -38.0135   58.9910   61.6116 N   0  0  0  0  0  0  0  0  0  0  0  0
  -37.9102   56.7730   62.0027 O   0  0  0  0  0  0  0  0  0  0  0  0
  -39.4012   58.5179   61.4779 C   0  0  0  0  0  0  0  0  0  0  0  0
  -39.8350   58.6555   60.0216 C   0  0  0  0  0  0  0  0  0  0  0  0
  -39.3316   57.0465   61.9128 C   0  0  0  0  0  0  0  0  0  0  0  0
  -37.2993   57.9817   61.8953 C   0  0  0  0  0  0  0  0  0  0  0  0
  -36.1265   57.6372   64.5009 O   0  0  0  0  0  0  0  0  0  0  0  0
  -35.8514   57.9827   62.1177 C   0  0  0  0  0  0  0  0  0  0  0  0
  -34.9757   58.0098   61.0315 C   0  0  0  0  0  0  0  0  0  0  0  0
  -33.6251   57.7666   61.2122 C   0  0  0  0  0  0  0  0  0  0  0  0
  -33.1269   57.4949   62.4679 C   0  0  0  0  0  0  0  0  0  0  0  0
  -33.9742   57.4578   63.5602 C   0  0  0  0  0  0  0  0  0  0  0  0
  -35.3352   57.6974   63.3985 C   0  0  0  0  0  0  0  0  0  0  0  0
  -37.0473   57.7935   64.4258 H   0  0  0  0  0  0  0  0  0  0  0  0
  -40.5968   60.5834   66.8493 O   0  0  0  0  0  0  0  0  0  0  0  0
  -40.3158   60.6172   65.6831 C   0  0  0  0  0  0  0  0  0  0  0  0
  -39.2561   61.2672   65.1714 O   0  0  0  0  0  0  0  0  0  0  0  0
  -37.9858   60.5428   65.0651 C   0  0  0  0  0  0  0  0  0  0  0  0
  -37.8195   59.7056   66.3081 C   0  0  0  0  0  0  0  0  0  0  0  0
  -36.9167   61.6110   64.9418 C   0  0  0  0  0  0  0  0  0  0  0  0
  -35.1707   62.3904   63.4630 N   0  0  0  0  0  0  0  0  0  0  0  0
  -36.7538   61.0288   62.6254 O   0  0  0  0  0  0  0  0  0  0  0  0
  -36.2782   61.6509   63.5712 C   0  0  0  0  0  0  0  0  0  0  0  0
  -34.7194   62.4509   62.5902 H   0  0  0  0  0  0  0  0  0  0  0  0
  -32.8759   64.7879   64.9052 N   0  0  0  0  0  0  0  0  0  0  0  0
  -32.7583   63.4369   63.1186 O   0  0  0  0  0  0  0  0  0  0  0  0
  -34.6137   63.1078   64.5965 C   0  0  0  0  0  0  0  0  0  0  0  0
  -34.2963   62.1305   65.7340 C   0  0  0  0  0  0  0  0  0  0  0  0
  -34.1436   62.8041   67.0935 C   0  0  0  0  0  0  0  0  0  0  0  0
  -33.0164   63.8122   67.1981 C   0  0  0  0  0  0  0  0  0  0  0  0
  -33.1868   65.0272   66.3105 C   0  0  0  0  0  0  0  0  0  0  0  0
  -33.3341   63.7925   64.1428 C   0  0  0  0  0  0  0  0  0  0  0  0
  -32.2641   65.4275   64.4741 H   0  0  0  0  0  0  0  0  0  0  0  0
  -42.2234   59.0677   65.1578 C   0  0  0  0  0  0  0  0  0  0  0  0
  -42.4886   57.8329   64.3033 C   0  0  0  0  0  0  0  0  0  0  0  0
  -43.2119   56.7307   65.0548 C   0  0  0  0  0  0  0  0  0  0  0  0
  -43.9552   57.1894   66.2903 C   0  0  0  0  0  0  0  0  0  0  0  0
  -45.3937   57.1395   66.0826 N   0  0  0  0  0  0  0  0  0  0  0  0
  -45.8421   58.7402   67.6093 O   0  0  0  0  0  0  0  0  0  0  0  0
  -46.2382   57.9236   66.7616 C   0  0  0  0  0  0  0  0  0  0  0  0
  -45.7577   56.5081   65.4207 H   0  0  0  0  0  0  0  0  0  0  0  0
  -48.3406   58.2312   65.4737 C   0  0  0  0  0  0  0  0  0  0  0  0
  -47.6685   57.6759   66.4729 C   0  0  0  0  0  0  0  0  0  0  0  0
  -47.8252   59.1819   64.4387 C   0  0  0  0  0  0  0  0  0  0  0  0
  -48.4350   60.5697   64.5939 C   0  0  0  0  0  0  0  0  0  0  0  0
  -49.8104   60.5667   65.2386 C   0  0  0  0  0  0  0  0  0  0  0  0
  -50.9480   60.4078   64.2437 C   0  0  0  0  0  0  0  0  0  0  0  0
  -51.1733   58.9832   63.7730 C   0  0  0  0  0  0  0  0  0  0  0  0
  -51.1777   58.8391   62.2601 C   0  0  0  0  0  0  0  0  0  0  0  0
  -49.8892   58.2668   61.7026 C   0  0  0  0  0  0  0  0  0  0  0  0
  -50.0083   57.8328   60.2556 C   0  0  0  0  0  0  0  0  0  0  0  0
  -48.6859   57.5030   59.5902 C   0  0  0  0  0  0  0  0  0  0  0  0
  -48.4009   56.0145   59.5598 C   0  0  0  0  0  0  0  0  0  0  0  0
  -48.1905   55.4732   58.1551 C   0  0  0  0  0  0  0  0  0  0  0  0
  -47.9353   56.5436   57.1084 C   0  0  0  0  0  0  0  0  0  0  0  0
  -46.4637   56.7904   56.8138 C   0  0  0  0  0  0  0  0  0  0  0  0
  -45.8326   57.8694   57.6828 C   0  0  0  0  0  0  0  0  0  0  0  0
  -44.9192   58.8091   56.9121 C   0  0  0  0  0  0  0  0  0  0  0  0
  -42.5571   59.3329   56.1896 C   0  0  0  0  0  0  0  0  0  0  0  0
  -43.4379   58.5862   57.1567 C   0  0  0  0  0  0  0  0  0  0  0  0
 43 45  1  0  0  0
 43 42  1  0  0  0
 43 46  1  0  0  0
 64 65  1  0  0  0
 44 45  2  0  0  0
 65 63  1  0  0  0
  2  1  1  0  0  0
  2  4  1  0  0  0
  2  5  1  0  0  0
  3  4  2  0  0  0
 63 62  1  0  0  0
  6  8  1  0  0  0
  6 11  2  0  0  0
  7 10  1  0  0  0
  7 11  1  0  0  0
 62 61  1  0  0  0
 26 28  1  0  0  0
 26 32  1  0  0  0
 26 29  1  0  0  0
 12 18  1  0  0  0
 12 19  1  0  0  0
 61 60  1  0  0  0
 30 36  1  0  0  0
 30 37  1  0  0  0
 30 38  1  0  0  0
 20 21  2  0  0  0
 60 59  1  0  0  0
 22 21  1  0  0  0
 22 23  1  0  0  0
 59 58  1  0  0  0
 27 28  2  0  0  0
 58 57  1  0  0  0
 31 37  2  0  0  0
 57 56  1  0  0  0
 56 55  1  0  0  0
 55 54  1  0  0  0
 54 53  1  0  0  0
 53 52  1  0  0  0
 52 51  1  0  0  0
 51 50  1  0  0  0
 50 49  1  0  0  0
 49 47  1  0  0  0
 47 48  2  0  0  0
 48 45  1  0  0  0
 42 41  1  0  0  0
 41 40  1  0  0  0
 40 39  1  0  0  0
 39  1  1  0  0  0
  1 21  1  0  0  0
  8  4  1  0  0  0
  8  9  1  0  0  0
  8 10  1  0  0  0
 11 13  1  0  0  0
 13 14  2  0  0  0
 13 18  1  0  0  0
 14 15  1  0  0  0
 15 16  2  0  0  0
 16 17  1  0  0  0
 17 18  2  0  0  0
 23 24  1  0  0  0
 23 25  1  0  0  0
 25 28  1  0  0  0
 32 33  1  0  0  0
 32 37  1  0  0  0
 33 34  1  0  0  0
 34 35  1  0  0  0
 35 36  1  0  0  0
M  END
> <minimizedAffinity>
-8.64179

> <CNNscore>
0.2231764197

> <CNNaffinity>
7.6845383644

> <CNN_VS>
1.7150077820

> <CNNaffinity_variance>
0.8492729068

$$$$
/media/chris/experiments/cd1a-new-docking/inputs/ligands/7ryo_ligand.pdb


 65 67  0  0  0  0  0  0  0  0999 V2000
  -35.9373   57.8446   62.1142 C   0  0  0  0  0  0  0  0  0  0  0  0
  -36.2093   58.6760   63.2749 N   0  0  0  0  0  0  0  0  0  0  0  0
  -38.1378   57.6262   63.7572 O   0  0  0  0  0  0  0  0  0  0  0  0
  -37.3091   58.4884   64.0085 C   0  0  0  0  0  0  0  0  0  0  0  0
  -35.5746   59.3865   63.5233 H   0  0  0  0  0  0  0  0  0  0  0  0
  -36.2469   59.9881   65.6500 N   0  0  0  0  0  0  0  0  0  0  0  0
  -37.5940   61.7741   65.3703 O   0  0  0  0  0  0  0  0  0  0  0  0
  -37.5332   59.4263   65.2060 C   0  0  0  0  0  0  0  0  0  0  0  0
  -38.1482   58.6270   66.3509 C   0  0  0  0  0  0  0  0  0  0  0  0
  -38.3754   60.6636   64.8611 C   0  0  0  0  0  0  0  0  0  0  0  0
  -36.3862   61.2479   65.7020 C   0  0  0  0  0  0  0  0  0  0  0  0
  -36.1954   63.8743   64.5404 O   0  0  0  0  0  0  0  0  0  0  0  0
  -35.3597   62.2152   66.0973 C   0  0  0  0  0  0  0  0  0  0  0  0
  -34.5131   61.9387   67.1717 C   0  0  0  0  0  0  0  0  0  0  0  0
  -33.7112   62.9317   67.7074 C   0  0  0  0  0  0  0  0  0  0  0  0
  -33.7378   64.2070   67.1864 C   0  0  0  0  0  0  0  0  0  0  0  0
  -34.5711   64.5082   66.1246 C   0  0  0  0  0  0  0  0  0  0  0  0
  -35.3863   63.5242   65.5739 C   0  0  0  0  0  0  0  0  0  0  0  0
  -36.7565   63.2350   64.1473 H   0  0  0  0  0  0  0  0  0  0  0  0
  -34.0553   56.4132   61.6143 O   0  0  0  0  0  0  0  0  0  0  0  0
  -34.4688   57.4524   62.0495 C   0  0  0  0  0  0  0  0  0  0  0  0
  -33.6978   58.4241   62.5677 O   0  0  0  0  0  0  0  0  0  0  0  0
  -32.5842   58.9288   61.7584 C   0  0  0  0  0  0  0  0  0  0  0  0
  -31.3653   58.0976   62.0701 C   0  0  0  0  0  0  0  0  0  0  0  0
  -32.4115   60.3800   62.1628 C   0  0  0  0  0  0  0  0  0  0  0  0
  -33.3705   62.0340   63.6418 N   0  0  0  0  0  0  0  0  0  0  0  0
  -33.5490   59.8631   64.2049 O   0  0  0  0  0  0  0  0  0  0  0  0
  -33.1583   60.7319   63.4302 C   0  0  0  0  0  0  0  0  0  0  0  0
  -33.8497   62.3145   64.4547 H   0  0  0  0  0  0  0  0  0  0  0  0
  -30.9284   64.4429   62.4898 N   0  0  0  0  0  0  0  0  0  0  0  0
  -31.4899   63.6828   64.5240 O   0  0  0  0  0  0  0  0  0  0  0  0
  -32.9141   63.0474   62.7067 C   0  0  0  0  0  0  0  0  0  0  0  0
  -34.0303   64.0656   62.4474 C   0  0  0  0  0  0  0  0  0  0  0  0
  -33.8285   64.8828   61.1759 C   0  0  0  0  0  0  0  0  0  0  0  0
  -32.5809   65.7433   61.1455 C   0  0  0  0  0  0  0  0  0  0  0  0
  -31.2859   64.9589   61.1727 C   0  0  0  0  0  0  0  0  0  0  0  0
  -31.7147   63.7531   63.3192 C   0  0  0  0  0  0  0  0  0  0  0  0
  -30.0111   64.6223   62.7993 H   0  0  0  0  0  0  0  0  0  0  0  0
  -36.3759   58.5347   60.8216 C   0  0  0  0  0  0  0  0  0  0  0  0
  -37.8670   58.3660   60.5508 C   0  0  0  0  0  0  0  0  0  0  0  0
  -38.6792   59.6018   60.8907 C   0  0  0  0  0  0  0  0  0  0  0  0
  -40.1649   59.3602   61.0450 C   0  0  0  0  0  0  0  0  0  0  0  0
  -40.4635   58.7484   62.3301 N   0  0  0  0  0  0  0  0  0  0  0  0
  -41.7829   60.4433   63.0235 O   0  0  0  0  0  0  0  0  0  0  0  0
  -41.2559   59.3381   63.2319 C   0  0  0  0  0  0  0  0  0  0  0  0
  -40.0696   57.8716   62.5432 H   0  0  0  0  0  0  0  0  0  0  0  0
  -42.4428   57.8969   64.8713 C   0  0  0  0  0  0  0  0  0  0  0  0
  -41.3799   58.6030   64.5104 C   0  0  0  0  0  0  0  0  0  0  0  0
  -43.7022   57.6735   64.0936 C   0  0  0  0  0  0  0  0  0  0  0  0
  -44.8551   57.2517   64.9962 C   0  0  0  0  0  0  0  0  0  0  0  0
  -44.9872   58.0910   66.2553 C   0  0  0  0  0  0  0  0  0  0  0  0
  -46.4185   58.4918   66.5716 C   0  0  0  0  0  0  0  0  0  0  0  0
  -47.4229   58.1282   65.4942 C   0  0  0  0  0  0  0  0  0  0  0  0
  -48.5617   57.2567   65.9975 C   0  0  0  0  0  0  0  0  0  0  0  0
  -49.8957   57.9751   66.0515 C   0  0  0  0  0  0  0  0  0  0  0  0
  -49.7736   59.4721   65.8502 C   0  0  0  0  0  0  0  0  0  0  0  0
  -50.5501   60.0094   64.6633 C   0  0  0  0  0  0  0  0  0  0  0  0
  -49.6665   60.2897   63.4639 C   0  0  0  0  0  0  0  0  0  0  0  0
  -50.2006   59.6908   62.1730 C   0  0  0  0  0  0  0  0  0  0  0  0
  -50.8099   58.3091   62.3345 C   0  0  0  0  0  0  0  0  0  0  0  0
  -50.8680   57.4983   61.0491 C   0  0  0  0  0  0  0  0  0  0  0  0
  -49.9081   57.9811   59.9705 C   0  0  0  0  0  0  0  0  0  0  0  0
  -48.8441   56.9582   59.6059 C   0  0  0  0  0  0  0  0  0  0  0  0
  -47.1941   58.1963   58.1498 C   0  0  0  0  0  0  0  0  0  0  0  0
  -47.4433   57.5278   59.4763 C   0  0  0  0  0  0  0  0  0  0  0  0
 43 45  1  0  0  0
 43 42  1  0  0  0
 43 46  1  0  0  0
 64 65  1  0  0  0
 44 45  2  0  0  0
 65 63  1  0  0  0
  2  1  1  0  0  0
  2  4  1  0  0  0
  2  5  1  0  0  0
  3  4  2  0  0  0
 63 62  1  0  0  0
  6  8  1  0  0  0
  6 11  2  0  0  0
  7 10  1  0  0  0
  7 11  1  0  0  0
 62 61  1  0  0  0
 26 28  1  0  0  0
 26 32  1  0  0  0
 26 29  1  0  0  0
 12 18  1  0  0  0
 12 19  1  0  0  0
 61 60  1  0  0  0
 30 36  1  0  0  0
 30 37  1  0  0  0
 30 38  1  0  0  0
 20 21  2  0  0  0
 60 59  1  0  0  0
 22 21  1  0  0  0
 22 23  1  0  0  0
 59 58  1  0  0  0
 27 28  2  0  0  0
 58 57  1  0  0  0
 31 37  2  0  0  0
 57 56  1  0  0  0
 56 55  1  0  0  0
 55 54  1  0  0  0
 54 53  1  0  0  0
 53 52  1  0  0  0
 52 51  1  0  0  0
 51 50  1  0  0  0
 50 49  1  0  0  0
 49 47  1  0  0  0
 47 48  2  0  0  0
 48 45  1  0  0  0
 42 41  1  0  0  0
 41 40  1  0  0  0
 40 39  1  0  0  0
 39  1  1  0  0  0
  1 21  1  0  0  0
  8  4  1  0  0  0
  8  9  1  0  0  0
  8 10  1  0  0  0
 11 13  1  0  0  0
 13 14  2  0  0  0
 13 18  1  0  0  0
 14 15  1  0  0  0
 15 16  2  0  0  0
 16 17  1  0  0  0
 17 18  2  0  0  0
 23 24  1  0  0  0
 23 25  1  0  0  0
 25 28  1  0  0  0
 32 33  1  0  0  0
 32 37  1  0  0  0
 33 34  1  0  0  0
 34 35  1  0  0  0
 35 36  1  0  0  0
M  END
> <minimizedAffinity>
-8.21581

> <CNNscore>
0.2149801552

> <CNNaffinity>
7.3054246902

> <CNN_VS>
1.5705213547

> <CNNaffinity_variance>
0.7656462193

$$$$
/media/chris/experiments/cd1a-new-docking/inputs/ligands/7ryo_ligand.pdb


 65 67  0  0  0  0  0  0  0  0999 V2000
  -38.7424   58.8692   65.2553 C   0  0  0  0  0  0  0  0  0  0  0  0
  -40.0513   58.9198   64.6255 N   0  0  0  0  0  0  0  0  0  0  0  0
  -40.1846   56.6884   64.3872 O   0  0  0  0  0  0  0  0  0  0  0  0
  -40.6688   57.8007   64.2394 C   0  0  0  0  0  0  0  0  0  0  0  0
  -40.4881   59.7904   64.4818 H   0  0  0  0  0  0  0  0  0  0  0  0
  -43.0834   57.3376   64.4039 N   0  0  0  0  0  0  0  0  0  0  0  0
  -43.8388   59.4126   63.9495 O   0  0  0  0  0  0  0  0  0  0  0  0
  -42.0405   57.9439   63.5599 C   0  0  0  0  0  0  0  0  0  0  0  0
  -42.0044   57.2199   62.2174 C   0  0  0  0  0  0  0  0  0  0  0  0
  -42.4944   59.4030   63.4058 C   0  0  0  0  0  0  0  0  0  0  0  0
  -43.9962   58.2058   64.5531 C   0  0  0  0  0  0  0  0  0  0  0  0
  -44.0514   57.0022   67.1669 O   0  0  0  0  0  0  0  0  0  0  0  0
  -45.2326   58.0364   65.3202 C   0  0  0  0  0  0  0  0  0  0  0  0
  -46.4258   58.5929   64.8578 C   0  0  0  0  0  0  0  0  0  0  0  0
  -47.5379   58.6524   65.6799 C   0  0  0  0  0  0  0  0  0  0  0  0
  -47.4816   58.1621   66.9665 C   0  0  0  0  0  0  0  0  0  0  0  0
  -46.3098   57.6096   67.4504 C   0  0  0  0  0  0  0  0  0  0  0  0
  -45.1808   57.5429   66.6401 C   0  0  0  0  0  0  0  0  0  0  0  0
  -43.2740   56.9427   66.6472 H   0  0  0  0  0  0  0  0  0  0  0  0
  -39.1696   61.0218   66.2675 O   0  0  0  0  0  0  0  0  0  0  0  0
  -38.3777   60.2093   65.8762 C   0  0  0  0  0  0  0  0  0  0  0  0
  -37.0430   60.3673   65.9070 O   0  0  0  0  0  0  0  0  0  0  0  0
  -36.4821   61.6152   65.3799 C   0  0  0  0  0  0  0  0  0  0  0  0
  -36.2353   61.4304   63.9039 C   0  0  0  0  0  0  0  0  0  0  0  0
  -35.1991   61.8446   66.1550 C   0  0  0  0  0  0  0  0  0  0  0  0
  -34.3533   64.0499   66.6688 N   0  0  0  0  0  0  0  0  0  0  0  0
  -36.0375   63.2323   67.9164 O   0  0  0  0  0  0  0  0  0  0  0  0
  -35.2350   63.1010   66.9964 C   0  0  0  0  0  0  0  0  0  0  0  0
  -34.3350   64.8857   67.1886 H   0  0  0  0  0  0  0  0  0  0  0  0
  -31.0160   64.1416   65.2732 N   0  0  0  0  0  0  0  0  0  0  0  0
  -32.0308   65.3097   66.8969 O   0  0  0  0  0  0  0  0  0  0  0  0
  -33.4211   63.8835   65.5674 C   0  0  0  0  0  0  0  0  0  0  0  0
  -33.9570   64.5836   64.3134 C   0  0  0  0  0  0  0  0  0  0  0  0
  -33.3081   64.1019   63.0203 C   0  0  0  0  0  0  0  0  0  0  0  0
  -31.8136   64.3328   62.9160 C   0  0  0  0  0  0  0  0  0  0  0  0
  -30.9951   63.5652   63.9330 C   0  0  0  0  0  0  0  0  0  0  0  0
  -32.0943   64.5075   65.9700 C   0  0  0  0  0  0  0  0  0  0  0  0
  -30.1434   64.2746   65.7093 H   0  0  0  0  0  0  0  0  0  0  0  0
  -37.6676   58.4146   64.2667 C   0  0  0  0  0  0  0  0  0  0  0  0
  -36.5288   57.6663   64.9512 C   0  0  0  0  0  0  0  0  0  0  0  0
  -35.1888   57.8629   64.2669 C   0  0  0  0  0  0  0  0  0  0  0  0
  -35.0821   57.2385   62.8928 C   0  0  0  0  0  0  0  0  0  0  0  0
  -35.4945   58.1758   61.8601 N   0  0  0  0  0  0  0  0  0  0  0  0
  -37.4786   57.1641   61.4942 O   0  0  0  0  0  0  0  0  0  0  0  0
  -36.6704   58.0698   61.2318 C   0  0  0  0  0  0  0  0  0  0  0  0
  -34.8885   58.9121   61.6157 H   0  0  0  0  0  0  0  0  0  0  0  0
  -37.9491   59.8458   60.0552 C   0  0  0  0  0  0  0  0  0  0  0  0
  -36.8815   59.0658   60.1576 C   0  0  0  0  0  0  0  0  0  0  0  0
  -39.1289   59.9103   60.9742 C   0  0  0  0  0  0  0  0  0  0  0  0
  -40.4438   59.7930   60.2130 C   0  0  0  0  0  0  0  0  0  0  0  0
  -40.4473   58.6985   59.1598 C   0  0  0  0  0  0  0  0  0  0  0  0
  -41.8194   58.4338   58.5625 C   0  0  0  0  0  0  0  0  0  0  0  0
  -42.0325   59.0433   57.1896 C   0  0  0  0  0  0  0  0  0  0  0  0
  -43.4716   58.9621   56.7081 C   0  0  0  0  0  0  0  0  0  0  0  0
  -44.3801   58.1878   57.6428 C   0  0  0  0  0  0  0  0  0  0  0  0
  -45.7711   57.9757   57.0799 C   0  0  0  0  0  0  0  0  0  0  0  0
  -46.8812   58.6011   57.9025 C   0  0  0  0  0  0  0  0  0  0  0  0
  -47.3746   57.6898   59.0088 C   0  0  0  0  0  0  0  0  0  0  0  0
  -48.8389   57.9055   59.3547 C   0  0  0  0  0  0  0  0  0  0  0  0
  -49.2864   57.2072   60.6269 C   0  0  0  0  0  0  0  0  0  0  0  0
  -50.7744   57.3302   60.9164 C   0  0  0  0  0  0  0  0  0  0  0  0
  -51.0949   58.1229   62.1761 C   0  0  0  0  0  0  0  0  0  0  0  0
  -49.8589   58.5683   62.9411 C   0  0  0  0  0  0  0  0  0  0  0  0
  -50.7219   60.5424   64.2580 C   0  0  0  0  0  0  0  0  0  0  0  0
  -49.7773   60.0639   63.1869 C   0  0  0  0  0  0  0  0  0  0  0  0
 43 45  1  0  0  0
 43 42  1  0  0  0
 43 46  1  0  0  0
 64 65  1  0  0  0
 44 45  2  0  0  0
 65 63  1  0  0  0
  2  1  1  0  0  0
  2  4  1  0  0  0
  2  5  1  0  0  0
  3  4  2  0  0  0
 63 62  1  0  0  0
  6  8  1  0  0  0
  6 11  2  0  0  0
  7 10  1  0  0  0
  7 11  1  0  0  0
 62 61  1  0  0  0
 26 28  1  0  0  0
 26 32  1  0  0  0
 26 29  1  0  0  0
 12 18  1  0  0  0
 12 19  1  0  0  0
 61 60  1  0  0  0
 30 36  1  0  0  0
 30 37  1  0  0  0
 30 38  1  0  0  0
 20 21  2  0  0  0
 60 59  1  0  0  0
 22 21  1  0  0  0
 22 23  1  0  0  0
 59 58  1  0  0  0
 27 28  2  0  0  0
 58 57  1  0  0  0
 31 37  2  0  0  0
 57 56  1  0  0  0
 56 55  1  0  0  0
 55 54  1  0  0  0
 54 53  1  0  0  0
 53 52  1  0  0  0
 52 51  1  0  0  0
 51 50  1  0  0  0
 50 49  1  0  0  0
 49 47  1  0  0  0
 47 48  2  0  0  0
 48 45  1  0  0  0
 42 41  1  0  0  0
 41 40  1  0  0  0
 40 39  1  0  0  0
 39  1  1  0  0  0
  1 21  1  0  0  0
  8  4  1  0  0  0
  8  9  1  0  0  0
  8 10  1  0  0  0
 11 13  1  0  0  0
 13 14  2  0  0  0
 13 18  1  0  0  0
 14 15  1  0  0  0
 15 16  2  0  0  0
 16 17  1  0  0  0
 17 18  2  0  0  0
 23 24  1  0  0  0
 23 25  1  0  0  0
 25 28  1  0  0  0
 32 33  1  0  0  0
 32 37  1  0  0  0
 33 34  1  0  0  0
 34 35  1  0  0  0
 35 36  1  0  0  0
M  END
> <minimizedAffinity>
-8.60670

> <CNNscore>
0.1925044656

> <CNNaffinity>
7.5593476295

> <CNN_VS>
1.4552081823

> <CNNaffinity_variance>
1.5192064047

$$$$
/media/chris/experiments/cd1a-new-docking/inputs/ligands/7ryo_ligand.pdb


 65 67  0  0  0  0  0  0  0  0999 V2000
  -34.8610   58.4932   63.9004 C   0  0  0  0  0  0  0  0  0  0  0  0
  -33.9832   59.5179   63.3602 N   0  0  0  0  0  0  0  0  0  0  0  0
  -32.2334   58.1206   63.1611 O   0  0  0  0  0  0  0  0  0  0  0  0
  -32.7206   59.2338   63.0317 C   0  0  0  0  0  0  0  0  0  0  0  0
  -34.3239   60.4330   63.2350 H   0  0  0  0  0  0  0  0  0  0  0  0
  -32.7084   61.5026   62.0703 N   0  0  0  0  0  0  0  0  0  0  0  0
  -31.1759   62.4239   63.4435 O   0  0  0  0  0  0  0  0  0  0  0  0
  -31.8521   60.3806   62.4891 C   0  0  0  0  0  0  0  0  0  0  0  0
  -31.0672   59.8769   61.2816 C   0  0  0  0  0  0  0  0  0  0  0  0
  -30.9281   60.9988   63.5489 C   0  0  0  0  0  0  0  0  0  0  0  0
  -32.2631   62.5460   62.6381 C   0  0  0  0  0  0  0  0  0  0  0  0
  -35.0652   63.1304   62.9382 O   0  0  0  0  0  0  0  0  0  0  0  0
  -32.8073   63.8997   62.5078 C   0  0  0  0  0  0  0  0  0  0  0  0
  -31.9476   64.9904   62.3716 C   0  0  0  0  0  0  0  0  0  0  0  0
  -32.4284   66.2828   62.4923 C   0  0  0  0  0  0  0  0  0  0  0  0
  -33.7632   66.5097   62.7484 C   0  0  0  0  0  0  0  0  0  0  0  0
  -34.6353   65.4461   62.8921 C   0  0  0  0  0  0  0  0  0  0  0  0
  -34.1707   64.1397   62.7764 C   0  0  0  0  0  0  0  0  0  0  0  0
  -34.7843   62.2393   62.8665 H   0  0  0  0  0  0  0  0  0  0  0  0
  -35.3633   56.9559   62.1045 O   0  0  0  0  0  0  0  0  0  0  0  0
  -35.7117   57.8643   62.8071 C   0  0  0  0  0  0  0  0  0  0  0  0
  -36.9028   58.4820   62.7223 O   0  0  0  0  0  0  0  0  0  0  0  0
  -37.2000   59.2472   61.5075 C   0  0  0  0  0  0  0  0  0  0  0  0
  -37.9307   60.5024   61.9125 C   0  0  0  0  0  0  0  0  0  0  0  0
  -38.0539   58.3340   60.6494 C   0  0  0  0  0  0  0  0  0  0  0  0
  -40.4536   58.6228   60.6251 N   0  0  0  0  0  0  0  0  0  0  0  0
  -39.2090   59.8927   59.2467 O   0  0  0  0  0  0  0  0  0  0  0  0
  -39.2880   59.0193   60.1061 C   0  0  0  0  0  0  0  0  0  0  0  0
  -41.2864   59.0367   60.3021 H   0  0  0  0  0  0  0  0  0  0  0  0
  -41.6761   55.4636   61.8974 N   0  0  0  0  0  0  0  0  0  0  0  0
  -42.5488   57.0005   60.5164 O   0  0  0  0  0  0  0  0  0  0  0  0
  -40.5271   57.5984   61.6522 C   0  0  0  0  0  0  0  0  0  0  0  0
  -40.7861   58.2411   63.0195 C   0  0  0  0  0  0  0  0  0  0  0  0
  -40.4356   57.3366   64.1960 C   0  0  0  0  0  0  0  0  0  0  0  0
  -41.2240   56.0448   64.2821 C   0  0  0  0  0  0  0  0  0  0  0  0
  -40.9846   55.0942   63.1279 C   0  0  0  0  0  0  0  0  0  0  0  0
  -41.6728   56.6605   61.3063 C   0  0  0  0  0  0  0  0  0  0  0  0
  -42.2002   54.7560   61.4570 H   0  0  0  0  0  0  0  0  0  0  0  0
  -35.7380   59.0487   65.0235 C   0  0  0  0  0  0  0  0  0  0  0  0
  -35.7599   60.5733   65.0425 C   0  0  0  0  0  0  0  0  0  0  0  0
  -36.9804   61.1443   65.7404 C   0  0  0  0  0  0  0  0  0  0  0  0
  -38.3055   60.7259   65.1418 C   0  0  0  0  0  0  0  0  0  0  0  0
  -39.2447   60.3290   66.1788 N   0  0  0  0  0  0  0  0  0  0  0  0
  -41.0332   61.2401   65.1467 O   0  0  0  0  0  0  0  0  0  0  0  0
  -40.5488   60.6168   66.1055 C   0  0  0  0  0  0  0  0  0  0  0  0
  -38.9096   59.8324   66.9600 H   0  0  0  0  0  0  0  0  0  0  0  0
  -42.3764   59.3836   67.2510 C   0  0  0  0  0  0  0  0  0  0  0  0
  -41.3338   60.2021   67.2896 C   0  0  0  0  0  0  0  0  0  0  0  0
  -42.9641   58.7033   66.0541 C   0  0  0  0  0  0  0  0  0  0  0  0
  -43.8824   57.5545   66.4525 C   0  0  0  0  0  0  0  0  0  0  0  0
  -45.3573   57.9175   66.4458 C   0  0  0  0  0  0  0  0  0  0  0  0
  -45.9494   58.0309   65.0509 C   0  0  0  0  0  0  0  0  0  0  0  0
  -47.0676   59.0486   64.9263 C   0  0  0  0  0  0  0  0  0  0  0  0
  -48.1175   58.9311   66.0187 C   0  0  0  0  0  0  0  0  0  0  0  0
  -49.4016   59.6743   65.7069 C   0  0  0  0  0  0  0  0  0  0  0  0
  -49.4072   60.2985   64.3260 C   0  0  0  0  0  0  0  0  0  0  0  0
  -50.6618   60.0230   63.5197 C   0  0  0  0  0  0  0  0  0  0  0  0
  -50.7553   58.5829   63.0557 C   0  0  0  0  0  0  0  0  0  0  0  0
  -49.5914   58.1605   62.1741 C   0  0  0  0  0  0  0  0  0  0  0  0
  -49.5402   58.8683   60.8314 C   0  0  0  0  0  0  0  0  0  0  0  0
  -49.9953   58.0146   59.6579 C   0  0  0  0  0  0  0  0  0  0  0  0
  -48.8677   57.2545   58.9733 C   0  0  0  0  0  0  0  0  0  0  0  0
  -47.5272   57.9682   59.0440 C   0  0  0  0  0  0  0  0  0  0  0  0
  -47.3644   57.2360   56.6329 C   0  0  0  0  0  0  0  0  0  0  0  0
  -46.8485   58.1646   57.7006 C   0  0  0  0  0  0  0  0  0  0  0  0
 43 45  1  0  0  0
 43 42  1  0  0  0
 43 46  1  0  0  0
 64 65  1  0  0  0
 44 45  2  0  0  0
 65 63  1  0  0  0
  2  1  1  0  0  0
  2  4  1  0  0  0
  2  5  1  0  0  0
  3  4  2  0  0  0
 63 62  1  0  0  0
  6  8  1  0  0  0
  6 11  2  0  0  0
  7 10  1  0  0  0
  7 11  1  0  0  0
 62 61  1  0  0  0
 26 28  1  0  0  0
 26 32  1  0  0  0
 26 29  1  0  0  0
 12 18  1  0  0  0
 12 19  1  0  0  0
 61 60  1  0  0  0
 30 36  1  0  0  0
 30 37  1  0  0  0
 30 38  1  0  0  0
 20 21  2  0  0  0
 60 59  1  0  0  0
 22 21  1  0  0  0
 22 23  1  0  0  0
 59 58  1  0  0  0
 27 28  2  0  0  0
 58 57  1  0  0  0
 31 37  2  0  0  0
 57 56  1  0  0  0
 56 55  1  0  0  0
 55 54  1  0  0  0
 54 53  1  0  0  0
 53 52  1  0  0  0
 52 51  1  0  0  0
 51 50  1  0  0  0
 50 49  1  0  0  0
 49 47  1  0  0  0
 47 48  2  0  0  0
 48 45  1  0  0  0
 42 41  1  0  0  0
 41 40  1  0  0  0
 40 39  1  0  0  0
 39  1  1  0  0  0
  1 21  1  0  0  0
  8  4  1  0  0  0
  8  9  1  0  0  0
  8 10  1  0  0  0
 11 13  1  0  0  0
 13 14  2  0  0  0
 13 18  1  0  0  0
 14 15  1  0  0  0
 15 16  2  0  0  0
 16 17  1  0  0  0
 17 18  2  0  0  0
 23 24  1  0  0  0
 23 25  1  0  0  0
 25 28  1  0  0  0
 32 33  1  0  0  0
 32 37  1  0  0  0
 33 34  1  0  0  0
 34 35  1  0  0  0
 35 36  1  0  0  0
M  END
> <minimizedAffinity>
-9.78796

> <CNNscore>
0.1702868342

> <CNNaffinity>
7.5681228638

> <CNN_VS>
1.2887517214

> <CNNaffinity_variance>
2.0769066811

$$$$
/media/chris/experiments/cd1a-new-docking/inputs/ligands/7ryo_ligand.pdb


 65 67  0  0  0  0  0  0  0  0999 V2000
  -40.4843   60.4987   65.4772 C   0  0  0  0  0  0  0  0  0  0  0  0
  -39.1989   60.6831   64.8242 N   0  0  0  0  0  0  0  0  0  0  0  0
  -38.0552   60.7100   66.7594 O   0  0  0  0  0  0  0  0  0  0  0  0
  -38.0750   60.7742   65.5392 C   0  0  0  0  0  0  0  0  0  0  0  0
  -39.1566   60.7415   63.8424 H   0  0  0  0  0  0  0  0  0  0  0  0
  -36.3328   62.3951   64.8996 N   0  0  0  0  0  0  0  0  0  0  0  0
  -34.5305   61.1826   65.5030 O   0  0  0  0  0  0  0  0  0  0  0  0
  -36.7604   60.9922   64.7723 C   0  0  0  0  0  0  0  0  0  0  0  0
  -36.9905   60.6746   63.2978 C   0  0  0  0  0  0  0  0  0  0  0  0
  -35.5805   60.1945   65.3472 C   0  0  0  0  0  0  0  0  0  0  0  0
  -35.1286   62.3851   65.2983 C   0  0  0  0  0  0  0  0  0  0  0  0
  -33.9212   62.8946   67.8607 O   0  0  0  0  0  0  0  0  0  0  0  0
  -34.2954   63.5610   65.5605 C   0  0  0  0  0  0  0  0  0  0  0  0
  -33.9383   64.4138   64.5153 C   0  0  0  0  0  0  0  0  0  0  0  0
  -32.9630   65.3790   64.6985 C   0  0  0  0  0  0  0  0  0  0  0  0
  -32.3318   65.5108   65.9163 C   0  0  0  0  0  0  0  0  0  0  0  0
  -32.6642   64.6753   66.9669 C   0  0  0  0  0  0  0  0  0  0  0  0
  -33.6403   63.6976   66.8017 C   0  0  0  0  0  0  0  0  0  0  0  0
  -34.5734   62.2264   67.7820 H   0  0  0  0  0  0  0  0  0  0  0  0
  -40.1173   58.1133   65.6024 O   0  0  0  0  0  0  0  0  0  0  0  0
  -40.8841   59.0310   65.5020 C   0  0  0  0  0  0  0  0  0  0  0  0
  -42.2162   58.9028   65.3744 O   0  0  0  0  0  0  0  0  0  0  0  0
  -43.0350   58.9505   66.5898 C   0  0  0  0  0  0  0  0  0  0  0  0
  -42.1596   59.4169   67.7254 C   0  0  0  0  0  0  0  0  0  0  0  0
  -43.5417   57.5361   66.7954 C   0  0  0  0  0  0  0  0  0  0  0  0
  -44.8554   56.9677   64.8477 N   0  0  0  0  0  0  0  0  0  0  0  0
  -42.8222   56.0323   65.0773 O   0  0  0  0  0  0  0  0  0  0  0  0
  -43.7051   56.7739   65.4992 C   0  0  0  0  0  0  0  0  0  0  0  0
  -45.0110   56.4916   64.0002 H   0  0  0  0  0  0  0  0  0  0  0  0
  -47.7352   57.6637   66.9252 N   0  0  0  0  0  0  0  0  0  0  0  0
  -47.0031   55.8131   65.8907 O   0  0  0  0  0  0  0  0  0  0  0  0
  -45.8829   57.8606   65.3542 C   0  0  0  0  0  0  0  0  0  0  0  0
  -46.5473   58.6108   64.1943 C   0  0  0  0  0  0  0  0  0  0  0  0
  -47.2944   59.8676   64.6276 C   0  0  0  0  0  0  0  0  0  0  0  0
  -48.4501   59.6421   65.5821 C   0  0  0  0  0  0  0  0  0  0  0  0
  -48.0410   59.0903   66.9317 C   0  0  0  0  0  0  0  0  0  0  0  0
  -46.9237   57.0233   66.0806 C   0  0  0  0  0  0  0  0  0  0  0  0
  -48.1732   57.1160   67.6162 H   0  0  0  0  0  0  0  0  0  0  0  0
  -41.5700   61.3495   64.8164 C   0  0  0  0  0  0  0  0  0  0  0  0
  -41.1433   61.8766   63.4506 C   0  0  0  0  0  0  0  0  0  0  0  0
  -41.4840   60.9320   62.3129 C   0  0  0  0  0  0  0  0  0  0  0  0
  -40.3703   60.7207   61.3107 C   0  0  0  0  0  0  0  0  0  0  0  0
  -39.5847   59.5431   61.6438 N   0  0  0  0  0  0  0  0  0  0  0  0
  -38.5343   59.4685   59.6475 O   0  0  0  0  0  0  0  0  0  0  0  0
  -38.7181   58.9990   60.7825 C   0  0  0  0  0  0  0  0  0  0  0  0
  -39.6943   59.1332   62.5322 H   0  0  0  0  0  0  0  0  0  0  0  0
  -38.6585   56.8559   62.0383 C   0  0  0  0  0  0  0  0  0  0  0  0
  -38.0694   57.7606   61.2682 C   0  0  0  0  0  0  0  0  0  0  0  0
  -40.0626   56.8679   62.5570 C   0  0  0  0  0  0  0  0  0  0  0  0
  -41.0319   56.2199   61.5760 C   0  0  0  0  0  0  0  0  0  0  0  0
  -41.8770   57.2156   60.8004 C   0  0  0  0  0  0  0  0  0  0  0  0
  -41.4391   57.3895   59.3556 C   0  0  0  0  0  0  0  0  0  0  0  0
  -41.7870   58.7382   58.7542 C   0  0  0  0  0  0  0  0  0  0  0  0
  -41.9769   58.6979   57.2469 C   0  0  0  0  0  0  0  0  0  0  0  0
  -43.3788   59.0671   56.8032 C   0  0  0  0  0  0  0  0  0  0  0  0
  -44.4073   58.0053   57.1373 C   0  0  0  0  0  0  0  0  0  0  0  0
  -45.8004   58.5442   57.4003 C   0  0  0  0  0  0  0  0  0  0  0  0
  -46.8788   57.4955   57.2130 C   0  0  0  0  0  0  0  0  0  0  0  0
  -47.1876   56.7199   58.4832 C   0  0  0  0  0  0  0  0  0  0  0  0
  -47.9511   57.5159   59.5272 C   0  0  0  0  0  0  0  0  0  0  0  0
  -49.2789   56.8972   59.9362 C   0  0  0  0  0  0  0  0  0  0  0  0
  -50.3490   57.9169   60.3008 C   0  0  0  0  0  0  0  0  0  0  0  0
  -50.9798   57.6710   61.6620 C   0  0  0  0  0  0  0  0  0  0  0  0
  -49.9879   59.9420   62.1464 C   0  0  0  0  0  0  0  0  0  0  0  0
  -50.6138   58.6973   62.7187 C   0  0  0  0  0  0  0  0  0  0  0  0
 43 45  1  0  0  0
 43 42  1  0  0  0
 43 46  1  0  0  0
 64 65  1  0  0  0
 44 45  2  0  0  0
 65 63  1  0  0  0
  2  1  1  0  0  0
  2  4  1  0  0  0
  2  5  1  0  0  0
  3  4  2  0  0  0
 63 62  1  0  0  0
  6  8  1  0  0  0
  6 11  2  0  0  0
  7 10  1  0  0  0
  7 11  1  0  0  0
 62 61  1  0  0  0
 26 28  1  0  0  0
 26 32  1  0  0  0
 26 29  1  0  0  0
 12 18  1  0  0  0
 12 19  1  0  0  0
 61 60  1  0  0  0
 30 36  1  0  0  0
 30 37  1  0  0  0
 30 38  1  0  0  0
 20 21  2  0  0  0
 60 59  1  0  0  0
 22 21  1  0  0  0
 22 23  1  0  0  0
 59 58  1  0  0  0
 27 28  2  0  0  0
 58 57  1  0  0  0
 31 37  2  0  0  0
 57 56  1  0  0  0
 56 55  1  0  0  0
 55 54  1  0  0  0
 54 53  1  0  0  0
 53 52  1  0  0  0
 52 51  1  0  0  0
 51 50  1  0  0  0
 50 49  1  0  0  0
 49 47  1  0  0  0
 47 48  2  0  0  0
 48 45  1  0  0  0
 42 41  1  0  0  0
 41 40  1  0  0  0
 40 39  1  0  0  0
 39  1  1  0  0  0
  1 21  1  0  0  0
  8  4  1  0  0  0
  8  9  1  0  0  0
  8 10  1  0  0  0
 11 13  1  0  0  0
 13 14  2  0  0  0
 13 18  1  0  0  0
 14 15  1  0  0  0
 15 16  2  0  0  0
 16 17  1  0  0  0
 17 18  2  0  0  0
 23 24  1  0  0  0
 23 25  1  0  0  0
 25 28  1  0  0  0
 32 33  1  0  0  0
 32 37  1  0  0  0
 33 34  1  0  0  0
 34 35  1  0  0  0
 35 36  1  0  0  0
M  END
> <minimizedAffinity>
-8.32103

> <CNNscore>
0.1542702913

> <CNNaffinity>
7.5032424927

> <CNN_VS>
1.1575274467

> <CNNaffinity_variance>
1.9917923212

$$$$
/media/chris/experiments/cd1a-new-docking/inputs/ligands/7ryo_ligand.pdb


 65 67  0  0  0  0  0  0  0  0999 V2000
  -39.9565   60.1088   65.6683 C   0  0  0  0  0  0  0  0  0  0  0  0
  -38.7284   60.4825   64.9867 N   0  0  0  0  0  0  0  0  0  0  0  0
  -37.5967   60.8188   66.8999 O   0  0  0  0  0  0  0  0  0  0  0  0
  -37.6346   60.8112   65.6784 C   0  0  0  0  0  0  0  0  0  0  0  0
  -38.7028   60.4935   64.0026 H   0  0  0  0  0  0  0  0  0  0  0  0
  -35.3794   60.1430   64.9442 N   0  0  0  0  0  0  0  0  0  0  0  0
  -35.6128   60.5896   62.7467 O   0  0  0  0  0  0  0  0  0  0  0  0
  -36.3844   61.2169   64.8808 C   0  0  0  0  0  0  0  0  0  0  0  0
  -35.7970   62.4842   65.4944 C   0  0  0  0  0  0  0  0  0  0  0  0
  -36.6492   61.3843   63.3772 C   0  0  0  0  0  0  0  0  0  0  0  0
  -35.0353   59.8809   63.7517 C   0  0  0  0  0  0  0  0  0  0  0  0
  -35.4445   58.1501   61.4889 O   0  0  0  0  0  0  0  0  0  0  0  0
  -34.0538   58.8759   63.3366 C   0  0  0  0  0  0  0  0  0  0  0  0
  -32.8028   58.8221   63.9526 C   0  0  0  0  0  0  0  0  0  0  0  0
  -31.7875   58.0504   63.4141 C   0  0  0  0  0  0  0  0  0  0  0  0
  -31.9989   57.3244   62.2622 C   0  0  0  0  0  0  0  0  0  0  0  0
  -33.2282   57.3640   61.6298 C   0  0  0  0  0  0  0  0  0  0  0  0
  -34.2604   58.1355   62.1545 C   0  0  0  0  0  0  0  0  0  0  0  0
  -36.1596   58.6596   61.8160 H   0  0  0  0  0  0  0  0  0  0  0  0
  -39.5419   57.7284   65.7205 O   0  0  0  0  0  0  0  0  0  0  0  0
  -40.2791   58.6374   65.4549 C   0  0  0  0  0  0  0  0  0  0  0  0
  -41.4985   58.4966   64.9068 O   0  0  0  0  0  0  0  0  0  0  0  0
  -42.6698   58.7489   65.7519 C   0  0  0  0  0  0  0  0  0  0  0  0
  -42.5514   57.8882   66.9843 C   0  0  0  0  0  0  0  0  0  0  0  0
  -43.8714   58.3798   64.9038 C   0  0  0  0  0  0  0  0  0  0  0  0
  -45.5379   56.6956   65.3821 N   0  0  0  0  0  0  0  0  0  0  0  0
  -43.4605   56.0222   64.8412 O   0  0  0  0  0  0  0  0  0  0  0  0
  -44.2666   56.9264   65.0418 C   0  0  0  0  0  0  0  0  0  0  0  0
  -45.8435   55.7658   65.4875 H   0  0  0  0  0  0  0  0  0  0  0  0
  -48.5498   58.0506   66.8606 N   0  0  0  0  0  0  0  0  0  0  0  0
  -47.9624   55.9912   66.1939 O   0  0  0  0  0  0  0  0  0  0  0  0
  -46.4819   57.7776   65.6009 C   0  0  0  0  0  0  0  0  0  0  0  0
  -46.8517   58.4321   64.2650 C   0  0  0  0  0  0  0  0  0  0  0  0
  -47.4562   59.8242   64.4134 C   0  0  0  0  0  0  0  0  0  0  0  0
  -48.7582   59.8902   65.1868 C   0  0  0  0  0  0  0  0  0  0  0  0
  -48.6357   59.4907   66.6423 C   0  0  0  0  0  0  0  0  0  0  0  0
  -47.7304   57.1956   66.2446 C   0  0  0  0  0  0  0  0  0  0  0  0
  -49.1601   57.6696   67.5327 H   0  0  0  0  0  0  0  0  0  0  0  0
  -41.1254   60.9932   65.2316 C   0  0  0  0  0  0  0  0  0  0  0  0
  -40.8416   61.7265   63.9250 C   0  0  0  0  0  0  0  0  0  0  0  0
  -41.5850   61.1417   62.7384 C   0  0  0  0  0  0  0  0  0  0  0  0
  -40.7003   60.5096   61.6862 C   0  0  0  0  0  0  0  0  0  0  0  0
  -40.1956   59.2213   62.1339 N   0  0  0  0  0  0  0  0  0  0  0  0
  -38.3195   59.3294   60.8839 O   0  0  0  0  0  0  0  0  0  0  0  0
  -39.0344   58.7215   61.6974 C   0  0  0  0  0  0  0  0  0  0  0  0
  -40.7260   58.7002   62.7792 H   0  0  0  0  0  0  0  0  0  0  0  0
  -39.6340   56.4458   62.4944 C   0  0  0  0  0  0  0  0  0  0  0  0
  -38.7242   57.3653   62.2023 C   0  0  0  0  0  0  0  0  0  0  0  0
  -41.1216   56.5555   62.3682 C   0  0  0  0  0  0  0  0  0  0  0  0
  -41.5996   56.1673   60.9745 C   0  0  0  0  0  0  0  0  0  0  0  0
  -42.1411   57.3328   60.1649 C   0  0  0  0  0  0  0  0  0  0  0  0
  -41.1590   57.8663   59.1352 C   0  0  0  0  0  0  0  0  0  0  0  0
  -41.6759   59.0421   58.3277 C   0  0  0  0  0  0  0  0  0  0  0  0
  -42.2291   58.6465   56.9687 C   0  0  0  0  0  0  0  0  0  0  0  0
  -43.6676   59.0743   56.7526 C   0  0  0  0  0  0  0  0  0  0  0  0
  -44.6714   58.0241   57.1838 C   0  0  0  0  0  0  0  0  0  0  0  0
  -46.0674   58.5597   57.4381 C   0  0  0  0  0  0  0  0  0  0  0  0
  -47.1460   57.5234   57.1924 C   0  0  0  0  0  0  0  0  0  0  0  0
  -46.9956   56.2845   58.0600 C   0  0  0  0  0  0  0  0  0  0  0  0
  -48.0625   56.1429   59.1315 C   0  0  0  0  0  0  0  0  0  0  0  0
  -48.3245   57.4146   59.9235 C   0  0  0  0  0  0  0  0  0  0  0  0
  -49.7671   57.8968   59.8578 C   0  0  0  0  0  0  0  0  0  0  0  0
  -50.6087   57.4495   61.0422 C   0  0  0  0  0  0  0  0  0  0  0  0
  -50.0584   59.7816   61.8389 C   0  0  0  0  0  0  0  0  0  0  0  0
  -50.6669   58.4477   62.1842 C   0  0  0  0  0  0  0  0  0  0  0  0
 43 45  1  0  0  0
 43 42  1  0  0  0
 43 46  1  0  0  0
 64 65  1  0  0  0
 44 45  2  0  0  0
 65 63  1  0  0  0
  2  1  1  0  0  0
  2  4  1  0  0  0
  2  5  1  0  0  0
  3  4  2  0  0  0
 63 62  1  0  0  0
  6  8  1  0  0  0
  6 11  2  0  0  0
  7 10  1  0  0  0
  7 11  1  0  0  0
 62 61  1  0  0  0
 26 28  1  0  0  0
 26 32  1  0  0  0
 26 29  1  0  0  0
 12 18  1  0  0  0
 12 19  1  0  0  0
 61 60  1  0  0  0
 30 36  1  0  0  0
 30 37  1  0  0  0
 30 38  1  0  0  0
 20 21  2  0  0  0
 60 59  1  0  0  0
 22 21  1  0  0  0
 22 23  1  0  0  0
 59 58  1  0  0  0
 27 28  2  0  0  0
 58 57  1  0  0  0
 31 37  2  0  0  0
 57 56  1  0  0  0
 56 55  1  0  0  0
 55 54  1  0  0  0
 54 53  1  0  0  0
 53 52  1  0  0  0
 52 51  1  0  0  0
 51 50  1  0  0  0
 50 49  1  0  0  0
 49 47  1  0  0  0
 47 48  2  0  0  0
 48 45  1  0  0  0
 42 41  1  0  0  0
 41 40  1  0  0  0
 40 39  1  0  0  0
 39  1  1  0  0  0
  1 21  1  0  0  0
  8  4  1  0  0  0
  8  9  1  0  0  0
  8 10  1  0  0  0
 11 13  1  0  0  0
 13 14  2  0  0  0
 13 18  1  0  0  0
 14 15  1  0  0  0
 15 16  2  0  0  0
 16 17  1  0  0  0
 17 18  2  0  0  0
 23 24  1  0  0  0
 23 25  1  0  0  0
 25 28  1  0  0  0
 32 33  1  0  0  0
 32 37  1  0  0  0
 33 34  1  0  0  0
 34 35  1  0  0  0
 35 36  1  0  0  0
M  END
> <minimizedAffinity>
-8.06066

> <CNNscore>
0.1507846862

> <CNNaffinity>
7.6999864578

> <CNN_VS>
1.1610400677

> <CNNaffinity_variance>
2.4431023598

$$$$
/media/chris/experiments/cd1a-new-docking/inputs/ligands/7ryo_ligand.pdb


 65 67  0  0  0  0  0  0  0  0999 V2000
  -36.2844   61.1315   65.1117 C   0  0  0  0  0  0  0  0  0  0  0  0
  -36.5834   60.0941   64.1387 N   0  0  0  0  0  0  0  0  0  0  0  0
  -36.5107   61.5075   62.3920 O   0  0  0  0  0  0  0  0  0  0  0  0
  -36.6717   60.3810   62.8376 C   0  0  0  0  0  0  0  0  0  0  0  0
  -36.7225   59.1681   64.4428 H   0  0  0  0  0  0  0  0  0  0  0  0
  -38.0084   58.3390   62.4987 N   0  0  0  0  0  0  0  0  0  0  0  0
  -38.8716   58.8529   60.4804 O   0  0  0  0  0  0  0  0  0  0  0  0
  -37.0147   59.2301   61.8776 C   0  0  0  0  0  0  0  0  0  0  0  0
  -35.7457   58.4342   61.5878 C   0  0  0  0  0  0  0  0  0  0  0  0
  -37.6983   59.6989   60.5847 C   0  0  0  0  0  0  0  0  0  0  0  0
  -38.9606   58.2051   61.6712 C   0  0  0  0  0  0  0  0  0  0  0  0
  -41.1478   58.2047   59.8005 O   0  0  0  0  0  0  0  0  0  0  0  0
  -40.1696   57.4018   61.8678 C   0  0  0  0  0  0  0  0  0  0  0  0
  -40.2389   56.4855   62.9180 C   0  0  0  0  0  0  0  0  0  0  0  0
  -41.2626   55.5553   62.9718 C   0  0  0  0  0  0  0  0  0  0  0  0
  -42.2277   55.5220   61.9888 C   0  0  0  0  0  0  0  0  0  0  0  0
  -42.1793   56.4163   60.9350 C   0  0  0  0  0  0  0  0  0  0  0  0
  -41.1570   57.3572   60.8621 C   0  0  0  0  0  0  0  0  0  0  0  0
  -40.4728   58.8500   59.7220 H   0  0  0  0  0  0  0  0  0  0  0  0
  -34.3252   61.7335   66.3922 O   0  0  0  0  0  0  0  0  0  0  0  0
  -34.9188   60.9146   65.7463 C   0  0  0  0  0  0  0  0  0  0  0  0
  -34.4584   59.6833   65.4652 O   0  0  0  0  0  0  0  0  0  0  0  0
  -33.7432   59.4844   64.2007 C   0  0  0  0  0  0  0  0  0  0  0  0
  -32.8559   58.2745   64.3506 C   0  0  0  0  0  0  0  0  0  0  0  0
  -32.9501   60.7572   63.9766 C   0  0  0  0  0  0  0  0  0  0  0  0
  -32.0301   62.0752   62.1713 N   0  0  0  0  0  0  0  0  0  0  0  0
  -32.2006   59.8492   61.8921 O   0  0  0  0  0  0  0  0  0  0  0  0
  -32.3638   60.8494   62.5854 C   0  0  0  0  0  0  0  0  0  0  0  0
  -31.6472   62.1882   61.2715 H   0  0  0  0  0  0  0  0  0  0  0  0
  -33.0794   65.5005   62.6812 N   0  0  0  0  0  0  0  0  0  0  0  0
  -32.2487   64.3993   60.9126 O   0  0  0  0  0  0  0  0  0  0  0  0
  -32.2164   63.2457   63.0109 C   0  0  0  0  0  0  0  0  0  0  0  0
  -30.9429   63.5232   63.8177 C   0  0  0  0  0  0  0  0  0  0  0  0
  -31.1710   64.4190   65.0304 C   0  0  0  0  0  0  0  0  0  0  0  0
  -31.6799   65.8135   64.7238 C   0  0  0  0  0  0  0  0  0  0  0  0
  -33.0586   65.8468   64.0984 C   0  0  0  0  0  0  0  0  0  0  0  0
  -32.5163   64.4333   62.1101 C   0  0  0  0  0  0  0  0  0  0  0  0
  -33.5589   66.1186   62.0835 H   0  0  0  0  0  0  0  0  0  0  0  0
  -37.3751   61.2219   66.1801 C   0  0  0  0  0  0  0  0  0  0  0  0
  -38.4479   60.1523   66.0061 C   0  0  0  0  0  0  0  0  0  0  0  0
  -39.8182   60.7258   65.6960 C   0  0  0  0  0  0  0  0  0  0  0  0
  -40.6921   59.8446   64.8305 C   0  0  0  0  0  0  0  0  0  0  0  0
  -41.4150   58.8736   65.6364 N   0  0  0  0  0  0  0  0  0  0  0  0
  -42.9671   58.4582   64.0513 O   0  0  0  0  0  0  0  0  0  0  0  0
  -42.5071   58.2468   65.1854 C   0  0  0  0  0  0  0  0  0  0  0  0
  -41.0899   58.6711   66.5433 H   0  0  0  0  0  0  0  0  0  0  0  0
  -44.4555   57.3156   66.4140 C   0  0  0  0  0  0  0  0  0  0  0  0
  -43.1519   57.3542   66.1742 C   0  0  0  0  0  0  0  0  0  0  0  0
  -45.5332   58.1182   65.7544 C   0  0  0  0  0  0  0  0  0  0  0  0
  -46.8691   57.3852   65.7650 C   0  0  0  0  0  0  0  0  0  0  0  0
  -48.0415   58.2403   65.3163 C   0  0  0  0  0  0  0  0  0  0  0  0
  -49.1253   58.3881   66.3712 C   0  0  0  0  0  0  0  0  0  0  0  0
  -50.4985   58.7166   65.8161 C   0  0  0  0  0  0  0  0  0  0  0  0
  -50.6664   60.1802   65.4431 C   0  0  0  0  0  0  0  0  0  0  0  0
  -51.1098   60.3926   64.0089 C   0  0  0  0  0  0  0  0  0  0  0  0
  -51.0912   59.1202   63.1861 C   0  0  0  0  0  0  0  0  0  0  0  0
  -49.7957   58.8792   62.4352 C   0  0  0  0  0  0  0  0  0  0  0  0
  -49.8107   59.4669   61.0380 C   0  0  0  0  0  0  0  0  0  0  0  0
  -49.7960   58.4119   59.9439 C   0  0  0  0  0  0  0  0  0  0  0  0
  -50.0057   56.9938   60.4453 C   0  0  0  0  0  0  0  0  0  0  0  0
  -48.9239   56.0140   60.0175 C   0  0  0  0  0  0  0  0  0  0  0  0
  -47.6793   56.6792   59.4462 C   0  0  0  0  0  0  0  0  0  0  0  0
  -47.3162   56.1882   58.0539 C   0  0  0  0  0  0  0  0  0  0  0  0
  -46.4811   58.4913   57.4421 C   0  0  0  0  0  0  0  0  0  0  0  0
  -47.2562   57.2781   56.9993 C   0  0  0  0  0  0  0  0  0  0  0  0
 43 45  1  0  0  0
 43 42  1  0  0  0
 43 46  1  0  0  0
 64 65  1  0  0  0
 44 45  2  0  0  0
 65 63  1  0  0  0
  2  1  1  0  0  0
  2  4  1  0  0  0
  2  5  1  0  0  0
  3  4  2  0  0  0
 63 62  1  0  0  0
  6  8  1  0  0  0
  6 11  2  0  0  0
  7 10  1  0  0  0
  7 11  1  0  0  0
 62 61  1  0  0  0
 26 28  1  0  0  0
 26 32  1  0  0  0
 26 29  1  0  0  0
 12 18  1  0  0  0
 12 19  1  0  0  0
 61 60  1  0  0  0
 30 36  1  0  0  0
 30 37  1  0  0  0
 30 38  1  0  0  0
 20 21  2  0  0  0
 60 59  1  0  0  0
 22 21  1  0  0  0
 22 23  1  0  0  0
 59 58  1  0  0  0
 27 28  2  0  0  0
 58 57  1  0  0  0
 31 37  2  0  0  0
 57 56  1  0  0  0
 56 55  1  0  0  0
 55 54  1  0  0  0
 54 53  1  0  0  0
 53 52  1  0  0  0
 52 51  1  0  0  0
 51 50  1  0  0  0
 50 49  1  0  0  0
 49 47  1  0  0  0
 47 48  2  0  0  0
 48 45  1  0  0  0
 42 41  1  0  0  0
 41 40  1  0  0  0
 40 39  1  0  0  0
 39  1  1  0  0  0
  1 21  1  0  0  0
  8  4  1  0  0  0
  8  9  1  0  0  0
  8 10  1  0  0  0
 11 13  1  0  0  0
 13 14  2  0  0  0
 13 18  1  0  0  0
 14 15  1  0  0  0
 15 16  2  0  0  0
 16 17  1  0  0  0
 17 18  2  0  0  0
 23 24  1  0  0  0
 23 25  1  0  0  0
 25 28  1  0  0  0
 32 33  1  0  0  0
 32 37  1  0  0  0
 33 34  1  0  0  0
 34 35  1  0  0  0
 35 36  1  0  0  0
M  END
> <minimizedAffinity>
-9.66945

> <CNNscore>
0.1406925470

> <CNNaffinity>
7.2674803734

> <CNN_VS>
1.0224803686

> <CNNaffinity_variance>
1.0652567148

$$$$
