/media/chris/experiments/cd1a-new-docking/inputs/ligands/7ryo_ligand.pdb


 65 67  0  0  0  0  0  0  0  0999 V2000
  -39.8587   60.1652   64.3484 C   0  0  0  0  0  0  0  0  0  0  0  0
  -38.9732   59.3442   63.5395 N   0  0  0  0  0  0  0  0  0  0  0  0
  -39.0932   60.7114   61.7589 O   0  0  0  0  0  0  0  0  0  0  0  0
  -38.6629   59.6984   62.2900 C   0  0  0  0  0  0  0  0  0  0  0  0
  -38.5974   58.5164   63.9176 H   0  0  0  0  0  0  0  0  0  0  0  0
  -36.3436   59.2193   61.6095 N   0  0  0  0  0  0  0  0  0  0  0  0
  -36.2876   57.0381   62.1772 O   0  0  0  0  0  0  0  0  0  0  0  0
  -37.7383   58.7621   61.4946 C   0  0  0  0  0  0  0  0  0  0  0  0
  -38.1514   58.7910   60.0262 C   0  0  0  0  0  0  0  0  0  0  0  0
  -37.7022   57.3292   62.0461 C   0  0  0  0  0  0  0  0  0  0  0  0
  -35.6523   58.2231   61.9824 C   0  0  0  0  0  0  0  0  0  0  0  0
  -34.5047   58.7816   64.5621 O   0  0  0  0  0  0  0  0  0  0  0  0
  -34.2076   58.2157   62.2241 C   0  0  0  0  0  0  0  0  0  0  0  0
  -33.3322   57.7901   61.2241 C   0  0  0  0  0  0  0  0  0  0  0  0
  -32.0006   57.5466   61.5135 C   0  0  0  0  0  0  0  0  0  0  0  0
  -31.5215   57.7218   62.7935 C   0  0  0  0  0  0  0  0  0  0  0  0
  -32.3692   58.1385   63.8035 C   0  0  0  0  0  0  0  0  0  0  0  0
  -33.7112   58.3862   63.5329 C   0  0  0  0  0  0  0  0  0  0  0  0
  -35.4131   58.9565   64.4130 H   0  0  0  0  0  0  0  0  0  0  0  0
  -39.6779   59.5154   66.6691 O   0  0  0  0  0  0  0  0  0  0  0  0
  -39.3626   60.2613   65.7834 C   0  0  0  0  0  0  0  0  0  0  0  0
  -38.5368   61.3123   65.9275 O   0  0  0  0  0  0  0  0  0  0  0  0
  -37.0975   61.0891   65.7592 C   0  0  0  0  0  0  0  0  0  0  0  0
  -36.3782   61.8239   66.8620 C   0  0  0  0  0  0  0  0  0  0  0  0
  -36.7585   61.6347   64.3856 C   0  0  0  0  0  0  0  0  0  0  0  0
  -35.0537   63.2363   64.9945 N   0  0  0  0  0  0  0  0  0  0  0  0
  -34.4985   61.5607   63.5997 O   0  0  0  0  0  0  0  0  0  0  0  0
  -35.3361   62.1393   64.2861 C   0  0  0  0  0  0  0  0  0  0  0  0
  -35.7662   63.6580   65.5272 H   0  0  0  0  0  0  0  0  0  0  0  0
  -32.0598   64.3336   66.7051 N   0  0  0  0  0  0  0  0  0  0  0  0
  -34.2156   64.2152   67.3125 O   0  0  0  0  0  0  0  0  0  0  0  0
  -33.7257   63.8246   65.0012 C   0  0  0  0  0  0  0  0  0  0  0  0
  -33.7169   65.1145   64.1732 C   0  0  0  0  0  0  0  0  0  0  0  0
  -32.3217   65.5554   63.7439 C   0  0  0  0  0  0  0  0  0  0  0  0
  -31.3644   65.8797   64.8734 C   0  0  0  0  0  0  0  0  0  0  0  0
  -31.0169   64.6954   65.7510 C   0  0  0  0  0  0  0  0  0  0  0  0
  -33.3542   64.1421   66.4410 C   0  0  0  0  0  0  0  0  0  0  0  0
  -31.7793   64.2187   67.6418 H   0  0  0  0  0  0  0  0  0  0  0  0
  -41.2961   59.6447   64.3010 C   0  0  0  0  0  0  0  0  0  0  0  0
  -41.3836   58.1533   64.6063 C   0  0  0  0  0  0  0  0  0  0  0  0
  -42.7705   57.5788   64.3850 C   0  0  0  0  0  0  0  0  0  0  0  0
  -43.7086   57.7175   65.5640 C   0  0  0  0  0  0  0  0  0  0  0  0
  -44.8786   56.8688   65.4028 N   0  0  0  0  0  0  0  0  0  0  0  0
  -47.0464   56.4254   65.8472 O   0  0  0  0  0  0  0  0  0  0  0  0
  -46.0520   57.1582   65.9755 C   0  0  0  0  0  0  0  0  0  0  0  0
  -44.8043   56.0547   64.8541 H   0  0  0  0  0  0  0  0  0  0  0  0
  -47.1763   59.1527   66.9405 C   0  0  0  0  0  0  0  0  0  0  0  0
  -46.0782   58.4504   66.6967 C   0  0  0  0  0  0  0  0  0  0  0  0
  -48.5860   58.8067   66.5751 C   0  0  0  0  0  0  0  0  0  0  0  0
  -49.0741   59.6169   65.3804 C   0  0  0  0  0  0  0  0  0  0  0  0
  -50.5323   60.0314   65.4749 C   0  0  0  0  0  0  0  0  0  0  0  0
  -51.1758   60.3044   64.1257 C   0  0  0  0  0  0  0  0  0  0  0  0
  -50.3314   59.8920   62.9346 C   0  0  0  0  0  0  0  0  0  0  0  0
  -50.7225   58.5433   62.3534 C   0  0  0  0  0  0  0  0  0  0  0  0
  -49.5607   57.7906   61.7348 C   0  0  0  0  0  0  0  0  0  0  0  0
  -49.2903   58.1908   60.2982 C   0  0  0  0  0  0  0  0  0  0  0  0
  -48.8250   57.0537   59.4090 C   0  0  0  0  0  0  0  0  0  0  0  0
  -48.0474   57.5362   58.2004 C   0  0  0  0  0  0  0  0  0  0  0  0
  -46.5824   57.8088   58.5001 C   0  0  0  0  0  0  0  0  0  0  0  0
  -45.8558   58.5719   57.4063 C   0  0  0  0  0  0  0  0  0  0  0  0
  -44.4510   58.0651   57.1192 C   0  0  0  0  0  0  0  0  0  0  0  0
  -43.4562   59.1650   56.7746 C   0  0  0  0  0  0  0  0  0  0  0  0
  -42.0074   58.7614   56.9964 C   0  0  0  0  0  0  0  0  0  0  0  0
  -41.2080   59.7656   59.1710 C   0  0  0  0  0  0  0  0  0  0  0  0
  -41.6388   58.5163   58.4484 C   0  0  0  0  0  0  0  0  0  0  0  0
 43 45  1  0  0  0
 43 42  1  0  0  0
 43 46  1  0  0  0
 64 65  1  0  0  0
 44 45  2  0  0  0
 65 63  1  0  0  0
  2  1  1  0  0  0
  2  4  1  0  0  0
  2  5  1  0  0  0
  3  4  2  0  0  0
 63 62  1  0  0  0
  6  8  1  0  0  0
  6 11  2  0  0  0
  7 10  1  0  0  0
  7 11  1  0  0  0
 62 61  1  0  0  0
 26 28  1  0  0  0
 26 32  1  0  0  0
 26 29  1  0  0  0
 12 18  1  0  0  0
 12 19  1  0  0  0
 61 60  1  0  0  0
 30 36  1  0  0  0
 30 37  1  0  0  0
 30 38  1  0  0  0
 20 21  2  0  0  0
 60 59  1  0  0  0
 22 21  1  0  0  0
 22 23  1  0  0  0
 59 58  1  0  0  0
 27 28  2  0  0  0
 58 57  1  0  0  0
 31 37  2  0  0  0
 57 56  1  0  0  0
 56 55  1  0  0  0
 55 54  1  0  0  0
 54 53  1  0  0  0
 53 52  1  0  0  0
 52 51  1  0  0  0
 51 50  1  0  0  0
 50 49  1  0  0  0
 49 47  1  0  0  0
 47 48  2  0  0  0
 48 45  1  0  0  0
 42 41  1  0  0  0
 41 40  1  0  0  0
 40 39  1  0  0  0
 39  1  1  0  0  0
  1 21  1  0  0  0
  8  4  1  0  0  0
  8  9  1  0  0  0
  8 10  1  0  0  0
 11 13  1  0  0  0
 13 14  2  0  0  0
 13 18  1  0  0  0
 14 15  1  0  0  0
 15 16  2  0  0  0
 16 17  1  0  0  0
 17 18  2  0  0  0
 23 24  1  0  0  0
 23 25  1  0  0  0
 25 28  1  0  0  0
 32 33  1  0  0  0
 32 37  1  0  0  0
 33 34  1  0  0  0
 34 35  1  0  0  0
 35 36  1  0  0  0
M  END
> <minimizedAffinity>
-8.41075

> <CNNscore>
0.3176569045

> <CNNaffinity>
7.4851045609

> <CNN_VS>
2.3776950836

> <CNNaffinity_variance>
0.8303670883

$$$$
/media/chris/experiments/cd1a-new-docking/inputs/ligands/7ryo_ligand.pdb


 65 67  0  0  0  0  0  0  0  0999 V2000
  -38.8703   60.0368   65.1023 C   0  0  0  0  0  0  0  0  0  0  0  0
  -38.1210   59.3814   64.0433 N   0  0  0  0  0  0  0  0  0  0  0  0
  -39.1421   60.5359   62.4066 O   0  0  0  0  0  0  0  0  0  0  0  0
  -38.3284   59.6964   62.7624 C   0  0  0  0  0  0  0  0  0  0  0  0
  -37.4521   58.6966   64.2733 H   0  0  0  0  0  0  0  0  0  0  0  0
  -36.0909   59.3159   61.8029 N   0  0  0  0  0  0  0  0  0  0  0  0
  -36.0986   57.0620   61.8570 O   0  0  0  0  0  0  0  0  0  0  0  0
  -37.5107   58.9394   61.7029 C   0  0  0  0  0  0  0  0  0  0  0  0
  -38.0284   59.3160   60.3180 C   0  0  0  0  0  0  0  0  0  0  0  0
  -37.5033   57.4179   61.9119 C   0  0  0  0  0  0  0  0  0  0  0  0
  -35.4229   58.2403   61.8831 C   0  0  0  0  0  0  0  0  0  0  0  0
  -33.7795   60.3906   62.8625 O   0  0  0  0  0  0  0  0  0  0  0  0
  -33.9665   58.1342   61.9971 C   0  0  0  0  0  0  0  0  0  0  0  0
  -33.3325   56.9133   61.7632 C   0  0  0  0  0  0  0  0  0  0  0  0
  -32.0018   56.7369   62.1010 C   0  0  0  0  0  0  0  0  0  0  0  0
  -31.2848   57.7654   62.6727 C   0  0  0  0  0  0  0  0  0  0  0  0
  -31.8908   58.9839   62.9191 C   0  0  0  0  0  0  0  0  0  0  0  0
  -33.2280   59.1797   62.5887 C   0  0  0  0  0  0  0  0  0  0  0  0
  -34.6778   60.5546   62.6523 H   0  0  0  0  0  0  0  0  0  0  0  0
  -37.7279   60.5234   67.1756 O   0  0  0  0  0  0  0  0  0  0  0  0
  -37.9478   60.8114   66.0315 C   0  0  0  0  0  0  0  0  0  0  0  0
  -37.4279   61.8776   65.3988 O   0  0  0  0  0  0  0  0  0  0  0  0
  -35.9808   61.9052   65.1648 C   0  0  0  0  0  0  0  0  0  0  0  0
  -35.4042   60.5979   65.6465 C   0  0  0  0  0  0  0  0  0  0  0  0
  -35.4626   63.0906   65.9559 C   0  0  0  0  0  0  0  0  0  0  0  0
  -34.4010   63.9093   63.9447 N   0  0  0  0  0  0  0  0  0  0  0  0
  -33.3670   64.2471   65.9140 O   0  0  0  0  0  0  0  0  0  0  0  0
  -34.3132   63.7981   65.2732 C   0  0  0  0  0  0  0  0  0  0  0  0
  -35.1837   63.5296   63.4837 H   0  0  0  0  0  0  0  0  0  0  0  0
  -33.2834   66.5499   61.7374 N   0  0  0  0  0  0  0  0  0  0  0  0
  -35.2549   65.5175   62.0164 O   0  0  0  0  0  0  0  0  0  0  0  0
  -33.3747   64.5742   63.1610 C   0  0  0  0  0  0  0  0  0  0  0  0
  -32.6171   63.5504   62.3081 C   0  0  0  0  0  0  0  0  0  0  0  0
  -31.2646   64.0500   61.8118 C   0  0  0  0  0  0  0  0  0  0  0  0
  -31.3108   65.2656   60.9075 C   0  0  0  0  0  0  0  0  0  0  0  0
  -31.8333   66.5184   61.5790 C   0  0  0  0  0  0  0  0  0  0  0  0
  -34.0527   65.5891   62.2541 C   0  0  0  0  0  0  0  0  0  0  0  0
  -33.7424   67.3651   61.4311 H   0  0  0  0  0  0  0  0  0  0  0  0
  -39.7178   59.0334   65.8859 C   0  0  0  0  0  0  0  0  0  0  0  0
  -41.1729   59.4730   66.0077 C   0  0  0  0  0  0  0  0  0  0  0  0
  -41.7336   60.0455   64.7192 C   0  0  0  0  0  0  0  0  0  0  0  0
  -42.2182   59.0124   63.7256 C   0  0  0  0  0  0  0  0  0  0  0  0
  -42.1782   57.6769   64.3000 N   0  0  0  0  0  0  0  0  0  0  0  0
  -43.2541   55.8624   65.1022 O   0  0  0  0  0  0  0  0  0  0  0  0
  -43.2905   56.9976   64.5998 C   0  0  0  0  0  0  0  0  0  0  0  0
  -41.3037   57.2592   64.4736 H   0  0  0  0  0  0  0  0  0  0  0  0
  -45.4872   58.0627   65.0617 C   0  0  0  0  0  0  0  0  0  0  0  0
  -44.5460   57.6778   64.2105 C   0  0  0  0  0  0  0  0  0  0  0  0
  -45.4891   57.9218   66.5518 C   0  0  0  0  0  0  0  0  0  0  0  0
  -46.8208   58.3486   67.1572 C   0  0  0  0  0  0  0  0  0  0  0  0
  -47.8386   58.8173   66.1317 C   0  0  0  0  0  0  0  0  0  0  0  0
  -49.0318   57.8871   65.9899 C   0  0  0  0  0  0  0  0  0  0  0  0
  -50.3764   58.5898   65.9878 C   0  0  0  0  0  0  0  0  0  0  0  0
  -50.2704   60.0989   65.8428 C   0  0  0  0  0  0  0  0  0  0  0  0
  -51.0174   60.6458   64.6420 C   0  0  0  0  0  0  0  0  0  0  0  0
  -51.1770   59.6306   63.5281 C   0  0  0  0  0  0  0  0  0  0  0  0
  -49.9406   59.4438   62.6698 C   0  0  0  0  0  0  0  0  0  0  0  0
  -49.7199   57.9989   62.2677 C   0  0  0  0  0  0  0  0  0  0  0  0
  -50.4910   57.5995   61.0204 C   0  0  0  0  0  0  0  0  0  0  0  0
  -49.6564   57.5857   59.7515 C   0  0  0  0  0  0  0  0  0  0  0  0
  -48.1749   57.8458   59.9761 C   0  0  0  0  0  0  0  0  0  0  0  0
  -47.2706   57.2080   58.9303 C   0  0  0  0  0  0  0  0  0  0  0  0
  -47.4076   57.8319   57.5508 C   0  0  0  0  0  0  0  0  0  0  0  0
  -47.2433   55.4304   56.7878 C   0  0  0  0  0  0  0  0  0  0  0  0
  -47.1275   56.8814   56.4009 C   0  0  0  0  0  0  0  0  0  0  0  0
 43 45  1  0  0  0
 43 42  1  0  0  0
 43 46  1  0  0  0
 64 65  1  0  0  0
 44 45  2  0  0  0
 65 63  1  0  0  0
  2  1  1  0  0  0
  2  4  1  0  0  0
  2  5  1  0  0  0
  3  4  2  0  0  0
 63 62  1  0  0  0
  6  8  1  0  0  0
  6 11  2  0  0  0
  7 10  1  0  0  0
  7 11  1  0  0  0
 62 61  1  0  0  0
 26 28  1  0  0  0
 26 32  1  0  0  0
 26 29  1  0  0  0
 12 18  1  0  0  0
 12 19  1  0  0  0
 61 60  1  0  0  0
 30 36  1  0  0  0
 30 37  1  0  0  0
 30 38  1  0  0  0
 20 21  2  0  0  0
 60 59  1  0  0  0
 22 21  1  0  0  0
 22 23  1  0  0  0
 59 58  1  0  0  0
 27 28  2  0  0  0
 58 57  1  0  0  0
 31 37  2  0  0  0
 57 56  1  0  0  0
 56 55  1  0  0  0
 55 54  1  0  0  0
 54 53  1  0  0  0
 53 52  1  0  0  0
 52 51  1  0  0  0
 51 50  1  0  0  0
 50 49  1  0  0  0
 49 47  1  0  0  0
 47 48  2  0  0  0
 48 45  1  0  0  0
 42 41  1  0  0  0
 41 40  1  0  0  0
 40 39  1  0  0  0
 39  1  1  0  0  0
  1 21  1  0  0  0
  8  4  1  0  0  0
  8  9  1  0  0  0
  8 10  1  0  0  0
 11 13  1  0  0  0
 13 14  2  0  0  0
 13 18  1  0  0  0
 14 15  1  0  0  0
 15 16  2  0  0  0
 16 17  1  0  0  0
 17 18  2  0  0  0
 23 24  1  0  0  0
 23 25  1  0  0  0
 25 28  1  0  0  0
 32 33  1  0  0  0
 32 37  1  0  0  0
 33 34  1  0  0  0
 34 35  1  0  0  0
 35 36  1  0  0  0
M  END
> <minimizedAffinity>
-10.41219

> <CNNscore>
0.2916763723

> <CNNaffinity>
7.4025850296

> <CNN_VS>
2.1591591835

> <CNNaffinity_variance>
1.0005425215

$$$$
/media/chris/experiments/cd1a-new-docking/inputs/ligands/7ryo_ligand.pdb


 65 67  0  0  0  0  0  0  0  0999 V2000
  -38.8063   60.2943   64.6075 C   0  0  0  0  0  0  0  0  0  0  0  0
  -38.1420   59.3992   63.6748 N   0  0  0  0  0  0  0  0  0  0  0  0
  -38.0041   60.9525   62.0555 O   0  0  0  0  0  0  0  0  0  0  0  0
  -37.7927   59.8174   62.4558 C   0  0  0  0  0  0  0  0  0  0  0  0
  -37.9470   58.4728   63.9452 H   0  0  0  0  0  0  0  0  0  0  0  0
  -35.6709   59.0755   61.4463 N   0  0  0  0  0  0  0  0  0  0  0  0
  -35.8180   56.8863   61.9649 O   0  0  0  0  0  0  0  0  0  0  0  0
  -37.1152   58.8006   61.5225 C   0  0  0  0  0  0  0  0  0  0  0  0
  -37.7202   58.9310   60.1279 C   0  0  0  0  0  0  0  0  0  0  0  0
  -37.1878   57.3564   62.0400 C   0  0  0  0  0  0  0  0  0  0  0  0
  -35.0686   57.9885   61.7015 C   0  0  0  0  0  0  0  0  0  0  0  0
  -33.2355   60.0739   62.4591 O   0  0  0  0  0  0  0  0  0  0  0  0
  -33.6175   57.7922   61.7361 C   0  0  0  0  0  0  0  0  0  0  0  0
  -33.0774   56.5212   61.5355 C   0  0  0  0  0  0  0  0  0  0  0  0
  -31.7420   56.2752   61.8045 C   0  0  0  0  0  0  0  0  0  0  0  0
  -30.9277   57.2827   62.2739 C   0  0  0  0  0  0  0  0  0  0  0  0
  -31.4393   58.5500   62.4854 C   0  0  0  0  0  0  0  0  0  0  0  0
  -32.7793   58.8164   62.2230 C   0  0  0  0  0  0  0  0  0  0  0  0
  -34.1329   60.2858   62.2926 H   0  0  0  0  0  0  0  0  0  0  0  0
  -38.1631   61.3950   66.6607 O   0  0  0  0  0  0  0  0  0  0  0  0
  -37.9390   60.5593   65.8291 C   0  0  0  0  0  0  0  0  0  0  0  0
  -36.8730   59.7402   65.8373 O   0  0  0  0  0  0  0  0  0  0  0  0
  -35.6447   60.1972   65.1797 C   0  0  0  0  0  0  0  0  0  0  0  0
  -34.6421   59.0720   65.2280 C   0  0  0  0  0  0  0  0  0  0  0  0
  -35.1885   61.4106   65.9663 C   0  0  0  0  0  0  0  0  0  0  0  0
  -33.7448   62.6243   64.4547 N   0  0  0  0  0  0  0  0  0  0  0  0
  -35.7443   63.5163   64.9723 O   0  0  0  0  0  0  0  0  0  0  0  0
  -34.9198   62.6142   65.0906 C   0  0  0  0  0  0  0  0  0  0  0  0
  -33.1226   61.8729   64.5878 H   0  0  0  0  0  0  0  0  0  0  0  0
  -32.0233   63.9134   61.5447 N   0  0  0  0  0  0  0  0  0  0  0  0
  -31.6116   62.2033   62.9363 O   0  0  0  0  0  0  0  0  0  0  0  0
  -33.3590   63.7119   63.5727 C   0  0  0  0  0  0  0  0  0  0  0  0
  -32.8441   64.8990   64.3944 C   0  0  0  0  0  0  0  0  0  0  0  0
  -32.8447   66.2179   63.6291 C   0  0  0  0  0  0  0  0  0  0  0  0
  -31.9604   66.2577   62.3987 C   0  0  0  0  0  0  0  0  0  0  0  0
  -32.3838   65.3058   61.2997 C   0  0  0  0  0  0  0  0  0  0  0  0
  -32.2543   63.2108   62.6560 C   0  0  0  0  0  0  0  0  0  0  0  0
  -31.5611   63.4428   60.8138 H   0  0  0  0  0  0  0  0  0  0  0  0
  -40.1763   59.7521   65.0176 C   0  0  0  0  0  0  0  0  0  0  0  0
  -41.3188   60.4502   64.2877 C   0  0  0  0  0  0  0  0  0  0  0  0
  -41.8660   59.6432   63.1249 C   0  0  0  0  0  0  0  0  0  0  0  0
  -40.8385   58.8030   62.3985 C   0  0  0  0  0  0  0  0  0  0  0  0
  -41.4624   57.6599   61.7510 N   0  0  0  0  0  0  0  0  0  0  0  0
  -42.1092   55.4983   61.8026 O   0  0  0  0  0  0  0  0  0  0  0  0
  -41.5877   56.4769   62.3620 C   0  0  0  0  0  0  0  0  0  0  0  0
  -41.8039   57.7604   60.8330 H   0  0  0  0  0  0  0  0  0  0  0  0
  -41.9339   56.4103   64.8215 C   0  0  0  0  0  0  0  0  0  0  0  0
  -41.1288   56.4637   63.7690 C   0  0  0  0  0  0  0  0  0  0  0  0
  -43.4287   56.3347   64.8295 C   0  0  0  0  0  0  0  0  0  0  0  0
  -44.0599   57.6815   65.1607 C   0  0  0  0  0  0  0  0  0  0  0  0
  -44.6969   57.7382   66.5385 C   0  0  0  0  0  0  0  0  0  0  0  0
  -46.0478   58.4336   66.5559 C   0  0  0  0  0  0  0  0  0  0  0  0
  -46.9122   58.1526   65.3411 C   0  0  0  0  0  0  0  0  0  0  0  0
  -48.2110   57.4375   65.6748 C   0  0  0  0  0  0  0  0  0  0  0  0
  -49.3769   57.8614   64.8030 C   0  0  0  0  0  0  0  0  0  0  0  0
  -50.0576   59.1237   65.2931 C   0  0  0  0  0  0  0  0  0  0  0  0
  -51.0504   59.7197   64.3136 C   0  0  0  0  0  0  0  0  0  0  0  0
  -50.9162   59.1411   62.9189 C   0  0  0  0  0  0  0  0  0  0  0  0
  -50.1898   60.0643   61.9544 C   0  0  0  0  0  0  0  0  0  0  0  0
  -49.3819   59.3409   60.8911 C   0  0  0  0  0  0  0  0  0  0  0  0
  -49.5720   57.8320   60.8816 C   0  0  0  0  0  0  0  0  0  0  0  0
  -48.8443   57.1251   59.7464 C   0  0  0  0  0  0  0  0  0  0  0  0
  -47.5800   57.8414   59.2996 C   0  0  0  0  0  0  0  0  0  0  0  0
  -47.2032   55.6716   58.0641 C   0  0  0  0  0  0  0  0  0  0  0  0
  -46.7871   57.1093   58.2321 C   0  0  0  0  0  0  0  0  0  0  0  0
 43 45  1  0  0  0
 43 42  1  0  0  0
 43 46  1  0  0  0
 64 65  1  0  0  0
 44 45  2  0  0  0
 65 63  1  0  0  0
  2  1  1  0  0  0
  2  4  1  0  0  0
  2  5  1  0  0  0
  3  4  2  0  0  0
 63 62  1  0  0  0
  6  8  1  0  0  0
  6 11  2  0  0  0
  7 10  1  0  0  0
  7 11  1  0  0  0
 62 61  1  0  0  0
 26 28  1  0  0  0
 26 32  1  0  0  0
 26 29  1  0  0  0
 12 18  1  0  0  0
 12 19  1  0  0  0
 61 60  1  0  0  0
 30 36  1  0  0  0
 30 37  1  0  0  0
 30 38  1  0  0  0
 20 21  2  0  0  0
 60 59  1  0  0  0
 22 21  1  0  0  0
 22 23  1  0  0  0
 59 58  1  0  0  0
 27 28  2  0  0  0
 58 57  1  0  0  0
 31 37  2  0  0  0
 57 56  1  0  0  0
 56 55  1  0  0  0
 55 54  1  0  0  0
 54 53  1  0  0  0
 53 52  1  0  0  0
 52 51  1  0  0  0
 51 50  1  0  0  0
 50 49  1  0  0  0
 49 47  1  0  0  0
 47 48  2  0  0  0
 48 45  1  0  0  0
 42 41  1  0  0  0
 41 40  1  0  0  0
 40 39  1  0  0  0
 39  1  1  0  0  0
  1 21  1  0  0  0
  8  4  1  0  0  0
  8  9  1  0  0  0
  8 10  1  0  0  0
 11 13  1  0  0  0
 13 14  2  0  0  0
 13 18  1  0  0  0
 14 15  1  0  0  0
 15 16  2  0  0  0
 16 17  1  0  0  0
 17 18  2  0  0  0
 23 24  1  0  0  0
 23 25  1  0  0  0
 25 28  1  0  0  0
 32 33  1  0  0  0
 32 37  1  0  0  0
 33 34  1  0  0  0
 34 35  1  0  0  0
 35 36  1  0  0  0
M  END
> <minimizedAffinity>
-9.66667

> <CNNscore>
0.2543506324

> <CNNaffinity>
7.4633231163

> <CNN_VS>
1.8983010054

> <CNNaffinity_variance>
1.5573741198

$$$$
/media/chris/experiments/cd1a-new-docking/inputs/ligands/7ryo_ligand.pdb


 65 67  0  0  0  0  0  0  0  0999 V2000
  -40.0869   59.5949   63.8831 C   0  0  0  0  0  0  0  0  0  0  0  0
  -39.1620   58.9176   62.9895 N   0  0  0  0  0  0  0  0  0  0  0  0
  -38.1572   60.8237   62.3483 O   0  0  0  0  0  0  0  0  0  0  0  0
  -38.2603   59.6076   62.2868 C   0  0  0  0  0  0  0  0  0  0  0  0
  -39.2008   57.9378   62.9013 H   0  0  0  0  0  0  0  0  0  0  0  0
  -35.9415   59.2542   61.5317 N   0  0  0  0  0  0  0  0  0  0  0  0
  -35.8772   57.0098   61.7357 O   0  0  0  0  0  0  0  0  0  0  0  0
  -37.3351   58.8170   61.3471 C   0  0  0  0  0  0  0  0  0  0  0  0
  -37.7527   59.0836   59.9040 C   0  0  0  0  0  0  0  0  0  0  0  0
  -37.2931   57.3134   61.6572 C   0  0  0  0  0  0  0  0  0  0  0  0
  -35.2461   58.2129   61.7354 C   0  0  0  0  0  0  0  0  0  0  0  0
  -33.7913   60.4199   62.8738 O   0  0  0  0  0  0  0  0  0  0  0  0
  -33.8007   58.1713   61.9692 C   0  0  0  0  0  0  0  0  0  0  0  0
  -33.0934   56.9842   61.7744 C   0  0  0  0  0  0  0  0  0  0  0  0
  -31.7884   56.8632   62.2199 C   0  0  0  0  0  0  0  0  0  0  0  0
  -31.1699   57.9140   62.8615 C   0  0  0  0  0  0  0  0  0  0  0  0
  -31.8502   59.0997   63.0710 C   0  0  0  0  0  0  0  0  0  0  0  0
  -33.1632   59.2398   62.6326 C   0  0  0  0  0  0  0  0  0  0  0  0
  -34.6757   60.5463   62.5914 H   0  0  0  0  0  0  0  0  0  0  0  0
  -40.8006   59.1518   66.1491 O   0  0  0  0  0  0  0  0  0  0  0  0
  -39.9447   59.0877   65.3104 C   0  0  0  0  0  0  0  0  0  0  0  0
  -38.7176   58.5756   65.5089 O   0  0  0  0  0  0  0  0  0  0  0  0
  -37.6761   59.4611   66.0388 C   0  0  0  0  0  0  0  0  0  0  0  0
  -38.2288   60.8636   66.0753 C   0  0  0  0  0  0  0  0  0  0  0  0
  -36.5040   59.3275   65.0861 C   0  0  0  0  0  0  0  0  0  0  0  0
  -35.5790   61.5573   65.2054 N   0  0  0  0  0  0  0  0  0  0  0  0
  -34.3029   59.8318   65.8806 O   0  0  0  0  0  0  0  0  0  0  0  0
  -35.3602   60.2575   65.4241 C   0  0  0  0  0  0  0  0  0  0  0  0
  -36.4470   61.8408   64.8374 H   0  0  0  0  0  0  0  0  0  0  0  0
  -33.9984   63.9428   67.4202 N   0  0  0  0  0  0  0  0  0  0  0  0
  -36.1036   63.1940   67.2252 O   0  0  0  0  0  0  0  0  0  0  0  0
  -34.5727   62.5640   65.4948 C   0  0  0  0  0  0  0  0  0  0  0  0
  -34.5120   63.5901   64.3578 C   0  0  0  0  0  0  0  0  0  0  0  0
  -33.2211   64.4015   64.3354 C   0  0  0  0  0  0  0  0  0  0  0  0
  -32.9646   65.2519   65.5636 C   0  0  0  0  0  0  0  0  0  0  0  0
  -32.7639   64.4573   66.8371 C   0  0  0  0  0  0  0  0  0  0  0  0
  -34.9580   63.2620   66.7895 C   0  0  0  0  0  0  0  0  0  0  0  0
  -34.1384   64.1159   68.3791 H   0  0  0  0  0  0  0  0  0  0  0  0
  -41.5303   59.4582   63.3961 C   0  0  0  0  0  0  0  0  0  0  0  0
  -41.6711   58.4291   62.2797 C   0  0  0  0  0  0  0  0  0  0  0  0
  -41.5101   56.9993   62.7618 C   0  0  0  0  0  0  0  0  0  0  0  0
  -42.7401   56.4099   63.4168 C   0  0  0  0  0  0  0  0  0  0  0  0
  -42.6255   56.4419   64.8663 N   0  0  0  0  0  0  0  0  0  0  0  0
  -43.3434   57.2023   66.8662 O   0  0  0  0  0  0  0  0  0  0  0  0
  -43.4510   57.1661   65.6295 C   0  0  0  0  0  0  0  0  0  0  0  0
  -41.9172   55.9129   65.2997 H   0  0  0  0  0  0  0  0  0  0  0  0
  -45.7223   58.1453   65.3932 C   0  0  0  0  0  0  0  0  0  0  0  0
  -44.5351   57.8445   64.8845 C   0  0  0  0  0  0  0  0  0  0  0  0
  -46.2132   57.8963   66.7851 C   0  0  0  0  0  0  0  0  0  0  0  0
  -47.4525   57.0098   66.7961 C   0  0  0  0  0  0  0  0  0  0  0  0
  -48.4194   57.2932   65.6595 C   0  0  0  0  0  0  0  0  0  0  0  0
  -49.6795   58.0196   66.0997 C   0  0  0  0  0  0  0  0  0  0  0  0
  -49.5528   59.5312   66.1286 C   0  0  0  0  0  0  0  0  0  0  0  0
  -50.6808   60.2469   65.4040 C   0  0  0  0  0  0  0  0  0  0  0  0
  -50.4964   60.3007   63.9001 C   0  0  0  0  0  0  0  0  0  0  0  0
  -51.1721   59.1531   63.1767 C   0  0  0  0  0  0  0  0  0  0  0  0
  -50.2155   58.1870   62.5046 C   0  0  0  0  0  0  0  0  0  0  0  0
  -49.0812   58.8909   61.7862 C   0  0  0  0  0  0  0  0  0  0  0  0
  -49.3149   59.0321   60.2910 C   0  0  0  0  0  0  0  0  0  0  0  0
  -49.7871   57.7578   59.6127 C   0  0  0  0  0  0  0  0  0  0  0  0
  -48.7948   56.6076   59.6851 C   0  0  0  0  0  0  0  0  0  0  0  0
  -47.4144   56.9479   59.1404 C   0  0  0  0  0  0  0  0  0  0  0  0
  -46.8489   55.8813   58.2164 C   0  0  0  0  0  0  0  0  0  0  0  0
  -47.7000   57.1358   56.1971 C   0  0  0  0  0  0  0  0  0  0  0  0
  -47.5320   55.7957   56.8636 C   0  0  0  0  0  0  0  0  0  0  0  0
 43 45  1  0  0  0
 43 42  1  0  0  0
 43 46  1  0  0  0
 64 65  1  0  0  0
 44 45  2  0  0  0
 65 63  1  0  0  0
  2  1  1  0  0  0
  2  4  1  0  0  0
  2  5  1  0  0  0
  3  4  2  0  0  0
 63 62  1  0  0  0
  6  8  1  0  0  0
  6 11  2  0  0  0
  7 10  1  0  0  0
  7 11  1  0  0  0
 62 61  1  0  0  0
 26 28  1  0  0  0
 26 32  1  0  0  0
 26 29  1  0  0  0
 12 18  1  0  0  0
 12 19  1  0  0  0
 61 60  1  0  0  0
 30 36  1  0  0  0
 30 37  1  0  0  0
 30 38  1  0  0  0
 20 21  2  0  0  0
 60 59  1  0  0  0
 22 21  1  0  0  0
 22 23  1  0  0  0
 59 58  1  0  0  0
 27 28  2  0  0  0
 58 57  1  0  0  0
 31 37  2  0  0  0
 57 56  1  0  0  0
 56 55  1  0  0  0
 55 54  1  0  0  0
 54 53  1  0  0  0
 53 52  1  0  0  0
 52 51  1  0  0  0
 51 50  1  0  0  0
 50 49  1  0  0  0
 49 47  1  0  0  0
 47 48  2  0  0  0
 48 45  1  0  0  0
 42 41  1  0  0  0
 41 40  1  0  0  0
 40 39  1  0  0  0
 39  1  1  0  0  0
  1 21  1  0  0  0
  8  4  1  0  0  0
  8  9  1  0  0  0
  8 10  1  0  0  0
 11 13  1  0  0  0
 13 14  2  0  0  0
 13 18  1  0  0  0
 14 15  1  0  0  0
 15 16  2  0  0  0
 16 17  1  0  0  0
 17 18  2  0  0  0
 23 24  1  0  0  0
 23 25  1  0  0  0
 25 28  1  0  0  0
 32 33  1  0  0  0
 32 37  1  0  0  0
 33 34  1  0  0  0
 34 35  1  0  0  0
 35 36  1  0  0  0
M  END
> <minimizedAffinity>
-10.44812

> <CNNscore>
0.2298662215

> <CNNaffinity>
7.6563711166

> <CNN_VS>
1.7599411011

> <CNNaffinity_variance>
1.2211997509

$$$$
/media/chris/experiments/cd1a-new-docking/inputs/ligands/7ryo_ligand.pdb


 65 67  0  0  0  0  0  0  0  0999 V2000
  -35.3237   58.0178   63.5858 C   0  0  0  0  0  0  0  0  0  0  0  0
  -36.4804   58.8848   63.7368 N   0  0  0  0  0  0  0  0  0  0  0  0
  -37.2537   57.7833   65.5376 O   0  0  0  0  0  0  0  0  0  0  0  0
  -37.3611   58.6857   64.7206 C   0  0  0  0  0  0  0  0  0  0  0  0
  -36.6164   59.6283   63.1059 H   0  0  0  0  0  0  0  0  0  0  0  0
  -39.8022   58.9010   64.4632 N   0  0  0  0  0  0  0  0  0  0  0  0
  -40.2427   59.9167   66.4272 O   0  0  0  0  0  0  0  0  0  0  0  0
  -38.5693   59.6337   64.7956 C   0  0  0  0  0  0  0  0  0  0  0  0
  -38.3746   60.7622   63.7873 C   0  0  0  0  0  0  0  0  0  0  0  0
  -38.8324   60.1742   66.2088 C   0  0  0  0  0  0  0  0  0  0  0  0
  -40.6303   59.1168   65.3998 C   0  0  0  0  0  0  0  0  0  0  0  0
  -42.2365   58.5656   63.0761 O   0  0  0  0  0  0  0  0  0  0  0  0
  -41.9930   58.5867   65.4875 C   0  0  0  0  0  0  0  0  0  0  0  0
  -42.5129   58.1914   66.7207 C   0  0  0  0  0  0  0  0  0  0  0  0
  -43.6922   57.4697   66.7868 C   0  0  0  0  0  0  0  0  0  0  0  0
  -44.3691   57.1322   65.6351 C   0  0  0  0  0  0  0  0  0  0  0  0
  -43.8728   57.5078   64.4001 C   0  0  0  0  0  0  0  0  0  0  0  0
  -42.6879   58.2317   64.3130 C   0  0  0  0  0  0  0  0  0  0  0  0
  -41.4416   59.0529   62.9831 H   0  0  0  0  0  0  0  0  0  0  0  0
  -33.9570   59.6413   64.7421 O   0  0  0  0  0  0  0  0  0  0  0  0
  -34.0380   58.7473   63.9456 C   0  0  0  0  0  0  0  0  0  0  0  0
  -33.0064   58.2654   63.2308 O   0  0  0  0  0  0  0  0  0  0  0  0
  -32.4856   59.0828   62.1307 C   0  0  0  0  0  0  0  0  0  0  0  0
  -31.9492   58.1538   61.0711 C   0  0  0  0  0  0  0  0  0  0  0  0
  -31.4004   59.9469   62.7433 C   0  0  0  0  0  0  0  0  0  0  0  0
  -32.3405   62.1059   63.2883 N   0  0  0  0  0  0  0  0  0  0  0  0
  -31.0314   61.9378   61.4664 O   0  0  0  0  0  0  0  0  0  0  0  0
  -31.5746   61.4177   62.4370 C   0  0  0  0  0  0  0  0  0  0  0  0
  -32.7509   61.6355   64.0497 H   0  0  0  0  0  0  0  0  0  0  0  0
  -32.5011   65.4854   64.5715 N   0  0  0  0  0  0  0  0  0  0  0  0
  -32.8490   63.4747   65.5022 O   0  0  0  0  0  0  0  0  0  0  0  0
  -32.5853   63.5280   63.1227 C   0  0  0  0  0  0  0  0  0  0  0  0
  -33.9109   63.7521   62.3866 C   0  0  0  0  0  0  0  0  0  0  0  0
  -34.0409   65.1413   61.7714 C   0  0  0  0  0  0  0  0  0  0  0  0
  -34.0081   66.2948   62.7541 C   0  0  0  0  0  0  0  0  0  0  0  0
  -32.6930   66.4455   63.4897 C   0  0  0  0  0  0  0  0  0  0  0  0
  -32.6569   64.1615   64.5031 C   0  0  0  0  0  0  0  0  0  0  0  0
  -32.2281   65.8527   65.4432 H   0  0  0  0  0  0  0  0  0  0  0  0
  -35.2453   57.4373   62.1730 C   0  0  0  0  0  0  0  0  0  0  0  0
  -35.8696   58.3595   61.1313 C   0  0  0  0  0  0  0  0  0  0  0  0
  -37.3457   58.0908   60.9039 C   0  0  0  0  0  0  0  0  0  0  0  0
  -37.9939   58.9659   59.8534 C   0  0  0  0  0  0  0  0  0  0  0  0
  -38.9062   59.9218   60.4609 N   0  0  0  0  0  0  0  0  0  0  0  0
  -41.0039   60.5311   61.0283 O   0  0  0  0  0  0  0  0  0  0  0  0
  -40.2250   59.7077   60.5207 C   0  0  0  0  0  0  0  0  0  0  0  0
  -38.5410   60.7535   60.8407 H   0  0  0  0  0  0  0  0  0  0  0  0
  -41.3552   58.2041   58.8973 C   0  0  0  0  0  0  0  0  0  0  0  0
  -40.6539   58.3873   60.0079 C   0  0  0  0  0  0  0  0  0  0  0  0
  -41.8382   59.2446   57.9359 C   0  0  0  0  0  0  0  0  0  0  0  0
  -42.7248   58.6432   56.8522 C   0  0  0  0  0  0  0  0  0  0  0  0
  -44.1755   59.0862   56.9306 C   0  0  0  0  0  0  0  0  0  0  0  0
  -45.1265   57.9815   57.3599 C   0  0  0  0  0  0  0  0  0  0  0  0
  -46.5208   58.4601   57.7185 C   0  0  0  0  0  0  0  0  0  0  0  0
  -47.4210   57.3572   58.2506 C   0  0  0  0  0  0  0  0  0  0  0  0
  -47.6441   57.4278   59.7487 C   0  0  0  0  0  0  0  0  0  0  0  0
  -48.9996   57.9937   60.1220 C   0  0  0  0  0  0  0  0  0  0  0  0
  -49.6820   57.2770   61.2712 C   0  0  0  0  0  0  0  0  0  0  0  0
  -50.8657   58.0477   61.8216 C   0  0  0  0  0  0  0  0  0  0  0  0
  -50.5103   59.4586   62.2610 C   0  0  0  0  0  0  0  0  0  0  0  0
  -51.1684   59.8892   63.5603 C   0  0  0  0  0  0  0  0  0  0  0  0
  -50.1903   60.1976   64.6832 C   0  0  0  0  0  0  0  0  0  0  0  0
  -48.7586   60.4143   64.2128 C   0  0  0  0  0  0  0  0  0  0  0  0
  -47.7367   59.5997   64.9895 C   0  0  0  0  0  0  0  0  0  0  0  0
  -48.2812   57.3022   65.8847 C   0  0  0  0  0  0  0  0  0  0  0  0
  -47.7822   58.1077   64.7139 C   0  0  0  0  0  0  0  0  0  0  0  0
 43 45  1  0  0  0
 43 42  1  0  0  0
 43 46  1  0  0  0
 64 65  1  0  0  0
 44 45  2  0  0  0
 65 63  1  0  0  0
  2  1  1  0  0  0
  2  4  1  0  0  0
  2  5  1  0  0  0
  3  4  2  0  0  0
 63 62  1  0  0  0
  6  8  1  0  0  0
  6 11  2  0  0  0
  7 10  1  0  0  0
  7 11  1  0  0  0
 62 61  1  0  0  0
 26 28  1  0  0  0
 26 32  1  0  0  0
 26 29  1  0  0  0
 12 18  1  0  0  0
 12 19  1  0  0  0
 61 60  1  0  0  0
 30 36  1  0  0  0
 30 37  1  0  0  0
 30 38  1  0  0  0
 20 21  2  0  0  0
 60 59  1  0  0  0
 22 21  1  0  0  0
 22 23  1  0  0  0
 59 58  1  0  0  0
 27 28  2  0  0  0
 58 57  1  0  0  0
 31 37  2  0  0  0
 57 56  1  0  0  0
 56 55  1  0  0  0
 55 54  1  0  0  0
 54 53  1  0  0  0
 53 52  1  0  0  0
 52 51  1  0  0  0
 51 50  1  0  0  0
 50 49  1  0  0  0
 49 47  1  0  0  0
 47 48  2  0  0  0
 48 45  1  0  0  0
 42 41  1  0  0  0
 41 40  1  0  0  0
 40 39  1  0  0  0
 39  1  1  0  0  0
  1 21  1  0  0  0
  8  4  1  0  0  0
  8  9  1  0  0  0
  8 10  1  0  0  0
 11 13  1  0  0  0
 13 14  2  0  0  0
 13 18  1  0  0  0
 14 15  1  0  0  0
 15 16  2  0  0  0
 16 17  1  0  0  0
 17 18  2  0  0  0
 23 24  1  0  0  0
 23 25  1  0  0  0
 25 28  1  0  0  0
 32 33  1  0  0  0
 32 37  1  0  0  0
 33 34  1  0  0  0
 34 35  1  0  0  0
 35 36  1  0  0  0
M  END
> <minimizedAffinity>
-8.25056

> <CNNscore>
0.2152415216

> <CNNaffinity>
7.3474364281

> <CNN_VS>
1.5814733505

> <CNNaffinity_variance>
1.2930361032

$$$$
/media/chris/experiments/cd1a-new-docking/inputs/ligands/7ryo_ligand.pdb


 65 67  0  0  0  0  0  0  0  0999 V2000
  -39.5806   60.3899   63.9009 C   0  0  0  0  0  0  0  0  0  0  0  0
  -38.8011   59.4305   63.1364 N   0  0  0  0  0  0  0  0  0  0  0  0
  -37.6992   61.0193   61.9894 O   0  0  0  0  0  0  0  0  0  0  0  0
  -37.9108   59.8399   62.2294 C   0  0  0  0  0  0  0  0  0  0  0  0
  -38.9311   58.4666   63.2893 H   0  0  0  0  0  0  0  0  0  0  0  0
  -35.7114   59.0933   61.4066 N   0  0  0  0  0  0  0  0  0  0  0  0
  -35.7920   56.9698   62.1597 O   0  0  0  0  0  0  0  0  0  0  0  0
  -37.1448   58.7601   61.4475 C   0  0  0  0  0  0  0  0  0  0  0  0
  -37.6838   58.7078   60.0211 C   0  0  0  0  0  0  0  0  0  0  0  0
  -37.1825   57.3797   62.1195 C   0  0  0  0  0  0  0  0  0  0  0  0
  -35.0774   58.0707   61.8089 C   0  0  0  0  0  0  0  0  0  0  0  0
  -33.4131   60.2121   62.7721 O   0  0  0  0  0  0  0  0  0  0  0  0
  -33.6229   57.9486   61.9311 C   0  0  0  0  0  0  0  0  0  0  0  0
  -33.0025   56.7176   61.7138 C   0  0  0  0  0  0  0  0  0  0  0  0
  -31.6756   56.5292   62.0600 C   0  0  0  0  0  0  0  0  0  0  0  0
  -30.9491   57.5554   62.6236 C   0  0  0  0  0  0  0  0  0  0  0  0
  -31.5416   58.7837   62.8535 C   0  0  0  0  0  0  0  0  0  0  0  0
  -32.8748   58.9918   62.5145 C   0  0  0  0  0  0  0  0  0  0  0  0
  -34.3083   60.3844   62.5557 H   0  0  0  0  0  0  0  0  0  0  0  0
  -39.8319   60.8669   66.2567 O   0  0  0  0  0  0  0  0  0  0  0  0
  -39.1943   60.3657   65.3722 C   0  0  0  0  0  0  0  0  0  0  0  0
  -38.0265   59.7219   65.5427 O   0  0  0  0  0  0  0  0  0  0  0  0
  -36.7854   60.4716   65.3253 C   0  0  0  0  0  0  0  0  0  0  0  0
  -35.6629   59.4790   65.1562 C   0  0  0  0  0  0  0  0  0  0  0  0
  -36.6101   61.3360   66.5588 C   0  0  0  0  0  0  0  0  0  0  0  0
  -34.9461   62.6916   65.4473 N   0  0  0  0  0  0  0  0  0  0  0  0
  -36.4996   63.7228   66.7061 O   0  0  0  0  0  0  0  0  0  0  0  0
  -36.0147   62.6915   66.2493 C   0  0  0  0  0  0  0  0  0  0  0  0
  -34.6007   61.8333   65.1108 H   0  0  0  0  0  0  0  0  0  0  0  0
  -33.8559   65.0776   62.9549 N   0  0  0  0  0  0  0  0  0  0  0  0
  -34.1764   62.8581   62.9149 O   0  0  0  0  0  0  0  0  0  0  0  0
  -34.2792   63.9218   65.0579 C   0  0  0  0  0  0  0  0  0  0  0  0
  -32.9083   64.0155   65.7370 C   0  0  0  0  0  0  0  0  0  0  0  0
  -32.3356   65.4285   65.7649 C   0  0  0  0  0  0  0  0  0  0  0  0
  -32.0773   66.0537   64.4084 C   0  0  0  0  0  0  0  0  0  0  0  0
  -33.3263   66.2831   63.5834 C   0  0  0  0  0  0  0  0  0  0  0  0
  -34.0988   63.9068   63.5482 C   0  0  0  0  0  0  0  0  0  0  0  0
  -34.0549   65.1336   61.9924 H   0  0  0  0  0  0  0  0  0  0  0  0
  -41.0812   60.1514   63.7262 C   0  0  0  0  0  0  0  0  0  0  0  0
  -41.4075   59.4438   62.4154 C   0  0  0  0  0  0  0  0  0  0  0  0
  -41.1562   57.9482   62.4654 C   0  0  0  0  0  0  0  0  0  0  0  0
  -42.2685   57.1402   63.0973 C   0  0  0  0  0  0  0  0  0  0  0  0
  -42.0133   56.9177   64.5117 N   0  0  0  0  0  0  0  0  0  0  0  0
  -42.6320   57.1544   66.6692 O   0  0  0  0  0  0  0  0  0  0  0  0
  -42.8581   57.3340   65.4613 C   0  0  0  0  0  0  0  0  0  0  0  0
  -41.1919   56.4451   64.7788 H   0  0  0  0  0  0  0  0  0  0  0  0
  -45.2193   58.0840   65.6494 C   0  0  0  0  0  0  0  0  0  0  0  0
  -44.1034   57.9458   64.9463 C   0  0  0  0  0  0  0  0  0  0  0  0
  -45.4615   57.6875   67.0723 C   0  0  0  0  0  0  0  0  0  0  0  0
  -46.9132   57.2883   67.3073 C   0  0  0  0  0  0  0  0  0  0  0  0
  -47.6337   56.8278   66.0520 C   0  0  0  0  0  0  0  0  0  0  0  0
  -48.9600   57.5317   65.8190 C   0  0  0  0  0  0  0  0  0  0  0  0
  -48.8601   59.0433   65.7353 C   0  0  0  0  0  0  0  0  0  0  0  0
  -50.1954   59.7252   65.4865 C   0  0  0  0  0  0  0  0  0  0  0  0
  -50.2274   60.5472   64.2129 C   0  0  0  0  0  0  0  0  0  0  0  0
  -51.1722   59.9882   63.1679 C   0  0  0  0  0  0  0  0  0  0  0  0
  -50.9631   58.5184   62.8577 C   0  0  0  0  0  0  0  0  0  0  0  0
  -49.8907   58.2877   61.8114 C   0  0  0  0  0  0  0  0  0  0  0  0
  -50.3280   57.3439   60.7031 C   0  0  0  0  0  0  0  0  0  0  0  0
  -49.1821   56.7650   59.8916 C   0  0  0  0  0  0  0  0  0  0  0  0
  -47.8847   57.5519   59.9940 C   0  0  0  0  0  0  0  0  0  0  0  0
  -47.5262   58.3189   58.7286 C   0  0  0  0  0  0  0  0  0  0  0  0
  -46.4351   57.6525   57.9061 C   0  0  0  0  0  0  0  0  0  0  0  0
  -47.3551   55.5104   56.9360 C   0  0  0  0  0  0  0  0  0  0  0  0
  -46.9343   56.9313   56.6672 C   0  0  0  0  0  0  0  0  0  0  0  0
 43 45  1  0  0  0
 43 42  1  0  0  0
 43 46  1  0  0  0
 64 65  1  0  0  0
 44 45  2  0  0  0
 65 63  1  0  0  0
  2  1  1  0  0  0
  2  4  1  0  0  0
  2  5  1  0  0  0
  3  4  2  0  0  0
 63 62  1  0  0  0
  6  8  1  0  0  0
  6 11  2  0  0  0
  7 10  1  0  0  0
  7 11  1  0  0  0
 62 61  1  0  0  0
 26 28  1  0  0  0
 26 32  1  0  0  0
 26 29  1  0  0  0
 12 18  1  0  0  0
 12 19  1  0  0  0
 61 60  1  0  0  0
 30 36  1  0  0  0
 30 37  1  0  0  0
 30 38  1  0  0  0
 20 21  2  0  0  0
 60 59  1  0  0  0
 22 21  1  0  0  0
 22 23  1  0  0  0
 59 58  1  0  0  0
 27 28  2  0  0  0
 58 57  1  0  0  0
 31 37  2  0  0  0
 57 56  1  0  0  0
 56 55  1  0  0  0
 55 54  1  0  0  0
 54 53  1  0  0  0
 53 52  1  0  0  0
 52 51  1  0  0  0
 51 50  1  0  0  0
 50 49  1  0  0  0
 49 47  1  0  0  0
 47 48  2  0  0  0
 48 45  1  0  0  0
 42 41  1  0  0  0
 41 40  1  0  0  0
 40 39  1  0  0  0
 39  1  1  0  0  0
  1 21  1  0  0  0
  8  4  1  0  0  0
  8  9  1  0  0  0
  8 10  1  0  0  0
 11 13  1  0  0  0
 13 14  2  0  0  0
 13 18  1  0  0  0
 14 15  1  0  0  0
 15 16  2  0  0  0
 16 17  1  0  0  0
 17 18  2  0  0  0
 23 24  1  0  0  0
 23 25  1  0  0  0
 25 28  1  0  0  0
 32 33  1  0  0  0
 32 37  1  0  0  0
 33 34  1  0  0  0
 34 35  1  0  0  0
 35 36  1  0  0  0
M  END
> <minimizedAffinity>
-10.64458

> <CNNscore>
0.1834839433

> <CNNaffinity>
7.4543938637

> <CNN_VS>
1.3677616119

> <CNNaffinity_variance>
1.4014421701

$$$$
/media/chris/experiments/cd1a-new-docking/inputs/ligands/7ryo_ligand.pdb


 65 67  0  0  0  0  0  0  0  0999 V2000
  -40.3452   59.7692   64.9408 C   0  0  0  0  0  0  0  0  0  0  0  0
  -41.3645   58.9751   65.6061 N   0  0  0  0  0  0  0  0  0  0  0  0
  -42.6016   58.7368   63.7442 O   0  0  0  0  0  0  0  0  0  0  0  0
  -42.4246   58.5200   64.9337 C   0  0  0  0  0  0  0  0  0  0  0  0
  -41.2723   58.7700   66.5647 H   0  0  0  0  0  0  0  0  0  0  0  0
  -44.7074   58.4895   65.8609 N   0  0  0  0  0  0  0  0  0  0  0  0
  -45.3681   56.5049   65.0194 O   0  0  0  0  0  0  0  0  0  0  0  0
  -43.4684   57.7074   65.7176 C   0  0  0  0  0  0  0  0  0  0  0  0
  -42.9129   57.3979   67.1045 C   0  0  0  0  0  0  0  0  0  0  0  0
  -43.9200   56.4328   64.9895 C   0  0  0  0  0  0  0  0  0  0  0  0
  -45.6616   57.7568   65.4580 C   0  0  0  0  0  0  0  0  0  0  0  0
  -47.7547   55.9746   66.3099 O   0  0  0  0  0  0  0  0  0  0  0  0
  -47.0785   58.1260   65.4216 C   0  0  0  0  0  0  0  0  0  0  0  0
  -47.4546   59.4307   65.0994 C   0  0  0  0  0  0  0  0  0  0  0  0
  -48.7573   59.8550   65.2969 C   0  0  0  0  0  0  0  0  0  0  0  0
  -49.7007   58.9942   65.8141 C   0  0  0  0  0  0  0  0  0  0  0  0
  -49.3528   57.6975   66.1459 C   0  0  0  0  0  0  0  0  0  0  0  0
  -48.0481   57.2530   65.9567 C   0  0  0  0  0  0  0  0  0  0  0  0
  -46.8852   55.6446   66.1953 H   0  0  0  0  0  0  0  0  0  0  0  0
  -38.4744   58.5833   65.9074 O   0  0  0  0  0  0  0  0  0  0  0  0
  -38.9979   59.6278   65.6332 C   0  0  0  0  0  0  0  0  0  0  0  0
  -38.4833   60.8373   65.9152 O   0  0  0  0  0  0  0  0  0  0  0  0
  -37.0250   60.9669   65.9947 C   0  0  0  0  0  0  0  0  0  0  0  0
  -36.7029   61.9737   67.0700 C   0  0  0  0  0  0  0  0  0  0  0  0
  -36.5814   61.4290   64.6202 C   0  0  0  0  0  0  0  0  0  0  0  0
  -34.9795   63.2281   64.8180 N   0  0  0  0  0  0  0  0  0  0  0  0
  -34.2139   61.1554   64.3948 O   0  0  0  0  0  0  0  0  0  0  0  0
  -35.1517   61.9218   64.5967 C   0  0  0  0  0  0  0  0  0  0  0  0
  -35.7693   63.7948   64.9739 H   0  0  0  0  0  0  0  0  0  0  0  0
  -31.9781   64.2889   66.5385 N   0  0  0  0  0  0  0  0  0  0  0  0
  -34.1230   64.1079   67.1687 O   0  0  0  0  0  0  0  0  0  0  0  0
  -33.6605   63.8361   64.8348 C   0  0  0  0  0  0  0  0  0  0  0  0
  -33.6829   65.1642   64.0699 C   0  0  0  0  0  0  0  0  0  0  0  0
  -32.3008   65.6469   63.6433 C   0  0  0  0  0  0  0  0  0  0  0  0
  -31.3323   65.9317   64.7740 C   0  0  0  0  0  0  0  0  0  0  0  0
  -30.9546   64.7123   65.5888 C   0  0  0  0  0  0  0  0  0  0  0  0
  -33.2732   64.0901   66.2831 C   0  0  0  0  0  0  0  0  0  0  0  0
  -31.6826   64.1337   67.4646 H   0  0  0  0  0  0  0  0  0  0  0  0
  -40.7594   61.2384   64.8465 C   0  0  0  0  0  0  0  0  0  0  0  0
  -41.0761   61.6614   63.4161 C   0  0  0  0  0  0  0  0  0  0  0  0
  -40.6012   60.6612   62.3786 C   0  0  0  0  0  0  0  0  0  0  0  0
  -39.1028   60.6272   62.1714 C   0  0  0  0  0  0  0  0  0  0  0  0
  -38.7738   60.3072   60.7914 N   0  0  0  0  0  0  0  0  0  0  0  0
  -37.4066   59.3291   59.2856 O   0  0  0  0  0  0  0  0  0  0  0  0
  -37.6928   59.5904   60.4655 C   0  0  0  0  0  0  0  0  0  0  0  0
  -39.3663   60.6285   60.0738 H   0  0  0  0  0  0  0  0  0  0  0  0
  -37.1566   57.9175   62.2226 C   0  0  0  0  0  0  0  0  0  0  0  0
  -36.9268   59.0782   61.6236 C   0  0  0  0  0  0  0  0  0  0  0  0
  -38.1876   56.8916   61.8691 C   0  0  0  0  0  0  0  0  0  0  0  0
  -39.4992   57.1325   62.6065 C   0  0  0  0  0  0  0  0  0  0  0  0
  -40.6055   56.1654   62.2222 C   0  0  0  0  0  0  0  0  0  0  0  0
  -41.6275   56.7589   61.2670 C   0  0  0  0  0  0  0  0  0  0  0  0
  -41.1612   58.0128   60.5513 C   0  0  0  0  0  0  0  0  0  0  0  0
  -41.1450   57.8752   59.0379 C   0  0  0  0  0  0  0  0  0  0  0  0
  -41.6812   59.0944   58.3134 C   0  0  0  0  0  0  0  0  0  0  0  0
  -42.2516   58.7710   56.9470 C   0  0  0  0  0  0  0  0  0  0  0  0
  -43.7297   59.0761   56.7977 C   0  0  0  0  0  0  0  0  0  0  0  0
  -44.6130   58.0017   57.4008 C   0  0  0  0  0  0  0  0  0  0  0  0
  -46.0973   58.2787   57.2266 C   0  0  0  0  0  0  0  0  0  0  0  0
  -46.9218   58.0614   58.4834 C   0  0  0  0  0  0  0  0  0  0  0  0
  -47.5007   56.6613   58.6158 C   0  0  0  0  0  0  0  0  0  0  0  0
  -48.6610   56.5631   59.5966 C   0  0  0  0  0  0  0  0  0  0  0  0
  -49.4574   57.8519   59.7225 C   0  0  0  0  0  0  0  0  0  0  0  0
  -49.8980   57.9630   62.2064 C   0  0  0  0  0  0  0  0  0  0  0  0
  -50.4961   57.8430   60.8293 C   0  0  0  0  0  0  0  0  0  0  0  0
 43 45  1  0  0  0
 43 42  1  0  0  0
 43 46  1  0  0  0
 64 65  1  0  0  0
 44 45  2  0  0  0
 65 63  1  0  0  0
  2  1  1  0  0  0
  2  4  1  0  0  0
  2  5  1  0  0  0
  3  4  2  0  0  0
 63 62  1  0  0  0
  6  8  1  0  0  0
  6 11  2  0  0  0
  7 10  1  0  0  0
  7 11  1  0  0  0
 62 61  1  0  0  0
 26 28  1  0  0  0
 26 32  1  0  0  0
 26 29  1  0  0  0
 12 18  1  0  0  0
 12 19  1  0  0  0
 61 60  1  0  0  0
 30 36  1  0  0  0
 30 37  1  0  0  0
 30 38  1  0  0  0
 20 21  2  0  0  0
 60 59  1  0  0  0
 22 21  1  0  0  0
 22 23  1  0  0  0
 59 58  1  0  0  0
 27 28  2  0  0  0
 58 57  1  0  0  0
 31 37  2  0  0  0
 57 56  1  0  0  0
 56 55  1  0  0  0
 55 54  1  0  0  0
 54 53  1  0  0  0
 53 52  1  0  0  0
 52 51  1  0  0  0
 51 50  1  0  0  0
 50 49  1  0  0  0
 49 47  1  0  0  0
 47 48  2  0  0  0
 48 45  1  0  0  0
 42 41  1  0  0  0
 41 40  1  0  0  0
 40 39  1  0  0  0
 39  1  1  0  0  0
  1 21  1  0  0  0
  8  4  1  0  0  0
  8  9  1  0  0  0
  8 10  1  0  0  0
 11 13  1  0  0  0
 13 14  2  0  0  0
 13 18  1  0  0  0
 14 15  1  0  0  0
 15 16  2  0  0  0
 16 17  1  0  0  0
 17 18  2  0  0  0
 23 24  1  0  0  0
 23 25  1  0  0  0
 25 28  1  0  0  0
 32 33  1  0  0  0
 32 37  1  0  0  0
 33 34  1  0  0  0
 34 35  1  0  0  0
 35 36  1  0  0  0
M  END
> <minimizedAffinity>
-8.18906

> <CNNscore>
0.1808580309

> <CNNaffinity>
7.6069288254

> <CNN_VS>
1.3757741451

> <CNNaffinity_variance>
1.3285468817

$$$$
/media/chris/experiments/cd1a-new-docking/inputs/ligands/7ryo_ligand.pdb


 65 67  0  0  0  0  0  0  0  0999 V2000
  -37.7636   60.1999   65.3735 C   0  0  0  0  0  0  0  0  0  0  0  0
  -36.9642   61.4137   65.3889 N   0  0  0  0  0  0  0  0  0  0  0  0
  -35.0205   60.3051   65.6058 O   0  0  0  0  0  0  0  0  0  0  0  0
  -35.6353   61.3565   65.5062 C   0  0  0  0  0  0  0  0  0  0  0  0
  -37.4081   62.2891   65.3119 H   0  0  0  0  0  0  0  0  0  0  0  0
  -33.8141   62.6828   64.5084 N   0  0  0  0  0  0  0  0  0  0  0  0
  -34.9642   64.5891   64.1527 O   0  0  0  0  0  0  0  0  0  0  0  0
  -34.8666   62.6877   65.5377 C   0  0  0  0  0  0  0  0  0  0  0  0
  -34.2194   62.8517   66.9096 C   0  0  0  0  0  0  0  0  0  0  0  0
  -35.7342   63.9007   65.1707 C   0  0  0  0  0  0  0  0  0  0  0  0
  -33.9571   63.7396   63.8212 C   0  0  0  0  0  0  0  0  0  0  0  0
  -34.2196   66.3111   62.5557 O   0  0  0  0  0  0  0  0  0  0  0  0
  -33.1272   64.1514   62.6867 C   0  0  0  0  0  0  0  0  0  0  0  0
  -32.0662   63.3482   62.2667 C   0  0  0  0  0  0  0  0  0  0  0  0
  -31.1327   63.8320   61.3664 C   0  0  0  0  0  0  0  0  0  0  0  0
  -31.2390   65.1139   60.8724 C   0  0  0  0  0  0  0  0  0  0  0  0
  -32.2785   65.9318   61.2760 C   0  0  0  0  0  0  0  0  0  0  0  0
  -33.2254   65.4643   62.1818 C   0  0  0  0  0  0  0  0  0  0  0  0
  -34.8731   66.0269   63.1641 H   0  0  0  0  0  0  0  0  0  0  0  0
  -38.6811   60.6093   63.1756 O   0  0  0  0  0  0  0  0  0  0  0  0
  -38.1937   59.8417   63.9589 C   0  0  0  0  0  0  0  0  0  0  0  0
  -37.9714   58.5387   63.7139 O   0  0  0  0  0  0  0  0  0  0  0  0
  -38.6285   57.9316   62.5522 C   0  0  0  0  0  0  0  0  0  0  0  0
  -39.8284   57.1616   63.0431 C   0  0  0  0  0  0  0  0  0  0  0  0
  -37.5855   57.0318   61.9182 C   0  0  0  0  0  0  0  0  0  0  0  0
  -35.2427   57.5319   62.2401 N   0  0  0  0  0  0  0  0  0  0  0  0
  -36.3325   58.5493   60.5553 O   0  0  0  0  0  0  0  0  0  0  0  0
  -36.3342   57.7765   61.5094 C   0  0  0  0  0  0  0  0  0  0  0  0
  -35.3036   56.9021   62.9944 H   0  0  0  0  0  0  0  0  0  0  0  0
  -31.8640   57.4675   60.9464 N   0  0  0  0  0  0  0  0  0  0  0  0
  -33.1723   55.9112   61.8934 O   0  0  0  0  0  0  0  0  0  0  0  0
  -33.9691   58.1687   61.9538 C   0  0  0  0  0  0  0  0  0  0  0  0
  -33.4754   58.9363   63.1852 C   0  0  0  0  0  0  0  0  0  0  0  0
  -32.4152   59.9852   62.8669 C   0  0  0  0  0  0  0  0  0  0  0  0
  -31.1280   59.4506   62.2711 C   0  0  0  0  0  0  0  0  0  0  0  0
  -31.2942   58.8102   60.9089 C   0  0  0  0  0  0  0  0  0  0  0  0
  -32.9658   57.0839   61.5950 C   0  0  0  0  0  0  0  0  0  0  0  0
  -31.3857   56.7716   60.4403 H   0  0  0  0  0  0  0  0  0  0  0  0
  -38.9753   60.3211   66.2988 C   0  0  0  0  0  0  0  0  0  0  0  0
  -40.0129   59.2336   66.0415 C   0  0  0  0  0  0  0  0  0  0  0  0
  -41.4292   59.7700   65.9468 C   0  0  0  0  0  0  0  0  0  0  0  0
  -42.4790   58.9061   66.6108 C   0  0  0  0  0  0  0  0  0  0  0  0
  -42.3478   57.5171   66.2003 N   0  0  0  0  0  0  0  0  0  0  0  0
  -43.0054   55.7941   64.8994 O   0  0  0  0  0  0  0  0  0  0  0  0
  -43.1102   56.9839   65.2395 C   0  0  0  0  0  0  0  0  0  0  0  0
  -41.6756   56.9508   66.6441 H   0  0  0  0  0  0  0  0  0  0  0  0
  -45.2996   58.1017   64.8786 C   0  0  0  0  0  0  0  0  0  0  0  0
  -44.0181   57.9456   64.5752 C   0  0  0  0  0  0  0  0  0  0  0  0
  -46.0864   57.3854   65.9314 C   0  0  0  0  0  0  0  0  0  0  0  0
  -46.6394   58.3481   66.9752 C   0  0  0  0  0  0  0  0  0  0  0  0
  -48.0001   58.9223   66.6202 C   0  0  0  0  0  0  0  0  0  0  0  0
  -48.9079   57.9368   65.9035 C   0  0  0  0  0  0  0  0  0  0  0  0
  -50.3570   58.3758   65.8083 C   0  0  0  0  0  0  0  0  0  0  0  0
  -50.5372   59.8839   65.8609 C   0  0  0  0  0  0  0  0  0  0  0  0
  -51.1768   60.4612   64.6132 C   0  0  0  0  0  0  0  0  0  0  0  0
  -50.9228   59.6262   63.3741 C   0  0  0  0  0  0  0  0  0  0  0  0
  -49.5736   59.8656   62.7241 C   0  0  0  0  0  0  0  0  0  0  0  0
  -49.6476   59.8804   61.2100 C   0  0  0  0  0  0  0  0  0  0  0  0
  -49.8639   58.5021   60.6070 C   0  0  0  0  0  0  0  0  0  0  0  0
  -48.5841   57.7976   60.1919 C   0  0  0  0  0  0  0  0  0  0  0  0
  -48.8041   56.5350   59.3731 C   0  0  0  0  0  0  0  0  0  0  0  0
  -47.5166   55.8390   58.9536 C   0  0  0  0  0  0  0  0  0  0  0  0
  -47.3405   55.7498   57.4462 C   0  0  0  0  0  0  0  0  0  0  0  0
  -46.1985   57.9973   57.3012 C   0  0  0  0  0  0  0  0  0  0  0  0
  -47.2649   57.0925   56.7422 C   0  0  0  0  0  0  0  0  0  0  0  0
 43 45  1  0  0  0
 43 42  1  0  0  0
 43 46  1  0  0  0
 64 65  1  0  0  0
 44 45  2  0  0  0
 65 63  1  0  0  0
  2  1  1  0  0  0
  2  4  1  0  0  0
  2  5  1  0  0  0
  3  4  2  0  0  0
 63 62  1  0  0  0
  6  8  1  0  0  0
  6 11  2  0  0  0
  7 10  1  0  0  0
  7 11  1  0  0  0
 62 61  1  0  0  0
 26 28  1  0  0  0
 26 32  1  0  0  0
 26 29  1  0  0  0
 12 18  1  0  0  0
 12 19  1  0  0  0
 61 60  1  0  0  0
 30 36  1  0  0  0
 30 37  1  0  0  0
 30 38  1  0  0  0
 20 21  2  0  0  0
 60 59  1  0  0  0
 22 21  1  0  0  0
 22 23  1  0  0  0
 59 58  1  0  0  0
 27 28  2  0  0  0
 58 57  1  0  0  0
 31 37  2  0  0  0
 57 56  1  0  0  0
 56 55  1  0  0  0
 55 54  1  0  0  0
 54 53  1  0  0  0
 53 52  1  0  0  0
 52 51  1  0  0  0
 51 50  1  0  0  0
 50 49  1  0  0  0
 49 47  1  0  0  0
 47 48  2  0  0  0
 48 45  1  0  0  0
 42 41  1  0  0  0
 41 40  1  0  0  0
 40 39  1  0  0  0
 39  1  1  0  0  0
  1 21  1  0  0  0
  8  4  1  0  0  0
  8  9  1  0  0  0
  8 10  1  0  0  0
 11 13  1  0  0  0
 13 14  2  0  0  0
 13 18  1  0  0  0
 14 15  1  0  0  0
 15 16  2  0  0  0
 16 17  1  0  0  0
 17 18  2  0  0  0
 23 24  1  0  0  0
 23 25  1  0  0  0
 25 28  1  0  0  0
 32 33  1  0  0  0
 32 37  1  0  0  0
 33 34  1  0  0  0
 34 35  1  0  0  0
 35 36  1  0  0  0
M  END
> <minimizedAffinity>
-10.37058

> <CNNscore>
0.1787355989

> <CNNaffinity>
6.9657278061

> <CNN_VS>
1.2450234890

> <CNNaffinity_variance>
1.5770826340

$$$$
/media/chris/experiments/cd1a-new-docking/inputs/ligands/7ryo_ligand.pdb


 65 67  0  0  0  0  0  0  0  0999 V2000
  -40.2638   57.5640   62.6660 C   0  0  0  0  0  0  0  0  0  0  0  0
  -39.2959   57.8039   63.7234 N   0  0  0  0  0  0  0  0  0  0  0  0
  -40.0003   59.9069   64.0912 O   0  0  0  0  0  0  0  0  0  0  0  0
  -39.2497   58.9794   64.3551 C   0  0  0  0  0  0  0  0  0  0  0  0
  -38.6663   57.0907   63.9771 H   0  0  0  0  0  0  0  0  0  0  0  0
  -37.1446   60.0965   64.9813 N   0  0  0  0  0  0  0  0  0  0  0  0
  -37.7898   60.8924   66.9896 O   0  0  0  0  0  0  0  0  0  0  0  0
  -38.1804   59.1589   65.4453 C   0  0  0  0  0  0  0  0  0  0  0  0
  -37.5347   57.8063   65.7309 C   0  0  0  0  0  0  0  0  0  0  0  0
  -38.7204   59.8119   66.7262 C   0  0  0  0  0  0  0  0  0  0  0  0
  -37.0148   60.9849   65.8776 C   0  0  0  0  0  0  0  0  0  0  0  0
  -36.3431   62.5195   68.2179 O   0  0  0  0  0  0  0  0  0  0  0  0
  -36.0917   62.1215   65.8403 C   0  0  0  0  0  0  0  0  0  0  0  0
  -35.3859   62.4129   64.6722 C   0  0  0  0  0  0  0  0  0  0  0  0
  -34.3404   63.3199   64.6911 C   0  0  0  0  0  0  0  0  0  0  0  0
  -33.9828   63.9479   65.8643 C   0  0  0  0  0  0  0  0  0  0  0  0
  -34.6632   63.6735   67.0366 C   0  0  0  0  0  0  0  0  0  0  0  0
  -35.7154   62.7632   67.0382 C   0  0  0  0  0  0  0  0  0  0  0  0
  -37.0555   61.9118   68.2528 H   0  0  0  0  0  0  0  0  0  0  0  0
  -40.9453   59.3637   61.2042 O   0  0  0  0  0  0  0  0  0  0  0  0
  -40.1074   58.5718   61.5372 C   0  0  0  0  0  0  0  0  0  0  0  0
  -38.9059   58.4384   60.9489 O   0  0  0  0  0  0  0  0  0  0  0  0
  -38.1812   59.6561   60.5725 C   0  0  0  0  0  0  0  0  0  0  0  0
  -37.3029   59.3312   59.3907 C   0  0  0  0  0  0  0  0  0  0  0  0
  -37.3783   60.0478   61.7978 C   0  0  0  0  0  0  0  0  0  0  0  0
  -35.0463   59.5787   62.2269 N   0  0  0  0  0  0  0  0  0  0  0  0
  -36.5086   57.8697   62.2774 O   0  0  0  0  0  0  0  0  0  0  0  0
  -36.2748   59.0645   62.1187 C   0  0  0  0  0  0  0  0  0  0  0  0
  -34.9187   60.5451   62.0889 H   0  0  0  0  0  0  0  0  0  0  0  0
  -31.6904   59.1409   63.5072 N   0  0  0  0  0  0  0  0  0  0  0  0
  -32.7306   60.8452   62.4856 O   0  0  0  0  0  0  0  0  0  0  0  0
  -33.8939   58.7528   62.5420 C   0  0  0  0  0  0  0  0  0  0  0  0
  -33.5489   57.8530   61.3500 C   0  0  0  0  0  0  0  0  0  0  0  0
  -32.6754   56.6587   61.7187 C   0  0  0  0  0  0  0  0  0  0  0  0
  -31.3105   56.9993   62.2832 C   0  0  0  0  0  0  0  0  0  0  0  0
  -31.3524   57.7254   63.6115 C   0  0  0  0  0  0  0  0  0  0  0  0
  -32.7197   59.6708   62.8427 C   0  0  0  0  0  0  0  0  0  0  0  0
  -31.0970   59.7712   63.9760 H   0  0  0  0  0  0  0  0  0  0  0  0
  -41.6933   57.5704   63.2097 C   0  0  0  0  0  0  0  0  0  0  0  0
  -41.8976   56.5421   64.3171 C   0  0  0  0  0  0  0  0  0  0  0  0
  -43.3290   56.4792   64.8169 C   0  0  0  0  0  0  0  0  0  0  0  0
  -43.7450   57.6401   65.6936 C   0  0  0  0  0  0  0  0  0  0  0  0
  -44.6081   57.1939   66.7757 N   0  0  0  0  0  0  0  0  0  0  0  0
  -46.5783   57.2963   67.8717 O   0  0  0  0  0  0  0  0  0  0  0  0
  -45.8475   57.6690   66.9394 C   0  0  0  0  0  0  0  0  0  0  0  0
  -44.2689   56.5200   67.4083 H   0  0  0  0  0  0  0  0  0  0  0  0
  -47.4112   58.4747   65.1846 C   0  0  0  0  0  0  0  0  0  0  0  0
  -46.2891   58.6031   65.8797 C   0  0  0  0  0  0  0  0  0  0  0  0
  -48.4559   57.4111   65.3183 C   0  0  0  0  0  0  0  0  0  0  0  0
  -49.6979   57.9273   66.0344 C   0  0  0  0  0  0  0  0  0  0  0  0
  -49.7495   59.4401   66.1598 C   0  0  0  0  0  0  0  0  0  0  0  0
  -51.0860   60.0388   65.7546 C   0  0  0  0  0  0  0  0  0  0  0  0
  -51.0384   60.8799   64.4928 C   0  0  0  0  0  0  0  0  0  0  0  0
  -50.9394   60.0559   63.2197 C   0  0  0  0  0  0  0  0  0  0  0  0
  -49.5712   60.1098   62.5684 C   0  0  0  0  0  0  0  0  0  0  0  0
  -49.1523   58.7889   61.9547 C   0  0  0  0  0  0  0  0  0  0  0  0
  -50.2273   57.7193   61.9778 C   0  0  0  0  0  0  0  0  0  0  0  0
  -50.4516   57.0852   60.6193 C   0  0  0  0  0  0  0  0  0  0  0  0
  -49.2069   57.0811   59.7470 C   0  0  0  0  0  0  0  0  0  0  0  0
  -48.5822   55.7092   59.5619 C   0  0  0  0  0  0  0  0  0  0  0  0
  -47.3907   55.6882   58.6169 C   0  0  0  0  0  0  0  0  0  0  0  0
  -47.7689   55.7714   57.1445 C   0  0  0  0  0  0  0  0  0  0  0  0
  -47.2861   57.0438   56.4669 C   0  0  0  0  0  0  0  0  0  0  0  0
  -45.2341   58.3079   57.2202 C   0  0  0  0  0  0  0  0  0  0  0  0
  -46.7103   58.0804   57.4144 C   0  0  0  0  0  0  0  0  0  0  0  0
 43 45  1  0  0  0
 43 42  1  0  0  0
 43 46  1  0  0  0
 64 65  1  0  0  0
 44 45  2  0  0  0
 65 63  1  0  0  0
  2  1  1  0  0  0
  2  4  1  0  0  0
  2  5  1  0  0  0
  3  4  2  0  0  0
 63 62  1  0  0  0
  6  8  1  0  0  0
  6 11  2  0  0  0
  7 10  1  0  0  0
  7 11  1  0  0  0
 62 61  1  0  0  0
 26 28  1  0  0  0
 26 32  1  0  0  0
 26 29  1  0  0  0
 12 18  1  0  0  0
 12 19  1  0  0  0
 61 60  1  0  0  0
 30 36  1  0  0  0
 30 37  1  0  0  0
 30 38  1  0  0  0
 20 21  2  0  0  0
 60 59  1  0  0  0
 22 21  1  0  0  0
 22 23  1  0  0  0
 59 58  1  0  0  0
 27 28  2  0  0  0
 58 57  1  0  0  0
 31 37  2  0  0  0
 57 56  1  0  0  0
 56 55  1  0  0  0
 55 54  1  0  0  0
 54 53  1  0  0  0
 53 52  1  0  0  0
 52 51  1  0  0  0
 51 50  1  0  0  0
 50 49  1  0  0  0
 49 47  1  0  0  0
 47 48  2  0  0  0
 48 45  1  0  0  0
 42 41  1  0  0  0
 41 40  1  0  0  0
 40 39  1  0  0  0
 39  1  1  0  0  0
  1 21  1  0  0  0
  8  4  1  0  0  0
  8  9  1  0  0  0
  8 10  1  0  0  0
 11 13  1  0  0  0
 13 14  2  0  0  0
 13 18  1  0  0  0
 14 15  1  0  0  0
 15 16  2  0  0  0
 16 17  1  0  0  0
 17 18  2  0  0  0
 23 24  1  0  0  0
 23 25  1  0  0  0
 25 28  1  0  0  0
 32 33  1  0  0  0
 32 37  1  0  0  0
 33 34  1  0  0  0
 34 35  1  0  0  0
 35 36  1  0  0  0
M  END
> <minimizedAffinity>
-10.58298

> <CNNscore>
0.1754216105

> <CNNaffinity>
7.6678442955

> <CNN_VS>
1.3451056480

> <CNNaffinity_variance>
1.1146843433

$$$$
