/media/chris/experiments/cd1a-new-docking/inputs/ligands/7ryo_ligand.pdb


 65 67  0  0  0  0  0  0  0  0999 V2000
  -39.0932   59.9720   64.9021 C   0  0  0  0  0  0  0  0  0  0  0  0
  -38.3108   59.2601   63.9055 N   0  0  0  0  0  0  0  0  0  0  0  0
  -39.0302   60.5477   62.2088 O   0  0  0  0  0  0  0  0  0  0  0  0
  -38.3501   59.6194   62.6201 C   0  0  0  0  0  0  0  0  0  0  0  0
  -37.7446   58.5034   64.1815 H   0  0  0  0  0  0  0  0  0  0  0  0
  -36.0991   59.2104   61.7048 N   0  0  0  0  0  0  0  0  0  0  0  0
  -36.0634   56.9676   61.9335 O   0  0  0  0  0  0  0  0  0  0  0  0
  -37.5106   58.7992   61.6268 C   0  0  0  0  0  0  0  0  0  0  0  0
  -38.0260   59.0569   60.2141 C   0  0  0  0  0  0  0  0  0  0  0  0
  -37.4752   57.2988   61.9531 C   0  0  0  0  0  0  0  0  0  0  0  0
  -35.4110   58.1576   61.8718 C   0  0  0  0  0  0  0  0  0  0  0  0
  -33.8432   60.3204   62.9431 O   0  0  0  0  0  0  0  0  0  0  0  0
  -33.9535   58.0897   62.0014 C   0  0  0  0  0  0  0  0  0  0  0  0
  -33.2813   56.8961   61.7355 C   0  0  0  0  0  0  0  0  0  0  0  0
  -31.9502   56.7470   62.0847 C   0  0  0  0  0  0  0  0  0  0  0  0
  -31.2706   57.7760   62.6996 C   0  0  0  0  0  0  0  0  0  0  0  0
  -31.9150   58.9675   62.9782 C   0  0  0  0  0  0  0  0  0  0  0  0
  -33.2532   59.1358   62.6368 C   0  0  0  0  0  0  0  0  0  0  0  0
  -34.7432   60.4654   62.7267 H   0  0  0  0  0  0  0  0  0  0  0  0
  -38.0952   60.2683   67.0832 O   0  0  0  0  0  0  0  0  0  0  0  0
  -38.1961   60.6263   65.9421 C   0  0  0  0  0  0  0  0  0  0  0  0
  -37.5460   61.6763   65.4109 O   0  0  0  0  0  0  0  0  0  0  0  0
  -36.0907   61.5835   65.2581 C   0  0  0  0  0  0  0  0  0  0  0  0
  -35.6864   60.1499   65.4925 C   0  0  0  0  0  0  0  0  0  0  0  0
  -35.5111   62.5237   66.2971 C   0  0  0  0  0  0  0  0  0  0  0  0
  -34.1047   63.2227   64.4598 N   0  0  0  0  0  0  0  0  0  0  0  0
  -33.7929   64.1815   66.4711 O   0  0  0  0  0  0  0  0  0  0  0  0
  -34.3903   63.3825   65.7552 C   0  0  0  0  0  0  0  0  0  0  0  0
  -34.6173   62.5665   63.9346 H   0  0  0  0  0  0  0  0  0  0  0  0
  -32.8129   66.2894   63.0385 N   0  0  0  0  0  0  0  0  0  0  0  0
  -34.8777   65.4300   63.2095 O   0  0  0  0  0  0  0  0  0  0  0  0
  -33.0597   63.9893   63.8042 C   0  0  0  0  0  0  0  0  0  0  0  0
  -32.5077   63.2096   62.6054 C   0  0  0  0  0  0  0  0  0  0  0  0
  -31.1410   63.6968   62.1365 C   0  0  0  0  0  0  0  0  0  0  0  0
  -31.0925   65.1316   61.6498 C   0  0  0  0  0  0  0  0  0  0  0  0
  -31.3951   66.1597   62.7196 C   0  0  0  0  0  0  0  0  0  0  0  0
  -33.6624   65.3001   63.3241 C   0  0  0  0  0  0  0  0  0  0  0  0
  -33.1818   67.2021   63.0436 H   0  0  0  0  0  0  0  0  0  0  0  0
  -40.1174   59.0506   65.5662 C   0  0  0  0  0  0  0  0  0  0  0  0
  -40.4741   57.8535   64.6916 C   0  0  0  0  0  0  0  0  0  0  0  0
  -41.5809   58.1496   63.6966 C   0  0  0  0  0  0  0  0  0  0  0  0
  -42.7698   58.8868   64.2731 C   0  0  0  0  0  0  0  0  0  0  0  0
  -43.4953   58.0506   65.2163 N   0  0  0  0  0  0  0  0  0  0  0  0
  -45.4750   58.2751   64.1558 O   0  0  0  0  0  0  0  0  0  0  0  0
  -44.8036   57.8039   65.0884 C   0  0  0  0  0  0  0  0  0  0  0  0
  -43.0075   57.6532   65.9735 H   0  0  0  0  0  0  0  0  0  0  0  0
  -46.3112   57.4330   67.0282 C   0  0  0  0  0  0  0  0  0  0  0  0
  -45.3839   56.9981   66.1858 C   0  0  0  0  0  0  0  0  0  0  0  0
  -46.9713   58.7762   67.0514 C   0  0  0  0  0  0  0  0  0  0  0  0
  -48.0394   58.8985   65.9716 C   0  0  0  0  0  0  0  0  0  0  0  0
  -49.2492   58.0094   66.2020 C   0  0  0  0  0  0  0  0  0  0  0  0
  -50.5386   58.5773   65.6327 C   0  0  0  0  0  0  0  0  0  0  0  0
  -50.6146   60.0925   65.6452 C   0  0  0  0  0  0  0  0  0  0  0  0
  -51.1777   60.6809   64.3621 C   0  0  0  0  0  0  0  0  0  0  0  0
  -51.1685   59.7114   63.1964 C   0  0  0  0  0  0  0  0  0  0  0  0
  -49.8984   59.7839   62.3727 C   0  0  0  0  0  0  0  0  0  0  0  0
  -49.2178   58.4464   62.1531 C   0  0  0  0  0  0  0  0  0  0  0  0
  -50.1464   57.4082   61.5546 C   0  0  0  0  0  0  0  0  0  0  0  0
  -49.5828   56.7489   60.3065 C   0  0  0  0  0  0  0  0  0  0  0  0
  -49.4489   57.6832   59.1166 C   0  0  0  0  0  0  0  0  0  0  0  0
  -48.1589   58.4885   59.0974 C   0  0  0  0  0  0  0  0  0  0  0  0
  -46.9033   57.6397   58.9520 C   0  0  0  0  0  0  0  0  0  0  0  0
  -46.3321   57.6411   57.5431 C   0  0  0  0  0  0  0  0  0  0  0  0
  -47.4351   55.4796   56.8448 C   0  0  0  0  0  0  0  0  0  0  0  0
  -47.1932   56.9293   56.5155 C   0  0  0  0  0  0  0  0  0  0  0  0
 43 45  1  0  0  0
 43 42  1  0  0  0
 43 46  1  0  0  0
 64 65  1  0  0  0
 44 45  2  0  0  0
 65 63  1  0  0  0
  2  1  1  0  0  0
  2  4  1  0  0  0
  2  5  1  0  0  0
  3  4  2  0  0  0
 63 62  1  0  0  0
  6  8  1  0  0  0
  6 11  2  0  0  0
  7 10  1  0  0  0
  7 11  1  0  0  0
 62 61  1  0  0  0
 26 28  1  0  0  0
 26 32  1  0  0  0
 26 29  1  0  0  0
 12 18  1  0  0  0
 12 19  1  0  0  0
 61 60  1  0  0  0
 30 36  1  0  0  0
 30 37  1  0  0  0
 30 38  1  0  0  0
 20 21  2  0  0  0
 60 59  1  0  0  0
 22 21  1  0  0  0
 22 23  1  0  0  0
 59 58  1  0  0  0
 27 28  2  0  0  0
 58 57  1  0  0  0
 31 37  2  0  0  0
 57 56  1  0  0  0
 56 55  1  0  0  0
 55 54  1  0  0  0
 54 53  1  0  0  0
 53 52  1  0  0  0
 52 51  1  0  0  0
 51 50  1  0  0  0
 50 49  1  0  0  0
 49 47  1  0  0  0
 47 48  2  0  0  0
 48 45  1  0  0  0
 42 41  1  0  0  0
 41 40  1  0  0  0
 40 39  1  0  0  0
 39  1  1  0  0  0
  1 21  1  0  0  0
  8  4  1  0  0  0
  8  9  1  0  0  0
  8 10  1  0  0  0
 11 13  1  0  0  0
 13 14  2  0  0  0
 13 18  1  0  0  0
 14 15  1  0  0  0
 15 16  2  0  0  0
 16 17  1  0  0  0
 17 18  2  0  0  0
 23 24  1  0  0  0
 23 25  1  0  0  0
 25 28  1  0  0  0
 32 33  1  0  0  0
 32 37  1  0  0  0
 33 34  1  0  0  0
 34 35  1  0  0  0
 35 36  1  0  0  0
M  END
> <minimizedAffinity>
-10.35383

> <CNNscore>
0.2718934417

> <CNNaffinity>
7.3019242287

> <CNN_VS>
1.9853453636

> <CNNaffinity_variance>
0.9483097196

$$$$
/media/chris/experiments/cd1a-new-docking/inputs/ligands/7ryo_ligand.pdb


 65 67  0  0  0  0  0  0  0  0999 V2000
  -40.4938   59.2531   64.1248 C   0  0  0  0  0  0  0  0  0  0  0  0
  -39.3208   58.8970   63.3440 N   0  0  0  0  0  0  0  0  0  0  0  0
  -39.9404   60.1399   61.5760 O   0  0  0  0  0  0  0  0  0  0  0  0
  -39.1452   59.3828   62.1127 C   0  0  0  0  0  0  0  0  0  0  0  0
  -38.6473   58.2900   63.7276 H   0  0  0  0  0  0  0  0  0  0  0  0
  -36.6907   59.5355   61.9569 N   0  0  0  0  0  0  0  0  0  0  0  0
  -36.2401   57.3299   61.8333 O   0  0  0  0  0  0  0  0  0  0  0  0
  -37.8893   58.9378   61.3455 C   0  0  0  0  0  0  0  0  0  0  0  0
  -37.9994   59.4131   59.8999 C   0  0  0  0  0  0  0  0  0  0  0  0
  -37.6291   57.4263   61.4277 C   0  0  0  0  0  0  0  0  0  0  0  0
  -35.8736   58.5911   62.1802 C   0  0  0  0  0  0  0  0  0  0  0  0
  -35.2195   57.5031   64.7632 O   0  0  0  0  0  0  0  0  0  0  0  0
  -34.5440   58.7230   62.7807 C   0  0  0  0  0  0  0  0  0  0  0  0
  -33.4929   59.2684   62.0425 C   0  0  0  0  0  0  0  0  0  0  0  0
  -32.1903   59.1764   62.5019 C   0  0  0  0  0  0  0  0  0  0  0  0
  -31.9142   58.5449   63.6951 C   0  0  0  0  0  0  0  0  0  0  0  0
  -32.9374   57.9921   64.4435 C   0  0  0  0  0  0  0  0  0  0  0  0
  -34.2528   58.0726   63.9975 C   0  0  0  0  0  0  0  0  0  0  0  0
  -36.1153   57.5397   64.4909 H   0  0  0  0  0  0  0  0  0  0  0  0
  -40.8339   61.5988   64.5969 O   0  0  0  0  0  0  0  0  0  0  0  0
  -40.2848   60.5658   64.8649 C   0  0  0  0  0  0  0  0  0  0  0  0
  -39.3824   60.4138   65.8496 O   0  0  0  0  0  0  0  0  0  0  0  0
  -37.9655   60.3291   65.4822 C   0  0  0  0  0  0  0  0  0  0  0  0
  -37.4395   58.9963   65.9517 C   0  0  0  0  0  0  0  0  0  0  0  0
  -37.2927   61.4939   66.1822 C   0  0  0  0  0  0  0  0  0  0  0  0
  -35.3745   62.9598   66.0644 N   0  0  0  0  0  0  0  0  0  0  0  0
  -35.6850   61.4685   64.4086 O   0  0  0  0  0  0  0  0  0  0  0  0
  -36.0483   61.9723   65.4678 C   0  0  0  0  0  0  0  0  0  0  0  0
  -35.7136   63.3253   66.9133 H   0  0  0  0  0  0  0  0  0  0  0  0
  -32.0785   64.4173   66.3895 N   0  0  0  0  0  0  0  0  0  0  0  0
  -33.9204   64.4925   67.6673 O   0  0  0  0  0  0  0  0  0  0  0  0
  -34.1561   63.5096   65.4964 C   0  0  0  0  0  0  0  0  0  0  0  0
  -34.4978   64.5412   64.4152 C   0  0  0  0  0  0  0  0  0  0  0  0
  -33.3427   64.8349   63.4641 C   0  0  0  0  0  0  0  0  0  0  0  0
  -32.1036   65.4260   64.1068 C   0  0  0  0  0  0  0  0  0  0  0  0
  -31.4165   64.5041   65.0923 C   0  0  0  0  0  0  0  0  0  0  0  0
  -33.3737   64.1834   66.6126 C   0  0  0  0  0  0  0  0  0  0  0  0
  -31.5106   64.5444   67.1835 H   0  0  0  0  0  0  0  0  0  0  0  0
  -40.8760   58.1341   65.0948 C   0  0  0  0  0  0  0  0  0  0  0  0
  -40.8628   56.7612   64.4311 C   0  0  0  0  0  0  0  0  0  0  0  0
  -42.1867   56.0289   64.5478 C   0  0  0  0  0  0  0  0  0  0  0  0
  -43.4054   56.8713   64.2404 C   0  0  0  0  0  0  0  0  0  0  0  0
  -44.3574   56.8324   65.3391 N   0  0  0  0  0  0  0  0  0  0  0  0
  -43.4855   58.6327   66.3843 O   0  0  0  0  0  0  0  0  0  0  0  0
  -44.3282   57.7215   66.3377 C   0  0  0  0  0  0  0  0  0  0  0  0
  -45.0458   56.1286   65.3480 H   0  0  0  0  0  0  0  0  0  0  0  0
  -46.5101   58.0645   67.4756 C   0  0  0  0  0  0  0  0  0  0  0  0
  -45.3240   57.4757   67.4046 C   0  0  0  0  0  0  0  0  0  0  0  0
  -47.0992   59.0576   66.5231 C   0  0  0  0  0  0  0  0  0  0  0  0
  -47.6272   58.3849   65.2618 C   0  0  0  0  0  0  0  0  0  0  0  0
  -48.5835   57.2366   65.5336 C   0  0  0  0  0  0  0  0  0  0  0  0
  -49.8687   57.6653   66.2219 C   0  0  0  0  0  0  0  0  0  0  0  0
  -50.7518   58.5748   65.3885 C   0  0  0  0  0  0  0  0  0  0  0  0
  -50.6742   60.0359   65.7991 C   0  0  0  0  0  0  0  0  0  0  0  0
  -50.8879   61.0003   64.6488 C   0  0  0  0  0  0  0  0  0  0  0  0
  -50.9703   60.3104   63.3019 C   0  0  0  0  0  0  0  0  0  0  0  0
  -49.6278   60.0706   62.6384 C   0  0  0  0  0  0  0  0  0  0  0  0
  -49.7599   59.5397   61.2245 C   0  0  0  0  0  0  0  0  0  0  0  0
  -50.4054   58.1653   61.1585 C   0  0  0  0  0  0  0  0  0  0  0  0
  -49.4528   57.0496   60.7654 C   0  0  0  0  0  0  0  0  0  0  0  0
  -48.1876   57.5258   60.0685 C   0  0  0  0  0  0  0  0  0  0  0  0
  -48.2971   57.5670   58.5505 C   0  0  0  0  0  0  0  0  0  0  0  0
  -47.0110   57.9964   57.8629 C   0  0  0  0  0  0  0  0  0  0  0  0
  -47.2235   55.7126   56.8067 C   0  0  0  0  0  0  0  0  0  0  0  0
  -46.5355   57.0521   56.7737 C   0  0  0  0  0  0  0  0  0  0  0  0
 43 45  1  0  0  0
 43 42  1  0  0  0
 43 46  1  0  0  0
 64 65  1  0  0  0
 44 45  2  0  0  0
 65 63  1  0  0  0
  2  1  1  0  0  0
  2  4  1  0  0  0
  2  5  1  0  0  0
  3  4  2  0  0  0
 63 62  1  0  0  0
  6  8  1  0  0  0
  6 11  2  0  0  0
  7 10  1  0  0  0
  7 11  1  0  0  0
 62 61  1  0  0  0
 26 28  1  0  0  0
 26 32  1  0  0  0
 26 29  1  0  0  0
 12 18  1  0  0  0
 12 19  1  0  0  0
 61 60  1  0  0  0
 30 36  1  0  0  0
 30 37  1  0  0  0
 30 38  1  0  0  0
 20 21  2  0  0  0
 60 59  1  0  0  0
 22 21  1  0  0  0
 22 23  1  0  0  0
 59 58  1  0  0  0
 27 28  2  0  0  0
 58 57  1  0  0  0
 31 37  2  0  0  0
 57 56  1  0  0  0
 56 55  1  0  0  0
 55 54  1  0  0  0
 54 53  1  0  0  0
 53 52  1  0  0  0
 52 51  1  0  0  0
 51 50  1  0  0  0
 50 49  1  0  0  0
 49 47  1  0  0  0
 47 48  2  0  0  0
 48 45  1  0  0  0
 42 41  1  0  0  0
 41 40  1  0  0  0
 40 39  1  0  0  0
 39  1  1  0  0  0
  1 21  1  0  0  0
  8  4  1  0  0  0
  8  9  1  0  0  0
  8 10  1  0  0  0
 11 13  1  0  0  0
 13 14  2  0  0  0
 13 18  1  0  0  0
 14 15  1  0  0  0
 15 16  2  0  0  0
 16 17  1  0  0  0
 17 18  2  0  0  0
 23 24  1  0  0  0
 23 25  1  0  0  0
 25 28  1  0  0  0
 32 33  1  0  0  0
 32 37  1  0  0  0
 33 34  1  0  0  0
 34 35  1  0  0  0
 35 36  1  0  0  0
M  END
> <minimizedAffinity>
-9.75690

> <CNNscore>
0.2143243998

> <CNNaffinity>
7.5344400406

> <CNN_VS>
1.6148142815

> <CNNaffinity_variance>
1.1192018986

$$$$
/media/chris/experiments/cd1a-new-docking/inputs/ligands/7ryo_ligand.pdb


 65 67  0  0  0  0  0  0  0  0999 V2000
  -36.4389   57.9242   61.6087 C   0  0  0  0  0  0  0  0  0  0  0  0
  -36.8927   58.6955   62.7539 N   0  0  0  0  0  0  0  0  0  0  0  0
  -38.4068   57.1546   63.3761 O   0  0  0  0  0  0  0  0  0  0  0  0
  -37.8570   58.2316   63.5525 C   0  0  0  0  0  0  0  0  0  0  0  0
  -36.4841   59.5709   62.9432 H   0  0  0  0  0  0  0  0  0  0  0  0
  -37.1197   59.5163   65.5218 N   0  0  0  0  0  0  0  0  0  0  0  0
  -38.1860   61.4486   65.0608 O   0  0  0  0  0  0  0  0  0  0  0  0
  -38.2950   59.1204   64.7282 C   0  0  0  0  0  0  0  0  0  0  0  0
  -39.2506   58.3291   65.6161 C   0  0  0  0  0  0  0  0  0  0  0  0
  -38.9073   60.4576   64.2857 C   0  0  0  0  0  0  0  0  0  0  0  0
  -37.1549   60.7791   65.6388 C   0  0  0  0  0  0  0  0  0  0  0  0
  -34.3299   60.2292   65.6139 O   0  0  0  0  0  0  0  0  0  0  0  0
  -36.1812   61.6079   66.3534 C   0  0  0  0  0  0  0  0  0  0  0  0
  -36.5863   62.7953   66.9644 C   0  0  0  0  0  0  0  0  0  0  0  0
  -35.6487   63.7023   67.4273 C   0  0  0  0  0  0  0  0  0  0  0  0
  -34.3019   63.4443   67.2912 C   0  0  0  0  0  0  0  0  0  0  0  0
  -33.8742   62.2770   66.6854 C   0  0  0  0  0  0  0  0  0  0  0  0
  -34.8014   61.3541   66.2118 C   0  0  0  0  0  0  0  0  0  0  0  0
  -34.9282   59.5879   65.2841 H   0  0  0  0  0  0  0  0  0  0  0  0
  -34.6517   56.6878   62.6662 O   0  0  0  0  0  0  0  0  0  0  0  0
  -35.0097   57.4401   61.8023 C   0  0  0  0  0  0  0  0  0  0  0  0
  -34.1970   57.9890   60.8828 O   0  0  0  0  0  0  0  0  0  0  0  0
  -32.8350   58.3483   61.2899 C   0  0  0  0  0  0  0  0  0  0  0  0
  -32.0007   57.0923   61.2915 C   0  0  0  0  0  0  0  0  0  0  0  0
  -32.9695   58.9533   62.6739 C   0  0  0  0  0  0  0  0  0  0  0  0
  -33.2208   61.3432   62.9331 N   0  0  0  0  0  0  0  0  0  0  0  0
  -31.1446   60.5018   62.7252 O   0  0  0  0  0  0  0  0  0  0  0  0
  -32.3598   60.3336   62.7759 C   0  0  0  0  0  0  0  0  0  0  0  0
  -34.1852   61.1483   62.9667 H   0  0  0  0  0  0  0  0  0  0  0  0
  -33.7471   64.7935   63.8882 N   0  0  0  0  0  0  0  0  0  0  0  0
  -35.1229   63.1766   63.1643 O   0  0  0  0  0  0  0  0  0  0  0  0
  -32.7747   62.7199   63.0560 C   0  0  0  0  0  0  0  0  0  0  0  0
  -32.1423   63.1880   61.7404 C   0  0  0  0  0  0  0  0  0  0  0  0
  -31.2554   64.4190   61.8929 C   0  0  0  0  0  0  0  0  0  0  0  0
  -31.9555   65.6692   62.3877 C   0  0  0  0  0  0  0  0  0  0  0  0
  -32.5068   65.5558   63.7935 C   0  0  0  0  0  0  0  0  0  0  0  0
  -33.9844   63.5844   63.3743 C   0  0  0  0  0  0  0  0  0  0  0  0
  -34.4867   65.2148   64.3830 H   0  0  0  0  0  0  0  0  0  0  0  0
  -36.5738   58.7236   60.3119 C   0  0  0  0  0  0  0  0  0  0  0  0
  -37.7938   59.6384   60.3184 C   0  0  0  0  0  0  0  0  0  0  0  0
  -39.0752   58.9278   59.9238 C   0  0  0  0  0  0  0  0  0  0  0  0
  -40.2710   59.2496   60.7932 C   0  0  0  0  0  0  0  0  0  0  0  0
  -40.5389   58.1718   61.7321 N   0  0  0  0  0  0  0  0  0  0  0  0
  -41.9305   57.0717   60.3368 O   0  0  0  0  0  0  0  0  0  0  0  0
  -41.3544   57.1546   61.4339 C   0  0  0  0  0  0  0  0  0  0  0  0
  -40.1058   58.1916   62.6160 H   0  0  0  0  0  0  0  0  0  0  0  0
  -42.3946   56.3940   63.5583 C   0  0  0  0  0  0  0  0  0  0  0  0
  -41.5666   56.1961   62.5415 C   0  0  0  0  0  0  0  0  0  0  0  0
  -43.2830   57.5740   63.8009 C   0  0  0  0  0  0  0  0  0  0  0  0
  -43.0539   58.1782   65.1809 C   0  0  0  0  0  0  0  0  0  0  0  0
  -43.8203   57.4801   66.2911 C   0  0  0  0  0  0  0  0  0  0  0  0
  -45.2007   58.0654   66.5384 C   0  0  0  0  0  0  0  0  0  0  0  0
  -46.3345   57.2875   65.8972 C   0  0  0  0  0  0  0  0  0  0  0  0
  -47.6032   58.1046   65.7174 C   0  0  0  0  0  0  0  0  0  0  0  0
  -47.5106   59.1295   64.6040 C   0  0  0  0  0  0  0  0  0  0  0  0
  -48.8551   59.7151   64.2215 C   0  0  0  0  0  0  0  0  0  0  0  0
  -50.0066   58.7299   64.2814 C   0  0  0  0  0  0  0  0  0  0  0  0
  -50.8579   58.7473   63.0271 C   0  0  0  0  0  0  0  0  0  0  0  0
  -50.2820   57.9053   61.9004 C   0  0  0  0  0  0  0  0  0  0  0  0
  -49.7416   58.7141   60.7339 C   0  0  0  0  0  0  0  0  0  0  0  0
  -49.7524   57.9758   59.4044 C   0  0  0  0  0  0  0  0  0  0  0  0
  -48.6165   56.9746   59.2449 C   0  0  0  0  0  0  0  0  0  0  0  0
  -47.2477   57.6260   59.1307 C   0  0  0  0  0  0  0  0  0  0  0  0
  -47.0259   57.0357   56.6855 C   0  0  0  0  0  0  0  0  0  0  0  0
  -46.8960   58.1083   57.7350 C   0  0  0  0  0  0  0  0  0  0  0  0
 43 45  1  0  0  0
 43 42  1  0  0  0
 43 46  1  0  0  0
 64 65  1  0  0  0
 44 45  2  0  0  0
 65 63  1  0  0  0
  2  1  1  0  0  0
  2  4  1  0  0  0
  2  5  1  0  0  0
  3  4  2  0  0  0
 63 62  1  0  0  0
  6  8  1  0  0  0
  6 11  2  0  0  0
  7 10  1  0  0  0
  7 11  1  0  0  0
 62 61  1  0  0  0
 26 28  1  0  0  0
 26 32  1  0  0  0
 26 29  1  0  0  0
 12 18  1  0  0  0
 12 19  1  0  0  0
 61 60  1  0  0  0
 30 36  1  0  0  0
 30 37  1  0  0  0
 30 38  1  0  0  0
 20 21  2  0  0  0
 60 59  1  0  0  0
 22 21  1  0  0  0
 22 23  1  0  0  0
 59 58  1  0  0  0
 27 28  2  0  0  0
 58 57  1  0  0  0
 31 37  2  0  0  0
 57 56  1  0  0  0
 56 55  1  0  0  0
 55 54  1  0  0  0
 54 53  1  0  0  0
 53 52  1  0  0  0
 52 51  1  0  0  0
 51 50  1  0  0  0
 50 49  1  0  0  0
 49 47  1  0  0  0
 47 48  2  0  0  0
 48 45  1  0  0  0
 42 41  1  0  0  0
 41 40  1  0  0  0
 40 39  1  0  0  0
 39  1  1  0  0  0
  1 21  1  0  0  0
  8  4  1  0  0  0
  8  9  1  0  0  0
  8 10  1  0  0  0
 11 13  1  0  0  0
 13 14  2  0  0  0
 13 18  1  0  0  0
 14 15  1  0  0  0
 15 16  2  0  0  0
 16 17  1  0  0  0
 17 18  2  0  0  0
 23 24  1  0  0  0
 23 25  1  0  0  0
 25 28  1  0  0  0
 32 33  1  0  0  0
 32 37  1  0  0  0
 33 34  1  0  0  0
 34 35  1  0  0  0
 35 36  1  0  0  0
M  END
> <minimizedAffinity>
-9.38012

> <CNNscore>
0.2133057117

> <CNNaffinity>
7.4091577530

> <CNN_VS>
1.5804157257

> <CNNaffinity_variance>
1.7836955786

$$$$
/media/chris/experiments/cd1a-new-docking/inputs/ligands/7ryo_ligand.pdb


 65 67  0  0  0  0  0  0  0  0999 V2000
  -40.4366   59.9803   63.9326 C   0  0  0  0  0  0  0  0  0  0  0  0
  -39.5143   59.1790   63.1454 N   0  0  0  0  0  0  0  0  0  0  0  0
  -38.6014   60.9646   62.1292 O   0  0  0  0  0  0  0  0  0  0  0  0
  -38.6606   59.7554   62.2957 C   0  0  0  0  0  0  0  0  0  0  0  0
  -39.5189   58.1991   63.2399 H   0  0  0  0  0  0  0  0  0  0  0  0
  -36.3405   59.2898   61.6081 N   0  0  0  0  0  0  0  0  0  0  0  0
  -36.2840   57.0986   62.1358 O   0  0  0  0  0  0  0  0  0  0  0  0
  -37.7351   58.8342   61.4839 C   0  0  0  0  0  0  0  0  0  0  0  0
  -38.1472   58.8897   60.0160 C   0  0  0  0  0  0  0  0  0  0  0  0
  -37.6988   57.3914   62.0091 C   0  0  0  0  0  0  0  0  0  0  0  0
  -35.6492   58.2871   61.9632 C   0  0  0  0  0  0  0  0  0  0  0  0
  -34.4620   59.4069   64.3339 O   0  0  0  0  0  0  0  0  0  0  0  0
  -34.2046   58.2760   62.2056 C   0  0  0  0  0  0  0  0  0  0  0  0
  -33.3548   57.5820   61.3433 C   0  0  0  0  0  0  0  0  0  0  0  0
  -32.0332   57.3588   61.6890 C   0  0  0  0  0  0  0  0  0  0  0  0
  -31.5387   57.8195   62.8899 C   0  0  0  0  0  0  0  0  0  0  0  0
  -32.3612   58.5061   63.7642 C   0  0  0  0  0  0  0  0  0  0  0  0
  -33.6930   58.7385   63.4355 C   0  0  0  0  0  0  0  0  0  0  0  0
  -35.3630   59.5794   64.1428 H   0  0  0  0  0  0  0  0  0  0  0  0
  -40.4368   59.4604   66.2928 O   0  0  0  0  0  0  0  0  0  0  0  0
  -39.9768   60.0876   65.3788 C   0  0  0  0  0  0  0  0  0  0  0  0
  -38.9959   60.9994   65.4956 O   0  0  0  0  0  0  0  0  0  0  0  0
  -37.6149   60.5194   65.6058 C   0  0  0  0  0  0  0  0  0  0  0  0
  -37.6518   59.0198   65.7586 C   0  0  0  0  0  0  0  0  0  0  0  0
  -37.0398   61.2098   66.8273 C   0  0  0  0  0  0  0  0  0  0  0  0
  -35.3890   62.4016   65.5248 N   0  0  0  0  0  0  0  0  0  0  0  0
  -36.5580   63.5419   67.0724 O   0  0  0  0  0  0  0  0  0  0  0  0
  -36.3075   62.4898   66.4912 C   0  0  0  0  0  0  0  0  0  0  0  0
  -35.2304   61.5308   65.0939 H   0  0  0  0  0  0  0  0  0  0  0  0
  -33.7543   64.3660   62.9630 N   0  0  0  0  0  0  0  0  0  0  0  0
  -34.1364   62.1684   63.1990 O   0  0  0  0  0  0  0  0  0  0  0  0
  -34.6177   63.5537   65.0920 C   0  0  0  0  0  0  0  0  0  0  0  0
  -33.4025   63.7476   66.0060 C   0  0  0  0  0  0  0  0  0  0  0  0
  -32.7983   65.1456   65.9310 C   0  0  0  0  0  0  0  0  0  0  0  0
  -32.2600   65.5507   64.5730 C   0  0  0  0  0  0  0  0  0  0  0  0
  -33.3163   65.6529   63.4927 C   0  0  0  0  0  0  0  0  0  0  0  0
  -34.1477   63.3027   63.6679 C   0  0  0  0  0  0  0  0  0  0  0  0
  -33.7605   64.2718   61.9831 H   0  0  0  0  0  0  0  0  0  0  0  0
  -41.8605   59.4280   63.8517 C   0  0  0  0  0  0  0  0  0  0  0  0
  -41.9054   58.0230   63.2607 C   0  0  0  0  0  0  0  0  0  0  0  0
  -41.6426   56.9354   64.2858 C   0  0  0  0  0  0  0  0  0  0  0  0
  -42.8609   56.1294   64.6800 C   0  0  0  0  0  0  0  0  0  0  0  0
  -43.6012   56.7889   65.7439 N   0  0  0  0  0  0  0  0  0  0  0  0
  -45.1052   57.7289   64.3481 O   0  0  0  0  0  0  0  0  0  0  0  0
  -44.6765   57.5457   65.4992 C   0  0  0  0  0  0  0  0  0  0  0  0
  -43.3011   56.6747   66.6746 H   0  0  0  0  0  0  0  0  0  0  0  0
  -46.4275   57.8952   67.2270 C   0  0  0  0  0  0  0  0  0  0  0  0
  -45.2502   58.1985   66.6972 C   0  0  0  0  0  0  0  0  0  0  0  0
  -47.3989   56.8534   66.7670 C   0  0  0  0  0  0  0  0  0  0  0  0
  -48.2426   57.3460   65.5976 C   0  0  0  0  0  0  0  0  0  0  0  0
  -49.6453   57.7753   65.9912 C   0  0  0  0  0  0  0  0  0  0  0  0
  -49.7498   59.2451   66.3626 C   0  0  0  0  0  0  0  0  0  0  0  0
  -48.9684   60.1771   65.4556 C   0  0  0  0  0  0  0  0  0  0  0  0
  -49.8390   60.9177   64.4541 C   0  0  0  0  0  0  0  0  0  0  0  0
  -51.1765   60.2490   64.2035 C   0  0  0  0  0  0  0  0  0  0  0  0
  -51.1774   59.3633   62.9737 C   0  0  0  0  0  0  0  0  0  0  0  0
  -49.8137   59.1747   62.3374 C   0  0  0  0  0  0  0  0  0  0  0  0
  -49.6915   59.8722   60.9970 C   0  0  0  0  0  0  0  0  0  0  0  0
  -49.4685   58.9120   59.8400 C   0  0  0  0  0  0  0  0  0  0  0  0
  -48.7959   57.6088   60.2349 C   0  0  0  0  0  0  0  0  0  0  0  0
  -47.3746   57.4575   59.7154 C   0  0  0  0  0  0  0  0  0  0  0  0
  -47.0773   58.2933   58.4780 C   0  0  0  0  0  0  0  0  0  0  0  0
  -46.1414   57.6077   57.4956 C   0  0  0  0  0  0  0  0  0  0  0  0
  -48.2212   56.8339   56.2907 C   0  0  0  0  0  0  0  0  0  0  0  0
  -46.7943   56.5225   56.6588 C   0  0  0  0  0  0  0  0  0  0  0  0
 43 45  1  0  0  0
 43 42  1  0  0  0
 43 46  1  0  0  0
 64 65  1  0  0  0
 44 45  2  0  0  0
 65 63  1  0  0  0
  2  1  1  0  0  0
  2  4  1  0  0  0
  2  5  1  0  0  0
  3  4  2  0  0  0
 63 62  1  0  0  0
  6  8  1  0  0  0
  6 11  2  0  0  0
  7 10  1  0  0  0
  7 11  1  0  0  0
 62 61  1  0  0  0
 26 28  1  0  0  0
 26 32  1  0  0  0
 26 29  1  0  0  0
 12 18  1  0  0  0
 12 19  1  0  0  0
 61 60  1  0  0  0
 30 36  1  0  0  0
 30 37  1  0  0  0
 30 38  1  0  0  0
 20 21  2  0  0  0
 60 59  1  0  0  0
 22 21  1  0  0  0
 22 23  1  0  0  0
 59 58  1  0  0  0
 27 28  2  0  0  0
 58 57  1  0  0  0
 31 37  2  0  0  0
 57 56  1  0  0  0
 56 55  1  0  0  0
 55 54  1  0  0  0
 54 53  1  0  0  0
 53 52  1  0  0  0
 52 51  1  0  0  0
 51 50  1  0  0  0
 50 49  1  0  0  0
 49 47  1  0  0  0
 47 48  2  0  0  0
 48 45  1  0  0  0
 42 41  1  0  0  0
 41 40  1  0  0  0
 40 39  1  0  0  0
 39  1  1  0  0  0
  1 21  1  0  0  0
  8  4  1  0  0  0
  8  9  1  0  0  0
  8 10  1  0  0  0
 11 13  1  0  0  0
 13 14  2  0  0  0
 13 18  1  0  0  0
 14 15  1  0  0  0
 15 16  2  0  0  0
 16 17  1  0  0  0
 17 18  2  0  0  0
 23 24  1  0  0  0
 23 25  1  0  0  0
 25 28  1  0  0  0
 32 33  1  0  0  0
 32 37  1  0  0  0
 33 34  1  0  0  0
 34 35  1  0  0  0
 35 36  1  0  0  0
M  END
> <minimizedAffinity>
-10.57829

> <CNNscore>
0.2123683840

> <CNNaffinity>
7.4320626259

> <CNN_VS>
1.5783351660

> <CNNaffinity_variance>
1.4536602497

$$$$
/media/chris/experiments/cd1a-new-docking/inputs/ligands/7ryo_ligand.pdb


 65 67  0  0  0  0  0  0  0  0999 V2000
  -40.1726   57.3595   62.5007 C   0  0  0  0  0  0  0  0  0  0  0  0
  -39.2524   57.6670   63.5829 N   0  0  0  0  0  0  0  0  0  0  0  0
  -40.2016   59.6576   64.0196 O   0  0  0  0  0  0  0  0  0  0  0  0
  -39.3513   58.8134   64.2602 C   0  0  0  0  0  0  0  0  0  0  0  0
  -38.5472   57.0219   63.8195 H   0  0  0  0  0  0  0  0  0  0  0  0
  -37.2699   59.9753   64.8846 N   0  0  0  0  0  0  0  0  0  0  0  0
  -37.9896   60.9110   66.8054 O   0  0  0  0  0  0  0  0  0  0  0  0
  -38.3238   59.0715   65.3746 C   0  0  0  0  0  0  0  0  0  0  0  0
  -37.6910   57.7437   65.7798 C   0  0  0  0  0  0  0  0  0  0  0  0
  -38.9110   59.8131   66.5845 C   0  0  0  0  0  0  0  0  0  0  0  0
  -37.1732   60.9254   65.7198 C   0  0  0  0  0  0  0  0  0  0  0  0
  -36.2669   62.3659   68.0408 O   0  0  0  0  0  0  0  0  0  0  0  0
  -36.2478   62.0578   65.6367 C   0  0  0  0  0  0  0  0  0  0  0  0
  -35.6547   62.3900   64.4180 C   0  0  0  0  0  0  0  0  0  0  0  0
  -34.6043   63.2903   64.3705 C   0  0  0  0  0  0  0  0  0  0  0  0
  -34.1303   63.8711   65.5267 C   0  0  0  0  0  0  0  0  0  0  0  0
  -34.6977   63.5555   66.7478 C   0  0  0  0  0  0  0  0  0  0  0  0
  -35.7529   62.6512   66.8162 C   0  0  0  0  0  0  0  0  0  0  0  0
  -36.9779   61.7609   68.1212 H   0  0  0  0  0  0  0  0  0  0  0  0
  -40.9261   59.0785   60.9782 O   0  0  0  0  0  0  0  0  0  0  0  0
  -40.0430   58.3640   61.3656 C   0  0  0  0  0  0  0  0  0  0  0  0
  -38.8058   58.3261   60.8409 O   0  0  0  0  0  0  0  0  0  0  0  0
  -38.1538   59.5981   60.5144 C   0  0  0  0  0  0  0  0  0  0  0  0
  -37.2720   59.3763   59.3115 C   0  0  0  0  0  0  0  0  0  0  0  0
  -37.3600   59.9779   61.7494 C   0  0  0  0  0  0  0  0  0  0  0  0
  -35.0317   59.5395   62.2277 N   0  0  0  0  0  0  0  0  0  0  0  0
  -36.4539   57.7980   62.1469 O   0  0  0  0  0  0  0  0  0  0  0  0
  -36.2438   59.0043   62.0555 C   0  0  0  0  0  0  0  0  0  0  0  0
  -34.9228   60.5142   62.1422 H   0  0  0  0  0  0  0  0  0  0  0  0
  -31.6625   59.1347   63.4840 N   0  0  0  0  0  0  0  0  0  0  0  0
  -32.7249   60.8263   62.4638 O   0  0  0  0  0  0  0  0  0  0  0  0
  -33.8701   58.7245   62.5373 C   0  0  0  0  0  0  0  0  0  0  0  0
  -33.5265   57.8230   61.3460 C   0  0  0  0  0  0  0  0  0  0  0  0
  -32.6403   56.6375   61.7125 C   0  0  0  0  0  0  0  0  0  0  0  0
  -31.2740   56.9917   62.2654 C   0  0  0  0  0  0  0  0  0  0  0  0
  -31.3120   57.7225   63.5911 C   0  0  0  0  0  0  0  0  0  0  0  0
  -32.7013   59.6535   62.8254 C   0  0  0  0  0  0  0  0  0  0  0  0
  -31.0710   59.7718   63.9459 H   0  0  0  0  0  0  0  0  0  0  0  0
  -41.6154   57.2855   63.0027 C   0  0  0  0  0  0  0  0  0  0  0  0
  -41.8792   56.0306   63.8278 C   0  0  0  0  0  0  0  0  0  0  0  0
  -42.5573   56.3196   65.1542 C   0  0  0  0  0  0  0  0  0  0  0  0
  -43.4395   57.5489   65.1595 C   0  0  0  0  0  0  0  0  0  0  0  0
  -44.8455   57.1820   65.2214 N   0  0  0  0  0  0  0  0  0  0  0  0
  -45.2340   58.3171   67.1331 O   0  0  0  0  0  0  0  0  0  0  0  0
  -45.6457   57.5953   66.2101 C   0  0  0  0  0  0  0  0  0  0  0  0
  -45.2203   56.6108   64.5126 H   0  0  0  0  0  0  0  0  0  0  0  0
  -48.1206   57.7777   66.3321 C   0  0  0  0  0  0  0  0  0  0  0  0
  -47.0229   57.0569   66.1475 C   0  0  0  0  0  0  0  0  0  0  0  0
  -48.2176   59.2443   66.6153 C   0  0  0  0  0  0  0  0  0  0  0  0
  -48.3563   60.0583   65.3346 C   0  0  0  0  0  0  0  0  0  0  0  0
  -49.5780   60.9604   65.3104 C   0  0  0  0  0  0  0  0  0  0  0  0
  -50.8917   60.2027   65.2143 C   0  0  0  0  0  0  0  0  0  0  0  0
  -50.8880   59.0685   64.2067 C   0  0  0  0  0  0  0  0  0  0  0  0
  -51.0800   59.5325   62.7724 C   0  0  0  0  0  0  0  0  0  0  0  0
  -49.7776   59.7567   62.0291 C   0  0  0  0  0  0  0  0  0  0  0  0
  -49.8555   59.3749   60.5645 C   0  0  0  0  0  0  0  0  0  0  0  0
  -50.4418   58.0002   60.3064 C   0  0  0  0  0  0  0  0  0  0  0  0
  -49.5975   56.8846   60.8904 C   0  0  0  0  0  0  0  0  0  0  0  0
  -49.1846   55.8445   59.8618 C   0  0  0  0  0  0  0  0  0  0  0  0
  -47.7481   55.9765   59.3868 C   0  0  0  0  0  0  0  0  0  0  0  0
  -47.1146   57.3272   59.6823 C   0  0  0  0  0  0  0  0  0  0  0  0
  -47.0838   58.2695   58.4868 C   0  0  0  0  0  0  0  0  0  0  0  0
  -46.0981   57.8474   57.4092 C   0  0  0  0  0  0  0  0  0  0  0  0
  -48.0731   56.9147   56.1419 C   0  0  0  0  0  0  0  0  0  0  0  0
  -46.6121   56.7657   56.4765 C   0  0  0  0  0  0  0  0  0  0  0  0
 43 45  1  0  0  0
 43 42  1  0  0  0
 43 46  1  0  0  0
 64 65  1  0  0  0
 44 45  2  0  0  0
 65 63  1  0  0  0
  2  1  1  0  0  0
  2  4  1  0  0  0
  2  5  1  0  0  0
  3  4  2  0  0  0
 63 62  1  0  0  0
  6  8  1  0  0  0
  6 11  2  0  0  0
  7 10  1  0  0  0
  7 11  1  0  0  0
 62 61  1  0  0  0
 26 28  1  0  0  0
 26 32  1  0  0  0
 26 29  1  0  0  0
 12 18  1  0  0  0
 12 19  1  0  0  0
 61 60  1  0  0  0
 30 36  1  0  0  0
 30 37  1  0  0  0
 30 38  1  0  0  0
 20 21  2  0  0  0
 60 59  1  0  0  0
 22 21  1  0  0  0
 22 23  1  0  0  0
 59 58  1  0  0  0
 27 28  2  0  0  0
 58 57  1  0  0  0
 31 37  2  0  0  0
 57 56  1  0  0  0
 56 55  1  0  0  0
 55 54  1  0  0  0
 54 53  1  0  0  0
 53 52  1  0  0  0
 52 51  1  0  0  0
 51 50  1  0  0  0
 50 49  1  0  0  0
 49 47  1  0  0  0
 47 48  2  0  0  0
 48 45  1  0  0  0
 42 41  1  0  0  0
 41 40  1  0  0  0
 40 39  1  0  0  0
 39  1  1  0  0  0
  1 21  1  0  0  0
  8  4  1  0  0  0
  8  9  1  0  0  0
  8 10  1  0  0  0
 11 13  1  0  0  0
 13 14  2  0  0  0
 13 18  1  0  0  0
 14 15  1  0  0  0
 15 16  2  0  0  0
 16 17  1  0  0  0
 17 18  2  0  0  0
 23 24  1  0  0  0
 23 25  1  0  0  0
 25 28  1  0  0  0
 32 33  1  0  0  0
 32 37  1  0  0  0
 33 34  1  0  0  0
 34 35  1  0  0  0
 35 36  1  0  0  0
M  END
> <minimizedAffinity>
-10.38254

> <CNNscore>
0.1996779740

> <CNNaffinity>
7.6091995239

> <CNN_VS>
1.5193895102

> <CNNaffinity_variance>
1.3658807278

$$$$
/media/chris/experiments/cd1a-new-docking/inputs/ligands/7ryo_ligand.pdb


 65 67  0  0  0  0  0  0  0  0999 V2000
  -37.3690   57.5502   61.9247 C   0  0  0  0  0  0  0  0  0  0  0  0
  -37.3829   58.0288   63.2970 N   0  0  0  0  0  0  0  0  0  0  0  0
  -37.1584   60.1849   62.7012 O   0  0  0  0  0  0  0  0  0  0  0  0
  -37.2740   59.3316   63.5684 C   0  0  0  0  0  0  0  0  0  0  0  0
  -37.4738   57.3844   64.0357 H   0  0  0  0  0  0  0  0  0  0  0  0
  -36.0516   60.5143   65.3514 N   0  0  0  0  0  0  0  0  0  0  0  0
  -37.7420   61.8080   66.0944 O   0  0  0  0  0  0  0  0  0  0  0  0
  -37.2739   59.7519   65.0474 C   0  0  0  0  0  0  0  0  0  0  0  0
  -37.3069   58.4986   65.9168 C   0  0  0  0  0  0  0  0  0  0  0  0
  -38.4104   60.7210   65.4052 C   0  0  0  0  0  0  0  0  0  0  0  0
  -36.4134   61.5964   65.9062 C   0  0  0  0  0  0  0  0  0  0  0  0
  -36.5680   62.6743   68.5703 O   0  0  0  0  0  0  0  0  0  0  0  0
  -35.5276   62.6619   66.3812 C   0  0  0  0  0  0  0  0  0  0  0  0
  -34.4668   63.0977   65.5861 C   0  0  0  0  0  0  0  0  0  0  0  0
  -33.4860   63.9202   66.1130 C   0  0  0  0  0  0  0  0  0  0  0  0
  -33.5443   64.3201   67.4303 C   0  0  0  0  0  0  0  0  0  0  0  0
  -34.5827   63.8987   68.2407 C   0  0  0  0  0  0  0  0  0  0  0  0
  -35.5768   63.0701   67.7300 C   0  0  0  0  0  0  0  0  0  0  0  0
  -37.2525   62.1161   68.2575 H   0  0  0  0  0  0  0  0  0  0  0  0
  -36.1360   58.6214   60.1434 O   0  0  0  0  0  0  0  0  0  0  0  0
  -36.1276   58.0290   61.1871 C   0  0  0  0  0  0  0  0  0  0  0  0
  -35.0161   57.6778   61.8568 O   0  0  0  0  0  0  0  0  0  0  0  0
  -33.8055   58.4804   61.6569 C   0  0  0  0  0  0  0  0  0  0  0  0
  -32.6776   57.5450   61.3013 C   0  0  0  0  0  0  0  0  0  0  0  0
  -33.5688   59.1955   62.9730 C   0  0  0  0  0  0  0  0  0  0  0  0
  -33.4610   61.5992   62.7440 N   0  0  0  0  0  0  0  0  0  0  0  0
  -31.5333   60.4395   62.7728 O   0  0  0  0  0  0  0  0  0  0  0  0
  -32.7601   60.4641   62.8177 C   0  0  0  0  0  0  0  0  0  0  0  0
  -34.4437   61.5580   62.7852 H   0  0  0  0  0  0  0  0  0  0  0  0
  -33.5215   65.2170   62.7906 N   0  0  0  0  0  0  0  0  0  0  0  0
  -35.0576   63.6649   62.2783 O   0  0  0  0  0  0  0  0  0  0  0  0
  -32.8145   62.8924   62.6046 C   0  0  0  0  0  0  0  0  0  0  0  0
  -31.9839   62.9301   61.3168 C   0  0  0  0  0  0  0  0  0  0  0  0
  -30.9312   64.0331   61.3008 C   0  0  0  0  0  0  0  0  0  0  0  0
  -31.4684   65.4478   61.3905 C   0  0  0  0  0  0  0  0  0  0  0  0
  -32.1717   65.7624   62.6941 C   0  0  0  0  0  0  0  0  0  0  0  0
  -33.8959   63.9597   62.5434 C   0  0  0  0  0  0  0  0  0  0  0  0
  -34.2305   65.8415   63.0670 H   0  0  0  0  0  0  0  0  0  0  0  0
  -38.6398   57.9620   61.1799 C   0  0  0  0  0  0  0  0  0  0  0  0
  -39.7975   58.2579   62.1272 C   0  0  0  0  0  0  0  0  0  0  0  0
  -40.3878   57.0098   62.7568 C   0  0  0  0  0  0  0  0  0  0  0  0
  -40.7687   57.1553   64.2139 C   0  0  0  0  0  0  0  0  0  0  0  0
  -42.1382   56.7217   64.4412 N   0  0  0  0  0  0  0  0  0  0  0  0
  -42.5176   58.2130   66.0923 O   0  0  0  0  0  0  0  0  0  0  0  0
  -42.9182   57.2855   65.3699 C   0  0  0  0  0  0  0  0  0  0  0  0
  -42.5029   55.9892   63.8938 H   0  0  0  0  0  0  0  0  0  0  0  0
  -45.4023   57.2926   65.3220 C   0  0  0  0  0  0  0  0  0  0  0  0
  -44.2521   56.6599   65.5099 C   0  0  0  0  0  0  0  0  0  0  0  0
  -45.6088   58.7204   64.9228 C   0  0  0  0  0  0  0  0  0  0  0  0
  -47.0680   59.1382   65.0569 C   0  0  0  0  0  0  0  0  0  0  0  0
  -47.7172   58.6912   66.3553 C   0  0  0  0  0  0  0  0  0  0  0  0
  -49.1434   58.1958   66.1832 C   0  0  0  0  0  0  0  0  0  0  0  0
  -50.1814   59.2978   66.0846 C   0  0  0  0  0  0  0  0  0  0  0  0
  -50.9543   59.2861   64.7762 C   0  0  0  0  0  0  0  0  0  0  0  0
  -50.6483   60.4714   63.8816 C   0  0  0  0  0  0  0  0  0  0  0  0
  -49.7222   60.1259   62.7328 C   0  0  0  0  0  0  0  0  0  0  0  0
  -49.5713   58.6388   62.4760 C   0  0  0  0  0  0  0  0  0  0  0  0
  -50.3552   58.1712   61.2656 C   0  0  0  0  0  0  0  0  0  0  0  0
  -50.0511   56.7346   60.8733 C   0  0  0  0  0  0  0  0  0  0  0  0
  -49.0090   56.5971   59.7770 C   0  0  0  0  0  0  0  0  0  0  0  0
  -47.8960   57.6315   59.8407 C   0  0  0  0  0  0  0  0  0  0  0  0
  -46.6601   57.2591   59.0332 C   0  0  0  0  0  0  0  0  0  0  0  0
  -46.5140   58.0580   57.7481 C   0  0  0  0  0  0  0  0  0  0  0  0
  -48.0404   56.6978   56.2661 C   0  0  0  0  0  0  0  0  0  0  0  0
  -46.6500   57.2365   56.4789 C   0  0  0  0  0  0  0  0  0  0  0  0
 43 45  1  0  0  0
 43 42  1  0  0  0
 43 46  1  0  0  0
 64 65  1  0  0  0
 44 45  2  0  0  0
 65 63  1  0  0  0
  2  1  1  0  0  0
  2  4  1  0  0  0
  2  5  1  0  0  0
  3  4  2  0  0  0
 63 62  1  0  0  0
  6  8  1  0  0  0
  6 11  2  0  0  0
  7 10  1  0  0  0
  7 11  1  0  0  0
 62 61  1  0  0  0
 26 28  1  0  0  0
 26 32  1  0  0  0
 26 29  1  0  0  0
 12 18  1  0  0  0
 12 19  1  0  0  0
 61 60  1  0  0  0
 30 36  1  0  0  0
 30 37  1  0  0  0
 30 38  1  0  0  0
 20 21  2  0  0  0
 60 59  1  0  0  0
 22 21  1  0  0  0
 22 23  1  0  0  0
 59 58  1  0  0  0
 27 28  2  0  0  0
 58 57  1  0  0  0
 31 37  2  0  0  0
 57 56  1  0  0  0
 56 55  1  0  0  0
 55 54  1  0  0  0
 54 53  1  0  0  0
 53 52  1  0  0  0
 52 51  1  0  0  0
 51 50  1  0  0  0
 50 49  1  0  0  0
 49 47  1  0  0  0
 47 48  2  0  0  0
 48 45  1  0  0  0
 42 41  1  0  0  0
 41 40  1  0  0  0
 40 39  1  0  0  0
 39  1  1  0  0  0
  1 21  1  0  0  0
  8  4  1  0  0  0
  8  9  1  0  0  0
  8 10  1  0  0  0
 11 13  1  0  0  0
 13 14  2  0  0  0
 13 18  1  0  0  0
 14 15  1  0  0  0
 15 16  2  0  0  0
 16 17  1  0  0  0
 17 18  2  0  0  0
 23 24  1  0  0  0
 23 25  1  0  0  0
 25 28  1  0  0  0
 32 33  1  0  0  0
 32 37  1  0  0  0
 33 34  1  0  0  0
 34 35  1  0  0  0
 35 36  1  0  0  0
M  END
> <minimizedAffinity>
-9.24488

> <CNNscore>
0.1995555162

> <CNNaffinity>
7.2724227905

> <CNN_VS>
1.4512521029

> <CNNaffinity_variance>
0.4838357866

$$$$
/media/chris/experiments/cd1a-new-docking/inputs/ligands/7ryo_ligand.pdb


 65 67  0  0  0  0  0  0  0  0999 V2000
  -36.6344   58.3304   63.3853 C   0  0  0  0  0  0  0  0  0  0  0  0
  -37.8150   59.1400   63.6368 N   0  0  0  0  0  0  0  0  0  0  0  0
  -38.4171   57.9587   65.4524 O   0  0  0  0  0  0  0  0  0  0  0  0
  -38.6182   58.8760   64.6703 C   0  0  0  0  0  0  0  0  0  0  0  0
  -38.0252   59.8924   63.0377 H   0  0  0  0  0  0  0  0  0  0  0  0
  -41.0723   59.0126   64.4944 N   0  0  0  0  0  0  0  0  0  0  0  0
  -41.4936   59.8530   66.5437 O   0  0  0  0  0  0  0  0  0  0  0  0
  -39.8588   59.7659   64.8517 C   0  0  0  0  0  0  0  0  0  0  0  0
  -39.7366   60.9768   63.9316 C   0  0  0  0  0  0  0  0  0  0  0  0
  -40.1010   60.1832   66.3098 C   0  0  0  0  0  0  0  0  0  0  0  0
  -41.8802   59.1211   65.4665 C   0  0  0  0  0  0  0  0  0  0  0  0
  -42.9515   57.4100   63.4151 O   0  0  0  0  0  0  0  0  0  0  0  0
  -43.2187   58.5315   65.5473 C   0  0  0  0  0  0  0  0  0  0  0  0
  -43.9762   58.6698   66.7110 C   0  0  0  0  0  0  0  0  0  0  0  0
  -45.1266   57.9218   66.8931 C   0  0  0  0  0  0  0  0  0  0  0  0
  -45.5395   57.0303   65.9270 C   0  0  0  0  0  0  0  0  0  0  0  0
  -44.8042   56.8711   64.7665 C   0  0  0  0  0  0  0  0  0  0  0  0
  -43.6440   57.6124   64.5661 C   0  0  0  0  0  0  0  0  0  0  0  0
  -42.1659   57.8933   63.2498 H   0  0  0  0  0  0  0  0  0  0  0  0
  -35.4246   60.3805   62.9677 O   0  0  0  0  0  0  0  0  0  0  0  0
  -35.4025   59.2005   63.1854 C   0  0  0  0  0  0  0  0  0  0  0  0
  -34.2836   58.4596   63.2656 O   0  0  0  0  0  0  0  0  0  0  0  0
  -33.2600   58.6387   62.2312 C   0  0  0  0  0  0  0  0  0  0  0  0
  -32.8081   57.2730   61.7792 C   0  0  0  0  0  0  0  0  0  0  0  0
  -32.1453   59.4255   62.8929 C   0  0  0  0  0  0  0  0  0  0  0  0
  -32.7934   61.7521   62.9880 N   0  0  0  0  0  0  0  0  0  0  0  0
  -31.2795   61.1251   61.4464 O   0  0  0  0  0  0  0  0  0  0  0  0
  -32.0337   60.8413   62.3728 C   0  0  0  0  0  0  0  0  0  0  0  0
  -33.3798   61.4663   63.7253 H   0  0  0  0  0  0  0  0  0  0  0  0
  -31.2540   65.0260   62.9143 N   0  0  0  0  0  0  0  0  0  0  0  0
  -31.2090   63.3442   64.3978 O   0  0  0  0  0  0  0  0  0  0  0  0
  -32.7791   63.1517   62.6000 C   0  0  0  0  0  0  0  0  0  0  0  0
  -34.1292   63.8017   62.9230 C   0  0  0  0  0  0  0  0  0  0  0  0
  -34.3787   65.1012   62.1652 C   0  0  0  0  0  0  0  0  0  0  0  0
  -33.3957   66.2197   62.4487 C   0  0  0  0  0  0  0  0  0  0  0  0
  -31.9754   65.9214   62.0164 C   0  0  0  0  0  0  0  0  0  0  0  0
  -31.6784   63.8501   63.3827 C   0  0  0  0  0  0  0  0  0  0  0  0
  -30.3606   65.3196   63.2054 H   0  0  0  0  0  0  0  0  0  0  0  0
  -36.8443   57.3982   62.1912 C   0  0  0  0  0  0  0  0  0  0  0  0
  -38.3202   57.1326   61.9146 C   0  0  0  0  0  0  0  0  0  0  0  0
  -38.9605   58.1850   61.0285 C   0  0  0  0  0  0  0  0  0  0  0  0
  -40.4426   57.9954   60.7902 C   0  0  0  0  0  0  0  0  0  0  0  0
  -40.7568   58.0693   59.3721 N   0  0  0  0  0  0  0  0  0  0  0  0
  -41.0728   60.3040   59.3835 O   0  0  0  0  0  0  0  0  0  0  0  0
  -41.0511   59.2255   58.7679 C   0  0  0  0  0  0  0  0  0  0  0  0
  -40.7529   57.2412   58.8397 H   0  0  0  0  0  0  0  0  0  0  0  0
  -42.6159   58.7176   56.9059 C   0  0  0  0  0  0  0  0  0  0  0  0
  -41.4207   59.0930   57.3409 C   0  0  0  0  0  0  0  0  0  0  0  0
  -43.8224   58.3740   57.7226 C   0  0  0  0  0  0  0  0  0  0  0  0
  -45.1148   58.6687   56.9710 C   0  0  0  0  0  0  0  0  0  0  0  0
  -46.3217   57.9198   57.5091 C   0  0  0  0  0  0  0  0  0  0  0  0
  -46.6979   56.7000   56.6846 C   0  0  0  0  0  0  0  0  0  0  0  0
  -47.4463   55.6294   57.4562 C   0  0  0  0  0  0  0  0  0  0  0  0
  -48.5348   56.1841   58.3601 C   0  0  0  0  0  0  0  0  0  0  0  0
  -48.3939   55.7590   59.8087 C   0  0  0  0  0  0  0  0  0  0  0  0
  -49.6344   56.0376   60.6335 C   0  0  0  0  0  0  0  0  0  0  0  0
  -50.2866   57.3772   60.3500 C   0  0  0  0  0  0  0  0  0  0  0  0
  -51.1168   57.8822   61.5136 C   0  0  0  0  0  0  0  0  0  0  0  0
  -50.3195   58.0289   62.7993 C   0  0  0  0  0  0  0  0  0  0  0  0
  -49.0209   58.8003   62.6406 C   0  0  0  0  0  0  0  0  0  0  0  0
  -48.1095   58.7452   63.8569 C   0  0  0  0  0  0  0  0  0  0  0  0
  -48.7831   58.2005   65.1090 C   0  0  0  0  0  0  0  0  0  0  0  0
  -49.2081   59.2839   66.0871 C   0  0  0  0  0  0  0  0  0  0  0  0
  -50.7773   60.9878   65.0817 C   0  0  0  0  0  0  0  0  0  0  0  0
  -50.6445   59.7475   65.9258 C   0  0  0  0  0  0  0  0  0  0  0  0
 43 45  1  0  0  0
 43 42  1  0  0  0
 43 46  1  0  0  0
 64 65  1  0  0  0
 44 45  2  0  0  0
 65 63  1  0  0  0
  2  1  1  0  0  0
  2  4  1  0  0  0
  2  5  1  0  0  0
  3  4  2  0  0  0
 63 62  1  0  0  0
  6  8  1  0  0  0
  6 11  2  0  0  0
  7 10  1  0  0  0
  7 11  1  0  0  0
 62 61  1  0  0  0
 26 28  1  0  0  0
 26 32  1  0  0  0
 26 29  1  0  0  0
 12 18  1  0  0  0
 12 19  1  0  0  0
 61 60  1  0  0  0
 30 36  1  0  0  0
 30 37  1  0  0  0
 30 38  1  0  0  0
 20 21  2  0  0  0
 60 59  1  0  0  0
 22 21  1  0  0  0
 22 23  1  0  0  0
 59 58  1  0  0  0
 27 28  2  0  0  0
 58 57  1  0  0  0
 31 37  2  0  0  0
 57 56  1  0  0  0
 56 55  1  0  0  0
 55 54  1  0  0  0
 54 53  1  0  0  0
 53 52  1  0  0  0
 52 51  1  0  0  0
 51 50  1  0  0  0
 50 49  1  0  0  0
 49 47  1  0  0  0
 47 48  2  0  0  0
 48 45  1  0  0  0
 42 41  1  0  0  0
 41 40  1  0  0  0
 40 39  1  0  0  0
 39  1  1  0  0  0
  1 21  1  0  0  0
  8  4  1  0  0  0
  8  9  1  0  0  0
  8 10  1  0  0  0
 11 13  1  0  0  0
 13 14  2  0  0  0
 13 18  1  0  0  0
 14 15  1  0  0  0
 15 16  2  0  0  0
 16 17  1  0  0  0
 17 18  2  0  0  0
 23 24  1  0  0  0
 23 25  1  0  0  0
 25 28  1  0  0  0
 32 33  1  0  0  0
 32 37  1  0  0  0
 33 34  1  0  0  0
 34 35  1  0  0  0
 35 36  1  0  0  0
M  END
> <minimizedAffinity>
-7.16368

> <CNNscore>
0.1878695190

> <CNNaffinity>
7.3901124001

> <CNN_VS>
1.3883768320

> <CNNaffinity_variance>
0.5984069705

$$$$
/media/chris/experiments/cd1a-new-docking/inputs/ligands/7ryo_ligand.pdb


 65 67  0  0  0  0  0  0  0  0999 V2000
  -39.7078   58.3739   64.3223 C   0  0  0  0  0  0  0  0  0  0  0  0
  -38.3465   58.2367   64.8125 N   0  0  0  0  0  0  0  0  0  0  0  0
  -37.5960   57.3188   62.9024 O   0  0  0  0  0  0  0  0  0  0  0  0
  -37.3916   57.7100   64.0420 C   0  0  0  0  0  0  0  0  0  0  0  0
  -38.1256   58.5359   65.7240 H   0  0  0  0  0  0  0  0  0  0  0  0
  -34.9941   57.3896   63.5713 N   0  0  0  0  0  0  0  0  0  0  0  0
  -34.1949   59.1024   64.8004 O   0  0  0  0  0  0  0  0  0  0  0  0
  -35.9833   57.5791   64.6451 C   0  0  0  0  0  0  0  0  0  0  0  0
  -35.9528   56.3652   65.5688 C   0  0  0  0  0  0  0  0  0  0  0  0
  -35.5077   58.8507   65.3631 C   0  0  0  0  0  0  0  0  0  0  0  0
  -34.0825   58.2546   63.7449 C   0  0  0  0  0  0  0  0  0  0  0  0
  -33.2151   56.2888   61.8300 O   0  0  0  0  0  0  0  0  0  0  0  0
  -32.8916   58.4340   62.9110 C   0  0  0  0  0  0  0  0  0  0  0  0
  -32.2075   59.6502   62.9188 C   0  0  0  0  0  0  0  0  0  0  0  0
  -31.2386   59.9171   61.9670 C   0  0  0  0  0  0  0  0  0  0  0  0
  -30.9362   58.9845   60.9986 C   0  0  0  0  0  0  0  0  0  0  0  0
  -31.6028   57.7732   60.9661 C   0  0  0  0  0  0  0  0  0  0  0  0
  -32.5813   57.4874   61.9129 C   0  0  0  0  0  0  0  0  0  0  0  0
  -33.8791   56.0658   62.4524 H   0  0  0  0  0  0  0  0  0  0  0  0
  -40.5462   60.6106   64.6897 O   0  0  0  0  0  0  0  0  0  0  0  0
  -40.0193   59.8179   63.9587 C   0  0  0  0  0  0  0  0  0  0  0  0
  -39.6410   60.0784   62.6952 O   0  0  0  0  0  0  0  0  0  0  0  0
  -38.4483   60.9054   62.4869 C   0  0  0  0  0  0  0  0  0  0  0  0
  -37.6603   60.3109   61.3471 C   0  0  0  0  0  0  0  0  0  0  0  0
  -37.6882   60.8619   63.7983 C   0  0  0  0  0  0  0  0  0  0  0  0
  -36.1332   62.5020   64.6550 N   0  0  0  0  0  0  0  0  0  0  0  0
  -35.5197   61.2746   62.8720 O   0  0  0  0  0  0  0  0  0  0  0  0
  -36.3507   61.5644   63.7283 C   0  0  0  0  0  0  0  0  0  0  0  0
  -36.8365   62.6922   65.3170 H   0  0  0  0  0  0  0  0  0  0  0  0
  -33.2621   63.7807   66.4482 N   0  0  0  0  0  0  0  0  0  0  0  0
  -35.3728   63.3283   67.0575 O   0  0  0  0  0  0  0  0  0  0  0  0
  -34.8888   63.2488   64.7136 C   0  0  0  0  0  0  0  0  0  0  0  0
  -35.0585   64.6098   64.0292 C   0  0  0  0  0  0  0  0  0  0  0  0
  -33.7387   65.2657   63.6379 C   0  0  0  0  0  0  0  0  0  0  0  0
  -32.8045   65.5868   64.7877 C   0  0  0  0  0  0  0  0  0  0  0  0
  -32.2936   64.3697   65.5298 C   0  0  0  0  0  0  0  0  0  0  0  0
  -34.5282   63.4567   66.1761 C   0  0  0  0  0  0  0  0  0  0  0  0
  -32.9493   63.6037   67.3647 H   0  0  0  0  0  0  0  0  0  0  0  0
  -40.7196   57.8351   65.3347 C   0  0  0  0  0  0  0  0  0  0  0  0
  -41.7923   56.9714   64.6797 C   0  0  0  0  0  0  0  0  0  0  0  0
  -43.0844   57.7220   64.4159 C   0  0  0  0  0  0  0  0  0  0  0  0
  -44.3074   57.1307   65.0824 C   0  0  0  0  0  0  0  0  0  0  0  0
  -45.3153   58.1510   65.3232 N   0  0  0  0  0  0  0  0  0  0  0  0
  -46.9101   56.6750   65.9330 O   0  0  0  0  0  0  0  0  0  0  0  0
  -46.5514   57.8472   65.7335 C   0  0  0  0  0  0  0  0  0  0  0  0
  -45.0800   59.0961   65.1794 H   0  0  0  0  0  0  0  0  0  0  0  0
  -48.5269   59.2078   65.0856 C   0  0  0  0  0  0  0  0  0  0  0  0
  -47.4604   59.0095   65.8485 C   0  0  0  0  0  0  0  0  0  0  0  0
  -49.0470   58.3295   63.9908 C   0  0  0  0  0  0  0  0  0  0  0  0
  -50.4535   58.7323   63.5647 C   0  0  0  0  0  0  0  0  0  0  0  0
  -50.6379   58.8167   62.0594 C   0  0  0  0  0  0  0  0  0  0  0  0
  -51.0364   57.4969   61.4204 C   0  0  0  0  0  0  0  0  0  0  0  0
  -50.0435   56.9695   60.4018 C   0  0  0  0  0  0  0  0  0  0  0  0
  -49.0044   57.9958   59.9818 C   0  0  0  0  0  0  0  0  0  0  0  0
  -47.6545   57.3901   59.6504 C   0  0  0  0  0  0  0  0  0  0  0  0
  -47.6374   56.6691   58.3174 C   0  0  0  0  0  0  0  0  0  0  0  0
  -47.1309   57.5070   57.1592 C   0  0  0  0  0  0  0  0  0  0  0  0
  -46.1273   58.5578   57.5916 C   0  0  0  0  0  0  0  0  0  0  0  0
  -44.6921   58.0577   57.5764 C   0  0  0  0  0  0  0  0  0  0  0  0
  -43.7857   58.7998   56.6098 C   0  0  0  0  0  0  0  0  0  0  0  0
  -42.4007   59.1028   57.1605 C   0  0  0  0  0  0  0  0  0  0  0  0
  -42.0220   58.2651   58.3741 C   0  0  0  0  0  0  0  0  0  0  0  0
  -40.9524   58.9077   59.2425 C   0  0  0  0  0  0  0  0  0  0  0  0
  -41.5403   57.0936   60.8977 C   0  0  0  0  0  0  0  0  0  0  0  0
  -40.4853   58.0480   60.4030 C   0  0  0  0  0  0  0  0  0  0  0  0
 43 45  1  0  0  0
 43 42  1  0  0  0
 43 46  1  0  0  0
 64 65  1  0  0  0
 44 45  2  0  0  0
 65 63  1  0  0  0
  2  1  1  0  0  0
  2  4  1  0  0  0
  2  5  1  0  0  0
  3  4  2  0  0  0
 63 62  1  0  0  0
  6  8  1  0  0  0
  6 11  2  0  0  0
  7 10  1  0  0  0
  7 11  1  0  0  0
 62 61  1  0  0  0
 26 28  1  0  0  0
 26 32  1  0  0  0
 26 29  1  0  0  0
 12 18  1  0  0  0
 12 19  1  0  0  0
 61 60  1  0  0  0
 30 36  1  0  0  0
 30 37  1  0  0  0
 30 38  1  0  0  0
 20 21  2  0  0  0
 60 59  1  0  0  0
 22 21  1  0  0  0
 22 23  1  0  0  0
 59 58  1  0  0  0
 27 28  2  0  0  0
 58 57  1  0  0  0
 31 37  2  0  0  0
 57 56  1  0  0  0
 56 55  1  0  0  0
 55 54  1  0  0  0
 54 53  1  0  0  0
 53 52  1  0  0  0
 52 51  1  0  0  0
 51 50  1  0  0  0
 50 49  1  0  0  0
 49 47  1  0  0  0
 47 48  2  0  0  0
 48 45  1  0  0  0
 42 41  1  0  0  0
 41 40  1  0  0  0
 40 39  1  0  0  0
 39  1  1  0  0  0
  1 21  1  0  0  0
  8  4  1  0  0  0
  8  9  1  0  0  0
  8 10  1  0  0  0
 11 13  1  0  0  0
 13 14  2  0  0  0
 13 18  1  0  0  0
 14 15  1  0  0  0
 15 16  2  0  0  0
 16 17  1  0  0  0
 17 18  2  0  0  0
 23 24  1  0  0  0
 23 25  1  0  0  0
 25 28  1  0  0  0
 32 33  1  0  0  0
 32 37  1  0  0  0
 33 34  1  0  0  0
 34 35  1  0  0  0
 35 36  1  0  0  0
M  END
> <minimizedAffinity>
-7.93447

> <CNNscore>
0.1870459914

> <CNNaffinity>
7.4721708298

> <CNN_VS>
1.3976396322

> <CNNaffinity_variance>
0.8366969228

$$$$
/media/chris/experiments/cd1a-new-docking/inputs/ligands/7ryo_ligand.pdb


 65 67  0  0  0  0  0  0  0  0999 V2000
  -43.3534   57.8898   64.0914 C   0  0  0  0  0  0  0  0  0  0  0  0
  -44.6862   57.8819   64.6710 N   0  0  0  0  0  0  0  0  0  0  0  0
  -43.9308   58.1152   66.7756 O   0  0  0  0  0  0  0  0  0  0  0  0
  -44.8595   57.9978   65.9899 C   0  0  0  0  0  0  0  0  0  0  0  0
  -45.4711   57.7899   64.0839 H   0  0  0  0  0  0  0  0  0  0  0  0
  -47.1586   58.8421   65.7189 N   0  0  0  0  0  0  0  0  0  0  0  0
  -48.2323   56.8597   65.7432 O   0  0  0  0  0  0  0  0  0  0  0  0
  -46.3008   57.9565   66.5237 C   0  0  0  0  0  0  0  0  0  0  0  0
  -46.3055   58.4406   67.9706 C   0  0  0  0  0  0  0  0  0  0  0  0
  -46.9625   56.5775   66.3844 C   0  0  0  0  0  0  0  0  0  0  0  0
  -48.1608   58.1577   65.3490 C   0  0  0  0  0  0  0  0  0  0  0  0
  -50.2473   59.8447   66.3903 O   0  0  0  0  0  0  0  0  0  0  0  0
  -49.2767   58.6341   64.5282 C   0  0  0  0  0  0  0  0  0  0  0  0
  -49.2868   58.3958   63.1533 C   0  0  0  0  0  0  0  0  0  0  0  0
  -50.1977   59.0418   62.3354 C   0  0  0  0  0  0  0  0  0  0  0  0
  -51.1074   59.9290   62.8683 C   0  0  0  0  0  0  0  0  0  0  0  0
  -51.1154   60.1862   64.2271 C   0  0  0  0  0  0  0  0  0  0  0  0
  -50.2062   59.5483   65.0653 C   0  0  0  0  0  0  0  0  0  0  0  0
  -49.6485   59.4324   66.9814 H   0  0  0  0  0  0  0  0  0  0  0  0
  -43.2126   55.5441   64.6559 O   0  0  0  0  0  0  0  0  0  0  0  0
  -42.6734   56.5389   64.2560 C   0  0  0  0  0  0  0  0  0  0  0  0
  -41.3765   56.6184   63.9107 O   0  0  0  0  0  0  0  0  0  0  0  0
  -41.0497   56.9940   62.5316 C   0  0  0  0  0  0  0  0  0  0  0  0
  -42.0538   56.3380   61.6178 C   0  0  0  0  0  0  0  0  0  0  0  0
  -39.6391   56.4901   62.2954 C   0  0  0  0  0  0  0  0  0  0  0  0
  -37.3271   57.1262   62.5985 N   0  0  0  0  0  0  0  0  0  0  0  0
  -38.8923   58.1550   63.8450 O   0  0  0  0  0  0  0  0  0  0  0  0
  -38.5891   57.3308   62.9868 C   0  0  0  0  0  0  0  0  0  0  0  0
  -37.1435   56.4515   61.9055 H   0  0  0  0  0  0  0  0  0  0  0  0
  -34.0527   58.6491   62.3682 N   0  0  0  0  0  0  0  0  0  0  0  0
  -34.9873   56.8671   61.3773 O   0  0  0  0  0  0  0  0  0  0  0  0
  -36.2184   57.8707   63.1694 C   0  0  0  0  0  0  0  0  0  0  0  0
  -35.8450   57.2920   64.5389 C   0  0  0  0  0  0  0  0  0  0  0  0
  -35.0292   58.2468   65.4038 C   0  0  0  0  0  0  0  0  0  0  0  0
  -33.6829   58.6511   64.8363 C   0  0  0  0  0  0  0  0  0  0  0  0
  -33.7659   59.4506   63.5530 C   0  0  0  0  0  0  0  0  0  0  0  0
  -35.0312   57.7521   62.2267 C   0  0  0  0  0  0  0  0  0  0  0  0
  -33.4630   58.7839   61.5915 H   0  0  0  0  0  0  0  0  0  0  0  0
  -42.4962   59.0087   64.6850 C   0  0  0  0  0  0  0  0  0  0  0  0
  -42.0995   60.0502   63.6442 C   0  0  0  0  0  0  0  0  0  0  0  0
  -41.0323   61.0100   64.1365 C   0  0  0  0  0  0  0  0  0  0  0  0
  -40.4087   60.6367   65.4636 C   0  0  0  0  0  0  0  0  0  0  0  0
  -39.1712   61.3685   65.6831 N   0  0  0  0  0  0  0  0  0  0  0  0
  -37.9859   59.5334   66.2500 O   0  0  0  0  0  0  0  0  0  0  0  0
  -38.0424   60.7600   66.0628 C   0  0  0  0  0  0  0  0  0  0  0  0
  -39.1642   62.3437   65.5478 H   0  0  0  0  0  0  0  0  0  0  0  0
  -35.9693   61.9711   65.4237 C   0  0  0  0  0  0  0  0  0  0  0  0
  -36.9079   61.6768   66.3131 C   0  0  0  0  0  0  0  0  0  0  0  0
  -35.8556   61.4802   64.0142 C   0  0  0  0  0  0  0  0  0  0  0  0
  -37.2137   61.0975   63.4389 C   0  0  0  0  0  0  0  0  0  0  0  0
  -37.1815   60.7701   61.9560 C   0  0  0  0  0  0  0  0  0  0  0  0
  -38.5604   60.5993   61.3408 C   0  0  0  0  0  0  0  0  0  0  0  0
  -38.5570   59.9620   59.9640 C   0  0  0  0  0  0  0  0  0  0  0  0
  -39.5557   58.8255   59.8207 C   0  0  0  0  0  0  0  0  0  0  0  0
  -40.9513   59.2887   59.4514 C   0  0  0  0  0  0  0  0  0  0  0  0
  -41.6054   58.4217   58.3943 C   0  0  0  0  0  0  0  0  0  0  0  0
  -41.8044   59.1086   57.0569 C   0  0  0  0  0  0  0  0  0  0  0  0
  -43.2426   59.0568   56.5803 C   0  0  0  0  0  0  0  0  0  0  0  0
  -44.1528   58.2675   57.5070 C   0  0  0  0  0  0  0  0  0  0  0  0
  -45.5729   58.1056   56.9935 C   0  0  0  0  0  0  0  0  0  0  0  0
  -46.5364   57.5006   58.0028 C   0  0  0  0  0  0  0  0  0  0  0  0
  -47.5277   58.4987   58.5851 C   0  0  0  0  0  0  0  0  0  0  0  0
  -48.7215   57.8421   59.2597 C   0  0  0  0  0  0  0  0  0  0  0  0
  -49.5717   55.8223   60.5143 C   0  0  0  0  0  0  0  0  0  0  0  0
  -48.5381   56.3661   59.5632 C   0  0  0  0  0  0  0  0  0  0  0  0
 43 45  1  0  0  0
 43 42  1  0  0  0
 43 46  1  0  0  0
 64 65  1  0  0  0
 44 45  2  0  0  0
 65 63  1  0  0  0
  2  1  1  0  0  0
  2  4  1  0  0  0
  2  5  1  0  0  0
  3  4  2  0  0  0
 63 62  1  0  0  0
  6  8  1  0  0  0
  6 11  2  0  0  0
  7 10  1  0  0  0
  7 11  1  0  0  0
 62 61  1  0  0  0
 26 28  1  0  0  0
 26 32  1  0  0  0
 26 29  1  0  0  0
 12 18  1  0  0  0
 12 19  1  0  0  0
 61 60  1  0  0  0
 30 36  1  0  0  0
 30 37  1  0  0  0
 30 38  1  0  0  0
 20 21  2  0  0  0
 60 59  1  0  0  0
 22 21  1  0  0  0
 22 23  1  0  0  0
 59 58  1  0  0  0
 27 28  2  0  0  0
 58 57  1  0  0  0
 31 37  2  0  0  0
 57 56  1  0  0  0
 56 55  1  0  0  0
 55 54  1  0  0  0
 54 53  1  0  0  0
 53 52  1  0  0  0
 52 51  1  0  0  0
 51 50  1  0  0  0
 50 49  1  0  0  0
 49 47  1  0  0  0
 47 48  2  0  0  0
 48 45  1  0  0  0
 42 41  1  0  0  0
 41 40  1  0  0  0
 40 39  1  0  0  0
 39  1  1  0  0  0
  1 21  1  0  0  0
  8  4  1  0  0  0
  8  9  1  0  0  0
  8 10  1  0  0  0
 11 13  1  0  0  0
 13 14  2  0  0  0
 13 18  1  0  0  0
 14 15  1  0  0  0
 15 16  2  0  0  0
 16 17  1  0  0  0
 17 18  2  0  0  0
 23 24  1  0  0  0
 23 25  1  0  0  0
 25 28  1  0  0  0
 32 33  1  0  0  0
 32 37  1  0  0  0
 33 34  1  0  0  0
 34 35  1  0  0  0
 35 36  1  0  0  0
M  END
> <minimizedAffinity>
-8.03669

> <CNNscore>
0.1689753085

> <CNNaffinity>
7.9911031723

> <CNN_VS>
1.3502991199

> <CNNaffinity_variance>
1.7130883932

$$$$
