/media/chris/experiments/cd1a-new-docking/inputs/ligands/7ryo_ligand.pdb


 65 67  0  0  0  0  0  0  0  0999 V2000
  -35.1339   61.2044   64.2237 C   0  0  0  0  0  0  0  0  0  0  0  0
  -35.5487   60.0362   63.4651 N   0  0  0  0  0  0  0  0  0  0  0  0
  -36.9660   61.2018   62.1665 O   0  0  0  0  0  0  0  0  0  0  0  0
  -36.4473   60.1416   62.4831 C   0  0  0  0  0  0  0  0  0  0  0  0
  -35.1625   59.1560   63.6781 H   0  0  0  0  0  0  0  0  0  0  0  0
  -37.8242   58.0992   62.5502 N   0  0  0  0  0  0  0  0  0  0  0  0
  -38.7728   58.2857   60.5135 O   0  0  0  0  0  0  0  0  0  0  0  0
  -36.8488   58.8535   61.7458 C   0  0  0  0  0  0  0  0  0  0  0  0
  -35.6048   57.9947   61.5392 C   0  0  0  0  0  0  0  0  0  0  0  0
  -37.5854   59.1132   60.4233 C   0  0  0  0  0  0  0  0  0  0  0  0
  -38.8151   57.8481   61.7989 C   0  0  0  0  0  0  0  0  0  0  0  0
  -39.4372   57.1884   64.5305 O   0  0  0  0  0  0  0  0  0  0  0  0
  -40.0239   57.1136   62.1798 C   0  0  0  0  0  0  0  0  0  0  0  0
  -41.0010   56.8293   61.2250 C   0  0  0  0  0  0  0  0  0  0  0  0
  -42.2442   56.3586   61.6112 C   0  0  0  0  0  0  0  0  0  0  0  0
  -42.5335   56.1642   62.9443 C   0  0  0  0  0  0  0  0  0  0  0  0
  -41.5842   56.4427   63.9107 C   0  0  0  0  0  0  0  0  0  0  0  0
  -40.3296   56.9185   63.5425 C   0  0  0  0  0  0  0  0  0  0  0  0
  -38.5838   57.5101   64.3158 H   0  0  0  0  0  0  0  0  0  0  0  0
  -33.0769   62.4639   64.3749 O   0  0  0  0  0  0  0  0  0  0  0  0
  -33.6358   61.4384   64.0992 C   0  0  0  0  0  0  0  0  0  0  0  0
  -33.0257   60.3420   63.6164 O   0  0  0  0  0  0  0  0  0  0  0  0
  -32.2885   60.4598   62.3546 C   0  0  0  0  0  0  0  0  0  0  0  0
  -31.6890   59.1135   62.0357 C   0  0  0  0  0  0  0  0  0  0  0  0
  -31.2310   61.5191   62.5979 C   0  0  0  0  0  0  0  0  0  0  0  0
  -30.6231   63.3901   61.1935 N   0  0  0  0  0  0  0  0  0  0  0  0
  -30.1778   61.3109   60.4580 O   0  0  0  0  0  0  0  0  0  0  0  0
  -30.6326   62.0598   61.3182 C   0  0  0  0  0  0  0  0  0  0  0  0
  -30.2467   63.7910   60.3768 H   0  0  0  0  0  0  0  0  0  0  0  0
  -33.3751   64.9512   62.9493 N   0  0  0  0  0  0  0  0  0  0  0  0
  -33.0945   64.2798   60.8276 O   0  0  0  0  0  0  0  0  0  0  0  0
  -31.1521   64.2615   62.2281 C   0  0  0  0  0  0  0  0  0  0  0  0
  -30.4064   65.6007   62.2208 C   0  0  0  0  0  0  0  0  0  0  0  0
  -30.5582   66.3917   63.5156 C   0  0  0  0  0  0  0  0  0  0  0  0
  -31.9746   66.8025   63.8658 C   0  0  0  0  0  0  0  0  0  0  0  0
  -32.9058   65.6415   64.1459 C   0  0  0  0  0  0  0  0  0  0  0  0
  -32.6262   64.4990   61.9409 C   0  0  0  0  0  0  0  0  0  0  0  0
  -34.3459   64.8034   62.8781 H   0  0  0  0  0  0  0  0  0  0  0  0
  -35.5487   61.0897   65.6913 C   0  0  0  0  0  0  0  0  0  0  0  0
  -37.0456   61.3020   65.8896 C   0  0  0  0  0  0  0  0  0  0  0  0
  -37.8180   60.0046   66.0400 C   0  0  0  0  0  0  0  0  0  0  0  0
  -39.2625   60.1726   66.4579 C   0  0  0  0  0  0  0  0  0  0  0  0
  -40.1446   60.1653   65.3017 N   0  0  0  0  0  0  0  0  0  0  0  0
  -42.1836   59.8078   64.4025 O   0  0  0  0  0  0  0  0  0  0  0  0
  -41.4350   59.8259   65.3933 C   0  0  0  0  0  0  0  0  0  0  0  0
  -39.7800   60.4185   64.4229 H   0  0  0  0  0  0  0  0  0  0  0  0
  -42.8932   58.7349   67.0836 C   0  0  0  0  0  0  0  0  0  0  0  0
  -41.8999   59.5567   66.7724 C   0  0  0  0  0  0  0  0  0  0  0  0
  -43.7261   57.9097   66.1530 C   0  0  0  0  0  0  0  0  0  0  0  0
  -45.1971   57.9231   66.5503 C   0  0  0  0  0  0  0  0  0  0  0  0
  -46.1465   57.6479   65.3971 C   0  0  0  0  0  0  0  0  0  0  0  0
  -47.5820   57.4092   65.8348 C   0  0  0  0  0  0  0  0  0  0  0  0
  -48.3902   58.6752   66.0479 C   0  0  0  0  0  0  0  0  0  0  0  0
  -49.8877   58.4715   65.8872 C   0  0  0  0  0  0  0  0  0  0  0  0
  -50.6672   59.7675   65.7803 C   0  0  0  0  0  0  0  0  0  0  0  0
  -50.5757   60.4050   64.4085 C   0  0  0  0  0  0  0  0  0  0  0  0
  -51.5921   59.8873   63.4089 C   0  0  0  0  0  0  0  0  0  0  0  0
  -51.0052   58.8692   62.4511 C   0  0  0  0  0  0  0  0  0  0  0  0
  -49.6003   59.2207   61.9898 C   0  0  0  0  0  0  0  0  0  0  0  0
  -48.8266   58.0508   61.4073 C   0  0  0  0  0  0  0  0  0  0  0  0
  -48.7909   58.0209   59.8872 C   0  0  0  0  0  0  0  0  0  0  0  0
  -47.4761   57.5146   59.3103 C   0  0  0  0  0  0  0  0  0  0  0  0
  -47.1181   58.1470   57.9750 C   0  0  0  0  0  0  0  0  0  0  0  0
  -47.0417   55.8090   57.0239 C   0  0  0  0  0  0  0  0  0  0  0  0
  -47.3691   57.2572   56.7711 C   0  0  0  0  0  0  0  0  0  0  0  0
 43 45  1  0  0  0
 43 42  1  0  0  0
 43 46  1  0  0  0
 64 65  1  0  0  0
 44 45  2  0  0  0
 65 63  1  0  0  0
  2  1  1  0  0  0
  2  4  1  0  0  0
  2  5  1  0  0  0
  3  4  2  0  0  0
 63 62  1  0  0  0
  6  8  1  0  0  0
  6 11  2  0  0  0
  7 10  1  0  0  0
  7 11  1  0  0  0
 62 61  1  0  0  0
 26 28  1  0  0  0
 26 32  1  0  0  0
 26 29  1  0  0  0
 12 18  1  0  0  0
 12 19  1  0  0  0
 61 60  1  0  0  0
 30 36  1  0  0  0
 30 37  1  0  0  0
 30 38  1  0  0  0
 20 21  2  0  0  0
 60 59  1  0  0  0
 22 21  1  0  0  0
 22 23  1  0  0  0
 59 58  1  0  0  0
 27 28  2  0  0  0
 58 57  1  0  0  0
 31 37  2  0  0  0
 57 56  1  0  0  0
 56 55  1  0  0  0
 55 54  1  0  0  0
 54 53  1  0  0  0
 53 52  1  0  0  0
 52 51  1  0  0  0
 51 50  1  0  0  0
 50 49  1  0  0  0
 49 47  1  0  0  0
 47 48  2  0  0  0
 48 45  1  0  0  0
 42 41  1  0  0  0
 41 40  1  0  0  0
 40 39  1  0  0  0
 39  1  1  0  0  0
  1 21  1  0  0  0
  8  4  1  0  0  0
  8  9  1  0  0  0
  8 10  1  0  0  0
 11 13  1  0  0  0
 13 14  2  0  0  0
 13 18  1  0  0  0
 14 15  1  0  0  0
 15 16  2  0  0  0
 16 17  1  0  0  0
 17 18  2  0  0  0
 23 24  1  0  0  0
 23 25  1  0  0  0
 25 28  1  0  0  0
 32 33  1  0  0  0
 32 37  1  0  0  0
 33 34  1  0  0  0
 34 35  1  0  0  0
 35 36  1  0  0  0
M  END
> <minimizedAffinity>
-9.95032

> <CNNscore>
0.2889384329

> <CNNaffinity>
7.3652405739

> <CNN_VS>
2.1281011105

> <CNNaffinity_variance>
0.6581927538

$$$$
/media/chris/experiments/cd1a-new-docking/inputs/ligands/7ryo_ligand.pdb


 65 67  0  0  0  0  0  0  0  0999 V2000
  -39.0423   59.5714   64.6371 C   0  0  0  0  0  0  0  0  0  0  0  0
  -38.0960   58.9593   63.7193 N   0  0  0  0  0  0  0  0  0  0  0  0
  -38.5719   60.3851   62.0476 O   0  0  0  0  0  0  0  0  0  0  0  0
  -37.9422   59.4311   62.4797 C   0  0  0  0  0  0  0  0  0  0  0  0
  -37.5619   58.1870   64.0152 H   0  0  0  0  0  0  0  0  0  0  0  0
  -35.5709   59.1717   61.8617 N   0  0  0  0  0  0  0  0  0  0  0  0
  -35.4591   56.9221   61.9589 O   0  0  0  0  0  0  0  0  0  0  0  0
  -36.9375   58.7115   61.5649 C   0  0  0  0  0  0  0  0  0  0  0  0
  -37.2685   59.0410   60.1124 C   0  0  0  0  0  0  0  0  0  0  0  0
  -36.8747   57.1955   61.8029 C   0  0  0  0  0  0  0  0  0  0  0  0
  -34.8622   58.1383   62.0591 C   0  0  0  0  0  0  0  0  0  0  0  0
  -32.8142   57.8743   60.0541 O   0  0  0  0  0  0  0  0  0  0  0  0
  -33.4341   58.1194   62.3846 C   0  0  0  0  0  0  0  0  0  0  0  0
  -33.0093   58.3761   63.6888 C   0  0  0  0  0  0  0  0  0  0  0  0
  -31.6706   58.6018   63.9596 C   0  0  0  0  0  0  0  0  0  0  0  0
  -30.7393   58.5754   62.9445 C   0  0  0  0  0  0  0  0  0  0  0  0
  -31.1347   58.3277   61.6427 C   0  0  0  0  0  0  0  0  0  0  0  0
  -32.4759   58.1007   61.3501 C   0  0  0  0  0  0  0  0  0  0  0  0
  -33.7089   57.7180   59.8239 H   0  0  0  0  0  0  0  0  0  0  0  0
  -38.8777   61.0680   66.5275 O   0  0  0  0  0  0  0  0  0  0  0  0
  -38.3322   60.4545   65.6522 C   0  0  0  0  0  0  0  0  0  0  0  0
  -37.0081   60.4695   65.4199 O   0  0  0  0  0  0  0  0  0  0  0  0
  -36.3649   61.7625   65.1672 C   0  0  0  0  0  0  0  0  0  0  0  0
  -35.7685   61.7256   63.7828 C   0  0  0  0  0  0  0  0  0  0  0  0
  -35.3097   61.9104   66.2462 C   0  0  0  0  0  0  0  0  0  0  0  0
  -34.6134   64.1724   66.7372 N   0  0  0  0  0  0  0  0  0  0  0  0
  -36.3164   63.2968   67.9183 O   0  0  0  0  0  0  0  0  0  0  0  0
  -35.4592   63.1853   67.0464 C   0  0  0  0  0  0  0  0  0  0  0  0
  -34.6686   65.0219   67.2319 H   0  0  0  0  0  0  0  0  0  0  0  0
  -31.1861   64.1850   65.5766 N   0  0  0  0  0  0  0  0  0  0  0  0
  -32.2582   65.3000   67.2009 O   0  0  0  0  0  0  0  0  0  0  0  0
  -33.6151   64.0282   65.6922 C   0  0  0  0  0  0  0  0  0  0  0  0
  -34.0301   64.8293   64.4529 C   0  0  0  0  0  0  0  0  0  0  0  0
  -33.3148   64.3965   63.1777 C   0  0  0  0  0  0  0  0  0  0  0  0
  -31.8078   64.5594   63.1887 C   0  0  0  0  0  0  0  0  0  0  0  0
  -31.0977   63.6915   64.2064 C   0  0  0  0  0  0  0  0  0  0  0  0
  -32.2928   64.5602   66.2219 C   0  0  0  0  0  0  0  0  0  0  0  0
  -30.3410   64.2479   66.0777 H   0  0  0  0  0  0  0  0  0  0  0  0
  -39.8997   58.5157   65.3366 C   0  0  0  0  0  0  0  0  0  0  0  0
  -41.3737   58.6231   64.9608 C   0  0  0  0  0  0  0  0  0  0  0  0
  -42.3012   58.0330   66.0068 C   0  0  0  0  0  0  0  0  0  0  0  0
  -43.7669   58.0441   65.6316 C   0  0  0  0  0  0  0  0  0  0  0  0
  -44.5994   58.3379   66.7872 N   0  0  0  0  0  0  0  0  0  0  0  0
  -46.6423   58.4981   67.7331 O   0  0  0  0  0  0  0  0  0  0  0  0
  -45.9323   58.2343   66.7488 C   0  0  0  0  0  0  0  0  0  0  0  0
  -44.1677   58.6225   67.6250 H   0  0  0  0  0  0  0  0  0  0  0  0
  -47.3721   58.3269   64.7261 C   0  0  0  0  0  0  0  0  0  0  0  0
  -46.4681   57.7082   65.4735 C   0  0  0  0  0  0  0  0  0  0  0  0
  -48.0182   59.6534   64.9788 C   0  0  0  0  0  0  0  0  0  0  0  0
  -48.7537   60.1664   63.7468 C   0  0  0  0  0  0  0  0  0  0  0  0
  -50.2668   60.1152   63.8702 C   0  0  0  0  0  0  0  0  0  0  0  0
  -50.9138   59.0632   62.9849 C   0  0  0  0  0  0  0  0  0  0  0  0
  -49.9335   58.1138   62.3222 C   0  0  0  0  0  0  0  0  0  0  0  0
  -50.3922   57.6254   60.9580 C   0  0  0  0  0  0  0  0  0  0  0  0
  -49.3540   56.7917   60.2328 C   0  0  0  0  0  0  0  0  0  0  0  0
  -48.6494   57.5505   59.1263 C   0  0  0  0  0  0  0  0  0  0  0  0
  -47.4704   56.8165   58.5168 C   0  0  0  0  0  0  0  0  0  0  0  0
  -46.9530   57.4834   57.2575 C   0  0  0  0  0  0  0  0  0  0  0  0
  -45.9048   58.5494   57.5313 C   0  0  0  0  0  0  0  0  0  0  0  0
  -44.4730   58.0689   57.3706 C   0  0  0  0  0  0  0  0  0  0  0  0
  -43.5655   59.0452   56.6384 C   0  0  0  0  0  0  0  0  0  0  0  0
  -42.1583   59.1302   57.2134 C   0  0  0  0  0  0  0  0  0  0  0  0
  -41.9360   58.2140   58.4060 C   0  0  0  0  0  0  0  0  0  0  0  0
  -40.9046   57.9945   60.7004 C   0  0  0  0  0  0  0  0  0  0  0  0
  -40.8473   58.6749   59.3580 C   0  0  0  0  0  0  0  0  0  0  0  0
 43 45  1  0  0  0
 43 42  1  0  0  0
 43 46  1  0  0  0
 64 65  1  0  0  0
 44 45  2  0  0  0
 65 63  1  0  0  0
  2  1  1  0  0  0
  2  4  1  0  0  0
  2  5  1  0  0  0
  3  4  2  0  0  0
 63 62  1  0  0  0
  6  8  1  0  0  0
  6 11  2  0  0  0
  7 10  1  0  0  0
  7 11  1  0  0  0
 62 61  1  0  0  0
 26 28  1  0  0  0
 26 32  1  0  0  0
 26 29  1  0  0  0
 12 18  1  0  0  0
 12 19  1  0  0  0
 61 60  1  0  0  0
 30 36  1  0  0  0
 30 37  1  0  0  0
 30 38  1  0  0  0
 20 21  2  0  0  0
 60 59  1  0  0  0
 22 21  1  0  0  0
 22 23  1  0  0  0
 59 58  1  0  0  0
 27 28  2  0  0  0
 58 57  1  0  0  0
 31 37  2  0  0  0
 57 56  1  0  0  0
 56 55  1  0  0  0
 55 54  1  0  0  0
 54 53  1  0  0  0
 53 52  1  0  0  0
 52 51  1  0  0  0
 51 50  1  0  0  0
 50 49  1  0  0  0
 49 47  1  0  0  0
 47 48  2  0  0  0
 48 45  1  0  0  0
 42 41  1  0  0  0
 41 40  1  0  0  0
 40 39  1  0  0  0
 39  1  1  0  0  0
  1 21  1  0  0  0
  8  4  1  0  0  0
  8  9  1  0  0  0
  8 10  1  0  0  0
 11 13  1  0  0  0
 13 14  2  0  0  0
 13 18  1  0  0  0
 14 15  1  0  0  0
 15 16  2  0  0  0
 16 17  1  0  0  0
 17 18  2  0  0  0
 23 24  1  0  0  0
 23 25  1  0  0  0
 25 28  1  0  0  0
 32 33  1  0  0  0
 32 37  1  0  0  0
 33 34  1  0  0  0
 34 35  1  0  0  0
 35 36  1  0  0  0
M  END
> <minimizedAffinity>
-8.60084

> <CNNscore>
0.2438586950

> <CNNaffinity>
7.3643174171

> <CNN_VS>
1.7958527803

> <CNNaffinity_variance>
1.2293112278

$$$$
/media/chris/experiments/cd1a-new-docking/inputs/ligands/7ryo_ligand.pdb


 65 67  0  0  0  0  0  0  0  0999 V2000
  -38.1107   60.4387   64.8971 C   0  0  0  0  0  0  0  0  0  0  0  0
  -37.4192   59.6126   63.9216 N   0  0  0  0  0  0  0  0  0  0  0  0
  -38.4819   60.5366   62.1692 O   0  0  0  0  0  0  0  0  0  0  0  0
  -37.6722   59.7381   62.6165 C   0  0  0  0  0  0  0  0  0  0  0  0
  -36.7560   58.9521   64.2267 H   0  0  0  0  0  0  0  0  0  0  0  0
  -35.4715   59.0952   61.7134 N   0  0  0  0  0  0  0  0  0  0  0  0
  -35.6357   56.8684   62.0255 O   0  0  0  0  0  0  0  0  0  0  0  0
  -36.9146   58.8097   61.6531 C   0  0  0  0  0  0  0  0  0  0  0  0
  -37.4119   59.0602   60.2327 C   0  0  0  0  0  0  0  0  0  0  0  0
  -37.0120   57.3253   62.0351 C   0  0  0  0  0  0  0  0  0  0  0  0
  -34.8796   57.9920   61.9183 C   0  0  0  0  0  0  0  0  0  0  0  0
  -33.3093   59.3120   63.9371 O   0  0  0  0  0  0  0  0  0  0  0  0
  -33.4334   57.7985   62.0479 C   0  0  0  0  0  0  0  0  0  0  0  0
  -32.7825   56.8398   61.2704 C   0  0  0  0  0  0  0  0  0  0  0  0
  -31.4761   56.4774   61.5507 C   0  0  0  0  0  0  0  0  0  0  0  0
  -30.8008   57.0592   62.6015 C   0  0  0  0  0  0  0  0  0  0  0  0
  -31.4247   58.0086   63.3901 C   0  0  0  0  0  0  0  0  0  0  0  0
  -32.7380   58.3845   63.1256 C   0  0  0  0  0  0  0  0  0  0  0  0
  -34.1923   59.5866   63.7858 H   0  0  0  0  0  0  0  0  0  0  0  0
  -37.3853   61.5743   66.9033 O   0  0  0  0  0  0  0  0  0  0  0  0
  -37.1259   61.1545   65.8094 C   0  0  0  0  0  0  0  0  0  0  0  0
  -35.9276   61.2710   65.2111 O   0  0  0  0  0  0  0  0  0  0  0  0
  -35.4145   62.6188   64.9470 C   0  0  0  0  0  0  0  0  0  0  0  0
  -35.4312   62.8417   63.4558 C   0  0  0  0  0  0  0  0  0  0  0  0
  -34.0097   62.6389   65.5176 C   0  0  0  0  0  0  0  0  0  0  0  0
  -32.9934   64.8273   65.6622 N   0  0  0  0  0  0  0  0  0  0  0  0
  -34.1133   64.0473   67.4509 O   0  0  0  0  0  0  0  0  0  0  0  0
  -33.7094   63.8975   66.3011 C   0  0  0  0  0  0  0  0  0  0  0  0
  -32.7692   65.6637   66.1307 H   0  0  0  0  0  0  0  0  0  0  0  0
  -30.6124   63.5836   63.2379 N   0  0  0  0  0  0  0  0  0  0  0  0
  -30.4105   64.3136   65.3491 O   0  0  0  0  0  0  0  0  0  0  0  0
  -32.5366   64.6394   64.2963 C   0  0  0  0  0  0  0  0  0  0  0  0
  -32.6178   65.9627   63.5270 C   0  0  0  0  0  0  0  0  0  0  0  0
  -32.6013   65.7907   62.0119 C   0  0  0  0  0  0  0  0  0  0  0  0
  -31.3501   65.1521   61.4423 C   0  0  0  0  0  0  0  0  0  0  0  0
  -31.1306   63.7193   61.8808 C   0  0  0  0  0  0  0  0  0  0  0  0
  -31.0928   64.1645   64.3396 C   0  0  0  0  0  0  0  0  0  0  0  0
  -29.8259   63.0026   63.3532 H   0  0  0  0  0  0  0  0  0  0  0  0
  -39.1112   59.6169   65.7112 C   0  0  0  0  0  0  0  0  0  0  0  0
  -40.4453   60.3345   65.8862 C   0  0  0  0  0  0  0  0  0  0  0  0
  -41.1209   60.6688   64.5692 C   0  0  0  0  0  0  0  0  0  0  0  0
  -41.5357   59.4676   63.7479 C   0  0  0  0  0  0  0  0  0  0  0  0
  -41.3743   58.2366   64.5051 N   0  0  0  0  0  0  0  0  0  0  0  0
  -42.2761   56.4220   65.4990 O   0  0  0  0  0  0  0  0  0  0  0  0
  -42.4147   57.4663   64.8413 C   0  0  0  0  0  0  0  0  0  0  0  0
  -40.4696   57.9612   64.7791 H   0  0  0  0  0  0  0  0  0  0  0  0
  -44.8154   58.0814   65.0190 C   0  0  0  0  0  0  0  0  0  0  0  0
  -43.7137   57.9223   64.2981 C   0  0  0  0  0  0  0  0  0  0  0  0
  -44.9878   57.8643   66.4900 C   0  0  0  0  0  0  0  0  0  0  0  0
  -46.4586   57.7745   66.8783 C   0  0  0  0  0  0  0  0  0  0  0  0
  -47.3695   57.3533   65.7381 C   0  0  0  0  0  0  0  0  0  0  0  0
  -48.8457   57.5658   66.0289 C   0  0  0  0  0  0  0  0  0  0  0  0
  -49.2590   59.0214   66.1388 C   0  0  0  0  0  0  0  0  0  0  0  0
  -48.5195   59.9348   65.1752 C   0  0  0  0  0  0  0  0  0  0  0  0
  -49.4292   60.6312   64.1821 C   0  0  0  0  0  0  0  0  0  0  0  0
  -50.8550   60.1192   64.2214 C   0  0  0  0  0  0  0  0  0  0  0  0
  -51.3288   59.4873   62.9266 C   0  0  0  0  0  0  0  0  0  0  0  0
  -50.7306   58.1143   62.6919 C   0  0  0  0  0  0  0  0  0  0  0  0
  -50.8945   57.6257   61.2620 C   0  0  0  0  0  0  0  0  0  0  0  0
  -49.6269   57.0537   60.6516 C   0  0  0  0  0  0  0  0  0  0  0  0
  -48.7439   58.0848   59.9659 C   0  0  0  0  0  0  0  0  0  0  0  0
  -47.4958   57.4978   59.3211 C   0  0  0  0  0  0  0  0  0  0  0  0
  -47.1516   58.1313   57.9827 C   0  0  0  0  0  0  0  0  0  0  0  0
  -47.2321   55.7622   57.1126 C   0  0  0  0  0  0  0  0  0  0  0  0
  -46.6768   57.1498   56.9267 C   0  0  0  0  0  0  0  0  0  0  0  0
 43 45  1  0  0  0
 43 42  1  0  0  0
 43 46  1  0  0  0
 64 65  1  0  0  0
 44 45  2  0  0  0
 65 63  1  0  0  0
  2  1  1  0  0  0
  2  4  1  0  0  0
  2  5  1  0  0  0
  3  4  2  0  0  0
 63 62  1  0  0  0
  6  8  1  0  0  0
  6 11  2  0  0  0
  7 10  1  0  0  0
  7 11  1  0  0  0
 62 61  1  0  0  0
 26 28  1  0  0  0
 26 32  1  0  0  0
 26 29  1  0  0  0
 12 18  1  0  0  0
 12 19  1  0  0  0
 61 60  1  0  0  0
 30 36  1  0  0  0
 30 37  1  0  0  0
 30 38  1  0  0  0
 20 21  2  0  0  0
 60 59  1  0  0  0
 22 21  1  0  0  0
 22 23  1  0  0  0
 59 58  1  0  0  0
 27 28  2  0  0  0
 58 57  1  0  0  0
 31 37  2  0  0  0
 57 56  1  0  0  0
 56 55  1  0  0  0
 55 54  1  0  0  0
 54 53  1  0  0  0
 53 52  1  0  0  0
 52 51  1  0  0  0
 51 50  1  0  0  0
 50 49  1  0  0  0
 49 47  1  0  0  0
 47 48  2  0  0  0
 48 45  1  0  0  0
 42 41  1  0  0  0
 41 40  1  0  0  0
 40 39  1  0  0  0
 39  1  1  0  0  0
  1 21  1  0  0  0
  8  4  1  0  0  0
  8  9  1  0  0  0
  8 10  1  0  0  0
 11 13  1  0  0  0
 13 14  2  0  0  0
 13 18  1  0  0  0
 14 15  1  0  0  0
 15 16  2  0  0  0
 16 17  1  0  0  0
 17 18  2  0  0  0
 23 24  1  0  0  0
 23 25  1  0  0  0
 25 28  1  0  0  0
 32 33  1  0  0  0
 32 37  1  0  0  0
 33 34  1  0  0  0
 34 35  1  0  0  0
 35 36  1  0  0  0
M  END
> <minimizedAffinity>
-10.46360

> <CNNscore>
0.2257543802

> <CNNaffinity>
7.0017867088

> <CNN_VS>
1.5806840658

> <CNNaffinity_variance>
1.5265996456

$$$$
/media/chris/experiments/cd1a-new-docking/inputs/ligands/7ryo_ligand.pdb


 65 67  0  0  0  0  0  0  0  0999 V2000
  -34.4865   60.8991   63.7484 C   0  0  0  0  0  0  0  0  0  0  0  0
  -35.0197   59.8190   62.9352 N   0  0  0  0  0  0  0  0  0  0  0  0
  -36.8721   60.9616   62.3723 O   0  0  0  0  0  0  0  0  0  0  0  0
  -36.1903   59.9496   62.3063 C   0  0  0  0  0  0  0  0  0  0  0  0
  -34.5115   58.9804   62.8471 H   0  0  0  0  0  0  0  0  0  0  0  0
  -37.7544   58.0473   62.2256 N   0  0  0  0  0  0  0  0  0  0  0  0
  -38.6333   58.4419   60.1873 O   0  0  0  0  0  0  0  0  0  0  0  0
  -36.6938   58.7509   61.4856 C   0  0  0  0  0  0  0  0  0  0  0  0
  -35.5317   57.7910   61.2497 C   0  0  0  0  0  0  0  0  0  0  0  0
  -37.3715   59.1563   60.1683 C   0  0  0  0  0  0  0  0  0  0  0  0
  -38.7467   57.9361   61.4430 C   0  0  0  0  0  0  0  0  0  0  0  0
  -41.0912   58.2697   59.8073 O   0  0  0  0  0  0  0  0  0  0  0  0
  -40.0278   57.2992   61.7573 C   0  0  0  0  0  0  0  0  0  0  0  0
  -40.1149   56.3788   62.8026 C   0  0  0  0  0  0  0  0  0  0  0  0
  -41.2451   55.5942   62.9550 C   0  0  0  0  0  0  0  0  0  0  0  0
  -42.3000   55.7120   62.0763 C   0  0  0  0  0  0  0  0  0  0  0  0
  -42.2370   56.6134   61.0293 C   0  0  0  0  0  0  0  0  0  0  0  0
  -41.1086   57.4092   60.8583 C   0  0  0  0  0  0  0  0  0  0  0  0
  -40.3461   58.8196   59.6643 H   0  0  0  0  0  0  0  0  0  0  0  0
  -32.1505   60.2803   63.7185 O   0  0  0  0  0  0  0  0  0  0  0  0
  -32.9998   61.0979   63.4938 C   0  0  0  0  0  0  0  0  0  0  0  0
  -32.7658   62.3265   63.0008 O   0  0  0  0  0  0  0  0  0  0  0  0
  -31.9212   62.4438   61.8081 C   0  0  0  0  0  0  0  0  0  0  0  0
  -30.5136   62.0634   62.1924 C   0  0  0  0  0  0  0  0  0  0  0  0
  -32.0290   63.8925   61.3734 C   0  0  0  0  0  0  0  0  0  0  0  0
  -33.4330   65.2649   62.7834 N   0  0  0  0  0  0  0  0  0  0  0  0
  -34.3504   64.3111   60.9640 O   0  0  0  0  0  0  0  0  0  0  0  0
  -33.3768   64.5035   61.6869 C   0  0  0  0  0  0  0  0  0  0  0  0
  -34.2891   65.6828   63.0320 H   0  0  0  0  0  0  0  0  0  0  0  0
  -31.5323   64.7449   65.8182 N   0  0  0  0  0  0  0  0  0  0  0  0
  -33.7303   64.7726   65.3723 O   0  0  0  0  0  0  0  0  0  0  0  0
  -32.2673   65.4938   63.6190 C   0  0  0  0  0  0  0  0  0  0  0  0
  -31.9557   66.9930   63.6893 C   0  0  0  0  0  0  0  0  0  0  0  0
  -30.5334   67.3008   64.1450 C   0  0  0  0  0  0  0  0  0  0  0  0
  -30.1779   66.8224   65.5387 C   0  0  0  0  0  0  0  0  0  0  0  0
  -30.1952   65.3168   65.7007 C   0  0  0  0  0  0  0  0  0  0  0  0
  -32.5733   64.9723   65.0142 C   0  0  0  0  0  0  0  0  0  0  0  0
  -31.6824   64.1263   66.5694 H   0  0  0  0  0  0  0  0  0  0  0  0
  -34.7592   60.6623   65.2346 C   0  0  0  0  0  0  0  0  0  0  0  0
  -36.2354   60.8148   65.5852 C   0  0  0  0  0  0  0  0  0  0  0  0
  -36.9622   59.4877   65.6999 C   0  0  0  0  0  0  0  0  0  0  0  0
  -38.4221   59.5965   66.0821 C   0  0  0  0  0  0  0  0  0  0  0  0
  -39.1094   60.5685   65.2466 N   0  0  0  0  0  0  0  0  0  0  0  0
  -41.0117   61.6118   64.6249 O   0  0  0  0  0  0  0  0  0  0  0  0
  -40.4244   60.7906   65.3481 C   0  0  0  0  0  0  0  0  0  0  0  0
  -38.5897   61.0796   64.5848 H   0  0  0  0  0  0  0  0  0  0  0  0
  -41.8489   58.9683   66.2555 C   0  0  0  0  0  0  0  0  0  0  0  0
  -41.0889   60.0399   66.4367 C   0  0  0  0  0  0  0  0  0  0  0  0
  -42.1807   58.2874   64.9643 C   0  0  0  0  0  0  0  0  0  0  0  0
  -43.6047   58.5921   64.5156 C   0  0  0  0  0  0  0  0  0  0  0  0
  -44.5788   57.4501   64.7482 C   0  0  0  0  0  0  0  0  0  0  0  0
  -45.6286   57.7520   65.8046 C   0  0  0  0  0  0  0  0  0  0  0  0
  -46.7552   58.6498   65.3289 C   0  0  0  0  0  0  0  0  0  0  0  0
  -47.5997   59.2121   66.4605 C   0  0  0  0  0  0  0  0  0  0  0  0
  -48.9158   59.8051   65.9968 C   0  0  0  0  0  0  0  0  0  0  0  0
  -50.0550   58.8057   66.0076 C   0  0  0  0  0  0  0  0  0  0  0  0
  -50.2941   58.1151   64.6786 C   0  0  0  0  0  0  0  0  0  0  0  0
  -50.6953   59.0805   63.5809 C   0  0  0  0  0  0  0  0  0  0  0  0
  -50.7729   58.4299   62.2095 C   0  0  0  0  0  0  0  0  0  0  0  0
  -49.7173   58.9147   61.2310 C   0  0  0  0  0  0  0  0  0  0  0  0
  -48.9981   57.8008   60.4861 C   0  0  0  0  0  0  0  0  0  0  0  0
  -48.1089   58.2907   59.3515 C   0  0  0  0  0  0  0  0  0  0  0  0
  -47.1535   57.2293   58.8303 C   0  0  0  0  0  0  0  0  0  0  0  0
  -46.8736   55.8818   56.7132 C   0  0  0  0  0  0  0  0  0  0  0  0
  -47.7790   56.2422   57.8615 C   0  0  0  0  0  0  0  0  0  0  0  0
 43 45  1  0  0  0
 43 42  1  0  0  0
 43 46  1  0  0  0
 64 65  1  0  0  0
 44 45  2  0  0  0
 65 63  1  0  0  0
  2  1  1  0  0  0
  2  4  1  0  0  0
  2  5  1  0  0  0
  3  4  2  0  0  0
 63 62  1  0  0  0
  6  8  1  0  0  0
  6 11  2  0  0  0
  7 10  1  0  0  0
  7 11  1  0  0  0
 62 61  1  0  0  0
 26 28  1  0  0  0
 26 32  1  0  0  0
 26 29  1  0  0  0
 12 18  1  0  0  0
 12 19  1  0  0  0
 61 60  1  0  0  0
 30 36  1  0  0  0
 30 37  1  0  0  0
 30 38  1  0  0  0
 20 21  2  0  0  0
 60 59  1  0  0  0
 22 21  1  0  0  0
 22 23  1  0  0  0
 59 58  1  0  0  0
 27 28  2  0  0  0
 58 57  1  0  0  0
 31 37  2  0  0  0
 57 56  1  0  0  0
 56 55  1  0  0  0
 55 54  1  0  0  0
 54 53  1  0  0  0
 53 52  1  0  0  0
 52 51  1  0  0  0
 51 50  1  0  0  0
 50 49  1  0  0  0
 49 47  1  0  0  0
 47 48  2  0  0  0
 48 45  1  0  0  0
 42 41  1  0  0  0
 41 40  1  0  0  0
 40 39  1  0  0  0
 39  1  1  0  0  0
  1 21  1  0  0  0
  8  4  1  0  0  0
  8  9  1  0  0  0
  8 10  1  0  0  0
 11 13  1  0  0  0
 13 14  2  0  0  0
 13 18  1  0  0  0
 14 15  1  0  0  0
 15 16  2  0  0  0
 16 17  1  0  0  0
 17 18  2  0  0  0
 23 24  1  0  0  0
 23 25  1  0  0  0
 25 28  1  0  0  0
 32 33  1  0  0  0
 32 37  1  0  0  0
 33 34  1  0  0  0
 34 35  1  0  0  0
 35 36  1  0  0  0
M  END
> <minimizedAffinity>
-9.39114

> <CNNscore>
0.2140606046

> <CNNaffinity>
7.3057088852

> <CNN_VS>
1.5638644695

> <CNNaffinity_variance>
0.7433289289

$$$$
/media/chris/experiments/cd1a-new-docking/inputs/ligands/7ryo_ligand.pdb


 65 67  0  0  0  0  0  0  0  0999 V2000
  -42.7032   57.3773   65.9315 C   0  0  0  0  0  0  0  0  0  0  0  0
  -44.0618   57.4382   66.4440 N   0  0  0  0  0  0  0  0  0  0  0  0
  -44.8931   58.3153   64.5483 O   0  0  0  0  0  0  0  0  0  0  0  0
  -45.0569   57.9121   65.6902 C   0  0  0  0  0  0  0  0  0  0  0  0
  -44.2509   57.1264   67.3585 H   0  0  0  0  0  0  0  0  0  0  0  0
  -47.2576   59.0205   65.6715 N   0  0  0  0  0  0  0  0  0  0  0  0
  -48.5454   57.1732   65.5619 O   0  0  0  0  0  0  0  0  0  0  0  0
  -46.4602   57.9642   66.3163 C   0  0  0  0  0  0  0  0  0  0  0  0
  -46.3261   58.2802   67.8029 C   0  0  0  0  0  0  0  0  0  0  0  0
  -47.2806   56.6876   66.0791 C   0  0  0  0  0  0  0  0  0  0  0  0
  -48.3505   58.4924   65.3026 C   0  0  0  0  0  0  0  0  0  0  0  0
  -49.2163   57.7705   62.6544 O   0  0  0  0  0  0  0  0  0  0  0  0
  -49.4511   59.1737   64.6168 C   0  0  0  0  0  0  0  0  0  0  0  0
  -50.2215   60.1187   65.2956 C   0  0  0  0  0  0  0  0  0  0  0  0
  -51.4031   60.5866   64.7467 C   0  0  0  0  0  0  0  0  0  0  0  0
  -51.8342   60.1255   63.5219 C   0  0  0  0  0  0  0  0  0  0  0  0
  -51.0914   59.1856   62.8308 C   0  0  0  0  0  0  0  0  0  0  0  0
  -49.9022   58.7017   63.3670 C   0  0  0  0  0  0  0  0  0  0  0  0
  -48.4119   57.4244   62.9878 H   0  0  0  0  0  0  0  0  0  0  0  0
  -42.2485   59.3764   67.2113 O   0  0  0  0  0  0  0  0  0  0  0  0
  -41.8839   58.5705   66.4002 C   0  0  0  0  0  0  0  0  0  0  0  0
  -40.7006   58.6096   65.7634 O   0  0  0  0  0  0  0  0  0  0  0  0
  -39.8311   59.7682   65.9900 C   0  0  0  0  0  0  0  0  0  0  0  0
  -40.6551   61.0162   65.7969 C   0  0  0  0  0  0  0  0  0  0  0  0
  -38.7177   59.6481   64.9676 C   0  0  0  0  0  0  0  0  0  0  0  0
  -36.3818   59.1756   65.3714 N   0  0  0  0  0  0  0  0  0  0  0  0
  -37.8840   57.5430   65.7454 O   0  0  0  0  0  0  0  0  0  0  0  0
  -37.6268   58.6908   65.3936 C   0  0  0  0  0  0  0  0  0  0  0  0
  -35.6360   58.5903   65.6371 H   0  0  0  0  0  0  0  0  0  0  0  0
  -34.4980   61.6127   63.4728 N   0  0  0  0  0  0  0  0  0  0  0  0
  -33.9709   59.6215   64.3605 O   0  0  0  0  0  0  0  0  0  0  0  0
  -36.0973   60.5411   64.9665 C   0  0  0  0  0  0  0  0  0  0  0  0
  -36.0181   61.4501   66.1983 C   0  0  0  0  0  0  0  0  0  0  0  0
  -36.1765   62.9319   65.8754 C   0  0  0  0  0  0  0  0  0  0  0  0
  -35.1169   63.5168   64.9628 C   0  0  0  0  0  0  0  0  0  0  0  0
  -35.1113   62.9333   63.5654 C   0  0  0  0  0  0  0  0  0  0  0  0
  -34.7618   60.5525   64.2397 C   0  0  0  0  0  0  0  0  0  0  0  0
  -33.8183   61.4908   62.7710 H   0  0  0  0  0  0  0  0  0  0  0  0
  -42.6893   57.2706   64.4059 C   0  0  0  0  0  0  0  0  0  0  0  0
  -42.1915   58.5485   63.7393 C   0  0  0  0  0  0  0  0  0  0  0  0
  -41.3160   58.2880   62.5276 C   0  0  0  0  0  0  0  0  0  0  0  0
  -40.6007   59.5079   61.9894 C   0  0  0  0  0  0  0  0  0  0  0  0
  -40.3128   59.3610   60.5715 N   0  0  0  0  0  0  0  0  0  0  0  0
  -38.8878   59.5779   58.8349 O   0  0  0  0  0  0  0  0  0  0  0  0
  -39.1274   59.6920   60.0481 C   0  0  0  0  0  0  0  0  0  0  0  0
  -41.0134   59.0065   59.9776 H   0  0  0  0  0  0  0  0  0  0  0  0
  -37.2787   59.3057   61.6626 C   0  0  0  0  0  0  0  0  0  0  0  0
  -38.1190   60.1228   61.0421 C   0  0  0  0  0  0  0  0  0  0  0  0
  -37.1480   57.8241   61.4941 C   0  0  0  0  0  0  0  0  0  0  0  0
  -35.9302   57.2780   62.2294 C   0  0  0  0  0  0  0  0  0  0  0  0
  -34.6075   57.8085   61.7040 C   0  0  0  0  0  0  0  0  0  0  0  0
  -33.4546   56.8311   61.8615 C   0  0  0  0  0  0  0  0  0  0  0  0
  -32.1047   57.3825   61.4429 C   0  0  0  0  0  0  0  0  0  0  0  0
  -32.1132   58.8825   61.1983 C   0  0  0  0  0  0  0  0  0  0  0  0
  -30.7488   59.5275   61.3438 C   0  0  0  0  0  0  0  0  0  0  0  0
  -30.8100   61.0404   61.4078 C   0  0  0  0  0  0  0  0  0  0  0  0
  -30.4209   61.6261   62.7516 C   0  0  0  0  0  0  0  0  0  0  0  0
  -30.5845   63.1323   62.8032 C   0  0  0  0  0  0  0  0  0  0  0  0
  -31.4815   63.5991   63.9380 C   0  0  0  0  0  0  0  0  0  0  0  0
  -31.1562   64.9894   64.4556 C   0  0  0  0  0  0  0  0  0  0  0  0
  -32.3634   65.9053   64.5855 C   0  0  0  0  0  0  0  0  0  0  0  0
  -32.5778   66.8180   63.3860 C   0  0  0  0  0  0  0  0  0  0  0  0
  -33.3224   66.1487   62.2421 C   0  0  0  0  0  0  0  0  0  0  0  0
  -35.5446   65.7259   61.1198 C   0  0  0  0  0  0  0  0  0  0  0  0
  -34.8348   66.2048   62.3588 C   0  0  0  0  0  0  0  0  0  0  0  0
 43 45  1  0  0  0
 43 42  1  0  0  0
 43 46  1  0  0  0
 64 65  1  0  0  0
 44 45  2  0  0  0
 65 63  1  0  0  0
  2  1  1  0  0  0
  2  4  1  0  0  0
  2  5  1  0  0  0
  3  4  2  0  0  0
 63 62  1  0  0  0
  6  8  1  0  0  0
  6 11  2  0  0  0
  7 10  1  0  0  0
  7 11  1  0  0  0
 62 61  1  0  0  0
 26 28  1  0  0  0
 26 32  1  0  0  0
 26 29  1  0  0  0
 12 18  1  0  0  0
 12 19  1  0  0  0
 61 60  1  0  0  0
 30 36  1  0  0  0
 30 37  1  0  0  0
 30 38  1  0  0  0
 20 21  2  0  0  0
 60 59  1  0  0  0
 22 21  1  0  0  0
 22 23  1  0  0  0
 59 58  1  0  0  0
 27 28  2  0  0  0
 58 57  1  0  0  0
 31 37  2  0  0  0
 57 56  1  0  0  0
 56 55  1  0  0  0
 55 54  1  0  0  0
 54 53  1  0  0  0
 53 52  1  0  0  0
 52 51  1  0  0  0
 51 50  1  0  0  0
 50 49  1  0  0  0
 49 47  1  0  0  0
 47 48  2  0  0  0
 48 45  1  0  0  0
 42 41  1  0  0  0
 41 40  1  0  0  0
 40 39  1  0  0  0
 39  1  1  0  0  0
  1 21  1  0  0  0
  8  4  1  0  0  0
  8  9  1  0  0  0
  8 10  1  0  0  0
 11 13  1  0  0  0
 13 14  2  0  0  0
 13 18  1  0  0  0
 14 15  1  0  0  0
 15 16  2  0  0  0
 16 17  1  0  0  0
 17 18  2  0  0  0
 23 24  1  0  0  0
 23 25  1  0  0  0
 25 28  1  0  0  0
 32 33  1  0  0  0
 32 37  1  0  0  0
 33 34  1  0  0  0
 34 35  1  0  0  0
 35 36  1  0  0  0
M  END
> <minimizedAffinity>
-9.44199

> <CNNscore>
0.1874432713

> <CNNaffinity>
7.3879561424

> <CNN_VS>
1.3848227262

> <CNNaffinity_variance>
2.0611853600

$$$$
/media/chris/experiments/cd1a-new-docking/inputs/ligands/7ryo_ligand.pdb


 65 67  0  0  0  0  0  0  0  0999 V2000
  -38.7519   60.2652   65.1080 C   0  0  0  0  0  0  0  0  0  0  0  0
  -37.9822   59.5969   64.0721 N   0  0  0  0  0  0  0  0  0  0  0  0
  -39.2255   60.4409   62.3999 O   0  0  0  0  0  0  0  0  0  0  0  0
  -38.2947   59.7477   62.7826 C   0  0  0  0  0  0  0  0  0  0  0  0
  -37.2210   59.0256   64.3241 H   0  0  0  0  0  0  0  0  0  0  0  0
  -36.0241   59.3375   61.9176 N   0  0  0  0  0  0  0  0  0  0  0  0
  -36.0730   57.0837   61.9466 O   0  0  0  0  0  0  0  0  0  0  0  0
  -37.4445   58.9873   61.7516 C   0  0  0  0  0  0  0  0  0  0  0  0
  -37.8943   59.3870   60.3496 C   0  0  0  0  0  0  0  0  0  0  0  0
  -37.4725   57.4638   61.9440 C   0  0  0  0  0  0  0  0  0  0  0  0
  -35.3790   58.2495   62.0152 C   0  0  0  0  0  0  0  0  0  0  0  0
  -33.8867   59.8524   63.8827 O   0  0  0  0  0  0  0  0  0  0  0  0
  -33.9309   58.1166   62.1914 C   0  0  0  0  0  0  0  0  0  0  0  0
  -33.2382   57.0900   61.5483 C   0  0  0  0  0  0  0  0  0  0  0  0
  -31.9282   56.8038   61.8925 C   0  0  0  0  0  0  0  0  0  0  0  0
  -31.2905   57.5294   62.8751 C   0  0  0  0  0  0  0  0  0  0  0  0
  -31.9562   58.5490   63.5309 C   0  0  0  0  0  0  0  0  0  0  0  0
  -33.2738   58.8503   63.2005 C   0  0  0  0  0  0  0  0  0  0  0  0
  -34.7737   60.0800   63.6842 H   0  0  0  0  0  0  0  0  0  0  0  0
  -37.6416   60.5033   67.2414 O   0  0  0  0  0  0  0  0  0  0  0  0
  -37.8405   60.9215   66.1342 C   0  0  0  0  0  0  0  0  0  0  0  0
  -37.3038   62.0488   65.6359 O   0  0  0  0  0  0  0  0  0  0  0  0
  -35.9208   62.3750   65.9974 C   0  0  0  0  0  0  0  0  0  0  0  0
  -35.9241   62.9430   67.3942 C   0  0  0  0  0  0  0  0  0  0  0  0
  -35.4572   63.3845   64.9652 C   0  0  0  0  0  0  0  0  0  0  0  0
  -33.9238   63.0626   63.1247 N   0  0  0  0  0  0  0  0  0  0  0  0
  -35.9037   61.9956   63.0670 O   0  0  0  0  0  0  0  0  0  0  0  0
  -35.1201   62.7529   63.6327 C   0  0  0  0  0  0  0  0  0  0  0  0
  -33.6587   62.6790   62.2575 H   0  0  0  0  0  0  0  0  0  0  0  0
  -32.6218   66.3547   63.8728 N   0  0  0  0  0  0  0  0  0  0  0  0
  -33.5767   65.4622   62.0501 O   0  0  0  0  0  0  0  0  0  0  0  0
  -33.0031   63.9487   63.8151 C   0  0  0  0  0  0  0  0  0  0  0  0
  -31.5704   63.4173   63.6949 C   0  0  0  0  0  0  0  0  0  0  0  0
  -30.6148   63.9961   64.7327 C   0  0  0  0  0  0  0  0  0  0  0  0
  -30.4179   65.4978   64.6711 C   0  0  0  0  0  0  0  0  0  0  0  0
  -31.6662   66.2998   64.9740 C   0  0  0  0  0  0  0  0  0  0  0  0
  -33.0916   65.3223   63.1690 C   0  0  0  0  0  0  0  0  0  0  0  0
  -32.9550   67.2468   63.6226 H   0  0  0  0  0  0  0  0  0  0  0  0
  -39.7294   59.3015   65.7827 C   0  0  0  0  0  0  0  0  0  0  0  0
  -41.1832   59.6283   65.4587 C   0  0  0  0  0  0  0  0  0  0  0  0
  -42.1691   58.9618   66.4002 C   0  0  0  0  0  0  0  0  0  0  0  0
  -43.1432   58.0168   65.7313 C   0  0  0  0  0  0  0  0  0  0  0  0
  -44.0815   57.4654   66.6959 N   0  0  0  0  0  0  0  0  0  0  0  0
  -46.2029   57.1613   67.4037 O   0  0  0  0  0  0  0  0  0  0  0  0
  -45.4039   57.6221   66.5720 C   0  0  0  0  0  0  0  0  0  0  0  0
  -43.7317   56.9603   67.4652 H   0  0  0  0  0  0  0  0  0  0  0  0
  -47.0534   58.2834   64.8355 C   0  0  0  0  0  0  0  0  0  0  0  0
  -45.8242   58.3130   65.3325 C   0  0  0  0  0  0  0  0  0  0  0  0
  -48.2539   57.5897   65.3996 C   0  0  0  0  0  0  0  0  0  0  0  0
  -49.2216   58.5732   66.0464 C   0  0  0  0  0  0  0  0  0  0  0  0
  -48.7905   60.0249   65.9290 C   0  0  0  0  0  0  0  0  0  0  0  0
  -49.6859   60.8538   65.0233 C   0  0  0  0  0  0  0  0  0  0  0  0
  -51.1454   60.4399   65.0371 C   0  0  0  0  0  0  0  0  0  0  0  0
  -51.7137   60.1794   63.6518 C   0  0  0  0  0  0  0  0  0  0  0  0
  -51.1615   58.9289   62.9961 C   0  0  0  0  0  0  0  0  0  0  0  0
  -50.1702   59.2262   61.8891 C   0  0  0  0  0  0  0  0  0  0  0  0
  -48.9768   58.2911   61.8499 C   0  0  0  0  0  0  0  0  0  0  0  0
  -48.5027   58.0056   60.4386 C   0  0  0  0  0  0  0  0  0  0  0  0
  -49.3345   56.9497   59.7291 C   0  0  0  0  0  0  0  0  0  0  0  0
  -48.6117   55.6317   59.5118 C   0  0  0  0  0  0  0  0  0  0  0  0
  -47.3200   55.7518   58.7180 C   0  0  0  0  0  0  0  0  0  0  0  0
  -47.4869   55.5004   57.2257 C   0  0  0  0  0  0  0  0  0  0  0  0
  -47.3891   56.7632   56.3850 C   0  0  0  0  0  0  0  0  0  0  0  0
  -45.5948   58.1956   57.4364 C   0  0  0  0  0  0  0  0  0  0  0  0
  -47.0674   58.0196   57.1737 C   0  0  0  0  0  0  0  0  0  0  0  0
 43 45  1  0  0  0
 43 42  1  0  0  0
 43 46  1  0  0  0
 64 65  1  0  0  0
 44 45  2  0  0  0
 65 63  1  0  0  0
  2  1  1  0  0  0
  2  4  1  0  0  0
  2  5  1  0  0  0
  3  4  2  0  0  0
 63 62  1  0  0  0
  6  8  1  0  0  0
  6 11  2  0  0  0
  7 10  1  0  0  0
  7 11  1  0  0  0
 62 61  1  0  0  0
 26 28  1  0  0  0
 26 32  1  0  0  0
 26 29  1  0  0  0
 12 18  1  0  0  0
 12 19  1  0  0  0
 61 60  1  0  0  0
 30 36  1  0  0  0
 30 37  1  0  0  0
 30 38  1  0  0  0
 20 21  2  0  0  0
 60 59  1  0  0  0
 22 21  1  0  0  0
 22 23  1  0  0  0
 59 58  1  0  0  0
 27 28  2  0  0  0
 58 57  1  0  0  0
 31 37  2  0  0  0
 57 56  1  0  0  0
 56 55  1  0  0  0
 55 54  1  0  0  0
 54 53  1  0  0  0
 53 52  1  0  0  0
 52 51  1  0  0  0
 51 50  1  0  0  0
 50 49  1  0  0  0
 49 47  1  0  0  0
 47 48  2  0  0  0
 48 45  1  0  0  0
 42 41  1  0  0  0
 41 40  1  0  0  0
 40 39  1  0  0  0
 39  1  1  0  0  0
  1 21  1  0  0  0
  8  4  1  0  0  0
  8  9  1  0  0  0
  8 10  1  0  0  0
 11 13  1  0  0  0
 13 14  2  0  0  0
 13 18  1  0  0  0
 14 15  1  0  0  0
 15 16  2  0  0  0
 16 17  1  0  0  0
 17 18  2  0  0  0
 23 24  1  0  0  0
 23 25  1  0  0  0
 25 28  1  0  0  0
 32 33  1  0  0  0
 32 37  1  0  0  0
 33 34  1  0  0  0
 34 35  1  0  0  0
 35 36  1  0  0  0
M  END
> <minimizedAffinity>
-10.51407

> <CNNscore>
0.1843858361

> <CNNaffinity>
6.9167280197

> <CNN_VS>
1.2753466368

> <CNNaffinity_variance>
1.0893819332

$$$$
/media/chris/experiments/cd1a-new-docking/inputs/ligands/7ryo_ligand.pdb


 65 67  0  0  0  0  0  0  0  0999 V2000
  -38.6175   60.3189   64.4392 C   0  0  0  0  0  0  0  0  0  0  0  0
  -37.9404   59.3750   63.5657 N   0  0  0  0  0  0  0  0  0  0  0  0
  -37.2633   60.9662   62.1292 O   0  0  0  0  0  0  0  0  0  0  0  0
  -37.3103   59.7921   62.4649 C   0  0  0  0  0  0  0  0  0  0  0  0
  -37.9466   58.4160   63.7883 H   0  0  0  0  0  0  0  0  0  0  0  0
  -35.2048   59.0249   61.4400 N   0  0  0  0  0  0  0  0  0  0  0  0
  -35.2852   56.8752   62.1147 O   0  0  0  0  0  0  0  0  0  0  0  0
  -36.6394   58.7262   61.5830 C   0  0  0  0  0  0  0  0  0  0  0  0
  -37.2909   58.7453   60.2035 C   0  0  0  0  0  0  0  0  0  0  0  0
  -36.6624   57.3209   62.2022 C   0  0  0  0  0  0  0  0  0  0  0  0
  -34.5701   57.9713   61.7504 C   0  0  0  0  0  0  0  0  0  0  0  0
  -32.7595   60.1683   62.1733 O   0  0  0  0  0  0  0  0  0  0  0  0
  -33.1143   57.8080   61.7504 C   0  0  0  0  0  0  0  0  0  0  0  0
  -32.5524   56.5324   61.6851 C   0  0  0  0  0  0  0  0  0  0  0  0
  -31.2023   56.3466   61.9283 C   0  0  0  0  0  0  0  0  0  0  0  0
  -30.3950   57.4194   62.2380 C   0  0  0  0  0  0  0  0  0  0  0  0
  -30.9280   58.6933   62.3136 C   0  0  0  0  0  0  0  0  0  0  0  0
  -32.2830   58.9000   62.0745 C   0  0  0  0  0  0  0  0  0  0  0  0
  -33.6673   60.3410   62.0184 H   0  0  0  0  0  0  0  0  0  0  0  0
  -37.6722   59.4754   66.4974 O   0  0  0  0  0  0  0  0  0  0  0  0
  -37.9257   60.4119   65.7910 C   0  0  0  0  0  0  0  0  0  0  0  0
  -37.6557   61.6932   66.0955 O   0  0  0  0  0  0  0  0  0  0  0  0
  -36.2572   62.0700   66.3237 C   0  0  0  0  0  0  0  0  0  0  0  0
  -36.2346   63.2045   67.3166 C   0  0  0  0  0  0  0  0  0  0  0  0
  -35.7192   62.4802   64.9666 C   0  0  0  0  0  0  0  0  0  0  0  0
  -33.5471   62.1667   63.9537 N   0  0  0  0  0  0  0  0  0  0  0  0
  -34.7289   60.3433   64.5371 O   0  0  0  0  0  0  0  0  0  0  0  0
  -34.6248   61.5646   64.4648 C   0  0  0  0  0  0  0  0  0  0  0  0
  -32.8080   61.6139   63.6108 H   0  0  0  0  0  0  0  0  0  0  0  0
  -33.2103   65.2612   62.1088 N   0  0  0  0  0  0  0  0  0  0  0  0
  -32.5084   63.1653   61.7273 O   0  0  0  0  0  0  0  0  0  0  0  0
  -33.4345   63.6133   63.8898 C   0  0  0  0  0  0  0  0  0  0  0  0
  -32.3837   64.1048   64.8918 C   0  0  0  0  0  0  0  0  0  0  0  0
  -32.5059   65.5871   65.2278 C   0  0  0  0  0  0  0  0  0  0  0  0
  -32.3215   66.5370   64.0610 C   0  0  0  0  0  0  0  0  0  0  0  0
  -33.3821   66.4134   62.9872 C   0  0  0  0  0  0  0  0  0  0  0  0
  -33.0102   63.9947   62.4803 C   0  0  0  0  0  0  0  0  0  0  0  0
  -33.2456   65.4361   61.1405 H   0  0  0  0  0  0  0  0  0  0  0  0
  -40.0950   59.9606   64.6053 C   0  0  0  0  0  0  0  0  0  0  0  0
  -40.7079   59.4151   63.3200 C   0  0  0  0  0  0  0  0  0  0  0  0
  -40.4870   57.9248   63.1386 C   0  0  0  0  0  0  0  0  0  0  0  0
  -41.7052   57.0675   63.4040 C   0  0  0  0  0  0  0  0  0  0  0  0
  -41.9070   56.8748   64.8312 N   0  0  0  0  0  0  0  0  0  0  0  0
  -43.0979   57.2718   66.7069 O   0  0  0  0  0  0  0  0  0  0  0  0
  -42.9345   57.4270   65.4855 C   0  0  0  0  0  0  0  0  0  0  0  0
  -41.2664   56.3197   65.3321 H   0  0  0  0  0  0  0  0  0  0  0  0
  -45.2064   58.0782   64.7190 C   0  0  0  0  0  0  0  0  0  0  0  0
  -43.8863   58.1603   64.6215 C   0  0  0  0  0  0  0  0  0  0  0  0
  -46.0053   57.2740   65.6966 C   0  0  0  0  0  0  0  0  0  0  0  0
  -47.4804   57.6552   65.6685 C   0  0  0  0  0  0  0  0  0  0  0  0
  -47.7862   58.8594   64.7947 C   0  0  0  0  0  0  0  0  0  0  0  0
  -48.5795   59.9420   65.5073 C   0  0  0  0  0  0  0  0  0  0  0  0
  -49.9512   59.5023   65.9832 C   0  0  0  0  0  0  0  0  0  0  0  0
  -51.0608   60.4715   65.6098 C   0  0  0  0  0  0  0  0  0  0  0  0
  -51.1629   60.7299   64.1193 C   0  0  0  0  0  0  0  0  0  0  0  0
  -51.7021   59.5435   63.3457 C   0  0  0  0  0  0  0  0  0  0  0  0
  -50.7022   58.9064   62.4000 C   0  0  0  0  0  0  0  0  0  0  0  0
  -49.7381   59.9124   61.8027 C   0  0  0  0  0  0  0  0  0  0  0  0
  -49.2893   59.5504   60.3964 C   0  0  0  0  0  0  0  0  0  0  0  0
  -49.6427   58.1342   59.9766 C   0  0  0  0  0  0  0  0  0  0  0  0
  -48.7942   57.5908   58.8373 C   0  0  0  0  0  0  0  0  0  0  0  0
  -47.4684   58.3164   58.6545 C   0  0  0  0  0  0  0  0  0  0  0  0
  -46.6075   57.7329   57.5456 C   0  0  0  0  0  0  0  0  0  0  0  0
  -47.2766   55.4065   56.8270 C   0  0  0  0  0  0  0  0  0  0  0  0
  -47.3662   56.8828   56.5427 C   0  0  0  0  0  0  0  0  0  0  0  0
 43 45  1  0  0  0
 43 42  1  0  0  0
 43 46  1  0  0  0
 64 65  1  0  0  0
 44 45  2  0  0  0
 65 63  1  0  0  0
  2  1  1  0  0  0
  2  4  1  0  0  0
  2  5  1  0  0  0
  3  4  2  0  0  0
 63 62  1  0  0  0
  6  8  1  0  0  0
  6 11  2  0  0  0
  7 10  1  0  0  0
  7 11  1  0  0  0
 62 61  1  0  0  0
 26 28  1  0  0  0
 26 32  1  0  0  0
 26 29  1  0  0  0
 12 18  1  0  0  0
 12 19  1  0  0  0
 61 60  1  0  0  0
 30 36  1  0  0  0
 30 37  1  0  0  0
 30 38  1  0  0  0
 20 21  2  0  0  0
 60 59  1  0  0  0
 22 21  1  0  0  0
 22 23  1  0  0  0
 59 58  1  0  0  0
 27 28  2  0  0  0
 58 57  1  0  0  0
 31 37  2  0  0  0
 57 56  1  0  0  0
 56 55  1  0  0  0
 55 54  1  0  0  0
 54 53  1  0  0  0
 53 52  1  0  0  0
 52 51  1  0  0  0
 51 50  1  0  0  0
 50 49  1  0  0  0
 49 47  1  0  0  0
 47 48  2  0  0  0
 48 45  1  0  0  0
 42 41  1  0  0  0
 41 40  1  0  0  0
 40 39  1  0  0  0
 39  1  1  0  0  0
  1 21  1  0  0  0
  8  4  1  0  0  0
  8  9  1  0  0  0
  8 10  1  0  0  0
 11 13  1  0  0  0
 13 14  2  0  0  0
 13 18  1  0  0  0
 14 15  1  0  0  0
 15 16  2  0  0  0
 16 17  1  0  0  0
 17 18  2  0  0  0
 23 24  1  0  0  0
 23 25  1  0  0  0
 25 28  1  0  0  0
 32 33  1  0  0  0
 32 37  1  0  0  0
 33 34  1  0  0  0
 34 35  1  0  0  0
 35 36  1  0  0  0
M  END
> <minimizedAffinity>
-10.58535

> <CNNscore>
0.1730697751

> <CNNaffinity>
7.1333017349

> <CNN_VS>
1.2345589399

> <CNNaffinity_variance>
0.9952165484

$$$$
/media/chris/experiments/cd1a-new-docking/inputs/ligands/7ryo_ligand.pdb


 65 67  0  0  0  0  0  0  0  0999 V2000
  -35.8112   60.5154   64.1806 C   0  0  0  0  0  0  0  0  0  0  0  0
  -35.3767   61.9011   64.2388 N   0  0  0  0  0  0  0  0  0  0  0  0
  -33.8920   61.5190   65.8830 O   0  0  0  0  0  0  0  0  0  0  0  0
  -34.4356   62.2874   65.1037 C   0  0  0  0  0  0  0  0  0  0  0  0
  -35.7815   62.5633   63.6331 H   0  0  0  0  0  0  0  0  0  0  0  0
  -32.7428   63.9606   64.4660 N   0  0  0  0  0  0  0  0  0  0  0  0
  -34.1135   65.4279   63.4409 O   0  0  0  0  0  0  0  0  0  0  0  0
  -34.0503   63.7758   65.1169 C   0  0  0  0  0  0  0  0  0  0  0  0
  -33.9561   64.2485   66.5645 C   0  0  0  0  0  0  0  0  0  0  0  0
  -34.9995   64.6579   64.2924 C   0  0  0  0  0  0  0  0  0  0  0  0
  -32.8868   64.8625   63.5855 C   0  0  0  0  0  0  0  0  0  0  0  0
  -32.6428   64.0293   60.8414 O   0  0  0  0  0  0  0  0  0  0  0  0
  -31.8433   65.3734   62.6934 C   0  0  0  0  0  0  0  0  0  0  0  0
  -31.0055   66.4067   63.1147 C   0  0  0  0  0  0  0  0  0  0  0  0
  -30.1865   67.0599   62.2097 C   0  0  0  0  0  0  0  0  0  0  0  0
  -30.1875   66.6979   60.8802 C   0  0  0  0  0  0  0  0  0  0  0  0
  -31.0117   65.6801   60.4361 C   0  0  0  0  0  0  0  0  0  0  0  0
  -31.8436   65.0131   61.3301 C   0  0  0  0  0  0  0  0  0  0  0  0
  -33.2147   63.5610   61.4173 H   0  0  0  0  0  0  0  0  0  0  0  0
  -37.8982   60.7196   62.9791 O   0  0  0  0  0  0  0  0  0  0  0  0
  -36.7788   60.2896   63.0285 C   0  0  0  0  0  0  0  0  0  0  0  0
  -36.2129   59.5225   62.0806 O   0  0  0  0  0  0  0  0  0  0  0  0
  -36.2913   58.0662   62.2314 C   0  0  0  0  0  0  0  0  0  0  0  0
  -34.8916   57.5115   62.1488 C   0  0  0  0  0  0  0  0  0  0  0  0
  -37.1704   57.5854   61.0933 C   0  0  0  0  0  0  0  0  0  0  0  0
  -39.1367   58.8155   60.4127 N   0  0  0  0  0  0  0  0  0  0  0  0
  -37.1309   59.5026   59.6599 O   0  0  0  0  0  0  0  0  0  0  0  0
  -37.8072   58.7192   60.3206 C   0  0  0  0  0  0  0  0  0  0  0  0
  -39.5988   59.5355   59.9254 H   0  0  0  0  0  0  0  0  0  0  0  0
  -41.8049   56.4017   60.7964 N   0  0  0  0  0  0  0  0  0  0  0  0
  -41.5345   58.1892   59.4687 O   0  0  0  0  0  0  0  0  0  0  0  0
  -39.9196   57.8887   61.2112 C   0  0  0  0  0  0  0  0  0  0  0  0
  -40.3405   58.5525   62.5272 C   0  0  0  0  0  0  0  0  0  0  0  0
  -40.7584   57.5594   63.6062 C   0  0  0  0  0  0  0  0  0  0  0  0
  -41.9599   56.6988   63.2696 C   0  0  0  0  0  0  0  0  0  0  0  0
  -41.7411   55.7573   62.1038 C   0  0  0  0  0  0  0  0  0  0  0  0
  -41.1579   57.5057   60.4162 C   0  0  0  0  0  0  0  0  0  0  0  0
  -42.3861   55.9780   60.1241 H   0  0  0  0  0  0  0  0  0  0  0  0
  -36.4283   60.0706   65.5074 C   0  0  0  0  0  0  0  0  0  0  0  0
  -36.7723   58.5850   65.5183 C   0  0  0  0  0  0  0  0  0  0  0  0
  -38.2600   58.3175   65.6515 C   0  0  0  0  0  0  0  0  0  0  0  0
  -39.0358   59.3995   66.3704 C   0  0  0  0  0  0  0  0  0  0  0  0
  -39.6830   60.2942   65.4240 N   0  0  0  0  0  0  0  0  0  0  0  0
  -41.4400   61.5878   64.8467 O   0  0  0  0  0  0  0  0  0  0  0  0
  -40.8833   60.8342   65.6618 C   0  0  0  0  0  0  0  0  0  0  0  0
  -39.2226   60.5094   64.5808 H   0  0  0  0  0  0  0  0  0  0  0  0
  -42.2062   59.4714   67.2638 C   0  0  0  0  0  0  0  0  0  0  0  0
  -41.4409   60.5210   66.9965 C   0  0  0  0  0  0  0  0  0  0  0  0
  -42.6484   58.3955   66.3216 C   0  0  0  0  0  0  0  0  0  0  0  0
  -44.0829   57.9604   66.5955 C   0  0  0  0  0  0  0  0  0  0  0  0
  -44.9824   58.0076   65.3725 C   0  0  0  0  0  0  0  0  0  0  0  0
  -46.3089   57.2918   65.5653 C   0  0  0  0  0  0  0  0  0  0  0  0
  -47.3698   58.1181   66.2675 C   0  0  0  0  0  0  0  0  0  0  0  0
  -48.7887   57.7421   65.8737 C   0  0  0  0  0  0  0  0  0  0  0  0
  -49.7356   58.9250   65.8187 C   0  0  0  0  0  0  0  0  0  0  0  0
  -50.2546   59.2068   64.4230 C   0  0  0  0  0  0  0  0  0  0  0  0
  -49.1709   59.4225   63.3841 C   0  0  0  0  0  0  0  0  0  0  0  0
  -49.2283   58.4083   62.2589 C   0  0  0  0  0  0  0  0  0  0  0  0
  -49.6017   59.0205   60.9188 C   0  0  0  0  0  0  0  0  0  0  0  0
  -49.5148   58.0557   59.7490 C   0  0  0  0  0  0  0  0  0  0  0  0
  -48.2324   57.2393   59.7071 C   0  0  0  0  0  0  0  0  0  0  0  0
  -47.1104   57.8926   58.9120 C   0  0  0  0  0  0  0  0  0  0  0  0
  -47.3664   57.9181   57.4137 C   0  0  0  0  0  0  0  0  0  0  0  0
  -47.1480   55.5099   56.6862 C   0  0  0  0  0  0  0  0  0  0  0  0
  -48.0702   56.6856   56.8755 C   0  0  0  0  0  0  0  0  0  0  0  0
 43 45  1  0  0  0
 43 42  1  0  0  0
 43 46  1  0  0  0
 64 65  1  0  0  0
 44 45  2  0  0  0
 65 63  1  0  0  0
  2  1  1  0  0  0
  2  4  1  0  0  0
  2  5  1  0  0  0
  3  4  2  0  0  0
 63 62  1  0  0  0
  6  8  1  0  0  0
  6 11  2  0  0  0
  7 10  1  0  0  0
  7 11  1  0  0  0
 62 61  1  0  0  0
 26 28  1  0  0  0
 26 32  1  0  0  0
 26 29  1  0  0  0
 12 18  1  0  0  0
 12 19  1  0  0  0
 61 60  1  0  0  0
 30 36  1  0  0  0
 30 37  1  0  0  0
 30 38  1  0  0  0
 20 21  2  0  0  0
 60 59  1  0  0  0
 22 21  1  0  0  0
 22 23  1  0  0  0
 59 58  1  0  0  0
 27 28  2  0  0  0
 58 57  1  0  0  0
 31 37  2  0  0  0
 57 56  1  0  0  0
 56 55  1  0  0  0
 55 54  1  0  0  0
 54 53  1  0  0  0
 53 52  1  0  0  0
 52 51  1  0  0  0
 51 50  1  0  0  0
 50 49  1  0  0  0
 49 47  1  0  0  0
 47 48  2  0  0  0
 48 45  1  0  0  0
 42 41  1  0  0  0
 41 40  1  0  0  0
 40 39  1  0  0  0
 39  1  1  0  0  0
  1 21  1  0  0  0
  8  4  1  0  0  0
  8  9  1  0  0  0
  8 10  1  0  0  0
 11 13  1  0  0  0
 13 14  2  0  0  0
 13 18  1  0  0  0
 14 15  1  0  0  0
 15 16  2  0  0  0
 16 17  1  0  0  0
 17 18  2  0  0  0
 23 24  1  0  0  0
 23 25  1  0  0  0
 25 28  1  0  0  0
 32 33  1  0  0  0
 32 37  1  0  0  0
 33 34  1  0  0  0
 34 35  1  0  0  0
 35 36  1  0  0  0
M  END
> <minimizedAffinity>
-9.53705

> <CNNscore>
0.1701637357

> <CNNaffinity>
7.3827843666

> <CNN_VS>
1.2562822104

> <CNNaffinity_variance>
1.4567912817

$$$$
/media/chris/experiments/cd1a-new-docking/inputs/ligands/7ryo_ligand.pdb


 65 67  0  0  0  0  0  0  0  0999 V2000
  -33.3276   60.5169   63.1371 C   0  0  0  0  0  0  0  0  0  0  0  0
  -34.2023   59.5698   62.4661 N   0  0  0  0  0  0  0  0  0  0  0  0
  -34.8834   58.6165   64.3847 O   0  0  0  0  0  0  0  0  0  0  0  0
  -34.9174   58.6850   63.1651 C   0  0  0  0  0  0  0  0  0  0  0  0
  -34.2682   59.5806   61.4838 H   0  0  0  0  0  0  0  0  0  0  0  0
  -37.0499   57.4514   63.1128 N   0  0  0  0  0  0  0  0  0  0  0  0
  -37.7066   58.0352   61.0366 O   0  0  0  0  0  0  0  0  0  0  0  0
  -35.7998   57.7030   62.3770 C   0  0  0  0  0  0  0  0  0  0  0  0
  -35.0469   56.3864   62.2115 C   0  0  0  0  0  0  0  0  0  0  0  0
  -36.2739   58.2595   61.0263 C   0  0  0  0  0  0  0  0  0  0  0  0
  -38.0073   57.6598   62.3071 C   0  0  0  0  0  0  0  0  0  0  0  0
  -39.8148   59.8994   62.2779 O   0  0  0  0  0  0  0  0  0  0  0  0
  -39.4347   57.5285   62.6089 C   0  0  0  0  0  0  0  0  0  0  0  0
  -40.0002   56.2649   62.7848 C   0  0  0  0  0  0  0  0  0  0  0  0
  -41.3753   56.1108   62.8268 C   0  0  0  0  0  0  0  0  0  0  0  0
  -42.2043   57.2035   62.6956 C   0  0  0  0  0  0  0  0  0  0  0  0
  -41.6692   58.4660   62.5157 C   0  0  0  0  0  0  0  0  0  0  0  0
  -40.2897   58.6410   62.4687 C   0  0  0  0  0  0  0  0  0  0  0  0
  -38.8909   60.0509   62.2414 H   0  0  0  0  0  0  0  0  0  0  0  0
  -31.5769   58.8539   63.2394 O   0  0  0  0  0  0  0  0  0  0  0  0
  -31.8938   60.0097   63.1766 C   0  0  0  0  0  0  0  0  0  0  0  0
  -31.0287   61.0385   63.1527 O   0  0  0  0  0  0  0  0  0  0  0  0
  -30.9278   61.8289   61.9219 C   0  0  0  0  0  0  0  0  0  0  0  0
  -30.1782   61.0108   60.9009 C   0  0  0  0  0  0  0  0  0  0  0  0
  -30.1830   63.0919   62.3088 C   0  0  0  0  0  0  0  0  0  0  0  0
  -31.3372   65.2155   62.2827 N   0  0  0  0  0  0  0  0  0  0  0  0
  -30.4404   64.4613   60.3620 O   0  0  0  0  0  0  0  0  0  0  0  0
  -30.6661   64.3141   61.5599 C   0  0  0  0  0  0  0  0  0  0  0  0
  -31.6752   66.0274   61.8401 H   0  0  0  0  0  0  0  0  0  0  0  0
  -33.5578   64.9226   65.1245 N   0  0  0  0  0  0  0  0  0  0  0  0
  -33.6925   66.0373   63.1828 O   0  0  0  0  0  0  0  0  0  0  0  0
  -31.5821   65.0319   63.7025 C   0  0  0  0  0  0  0  0  0  0  0  0
  -30.6721   65.9573   64.5180 C   0  0  0  0  0  0  0  0  0  0  0  0
  -30.5195   65.5352   65.9753 C   0  0  0  0  0  0  0  0  0  0  0  0
  -31.7986   65.5268   66.7886 C   0  0  0  0  0  0  0  0  0  0  0  0
  -32.8251   64.5172   66.3193 C   0  0  0  0  0  0  0  0  0  0  0  0
  -33.0370   65.3746   63.9815 C   0  0  0  0  0  0  0  0  0  0  0  0
  -34.5392   64.8559   65.1656 H   0  0  0  0  0  0  0  0  0  0  0  0
  -33.8323   60.8382   64.5446 C   0  0  0  0  0  0  0  0  0  0  0  0
  -34.8745   61.9514   64.5473 C   0  0  0  0  0  0  0  0  0  0  0  0
  -35.6184   62.0697   65.8646 C   0  0  0  0  0  0  0  0  0  0  0  0
  -37.0612   61.6163   65.8197 C   0  0  0  0  0  0  0  0  0  0  0  0
  -37.1510   60.1658   65.7644 N   0  0  0  0  0  0  0  0  0  0  0  0
  -38.3943   58.2826   65.8074 O   0  0  0  0  0  0  0  0  0  0  0  0
  -38.3207   59.5219   65.8419 C   0  0  0  0  0  0  0  0  0  0  0  0
  -36.3239   59.6409   65.6668 H   0  0  0  0  0  0  0  0  0  0  0  0
  -40.7573   59.9848   65.9908 C   0  0  0  0  0  0  0  0  0  0  0  0
  -39.5047   60.4086   65.8903 C   0  0  0  0  0  0  0  0  0  0  0  0
  -41.2418   58.5722   66.0936 C   0  0  0  0  0  0  0  0  0  0  0  0
  -42.6265   58.4954   66.7250 C   0  0  0  0  0  0  0  0  0  0  0  0
  -43.4485   57.3065   66.2580 C   0  0  0  0  0  0  0  0  0  0  0  0
  -44.6863   57.6959   65.4674 C   0  0  0  0  0  0  0  0  0  0  0  0
  -45.9065   57.9903   66.3195 C   0  0  0  0  0  0  0  0  0  0  0  0
  -47.1707   57.3091   65.8220 C   0  0  0  0  0  0  0  0  0  0  0  0
  -48.4456   57.9936   66.2748 C   0  0  0  0  0  0  0  0  0  0  0  0
  -48.3753   59.5045   66.1798 C   0  0  0  0  0  0  0  0  0  0  0  0
  -48.6201   60.0560   64.7884 C   0  0  0  0  0  0  0  0  0  0  0  0
  -50.0649   60.4557   64.5628 C   0  0  0  0  0  0  0  0  0  0  0  0
  -50.8454   59.4431   63.7409 C   0  0  0  0  0  0  0  0  0  0  0  0
  -50.3066   59.2353   62.3361 C   0  0  0  0  0  0  0  0  0  0  0  0
  -50.2476   57.7797   61.8993 C   0  0  0  0  0  0  0  0  0  0  0  0
  -50.2897   57.5860   60.3898 C   0  0  0  0  0  0  0  0  0  0  0  0
  -49.0317   56.9442   59.8271 C   0  0  0  0  0  0  0  0  0  0  0  0
  -47.2525   58.2278   58.5767 C   0  0  0  0  0  0  0  0  0  0  0  0
  -48.5768   57.5148   58.4961 C   0  0  0  0  0  0  0  0  0  0  0  0
 43 45  1  0  0  0
 43 42  1  0  0  0
 43 46  1  0  0  0
 64 65  1  0  0  0
 44 45  2  0  0  0
 65 63  1  0  0  0
  2  1  1  0  0  0
  2  4  1  0  0  0
  2  5  1  0  0  0
  3  4  2  0  0  0
 63 62  1  0  0  0
  6  8  1  0  0  0
  6 11  2  0  0  0
  7 10  1  0  0  0
  7 11  1  0  0  0
 62 61  1  0  0  0
 26 28  1  0  0  0
 26 32  1  0  0  0
 26 29  1  0  0  0
 12 18  1  0  0  0
 12 19  1  0  0  0
 61 60  1  0  0  0
 30 36  1  0  0  0
 30 37  1  0  0  0
 30 38  1  0  0  0
 20 21  2  0  0  0
 60 59  1  0  0  0
 22 21  1  0  0  0
 22 23  1  0  0  0
 59 58  1  0  0  0
 27 28  2  0  0  0
 58 57  1  0  0  0
 31 37  2  0  0  0
 57 56  1  0  0  0
 56 55  1  0  0  0
 55 54  1  0  0  0
 54 53  1  0  0  0
 53 52  1  0  0  0
 52 51  1  0  0  0
 51 50  1  0  0  0
 50 49  1  0  0  0
 49 47  1  0  0  0
 47 48  2  0  0  0
 48 45  1  0  0  0
 42 41  1  0  0  0
 41 40  1  0  0  0
 40 39  1  0  0  0
 39  1  1  0  0  0
  1 21  1  0  0  0
  8  4  1  0  0  0
  8  9  1  0  0  0
  8 10  1  0  0  0
 11 13  1  0  0  0
 13 14  2  0  0  0
 13 18  1  0  0  0
 14 15  1  0  0  0
 15 16  2  0  0  0
 16 17  1  0  0  0
 17 18  2  0  0  0
 23 24  1  0  0  0
 23 25  1  0  0  0
 25 28  1  0  0  0
 32 33  1  0  0  0
 32 37  1  0  0  0
 33 34  1  0  0  0
 34 35  1  0  0  0
 35 36  1  0  0  0
M  END
> <minimizedAffinity>
-8.89668

> <CNNscore>
0.1462958753

> <CNNaffinity>
7.1662659645

> <CNN_VS>
1.0483951569

> <CNNaffinity_variance>
0.8434078097

$$$$
