/media/chris/experiments/cd1a-new-docking/inputs/ligands/7ryo_ligand.pdb


 65 67  0  0  0  0  0  0  0  0999 V2000
  -34.3728   58.9110   63.6459 C   0  0  0  0  0  0  0  0  0  0  0  0
  -35.3918   58.6807   62.6355 N   0  0  0  0  0  0  0  0  0  0  0  0
  -36.1633   60.7904   62.7233 O   0  0  0  0  0  0  0  0  0  0  0  0
  -36.2138   59.6622   62.2563 C   0  0  0  0  0  0  0  0  0  0  0  0
  -35.4771   57.7897   62.2256 H   0  0  0  0  0  0  0  0  0  0  0  0
  -38.0129   58.1147   61.5929 N   0  0  0  0  0  0  0  0  0  0  0  0
  -39.6114   59.6465   61.1667 O   0  0  0  0  0  0  0  0  0  0  0  0
  -37.2790   59.3286   61.1989 C   0  0  0  0  0  0  0  0  0  0  0  0
  -36.5865   59.0790   59.8625 C   0  0  0  0  0  0  0  0  0  0  0  0
  -38.3745   60.3983   61.0795 C   0  0  0  0  0  0  0  0  0  0  0  0
  -39.2498   58.3928   61.5451 C   0  0  0  0  0  0  0  0  0  0  0  0
  -41.4284   57.9117   59.7268 O   0  0  0  0  0  0  0  0  0  0  0  0
  -40.3531   57.4807   61.8560 C   0  0  0  0  0  0  0  0  0  0  0  0
  -40.3080   56.6933   63.0072 C   0  0  0  0  0  0  0  0  0  0  0  0
  -41.2126   55.6612   63.1879 C   0  0  0  0  0  0  0  0  0  0  0  0
  -42.1704   55.3977   62.2331 C   0  0  0  0  0  0  0  0  0  0  0  0
  -42.2336   56.1603   61.0811 C   0  0  0  0  0  0  0  0  0  0  0  0
  -41.3318   57.2006   60.8803 C   0  0  0  0  0  0  0  0  0  0  0  0
  -40.8360   58.6185   59.5613 H   0  0  0  0  0  0  0  0  0  0  0  0
  -32.7346   57.2916   62.9148 O   0  0  0  0  0  0  0  0  0  0  0  0
  -33.0091   58.4312   63.1721 C   0  0  0  0  0  0  0  0  0  0  0  0
  -32.1458   59.4593   63.1012 O   0  0  0  0  0  0  0  0  0  0  0  0
  -32.0247   60.1741   61.8268 C   0  0  0  0  0  0  0  0  0  0  0  0
  -30.9291   59.5183   61.0250 C   0  0  0  0  0  0  0  0  0  0  0  0
  -31.6923   61.6075   62.1936 C   0  0  0  0  0  0  0  0  0  0  0  0
  -32.9849   61.9412   64.2085 N   0  0  0  0  0  0  0  0  0  0  0  0
  -33.5118   63.1513   62.3866 O   0  0  0  0  0  0  0  0  0  0  0  0
  -32.8140   62.3020   62.9335 C   0  0  0  0  0  0  0  0  0  0  0  0
  -32.3949   61.2540   64.5943 H   0  0  0  0  0  0  0  0  0  0  0  0
  -34.2119   64.5526   66.3923 N   0  0  0  0  0  0  0  0  0  0  0  0
  -32.1683   63.7136   66.0044 O   0  0  0  0  0  0  0  0  0  0  0  0
  -34.0166   62.5338   65.0418 C   0  0  0  0  0  0  0  0  0  0  0  0
  -34.6005   61.4784   65.9877 C   0  0  0  0  0  0  0  0  0  0  0  0
  -35.9589   61.8603   66.5656 C   0  0  0  0  0  0  0  0  0  0  0  0
  -35.9755   63.1143   67.4170 C   0  0  0  0  0  0  0  0  0  0  0  0
  -35.6357   64.3817   66.6610 C   0  0  0  0  0  0  0  0  0  0  0  0
  -33.3853   63.6522   65.8558 C   0  0  0  0  0  0  0  0  0  0  0  0
  -33.8197   65.4233   66.6319 H   0  0  0  0  0  0  0  0  0  0  0  0
  -34.7507   58.2561   64.9753 C   0  0  0  0  0  0  0  0  0  0  0  0
  -35.8396   57.2009   64.8136 C   0  0  0  0  0  0  0  0  0  0  0  0
  -37.1213   57.5479   65.5481 C   0  0  0  0  0  0  0  0  0  0  0  0
  -37.4813   59.0174   65.5332 C   0  0  0  0  0  0  0  0  0  0  0  0
  -38.7346   59.2407   64.8301 N   0  0  0  0  0  0  0  0  0  0  0  0
  -39.2888   61.0614   66.0432 O   0  0  0  0  0  0  0  0  0  0  0  0
  -39.5526   60.2530   65.1380 C   0  0  0  0  0  0  0  0  0  0  0  0
  -38.9891   58.6268   64.1038 H   0  0  0  0  0  0  0  0  0  0  0  0
  -41.8612   59.4950   64.6192 C   0  0  0  0  0  0  0  0  0  0  0  0
  -40.8169   60.2731   64.3689 C   0  0  0  0  0  0  0  0  0  0  0  0
  -42.0040   58.4729   65.7034 C   0  0  0  0  0  0  0  0  0  0  0  0
  -43.3318   57.7312   65.6080 C   0  0  0  0  0  0  0  0  0  0  0  0
  -44.4045   58.2718   66.5375 C   0  0  0  0  0  0  0  0  0  0  0  0
  -45.7746   57.6558   66.3084 C   0  0  0  0  0  0  0  0  0  0  0  0
  -46.8039   58.0076   67.3661 C   0  0  0  0  0  0  0  0  0  0  0  0
  -47.9637   58.8315   66.8317 C   0  0  0  0  0  0  0  0  0  0  0  0
  -48.8650   58.0648   65.8838 C   0  0  0  0  0  0  0  0  0  0  0  0
  -49.1734   58.8259   64.6101 C   0  0  0  0  0  0  0  0  0  0  0  0
  -50.3801   59.7398   64.7038 C   0  0  0  0  0  0  0  0  0  0  0  0
  -51.1775   59.7906   63.4156 C   0  0  0  0  0  0  0  0  0  0  0  0
  -51.1101   58.4987   62.6177 C   0  0  0  0  0  0  0  0  0  0  0  0
  -50.1130   58.5271   61.4724 C   0  0  0  0  0  0  0  0  0  0  0  0
  -50.0176   57.2232   60.6954 C   0  0  0  0  0  0  0  0  0  0  0  0
  -49.3692   57.3669   59.3254 C   0  0  0  0  0  0  0  0  0  0  0  0
  -48.1061   58.2128   59.3399 C   0  0  0  0  0  0  0  0  0  0  0  0
  -46.3086   58.0114   57.5778 C   0  0  0  0  0  0  0  0  0  0  0  0
  -46.8570   57.4845   58.8778 C   0  0  0  0  0  0  0  0  0  0  0  0
 43 45  1  0  0  0
 43 42  1  0  0  0
 43 46  1  0  0  0
 64 65  1  0  0  0
 44 45  2  0  0  0
 65 63  1  0  0  0
  2  1  1  0  0  0
  2  4  1  0  0  0
  2  5  1  0  0  0
  3  4  2  0  0  0
 63 62  1  0  0  0
  6  8  1  0  0  0
  6 11  2  0  0  0
  7 10  1  0  0  0
  7 11  1  0  0  0
 62 61  1  0  0  0
 26 28  1  0  0  0
 26 32  1  0  0  0
 26 29  1  0  0  0
 12 18  1  0  0  0
 12 19  1  0  0  0
 61 60  1  0  0  0
 30 36  1  0  0  0
 30 37  1  0  0  0
 30 38  1  0  0  0
 20 21  2  0  0  0
 60 59  1  0  0  0
 22 21  1  0  0  0
 22 23  1  0  0  0
 59 58  1  0  0  0
 27 28  2  0  0  0
 58 57  1  0  0  0
 31 37  2  0  0  0
 57 56  1  0  0  0
 56 55  1  0  0  0
 55 54  1  0  0  0
 54 53  1  0  0  0
 53 52  1  0  0  0
 52 51  1  0  0  0
 51 50  1  0  0  0
 50 49  1  0  0  0
 49 47  1  0  0  0
 47 48  2  0  0  0
 48 45  1  0  0  0
 42 41  1  0  0  0
 41 40  1  0  0  0
 40 39  1  0  0  0
 39  1  1  0  0  0
  1 21  1  0  0  0
  8  4  1  0  0  0
  8  9  1  0  0  0
  8 10  1  0  0  0
 11 13  1  0  0  0
 13 14  2  0  0  0
 13 18  1  0  0  0
 14 15  1  0  0  0
 15 16  2  0  0  0
 16 17  1  0  0  0
 17 18  2  0  0  0
 23 24  1  0  0  0
 23 25  1  0  0  0
 25 28  1  0  0  0
 32 33  1  0  0  0
 32 37  1  0  0  0
 33 34  1  0  0  0
 34 35  1  0  0  0
 35 36  1  0  0  0
M  END
> <minimizedAffinity>
-8.91570

> <CNNscore>
0.2379054129

> <CNNaffinity>
7.7373952866

> <CNN_VS>
1.8407682180

> <CNNaffinity_variance>
1.2927467823

$$$$
/media/chris/experiments/cd1a-new-docking/inputs/ligands/7ryo_ligand.pdb


 65 67  0  0  0  0  0  0  0  0999 V2000
  -38.5498   60.6157   64.8340 C   0  0  0  0  0  0  0  0  0  0  0  0
  -37.7911   59.8719   63.8423 N   0  0  0  0  0  0  0  0  0  0  0  0
  -39.1260   60.4914   62.1430 O   0  0  0  0  0  0  0  0  0  0  0  0
  -38.1549   59.8763   62.5576 C   0  0  0  0  0  0  0  0  0  0  0  0
  -36.9989   59.3583   64.1214 H   0  0  0  0  0  0  0  0  0  0  0  0
  -35.8846   59.3614   61.7500 N   0  0  0  0  0  0  0  0  0  0  0  0
  -35.9999   57.1137   61.8829 O   0  0  0  0  0  0  0  0  0  0  0  0
  -37.3119   59.0444   61.5772 C   0  0  0  0  0  0  0  0  0  0  0  0
  -37.7287   59.3907   60.1509 C   0  0  0  0  0  0  0  0  0  0  0  0
  -37.3874   57.5331   61.8396 C   0  0  0  0  0  0  0  0  0  0  0  0
  -35.2731   58.2612   61.9087 C   0  0  0  0  0  0  0  0  0  0  0  0
  -33.7647   59.8997   63.7317 O   0  0  0  0  0  0  0  0  0  0  0  0
  -33.8323   58.0953   62.1147 C   0  0  0  0  0  0  0  0  0  0  0  0
  -33.1595   57.0232   61.5272 C   0  0  0  0  0  0  0  0  0  0  0  0
  -31.8638   56.7153   61.9052 C   0  0  0  0  0  0  0  0  0  0  0  0
  -31.2210   57.4639   62.8668 C   0  0  0  0  0  0  0  0  0  0  0  0
  -31.8672   58.5287   63.4678 C   0  0  0  0  0  0  0  0  0  0  0  0
  -33.1703   58.8525   63.1029 C   0  0  0  0  0  0  0  0  0  0  0  0
  -34.6416   60.1434   63.5090 H   0  0  0  0  0  0  0  0  0  0  0  0
  -37.9414   60.4547   67.1674 O   0  0  0  0  0  0  0  0  0  0  0  0
  -37.7126   60.8927   66.0738 C   0  0  0  0  0  0  0  0  0  0  0  0
  -36.6907   61.7148   65.7788 O   0  0  0  0  0  0  0  0  0  0  0  0
  -35.9608   62.3365   66.8882 C   0  0  0  0  0  0  0  0  0  0  0  0
  -36.1478   63.8295   66.7927 C   0  0  0  0  0  0  0  0  0  0  0  0
  -34.5132   61.9234   66.7057 C   0  0  0  0  0  0  0  0  0  0  0  0
  -33.9274   63.0124   64.6290 N   0  0  0  0  0  0  0  0  0  0  0  0
  -32.8894   63.6719   66.5129 O   0  0  0  0  0  0  0  0  0  0  0  0
  -33.6998   62.9460   65.9439 C   0  0  0  0  0  0  0  0  0  0  0  0
  -34.5894   62.4047   64.2269 H   0  0  0  0  0  0  0  0  0  0  0  0
  -33.5953   66.2538   63.0552 N   0  0  0  0  0  0  0  0  0  0  0  0
  -35.3666   65.0237   63.6715 O   0  0  0  0  0  0  0  0  0  0  0  0
  -33.2259   63.9555   63.7756 C   0  0  0  0  0  0  0  0  0  0  0  0
  -32.8371   63.2823   62.4546 C   0  0  0  0  0  0  0  0  0  0  0  0
  -31.7332   64.0130   61.6980 C   0  0  0  0  0  0  0  0  0  0  0  0
  -32.0663   65.4268   61.2643 C   0  0  0  0  0  0  0  0  0  0  0  0
  -32.2934   66.3898   62.4108 C   0  0  0  0  0  0  0  0  0  0  0  0
  -34.1560   65.1252   63.4955 C   0  0  0  0  0  0  0  0  0  0  0  0
  -34.1146   67.0811   63.1782 H   0  0  0  0  0  0  0  0  0  0  0  0
  -39.8455   59.8906   65.2007 C   0  0  0  0  0  0  0  0  0  0  0  0
  -40.8939   60.8336   65.7810 C   0  0  0  0  0  0  0  0  0  0  0  0
  -41.5068   60.3233   67.0720 C   0  0  0  0  0  0  0  0  0  0  0  0
  -41.9895   58.8902   67.0204 C   0  0  0  0  0  0  0  0  0  0  0  0
  -43.1429   58.7591   66.1445 N   0  0  0  0  0  0  0  0  0  0  0  0
  -42.7766   56.5757   65.7056 O   0  0  0  0  0  0  0  0  0  0  0  0
  -43.4548   57.6040   65.5468 C   0  0  0  0  0  0  0  0  0  0  0  0
  -43.7127   59.5462   65.9863 H   0  0  0  0  0  0  0  0  0  0  0  0
  -45.8802   57.5607   65.0094 C   0  0  0  0  0  0  0  0  0  0  0  0
  -44.6150   57.6830   64.6313 C   0  0  0  0  0  0  0  0  0  0  0  0
  -46.4065   57.3428   66.3936 C   0  0  0  0  0  0  0  0  0  0  0  0
  -46.7815   58.6570   67.0678 C   0  0  0  0  0  0  0  0  0  0  0  0
  -48.1693   59.1575   66.7064 C   0  0  0  0  0  0  0  0  0  0  0  0
  -49.0957   58.0663   66.1961 C   0  0  0  0  0  0  0  0  0  0  0  0
  -50.4907   58.5452   65.8407 C   0  0  0  0  0  0  0  0  0  0  0  0
  -50.5913   60.0535   65.6841 C   0  0  0  0  0  0  0  0  0  0  0  0
  -50.3369   60.5335   64.2685 C   0  0  0  0  0  0  0  0  0  0  0  0
  -51.1762   59.8092   63.2352 C   0  0  0  0  0  0  0  0  0  0  0  0
  -50.3860   59.2493   62.0681 C   0  0  0  0  0  0  0  0  0  0  0  0
  -50.0377   57.7846   62.2457 C   0  0  0  0  0  0  0  0  0  0  0  0
  -49.7980   57.0619   60.9302 C   0  0  0  0  0  0  0  0  0  0  0  0
  -49.9723   57.9359   59.7004 C   0  0  0  0  0  0  0  0  0  0  0  0
  -48.6682   58.3262   59.0220 C   0  0  0  0  0  0  0  0  0  0  0  0
  -47.4516   57.5748   59.5445 C   0  0  0  0  0  0  0  0  0  0  0  0
  -46.4233   57.2659   58.4681 C   0  0  0  0  0  0  0  0  0  0  0  0
  -47.4145   55.6844   56.7673 C   0  0  0  0  0  0  0  0  0  0  0  0
  -47.0028   57.1002   57.0750 C   0  0  0  0  0  0  0  0  0  0  0  0
 43 45  1  0  0  0
 43 42  1  0  0  0
 43 46  1  0  0  0
 64 65  1  0  0  0
 44 45  2  0  0  0
 65 63  1  0  0  0
  2  1  1  0  0  0
  2  4  1  0  0  0
  2  5  1  0  0  0
  3  4  2  0  0  0
 63 62  1  0  0  0
  6  8  1  0  0  0
  6 11  2  0  0  0
  7 10  1  0  0  0
  7 11  1  0  0  0
 62 61  1  0  0  0
 26 28  1  0  0  0
 26 32  1  0  0  0
 26 29  1  0  0  0
 12 18  1  0  0  0
 12 19  1  0  0  0
 61 60  1  0  0  0
 30 36  1  0  0  0
 30 37  1  0  0  0
 30 38  1  0  0  0
 20 21  2  0  0  0
 60 59  1  0  0  0
 22 21  1  0  0  0
 22 23  1  0  0  0
 59 58  1  0  0  0
 27 28  2  0  0  0
 58 57  1  0  0  0
 31 37  2  0  0  0
 57 56  1  0  0  0
 56 55  1  0  0  0
 55 54  1  0  0  0
 54 53  1  0  0  0
 53 52  1  0  0  0
 52 51  1  0  0  0
 51 50  1  0  0  0
 50 49  1  0  0  0
 49 47  1  0  0  0
 47 48  2  0  0  0
 48 45  1  0  0  0
 42 41  1  0  0  0
 41 40  1  0  0  0
 40 39  1  0  0  0
 39  1  1  0  0  0
  1 21  1  0  0  0
  8  4  1  0  0  0
  8  9  1  0  0  0
  8 10  1  0  0  0
 11 13  1  0  0  0
 13 14  2  0  0  0
 13 18  1  0  0  0
 14 15  1  0  0  0
 15 16  2  0  0  0
 16 17  1  0  0  0
 17 18  2  0  0  0
 23 24  1  0  0  0
 23 25  1  0  0  0
 25 28  1  0  0  0
 32 33  1  0  0  0
 32 37  1  0  0  0
 33 34  1  0  0  0
 34 35  1  0  0  0
 35 36  1  0  0  0
M  END
> <minimizedAffinity>
-10.42669

> <CNNscore>
0.2306534052

> <CNNaffinity>
7.2314157486

> <CNN_VS>
1.6679506302

> <CNNaffinity_variance>
0.8122302294

$$$$
/media/chris/experiments/cd1a-new-docking/inputs/ligands/7ryo_ligand.pdb


 65 67  0  0  0  0  0  0  0  0999 V2000
  -40.1661   60.2617   64.3592 C   0  0  0  0  0  0  0  0  0  0  0  0
  -39.2602   59.5470   63.4756 N   0  0  0  0  0  0  0  0  0  0  0  0
  -39.9931   60.6025   61.6310 O   0  0  0  0  0  0  0  0  0  0  0  0
  -39.2546   59.7864   62.1620 C   0  0  0  0  0  0  0  0  0  0  0  0
  -38.6430   58.8777   63.8503 H   0  0  0  0  0  0  0  0  0  0  0  0
  -36.9019   59.4300   61.5219 N   0  0  0  0  0  0  0  0  0  0  0  0
  -36.8251   57.1961   61.8166 O   0  0  0  0  0  0  0  0  0  0  0  0
  -38.2820   58.9702   61.2948 C   0  0  0  0  0  0  0  0  0  0  0  0
  -38.6389   59.1759   59.8258 C   0  0  0  0  0  0  0  0  0  0  0  0
  -38.2390   57.4805   61.6654 C   0  0  0  0  0  0  0  0  0  0  0  0
  -36.2061   58.4052   61.7962 C   0  0  0  0  0  0  0  0  0  0  0  0
  -34.9093   60.4788   63.3135 O   0  0  0  0  0  0  0  0  0  0  0  0
  -34.7718   58.3890   62.0933 C   0  0  0  0  0  0  0  0  0  0  0  0
  -34.0007   57.2734   61.7643 C   0  0  0  0  0  0  0  0  0  0  0  0
  -32.7119   57.1420   62.2520 C   0  0  0  0  0  0  0  0  0  0  0  0
  -32.1729   58.1116   63.0692 C   0  0  0  0  0  0  0  0  0  0  0  0
  -32.9177   59.2246   63.4141 C   0  0  0  0  0  0  0  0  0  0  0  0
  -34.2157   59.3736   62.9356 C   0  0  0  0  0  0  0  0  0  0  0  0
  -35.7857   60.6089   63.0086 H   0  0  0  0  0  0  0  0  0  0  0  0
  -39.8816   60.1541   66.7567 O   0  0  0  0  0  0  0  0  0  0  0  0
  -39.5052   60.5677   65.6949 C   0  0  0  0  0  0  0  0  0  0  0  0
  -38.4512   61.3844   65.5237 O   0  0  0  0  0  0  0  0  0  0  0  0
  -37.1207   60.7803   65.4030 C   0  0  0  0  0  0  0  0  0  0  0  0
  -37.2559   59.2986   65.6470 C   0  0  0  0  0  0  0  0  0  0  0  0
  -36.2666   61.4626   66.4540 C   0  0  0  0  0  0  0  0  0  0  0  0
  -34.5310   62.8450   65.4956 N   0  0  0  0  0  0  0  0  0  0  0  0
  -36.4557   63.8262   66.1239 O   0  0  0  0  0  0  0  0  0  0  0  0
  -35.7621   62.8190   66.0142 C   0  0  0  0  0  0  0  0  0  0  0  0
  -34.0208   62.0054   65.4326 H   0  0  0  0  0  0  0  0  0  0  0  0
  -33.7939   65.2395   62.8847 N   0  0  0  0  0  0  0  0  0  0  0  0
  -34.1172   63.0201   62.8819 O   0  0  0  0  0  0  0  0  0  0  0  0
  -33.9239   64.0767   65.0222 C   0  0  0  0  0  0  0  0  0  0  0  0
  -32.4725   64.1686   65.5063 C   0  0  0  0  0  0  0  0  0  0  0  0
  -31.9010   65.5815   65.4597 C   0  0  0  0  0  0  0  0  0  0  0  0
  -31.8319   66.2113   64.0827 C   0  0  0  0  0  0  0  0  0  0  0  0
  -33.1825   66.4431   63.4383 C   0  0  0  0  0  0  0  0  0  0  0  0
  -33.9529   64.0667   63.5019 C   0  0  0  0  0  0  0  0  0  0  0  0
  -34.1235   65.2986   61.9590 H   0  0  0  0  0  0  0  0  0  0  0  0
  -41.4710   59.4897   64.5596 C   0  0  0  0  0  0  0  0  0  0  0  0
  -41.2450   57.9852   64.6645 C   0  0  0  0  0  0  0  0  0  0  0  0
  -41.8341   57.2103   63.5005 C   0  0  0  0  0  0  0  0  0  0  0  0
  -43.0367   56.3609   63.8494 C   0  0  0  0  0  0  0  0  0  0  0  0
  -43.4961   56.6369   65.2013 N   0  0  0  0  0  0  0  0  0  0  0  0
  -45.0604   58.1273   64.5489 O   0  0  0  0  0  0  0  0  0  0  0  0
  -44.4810   57.5056   65.4546 C   0  0  0  0  0  0  0  0  0  0  0  0
  -43.0683   56.1691   65.9545 H   0  0  0  0  0  0  0  0  0  0  0  0
  -45.9367   57.5225   67.4680 C   0  0  0  0  0  0  0  0  0  0  0  0
  -44.7570   57.7145   66.8935 C   0  0  0  0  0  0  0  0  0  0  0  0
  -47.2038   57.0517   66.8251 C   0  0  0  0  0  0  0  0  0  0  0  0
  -48.0839   58.2180   66.3923 C   0  0  0  0  0  0  0  0  0  0  0  0
  -49.2779   57.8053   65.5489 C   0  0  0  0  0  0  0  0  0  0  0  0
  -50.5656   58.5177   65.9279 C   0  0  0  0  0  0  0  0  0  0  0  0
  -50.4653   60.0315   65.9331 C   0  0  0  0  0  0  0  0  0  0  0  0
  -50.1038   60.6188   64.5789 C   0  0  0  0  0  0  0  0  0  0  0  0
  -51.0801   60.2503   63.4790 C   0  0  0  0  0  0  0  0  0  0  0  0
  -50.4635   59.3773   62.4045 C   0  0  0  0  0  0  0  0  0  0  0  0
  -50.9728   57.9489   62.3901 C   0  0  0  0  0  0  0  0  0  0  0  0
  -51.0791   57.3791   60.9894 C   0  0  0  0  0  0  0  0  0  0  0  0
  -49.7355   56.9801   60.4013 C   0  0  0  0  0  0  0  0  0  0  0  0
  -49.2266   57.9188   59.3212 C   0  0  0  0  0  0  0  0  0  0  0  0
  -47.7373   58.2158   59.4033 C   0  0  0  0  0  0  0  0  0  0  0  0
  -47.0909   58.5080   58.0562 C   0  0  0  0  0  0  0  0  0  0  0  0
  -46.1021   57.4405   57.6156 C   0  0  0  0  0  0  0  0  0  0  0  0
  -47.4067   55.4222   56.8404 C   0  0  0  0  0  0  0  0  0  0  0  0
  -46.5379   56.0180   57.9168 C   0  0  0  0  0  0  0  0  0  0  0  0
 43 45  1  0  0  0
 43 42  1  0  0  0
 43 46  1  0  0  0
 64 65  1  0  0  0
 44 45  2  0  0  0
 65 63  1  0  0  0
  2  1  1  0  0  0
  2  4  1  0  0  0
  2  5  1  0  0  0
  3  4  2  0  0  0
 63 62  1  0  0  0
  6  8  1  0  0  0
  6 11  2  0  0  0
  7 10  1  0  0  0
  7 11  1  0  0  0
 62 61  1  0  0  0
 26 28  1  0  0  0
 26 32  1  0  0  0
 26 29  1  0  0  0
 12 18  1  0  0  0
 12 19  1  0  0  0
 61 60  1  0  0  0
 30 36  1  0  0  0
 30 37  1  0  0  0
 30 38  1  0  0  0
 20 21  2  0  0  0
 60 59  1  0  0  0
 22 21  1  0  0  0
 22 23  1  0  0  0
 59 58  1  0  0  0
 27 28  2  0  0  0
 58 57  1  0  0  0
 31 37  2  0  0  0
 57 56  1  0  0  0
 56 55  1  0  0  0
 55 54  1  0  0  0
 54 53  1  0  0  0
 53 52  1  0  0  0
 52 51  1  0  0  0
 51 50  1  0  0  0
 50 49  1  0  0  0
 49 47  1  0  0  0
 47 48  2  0  0  0
 48 45  1  0  0  0
 42 41  1  0  0  0
 41 40  1  0  0  0
 40 39  1  0  0  0
 39  1  1  0  0  0
  1 21  1  0  0  0
  8  4  1  0  0  0
  8  9  1  0  0  0
  8 10  1  0  0  0
 11 13  1  0  0  0
 13 14  2  0  0  0
 13 18  1  0  0  0
 14 15  1  0  0  0
 15 16  2  0  0  0
 16 17  1  0  0  0
 17 18  2  0  0  0
 23 24  1  0  0  0
 23 25  1  0  0  0
 25 28  1  0  0  0
 32 33  1  0  0  0
 32 37  1  0  0  0
 33 34  1  0  0  0
 34 35  1  0  0  0
 35 36  1  0  0  0
M  END
> <minimizedAffinity>
-10.42263

> <CNNscore>
0.2077510953

> <CNNaffinity>
7.4666337967

> <CNN_VS>
1.5512013435

> <CNNaffinity_variance>
1.0788922310

$$$$
/media/chris/experiments/cd1a-new-docking/inputs/ligands/7ryo_ligand.pdb


 65 67  0  0  0  0  0  0  0  0999 V2000
  -38.9392   59.4589   64.0221 C   0  0  0  0  0  0  0  0  0  0  0  0
  -40.1079   58.6007   64.1203 N   0  0  0  0  0  0  0  0  0  0  0  0
  -39.2420   57.0209   62.7757 O   0  0  0  0  0  0  0  0  0  0  0  0
  -40.1559   57.4332   63.4743 C   0  0  0  0  0  0  0  0  0  0  0  0
  -40.8740   58.8839   64.6700 H   0  0  0  0  0  0  0  0  0  0  0  0
  -42.0416   56.8193   64.9369 N   0  0  0  0  0  0  0  0  0  0  0  0
  -43.7150   57.1793   63.4695 O   0  0  0  0  0  0  0  0  0  0  0  0
  -41.4385   56.5965   63.6124 C   0  0  0  0  0  0  0  0  0  0  0  0
  -41.0822   55.1198   63.4706 C   0  0  0  0  0  0  0  0  0  0  0  0
  -42.5444   57.0105   62.6304 C   0  0  0  0  0  0  0  0  0  0  0  0
  -43.2576   57.1278   64.7477 C   0  0  0  0  0  0  0  0  0  0  0  0
  -42.6928   58.8877   66.9539 O   0  0  0  0  0  0  0  0  0  0  0  0
  -44.2430   57.4348   65.7872 C   0  0  0  0  0  0  0  0  0  0  0  0
  -45.5581   56.9860   65.6602 C   0  0  0  0  0  0  0  0  0  0  0  0
  -46.5485   57.4675   66.4990 C   0  0  0  0  0  0  0  0  0  0  0  0
  -46.2485   58.3968   67.4712 C   0  0  0  0  0  0  0  0  0  0  0  0
  -44.9538   58.8613   67.6148 C   0  0  0  0  0  0  0  0  0  0  0  0
  -43.9451   58.3909   66.7799 C   0  0  0  0  0  0  0  0  0  0  0  0
  -41.9912   58.5916   66.4079 H   0  0  0  0  0  0  0  0  0  0  0  0
  -39.2271   60.9033   65.9382 O   0  0  0  0  0  0  0  0  0  0  0  0
  -38.5841   60.0626   65.3727 C   0  0  0  0  0  0  0  0  0  0  0  0
  -37.4366   59.5381   65.8368 O   0  0  0  0  0  0  0  0  0  0  0  0
  -36.4063   59.1595   64.8648 C   0  0  0  0  0  0  0  0  0  0  0  0
  -36.1265   57.6871   65.0294 C   0  0  0  0  0  0  0  0  0  0  0  0
  -35.1998   60.0166   65.1953 C   0  0  0  0  0  0  0  0  0  0  0  0
  -33.9722   61.9700   64.4748 N   0  0  0  0  0  0  0  0  0  0  0  0
  -35.7674   61.3328   63.2778 O   0  0  0  0  0  0  0  0  0  0  0  0
  -35.0107   61.1658   64.2302 C   0  0  0  0  0  0  0  0  0  0  0  0
  -33.3990   61.7873   65.2541 H   0  0  0  0  0  0  0  0  0  0  0  0
  -32.3702   63.4526   61.5888 N   0  0  0  0  0  0  0  0  0  0  0  0
  -31.8372   61.7281   62.9202 O   0  0  0  0  0  0  0  0  0  0  0  0
  -33.6647   63.1063   63.6239 C   0  0  0  0  0  0  0  0  0  0  0  0
  -33.2122   64.2964   64.4774 C   0  0  0  0  0  0  0  0  0  0  0  0
  -33.3029   65.6362   63.7550 C   0  0  0  0  0  0  0  0  0  0  0  0
  -32.4387   65.7685   62.5167 C   0  0  0  0  0  0  0  0  0  0  0  0
  -32.8178   64.8273   61.3925 C   0  0  0  0  0  0  0  0  0  0  0  0
  -32.5435   62.7028   62.6795 C   0  0  0  0  0  0  0  0  0  0  0  0
  -31.8899   63.0342   60.8381 H   0  0  0  0  0  0  0  0  0  0  0  0
  -39.1392   60.5517   62.9710 C   0  0  0  0  0  0  0  0  0  0  0  0
  -40.6125   60.8637   62.7313 C   0  0  0  0  0  0  0  0  0  0  0  0
  -41.0231   60.7261   61.2770 C   0  0  0  0  0  0  0  0  0  0  0  0
  -40.2305   59.7061   60.4892 C   0  0  0  0  0  0  0  0  0  0  0  0
  -40.6470   59.6841   59.0960 N   0  0  0  0  0  0  0  0  0  0  0  0
  -41.6601   57.6733   59.2525 O   0  0  0  0  0  0  0  0  0  0  0  0
  -41.3360   58.6628   58.5754 C   0  0  0  0  0  0  0  0  0  0  0  0
  -40.4143   60.4457   58.5174 H   0  0  0  0  0  0  0  0  0  0  0  0
  -42.8064   58.9338   56.5911 C   0  0  0  0  0  0  0  0  0  0  0  0
  -41.6019   58.7811   57.1243 C   0  0  0  0  0  0  0  0  0  0  0  0
  -44.1185   59.0366   57.3042 C   0  0  0  0  0  0  0  0  0  0  0  0
  -45.0311   57.8605   56.9787 C   0  0  0  0  0  0  0  0  0  0  0  0
  -46.4892   58.1001   57.3300 C   0  0  0  0  0  0  0  0  0  0  0  0
  -47.4563   57.2438   56.5295 C   0  0  0  0  0  0  0  0  0  0  0  0
  -47.6878   55.8584   57.1028 C   0  0  0  0  0  0  0  0  0  0  0  0
  -47.2599   55.7250   58.5550 C   0  0  0  0  0  0  0  0  0  0  0  0
  -48.3992   55.8983   59.5403 C   0  0  0  0  0  0  0  0  0  0  0  0
  -48.4753   57.2958   60.1215 C   0  0  0  0  0  0  0  0  0  0  0  0
  -49.7945   58.0035   59.8788 C   0  0  0  0  0  0  0  0  0  0  0  0
  -50.8624   57.6115   60.8808 C   0  0  0  0  0  0  0  0  0  0  0  0
  -50.9498   58.5601   62.0652 C   0  0  0  0  0  0  0  0  0  0  0  0
  -50.4039   57.9874   63.3616 C   0  0  0  0  0  0  0  0  0  0  0  0
  -50.9555   58.6466   64.6163 C   0  0  0  0  0  0  0  0  0  0  0  0
  -49.9923   58.6330   65.7952 C   0  0  0  0  0  0  0  0  0  0  0  0
  -49.2711   59.9553   66.0022 C   0  0  0  0  0  0  0  0  0  0  0  0
  -47.3777   60.0229   64.3327 C   0  0  0  0  0  0  0  0  0  0  0  0
  -48.7207   60.5762   64.7310 C   0  0  0  0  0  0  0  0  0  0  0  0
 43 45  1  0  0  0
 43 42  1  0  0  0
 43 46  1  0  0  0
 64 65  1  0  0  0
 44 45  2  0  0  0
 65 63  1  0  0  0
  2  1  1  0  0  0
  2  4  1  0  0  0
  2  5  1  0  0  0
  3  4  2  0  0  0
 63 62  1  0  0  0
  6  8  1  0  0  0
  6 11  2  0  0  0
  7 10  1  0  0  0
  7 11  1  0  0  0
 62 61  1  0  0  0
 26 28  1  0  0  0
 26 32  1  0  0  0
 26 29  1  0  0  0
 12 18  1  0  0  0
 12 19  1  0  0  0
 61 60  1  0  0  0
 30 36  1  0  0  0
 30 37  1  0  0  0
 30 38  1  0  0  0
 20 21  2  0  0  0
 60 59  1  0  0  0
 22 21  1  0  0  0
 22 23  1  0  0  0
 59 58  1  0  0  0
 27 28  2  0  0  0
 58 57  1  0  0  0
 31 37  2  0  0  0
 57 56  1  0  0  0
 56 55  1  0  0  0
 55 54  1  0  0  0
 54 53  1  0  0  0
 53 52  1  0  0  0
 52 51  1  0  0  0
 51 50  1  0  0  0
 50 49  1  0  0  0
 49 47  1  0  0  0
 47 48  2  0  0  0
 48 45  1  0  0  0
 42 41  1  0  0  0
 41 40  1  0  0  0
 40 39  1  0  0  0
 39  1  1  0  0  0
  1 21  1  0  0  0
  8  4  1  0  0  0
  8  9  1  0  0  0
  8 10  1  0  0  0
 11 13  1  0  0  0
 13 14  2  0  0  0
 13 18  1  0  0  0
 14 15  1  0  0  0
 15 16  2  0  0  0
 16 17  1  0  0  0
 17 18  2  0  0  0
 23 24  1  0  0  0
 23 25  1  0  0  0
 25 28  1  0  0  0
 32 33  1  0  0  0
 32 37  1  0  0  0
 33 34  1  0  0  0
 34 35  1  0  0  0
 35 36  1  0  0  0
M  END
> <minimizedAffinity>
-8.10723

> <CNNscore>
0.1887447089

> <CNNaffinity>
7.4907431602

> <CNN_VS>
1.4138381481

> <CNNaffinity_variance>
1.3262794018

$$$$
/media/chris/experiments/cd1a-new-docking/inputs/ligands/7ryo_ligand.pdb


 65 67  0  0  0  0  0  0  0  0999 V2000
  -38.7910   60.2605   63.6412 C   0  0  0  0  0  0  0  0  0  0  0  0
  -37.3967   60.5999   63.8716 N   0  0  0  0  0  0  0  0  0  0  0  0
  -37.8448   61.8185   65.7067 O   0  0  0  0  0  0  0  0  0  0  0  0
  -37.0405   61.3652   64.9062 C   0  0  0  0  0  0  0  0  0  0  0  0
  -36.7062   60.2613   63.2570 H   0  0  0  0  0  0  0  0  0  0  0  0
  -34.9929   62.1386   63.7744 N   0  0  0  0  0  0  0  0  0  0  0  0
  -34.4054   63.7476   65.2403 O   0  0  0  0  0  0  0  0  0  0  0  0
  -35.5475   61.6964   65.0645 C   0  0  0  0  0  0  0  0  0  0  0  0
  -34.8089   60.4411   65.5189 C   0  0  0  0  0  0  0  0  0  0  0  0
  -35.2831   62.8821   66.0042 C   0  0  0  0  0  0  0  0  0  0  0  0
  -34.4058   63.2446   63.9783 C   0  0  0  0  0  0  0  0  0  0  0  0
  -35.5022   65.6776   62.9003 O   0  0  0  0  0  0  0  0  0  0  0  0
  -33.7073   64.0502   62.9739 C   0  0  0  0  0  0  0  0  0  0  0  0
  -32.3996   63.7313   62.6058 C   0  0  0  0  0  0  0  0  0  0  0  0
  -31.6476   64.6145   61.8502 C   0  0  0  0  0  0  0  0  0  0  0  0
  -32.1809   65.8206   61.4511 C   0  0  0  0  0  0  0  0  0  0  0  0
  -33.4729   66.1627   61.8065 C   0  0  0  0  0  0  0  0  0  0  0  0
  -34.2436   65.2893   62.5674 C   0  0  0  0  0  0  0  0  0  0  0  0
  -36.0469   65.1124   63.4119 H   0  0  0  0  0  0  0  0  0  0  0  0
  -38.8812   58.4563   65.2466 O   0  0  0  0  0  0  0  0  0  0  0  0
  -39.1056   58.8573   64.1380 C   0  0  0  0  0  0  0  0  0  0  0  0
  -39.6518   58.1204   63.1553 O   0  0  0  0  0  0  0  0  0  0  0  0
  -38.7647   57.2751   62.3501 C   0  0  0  0  0  0  0  0  0  0  0  0
  -39.4595   55.9576   62.1162 C   0  0  0  0  0  0  0  0  0  0  0  0
  -37.4962   57.1216   63.1667 C   0  0  0  0  0  0  0  0  0  0  0  0
  -35.0871   57.0829   62.9754 N   0  0  0  0  0  0  0  0  0  0  0  0
  -36.2923   57.7219   61.1864 O   0  0  0  0  0  0  0  0  0  0  0  0
  -36.2406   57.3401   62.3521 C   0  0  0  0  0  0  0  0  0  0  0  0
  -35.1068   56.7791   63.9117 H   0  0  0  0  0  0  0  0  0  0  0  0
  -31.5181   57.6773   63.0297 N   0  0  0  0  0  0  0  0  0  0  0  0
  -33.2053   58.3584   64.3413 O   0  0  0  0  0  0  0  0  0  0  0  0
  -33.8048   57.2386   62.3112 C   0  0  0  0  0  0  0  0  0  0  0  0
  -33.9395   58.1995   61.1245 C   0  0  0  0  0  0  0  0  0  0  0  0
  -32.8048   58.0837   60.1126 C   0  0  0  0  0  0  0  0  0  0  0  0
  -31.4222   58.4052   60.6444 C   0  0  0  0  0  0  0  0  0  0  0  0
  -30.9316   57.4511   61.7131 C   0  0  0  0  0  0  0  0  0  0  0  0
  -32.8155   57.8074   63.3159 C   0  0  0  0  0  0  0  0  0  0  0  0
  -30.8914   57.7408   63.7863 H   0  0  0  0  0  0  0  0  0  0  0  0
  -39.1636   60.4139   62.1659 C   0  0  0  0  0  0  0  0  0  0  0  0
  -40.4677   61.1804   61.9734 C   0  0  0  0  0  0  0  0  0  0  0  0
  -41.5528   60.7675   62.9504 C   0  0  0  0  0  0  0  0  0  0  0  0
  -41.5271   61.5024   64.2727 C   0  0  0  0  0  0  0  0  0  0  0  0
  -42.0909   60.6849   65.3352 N   0  0  0  0  0  0  0  0  0  0  0  0
  -40.3391   60.9822   66.7270 O   0  0  0  0  0  0  0  0  0  0  0  0
  -41.4520   60.4829   66.4927 C   0  0  0  0  0  0  0  0  0  0  0  0
  -42.9714   60.2668   65.1980 H   0  0  0  0  0  0  0  0  0  0  0  0
  -42.8086   58.4759   67.0446 C   0  0  0  0  0  0  0  0  0  0  0  0
  -42.1440   59.5603   67.4202 C   0  0  0  0  0  0  0  0  0  0  0  0
  -42.9889   57.9460   65.6564 C   0  0  0  0  0  0  0  0  0  0  0  0
  -44.0320   56.8362   65.6073 C   0  0  0  0  0  0  0  0  0  0  0  0
  -45.4302   57.3232   65.2683 C   0  0  0  0  0  0  0  0  0  0  0  0
  -46.4013   57.2437   66.4344 C   0  0  0  0  0  0  0  0  0  0  0  0
  -47.0008   58.5765   66.8417 C   0  0  0  0  0  0  0  0  0  0  0  0
  -47.6430   59.3291   65.6881 C   0  0  0  0  0  0  0  0  0  0  0  0
  -49.1152   59.6225   65.9013 C   0  0  0  0  0  0  0  0  0  0  0  0
  -50.0236   58.7493   65.0593 C   0  0  0  0  0  0  0  0  0  0  0  0
  -49.9022   58.9779   63.5650 C   0  0  0  0  0  0  0  0  0  0  0  0
  -51.0213   58.3232   62.7796 C   0  0  0  0  0  0  0  0  0  0  0  0
  -50.6518   58.0398   61.3328 C   0  0  0  0  0  0  0  0  0  0  0  0
  -49.1599   57.8916   61.0900 C   0  0  0  0  0  0  0  0  0  0  0  0
  -48.6918   58.4156   59.7412 C   0  0  0  0  0  0  0  0  0  0  0  0
  -47.9877   57.3726   58.8843 C   0  0  0  0  0  0  0  0  0  0  0  0
  -47.0063   57.9703   57.8889 C   0  0  0  0  0  0  0  0  0  0  0  0
  -47.2151   55.6627   56.8850 C   0  0  0  0  0  0  0  0  0  0  0  0
  -46.5513   57.0122   56.8029 C   0  0  0  0  0  0  0  0  0  0  0  0
 43 45  1  0  0  0
 43 42  1  0  0  0
 43 46  1  0  0  0
 64 65  1  0  0  0
 44 45  2  0  0  0
 65 63  1  0  0  0
  2  1  1  0  0  0
  2  4  1  0  0  0
  2  5  1  0  0  0
  3  4  2  0  0  0
 63 62  1  0  0  0
  6  8  1  0  0  0
  6 11  2  0  0  0
  7 10  1  0  0  0
  7 11  1  0  0  0
 62 61  1  0  0  0
 26 28  1  0  0  0
 26 32  1  0  0  0
 26 29  1  0  0  0
 12 18  1  0  0  0
 12 19  1  0  0  0
 61 60  1  0  0  0
 30 36  1  0  0  0
 30 37  1  0  0  0
 30 38  1  0  0  0
 20 21  2  0  0  0
 60 59  1  0  0  0
 22 21  1  0  0  0
 22 23  1  0  0  0
 59 58  1  0  0  0
 27 28  2  0  0  0
 58 57  1  0  0  0
 31 37  2  0  0  0
 57 56  1  0  0  0
 56 55  1  0  0  0
 55 54  1  0  0  0
 54 53  1  0  0  0
 53 52  1  0  0  0
 52 51  1  0  0  0
 51 50  1  0  0  0
 50 49  1  0  0  0
 49 47  1  0  0  0
 47 48  2  0  0  0
 48 45  1  0  0  0
 42 41  1  0  0  0
 41 40  1  0  0  0
 40 39  1  0  0  0
 39  1  1  0  0  0
  1 21  1  0  0  0
  8  4  1  0  0  0
  8  9  1  0  0  0
  8 10  1  0  0  0
 11 13  1  0  0  0
 13 14  2  0  0  0
 13 18  1  0  0  0
 14 15  1  0  0  0
 15 16  2  0  0  0
 16 17  1  0  0  0
 17 18  2  0  0  0
 23 24  1  0  0  0
 23 25  1  0  0  0
 25 28  1  0  0  0
 32 33  1  0  0  0
 32 37  1  0  0  0
 33 34  1  0  0  0
 34 35  1  0  0  0
 35 36  1  0  0  0
M  END
> <minimizedAffinity>
-8.31533

> <CNNscore>
0.1799593270

> <CNNaffinity>
7.4719362259

> <CNN_VS>
1.3446446657

> <CNNaffinity_variance>
0.6295909286

$$$$
/media/chris/experiments/cd1a-new-docking/inputs/ligands/7ryo_ligand.pdb


 65 67  0  0  0  0  0  0  0  0999 V2000
  -34.6415   58.8883   63.1062 C   0  0  0  0  0  0  0  0  0  0  0  0
  -35.8884   58.7685   62.3692 N   0  0  0  0  0  0  0  0  0  0  0  0
  -36.3944   60.9483   62.5837 O   0  0  0  0  0  0  0  0  0  0  0  0
  -36.6703   59.8322   62.1695 C   0  0  0  0  0  0  0  0  0  0  0  0
  -36.1599   57.8919   62.0127 H   0  0  0  0  0  0  0  0  0  0  0  0
  -38.5653   58.3112   61.7607 N   0  0  0  0  0  0  0  0  0  0  0  0
  -40.2365   59.7947   62.0592 O   0  0  0  0  0  0  0  0  0  0  0  0
  -37.9836   59.6147   61.4001 C   0  0  0  0  0  0  0  0  0  0  0  0
  -37.6872   59.6298   59.9035 C   0  0  0  0  0  0  0  0  0  0  0  0
  -39.0812   60.6226   61.7717 C   0  0  0  0  0  0  0  0  0  0  0  0
  -39.7698   58.5195   62.1003 C   0  0  0  0  0  0  0  0  0  0  0  0
  -41.5225   57.1542   60.2706 O   0  0  0  0  0  0  0  0  0  0  0  0
  -40.7327   57.5050   62.5353 C   0  0  0  0  0  0  0  0  0  0  0  0
  -40.7310   57.0586   63.8574 C   0  0  0  0  0  0  0  0  0  0  0  0
  -41.4597   55.9394   64.2217 C   0  0  0  0  0  0  0  0  0  0  0  0
  -42.1971   55.2511   63.2831 C   0  0  0  0  0  0  0  0  0  0  0  0
  -42.2120   55.6700   61.9652 C   0  0  0  0  0  0  0  0  0  0  0  0
  -41.4843   56.7913   61.5792 C   0  0  0  0  0  0  0  0  0  0  0  0
  -41.0434   57.9045   59.9784 H   0  0  0  0  0  0  0  0  0  0  0  0
  -33.8740   56.8246   62.1098 O   0  0  0  0  0  0  0  0  0  0  0  0
  -33.6123   57.8814   62.6147 C   0  0  0  0  0  0  0  0  0  0  0  0
  -32.3662   58.3306   62.8436 O   0  0  0  0  0  0  0  0  0  0  0  0
  -31.7641   59.2328   61.8570 C   0  0  0  0  0  0  0  0  0  0  0  0
  -30.9301   58.4039   60.9131 C   0  0  0  0  0  0  0  0  0  0  0  0
  -30.9278   60.2123   62.6574 C   0  0  0  0  0  0  0  0  0  0  0  0
  -31.9576   62.2957   63.3213 N   0  0  0  0  0  0  0  0  0  0  0  0
  -30.9313   62.1989   61.3216 O   0  0  0  0  0  0  0  0  0  0  0  0
  -31.2733   61.6562   62.3685 C   0  0  0  0  0  0  0  0  0  0  0  0
  -32.2050   61.8093   64.1407 H   0  0  0  0  0  0  0  0  0  0  0  0
  -32.6699   65.5615   64.7072 N   0  0  0  0  0  0  0  0  0  0  0  0
  -32.8871   63.4771   65.5062 O   0  0  0  0  0  0  0  0  0  0  0  0
  -32.3470   63.6882   63.1828 C   0  0  0  0  0  0  0  0  0  0  0  0
  -33.5916   63.8013   62.2953 C   0  0  0  0  0  0  0  0  0  0  0  0
  -33.8100   65.1982   61.7242 C   0  0  0  0  0  0  0  0  0  0  0  0
  -34.0323   66.2934   62.7483 C   0  0  0  0  0  0  0  0  0  0  0  0
  -32.8424   66.5509   63.6489 C   0  0  0  0  0  0  0  0  0  0  0  0
  -32.6587   64.2341   64.5673 C   0  0  0  0  0  0  0  0  0  0  0  0
  -32.5491   65.9094   65.6203 H   0  0  0  0  0  0  0  0  0  0  0  0
  -34.8701   58.7451   64.6116 C   0  0  0  0  0  0  0  0  0  0  0  0
  -35.6087   57.4591   64.9668 C   0  0  0  0  0  0  0  0  0  0  0  0
  -37.0703   57.6844   65.3067 C   0  0  0  0  0  0  0  0  0  0  0  0
  -37.4495   59.1297   65.5444 C   0  0  0  0  0  0  0  0  0  0  0  0
  -38.8168   59.3871   65.1211 N   0  0  0  0  0  0  0  0  0  0  0  0
  -39.0350   61.2520   66.3734 O   0  0  0  0  0  0  0  0  0  0  0  0
  -39.5148   60.4362   65.5691 C   0  0  0  0  0  0  0  0  0  0  0  0
  -39.2424   58.7689   64.4840 H   0  0  0  0  0  0  0  0  0  0  0  0
  -41.9295   59.8585   65.6628 C   0  0  0  0  0  0  0  0  0  0  0  0
  -40.9139   60.4897   65.0894 C   0  0  0  0  0  0  0  0  0  0  0  0
  -41.9004   58.9976   66.8870 C   0  0  0  0  0  0  0  0  0  0  0  0
  -42.9626   57.9063   66.8344 C   0  0  0  0  0  0  0  0  0  0  0  0
  -44.2269   58.3158   66.0990 C   0  0  0  0  0  0  0  0  0  0  0  0
  -45.4654   57.5603   66.5513 C   0  0  0  0  0  0  0  0  0  0  0  0
  -46.6948   58.4292   66.7395 C   0  0  0  0  0  0  0  0  0  0  0  0
  -47.9878   57.7463   66.3255 C   0  0  0  0  0  0  0  0  0  0  0  0
  -48.5896   58.3096   65.0530 C   0  0  0  0  0  0  0  0  0  0  0  0
  -50.0957   58.4617   65.1241 C   0  0  0  0  0  0  0  0  0  0  0  0
  -50.7055   59.2062   63.9519 C   0  0  0  0  0  0  0  0  0  0  0  0
  -50.7360   58.3769   62.6834 C   0  0  0  0  0  0  0  0  0  0  0  0
  -49.9742   59.0137   61.5326 C   0  0  0  0  0  0  0  0  0  0  0  0
  -49.5160   58.0295   60.4705 C   0  0  0  0  0  0  0  0  0  0  0  0
  -48.0061   57.8800   60.3678 C   0  0  0  0  0  0  0  0  0  0  0  0
  -47.5483   57.0342   59.1876 C   0  0  0  0  0  0  0  0  0  0  0  0
  -46.8169   57.8316   58.1196 C   0  0  0  0  0  0  0  0  0  0  0  0
  -47.6148   55.9112   56.6871 C   0  0  0  0  0  0  0  0  0  0  0  0
  -46.8830   57.2270   56.7289 C   0  0  0  0  0  0  0  0  0  0  0  0
 43 45  1  0  0  0
 43 42  1  0  0  0
 43 46  1  0  0  0
 64 65  1  0  0  0
 44 45  2  0  0  0
 65 63  1  0  0  0
  2  1  1  0  0  0
  2  4  1  0  0  0
  2  5  1  0  0  0
  3  4  2  0  0  0
 63 62  1  0  0  0
  6  8  1  0  0  0
  6 11  2  0  0  0
  7 10  1  0  0  0
  7 11  1  0  0  0
 62 61  1  0  0  0
 26 28  1  0  0  0
 26 32  1  0  0  0
 26 29  1  0  0  0
 12 18  1  0  0  0
 12 19  1  0  0  0
 61 60  1  0  0  0
 30 36  1  0  0  0
 30 37  1  0  0  0
 30 38  1  0  0  0
 20 21  2  0  0  0
 60 59  1  0  0  0
 22 21  1  0  0  0
 22 23  1  0  0  0
 59 58  1  0  0  0
 27 28  2  0  0  0
 58 57  1  0  0  0
 31 37  2  0  0  0
 57 56  1  0  0  0
 56 55  1  0  0  0
 55 54  1  0  0  0
 54 53  1  0  0  0
 53 52  1  0  0  0
 52 51  1  0  0  0
 51 50  1  0  0  0
 50 49  1  0  0  0
 49 47  1  0  0  0
 47 48  2  0  0  0
 48 45  1  0  0  0
 42 41  1  0  0  0
 41 40  1  0  0  0
 40 39  1  0  0  0
 39  1  1  0  0  0
  1 21  1  0  0  0
  8  4  1  0  0  0
  8  9  1  0  0  0
  8 10  1  0  0  0
 11 13  1  0  0  0
 13 14  2  0  0  0
 13 18  1  0  0  0
 14 15  1  0  0  0
 15 16  2  0  0  0
 16 17  1  0  0  0
 17 18  2  0  0  0
 23 24  1  0  0  0
 23 25  1  0  0  0
 25 28  1  0  0  0
 32 33  1  0  0  0
 32 37  1  0  0  0
 33 34  1  0  0  0
 34 35  1  0  0  0
 35 36  1  0  0  0
M  END
> <minimizedAffinity>
-9.26112

> <CNNscore>
0.1764191240

> <CNNaffinity>
7.5944604874

> <CNN_VS>
1.3398081064

> <CNNaffinity_variance>
1.0843719244

$$$$
/media/chris/experiments/cd1a-new-docking/inputs/ligands/7ryo_ligand.pdb


 65 67  0  0  0  0  0  0  0  0999 V2000
  -38.1323   60.1203   64.7356 C   0  0  0  0  0  0  0  0  0  0  0  0
  -37.1010   61.0130   65.2373 N   0  0  0  0  0  0  0  0  0  0  0  0
  -36.1943   61.3438   63.2071 O   0  0  0  0  0  0  0  0  0  0  0  0
  -36.2047   61.5567   64.4104 C   0  0  0  0  0  0  0  0  0  0  0  0
  -37.0627   61.2193   66.1992 H   0  0  0  0  0  0  0  0  0  0  0  0
  -33.9631   62.5420   64.1344 N   0  0  0  0  0  0  0  0  0  0  0  0
  -34.5042   64.6903   64.5531 O   0  0  0  0  0  0  0  0  0  0  0  0
  -35.1328   62.4713   65.0257 C   0  0  0  0  0  0  0  0  0  0  0  0
  -34.7000   61.8904   66.3685 C   0  0  0  0  0  0  0  0  0  0  0  0
  -35.5831   63.9335   65.1583 C   0  0  0  0  0  0  0  0  0  0  0  0
  -33.7119   63.7707   63.9429 C   0  0  0  0  0  0  0  0  0  0  0  0
  -32.4114   62.2408   61.8809 O   0  0  0  0  0  0  0  0  0  0  0  0
  -32.6285   64.3130   63.1195 C   0  0  0  0  0  0  0  0  0  0  0  0
  -32.2828   65.6615   63.2161 C   0  0  0  0  0  0  0  0  0  0  0  0
  -31.4391   66.2387   62.2827 C   0  0  0  0  0  0  0  0  0  0  0  0
  -30.9290   65.4889   61.2453 C   0  0  0  0  0  0  0  0  0  0  0  0
  -31.2598   64.1516   61.1243 C   0  0  0  0  0  0  0  0  0  0  0  0
  -32.1079   63.5540   62.0513 C   0  0  0  0  0  0  0  0  0  0  0  0
  -32.9799   61.8088   62.4877 H   0  0  0  0  0  0  0  0  0  0  0  0
  -39.4314   60.4889   66.7398 O   0  0  0  0  0  0  0  0  0  0  0  0
  -39.3999   60.2185   65.5710 C   0  0  0  0  0  0  0  0  0  0  0  0
  -40.4811   59.9395   64.8224 O   0  0  0  0  0  0  0  0  0  0  0  0
  -40.6572   58.5635   64.3476 C   0  0  0  0  0  0  0  0  0  0  0  0
  -41.4158   58.6116   63.0455 C   0  0  0  0  0  0  0  0  0  0  0  0
  -41.4308   57.8514   65.4402 C   0  0  0  0  0  0  0  0  0  0  0  0
  -43.8473   57.8512   65.3873 N   0  0  0  0  0  0  0  0  0  0  0  0
  -42.7978   59.6025   66.3325 O   0  0  0  0  0  0  0  0  0  0  0  0
  -42.7507   58.5181   65.7586 C   0  0  0  0  0  0  0  0  0  0  0  0
  -43.7484   56.9850   64.9299 H   0  0  0  0  0  0  0  0  0  0  0  0
  -46.6714   58.4645   67.5649 N   0  0  0  0  0  0  0  0  0  0  0  0
  -45.1138   56.8523   67.4925 O   0  0  0  0  0  0  0  0  0  0  0  0
  -45.1813   58.3675   65.6394 C   0  0  0  0  0  0  0  0  0  0  0  0
  -46.1411   57.9083   64.5359 C   0  0  0  0  0  0  0  0  0  0  0  0
  -47.4166   58.7395   64.4505 C   0  0  0  0  0  0  0  0  0  0  0  0
  -48.2948   58.7140   65.6857 C   0  0  0  0  0  0  0  0  0  0  0  0
  -47.6543   59.3246   66.9147 C   0  0  0  0  0  0  0  0  0  0  0  0
  -45.6536   57.8286   66.9804 C   0  0  0  0  0  0  0  0  0  0  0  0
  -46.7691   58.3400   68.5366 H   0  0  0  0  0  0  0  0  0  0  0  0
  -37.6327   58.6763   64.6687 C   0  0  0  0  0  0  0  0  0  0  0  0
  -36.4913   58.4114   65.6445 C   0  0  0  0  0  0  0  0  0  0  0  0
  -35.2518   57.8477   64.9748 C   0  0  0  0  0  0  0  0  0  0  0  0
  -33.9980   58.6726   65.1669 C   0  0  0  0  0  0  0  0  0  0  0  0
  -33.3451   58.9341   63.8940 N   0  0  0  0  0  0  0  0  0  0  0  0
  -31.4501   57.8395   64.4461 O   0  0  0  0  0  0  0  0  0  0  0  0
  -32.1106   58.4958   63.6242 C   0  0  0  0  0  0  0  0  0  0  0  0
  -33.8275   59.4506   63.2087 H   0  0  0  0  0  0  0  0  0  0  0  0
  -32.0424   58.5035   61.1406 C   0  0  0  0  0  0  0  0  0  0  0  0
  -31.5825   58.9262   62.3104 C   0  0  0  0  0  0  0  0  0  0  0  0
  -33.1671   57.5484   60.8885 C   0  0  0  0  0  0  0  0  0  0  0  0
  -34.4831   58.2776   60.6469 C   0  0  0  0  0  0  0  0  0  0  0  0
  -35.6314   57.7704   61.5020 C   0  0  0  0  0  0  0  0  0  0  0  0
  -36.8186   58.7178   61.5500 C   0  0  0  0  0  0  0  0  0  0  0  0
  -37.9758   58.3170   60.6545 C   0  0  0  0  0  0  0  0  0  0  0  0
  -38.2579   59.3175   59.5459 C   0  0  0  0  0  0  0  0  0  0  0  0
  -39.6975   59.7919   59.5103 C   0  0  0  0  0  0  0  0  0  0  0  0
  -40.6968   58.6777   59.7489 C   0  0  0  0  0  0  0  0  0  0  0  0
  -41.3858   58.1758   58.4945 C   0  0  0  0  0  0  0  0  0  0  0  0
  -41.9413   59.2995   57.6421 C   0  0  0  0  0  0  0  0  0  0  0  0
  -43.1698   58.8948   56.8437 C   0  0  0  0  0  0  0  0  0  0  0  0
  -44.2482   58.2114   57.6664 C   0  0  0  0  0  0  0  0  0  0  0  0
  -45.6040   58.1387   56.9811 C   0  0  0  0  0  0  0  0  0  0  0  0
  -46.7848   58.2621   57.9341 C   0  0  0  0  0  0  0  0  0  0  0  0
  -47.6756   57.0304   57.9560 C   0  0  0  0  0  0  0  0  0  0  0  0
  -48.3544   58.0371   60.1701 C   0  0  0  0  0  0  0  0  0  0  0  0
  -48.5471   56.9074   59.1928 C   0  0  0  0  0  0  0  0  0  0  0  0
 43 45  1  0  0  0
 43 42  1  0  0  0
 43 46  1  0  0  0
 64 65  1  0  0  0
 44 45  2  0  0  0
 65 63  1  0  0  0
  2  1  1  0  0  0
  2  4  1  0  0  0
  2  5  1  0  0  0
  3  4  2  0  0  0
 63 62  1  0  0  0
  6  8  1  0  0  0
  6 11  2  0  0  0
  7 10  1  0  0  0
  7 11  1  0  0  0
 62 61  1  0  0  0
 26 28  1  0  0  0
 26 32  1  0  0  0
 26 29  1  0  0  0
 12 18  1  0  0  0
 12 19  1  0  0  0
 61 60  1  0  0  0
 30 36  1  0  0  0
 30 37  1  0  0  0
 30 38  1  0  0  0
 20 21  2  0  0  0
 60 59  1  0  0  0
 22 21  1  0  0  0
 22 23  1  0  0  0
 59 58  1  0  0  0
 27 28  2  0  0  0
 58 57  1  0  0  0
 31 37  2  0  0  0
 57 56  1  0  0  0
 56 55  1  0  0  0
 55 54  1  0  0  0
 54 53  1  0  0  0
 53 52  1  0  0  0
 52 51  1  0  0  0
 51 50  1  0  0  0
 50 49  1  0  0  0
 49 47  1  0  0  0
 47 48  2  0  0  0
 48 45  1  0  0  0
 42 41  1  0  0  0
 41 40  1  0  0  0
 40 39  1  0  0  0
 39  1  1  0  0  0
  1 21  1  0  0  0
  8  4  1  0  0  0
  8  9  1  0  0  0
  8 10  1  0  0  0
 11 13  1  0  0  0
 13 14  2  0  0  0
 13 18  1  0  0  0
 14 15  1  0  0  0
 15 16  2  0  0  0
 16 17  1  0  0  0
 17 18  2  0  0  0
 23 24  1  0  0  0
 23 25  1  0  0  0
 25 28  1  0  0  0
 32 33  1  0  0  0
 32 37  1  0  0  0
 33 34  1  0  0  0
 34 35  1  0  0  0
 35 36  1  0  0  0
M  END
> <minimizedAffinity>
-7.14761

> <CNNscore>
0.1567040533

> <CNNaffinity>
7.3421463966

> <CNN_VS>
1.1505440474

> <CNNaffinity_variance>
1.3629182577

$$$$
/media/chris/experiments/cd1a-new-docking/inputs/ligands/7ryo_ligand.pdb


 65 67  0  0  0  0  0  0  0  0999 V2000
  -43.2001   57.6800   64.7506 C   0  0  0  0  0  0  0  0  0  0  0  0
  -44.5938   57.8683   65.1174 N   0  0  0  0  0  0  0  0  0  0  0  0
  -44.2757   57.2077   67.2425 O   0  0  0  0  0  0  0  0  0  0  0  0
  -45.0162   57.6097   66.3574 C   0  0  0  0  0  0  0  0  0  0  0  0
  -45.2345   58.1905   64.4430 H   0  0  0  0  0  0  0  0  0  0  0  0
  -47.1262   58.6310   65.5982 N   0  0  0  0  0  0  0  0  0  0  0  0
  -48.4409   56.8066   65.7594 O   0  0  0  0  0  0  0  0  0  0  0  0
  -46.5107   57.8128   66.6561 C   0  0  0  0  0  0  0  0  0  0  0  0
  -46.6531   58.5375   67.9912 C   0  0  0  0  0  0  0  0  0  0  0  0
  -47.3199   56.5078   66.6295 C   0  0  0  0  0  0  0  0  0  0  0  0
  -48.1476   58.0022   65.1849 C   0  0  0  0  0  0  0  0  0  0  0  0
  -50.7056   59.1908   65.7571 O   0  0  0  0  0  0  0  0  0  0  0  0
  -49.0676   58.4439   64.1341 C   0  0  0  0  0  0  0  0  0  0  0  0
  -48.6634   58.4316   62.7985 C   0  0  0  0  0  0  0  0  0  0  0  0
  -49.4208   59.0674   61.8297 C   0  0  0  0  0  0  0  0  0  0  0  0
  -50.5846   59.7210   62.1716 C   0  0  0  0  0  0  0  0  0  0  0  0
  -51.0048   59.7520   63.4888 C   0  0  0  0  0  0  0  0  0  0  0  0
  -50.2561   59.1207   64.4771 C   0  0  0  0  0  0  0  0  0  0  0  0
  -50.2244   58.7763   66.4460 H   0  0  0  0  0  0  0  0  0  0  0  0
  -41.7804   59.2695   65.8901 O   0  0  0  0  0  0  0  0  0  0  0  0
  -42.4089   58.9692   64.9128 C   0  0  0  0  0  0  0  0  0  0  0  0
  -42.5282   59.7371   63.8159 O   0  0  0  0  0  0  0  0  0  0  0  0
  -41.4088   60.6151   63.4612 C   0  0  0  0  0  0  0  0  0  0  0  0
  -41.8242   61.4459   62.2735 C   0  0  0  0  0  0  0  0  0  0  0  0
  -40.2506   59.6900   63.1416 C   0  0  0  0  0  0  0  0  0  0  0  0
  -38.3661   60.1610   64.5799 N   0  0  0  0  0  0  0  0  0  0  0  0
  -38.3378   60.9685   62.4802 O   0  0  0  0  0  0  0  0  0  0  0  0
  -38.9012   60.3346   63.3680 C   0  0  0  0  0  0  0  0  0  0  0  0
  -38.8641   59.6428   65.2528 H   0  0  0  0  0  0  0  0  0  0  0  0
  -34.8034   59.8433   65.1278 N   0  0  0  0  0  0  0  0  0  0  0  0
  -36.5238   58.4248   65.3705 O   0  0  0  0  0  0  0  0  0  0  0  0
  -37.0706   60.7148   64.9330 C   0  0  0  0  0  0  0  0  0  0  0  0
  -37.1858   61.5493   66.2136 C   0  0  0  0  0  0  0  0  0  0  0  0
  -36.0284   62.5210   66.4160 C   0  0  0  0  0  0  0  0  0  0  0  0
  -34.6601   61.8842   66.5571 C   0  0  0  0  0  0  0  0  0  0  0  0
  -34.1865   61.1515   65.3194 C   0  0  0  0  0  0  0  0  0  0  0  0
  -36.1076   59.5609   65.1633 C   0  0  0  0  0  0  0  0  0  0  0  0
  -34.1940   59.0898   64.9541 H   0  0  0  0  0  0  0  0  0  0  0  0
  -43.0690   57.1339   63.3281 C   0  0  0  0  0  0  0  0  0  0  0  0
  -41.8247   56.2705   63.1503 C   0  0  0  0  0  0  0  0  0  0  0  0
  -41.4591   56.0423   61.6954 C   0  0  0  0  0  0  0  0  0  0  0  0
  -41.7628   57.2054   60.7765 C   0  0  0  0  0  0  0  0  0  0  0  0
  -40.6008   58.0663   60.6226 N   0  0  0  0  0  0  0  0  0  0  0  0
  -41.0907   58.6352   58.4941 O   0  0  0  0  0  0  0  0  0  0  0  0
  -40.3474   58.7229   59.4853 C   0  0  0  0  0  0  0  0  0  0  0  0
  -39.9806   58.1690   61.3801 H   0  0  0  0  0  0  0  0  0  0  0  0
  -37.9761   59.1068   60.1197 C   0  0  0  0  0  0  0  0  0  0  0  0
  -39.0794   59.4861   59.4894 C   0  0  0  0  0  0  0  0  0  0  0  0
  -37.7610   57.8622   60.9230 C   0  0  0  0  0  0  0  0  0  0  0  0
  -36.6336   58.0314   61.9343 C   0  0  0  0  0  0  0  0  0  0  0  0
  -35.2450   57.9228   61.3285 C   0  0  0  0  0  0  0  0  0  0  0  0
  -34.1866   57.4550   62.3136 C   0  0  0  0  0  0  0  0  0  0  0  0
  -33.0239   56.7156   61.6788 C   0  0  0  0  0  0  0  0  0  0  0  0
  -31.9821   57.6373   61.0666 C   0  0  0  0  0  0  0  0  0  0  0  0
  -31.4432   58.6707   62.0365 C   0  0  0  0  0  0  0  0  0  0  0  0
  -30.9835   59.9435   61.3544 C   0  0  0  0  0  0  0  0  0  0  0  0
  -31.4132   61.2187   62.0539 C   0  0  0  0  0  0  0  0  0  0  0  0
  -30.9481   62.4679   61.3320 C   0  0  0  0  0  0  0  0  0  0  0  0
  -31.0449   63.7232   62.1836 C   0  0  0  0  0  0  0  0  0  0  0  0
  -30.9278   63.4716   63.6768 C   0  0  0  0  0  0  0  0  0  0  0  0
  -32.1811   63.8135   64.4676 C   0  0  0  0  0  0  0  0  0  0  0  0
  -32.8742   65.0879   64.0055 C   0  0  0  0  0  0  0  0  0  0  0  0
  -34.3256   64.8761   63.6058 C   0  0  0  0  0  0  0  0  0  0  0  0
  -35.3973   65.1141   61.3317 C   0  0  0  0  0  0  0  0  0  0  0  0
  -34.8258   65.8240   62.5309 C   0  0  0  0  0  0  0  0  0  0  0  0
 43 45  1  0  0  0
 43 42  1  0  0  0
 43 46  1  0  0  0
 64 65  1  0  0  0
 44 45  2  0  0  0
 65 63  1  0  0  0
  2  1  1  0  0  0
  2  4  1  0  0  0
  2  5  1  0  0  0
  3  4  2  0  0  0
 63 62  1  0  0  0
  6  8  1  0  0  0
  6 11  2  0  0  0
  7 10  1  0  0  0
  7 11  1  0  0  0
 62 61  1  0  0  0
 26 28  1  0  0  0
 26 32  1  0  0  0
 26 29  1  0  0  0
 12 18  1  0  0  0
 12 19  1  0  0  0
 61 60  1  0  0  0
 30 36  1  0  0  0
 30 37  1  0  0  0
 30 38  1  0  0  0
 20 21  2  0  0  0
 60 59  1  0  0  0
 22 21  1  0  0  0
 22 23  1  0  0  0
 59 58  1  0  0  0
 27 28  2  0  0  0
 58 57  1  0  0  0
 31 37  2  0  0  0
 57 56  1  0  0  0
 56 55  1  0  0  0
 55 54  1  0  0  0
 54 53  1  0  0  0
 53 52  1  0  0  0
 52 51  1  0  0  0
 51 50  1  0  0  0
 50 49  1  0  0  0
 49 47  1  0  0  0
 47 48  2  0  0  0
 48 45  1  0  0  0
 42 41  1  0  0  0
 41 40  1  0  0  0
 40 39  1  0  0  0
 39  1  1  0  0  0
  1 21  1  0  0  0
  8  4  1  0  0  0
  8  9  1  0  0  0
  8 10  1  0  0  0
 11 13  1  0  0  0
 13 14  2  0  0  0
 13 18  1  0  0  0
 14 15  1  0  0  0
 15 16  2  0  0  0
 16 17  1  0  0  0
 17 18  2  0  0  0
 23 24  1  0  0  0
 23 25  1  0  0  0
 25 28  1  0  0  0
 32 33  1  0  0  0
 32 37  1  0  0  0
 33 34  1  0  0  0
 34 35  1  0  0  0
 35 36  1  0  0  0
M  END
> <minimizedAffinity>
-9.12191

> <CNNscore>
0.1494362503

> <CNNaffinity>
7.6163711548

> <CNN_VS>
1.1381618977

> <CNNaffinity_variance>
2.0106759071

$$$$
/media/chris/experiments/cd1a-new-docking/inputs/ligands/7ryo_ligand.pdb


 65 67  0  0  0  0  0  0  0  0999 V2000
  -35.7790   60.0840   65.4465 C   0  0  0  0  0  0  0  0  0  0  0  0
  -35.4281   61.4757   65.2182 N   0  0  0  0  0  0  0  0  0  0  0  0
  -34.1721   61.6161   67.0772 O   0  0  0  0  0  0  0  0  0  0  0  0
  -34.6390   62.1316   66.0725 C   0  0  0  0  0  0  0  0  0  0  0  0
  -35.7768   61.9408   64.4236 H   0  0  0  0  0  0  0  0  0  0  0  0
  -33.0789   63.7160   65.0105 N   0  0  0  0  0  0  0  0  0  0  0  0
  -34.5834   64.8913   63.8114 O   0  0  0  0  0  0  0  0  0  0  0  0
  -34.3357   63.6083   65.7696 C   0  0  0  0  0  0  0  0  0  0  0  0
  -34.1862   64.3618   67.0878 C   0  0  0  0  0  0  0  0  0  0  0  0
  -35.3766   64.2682   64.8533 C   0  0  0  0  0  0  0  0  0  0  0  0
  -33.3213   64.4185   63.9823 C   0  0  0  0  0  0  0  0  0  0  0  0
  -32.4447   62.5742   61.9541 O   0  0  0  0  0  0  0  0  0  0  0  0
  -32.3593   64.7866   62.9408 C   0  0  0  0  0  0  0  0  0  0  0  0
  -31.9377   66.1106   62.8127 C   0  0  0  0  0  0  0  0  0  0  0  0
  -31.2280   66.5167   61.6957 C   0  0  0  0  0  0  0  0  0  0  0  0
  -30.9281   65.6183   60.6950 C   0  0  0  0  0  0  0  0  0  0  0  0
  -31.3384   64.3014   60.7954 C   0  0  0  0  0  0  0  0  0  0  0  0
  -32.0545   63.8747   61.9093 C   0  0  0  0  0  0  0  0  0  0  0  0
  -32.9285   62.2554   62.6904 H   0  0  0  0  0  0  0  0  0  0  0  0
  -33.9583   58.5014   65.5912 O   0  0  0  0  0  0  0  0  0  0  0  0
  -34.7042   59.1500   64.9107 C   0  0  0  0  0  0  0  0  0  0  0  0
  -34.6914   59.1674   63.5666 O   0  0  0  0  0  0  0  0  0  0  0  0
  -33.4852   58.6945   62.8802 C   0  0  0  0  0  0  0  0  0  0  0  0
  -32.6165   59.8907   62.5838 C   0  0  0  0  0  0  0  0  0  0  0  0
  -33.9757   58.0108   61.6187 C   0  0  0  0  0  0  0  0  0  0  0  0
  -36.2842   58.4873   61.0840 N   0  0  0  0  0  0  0  0  0  0  0  0
  -35.8182   56.6144   62.2402 O   0  0  0  0  0  0  0  0  0  0  0  0
  -35.4408   57.6400   61.6806 C   0  0  0  0  0  0  0  0  0  0  0  0
  -35.9242   59.2947   60.6507 H   0  0  0  0  0  0  0  0  0  0  0  0
  -39.6569   59.4393   60.1825 N   0  0  0  0  0  0  0  0  0  0  0  0
  -37.8167   60.6160   60.6924 O   0  0  0  0  0  0  0  0  0  0  0  0
  -37.7171   58.2512   61.0564 C   0  0  0  0  0  0  0  0  0  0  0  0
  -38.2114   57.8470   62.4498 C   0  0  0  0  0  0  0  0  0  0  0  0
  -39.5687   57.1523   62.4391 C   0  0  0  0  0  0  0  0  0  0  0  0
  -40.7206   57.9810   61.9061 C   0  0  0  0  0  0  0  0  0  0  0  0
  -40.5933   58.3513   60.4432 C   0  0  0  0  0  0  0  0  0  0  0  0
  -38.4024   59.5391   60.6278 C   0  0  0  0  0  0  0  0  0  0  0  0
  -39.9846   60.1772   59.6192 H   0  0  0  0  0  0  0  0  0  0  0  0
  -37.1440   59.7491   64.8433 C   0  0  0  0  0  0  0  0  0  0  0  0
  -38.2961   60.3269   65.6582 C   0  0  0  0  0  0  0  0  0  0  0  0
  -39.6442   60.1726   64.9791 C   0  0  0  0  0  0  0  0  0  0  0  0
  -40.7571   59.6903   65.8836 C   0  0  0  0  0  0  0  0  0  0  0  0
  -41.6707   58.8152   65.1662 N   0  0  0  0  0  0  0  0  0  0  0  0
  -42.5506   57.9147   67.0394 O   0  0  0  0  0  0  0  0  0  0  0  0
  -42.5065   57.9856   65.8002 C   0  0  0  0  0  0  0  0  0  0  0  0
  -41.6740   58.8342   64.1820 H   0  0  0  0  0  0  0  0  0  0  0  0
  -44.6130   57.2187   64.7289 C   0  0  0  0  0  0  0  0  0  0  0  0
  -43.3024   57.1172   64.9043 C   0  0  0  0  0  0  0  0  0  0  0  0
  -45.5481   58.2056   65.3551 C   0  0  0  0  0  0  0  0  0  0  0  0
  -45.9473   57.7881   66.7653 C   0  0  0  0  0  0  0  0  0  0  0  0
  -47.3115   57.1253   66.8456 C   0  0  0  0  0  0  0  0  0  0  0  0
  -48.2125   57.4426   65.6637 C   0  0  0  0  0  0  0  0  0  0  0  0
  -49.6215   57.8568   66.0443 C   0  0  0  0  0  0  0  0  0  0  0  0
  -49.9292   59.3124   65.7343 C   0  0  0  0  0  0  0  0  0  0  0  0
  -48.8652   59.9903   64.8932 C   0  0  0  0  0  0  0  0  0  0  0  0
  -49.2578   60.1285   63.4360 C   0  0  0  0  0  0  0  0  0  0  0  0
  -50.7370   59.9317   63.1651 C   0  0  0  0  0  0  0  0  0  0  0  0
  -51.0538   58.5542   62.6174 C   0  0  0  0  0  0  0  0  0  0  0  0
  -49.8262   57.8124   62.1144 C   0  0  0  0  0  0  0  0  0  0  0  0
  -49.9414   57.3194   60.6825 C   0  0  0  0  0  0  0  0  0  0  0  0
  -49.0886   58.0899   59.6865 C   0  0  0  0  0  0  0  0  0  0  0  0
  -47.9436   57.2783   59.0964 C   0  0  0  0  0  0  0  0  0  0  0  0
  -47.1987   58.0021   57.9862 C   0  0  0  0  0  0  0  0  0  0  0  0
  -47.1390   55.7031   56.9433 C   0  0  0  0  0  0  0  0  0  0  0  0
  -47.0137   57.1871   56.7190 C   0  0  0  0  0  0  0  0  0  0  0  0
 43 45  1  0  0  0
 43 42  1  0  0  0
 43 46  1  0  0  0
 64 65  1  0  0  0
 44 45  2  0  0  0
 65 63  1  0  0  0
  2  1  1  0  0  0
  2  4  1  0  0  0
  2  5  1  0  0  0
  3  4  2  0  0  0
 63 62  1  0  0  0
  6  8  1  0  0  0
  6 11  2  0  0  0
  7 10  1  0  0  0
  7 11  1  0  0  0
 62 61  1  0  0  0
 26 28  1  0  0  0
 26 32  1  0  0  0
 26 29  1  0  0  0
 12 18  1  0  0  0
 12 19  1  0  0  0
 61 60  1  0  0  0
 30 36  1  0  0  0
 30 37  1  0  0  0
 30 38  1  0  0  0
 20 21  2  0  0  0
 60 59  1  0  0  0
 22 21  1  0  0  0
 22 23  1  0  0  0
 59 58  1  0  0  0
 27 28  2  0  0  0
 58 57  1  0  0  0
 31 37  2  0  0  0
 57 56  1  0  0  0
 56 55  1  0  0  0
 55 54  1  0  0  0
 54 53  1  0  0  0
 53 52  1  0  0  0
 52 51  1  0  0  0
 51 50  1  0  0  0
 50 49  1  0  0  0
 49 47  1  0  0  0
 47 48  2  0  0  0
 48 45  1  0  0  0
 42 41  1  0  0  0
 41 40  1  0  0  0
 40 39  1  0  0  0
 39  1  1  0  0  0
  1 21  1  0  0  0
  8  4  1  0  0  0
  8  9  1  0  0  0
  8 10  1  0  0  0
 11 13  1  0  0  0
 13 14  2  0  0  0
 13 18  1  0  0  0
 14 15  1  0  0  0
 15 16  2  0  0  0
 16 17  1  0  0  0
 17 18  2  0  0  0
 23 24  1  0  0  0
 23 25  1  0  0  0
 25 28  1  0  0  0
 32 33  1  0  0  0
 32 37  1  0  0  0
 33 34  1  0  0  0
 34 35  1  0  0  0
 35 36  1  0  0  0
M  END
> <minimizedAffinity>
-9.94245

> <CNNscore>
0.1475974321

> <CNNaffinity>
7.1566247940

> <CNN_VS>
1.0562994480

> <CNNaffinity_variance>
1.0879933834

$$$$
