/media/chris/experiments/cd1a-new-docking/inputs/ligands/7ryo_ligand.pdb


 65 67  0  0  0  0  0  0  0  0999 V2000
  -40.5982   58.5859   63.5722 C   0  0  0  0  0  0  0  0  0  0  0  0
  -39.4571   58.3233   62.7112 N   0  0  0  0  0  0  0  0  0  0  0  0
  -38.8967   60.4941   62.5459 O   0  0  0  0  0  0  0  0  0  0  0  0
  -38.6918   59.3224   62.2654 C   0  0  0  0  0  0  0  0  0  0  0  0
  -39.2458   57.3969   62.4536 H   0  0  0  0  0  0  0  0  0  0  0  0
  -36.2567   59.4588   61.9130 N   0  0  0  0  0  0  0  0  0  0  0  0
  -35.8744   57.2806   61.4746 O   0  0  0  0  0  0  0  0  0  0  0  0
  -37.5183   58.9607   61.3402 C   0  0  0  0  0  0  0  0  0  0  0  0
  -37.7406   59.6174   59.9812 C   0  0  0  0  0  0  0  0  0  0  0  0
  -37.2904   57.4475   61.2091 C   0  0  0  0  0  0  0  0  0  0  0  0
  -35.4476   58.4823   61.9430 C   0  0  0  0  0  0  0  0  0  0  0  0
  -34.7889   59.0699   64.6825 O   0  0  0  0  0  0  0  0  0  0  0  0
  -34.0683   58.5179   62.4349 C   0  0  0  0  0  0  0  0  0  0  0  0
  -33.0183   58.1209   61.6059 C   0  0  0  0  0  0  0  0  0  0  0  0
  -31.7517   57.9171   62.1259 C   0  0  0  0  0  0  0  0  0  0  0  0
  -31.5105   58.1040   63.4696 C   0  0  0  0  0  0  0  0  0  0  0  0
  -32.5349   58.4929   64.3134 C   0  0  0  0  0  0  0  0  0  0  0  0
  -33.8153   58.7006   63.8101 C   0  0  0  0  0  0  0  0  0  0  0  0
  -35.6617   59.2175   64.3753 H   0  0  0  0  0  0  0  0  0  0  0  0
  -39.8281   57.0160   65.2406 O   0  0  0  0  0  0  0  0  0  0  0  0
  -40.3585   58.0605   64.9797 C   0  0  0  0  0  0  0  0  0  0  0  0
  -40.8429   58.9201   65.8929 O   0  0  0  0  0  0  0  0  0  0  0  0
  -40.0414   60.1025   66.2232 C   0  0  0  0  0  0  0  0  0  0  0  0
  -40.6389   61.2874   65.5074 C   0  0  0  0  0  0  0  0  0  0  0  0
  -38.6366   59.7887   65.7463 C   0  0  0  0  0  0  0  0  0  0  0  0
  -36.8864   61.3480   65.1569 N   0  0  0  0  0  0  0  0  0  0  0  0
  -37.5161   61.2110   67.3125 O   0  0  0  0  0  0  0  0  0  0  0  0
  -37.6288   60.8431   66.1464 C   0  0  0  0  0  0  0  0  0  0  0  0
  -37.0206   61.0143   64.2404 H   0  0  0  0  0  0  0  0  0  0  0  0
  -34.4678   63.7750   63.9935 N   0  0  0  0  0  0  0  0  0  0  0  0
  -35.1912   61.8172   63.1722 O   0  0  0  0  0  0  0  0  0  0  0  0
  -35.8872   62.3750   65.3945 C   0  0  0  0  0  0  0  0  0  0  0  0
  -34.8915   61.9045   66.4608 C   0  0  0  0  0  0  0  0  0  0  0  0
  -34.0994   63.0396   67.1006 C   0  0  0  0  0  0  0  0  0  0  0  0
  -33.2217   63.8353   66.1550 C   0  0  0  0  0  0  0  0  0  0  0  0
  -33.9862   64.6010   65.0955 C   0  0  0  0  0  0  0  0  0  0  0  0
  -35.1507   62.6320   64.0894 C   0  0  0  0  0  0  0  0  0  0  0  0
  -34.2683   64.0941   63.0837 H   0  0  0  0  0  0  0  0  0  0  0  0
  -41.8839   58.0034   62.9833 C   0  0  0  0  0  0  0  0  0  0  0  0
  -41.6447   56.6818   62.2611 C   0  0  0  0  0  0  0  0  0  0  0  0
  -41.9507   56.7488   60.7764 C   0  0  0  0  0  0  0  0  0  0  0  0
  -41.2460   57.8634   60.0345 C   0  0  0  0  0  0  0  0  0  0  0  0
  -42.0930   58.4098   58.9862 N   0  0  0  0  0  0  0  0  0  0  0  0
  -40.5227   58.2115   57.3773 O   0  0  0  0  0  0  0  0  0  0  0  0
  -41.6672   58.5449   57.7256 C   0  0  0  0  0  0  0  0  0  0  0  0
  -43.0097   58.6891   59.2118 H   0  0  0  0  0  0  0  0  0  0  0  0
  -43.9347   58.9059   56.7761 C   0  0  0  0  0  0  0  0  0  0  0  0
  -42.6404   59.1920   56.8175 C   0  0  0  0  0  0  0  0  0  0  0  0
  -44.6826   57.9179   57.6157 C   0  0  0  0  0  0  0  0  0  0  0  0
  -46.1879   58.1449   57.5478 C   0  0  0  0  0  0  0  0  0  0  0  0
  -46.9144   57.1723   56.6349 C   0  0  0  0  0  0  0  0  0  0  0  0
  -47.6314   56.0587   57.3799 C   0  0  0  0  0  0  0  0  0  0  0  0
  -47.5503   56.1634   58.8912 C   0  0  0  0  0  0  0  0  0  0  0  0
  -48.8061   55.6830   59.5994 C   0  0  0  0  0  0  0  0  0  0  0  0
  -49.5050   56.7677   60.3954 C   0  0  0  0  0  0  0  0  0  0  0  0
  -48.7399   58.0757   60.4175 C   0  0  0  0  0  0  0  0  0  0  0  0
  -49.6150   59.3111   60.5068 C   0  0  0  0  0  0  0  0  0  0  0  0
  -49.7425   59.8372   61.9229 C   0  0  0  0  0  0  0  0  0  0  0  0
  -49.4803   58.7783   62.9813 C   0  0  0  0  0  0  0  0  0  0  0  0
  -50.4754   58.7869   64.1287 C   0  0  0  0  0  0  0  0  0  0  0  0
  -49.8509   58.5681   65.4981 C   0  0  0  0  0  0  0  0  0  0  0  0
  -48.6371   57.6490   65.4835 C   0  0  0  0  0  0  0  0  0  0  0  0
  -47.3501   58.3402   65.9043 C   0  0  0  0  0  0  0  0  0  0  0  0
  -45.1547   57.8917   64.7402 C   0  0  0  0  0  0  0  0  0  0  0  0
  -46.1119   57.4660   65.8224 C   0  0  0  0  0  0  0  0  0  0  0  0
 43 45  1  0  0  0
 43 42  1  0  0  0
 43 46  1  0  0  0
 64 65  1  0  0  0
 44 45  2  0  0  0
 65 63  1  0  0  0
  2  1  1  0  0  0
  2  4  1  0  0  0
  2  5  1  0  0  0
  3  4  2  0  0  0
 63 62  1  0  0  0
  6  8  1  0  0  0
  6 11  2  0  0  0
  7 10  1  0  0  0
  7 11  1  0  0  0
 62 61  1  0  0  0
 26 28  1  0  0  0
 26 32  1  0  0  0
 26 29  1  0  0  0
 12 18  1  0  0  0
 12 19  1  0  0  0
 61 60  1  0  0  0
 30 36  1  0  0  0
 30 37  1  0  0  0
 30 38  1  0  0  0
 20 21  2  0  0  0
 60 59  1  0  0  0
 22 21  1  0  0  0
 22 23  1  0  0  0
 59 58  1  0  0  0
 27 28  2  0  0  0
 58 57  1  0  0  0
 31 37  2  0  0  0
 57 56  1  0  0  0
 56 55  1  0  0  0
 55 54  1  0  0  0
 54 53  1  0  0  0
 53 52  1  0  0  0
 52 51  1  0  0  0
 51 50  1  0  0  0
 50 49  1  0  0  0
 49 47  1  0  0  0
 47 48  2  0  0  0
 48 45  1  0  0  0
 42 41  1  0  0  0
 41 40  1  0  0  0
 40 39  1  0  0  0
 39  1  1  0  0  0
  1 21  1  0  0  0
  8  4  1  0  0  0
  8  9  1  0  0  0
  8 10  1  0  0  0
 11 13  1  0  0  0
 13 14  2  0  0  0
 13 18  1  0  0  0
 14 15  1  0  0  0
 15 16  2  0  0  0
 16 17  1  0  0  0
 17 18  2  0  0  0
 23 24  1  0  0  0
 23 25  1  0  0  0
 25 28  1  0  0  0
 32 33  1  0  0  0
 32 37  1  0  0  0
 33 34  1  0  0  0
 34 35  1  0  0  0
 35 36  1  0  0  0
M  END
> <minimizedAffinity>
-7.77712

> <CNNscore>
0.4404970706

> <CNNaffinity>
7.8758668900

> <CNN_VS>
3.4692962170

> <CNNaffinity_variance>
0.9307336807

$$$$
/media/chris/experiments/cd1a-new-docking/inputs/ligands/7ryo_ligand.pdb


 65 67  0  0  0  0  0  0  0  0999 V2000
  -38.8990   58.3934   62.5572 C   0  0  0  0  0  0  0  0  0  0  0  0
  -37.5202   58.2499   62.9937 N   0  0  0  0  0  0  0  0  0  0  0  0
  -36.7445   57.8991   60.9131 O   0  0  0  0  0  0  0  0  0  0  0  0
  -36.5451   58.0104   62.1136 C   0  0  0  0  0  0  0  0  0  0  0  0
  -37.3024   58.3304   63.9504 H   0  0  0  0  0  0  0  0  0  0  0  0
  -34.2146   58.8024   61.9952 N   0  0  0  0  0  0  0  0  0  0  0  0
  -33.8734   59.1236   64.2006 O   0  0  0  0  0  0  0  0  0  0  0  0
  -35.1174   57.8488   62.6610 C   0  0  0  0  0  0  0  0  0  0  0  0
  -34.6375   56.4287   62.3766 C   0  0  0  0  0  0  0  0  0  0  0  0
  -34.9925   58.2026   64.1503 C   0  0  0  0  0  0  0  0  0  0  0  0
  -33.5994   59.4346   62.9068 C   0  0  0  0  0  0  0  0  0  0  0  0
  -31.5898   59.2905   60.8514 O   0  0  0  0  0  0  0  0  0  0  0  0
  -32.5973   60.4839   62.7051 C   0  0  0  0  0  0  0  0  0  0  0  0
  -32.6759   61.6758   63.4266 C   0  0  0  0  0  0  0  0  0  0  0  0
  -31.8918   62.7615   63.0765 C   0  0  0  0  0  0  0  0  0  0  0  0
  -31.0224   62.6796   62.0106 C   0  0  0  0  0  0  0  0  0  0  0  0
  -30.9287   61.5113   61.2765 C   0  0  0  0  0  0  0  0  0  0  0  0
  -31.7102   60.4100   61.6115 C   0  0  0  0  0  0  0  0  0  0  0  0
  -32.1020   58.5317   61.0507 H   0  0  0  0  0  0  0  0  0  0  0  0
  -39.5333   60.6133   63.2721 O   0  0  0  0  0  0  0  0  0  0  0  0
  -39.6380   59.4243   63.3973 C   0  0  0  0  0  0  0  0  0  0  0  0
  -40.4106   58.8183   64.3156 O   0  0  0  0  0  0  0  0  0  0  0  0
  -40.1867   59.1397   65.7284 C   0  0  0  0  0  0  0  0  0  0  0  0
  -40.5488   60.5879   65.9416 C   0  0  0  0  0  0  0  0  0  0  0  0
  -38.7158   58.8698   65.9797 C   0  0  0  0  0  0  0  0  0  0  0  0
  -37.1085   60.5691   65.3704 N   0  0  0  0  0  0  0  0  0  0  0  0
  -38.0721   60.6862   67.4001 O   0  0  0  0  0  0  0  0  0  0  0  0
  -37.9363   60.1208   66.3186 C   0  0  0  0  0  0  0  0  0  0  0  0
  -37.0406   60.0741   64.5221 H   0  0  0  0  0  0  0  0  0  0  0  0
  -35.5606   63.5947   64.1285 N   0  0  0  0  0  0  0  0  0  0  0  0
  -36.0515   61.6231   63.1785 O   0  0  0  0  0  0  0  0  0  0  0  0
  -36.3062   61.7656   65.5553 C   0  0  0  0  0  0  0  0  0  0  0  0
  -35.0160   61.4234   66.3090 C   0  0  0  0  0  0  0  0  0  0  0  0
  -34.3385   62.6342   66.9417 C   0  0  0  0  0  0  0  0  0  0  0  0
  -33.8820   63.7060   65.9720 C   0  0  0  0  0  0  0  0  0  0  0  0
  -35.0092   64.3858   65.2233 C   0  0  0  0  0  0  0  0  0  0  0  0
  -35.9609   62.3225   64.1832 C   0  0  0  0  0  0  0  0  0  0  0  0
  -35.6464   64.0466   63.2580 H   0  0  0  0  0  0  0  0  0  0  0  0
  -39.6296   57.0499   62.5740 C   0  0  0  0  0  0  0  0  0  0  0  0
  -40.4539   56.8218   61.3115 C   0  0  0  0  0  0  0  0  0  0  0  0
  -41.1833   58.0667   60.8416 C   0  0  0  0  0  0  0  0  0  0  0  0
  -40.5726   58.7392   59.6315 C   0  0  0  0  0  0  0  0  0  0  0  0
  -41.6025   59.1794   58.7038 N   0  0  0  0  0  0  0  0  0  0  0  0
  -40.7908   57.9856   56.9688 O   0  0  0  0  0  0  0  0  0  0  0  0
  -41.6370   58.7679   57.4317 C   0  0  0  0  0  0  0  0  0  0  0  0
  -42.2968   59.8002   59.0226 H   0  0  0  0  0  0  0  0  0  0  0  0
  -43.9883   59.0327   56.6732 C   0  0  0  0  0  0  0  0  0  0  0  0
  -42.7103   59.3830   56.6191 C   0  0  0  0  0  0  0  0  0  0  0  0
  -44.6173   57.9914   57.5452 C   0  0  0  0  0  0  0  0  0  0  0  0
  -46.1370   58.0038   57.4321 C   0  0  0  0  0  0  0  0  0  0  0  0
  -46.8349   57.1167   58.4485 C   0  0  0  0  0  0  0  0  0  0  0  0
  -47.8542   57.8540   59.3010 C   0  0  0  0  0  0  0  0  0  0  0  0
  -49.1668   57.1159   59.4855 C   0  0  0  0  0  0  0  0  0  0  0  0
  -50.1996   57.9054   60.2725 C   0  0  0  0  0  0  0  0  0  0  0  0
  -49.7412   58.2790   61.6687 C   0  0  0  0  0  0  0  0  0  0  0  0
  -50.8889   58.4765   62.6385 C   0  0  0  0  0  0  0  0  0  0  0  0
  -50.6769   59.5962   63.6392 C   0  0  0  0  0  0  0  0  0  0  0  0
  -49.3343   60.2810   63.4758 C   0  0  0  0  0  0  0  0  0  0  0  0
  -48.5337   60.3456   64.7662 C   0  0  0  0  0  0  0  0  0  0  0  0
  -48.6855   59.1224   65.6535 C   0  0  0  0  0  0  0  0  0  0  0  0
  -47.7615   57.9699   65.2914 C   0  0  0  0  0  0  0  0  0  0  0  0
  -46.4184   58.4099   64.7252 C   0  0  0  0  0  0  0  0  0  0  0  0
  -45.2280   57.8352   65.4760 C   0  0  0  0  0  0  0  0  0  0  0  0
  -43.4282   57.2296   63.8116 C   0  0  0  0  0  0  0  0  0  0  0  0
  -43.8781   58.1911   64.8801 C   0  0  0  0  0  0  0  0  0  0  0  0
 43 45  1  0  0  0
 43 42  1  0  0  0
 43 46  1  0  0  0
 64 65  1  0  0  0
 44 45  2  0  0  0
 65 63  1  0  0  0
  2  1  1  0  0  0
  2  4  1  0  0  0
  2  5  1  0  0  0
  3  4  2  0  0  0
 63 62  1  0  0  0
  6  8  1  0  0  0
  6 11  2  0  0  0
  7 10  1  0  0  0
  7 11  1  0  0  0
 62 61  1  0  0  0
 26 28  1  0  0  0
 26 32  1  0  0  0
 26 29  1  0  0  0
 12 18  1  0  0  0
 12 19  1  0  0  0
 61 60  1  0  0  0
 30 36  1  0  0  0
 30 37  1  0  0  0
 30 38  1  0  0  0
 20 21  2  0  0  0
 60 59  1  0  0  0
 22 21  1  0  0  0
 22 23  1  0  0  0
 59 58  1  0  0  0
 27 28  2  0  0  0
 58 57  1  0  0  0
 31 37  2  0  0  0
 57 56  1  0  0  0
 56 55  1  0  0  0
 55 54  1  0  0  0
 54 53  1  0  0  0
 53 52  1  0  0  0
 52 51  1  0  0  0
 51 50  1  0  0  0
 50 49  1  0  0  0
 49 47  1  0  0  0
 47 48  2  0  0  0
 48 45  1  0  0  0
 42 41  1  0  0  0
 41 40  1  0  0  0
 40 39  1  0  0  0
 39  1  1  0  0  0
  1 21  1  0  0  0
  8  4  1  0  0  0
  8  9  1  0  0  0
  8 10  1  0  0  0
 11 13  1  0  0  0
 13 14  2  0  0  0
 13 18  1  0  0  0
 14 15  1  0  0  0
 15 16  2  0  0  0
 16 17  1  0  0  0
 17 18  2  0  0  0
 23 24  1  0  0  0
 23 25  1  0  0  0
 25 28  1  0  0  0
 32 33  1  0  0  0
 32 37  1  0  0  0
 33 34  1  0  0  0
 34 35  1  0  0  0
 35 36  1  0  0  0
M  END
> <minimizedAffinity>
-7.49102

> <CNNscore>
0.3871204257

> <CNNaffinity>
7.7352418900

> <CNN_VS>
2.9944701195

> <CNNaffinity_variance>
0.7359858751

$$$$
/media/chris/experiments/cd1a-new-docking/inputs/ligands/7ryo_ligand.pdb


 65 67  0  0  0  0  0  0  0  0999 V2000
  -40.2319   58.8924   63.2031 C   0  0  0  0  0  0  0  0  0  0  0  0
  -39.0399   58.4214   62.5178 N   0  0  0  0  0  0  0  0  0  0  0  0
  -38.3184   60.4957   62.0381 O   0  0  0  0  0  0  0  0  0  0  0  0
  -38.1709   59.2837   61.9851 C   0  0  0  0  0  0  0  0  0  0  0  0
  -38.8712   57.4541   62.4456 H   0  0  0  0  0  0  0  0  0  0  0  0
  -35.7205   59.3591   61.7362 N   0  0  0  0  0  0  0  0  0  0  0  0
  -35.3108   57.1508   61.9327 O   0  0  0  0  0  0  0  0  0  0  0  0
  -36.9478   58.7021   61.2571 C   0  0  0  0  0  0  0  0  0  0  0  0
  -37.0966   58.9577   59.7603 C   0  0  0  0  0  0  0  0  0  0  0  0
  -36.7104   57.2149   61.5581 C   0  0  0  0  0  0  0  0  0  0  0  0
  -34.9124   58.4418   62.0750 C   0  0  0  0  0  0  0  0  0  0  0  0
  -34.2792   58.0937   64.8610 O   0  0  0  0  0  0  0  0  0  0  0  0
  -33.5622   58.6339   62.6095 C   0  0  0  0  0  0  0  0  0  0  0  0
  -32.4912   58.8578   61.7434 C   0  0  0  0  0  0  0  0  0  0  0  0
  -31.1884   58.7977   62.2076 C   0  0  0  0  0  0  0  0  0  0  0  0
  -30.9317   58.5161   63.5317 C   0  0  0  0  0  0  0  0  0  0  0  0
  -31.9751   58.2858   64.4097 C   0  0  0  0  0  0  0  0  0  0  0  0
  -33.2913   58.3396   63.9617 C   0  0  0  0  0  0  0  0  0  0  0  0
  -35.1760   58.1222   64.5912 H   0  0  0  0  0  0  0  0  0  0  0  0
  -40.0432   56.9467   64.6243 O   0  0  0  0  0  0  0  0  0  0  0  0
  -40.5966   57.9794   64.3641 C   0  0  0  0  0  0  0  0  0  0  0  0
  -41.6406   58.4797   65.0477 O   0  0  0  0  0  0  0  0  0  0  0  0
  -41.6209   58.3805   66.5103 C   0  0  0  0  0  0  0  0  0  0  0  0
  -42.8654   57.6491   66.9463 C   0  0  0  0  0  0  0  0  0  0  0  0
  -41.5852   59.8099   67.0153 C   0  0  0  0  0  0  0  0  0  0  0  0
  -39.2316   60.1793   66.6077 N   0  0  0  0  0  0  0  0  0  0  0  0
  -40.7100   61.6324   65.7332 O   0  0  0  0  0  0  0  0  0  0  0  0
  -40.4728   60.6264   66.3961 C   0  0  0  0  0  0  0  0  0  0  0  0
  -39.1018   59.3665   67.1478 H   0  0  0  0  0  0  0  0  0  0  0  0
  -36.3404   60.3086   64.4357 N   0  0  0  0  0  0  0  0  0  0  0  0
  -37.3811   58.6332   65.5038 O   0  0  0  0  0  0  0  0  0  0  0  0
  -38.0684   60.8579   66.0635 C   0  0  0  0  0  0  0  0  0  0  0  0
  -37.2349   61.4658   67.1973 C   0  0  0  0  0  0  0  0  0  0  0  0
  -36.2743   62.5553   66.7332 C   0  0  0  0  0  0  0  0  0  0  0  0
  -35.2151   62.1118   65.7438 C   0  0  0  0  0  0  0  0  0  0  0  0
  -35.7661   61.6496   64.4111 C   0  0  0  0  0  0  0  0  0  0  0  0
  -37.2322   59.8361   65.3094 C   0  0  0  0  0  0  0  0  0  0  0  0
  -36.0386   59.6870   63.7344 H   0  0  0  0  0  0  0  0  0  0  0  0
  -41.4068   59.0410   62.2352 C   0  0  0  0  0  0  0  0  0  0  0  0
  -41.8068   57.7138   61.6000 C   0  0  0  0  0  0  0  0  0  0  0  0
  -41.1245   57.4592   60.2687 C   0  0  0  0  0  0  0  0  0  0  0  0
  -40.7346   58.7079   59.5084 C   0  0  0  0  0  0  0  0  0  0  0  0
  -41.7876   59.1094   58.5891 N   0  0  0  0  0  0  0  0  0  0  0  0
  -40.8896   58.0327   56.8203 O   0  0  0  0  0  0  0  0  0  0  0  0
  -41.7886   58.7402   57.3036 C   0  0  0  0  0  0  0  0  0  0  0  0
  -42.5235   59.6709   58.9240 H   0  0  0  0  0  0  0  0  0  0  0  0
  -44.1656   58.9356   56.6069 C   0  0  0  0  0  0  0  0  0  0  0  0
  -42.8972   59.3092   56.5050 C   0  0  0  0  0  0  0  0  0  0  0  0
  -44.7479   57.9090   57.5275 C   0  0  0  0  0  0  0  0  0  0  0  0
  -46.2712   57.9472   57.5240 C   0  0  0  0  0  0  0  0  0  0  0  0
  -46.9186   56.6404   57.9485 C   0  0  0  0  0  0  0  0  0  0  0  0
  -48.2729   56.8204   58.6137 C   0  0  0  0  0  0  0  0  0  0  0  0
  -48.2312   57.5906   59.9201 C   0  0  0  0  0  0  0  0  0  0  0  0
  -48.8891   58.9581   59.8378 C   0  0  0  0  0  0  0  0  0  0  0  0
  -49.6387   59.3462   61.0973 C   0  0  0  0  0  0  0  0  0  0  0  0
  -50.5586   58.2530   61.6026 C   0  0  0  0  0  0  0  0  0  0  0  0
  -51.0520   58.4569   63.0221 C   0  0  0  0  0  0  0  0  0  0  0  0
  -51.0501   59.9144   63.4390 C   0  0  0  0  0  0  0  0  0  0  0  0
  -50.7180   60.1169   64.9084 C   0  0  0  0  0  0  0  0  0  0  0  0
  -49.3489   60.7251   65.1579 C   0  0  0  0  0  0  0  0  0  0  0  0
  -48.2406   60.1437   64.2936 C   0  0  0  0  0  0  0  0  0  0  0  0
  -47.8293   58.7309   64.6850 C   0  0  0  0  0  0  0  0  0  0  0  0
  -46.8317   58.6870   65.8312 C   0  0  0  0  0  0  0  0  0  0  0  0
  -47.8448   56.3924   66.1221 C   0  0  0  0  0  0  0  0  0  0  0  0
  -46.7875   57.3648   66.5753 C   0  0  0  0  0  0  0  0  0  0  0  0
 43 45  1  0  0  0
 43 42  1  0  0  0
 43 46  1  0  0  0
 64 65  1  0  0  0
 44 45  2  0  0  0
 65 63  1  0  0  0
  2  1  1  0  0  0
  2  4  1  0  0  0
  2  5  1  0  0  0
  3  4  2  0  0  0
 63 62  1  0  0  0
  6  8  1  0  0  0
  6 11  2  0  0  0
  7 10  1  0  0  0
  7 11  1  0  0  0
 62 61  1  0  0  0
 26 28  1  0  0  0
 26 32  1  0  0  0
 26 29  1  0  0  0
 12 18  1  0  0  0
 12 19  1  0  0  0
 61 60  1  0  0  0
 30 36  1  0  0  0
 30 37  1  0  0  0
 30 38  1  0  0  0
 20 21  2  0  0  0
 60 59  1  0  0  0
 22 21  1  0  0  0
 22 23  1  0  0  0
 59 58  1  0  0  0
 27 28  2  0  0  0
 58 57  1  0  0  0
 31 37  2  0  0  0
 57 56  1  0  0  0
 56 55  1  0  0  0
 55 54  1  0  0  0
 54 53  1  0  0  0
 53 52  1  0  0  0
 52 51  1  0  0  0
 51 50  1  0  0  0
 50 49  1  0  0  0
 49 47  1  0  0  0
 47 48  2  0  0  0
 48 45  1  0  0  0
 42 41  1  0  0  0
 41 40  1  0  0  0
 40 39  1  0  0  0
 39  1  1  0  0  0
  1 21  1  0  0  0
  8  4  1  0  0  0
  8  9  1  0  0  0
  8 10  1  0  0  0
 11 13  1  0  0  0
 13 14  2  0  0  0
 13 18  1  0  0  0
 14 15  1  0  0  0
 15 16  2  0  0  0
 16 17  1  0  0  0
 17 18  2  0  0  0
 23 24  1  0  0  0
 23 25  1  0  0  0
 25 28  1  0  0  0
 32 33  1  0  0  0
 32 37  1  0  0  0
 33 34  1  0  0  0
 34 35  1  0  0  0
 35 36  1  0  0  0
M  END
> <minimizedAffinity>
-7.26735

> <CNNscore>
0.3311528862

> <CNNaffinity>
7.9628243446

> <CNN_VS>
2.6369123459

> <CNNaffinity_variance>
1.2816131115

$$$$
/media/chris/experiments/cd1a-new-docking/inputs/ligands/7ryo_ligand.pdb


 65 67  0  0  0  0  0  0  0  0999 V2000
  -39.2300   59.9832   64.6071 C   0  0  0  0  0  0  0  0  0  0  0  0
  -38.3409   59.3309   63.6604 N   0  0  0  0  0  0  0  0  0  0  0  0
  -38.9040   60.6973   61.9664 O   0  0  0  0  0  0  0  0  0  0  0  0
  -38.2555   59.7554   62.3974 C   0  0  0  0  0  0  0  0  0  0  0  0
  -37.7947   58.5663   63.9541 H   0  0  0  0  0  0  0  0  0  0  0  0
  -35.9135   59.3757   61.7318 N   0  0  0  0  0  0  0  0  0  0  0  0
  -35.9237   57.1221   61.7965 O   0  0  0  0  0  0  0  0  0  0  0  0
  -37.3084   58.9952   61.4544 C   0  0  0  0  0  0  0  0  0  0  0  0
  -37.6468   59.3634   60.0129 C   0  0  0  0  0  0  0  0  0  0  0  0
  -37.3248   57.4748   61.6707 C   0  0  0  0  0  0  0  0  0  0  0  0
  -35.2592   58.3023   61.9020 C   0  0  0  0  0  0  0  0  0  0  0  0
  -33.8973   60.1532   63.6350 O   0  0  0  0  0  0  0  0  0  0  0  0
  -33.8287   58.2005   62.2005 C   0  0  0  0  0  0  0  0  0  0  0  0
  -33.0973   57.0977   61.7576 C   0  0  0  0  0  0  0  0  0  0  0  0
  -31.8179   56.8667   62.2331 C   0  0  0  0  0  0  0  0  0  0  0  0
  -31.2491   57.7234   63.1503 C   0  0  0  0  0  0  0  0  0  0  0  0
  -31.9545   58.8211   63.6087 C   0  0  0  0  0  0  0  0  0  0  0  0
  -33.2425   59.0688   63.1443 C   0  0  0  0  0  0  0  0  0  0  0  0
  -34.7659   60.3478   63.3426 H   0  0  0  0  0  0  0  0  0  0  0  0
  -38.4230   59.5936   66.8517 O   0  0  0  0  0  0  0  0  0  0  0  0
  -38.5044   60.3213   65.9008 C   0  0  0  0  0  0  0  0  0  0  0  0
  -37.9836   61.5593   65.8399 O   0  0  0  0  0  0  0  0  0  0  0  0
  -36.5493   61.6934   65.5670 C   0  0  0  0  0  0  0  0  0  0  0  0
  -35.9044   60.3475   65.7821 C   0  0  0  0  0  0  0  0  0  0  0  0
  -36.0446   62.7377   66.5440 C   0  0  0  0  0  0  0  0  0  0  0  0
  -34.4862   63.3243   64.7920 N   0  0  0  0  0  0  0  0  0  0  0  0
  -34.0030   63.9353   66.9027 O   0  0  0  0  0  0  0  0  0  0  0  0
  -34.7512   63.3840   66.1002 C   0  0  0  0  0  0  0  0  0  0  0  0
  -35.1233   62.8687   64.1955 H   0  0  0  0  0  0  0  0  0  0  0  0
  -32.6845   66.0863   63.3027 N   0  0  0  0  0  0  0  0  0  0  0  0
  -34.8373   65.4584   63.2573 O   0  0  0  0  0  0  0  0  0  0  0  0
  -33.2854   63.9123   64.2247 C   0  0  0  0  0  0  0  0  0  0  0  0
  -32.6734   62.9634   63.1880 C   0  0  0  0  0  0  0  0  0  0  0  0
  -31.2113   63.2620   62.8743 C   0  0  0  0  0  0  0  0  0  0  0  0
  -30.9392   64.6277   62.2755 C   0  0  0  0  0  0  0  0  0  0  0  0
  -31.2609   65.7846   63.1982 C   0  0  0  0  0  0  0  0  0  0  0  0
  -33.6696   65.2207   63.5519 C   0  0  0  0  0  0  0  0  0  0  0  0
  -32.9460   67.0270   63.1761 H   0  0  0  0  0  0  0  0  0  0  0  0
  -40.4696   59.1309   64.8828 C   0  0  0  0  0  0  0  0  0  0  0  0
  -41.5517   59.3214   63.8254 C   0  0  0  0  0  0  0  0  0  0  0  0
  -42.9552   59.1109   64.3626 C   0  0  0  0  0  0  0  0  0  0  0  0
  -43.1322   57.8625   65.1990 C   0  0  0  0  0  0  0  0  0  0  0  0
  -44.5131   57.4071   65.1713 N   0  0  0  0  0  0  0  0  0  0  0  0
  -45.0682   58.4279   67.1061 O   0  0  0  0  0  0  0  0  0  0  0  0
  -45.3864   57.7250   66.1330 C   0  0  0  0  0  0  0  0  0  0  0  0
  -44.8148   56.8468   64.4202 H   0  0  0  0  0  0  0  0  0  0  0  0
  -47.8708   57.7396   66.1669 C   0  0  0  0  0  0  0  0  0  0  0  0
  -46.7216   57.1061   65.9754 C   0  0  0  0  0  0  0  0  0  0  0  0
  -48.0753   59.1715   66.5519 C   0  0  0  0  0  0  0  0  0  0  0  0
  -49.0715   59.8665   65.6317 C   0  0  0  0  0  0  0  0  0  0  0  0
  -48.4543   60.3996   64.3503 C   0  0  0  0  0  0  0  0  0  0  0  0
  -49.1812   59.9523   63.0930 C   0  0  0  0  0  0  0  0  0  0  0  0
  -48.8457   58.5425   62.6441 C   0  0  0  0  0  0  0  0  0  0  0  0
  -49.4911   58.1583   61.3230 C   0  0  0  0  0  0  0  0  0  0  0  0
  -48.4987   57.6843   60.2794 C   0  0  0  0  0  0  0  0  0  0  0  0
  -49.0533   57.7251   58.8695 C   0  0  0  0  0  0  0  0  0  0  0  0
  -48.0845   57.2537   57.8021 C   0  0  0  0  0  0  0  0  0  0  0  0
  -46.6367   57.3534   58.2403 C   0  0  0  0  0  0  0  0  0  0  0  0
  -45.8853   58.4927   57.5713 C   0  0  0  0  0  0  0  0  0  0  0  0
  -44.5543   58.0865   56.9628 C   0  0  0  0  0  0  0  0  0  0  0  0
  -43.5962   59.2440   56.7276 C   0  0  0  0  0  0  0  0  0  0  0  0
  -42.1625   58.9544   57.1504 C   0  0  0  0  0  0  0  0  0  0  0  0
  -42.0611   58.1865   58.4585 C   0  0  0  0  0  0  0  0  0  0  0  0
  -40.8634   57.8692   60.6589 C   0  0  0  0  0  0  0  0  0  0  0  0
  -40.9135   58.6186   59.3533 C   0  0  0  0  0  0  0  0  0  0  0  0
 43 45  1  0  0  0
 43 42  1  0  0  0
 43 46  1  0  0  0
 64 65  1  0  0  0
 44 45  2  0  0  0
 65 63  1  0  0  0
  2  1  1  0  0  0
  2  4  1  0  0  0
  2  5  1  0  0  0
  3  4  2  0  0  0
 63 62  1  0  0  0
  6  8  1  0  0  0
  6 11  2  0  0  0
  7 10  1  0  0  0
  7 11  1  0  0  0
 62 61  1  0  0  0
 26 28  1  0  0  0
 26 32  1  0  0  0
 26 29  1  0  0  0
 12 18  1  0  0  0
 12 19  1  0  0  0
 61 60  1  0  0  0
 30 36  1  0  0  0
 30 37  1  0  0  0
 30 38  1  0  0  0
 20 21  2  0  0  0
 60 59  1  0  0  0
 22 21  1  0  0  0
 22 23  1  0  0  0
 59 58  1  0  0  0
 27 28  2  0  0  0
 58 57  1  0  0  0
 31 37  2  0  0  0
 57 56  1  0  0  0
 56 55  1  0  0  0
 55 54  1  0  0  0
 54 53  1  0  0  0
 53 52  1  0  0  0
 52 51  1  0  0  0
 51 50  1  0  0  0
 50 49  1  0  0  0
 49 47  1  0  0  0
 47 48  2  0  0  0
 48 45  1  0  0  0
 42 41  1  0  0  0
 41 40  1  0  0  0
 40 39  1  0  0  0
 39  1  1  0  0  0
  1 21  1  0  0  0
  8  4  1  0  0  0
  8  9  1  0  0  0
  8 10  1  0  0  0
 11 13  1  0  0  0
 13 14  2  0  0  0
 13 18  1  0  0  0
 14 15  1  0  0  0
 15 16  2  0  0  0
 16 17  1  0  0  0
 17 18  2  0  0  0
 23 24  1  0  0  0
 23 25  1  0  0  0
 25 28  1  0  0  0
 32 33  1  0  0  0
 32 37  1  0  0  0
 33 34  1  0  0  0
 34 35  1  0  0  0
 35 36  1  0  0  0
M  END
> <minimizedAffinity>
-8.09191

> <CNNscore>
0.3150200546

> <CNNaffinity>
7.5094070435

> <CNN_VS>
2.3656136990

> <CNNaffinity_variance>
1.0700374842

$$$$
/media/chris/experiments/cd1a-new-docking/inputs/ligands/7ryo_ligand.pdb


 65 67  0  0  0  0  0  0  0  0999 V2000
  -35.3737   58.9331   62.6479 C   0  0  0  0  0  0  0  0  0  0  0  0
  -34.2113   59.7672   62.3922 N   0  0  0  0  0  0  0  0  0  0  0  0
  -32.8026   58.0197   62.2677 O   0  0  0  0  0  0  0  0  0  0  0  0
  -33.0036   59.2242   62.2212 C   0  0  0  0  0  0  0  0  0  0  0  0
  -34.3158   60.7450   62.3443 H   0  0  0  0  0  0  0  0  0  0  0  0
  -32.3233   61.4972   61.5556 N   0  0  0  0  0  0  0  0  0  0  0  0
  -30.9288   61.9298   63.2736 O   0  0  0  0  0  0  0  0  0  0  0  0
  -31.8229   60.1787   61.9785 C   0  0  0  0  0  0  0  0  0  0  0  0
  -30.9423   59.6035   60.8733 C   0  0  0  0  0  0  0  0  0  0  0  0
  -31.0143   60.4823   63.2484 C   0  0  0  0  0  0  0  0  0  0  0  0
  -31.7867   62.3620   62.3130 C   0  0  0  0  0  0  0  0  0  0  0  0
  -34.3806   63.5438   61.9147 O   0  0  0  0  0  0  0  0  0  0  0  0
  -31.9954   63.8107   62.2538 C   0  0  0  0  0  0  0  0  0  0  0  0
  -30.9428   64.6823   62.5360 C   0  0  0  0  0  0  0  0  0  0  0  0
  -31.1806   66.0332   62.7227 C   0  0  0  0  0  0  0  0  0  0  0  0
  -32.4604   66.5355   62.6320 C   0  0  0  0  0  0  0  0  0  0  0  0
  -33.5218   65.6922   62.3579 C   0  0  0  0  0  0  0  0  0  0  0  0
  -33.3032   64.3311   62.1693 C   0  0  0  0  0  0  0  0  0  0  0  0
  -34.2673   62.6231   61.7829 H   0  0  0  0  0  0  0  0  0  0  0  0
  -34.9121   56.8728   63.8240 O   0  0  0  0  0  0  0  0  0  0  0  0
  -35.1584   58.0468   63.8654 C   0  0  0  0  0  0  0  0  0  0  0  0
  -35.3031   58.7571   64.9976 O   0  0  0  0  0  0  0  0  0  0  0  0
  -36.6424   59.2445   65.3418 C   0  0  0  0  0  0  0  0  0  0  0  0
  -37.6262   58.1318   65.0815 C   0  0  0  0  0  0  0  0  0  0  0  0
  -36.8809   60.4461   64.4480 C   0  0  0  0  0  0  0  0  0  0  0  0
  -35.4250   61.5895   66.0021 N   0  0  0  0  0  0  0  0  0  0  0  0
  -35.8197   62.5457   64.0042 O   0  0  0  0  0  0  0  0  0  0  0  0
  -35.9982   61.6240   64.7957 C   0  0  0  0  0  0  0  0  0  0  0  0
  -35.6047   60.8243   66.5950 H   0  0  0  0  0  0  0  0  0  0  0  0
  -34.7750   64.5880   67.9203 N   0  0  0  0  0  0  0  0  0  0  0  0
  -36.6044   63.7897   66.8972 O   0  0  0  0  0  0  0  0  0  0  0  0
  -34.5444   62.6482   66.4639 C   0  0  0  0  0  0  0  0  0  0  0  0
  -33.7751   63.2468   65.2808 C   0  0  0  0  0  0  0  0  0  0  0  0
  -32.5285   64.0228   65.6922 C   0  0  0  0  0  0  0  0  0  0  0  0
  -32.7747   65.2312   66.5735 C   0  0  0  0  0  0  0  0  0  0  0  0
  -33.3497   64.8993   67.9346 C   0  0  0  0  0  0  0  0  0  0  0  0
  -35.3977   63.7263   67.1131 C   0  0  0  0  0  0  0  0  0  0  0  0
  -35.3364   65.0634   68.5746 H   0  0  0  0  0  0  0  0  0  0  0  0
  -35.7377   58.0963   61.4205 C   0  0  0  0  0  0  0  0  0  0  0  0
  -37.2245   58.1680   61.0894 C   0  0  0  0  0  0  0  0  0  0  0  0
  -37.5972   59.3957   60.2791 C   0  0  0  0  0  0  0  0  0  0  0  0
  -39.0269   59.8592   60.4537 C   0  0  0  0  0  0  0  0  0  0  0  0
  -39.8928   58.7518   60.8262 N   0  0  0  0  0  0  0  0  0  0  0  0
  -40.8657   58.6052   58.7949 O   0  0  0  0  0  0  0  0  0  0  0  0
  -40.7548   58.2016   59.9642 C   0  0  0  0  0  0  0  0  0  0  0  0
  -39.8427   58.3954   61.7425 H   0  0  0  0  0  0  0  0  0  0  0  0
  -41.6131   56.7986   61.8266 C   0  0  0  0  0  0  0  0  0  0  0  0
  -41.6067   57.1398   60.5451 C   0  0  0  0  0  0  0  0  0  0  0  0
  -40.8083   57.3957   62.9384 C   0  0  0  0  0  0  0  0  0  0  0  0
  -41.5045   57.2412   64.2850 C   0  0  0  0  0  0  0  0  0  0  0  0
  -42.9646   56.8365   64.1777 C   0  0  0  0  0  0  0  0  0  0  0  0
  -43.9328   57.9550   64.5254 C   0  0  0  0  0  0  0  0  0  0  0  0
  -45.1930   57.4943   65.2335 C   0  0  0  0  0  0  0  0  0  0  0  0
  -46.3779   58.4228   65.0256 C   0  0  0  0  0  0  0  0  0  0  0  0
  -47.7021   57.8196   65.4518 C   0  0  0  0  0  0  0  0  0  0  0  0
  -48.8720   58.3049   64.6196 C   0  0  0  0  0  0  0  0  0  0  0  0
  -48.6538   59.6528   63.9594 C   0  0  0  0  0  0  0  0  0  0  0  0
  -49.7873   60.0398   63.0301 C   0  0  0  0  0  0  0  0  0  0  0  0
  -50.8661   58.9743   62.9247 C   0  0  0  0  0  0  0  0  0  0  0  0
  -50.6648   57.9975   61.7792 C   0  0  0  0  0  0  0  0  0  0  0  0
  -49.7058   58.4852   60.7043 C   0  0  0  0  0  0  0  0  0  0  0  0
  -49.6908   57.6199   59.4515 C   0  0  0  0  0  0  0  0  0  0  0  0
  -48.3088   57.0974   59.0938 C   0  0  0  0  0  0  0  0  0  0  0  0
  -46.5729   58.4031   57.8061 C   0  0  0  0  0  0  0  0  0  0  0  0
  -47.8037   57.5380   57.7319 C   0  0  0  0  0  0  0  0  0  0  0  0
 43 45  1  0  0  0
 43 42  1  0  0  0
 43 46  1  0  0  0
 64 65  1  0  0  0
 44 45  2  0  0  0
 65 63  1  0  0  0
  2  1  1  0  0  0
  2  4  1  0  0  0
  2  5  1  0  0  0
  3  4  2  0  0  0
 63 62  1  0  0  0
  6  8  1  0  0  0
  6 11  2  0  0  0
  7 10  1  0  0  0
  7 11  1  0  0  0
 62 61  1  0  0  0
 26 28  1  0  0  0
 26 32  1  0  0  0
 26 29  1  0  0  0
 12 18  1  0  0  0
 12 19  1  0  0  0
 61 60  1  0  0  0
 30 36  1  0  0  0
 30 37  1  0  0  0
 30 38  1  0  0  0
 20 21  2  0  0  0
 60 59  1  0  0  0
 22 21  1  0  0  0
 22 23  1  0  0  0
 59 58  1  0  0  0
 27 28  2  0  0  0
 58 57  1  0  0  0
 31 37  2  0  0  0
 57 56  1  0  0  0
 56 55  1  0  0  0
 55 54  1  0  0  0
 54 53  1  0  0  0
 53 52  1  0  0  0
 52 51  1  0  0  0
 51 50  1  0  0  0
 50 49  1  0  0  0
 49 47  1  0  0  0
 47 48  2  0  0  0
 48 45  1  0  0  0
 42 41  1  0  0  0
 41 40  1  0  0  0
 40 39  1  0  0  0
 39  1  1  0  0  0
  1 21  1  0  0  0
  8  4  1  0  0  0
  8  9  1  0  0  0
  8 10  1  0  0  0
 11 13  1  0  0  0
 13 14  2  0  0  0
 13 18  1  0  0  0
 14 15  1  0  0  0
 15 16  2  0  0  0
 16 17  1  0  0  0
 17 18  2  0  0  0
 23 24  1  0  0  0
 23 25  1  0  0  0
 25 28  1  0  0  0
 32 33  1  0  0  0
 32 37  1  0  0  0
 33 34  1  0  0  0
 34 35  1  0  0  0
 35 36  1  0  0  0
M  END
> <minimizedAffinity>
-8.78661

> <CNNscore>
0.2946776748

> <CNNaffinity>
7.4414229393

> <CNN_VS>
2.1928212643

> <CNNaffinity_variance>
0.7524170876

$$$$
/media/chris/experiments/cd1a-new-docking/inputs/ligands/7ryo_ligand.pdb


 65 67  0  0  0  0  0  0  0  0999 V2000
  -39.4026   57.8176   62.2487 C   0  0  0  0  0  0  0  0  0  0  0  0
  -38.0429   57.5905   62.7091 N   0  0  0  0  0  0  0  0  0  0  0  0
  -37.1200   58.2465   60.7670 O   0  0  0  0  0  0  0  0  0  0  0  0
  -37.0006   57.8304   61.9099 C   0  0  0  0  0  0  0  0  0  0  0  0
  -37.8885   57.2557   63.6219 H   0  0  0  0  0  0  0  0  0  0  0  0
  -34.6256   58.4873   61.8917 N   0  0  0  0  0  0  0  0  0  0  0  0
  -34.3126   58.6174   64.1206 O   0  0  0  0  0  0  0  0  0  0  0  0
  -35.5967   57.5416   62.4664 C   0  0  0  0  0  0  0  0  0  0  0  0
  -35.1953   56.1211   62.0804 C   0  0  0  0  0  0  0  0  0  0  0  0
  -35.4827   57.7721   63.9805 C   0  0  0  0  0  0  0  0  0  0  0  0
  -33.9936   59.0096   62.8597 C   0  0  0  0  0  0  0  0  0  0  0  0
  -31.5718   58.5516   61.3733 O   0  0  0  0  0  0  0  0  0  0  0  0
  -32.9276   60.0090   62.7566 C   0  0  0  0  0  0  0  0  0  0  0  0
  -33.1190   61.2929   63.2686 C   0  0  0  0  0  0  0  0  0  0  0  0
  -32.2289   62.3092   62.9666 C   0  0  0  0  0  0  0  0  0  0  0  0
  -31.1413   62.0663   62.1563 C   0  0  0  0  0  0  0  0  0  0  0  0
  -30.9313   60.8037   61.6324 C   0  0  0  0  0  0  0  0  0  0  0  0
  -31.8160   59.7698   61.9226 C   0  0  0  0  0  0  0  0  0  0  0  0
  -32.1486   57.8344   61.5491 H   0  0  0  0  0  0  0  0  0  0  0  0
  -40.5238   59.9539   62.3908 O   0  0  0  0  0  0  0  0  0  0  0  0
  -40.0286   59.0141   62.9493 C   0  0  0  0  0  0  0  0  0  0  0  0
  -39.9316   58.8833   64.2838 O   0  0  0  0  0  0  0  0  0  0  0  0
  -40.1081   60.0810   65.1108 C   0  0  0  0  0  0  0  0  0  0  0  0
  -39.8410   61.2885   64.2481 C   0  0  0  0  0  0  0  0  0  0  0  0
  -39.1066   59.9468   66.2415 C   0  0  0  0  0  0  0  0  0  0  0  0
  -37.3773   61.6010   66.5813 N   0  0  0  0  0  0  0  0  0  0  0  0
  -37.0348   59.9954   65.0430 O   0  0  0  0  0  0  0  0  0  0  0  0
  -37.7481   60.5153   65.8965 C   0  0  0  0  0  0  0  0  0  0  0  0
  -37.9912   61.9745   67.2543 H   0  0  0  0  0  0  0  0  0  0  0  0
  -34.3306   63.1356   67.7877 N   0  0  0  0  0  0  0  0  0  0  0  0
  -36.4166   63.0220   68.6039 O   0  0  0  0  0  0  0  0  0  0  0  0
  -36.0945   62.2458   66.3615 C   0  0  0  0  0  0  0  0  0  0  0  0
  -36.2383   63.3642   65.3231 C   0  0  0  0  0  0  0  0  0  0  0  0
  -34.9151   63.7891   64.6955 C   0  0  0  0  0  0  0  0  0  0  0  0
  -33.8911   64.3587   65.6570 C   0  0  0  0  0  0  0  0  0  0  0  0
  -33.3958   63.3707   66.6924 C   0  0  0  0  0  0  0  0  0  0  0  0
  -35.6271   62.8358   67.6826 C   0  0  0  0  0  0  0  0  0  0  0  0
  -33.9669   63.2054   68.6999 H   0  0  0  0  0  0  0  0  0  0  0  0
  -40.2654   56.5674   62.4269 C   0  0  0  0  0  0  0  0  0  0  0  0
  -41.7534   56.8621   62.2705 C   0  0  0  0  0  0  0  0  0  0  0  0
  -42.5690   56.4820   63.4923 C   0  0  0  0  0  0  0  0  0  0  0  0
  -43.1197   57.6537   64.2753 C   0  0  0  0  0  0  0  0  0  0  0  0
  -44.3684   57.3016   64.9326 N   0  0  0  0  0  0  0  0  0  0  0  0
  -44.0103   58.6455   66.7102 O   0  0  0  0  0  0  0  0  0  0  0  0
  -44.7253   57.8265   66.1098 C   0  0  0  0  0  0  0  0  0  0  0  0
  -44.9705   56.6561   64.4967 H   0  0  0  0  0  0  0  0  0  0  0  0
  -47.1865   57.8223   66.4505 C   0  0  0  0  0  0  0  0  0  0  0  0
  -45.9901   57.2899   66.6601 C   0  0  0  0  0  0  0  0  0  0  0  0
  -47.5226   59.0270   65.6283 C   0  0  0  0  0  0  0  0  0  0  0  0
  -49.0251   59.1618   65.4128 C   0  0  0  0  0  0  0  0  0  0  0  0
  -49.3984   59.8888   64.1325 C   0  0  0  0  0  0  0  0  0  0  0  0
  -49.4159   58.9911   62.9064 C   0  0  0  0  0  0  0  0  0  0  0  0
  -49.6577   59.7219   61.5991 C   0  0  0  0  0  0  0  0  0  0  0  0
  -49.8557   58.7920   60.4136 C   0  0  0  0  0  0  0  0  0  0  0  0
  -48.5580   58.3616   59.7581 C   0  0  0  0  0  0  0  0  0  0  0  0
  -48.2723   56.8820   59.9197 C   0  0  0  0  0  0  0  0  0  0  0  0
  -48.0171   56.1481   58.6172 C   0  0  0  0  0  0  0  0  0  0  0  0
  -48.0909   57.0591   57.4077 C   0  0  0  0  0  0  0  0  0  0  0  0
  -46.7616   57.2043   56.6851 C   0  0  0  0  0  0  0  0  0  0  0  0
  -45.8923   58.3363   57.2045 C   0  0  0  0  0  0  0  0  0  0  0  0
  -44.4089   58.0064   57.2663 C   0  0  0  0  0  0  0  0  0  0  0  0
  -43.5047   59.1381   56.7972 C   0  0  0  0  0  0  0  0  0  0  0  0
  -42.0263   58.8628   57.0198 C   0  0  0  0  0  0  0  0  0  0  0  0
  -40.6802   59.3764   59.0936 C   0  0  0  0  0  0  0  0  0  0  0  0
  -41.6704   58.4508   58.4367 C   0  0  0  0  0  0  0  0  0  0  0  0
 43 45  1  0  0  0
 43 42  1  0  0  0
 43 46  1  0  0  0
 64 65  1  0  0  0
 44 45  2  0  0  0
 65 63  1  0  0  0
  2  1  1  0  0  0
  2  4  1  0  0  0
  2  5  1  0  0  0
  3  4  2  0  0  0
 63 62  1  0  0  0
  6  8  1  0  0  0
  6 11  2  0  0  0
  7 10  1  0  0  0
  7 11  1  0  0  0
 62 61  1  0  0  0
 26 28  1  0  0  0
 26 32  1  0  0  0
 26 29  1  0  0  0
 12 18  1  0  0  0
 12 19  1  0  0  0
 61 60  1  0  0  0
 30 36  1  0  0  0
 30 37  1  0  0  0
 30 38  1  0  0  0
 20 21  2  0  0  0
 60 59  1  0  0  0
 22 21  1  0  0  0
 22 23  1  0  0  0
 59 58  1  0  0  0
 27 28  2  0  0  0
 58 57  1  0  0  0
 31 37  2  0  0  0
 57 56  1  0  0  0
 56 55  1  0  0  0
 55 54  1  0  0  0
 54 53  1  0  0  0
 53 52  1  0  0  0
 52 51  1  0  0  0
 51 50  1  0  0  0
 50 49  1  0  0  0
 49 47  1  0  0  0
 47 48  2  0  0  0
 48 45  1  0  0  0
 42 41  1  0  0  0
 41 40  1  0  0  0
 40 39  1  0  0  0
 39  1  1  0  0  0
  1 21  1  0  0  0
  8  4  1  0  0  0
  8  9  1  0  0  0
  8 10  1  0  0  0
 11 13  1  0  0  0
 13 14  2  0  0  0
 13 18  1  0  0  0
 14 15  1  0  0  0
 15 16  2  0  0  0
 16 17  1  0  0  0
 17 18  2  0  0  0
 23 24  1  0  0  0
 23 25  1  0  0  0
 25 28  1  0  0  0
 32 33  1  0  0  0
 32 37  1  0  0  0
 33 34  1  0  0  0
 34 35  1  0  0  0
 35 36  1  0  0  0
M  END
> <minimizedAffinity>
-7.35163

> <CNNscore>
0.2923908532

> <CNNaffinity>
7.6736631393

> <CNN_VS>
2.2437088490

> <CNNaffinity_variance>
0.9009249806

$$$$
/media/chris/experiments/cd1a-new-docking/inputs/ligands/7ryo_ligand.pdb


 65 67  0  0  0  0  0  0  0  0999 V2000
  -37.0756   58.9130   64.9372 C   0  0  0  0  0  0  0  0  0  0  0  0
  -38.2562   58.4931   64.2009 N   0  0  0  0  0  0  0  0  0  0  0  0
  -39.6264   58.7483   65.9647 O   0  0  0  0  0  0  0  0  0  0  0  0
  -39.4519   58.4473   64.7932 C   0  0  0  0  0  0  0  0  0  0  0  0
  -38.1732   58.2394   63.2533 H   0  0  0  0  0  0  0  0  0  0  0  0
  -41.7142   57.4711   64.8309 N   0  0  0  0  0  0  0  0  0  0  0  0
  -42.7278   58.9601   63.4750 O   0  0  0  0  0  0  0  0  0  0  0  0
  -40.6454   57.9697   63.9496 C   0  0  0  0  0  0  0  0  0  0  0  0
  -40.1836   56.8365   63.0383 C   0  0  0  0  0  0  0  0  0  0  0  0
  -41.3199   59.0979   63.1554 C   0  0  0  0  0  0  0  0  0  0  0  0
  -42.7836   58.0655   64.4958 C   0  0  0  0  0  0  0  0  0  0  0  0
  -43.1323   57.3285   67.2561 O   0  0  0  0  0  0  0  0  0  0  0  0
  -44.1030   57.8785   65.1042 C   0  0  0  0  0  0  0  0  0  0  0  0
  -45.2568   58.1966   64.3867 C   0  0  0  0  0  0  0  0  0  0  0  0
  -46.4847   58.2580   65.0229 C   0  0  0  0  0  0  0  0  0  0  0  0
  -46.5841   58.0054   66.3737 C   0  0  0  0  0  0  0  0  0  0  0  0
  -45.4551   57.6924   67.1086 C   0  0  0  0  0  0  0  0  0  0  0  0
  -44.2117   57.6279   66.4876 C   0  0  0  0  0  0  0  0  0  0  0  0
  -42.2809   57.2774   66.8684 H   0  0  0  0  0  0  0  0  0  0  0  0
  -36.8640   60.7521   63.3834 O   0  0  0  0  0  0  0  0  0  0  0  0
  -36.5561   60.2496   64.4289 C   0  0  0  0  0  0  0  0  0  0  0  0
  -35.6862   60.7816   65.3050 O   0  0  0  0  0  0  0  0  0  0  0  0
  -36.2198   61.5926   66.4037 C   0  0  0  0  0  0  0  0  0  0  0  0
  -37.7064   61.3530   66.4826 C   0  0  0  0  0  0  0  0  0  0  0  0
  -35.8849   63.0287   66.0500 C   0  0  0  0  0  0  0  0  0  0  0  0
  -34.5130   63.0687   64.0604 N   0  0  0  0  0  0  0  0  0  0  0  0
  -33.5175   63.3840   66.0532 O   0  0  0  0  0  0  0  0  0  0  0  0
  -34.5307   63.1735   65.3923 C   0  0  0  0  0  0  0  0  0  0  0  0
  -35.3572   62.8993   63.5830 H   0  0  0  0  0  0  0  0  0  0  0  0
  -32.5503   64.5405   61.4006 N   0  0  0  0  0  0  0  0  0  0  0  0
  -34.7418   64.1269   61.6395 O   0  0  0  0  0  0  0  0  0  0  0  0
  -33.2843   63.1977   63.2968 C   0  0  0  0  0  0  0  0  0  0  0  0
  -32.7570   61.8115   62.9092 C   0  0  0  0  0  0  0  0  0  0  0  0
  -31.2834   61.8059   62.5173 C   0  0  0  0  0  0  0  0  0  0  0  0
  -30.9278   62.6465   61.3071 C   0  0  0  0  0  0  0  0  0  0  0  0
  -31.1530   64.1320   61.4961 C   0  0  0  0  0  0  0  0  0  0  0  0
  -33.5885   63.9959   62.0389 C   0  0  0  0  0  0  0  0  0  0  0  0
  -32.7484   65.2971   60.8026 H   0  0  0  0  0  0  0  0  0  0  0  0
  -35.9807   57.8464   64.8862 C   0  0  0  0  0  0  0  0  0  0  0  0
  -35.1241   57.9536   63.6292 C   0  0  0  0  0  0  0  0  0  0  0  0
  -35.7907   57.3641   62.4002 C   0  0  0  0  0  0  0  0  0  0  0  0
  -35.5282   58.1179   61.1148 C   0  0  0  0  0  0  0  0  0  0  0  0
  -36.5752   59.0943   60.8591 N   0  0  0  0  0  0  0  0  0  0  0  0
  -38.2556   57.6030   61.0746 O   0  0  0  0  0  0  0  0  0  0  0  0
  -37.8712   58.7638   60.8577 C   0  0  0  0  0  0  0  0  0  0  0  0
  -36.3218   60.0289   60.6815 H   0  0  0  0  0  0  0  0  0  0  0  0
  -39.8652   59.7410   59.7429 C   0  0  0  0  0  0  0  0  0  0  0  0
  -38.7845   59.8723   60.5002 C   0  0  0  0  0  0  0  0  0  0  0  0
  -40.3994   58.4909   59.1165 C   0  0  0  0  0  0  0  0  0  0  0  0
  -41.8337   58.6701   58.6340 C   0  0  0  0  0  0  0  0  0  0  0  0
  -41.9461   59.0154   57.1591 C   0  0  0  0  0  0  0  0  0  0  0  0
  -43.3737   59.0029   56.6385 C   0  0  0  0  0  0  0  0  0  0  0  0
  -44.3611   58.2815   57.5365 C   0  0  0  0  0  0  0  0  0  0  0  0
  -45.7600   58.1926   56.9495 C   0  0  0  0  0  0  0  0  0  0  0  0
  -46.8603   58.3790   57.9758 C   0  0  0  0  0  0  0  0  0  0  0  0
  -46.8648   57.3046   59.0448 C   0  0  0  0  0  0  0  0  0  0  0  0
  -48.1794   56.5603   59.1784 C   0  0  0  0  0  0  0  0  0  0  0  0
  -49.3156   57.4555   59.6319 C   0  0  0  0  0  0  0  0  0  0  0  0
  -50.2107   56.8059   60.6746 C   0  0  0  0  0  0  0  0  0  0  0  0
  -50.6478   57.7417   61.7881 C   0  0  0  0  0  0  0  0  0  0  0  0
  -49.7675   58.9710   61.9520 C   0  0  0  0  0  0  0  0  0  0  0  0
  -50.4670   60.1466   62.6207 C   0  0  0  0  0  0  0  0  0  0  0  0
  -51.0563   59.8060   63.9800 C   0  0  0  0  0  0  0  0  0  0  0  0
  -50.5284   58.4778   66.0617 C   0  0  0  0  0  0  0  0  0  0  0  0
  -50.0276   59.4689   65.0441 C   0  0  0  0  0  0  0  0  0  0  0  0
 43 45  1  0  0  0
 43 42  1  0  0  0
 43 46  1  0  0  0
 64 65  1  0  0  0
 44 45  2  0  0  0
 65 63  1  0  0  0
  2  1  1  0  0  0
  2  4  1  0  0  0
  2  5  1  0  0  0
  3  4  2  0  0  0
 63 62  1  0  0  0
  6  8  1  0  0  0
  6 11  2  0  0  0
  7 10  1  0  0  0
  7 11  1  0  0  0
 62 61  1  0  0  0
 26 28  1  0  0  0
 26 32  1  0  0  0
 26 29  1  0  0  0
 12 18  1  0  0  0
 12 19  1  0  0  0
 61 60  1  0  0  0
 30 36  1  0  0  0
 30 37  1  0  0  0
 30 38  1  0  0  0
 20 21  2  0  0  0
 60 59  1  0  0  0
 22 21  1  0  0  0
 22 23  1  0  0  0
 59 58  1  0  0  0
 27 28  2  0  0  0
 58 57  1  0  0  0
 31 37  2  0  0  0
 57 56  1  0  0  0
 56 55  1  0  0  0
 55 54  1  0  0  0
 54 53  1  0  0  0
 53 52  1  0  0  0
 52 51  1  0  0  0
 51 50  1  0  0  0
 50 49  1  0  0  0
 49 47  1  0  0  0
 47 48  2  0  0  0
 48 45  1  0  0  0
 42 41  1  0  0  0
 41 40  1  0  0  0
 40 39  1  0  0  0
 39  1  1  0  0  0
  1 21  1  0  0  0
  8  4  1  0  0  0
  8  9  1  0  0  0
  8 10  1  0  0  0
 11 13  1  0  0  0
 13 14  2  0  0  0
 13 18  1  0  0  0
 14 15  1  0  0  0
 15 16  2  0  0  0
 16 17  1  0  0  0
 17 18  2  0  0  0
 23 24  1  0  0  0
 23 25  1  0  0  0
 25 28  1  0  0  0
 32 33  1  0  0  0
 32 37  1  0  0  0
 33 34  1  0  0  0
 34 35  1  0  0  0
 35 36  1  0  0  0
M  END
> <minimizedAffinity>
-8.47076

> <CNNscore>
0.2772390544

> <CNNaffinity>
7.6439580917

> <CNN_VS>
2.1192038059

> <CNNaffinity_variance>
0.9948800206

$$$$
/media/chris/experiments/cd1a-new-docking/inputs/ligands/7ryo_ligand.pdb


 65 67  0  0  0  0  0  0  0  0999 V2000
  -35.4102   58.8452   64.5650 C   0  0  0  0  0  0  0  0  0  0  0  0
  -36.6982   59.5105   64.4615 N   0  0  0  0  0  0  0  0  0  0  0  0
  -37.7457   58.0025   65.7585 O   0  0  0  0  0  0  0  0  0  0  0  0
  -37.7741   59.0191   65.0809 C   0  0  0  0  0  0  0  0  0  0  0  0
  -36.7783   60.3341   63.9280 H   0  0  0  0  0  0  0  0  0  0  0  0
  -40.1658   58.8255   64.5200 N   0  0  0  0  0  0  0  0  0  0  0  0
  -41.0004   59.9565   66.2827 O   0  0  0  0  0  0  0  0  0  0  0  0
  -39.1033   59.7707   64.9009 C   0  0  0  0  0  0  0  0  0  0  0  0
  -38.9386   60.8064   63.7927 C   0  0  0  0  0  0  0  0  0  0  0  0
  -39.6241   60.4059   66.1986 C   0  0  0  0  0  0  0  0  0  0  0  0
  -41.1321   59.0051   65.3220 C   0  0  0  0  0  0  0  0  0  0  0  0
  -42.5350   58.3064   67.7360 O   0  0  0  0  0  0  0  0  0  0  0  0
  -42.4059   58.2819   65.3157 C   0  0  0  0  0  0  0  0  0  0  0  0
  -43.0620   58.0288   64.1103 C   0  0  0  0  0  0  0  0  0  0  0  0
  -44.3679   57.5697   64.1045 C   0  0  0  0  0  0  0  0  0  0  0  0
  -45.0377   57.3560   65.2895 C   0  0  0  0  0  0  0  0  0  0  0  0
  -44.4117   57.6034   66.4977 C   0  0  0  0  0  0  0  0  0  0  0  0
  -43.1002   58.0672   66.5241 C   0  0  0  0  0  0  0  0  0  0  0  0
  -41.6534   58.6193   67.7882 H   0  0  0  0  0  0  0  0  0  0  0  0
  -34.6562   60.2001   62.7111 O   0  0  0  0  0  0  0  0  0  0  0  0
  -34.3893   59.4732   63.6280 C   0  0  0  0  0  0  0  0  0  0  0  0
  -33.1452   59.0837   63.9566 O   0  0  0  0  0  0  0  0  0  0  0  0
  -32.2652   58.6044   62.8863 C   0  0  0  0  0  0  0  0  0  0  0  0
  -30.9285   58.2655   63.4963 C   0  0  0  0  0  0  0  0  0  0  0  0
  -32.1730   59.7463   61.8926 C   0  0  0  0  0  0  0  0  0  0  0  0
  -32.5476   62.1196   62.1558 N   0  0  0  0  0  0  0  0  0  0  0  0
  -30.9280   61.1497   63.3797 O   0  0  0  0  0  0  0  0  0  0  0  0
  -31.8220   61.0663   62.5421 C   0  0  0  0  0  0  0  0  0  0  0  0
  -33.2520   61.9927   61.4798 H   0  0  0  0  0  0  0  0  0  0  0  0
  -33.0818   64.6564   64.6801 N   0  0  0  0  0  0  0  0  0  0  0  0
  -34.3550   62.9865   63.8920 O   0  0  0  0  0  0  0  0  0  0  0  0
  -32.3269   63.4462   62.7045 C   0  0  0  0  0  0  0  0  0  0  0  0
  -32.5097   64.5053   61.6116 C   0  0  0  0  0  0  0  0  0  0  0  0
  -31.8743   65.8493   61.9507 C   0  0  0  0  0  0  0  0  0  0  0  0
  -32.4301   66.5412   63.1795 C   0  0  0  0  0  0  0  0  0  0  0  0
  -32.1905   65.7930   64.4742 C   0  0  0  0  0  0  0  0  0  0  0  0
  -33.3435   63.6772   63.8114 C   0  0  0  0  0  0  0  0  0  0  0  0
  -33.5382   64.6064   65.5510 H   0  0  0  0  0  0  0  0  0  0  0  0
  -35.5383   57.3434   64.3058 C   0  0  0  0  0  0  0  0  0  0  0  0
  -35.4639   57.0023   62.8214 C   0  0  0  0  0  0  0  0  0  0  0  0
  -36.7436   57.3204   62.0706 C   0  0  0  0  0  0  0  0  0  0  0  0
  -36.5633   58.2123   60.8618 C   0  0  0  0  0  0  0  0  0  0  0  0
  -37.6788   59.1351   60.7230 N   0  0  0  0  0  0  0  0  0  0  0  0
  -39.2390   57.6014   61.2773 O   0  0  0  0  0  0  0  0  0  0  0  0
  -38.9437   58.7603   60.9423 C   0  0  0  0  0  0  0  0  0  0  0  0
  -37.4967   60.0660   60.4593 H   0  0  0  0  0  0  0  0  0  0  0  0
  -40.7331   59.8501   59.6066 C   0  0  0  0  0  0  0  0  0  0  0  0
  -39.9486   59.8136   60.6753 C   0  0  0  0  0  0  0  0  0  0  0  0
  -40.7945   58.8662   58.4803 C   0  0  0  0  0  0  0  0  0  0  0  0
  -42.2309   58.4908   58.1367 C   0  0  0  0  0  0  0  0  0  0  0  0
  -42.7272   59.0931   56.8336 C   0  0  0  0  0  0  0  0  0  0  0  0
  -44.1608   58.7178   56.4973 C   0  0  0  0  0  0  0  0  0  0  0  0
  -44.8715   57.9278   57.5801 C   0  0  0  0  0  0  0  0  0  0  0  0
  -46.3785   57.8660   57.3939 C   0  0  0  0  0  0  0  0  0  0  0  0
  -47.1582   58.3297   58.6088 C   0  0  0  0  0  0  0  0  0  0  0  0
  -48.1224   57.2838   59.1314 C   0  0  0  0  0  0  0  0  0  0  0  0
  -49.5767   57.7141   59.1240 C   0  0  0  0  0  0  0  0  0  0  0  0
  -50.1116   57.9936   60.5147 C   0  0  0  0  0  0  0  0  0  0  0  0
  -49.4558   59.1932   61.1790 C   0  0  0  0  0  0  0  0  0  0  0  0
  -50.2386   59.7596   62.3508 C   0  0  0  0  0  0  0  0  0  0  0  0
  -50.7050   58.7152   63.3532 C   0  0  0  0  0  0  0  0  0  0  0  0
  -50.6474   59.1806   64.8017 C   0  0  0  0  0  0  0  0  0  0  0  0
  -49.7303   60.3737   65.0176 C   0  0  0  0  0  0  0  0  0  0  0  0
  -48.2608   58.6643   66.1557 C   0  0  0  0  0  0  0  0  0  0  0  0
  -48.3340   60.0148   65.4928 C   0  0  0  0  0  0  0  0  0  0  0  0
 43 45  1  0  0  0
 43 42  1  0  0  0
 43 46  1  0  0  0
 64 65  1  0  0  0
 44 45  2  0  0  0
 65 63  1  0  0  0
  2  1  1  0  0  0
  2  4  1  0  0  0
  2  5  1  0  0  0
  3  4  2  0  0  0
 63 62  1  0  0  0
  6  8  1  0  0  0
  6 11  2  0  0  0
  7 10  1  0  0  0
  7 11  1  0  0  0
 62 61  1  0  0  0
 26 28  1  0  0  0
 26 32  1  0  0  0
 26 29  1  0  0  0
 12 18  1  0  0  0
 12 19  1  0  0  0
 61 60  1  0  0  0
 30 36  1  0  0  0
 30 37  1  0  0  0
 30 38  1  0  0  0
 20 21  2  0  0  0
 60 59  1  0  0  0
 22 21  1  0  0  0
 22 23  1  0  0  0
 59 58  1  0  0  0
 27 28  2  0  0  0
 58 57  1  0  0  0
 31 37  2  0  0  0
 57 56  1  0  0  0
 56 55  1  0  0  0
 55 54  1  0  0  0
 54 53  1  0  0  0
 53 52  1  0  0  0
 52 51  1  0  0  0
 51 50  1  0  0  0
 50 49  1  0  0  0
 49 47  1  0  0  0
 47 48  2  0  0  0
 48 45  1  0  0  0
 42 41  1  0  0  0
 41 40  1  0  0  0
 40 39  1  0  0  0
 39  1  1  0  0  0
  1 21  1  0  0  0
  8  4  1  0  0  0
  8  9  1  0  0  0
  8 10  1  0  0  0
 11 13  1  0  0  0
 13 14  2  0  0  0
 13 18  1  0  0  0
 14 15  1  0  0  0
 15 16  2  0  0  0
 16 17  1  0  0  0
 17 18  2  0  0  0
 23 24  1  0  0  0
 23 25  1  0  0  0
 25 28  1  0  0  0
 32 33  1  0  0  0
 32 37  1  0  0  0
 33 34  1  0  0  0
 34 35  1  0  0  0
 35 36  1  0  0  0
M  END
> <minimizedAffinity>
-8.13425

> <CNNscore>
0.2468370348

> <CNNaffinity>
7.4010438919

> <CNN_VS>
1.8268517256

> <CNNaffinity_variance>
0.8292844892

$$$$
/media/chris/experiments/cd1a-new-docking/inputs/ligands/7ryo_ligand.pdb


 65 67  0  0  0  0  0  0  0  0999 V2000
  -35.6218   60.0468   65.4633 C   0  0  0  0  0  0  0  0  0  0  0  0
  -35.2265   61.4184   65.1900 N   0  0  0  0  0  0  0  0  0  0  0  0
  -34.2945   61.7078   67.2151 O   0  0  0  0  0  0  0  0  0  0  0  0
  -34.5843   62.1419   66.1101 C   0  0  0  0  0  0  0  0  0  0  0  0
  -35.4348   61.8190   64.3151 H   0  0  0  0  0  0  0  0  0  0  0  0
  -32.9931   63.6152   64.9396 N   0  0  0  0  0  0  0  0  0  0  0  0
  -34.4858   64.8265   63.7617 O   0  0  0  0  0  0  0  0  0  0  0  0
  -34.2227   63.5921   65.7491 C   0  0  0  0  0  0  0  0  0  0  0  0
  -33.9854   64.3767   67.0359 C   0  0  0  0  0  0  0  0  0  0  0  0
  -35.2662   64.2745   64.8524 C   0  0  0  0  0  0  0  0  0  0  0  0
  -33.2421   64.2976   63.8997 C   0  0  0  0  0  0  0  0  0  0  0  0
  -32.2114   62.2556   62.1527 O   0  0  0  0  0  0  0  0  0  0  0  0
  -32.3054   64.5865   62.8111 C   0  0  0  0  0  0  0  0  0  0  0  0
  -31.9878   65.9074   62.4922 C   0  0  0  0  0  0  0  0  0  0  0  0
  -31.3052   66.2032   61.3248 C   0  0  0  0  0  0  0  0  0  0  0  0
  -30.9297   65.1968   60.4619 C   0  0  0  0  0  0  0  0  0  0  0  0
  -31.2363   63.8798   60.7524 C   0  0  0  0  0  0  0  0  0  0  0  0
  -31.9238   63.5627   61.9198 C   0  0  0  0  0  0  0  0  0  0  0  0
  -32.6733   62.0089   62.9297 H   0  0  0  0  0  0  0  0  0  0  0  0
  -33.9235   58.3392   65.6657 O   0  0  0  0  0  0  0  0  0  0  0  0
  -34.5754   59.0621   64.9636 C   0  0  0  0  0  0  0  0  0  0  0  0
  -34.4661   59.1285   63.6253 O   0  0  0  0  0  0  0  0  0  0  0  0
  -33.6191   58.1401   62.9507 C   0  0  0  0  0  0  0  0  0  0  0  0
  -32.2330   58.7202   62.8246 C   0  0  0  0  0  0  0  0  0  0  0  0
  -34.2687   57.8996   61.6017 C   0  0  0  0  0  0  0  0  0  0  0  0
  -36.3688   58.8960   60.9391 N   0  0  0  0  0  0  0  0  0  0  0  0
  -36.4150   57.1245   62.3253 O   0  0  0  0  0  0  0  0  0  0  0  0
  -35.7796   57.9374   61.6597 C   0  0  0  0  0  0  0  0  0  0  0  0
  -35.8079   59.5202   60.4244 H   0  0  0  0  0  0  0  0  0  0  0  0
  -39.5017   59.0678   59.1367 N   0  0  0  0  0  0  0  0  0  0  0  0
  -37.3985   59.6444   58.6126 O   0  0  0  0  0  0  0  0  0  0  0  0
  -37.8131   59.0432   60.8932 C   0  0  0  0  0  0  0  0  0  0  0  0
  -38.2482   60.2381   61.7491 C   0  0  0  0  0  0  0  0  0  0  0  0
  -39.7237   60.2099   62.1328 C   0  0  0  0  0  0  0  0  0  0  0  0
  -40.6993   60.2592   60.9738 C   0  0  0  0  0  0  0  0  0  0  0  0
  -40.6340   59.0560   60.0566 C   0  0  0  0  0  0  0  0  0  0  0  0
  -38.2207   59.2784   59.4473 C   0  0  0  0  0  0  0  0  0  0  0  0
  -39.7036   58.9033   58.1872 H   0  0  0  0  0  0  0  0  0  0  0  0
  -36.9947   59.7349   64.8658 C   0  0  0  0  0  0  0  0  0  0  0  0
  -38.0757   60.6862   65.3676 C   0  0  0  0  0  0  0  0  0  0  0  0
  -39.1373   59.9960   66.2038 C   0  0  0  0  0  0  0  0  0  0  0  0
  -40.5601   60.2517   65.7571 C   0  0  0  0  0  0  0  0  0  0  0  0
  -41.3298   59.0180   65.7343 N   0  0  0  0  0  0  0  0  0  0  0  0
  -42.4304   59.4681   67.6526 O   0  0  0  0  0  0  0  0  0  0  0  0
  -42.2147   58.7138   66.6899 C   0  0  0  0  0  0  0  0  0  0  0  0
  -41.1951   58.3862   64.9914 H   0  0  0  0  0  0  0  0  0  0  0  0
  -43.8373   57.1102   65.7053 C   0  0  0  0  0  0  0  0  0  0  0  0
  -42.8432   57.3822   66.5398 C   0  0  0  0  0  0  0  0  0  0  0  0
  -44.5127   58.0428   64.7489 C   0  0  0  0  0  0  0  0  0  0  0  0
  -45.9924   58.2091   65.0729 C   0  0  0  0  0  0  0  0  0  0  0  0
  -46.4572   57.3823   66.2593 C   0  0  0  0  0  0  0  0  0  0  0  0
  -47.7926   56.6928   66.0342 C   0  0  0  0  0  0  0  0  0  0  0  0
  -48.8120   57.5317   65.2868 C   0  0  0  0  0  0  0  0  0  0  0  0
  -49.6775   58.3862   66.1979 C   0  0  0  0  0  0  0  0  0  0  0  0
  -49.4078   59.8727   66.0700 C   0  0  0  0  0  0  0  0  0  0  0  0
  -49.8739   60.4501   64.7486 C   0  0  0  0  0  0  0  0  0  0  0  0
  -51.1775   59.8684   64.2365 C   0  0  0  0  0  0  0  0  0  0  0  0
  -51.1773   59.6636   62.7344 C   0  0  0  0  0  0  0  0  0  0  0  0
  -50.7601   58.2617   62.3210 C   0  0  0  0  0  0  0  0  0  0  0  0
  -49.5330   58.2169   61.4271 C   0  0  0  0  0  0  0  0  0  0  0  0
  -49.8294   58.4205   59.9493 C   0  0  0  0  0  0  0  0  0  0  0  0
  -49.0284   57.5107   59.0279 C   0  0  0  0  0  0  0  0  0  0  0  0
  -47.5629   57.3962   59.4155 C   0  0  0  0  0  0  0  0  0  0  0  0
  -46.9362   57.2956   56.9714 C   0  0  0  0  0  0  0  0  0  0  0  0
  -46.5912   57.8346   58.3349 C   0  0  0  0  0  0  0  0  0  0  0  0
 43 45  1  0  0  0
 43 42  1  0  0  0
 43 46  1  0  0  0
 64 65  1  0  0  0
 44 45  2  0  0  0
 65 63  1  0  0  0
  2  1  1  0  0  0
  2  4  1  0  0  0
  2  5  1  0  0  0
  3  4  2  0  0  0
 63 62  1  0  0  0
  6  8  1  0  0  0
  6 11  2  0  0  0
  7 10  1  0  0  0
  7 11  1  0  0  0
 62 61  1  0  0  0
 26 28  1  0  0  0
 26 32  1  0  0  0
 26 29  1  0  0  0
 12 18  1  0  0  0
 12 19  1  0  0  0
 61 60  1  0  0  0
 30 36  1  0  0  0
 30 37  1  0  0  0
 30 38  1  0  0  0
 20 21  2  0  0  0
 60 59  1  0  0  0
 22 21  1  0  0  0
 22 23  1  0  0  0
 59 58  1  0  0  0
 27 28  2  0  0  0
 58 57  1  0  0  0
 31 37  2  0  0  0
 57 56  1  0  0  0
 56 55  1  0  0  0
 55 54  1  0  0  0
 54 53  1  0  0  0
 53 52  1  0  0  0
 52 51  1  0  0  0
 51 50  1  0  0  0
 50 49  1  0  0  0
 49 47  1  0  0  0
 47 48  2  0  0  0
 48 45  1  0  0  0
 42 41  1  0  0  0
 41 40  1  0  0  0
 40 39  1  0  0  0
 39  1  1  0  0  0
  1 21  1  0  0  0
  8  4  1  0  0  0
  8  9  1  0  0  0
  8 10  1  0  0  0
 11 13  1  0  0  0
 13 14  2  0  0  0
 13 18  1  0  0  0
 14 15  1  0  0  0
 15 16  2  0  0  0
 16 17  1  0  0  0
 17 18  2  0  0  0
 23 24  1  0  0  0
 23 25  1  0  0  0
 25 28  1  0  0  0
 32 33  1  0  0  0
 32 37  1  0  0  0
 33 34  1  0  0  0
 34 35  1  0  0  0
 35 36  1  0  0  0
M  END
> <minimizedAffinity>
-10.02032

> <CNNscore>
0.1880628020

> <CNNaffinity>
7.2327666283

> <CNN_VS>
1.3602143526

> <CNNaffinity_variance>
1.1128107309

$$$$
