/media/chris/experiments/cd1a-new-docking/inputs/ligands/7ryo_ligand.pdb


 65 67  0  0  0  0  0  0  0  0999 V2000
  -37.9071   59.8891   62.0711 C   0  0  0  0  0  0  0  0  0  0  0  0
  -36.5017   59.5772   62.2707 N   0  0  0  0  0  0  0  0  0  0  0  0
  -36.8706   57.3692   62.4775 O   0  0  0  0  0  0  0  0  0  0  0  0
  -36.1004   58.3178   62.4601 C   0  0  0  0  0  0  0  0  0  0  0  0
  -35.8371   60.3035   62.2660 H   0  0  0  0  0  0  0  0  0  0  0  0
  -33.8121   59.0316   61.8887 N   0  0  0  0  0  0  0  0  0  0  0  0
  -33.0042   59.2237   63.9847 O   0  0  0  0  0  0  0  0  0  0  0  0
  -34.5989   58.0768   62.6869 C   0  0  0  0  0  0  0  0  0  0  0  0
  -34.2544   56.6575   62.2455 C   0  0  0  0  0  0  0  0  0  0  0  0
  -34.1500   58.3469   64.1307 C   0  0  0  0  0  0  0  0  0  0  0  0
  -32.9920   59.5926   62.6774 C   0  0  0  0  0  0  0  0  0  0  0  0
  -30.9979   59.1788   60.6438 O   0  0  0  0  0  0  0  0  0  0  0  0
  -32.0071   60.6147   62.3156 C   0  0  0  0  0  0  0  0  0  0  0  0
  -32.0969   61.8974   62.8577 C   0  0  0  0  0  0  0  0  0  0  0  0
  -31.3315   62.9311   62.3461 C   0  0  0  0  0  0  0  0  0  0  0  0
  -30.4700   62.7071   61.2943 C   0  0  0  0  0  0  0  0  0  0  0  0
  -30.3656   61.4462   60.7361 C   0  0  0  0  0  0  0  0  0  0  0  0
  -31.1282   60.3948   61.2350 C   0  0  0  0  0  0  0  0  0  0  0  0
  -31.4974   58.4501   60.9561 H   0  0  0  0  0  0  0  0  0  0  0  0
  -39.6796   59.7698   63.7096 O   0  0  0  0  0  0  0  0  0  0  0  0
  -38.5988   60.1847   63.3935 C   0  0  0  0  0  0  0  0  0  0  0  0
  -37.8397   60.9943   64.1523 O   0  0  0  0  0  0  0  0  0  0  0  0
  -37.1216   60.4056   65.2871 C   0  0  0  0  0  0  0  0  0  0  0  0
  -38.1141   59.6320   66.1179 C   0  0  0  0  0  0  0  0  0  0  0  0
  -36.5248   61.5766   66.0433 C   0  0  0  0  0  0  0  0  0  0  0  0
  -34.8199   63.2847   65.9087 N   0  0  0  0  0  0  0  0  0  0  0  0
  -35.0983   61.9097   64.1497 O   0  0  0  0  0  0  0  0  0  0  0  0
  -35.4203   62.2713   65.2781 C   0  0  0  0  0  0  0  0  0  0  0  0
  -35.1207   63.5304   66.8133 H   0  0  0  0  0  0  0  0  0  0  0  0
  -31.7523   65.1935   66.1091 N   0  0  0  0  0  0  0  0  0  0  0  0
  -33.4909   64.9361   67.5025 O   0  0  0  0  0  0  0  0  0  0  0  0
  -33.7361   64.0342   65.2977 C   0  0  0  0  0  0  0  0  0  0  0  0
  -34.2977   65.0548   64.3014 C   0  0  0  0  0  0  0  0  0  0  0  0
  -33.2667   65.5602   63.2979 C   0  0  0  0  0  0  0  0  0  0  0  0
  -32.0830   66.2956   63.8944 C   0  0  0  0  0  0  0  0  0  0  0  0
  -31.2028   65.4387   64.7799 C   0  0  0  0  0  0  0  0  0  0  0  0
  -32.9815   64.7614   66.3994 C   0  0  0  0  0  0  0  0  0  0  0  0
  -31.1538   65.3646   66.8717 H   0  0  0  0  0  0  0  0  0  0  0  0
  -38.6237   58.7668   61.3188 C   0  0  0  0  0  0  0  0  0  0  0  0
  -39.9662   59.2141   60.7506 C   0  0  0  0  0  0  0  0  0  0  0  0
  -41.0411   58.1474   60.8481 C   0  0  0  0  0  0  0  0  0  0  0  0
  -40.6643   56.9436   61.6836 C   0  0  0  0  0  0  0  0  0  0  0  0
  -40.7614   57.2426   63.1035 N   0  0  0  0  0  0  0  0  0  0  0  0
  -42.9932   56.9193   63.1938 O   0  0  0  0  0  0  0  0  0  0  0  0
  -41.9262   57.2085   63.7597 C   0  0  0  0  0  0  0  0  0  0  0  0
  -39.9430   57.4777   63.5977 H   0  0  0  0  0  0  0  0  0  0  0  0
  -42.8677   57.6429   66.0177 C   0  0  0  0  0  0  0  0  0  0  0  0
  -41.8406   57.6186   65.1792 C   0  0  0  0  0  0  0  0  0  0  0  0
  -44.2875   57.2592   65.7396 C   0  0  0  0  0  0  0  0  0  0  0  0
  -45.2650   58.0556   66.5952 C   0  0  0  0  0  0  0  0  0  0  0  0
  -46.4963   58.5278   65.8416 C   0  0  0  0  0  0  0  0  0  0  0  0
  -47.7608   58.5320   66.6843 C   0  0  0  0  0  0  0  0  0  0  0  0
  -49.0193   58.9039   65.9230 C   0  0  0  0  0  0  0  0  0  0  0  0
  -48.8325   58.9175   64.4148 C   0  0  0  0  0  0  0  0  0  0  0  0
  -49.4906   60.1014   63.7338 C   0  0  0  0  0  0  0  0  0  0  0  0
  -50.8899   59.7990   63.2364 C   0  0  0  0  0  0  0  0  0  0  0  0
  -51.1441   58.3345   62.9353 C   0  0  0  0  0  0  0  0  0  0  0  0
  -51.0603   58.0178   61.4552 C   0  0  0  0  0  0  0  0  0  0  0  0
  -49.9014   57.0991   61.1038 C   0  0  0  0  0  0  0  0  0  0  0  0
  -48.5566   57.7999   61.0191 C   0  0  0  0  0  0  0  0  0  0  0  0
  -48.2113   58.3225   59.6332 C   0  0  0  0  0  0  0  0  0  0  0  0
  -47.2749   57.4154   58.8468 C   0  0  0  0  0  0  0  0  0  0  0  0
  -47.0154   57.8978   57.4286 C   0  0  0  0  0  0  0  0  0  0  0  0
  -47.3209   55.4402   56.9356 C   0  0  0  0  0  0  0  0  0  0  0  0
  -46.9307   56.7904   56.3940 C   0  0  0  0  0  0  0  0  0  0  0  0
 43 45  1  0  0  0
 43 42  1  0  0  0
 43 46  1  0  0  0
 64 65  1  0  0  0
 44 45  2  0  0  0
 65 63  1  0  0  0
  2  1  1  0  0  0
  2  4  1  0  0  0
  2  5  1  0  0  0
  3  4  2  0  0  0
 63 62  1  0  0  0
  6  8  1  0  0  0
  6 11  2  0  0  0
  7 10  1  0  0  0
  7 11  1  0  0  0
 62 61  1  0  0  0
 26 28  1  0  0  0
 26 32  1  0  0  0
 26 29  1  0  0  0
 12 18  1  0  0  0
 12 19  1  0  0  0
 61 60  1  0  0  0
 30 36  1  0  0  0
 30 37  1  0  0  0
 30 38  1  0  0  0
 20 21  2  0  0  0
 60 59  1  0  0  0
 22 21  1  0  0  0
 22 23  1  0  0  0
 59 58  1  0  0  0
 27 28  2  0  0  0
 58 57  1  0  0  0
 31 37  2  0  0  0
 57 56  1  0  0  0
 56 55  1  0  0  0
 55 54  1  0  0  0
 54 53  1  0  0  0
 53 52  1  0  0  0
 52 51  1  0  0  0
 51 50  1  0  0  0
 50 49  1  0  0  0
 49 47  1  0  0  0
 47 48  2  0  0  0
 48 45  1  0  0  0
 42 41  1  0  0  0
 41 40  1  0  0  0
 40 39  1  0  0  0
 39  1  1  0  0  0
  1 21  1  0  0  0
  8  4  1  0  0  0
  8  9  1  0  0  0
  8 10  1  0  0  0
 11 13  1  0  0  0
 13 14  2  0  0  0
 13 18  1  0  0  0
 14 15  1  0  0  0
 15 16  2  0  0  0
 16 17  1  0  0  0
 17 18  2  0  0  0
 23 24  1  0  0  0
 23 25  1  0  0  0
 25 28  1  0  0  0
 32 33  1  0  0  0
 32 37  1  0  0  0
 33 34  1  0  0  0
 34 35  1  0  0  0
 35 36  1  0  0  0
M  END
> <minimizedAffinity>
-9.67429

> <CNNscore>
0.4714048207

> <CNNaffinity>
7.5856223106

> <CNN_VS>
3.5758988857

> <CNNaffinity_variance>
0.7972975969

$$$$
/media/chris/experiments/cd1a-new-docking/inputs/ligands/7ryo_ligand.pdb


 65 67  0  0  0  0  0  0  0  0999 V2000
  -40.9031   58.1925   63.1874 C   0  0  0  0  0  0  0  0  0  0  0  0
  -39.8686   58.3177   64.2007 N   0  0  0  0  0  0  0  0  0  0  0  0
  -39.3108   60.4057   63.5820 O   0  0  0  0  0  0  0  0  0  0  0  0
  -39.1494   59.4374   64.3097 C   0  0  0  0  0  0  0  0  0  0  0  0
  -39.6961   57.5675   64.8144 H   0  0  0  0  0  0  0  0  0  0  0  0
  -36.9497   60.3420   64.9542 N   0  0  0  0  0  0  0  0  0  0  0  0
  -37.5058   61.1075   67.0006 O   0  0  0  0  0  0  0  0  0  0  0  0
  -38.0590   59.4790   65.3929 C   0  0  0  0  0  0  0  0  0  0  0  0
  -37.5306   58.0652   65.6161 C   0  0  0  0  0  0  0  0  0  0  0  0
  -38.5290   60.1231   66.7056 C   0  0  0  0  0  0  0  0  0  0  0  0
  -36.7357   61.1784   65.8838 C   0  0  0  0  0  0  0  0  0  0  0  0
  -36.1125   62.7447   68.2165 O   0  0  0  0  0  0  0  0  0  0  0  0
  -35.7177   62.2315   65.8807 C   0  0  0  0  0  0  0  0  0  0  0  0
  -34.9033   62.4156   64.7626 C   0  0  0  0  0  0  0  0  0  0  0  0
  -33.7879   63.2323   64.8330 C   0  0  0  0  0  0  0  0  0  0  0  0
  -33.4669   63.8751   66.0087 C   0  0  0  0  0  0  0  0  0  0  0  0
  -34.2549   63.7060   67.1325 C   0  0  0  0  0  0  0  0  0  0  0  0
  -35.3788   62.8874   67.0821 C   0  0  0  0  0  0  0  0  0  0  0  0
  -36.8752   62.2005   68.2157 H   0  0  0  0  0  0  0  0  0  0  0  0
  -43.1504   57.3052   63.1344 O   0  0  0  0  0  0  0  0  0  0  0  0
  -42.1778   57.6024   63.7716 C   0  0  0  0  0  0  0  0  0  0  0  0
  -42.0721   57.4792   65.1062 O   0  0  0  0  0  0  0  0  0  0  0  0
  -42.8993   58.3487   65.9485 C   0  0  0  0  0  0  0  0  0  0  0  0
  -42.0215   58.9231   67.0316 C   0  0  0  0  0  0  0  0  0  0  0  0
  -43.9926   57.4570   66.5043 C   0  0  0  0  0  0  0  0  0  0  0  0
  -46.1878   57.8047   65.5544 N   0  0  0  0  0  0  0  0  0  0  0  0
  -45.6417   58.9277   67.4259 O   0  0  0  0  0  0  0  0  0  0  0  0
  -45.3451   58.1334   66.5377 C   0  0  0  0  0  0  0  0  0  0  0  0
  -45.8951   57.1617   64.8688 H   0  0  0  0  0  0  0  0  0  0  0  0
  -49.7366   57.7224   66.2566 N   0  0  0  0  0  0  0  0  0  0  0  0
  -48.2002   56.1201   65.9367 O   0  0  0  0  0  0  0  0  0  0  0  0
  -47.5235   58.3689   65.4681 C   0  0  0  0  0  0  0  0  0  0  0  0
  -47.8260   58.7879   64.0250 C   0  0  0  0  0  0  0  0  0  0  0  0
  -48.9790   59.7787   63.9053 C   0  0  0  0  0  0  0  0  0  0  0  0
  -50.3231   59.2761   64.3935 C   0  0  0  0  0  0  0  0  0  0  0  0
  -50.3725   58.9798   65.8777 C   0  0  0  0  0  0  0  0  0  0  0  0
  -48.5175   57.3055   65.9076 C   0  0  0  0  0  0  0  0  0  0  0  0
  -50.2617   57.1183   66.8296 H   0  0  0  0  0  0  0  0  0  0  0  0
  -40.4157   57.3678   61.9952 C   0  0  0  0  0  0  0  0  0  0  0  0
  -40.5962   58.1004   60.6701 C   0  0  0  0  0  0  0  0  0  0  0  0
  -39.8595   59.4259   60.6154 C   0  0  0  0  0  0  0  0  0  0  0  0
  -38.5171   59.3756   59.9191 C   0  0  0  0  0  0  0  0  0  0  0  0
  -37.4321   59.6043   60.8600 N   0  0  0  0  0  0  0  0  0  0  0  0
  -37.1236   57.4124   61.3010 O   0  0  0  0  0  0  0  0  0  0  0  0
  -36.8102   58.5997   61.4867 C   0  0  0  0  0  0  0  0  0  0  0  0
  -37.1462   60.5287   61.0416 H   0  0  0  0  0  0  0  0  0  0  0  0
  -34.4966   58.7329   62.3830 C   0  0  0  0  0  0  0  0  0  0  0  0
  -35.7865   59.0299   62.4652 C   0  0  0  0  0  0  0  0  0  0  0  0
  -33.8037   57.9434   61.3166 C   0  0  0  0  0  0  0  0  0  0  0  0
  -33.1456   56.6901   61.8803 C   0  0  0  0  0  0  0  0  0  0  0  0
  -31.7797   56.3940   61.2855 C   0  0  0  0  0  0  0  0  0  0  0  0
  -30.8070   57.5570   61.3869 C   0  0  0  0  0  0  0  0  0  0  0  0
  -30.3653   57.8822   62.8015 C   0  0  0  0  0  0  0  0  0  0  0  0
  -30.9016   59.2091   63.3130 C   0  0  0  0  0  0  0  0  0  0  0  0
  -30.5225   60.3912   62.4427 C   0  0  0  0  0  0  0  0  0  0  0  0
  -31.6708   61.3534   62.2134 C   0  0  0  0  0  0  0  0  0  0  0  0
  -31.3134   62.8135   62.4142 C   0  0  0  0  0  0  0  0  0  0  0  0
  -31.3245   63.6024   61.1197 C   0  0  0  0  0  0  0  0  0  0  0  0
  -30.9682   65.0680   61.3082 C   0  0  0  0  0  0  0  0  0  0  0  0
  -31.3927   65.6433   62.6483 C   0  0  0  0  0  0  0  0  0  0  0  0
  -31.9706   67.0479   62.5696 C   0  0  0  0  0  0  0  0  0  0  0  0
  -33.4687   67.0851   62.3005 C   0  0  0  0  0  0  0  0  0  0  0  0
  -34.1580   65.7501   62.5327 C   0  0  0  0  0  0  0  0  0  0  0  0
  -35.9818   66.8207   61.1530 C   0  0  0  0  0  0  0  0  0  0  0  0
  -35.6132   65.7113   62.1026 C   0  0  0  0  0  0  0  0  0  0  0  0
 43 45  1  0  0  0
 43 42  1  0  0  0
 43 46  1  0  0  0
 64 65  1  0  0  0
 44 45  2  0  0  0
 65 63  1  0  0  0
  2  1  1  0  0  0
  2  4  1  0  0  0
  2  5  1  0  0  0
  3  4  2  0  0  0
 63 62  1  0  0  0
  6  8  1  0  0  0
  6 11  2  0  0  0
  7 10  1  0  0  0
  7 11  1  0  0  0
 62 61  1  0  0  0
 26 28  1  0  0  0
 26 32  1  0  0  0
 26 29  1  0  0  0
 12 18  1  0  0  0
 12 19  1  0  0  0
 61 60  1  0  0  0
 30 36  1  0  0  0
 30 37  1  0  0  0
 30 38  1  0  0  0
 20 21  2  0  0  0
 60 59  1  0  0  0
 22 21  1  0  0  0
 22 23  1  0  0  0
 59 58  1  0  0  0
 27 28  2  0  0  0
 58 57  1  0  0  0
 31 37  2  0  0  0
 57 56  1  0  0  0
 56 55  1  0  0  0
 55 54  1  0  0  0
 54 53  1  0  0  0
 53 52  1  0  0  0
 52 51  1  0  0  0
 51 50  1  0  0  0
 50 49  1  0  0  0
 49 47  1  0  0  0
 47 48  2  0  0  0
 48 45  1  0  0  0
 42 41  1  0  0  0
 41 40  1  0  0  0
 40 39  1  0  0  0
 39  1  1  0  0  0
  1 21  1  0  0  0
  8  4  1  0  0  0
  8  9  1  0  0  0
  8 10  1  0  0  0
 11 13  1  0  0  0
 13 14  2  0  0  0
 13 18  1  0  0  0
 14 15  1  0  0  0
 15 16  2  0  0  0
 16 17  1  0  0  0
 17 18  2  0  0  0
 23 24  1  0  0  0
 23 25  1  0  0  0
 25 28  1  0  0  0
 32 33  1  0  0  0
 32 37  1  0  0  0
 33 34  1  0  0  0
 34 35  1  0  0  0
 35 36  1  0  0  0
M  END
> <minimizedAffinity>
-9.26605

> <CNNscore>
0.2856038809

> <CNNaffinity>
7.6822066307

> <CNN_VS>
2.1940679550

> <CNNaffinity_variance>
2.2722923756

$$$$
/media/chris/experiments/cd1a-new-docking/inputs/ligands/7ryo_ligand.pdb


 65 67  0  0  0  0  0  0  0  0999 V2000
  -37.5639   58.3125   61.0557 C   0  0  0  0  0  0  0  0  0  0  0  0
  -36.1332   58.2520   61.3048 N   0  0  0  0  0  0  0  0  0  0  0  0
  -36.3857   57.7028   63.4701 O   0  0  0  0  0  0  0  0  0  0  0  0
  -35.6619   57.9459   62.5160 C   0  0  0  0  0  0  0  0  0  0  0  0
  -35.5038   58.4390   60.5712 H   0  0  0  0  0  0  0  0  0  0  0  0
  -33.5244   59.0260   61.9356 N   0  0  0  0  0  0  0  0  0  0  0  0
  -32.6981   59.2417   64.0221 O   0  0  0  0  0  0  0  0  0  0  0  0
  -34.1355   57.9265   62.7005 C   0  0  0  0  0  0  0  0  0  0  0  0
  -33.5924   56.5983   62.1821 C   0  0  0  0  0  0  0  0  0  0  0  0
  -33.6936   58.1946   64.1468 C   0  0  0  0  0  0  0  0  0  0  0  0
  -32.7774   59.6684   62.7348 C   0  0  0  0  0  0  0  0  0  0  0  0
  -30.7397   59.6332   60.7027 O   0  0  0  0  0  0  0  0  0  0  0  0
  -31.9688   60.8443   62.4050 C   0  0  0  0  0  0  0  0  0  0  0  0
  -32.2641   62.0814   62.9793 C   0  0  0  0  0  0  0  0  0  0  0  0
  -31.6738   63.2375   62.4988 C   0  0  0  0  0  0  0  0  0  0  0  0
  -30.7860   63.1823   61.4466 C   0  0  0  0  0  0  0  0  0  0  0  0
  -30.4796   61.9695   60.8568 C   0  0  0  0  0  0  0  0  0  0  0  0
  -31.0643   60.7968   61.3242 C   0  0  0  0  0  0  0  0  0  0  0  0
  -31.1162   58.8260   60.9934 H   0  0  0  0  0  0  0  0  0  0  0  0
  -38.4602   60.4930   60.5241 O   0  0  0  0  0  0  0  0  0  0  0  0
  -38.1170   59.6978   61.3548 C   0  0  0  0  0  0  0  0  0  0  0  0
  -38.1485   59.9169   62.6809 O   0  0  0  0  0  0  0  0  0  0  0  0
  -39.3668   59.5562   63.4126 C   0  0  0  0  0  0  0  0  0  0  0  0
  -40.3567   60.6830   63.2568 C   0  0  0  0  0  0  0  0  0  0  0  0
  -38.9346   59.3629   64.8532 C   0  0  0  0  0  0  0  0  0  0  0  0
  -36.9027   60.6686   64.9469 N   0  0  0  0  0  0  0  0  0  0  0  0
  -38.6546   61.3243   66.1970 O   0  0  0  0  0  0  0  0  0  0  0  0
  -38.1538   60.5386   65.3973 C   0  0  0  0  0  0  0  0  0  0  0  0
  -36.5541   60.0076   64.3059 H   0  0  0  0  0  0  0  0  0  0  0  0
  -35.0580   63.7162   64.3122 N   0  0  0  0  0  0  0  0  0  0  0  0
  -35.5944   61.9546   63.0317 O   0  0  0  0  0  0  0  0  0  0  0  0
  -36.0421   61.7572   65.3759 C   0  0  0  0  0  0  0  0  0  0  0  0
  -34.8467   61.2055   66.1609 C   0  0  0  0  0  0  0  0  0  0  0  0
  -34.1477   62.2505   67.0239 C   0  0  0  0  0  0  0  0  0  0  0  0
  -33.5400   63.4170   66.2705 C   0  0  0  0  0  0  0  0  0  0  0  0
  -34.5517   64.2879   65.5554 C   0  0  0  0  0  0  0  0  0  0  0  0
  -35.5445   62.4855   64.1373 C   0  0  0  0  0  0  0  0  0  0  0  0
  -35.0389   64.2993   63.5192 H   0  0  0  0  0  0  0  0  0  0  0  0
  -38.3119   57.2420   61.8518 C   0  0  0  0  0  0  0  0  0  0  0  0
  -39.8148   57.2727   61.5956 C   0  0  0  0  0  0  0  0  0  0  0  0
  -40.5764   56.2232   62.3838 C   0  0  0  0  0  0  0  0  0  0  0  0
  -42.0650   56.4711   62.4941 C   0  0  0  0  0  0  0  0  0  0  0  0
  -42.3734   57.2880   63.6570 N   0  0  0  0  0  0  0  0  0  0  0  0
  -42.0614   55.6091   65.1327 O   0  0  0  0  0  0  0  0  0  0  0  0
  -42.3490   56.7946   64.8998 C   0  0  0  0  0  0  0  0  0  0  0  0
  -42.6077   58.2351   63.5251 H   0  0  0  0  0  0  0  0  0  0  0  0
  -44.0272   58.0681   66.2172 C   0  0  0  0  0  0  0  0  0  0  0  0
  -42.7676   57.7535   65.9467 C   0  0  0  0  0  0  0  0  0  0  0  0
  -45.2654   57.5348   65.5670 C   0  0  0  0  0  0  0  0  0  0  0  0
  -46.3862   57.3221   66.5772 C   0  0  0  0  0  0  0  0  0  0  0  0
  -46.9704   58.6123   67.1260 C   0  0  0  0  0  0  0  0  0  0  0  0
  -48.0435   59.2200   66.2382 C   0  0  0  0  0  0  0  0  0  0  0  0
  -49.1579   58.2630   65.8585 C   0  0  0  0  0  0  0  0  0  0  0  0
  -50.5459   58.8677   65.9897 C   0  0  0  0  0  0  0  0  0  0  0  0
  -50.6520   60.2691   65.4210 C   0  0  0  0  0  0  0  0  0  0  0  0
  -51.5491   60.3499   64.2021 C   0  0  0  0  0  0  0  0  0  0  0  0
  -51.1097   59.4764   63.0427 C   0  0  0  0  0  0  0  0  0  0  0  0
  -49.8451   59.9806   62.3760 C   0  0  0  0  0  0  0  0  0  0  0  0
  -49.7675   59.6335   60.8982 C   0  0  0  0  0  0  0  0  0  0  0  0
  -49.7483   58.1423   60.6104 C   0  0  0  0  0  0  0  0  0  0  0  0
  -49.0321   57.7643   59.3231 C   0  0  0  0  0  0  0  0  0  0  0  0
  -47.5743   57.3716   59.5201 C   0  0  0  0  0  0  0  0  0  0  0  0
  -46.6732   57.7961   58.3716 C   0  0  0  0  0  0  0  0  0  0  0  0
  -46.9181   55.9700   56.6450 C   0  0  0  0  0  0  0  0  0  0  0  0
  -47.1851   57.4102   56.9957 C   0  0  0  0  0  0  0  0  0  0  0  0
 43 45  1  0  0  0
 43 42  1  0  0  0
 43 46  1  0  0  0
 64 65  1  0  0  0
 44 45  2  0  0  0
 65 63  1  0  0  0
  2  1  1  0  0  0
  2  4  1  0  0  0
  2  5  1  0  0  0
  3  4  2  0  0  0
 63 62  1  0  0  0
  6  8  1  0  0  0
  6 11  2  0  0  0
  7 10  1  0  0  0
  7 11  1  0  0  0
 62 61  1  0  0  0
 26 28  1  0  0  0
 26 32  1  0  0  0
 26 29  1  0  0  0
 12 18  1  0  0  0
 12 19  1  0  0  0
 61 60  1  0  0  0
 30 36  1  0  0  0
 30 37  1  0  0  0
 30 38  1  0  0  0
 20 21  2  0  0  0
 60 59  1  0  0  0
 22 21  1  0  0  0
 22 23  1  0  0  0
 59 58  1  0  0  0
 27 28  2  0  0  0
 58 57  1  0  0  0
 31 37  2  0  0  0
 57 56  1  0  0  0
 56 55  1  0  0  0
 55 54  1  0  0  0
 54 53  1  0  0  0
 53 52  1  0  0  0
 52 51  1  0  0  0
 51 50  1  0  0  0
 50 49  1  0  0  0
 49 47  1  0  0  0
 47 48  2  0  0  0
 48 45  1  0  0  0
 42 41  1  0  0  0
 41 40  1  0  0  0
 40 39  1  0  0  0
 39  1  1  0  0  0
  1 21  1  0  0  0
  8  4  1  0  0  0
  8  9  1  0  0  0
  8 10  1  0  0  0
 11 13  1  0  0  0
 13 14  2  0  0  0
 13 18  1  0  0  0
 14 15  1  0  0  0
 15 16  2  0  0  0
 16 17  1  0  0  0
 17 18  2  0  0  0
 23 24  1  0  0  0
 23 25  1  0  0  0
 25 28  1  0  0  0
 32 33  1  0  0  0
 32 37  1  0  0  0
 33 34  1  0  0  0
 34 35  1  0  0  0
 35 36  1  0  0  0
M  END
> <minimizedAffinity>
-10.66272

> <CNNscore>
0.2751745284

> <CNNaffinity>
7.5235595703

> <CNN_VS>
2.0702919960

> <CNNaffinity_variance>
1.3171384335

$$$$
/media/chris/experiments/cd1a-new-docking/inputs/ligands/7ryo_ligand.pdb


 65 67  0  0  0  0  0  0  0  0999 V2000
  -36.3388   61.6453   64.3840 C   0  0  0  0  0  0  0  0  0  0  0  0
  -36.6571   60.4502   63.6205 N   0  0  0  0  0  0  0  0  0  0  0  0
  -34.8201   59.3483   64.3025 O   0  0  0  0  0  0  0  0  0  0  0  0
  -35.8518   59.3855   63.6487 C   0  0  0  0  0  0  0  0  0  0  0  0
  -37.4768   60.4254   63.0758 H   0  0  0  0  0  0  0  0  0  0  0  0
  -37.6066   57.7277   63.1540 N   0  0  0  0  0  0  0  0  0  0  0  0
  -37.6502   57.9671   60.9126 O   0  0  0  0  0  0  0  0  0  0  0  0
  -36.2496   58.1708   62.7940 C   0  0  0  0  0  0  0  0  0  0  0  0
  -35.2677   57.0345   63.0638 C   0  0  0  0  0  0  0  0  0  0  0  0
  -36.3520   58.4884   61.2948 C   0  0  0  0  0  0  0  0  0  0  0  0
  -38.2743   57.6538   62.0778 C   0  0  0  0  0  0  0  0  0  0  0  0
  -40.0483   58.7679   60.1043 O   0  0  0  0  0  0  0  0  0  0  0  0
  -39.6773   57.2505   61.9577 C   0  0  0  0  0  0  0  0  0  0  0  0
  -40.1692   56.1898   62.7194 C   0  0  0  0  0  0  0  0  0  0  0  0
  -41.4109   55.6436   62.4435 C   0  0  0  0  0  0  0  0  0  0  0  0
  -42.1782   56.1404   61.4125 C   0  0  0  0  0  0  0  0  0  0  0  0
  -41.7119   57.1882   60.6396 C   0  0  0  0  0  0  0  0  0  0  0  0
  -40.4656   57.7491   60.9001 C   0  0  0  0  0  0  0  0  0  0  0  0
  -39.2140   59.1672   60.2533 H   0  0  0  0  0  0  0  0  0  0  0  0
  -35.1722   63.0526   62.8032 O   0  0  0  0  0  0  0  0  0  0  0  0
  -35.1415   62.3741   63.7926 C   0  0  0  0  0  0  0  0  0  0  0  0
  -34.0371   62.1354   64.5210 O   0  0  0  0  0  0  0  0  0  0  0  0
  -32.8340   62.9218   64.2308 C   0  0  0  0  0  0  0  0  0  0  0  0
  -33.1493   64.3728   64.4930 C   0  0  0  0  0  0  0  0  0  0  0  0
  -32.5150   62.6550   62.7726 C   0  0  0  0  0  0  0  0  0  0  0  0
  -32.2496   60.2562   62.6395 N   0  0  0  0  0  0  0  0  0  0  0  0
  -30.4316   61.5513   62.3571 O   0  0  0  0  0  0  0  0  0  0  0  0
  -31.6351   61.4408   62.5741 C   0  0  0  0  0  0  0  0  0  0  0  0
  -33.2176   60.2289   62.8166 H   0  0  0  0  0  0  0  0  0  0  0  0
  -31.5282   57.2321   60.7881 N   0  0  0  0  0  0  0  0  0  0  0  0
  -33.3787   58.4760   61.0303 O   0  0  0  0  0  0  0  0  0  0  0  0
  -31.5302   59.0077   62.4569 C   0  0  0  0  0  0  0  0  0  0  0  0
  -31.5383   58.1998   63.7596 C   0  0  0  0  0  0  0  0  0  0  0  0
  -30.4598   57.1232   63.8176 C   0  0  0  0  0  0  0  0  0  0  0  0
  -30.5586   56.0443   62.7574 C   0  0  0  0  0  0  0  0  0  0  0  0
  -30.3654   56.5464   61.3419 C   0  0  0  0  0  0  0  0  0  0  0  0
  -32.2263   58.2143   61.3624 C   0  0  0  0  0  0  0  0  0  0  0  0
  -31.8294   56.9396   59.8977 H   0  0  0  0  0  0  0  0  0  0  0  0
  -36.1038   61.3158   65.8589 C   0  0  0  0  0  0  0  0  0  0  0  0
  -37.3956   60.9602   66.5871 C   0  0  0  0  0  0  0  0  0  0  0  0
  -38.5587   60.7009   65.6476 C   0  0  0  0  0  0  0  0  0  0  0  0
  -39.9085   60.6009   66.3239 C   0  0  0  0  0  0  0  0  0  0  0  0
  -40.9562   60.3110   65.3578 N   0  0  0  0  0  0  0  0  0  0  0  0
  -40.7504   58.0717   65.5498 O   0  0  0  0  0  0  0  0  0  0  0  0
  -41.3033   59.0594   65.0389 C   0  0  0  0  0  0  0  0  0  0  0  0
  -41.4251   61.0604   64.9246 H   0  0  0  0  0  0  0  0  0  0  0  0
  -43.4806   58.3090   64.1061 C   0  0  0  0  0  0  0  0  0  0  0  0
  -42.3329   58.9614   63.9802 C   0  0  0  0  0  0  0  0  0  0  0  0
  -43.9873   57.5680   65.3040 C   0  0  0  0  0  0  0  0  0  0  0  0
  -45.4931   57.3457   65.2343 C   0  0  0  0  0  0  0  0  0  0  0  0
  -46.2329   57.7562   66.4958 C   0  0  0  0  0  0  0  0  0  0  0  0
  -47.6250   57.1572   66.6066 C   0  0  0  0  0  0  0  0  0  0  0  0
  -48.7315   58.0394   66.0593 C   0  0  0  0  0  0  0  0  0  0  0  0
  -48.3751   59.5167   66.0423 C   0  0  0  0  0  0  0  0  0  0  0  0
  -49.3475   60.3649   65.2463 C   0  0  0  0  0  0  0  0  0  0  0  0
  -50.7240   59.7415   65.1307 C   0  0  0  0  0  0  0  0  0  0  0  0
  -51.4283   60.0190   63.8165 C   0  0  0  0  0  0  0  0  0  0  0  0
  -50.5035   59.9045   62.6209 C   0  0  0  0  0  0  0  0  0  0  0  0
  -50.4065   58.4906   62.0716 C   0  0  0  0  0  0  0  0  0  0  0  0
  -49.2818   58.2884   61.0711 C   0  0  0  0  0  0  0  0  0  0  0  0
  -49.6459   57.3958   59.8947 C   0  0  0  0  0  0  0  0  0  0  0  0
  -48.4429   56.8064   59.1713 C   0  0  0  0  0  0  0  0  0  0  0  0
  -47.2925   57.7876   59.0123 C   0  0  0  0  0  0  0  0  0  0  0  0
  -47.4582   57.1043   56.5871 C   0  0  0  0  0  0  0  0  0  0  0  0
  -46.9460   58.1215   57.5727 C   0  0  0  0  0  0  0  0  0  0  0  0
 43 45  1  0  0  0
 43 42  1  0  0  0
 43 46  1  0  0  0
 64 65  1  0  0  0
 44 45  2  0  0  0
 65 63  1  0  0  0
  2  1  1  0  0  0
  2  4  1  0  0  0
  2  5  1  0  0  0
  3  4  2  0  0  0
 63 62  1  0  0  0
  6  8  1  0  0  0
  6 11  2  0  0  0
  7 10  1  0  0  0
  7 11  1  0  0  0
 62 61  1  0  0  0
 26 28  1  0  0  0
 26 32  1  0  0  0
 26 29  1  0  0  0
 12 18  1  0  0  0
 12 19  1  0  0  0
 61 60  1  0  0  0
 30 36  1  0  0  0
 30 37  1  0  0  0
 30 38  1  0  0  0
 20 21  2  0  0  0
 60 59  1  0  0  0
 22 21  1  0  0  0
 22 23  1  0  0  0
 59 58  1  0  0  0
 27 28  2  0  0  0
 58 57  1  0  0  0
 31 37  2  0  0  0
 57 56  1  0  0  0
 56 55  1  0  0  0
 55 54  1  0  0  0
 54 53  1  0  0  0
 53 52  1  0  0  0
 52 51  1  0  0  0
 51 50  1  0  0  0
 50 49  1  0  0  0
 49 47  1  0  0  0
 47 48  2  0  0  0
 48 45  1  0  0  0
 42 41  1  0  0  0
 41 40  1  0  0  0
 40 39  1  0  0  0
 39  1  1  0  0  0
  1 21  1  0  0  0
  8  4  1  0  0  0
  8  9  1  0  0  0
  8 10  1  0  0  0
 11 13  1  0  0  0
 13 14  2  0  0  0
 13 18  1  0  0  0
 14 15  1  0  0  0
 15 16  2  0  0  0
 16 17  1  0  0  0
 17 18  2  0  0  0
 23 24  1  0  0  0
 23 25  1  0  0  0
 25 28  1  0  0  0
 32 33  1  0  0  0
 32 37  1  0  0  0
 33 34  1  0  0  0
 34 35  1  0  0  0
 35 36  1  0  0  0
M  END
> <minimizedAffinity>
-10.04413

> <CNNscore>
0.2572654784

> <CNNaffinity>
7.6537184715

> <CNN_VS>
1.9690375328

> <CNNaffinity_variance>
1.1705920696

$$$$
/media/chris/experiments/cd1a-new-docking/inputs/ligands/7ryo_ligand.pdb


 65 67  0  0  0  0  0  0  0  0999 V2000
  -40.5002   58.3126   62.3947 C   0  0  0  0  0  0  0  0  0  0  0  0
  -39.5051   58.3957   63.4508 N   0  0  0  0  0  0  0  0  0  0  0  0
  -40.1245   60.4656   64.0718 O   0  0  0  0  0  0  0  0  0  0  0  0
  -39.4041   59.4885   64.2114 C   0  0  0  0  0  0  0  0  0  0  0  0
  -38.8980   57.6367   63.6074 H   0  0  0  0  0  0  0  0  0  0  0  0
  -37.1873   60.3515   64.8543 N   0  0  0  0  0  0  0  0  0  0  0  0
  -37.7235   61.1121   66.9079 O   0  0  0  0  0  0  0  0  0  0  0  0
  -38.3094   59.5043   65.2910 C   0  0  0  0  0  0  0  0  0  0  0  0
  -37.8041   58.0803   65.5026 C   0  0  0  0  0  0  0  0  0  0  0  0
  -38.7640   60.1470   66.6098 C   0  0  0  0  0  0  0  0  0  0  0  0
  -36.9561   61.1777   65.7889 C   0  0  0  0  0  0  0  0  0  0  0  0
  -36.1751   62.5936   68.1697 O   0  0  0  0  0  0  0  0  0  0  0  0
  -35.9205   62.2136   65.7894 C   0  0  0  0  0  0  0  0  0  0  0  0
  -35.1664   62.4511   64.6395 C   0  0  0  0  0  0  0  0  0  0  0  0
  -34.0339   63.2453   64.6941 C   0  0  0  0  0  0  0  0  0  0  0  0
  -33.6361   63.8124   65.8851 C   0  0  0  0  0  0  0  0  0  0  0  0
  -34.3633   63.5890   67.0401 C   0  0  0  0  0  0  0  0  0  0  0  0
  -35.5032   62.7920   67.0058 C   0  0  0  0  0  0  0  0  0  0  0  0
  -36.9466   62.0620   68.1805 H   0  0  0  0  0  0  0  0  0  0  0  0
  -40.8424   60.2436   60.9823 O   0  0  0  0  0  0  0  0  0  0  0  0
  -40.1849   59.2798   61.2635 C   0  0  0  0  0  0  0  0  0  0  0  0
  -39.0771   58.8931   60.6072 O   0  0  0  0  0  0  0  0  0  0  0  0
  -38.0282   59.8906   60.3735 C   0  0  0  0  0  0  0  0  0  0  0  0
  -37.0718   59.3324   59.3500 C   0  0  0  0  0  0  0  0  0  0  0  0
  -37.3677   60.1105   61.7207 C   0  0  0  0  0  0  0  0  0  0  0  0
  -35.0608   59.5621   62.1893 N   0  0  0  0  0  0  0  0  0  0  0  0
  -36.5667   57.8916   62.1285 O   0  0  0  0  0  0  0  0  0  0  0  0
  -36.2985   59.0855   62.0275 C   0  0  0  0  0  0  0  0  0  0  0  0
  -34.9050   60.5297   62.0965 H   0  0  0  0  0  0  0  0  0  0  0  0
  -31.7427   58.9866   63.5132 N   0  0  0  0  0  0  0  0  0  0  0  0
  -32.7146   60.7514   62.5276 O   0  0  0  0  0  0  0  0  0  0  0  0
  -33.9386   58.6933   62.4984 C   0  0  0  0  0  0  0  0  0  0  0  0
  -33.5980   57.8210   61.2849 C   0  0  0  0  0  0  0  0  0  0  0  0
  -32.7661   56.5907   61.6309 C   0  0  0  0  0  0  0  0  0  0  0  0
  -31.4025   56.8735   62.2294 C   0  0  0  0  0  0  0  0  0  0  0  0
  -31.4477   57.5592   63.5789 C   0  0  0  0  0  0  0  0  0  0  0  0
  -32.7440   59.5668   62.8479 C   0  0  0  0  0  0  0  0  0  0  0  0
  -31.1400   59.5845   64.0117 H   0  0  0  0  0  0  0  0  0  0  0  0
  -41.9095   58.5500   62.9396 C   0  0  0  0  0  0  0  0  0  0  0  0
  -42.7289   57.2658   63.0087 C   0  0  0  0  0  0  0  0  0  0  0  0
  -41.9182   56.0635   63.4555 C   0  0  0  0  0  0  0  0  0  0  0  0
  -41.9897   55.7672   64.9376 C   0  0  0  0  0  0  0  0  0  0  0  0
  -43.1122   56.4562   65.5541 N   0  0  0  0  0  0  0  0  0  0  0  0
  -41.8443   58.1144   66.4122 O   0  0  0  0  0  0  0  0  0  0  0  0
  -42.9571   57.5870   66.2511 C   0  0  0  0  0  0  0  0  0  0  0  0
  -44.0157   56.0779   65.4551 H   0  0  0  0  0  0  0  0  0  0  0  0
  -45.3597   58.2204   66.2376 C   0  0  0  0  0  0  0  0  0  0  0  0
  -44.2002   58.0993   66.8698 C   0  0  0  0  0  0  0  0  0  0  0  0
  -45.6712   57.8642   64.8175 C   0  0  0  0  0  0  0  0  0  0  0  0
  -47.0986   58.2421   64.4414 C   0  0  0  0  0  0  0  0  0  0  0  0
  -47.4403   59.6968   64.7139 C   0  0  0  0  0  0  0  0  0  0  0  0
  -48.4602   59.8841   65.8247 C   0  0  0  0  0  0  0  0  0  0  0  0
  -49.4672   58.7559   65.9468 C   0  0  0  0  0  0  0  0  0  0  0  0
  -50.9032   59.1995   65.7216 C   0  0  0  0  0  0  0  0  0  0  0  0
  -51.0461   60.2721   64.6596 C   0  0  0  0  0  0  0  0  0  0  0  0
  -51.4461   59.7194   63.3063 C   0  0  0  0  0  0  0  0  0  0  0  0
  -50.3259   59.6954   62.2842 C   0  0  0  0  0  0  0  0  0  0  0  0
  -49.8465   58.2911   61.9737 C   0  0  0  0  0  0  0  0  0  0  0  0
  -50.4023   57.7429   60.6695 C   0  0  0  0  0  0  0  0  0  0  0  0
  -49.3545   57.1310   59.7560 C   0  0  0  0  0  0  0  0  0  0  0  0
  -47.9234   57.5053   60.1091 C   0  0  0  0  0  0  0  0  0  0  0  0
  -46.9648   57.4643   58.9269 C   0  0  0  0  0  0  0  0  0  0  0  0
  -47.5987   57.9092   57.6187 C   0  0  0  0  0  0  0  0  0  0  0  0
  -47.2860   55.5066   56.9077 C   0  0  0  0  0  0  0  0  0  0  0  0
  -47.4048   56.9414   56.4655 C   0  0  0  0  0  0  0  0  0  0  0  0
 43 45  1  0  0  0
 43 42  1  0  0  0
 43 46  1  0  0  0
 64 65  1  0  0  0
 44 45  2  0  0  0
 65 63  1  0  0  0
  2  1  1  0  0  0
  2  4  1  0  0  0
  2  5  1  0  0  0
  3  4  2  0  0  0
 63 62  1  0  0  0
  6  8  1  0  0  0
  6 11  2  0  0  0
  7 10  1  0  0  0
  7 11  1  0  0  0
 62 61  1  0  0  0
 26 28  1  0  0  0
 26 32  1  0  0  0
 26 29  1  0  0  0
 12 18  1  0  0  0
 12 19  1  0  0  0
 61 60  1  0  0  0
 30 36  1  0  0  0
 30 37  1  0  0  0
 30 38  1  0  0  0
 20 21  2  0  0  0
 60 59  1  0  0  0
 22 21  1  0  0  0
 22 23  1  0  0  0
 59 58  1  0  0  0
 27 28  2  0  0  0
 58 57  1  0  0  0
 31 37  2  0  0  0
 57 56  1  0  0  0
 56 55  1  0  0  0
 55 54  1  0  0  0
 54 53  1  0  0  0
 53 52  1  0  0  0
 52 51  1  0  0  0
 51 50  1  0  0  0
 50 49  1  0  0  0
 49 47  1  0  0  0
 47 48  2  0  0  0
 48 45  1  0  0  0
 42 41  1  0  0  0
 41 40  1  0  0  0
 40 39  1  0  0  0
 39  1  1  0  0  0
  1 21  1  0  0  0
  8  4  1  0  0  0
  8  9  1  0  0  0
  8 10  1  0  0  0
 11 13  1  0  0  0
 13 14  2  0  0  0
 13 18  1  0  0  0
 14 15  1  0  0  0
 15 16  2  0  0  0
 16 17  1  0  0  0
 17 18  2  0  0  0
 23 24  1  0  0  0
 23 25  1  0  0  0
 25 28  1  0  0  0
 32 33  1  0  0  0
 32 37  1  0  0  0
 33 34  1  0  0  0
 34 35  1  0  0  0
 35 36  1  0  0  0
M  END
> <minimizedAffinity>
-10.65181

> <CNNscore>
0.2035368532

> <CNNaffinity>
7.7917585373

> <CNN_VS>
1.5859099627

> <CNNaffinity_variance>
1.5411779881

$$$$
/media/chris/experiments/cd1a-new-docking/inputs/ligands/7ryo_ligand.pdb


 65 67  0  0  0  0  0  0  0  0999 V2000
  -34.2079   58.1384   63.1644 C   0  0  0  0  0  0  0  0  0  0  0  0
  -35.0858   59.1360   63.7529 N   0  0  0  0  0  0  0  0  0  0  0  0
  -36.0980   57.6568   65.1098 O   0  0  0  0  0  0  0  0  0  0  0  0
  -35.9715   58.7987   64.6934 C   0  0  0  0  0  0  0  0  0  0  0  0
  -35.0266   60.0723   63.4544 H   0  0  0  0  0  0  0  0  0  0  0  0
  -37.8147   60.3591   64.2032 N   0  0  0  0  0  0  0  0  0  0  0  0
  -39.1141   59.8890   65.9846 O   0  0  0  0  0  0  0  0  0  0  0  0
  -36.8784   59.9101   65.2470 C   0  0  0  0  0  0  0  0  0  0  0  0
  -36.0095   61.0886   65.6757 C   0  0  0  0  0  0  0  0  0  0  0  0
  -37.7954   59.4375   66.3849 C   0  0  0  0  0  0  0  0  0  0  0  0
  -38.9812   60.3075   64.6991 C   0  0  0  0  0  0  0  0  0  0  0  0
  -41.1571   61.6375   66.0331 O   0  0  0  0  0  0  0  0  0  0  0  0
  -40.2266   60.6664   64.0166 C   0  0  0  0  0  0  0  0  0  0  0  0
  -40.3428   60.4983   62.6362 C   0  0  0  0  0  0  0  0  0  0  0  0
  -41.4082   61.0531   61.9484 C   0  0  0  0  0  0  0  0  0  0  0  0
  -42.3690   61.7790   62.6181 C   0  0  0  0  0  0  0  0  0  0  0  0
  -42.2748   61.9643   63.9853 C   0  0  0  0  0  0  0  0  0  0  0  0
  -41.2102   61.4163   64.6939 C   0  0  0  0  0  0  0  0  0  0  0  0
  -40.4531   61.2822   66.5391 H   0  0  0  0  0  0  0  0  0  0  0  0
  -31.8770   58.0714   63.7994 O   0  0  0  0  0  0  0  0  0  0  0  0
  -32.7588   58.6012   63.1813 C   0  0  0  0  0  0  0  0  0  0  0  0
  -32.6059   59.7010   62.4232 O   0  0  0  0  0  0  0  0  0  0  0  0
  -31.4729   59.7482   61.4938 C   0  0  0  0  0  0  0  0  0  0  0  0
  -31.0891   58.3306   61.1520 C   0  0  0  0  0  0  0  0  0  0  0  0
  -30.3706   60.4823   62.2323 C   0  0  0  0  0  0  0  0  0  0  0  0
  -31.6863   62.4937   61.9767 N   0  0  0  0  0  0  0  0  0  0  0  0
  -30.3669   62.3012   63.7889 O   0  0  0  0  0  0  0  0  0  0  0  0
  -30.8025   61.8411   62.7371 C   0  0  0  0  0  0  0  0  0  0  0  0
  -32.0006   62.0752   61.1428 H   0  0  0  0  0  0  0  0  0  0  0  0
  -33.9988   64.6290   63.7617 N   0  0  0  0  0  0  0  0  0  0  0  0
  -34.1733   62.5678   62.8948 O   0  0  0  0  0  0  0  0  0  0  0  0
  -32.1965   63.8027   62.3451 C   0  0  0  0  0  0  0  0  0  0  0  0
  -32.3716   64.6710   61.0941 C   0  0  0  0  0  0  0  0  0  0  0  0
  -32.4599   66.1636   61.3936 C   0  0  0  0  0  0  0  0  0  0  0  0
  -33.6315   66.5864   62.2576 C   0  0  0  0  0  0  0  0  0  0  0  0
  -33.5974   66.0284   63.6649 C   0  0  0  0  0  0  0  0  0  0  0  0
  -33.5434   63.6133   63.0250 C   0  0  0  0  0  0  0  0  0  0  0  0
  -34.6765   64.4110   64.4417 H   0  0  0  0  0  0  0  0  0  0  0  0
  -34.6496   57.7778   61.7452 C   0  0  0  0  0  0  0  0  0  0  0  0
  -36.1333   57.4340   61.6690 C   0  0  0  0  0  0  0  0  0  0  0  0
  -36.9360   58.4301   60.8529 C   0  0  0  0  0  0  0  0  0  0  0  0
  -38.4320   58.2045   60.8721 C   0  0  0  0  0  0  0  0  0  0  0  0
  -38.8659   57.6907   62.1616 N   0  0  0  0  0  0  0  0  0  0  0  0
  -40.8807   57.0109   61.4052 O   0  0  0  0  0  0  0  0  0  0  0  0
  -40.0664   57.1276   62.3356 C   0  0  0  0  0  0  0  0  0  0  0  0
  -38.2560   57.7597   62.9313 H   0  0  0  0  0  0  0  0  0  0  0  0
  -41.4646   57.0693   64.3887 C   0  0  0  0  0  0  0  0  0  0  0  0
  -40.3615   56.7364   63.7322 C   0  0  0  0  0  0  0  0  0  0  0  0
  -42.6259   57.8679   63.8845 C   0  0  0  0  0  0  0  0  0  0  0  0
  -43.4754   58.4111   65.0269 C   0  0  0  0  0  0  0  0  0  0  0  0
  -44.3354   57.3593   65.7059 C   0  0  0  0  0  0  0  0  0  0  0  0
  -45.6124   57.9167   66.3125 C   0  0  0  0  0  0  0  0  0  0  0  0
  -46.8683   57.1513   65.9400 C   0  0  0  0  0  0  0  0  0  0  0  0
  -48.0230   58.0482   65.5255 C   0  0  0  0  0  0  0  0  0  0  0  0
  -47.8279   58.6990   64.1701 C   0  0  0  0  0  0  0  0  0  0  0  0
  -48.6410   59.9661   63.9962 C   0  0  0  0  0  0  0  0  0  0  0  0
  -50.1227   59.7330   63.7718 C   0  0  0  0  0  0  0  0  0  0  0  0
  -50.4632   59.4895   62.3148 C   0  0  0  0  0  0  0  0  0  0  0  0
  -51.0978   58.1308   62.0669 C   0  0  0  0  0  0  0  0  0  0  0  0
  -50.4371   57.3292   60.9588 C   0  0  0  0  0  0  0  0  0  0  0  0
  -49.5013   58.1395   60.0751 C   0  0  0  0  0  0  0  0  0  0  0  0
  -48.6737   57.2958   59.1153 C   0  0  0  0  0  0  0  0  0  0  0  0
  -47.2356   57.7697   58.9795 C   0  0  0  0  0  0  0  0  0  0  0  0
  -47.6505   57.2093   56.5526 C   0  0  0  0  0  0  0  0  0  0  0  0
  -46.7450   57.8862   57.5478 C   0  0  0  0  0  0  0  0  0  0  0  0
 43 45  1  0  0  0
 43 42  1  0  0  0
 43 46  1  0  0  0
 64 65  1  0  0  0
 44 45  2  0  0  0
 65 63  1  0  0  0
  2  1  1  0  0  0
  2  4  1  0  0  0
  2  5  1  0  0  0
  3  4  2  0  0  0
 63 62  1  0  0  0
  6  8  1  0  0  0
  6 11  2  0  0  0
  7 10  1  0  0  0
  7 11  1  0  0  0
 62 61  1  0  0  0
 26 28  1  0  0  0
 26 32  1  0  0  0
 26 29  1  0  0  0
 12 18  1  0  0  0
 12 19  1  0  0  0
 61 60  1  0  0  0
 30 36  1  0  0  0
 30 37  1  0  0  0
 30 38  1  0  0  0
 20 21  2  0  0  0
 60 59  1  0  0  0
 22 21  1  0  0  0
 22 23  1  0  0  0
 59 58  1  0  0  0
 27 28  2  0  0  0
 58 57  1  0  0  0
 31 37  2  0  0  0
 57 56  1  0  0  0
 56 55  1  0  0  0
 55 54  1  0  0  0
 54 53  1  0  0  0
 53 52  1  0  0  0
 52 51  1  0  0  0
 51 50  1  0  0  0
 50 49  1  0  0  0
 49 47  1  0  0  0
 47 48  2  0  0  0
 48 45  1  0  0  0
 42 41  1  0  0  0
 41 40  1  0  0  0
 40 39  1  0  0  0
 39  1  1  0  0  0
  1 21  1  0  0  0
  8  4  1  0  0  0
  8  9  1  0  0  0
  8 10  1  0  0  0
 11 13  1  0  0  0
 13 14  2  0  0  0
 13 18  1  0  0  0
 14 15  1  0  0  0
 15 16  2  0  0  0
 16 17  1  0  0  0
 17 18  2  0  0  0
 23 24  1  0  0  0
 23 25  1  0  0  0
 25 28  1  0  0  0
 32 33  1  0  0  0
 32 37  1  0  0  0
 33 34  1  0  0  0
 34 35  1  0  0  0
 35 36  1  0  0  0
M  END
> <minimizedAffinity>
-9.64334

> <CNNscore>
0.1975088120

> <CNNaffinity>
7.4885268211

> <CNN_VS>
1.4790500402

> <CNNaffinity_variance>
1.2929288149

$$$$
/media/chris/experiments/cd1a-new-docking/inputs/ligands/7ryo_ligand.pdb


 65 67  0  0  0  0  0  0  0  0999 V2000
  -37.0222   58.0142   62.2979 C   0  0  0  0  0  0  0  0  0  0  0  0
  -36.6907   58.6043   63.5841 N   0  0  0  0  0  0  0  0  0  0  0  0
  -36.4054   60.6642   62.7300 O   0  0  0  0  0  0  0  0  0  0  0  0
  -36.4058   59.9047   63.6874 C   0  0  0  0  0  0  0  0  0  0  0  0
  -36.6762   58.0381   64.3894 H   0  0  0  0  0  0  0  0  0  0  0  0
  -34.9176   61.3879   64.9749 N   0  0  0  0  0  0  0  0  0  0  0  0
  -36.4993   62.4991   66.1353 O   0  0  0  0  0  0  0  0  0  0  0  0
  -36.0428   60.4443   65.0806 C   0  0  0  0  0  0  0  0  0  0  0  0
  -35.6296   59.2758   65.9704 C   0  0  0  0  0  0  0  0  0  0  0  0
  -37.1624   61.2775   65.7217 C   0  0  0  0  0  0  0  0  0  0  0  0
  -35.2658   62.4539   65.5679 C   0  0  0  0  0  0  0  0  0  0  0  0
  -33.7588   63.0396   67.9490 O   0  0  0  0  0  0  0  0  0  0  0  0
  -34.4556   63.6656   65.7134 C   0  0  0  0  0  0  0  0  0  0  0  0
  -34.2729   64.5211   64.6262 C   0  0  0  0  0  0  0  0  0  0  0  0
  -33.3235   65.5272   64.6761 C   0  0  0  0  0  0  0  0  0  0  0  0
  -32.5459   65.6976   65.8007 C   0  0  0  0  0  0  0  0  0  0  0  0
  -32.7040   64.8605   66.8901 C   0  0  0  0  0  0  0  0  0  0  0  0
  -33.6514   63.8421   66.8582 C   0  0  0  0  0  0  0  0  0  0  0  0
  -34.3871   62.3446   67.9592 H   0  0  0  0  0  0  0  0  0  0  0  0
  -35.8563   58.4837   60.2337 O   0  0  0  0  0  0  0  0  0  0  0  0
  -35.8310   58.0496   61.3523 C   0  0  0  0  0  0  0  0  0  0  0  0
  -34.7486   57.5068   61.9366 O   0  0  0  0  0  0  0  0  0  0  0  0
  -33.4262   57.9890   61.5260 C   0  0  0  0  0  0  0  0  0  0  0  0
  -32.5324   56.7909   61.3277 C   0  0  0  0  0  0  0  0  0  0  0  0
  -32.9504   58.8834   62.6542 C   0  0  0  0  0  0  0  0  0  0  0  0
  -32.7583   61.2884   62.5082 N   0  0  0  0  0  0  0  0  0  0  0  0
  -31.1939   60.0266   61.4969 O   0  0  0  0  0  0  0  0  0  0  0  0
  -32.2215   60.1145   62.1633 C   0  0  0  0  0  0  0  0  0  0  0  0
  -33.5842   61.2976   63.0440 H   0  0  0  0  0  0  0  0  0  0  0  0
  -30.3655   63.9633   62.9697 N   0  0  0  0  0  0  0  0  0  0  0  0
  -31.4218   62.5894   64.3935 O   0  0  0  0  0  0  0  0  0  0  0  0
  -32.1583   62.5514   62.1151 C   0  0  0  0  0  0  0  0  0  0  0  0
  -33.2512   63.5878   61.8306 C   0  0  0  0  0  0  0  0  0  0  0  0
  -32.7702   64.7695   60.9953 C   0  0  0  0  0  0  0  0  0  0  0  0
  -31.6737   65.6073   61.6226 C   0  0  0  0  0  0  0  0  0  0  0  0
  -30.3676   64.8682   61.8252 C   0  0  0  0  0  0  0  0  0  0  0  0
  -31.2824   63.0373   63.2592 C   0  0  0  0  0  0  0  0  0  0  0  0
  -29.6084   64.0441   63.5938 H   0  0  0  0  0  0  0  0  0  0  0  0
  -38.2383   58.6973   61.6704 C   0  0  0  0  0  0  0  0  0  0  0  0
  -39.3796   57.7214   61.4054 C   0  0  0  0  0  0  0  0  0  0  0  0
  -40.6612   58.0906   62.1291 C   0  0  0  0  0  0  0  0  0  0  0  0
  -40.6922   59.4983   62.6831 C   0  0  0  0  0  0  0  0  0  0  0  0
  -41.3470   59.5342   63.9811 N   0  0  0  0  0  0  0  0  0  0  0  0
  -39.5600   58.7237   65.0962 O   0  0  0  0  0  0  0  0  0  0  0  0
  -40.7295   59.1418   65.1006 C   0  0  0  0  0  0  0  0  0  0  0  0
  -42.2751   59.8578   64.0375 H   0  0  0  0  0  0  0  0  0  0  0  0
  -42.4660   58.2422   66.6332 C   0  0  0  0  0  0  0  0  0  0  0  0
  -41.5797   59.1748   66.3116 C   0  0  0  0  0  0  0  0  0  0  0  0
  -42.7846   56.9840   65.8875 C   0  0  0  0  0  0  0  0  0  0  0  0
  -43.9991   57.1563   64.9835 C   0  0  0  0  0  0  0  0  0  0  0  0
  -45.0986   58.0112   65.5896 C   0  0  0  0  0  0  0  0  0  0  0  0
  -46.3968   57.2566   65.8229 C   0  0  0  0  0  0  0  0  0  0  0  0
  -47.4372   58.0298   66.6114 C   0  0  0  0  0  0  0  0  0  0  0  0
  -48.8393   57.9177   66.0358 C   0  0  0  0  0  0  0  0  0  0  0  0
  -49.5337   59.2550   65.8683 C   0  0  0  0  0  0  0  0  0  0  0  0
  -48.9702   60.0789   64.7279 C   0  0  0  0  0  0  0  0  0  0  0  0
  -49.9429   60.3195   63.5894 C   0  0  0  0  0  0  0  0  0  0  0  0
  -51.0586   59.2941   63.5459 C   0  0  0  0  0  0  0  0  0  0  0  0
  -50.9393   58.3280   62.3785 C   0  0  0  0  0  0  0  0  0  0  0  0
  -49.8202   58.6619   61.4075 C   0  0  0  0  0  0  0  0  0  0  0  0
  -49.9272   57.9556   60.0649 C   0  0  0  0  0  0  0  0  0  0  0  0
  -49.2617   56.5866   60.0326 C   0  0  0  0  0  0  0  0  0  0  0  0
  -48.1135   56.4956   59.0402 C   0  0  0  0  0  0  0  0  0  0  0  0
  -46.8498   58.2991   57.8048 C   0  0  0  0  0  0  0  0  0  0  0  0
  -47.1138   57.6342   59.1302 C   0  0  0  0  0  0  0  0  0  0  0  0
 43 45  1  0  0  0
 43 42  1  0  0  0
 43 46  1  0  0  0
 64 65  1  0  0  0
 44 45  2  0  0  0
 65 63  1  0  0  0
  2  1  1  0  0  0
  2  4  1  0  0  0
  2  5  1  0  0  0
  3  4  2  0  0  0
 63 62  1  0  0  0
  6  8  1  0  0  0
  6 11  2  0  0  0
  7 10  1  0  0  0
  7 11  1  0  0  0
 62 61  1  0  0  0
 26 28  1  0  0  0
 26 32  1  0  0  0
 26 29  1  0  0  0
 12 18  1  0  0  0
 12 19  1  0  0  0
 61 60  1  0  0  0
 30 36  1  0  0  0
 30 37  1  0  0  0
 30 38  1  0  0  0
 20 21  2  0  0  0
 60 59  1  0  0  0
 22 21  1  0  0  0
 22 23  1  0  0  0
 59 58  1  0  0  0
 27 28  2  0  0  0
 58 57  1  0  0  0
 31 37  2  0  0  0
 57 56  1  0  0  0
 56 55  1  0  0  0
 55 54  1  0  0  0
 54 53  1  0  0  0
 53 52  1  0  0  0
 52 51  1  0  0  0
 51 50  1  0  0  0
 50 49  1  0  0  0
 49 47  1  0  0  0
 47 48  2  0  0  0
 48 45  1  0  0  0
 42 41  1  0  0  0
 41 40  1  0  0  0
 40 39  1  0  0  0
 39  1  1  0  0  0
  1 21  1  0  0  0
  8  4  1  0  0  0
  8  9  1  0  0  0
  8 10  1  0  0  0
 11 13  1  0  0  0
 13 14  2  0  0  0
 13 18  1  0  0  0
 14 15  1  0  0  0
 15 16  2  0  0  0
 16 17  1  0  0  0
 17 18  2  0  0  0
 23 24  1  0  0  0
 23 25  1  0  0  0
 25 28  1  0  0  0
 32 33  1  0  0  0
 32 37  1  0  0  0
 33 34  1  0  0  0
 34 35  1  0  0  0
 35 36  1  0  0  0
M  END
> <minimizedAffinity>
-9.20263

> <CNNscore>
0.1969328374

> <CNNaffinity>
7.3017263412

> <CNN_VS>
1.4379496574

> <CNNaffinity_variance>
0.6067350507

$$$$
/media/chris/experiments/cd1a-new-docking/inputs/ligands/7ryo_ligand.pdb


 65 67  0  0  0  0  0  0  0  0999 V2000
  -42.9616   58.4461   65.7485 C   0  0  0  0  0  0  0  0  0  0  0  0
  -42.1896   57.8383   64.6774 N   0  0  0  0  0  0  0  0  0  0  0  0
  -44.0042   57.3801   63.4320 O   0  0  0  0  0  0  0  0  0  0  0  0
  -42.7930   57.3491   63.5915 C   0  0  0  0  0  0  0  0  0  0  0  0
  -41.2094   57.7868   64.7536 H   0  0  0  0  0  0  0  0  0  0  0  0
  -41.1903   57.7450   61.7620 N   0  0  0  0  0  0  0  0  0  0  0  0
  -39.5861   56.3064   62.4253 O   0  0  0  0  0  0  0  0  0  0  0  0
  -41.9052   56.7018   62.5159 C   0  0  0  0  0  0  0  0  0  0  0  0
  -42.7894   55.9122   61.5554 C   0  0  0  0  0  0  0  0  0  0  0  0
  -40.7806   55.8321   63.0971 C   0  0  0  0  0  0  0  0  0  0  0  0
  -39.9589   57.4401   61.7765 C   0  0  0  0  0  0  0  0  0  0  0  0
  -37.1838   56.9739   62.3805 O   0  0  0  0  0  0  0  0  0  0  0  0
  -38.8743   58.1968   61.1467 C   0  0  0  0  0  0  0  0  0  0  0  0
  -39.1518   59.0875   60.1090 C   0  0  0  0  0  0  0  0  0  0  0  0
  -38.1259   59.6205   59.3478 C   0  0  0  0  0  0  0  0  0  0  0  0
  -36.8161   59.2786   59.6048 C   0  0  0  0  0  0  0  0  0  0  0  0
  -36.5144   58.3945   60.6246 C   0  0  0  0  0  0  0  0  0  0  0  0
  -37.5319   57.8466   61.3994 C   0  0  0  0  0  0  0  0  0  0  0  0
  -37.8453   56.5873   62.9199 H   0  0  0  0  0  0  0  0  0  0  0  0
  -41.7318   59.3629   67.6161 O   0  0  0  0  0  0  0  0  0  0  0  0
  -42.1422   59.4880   66.4953 C   0  0  0  0  0  0  0  0  0  0  0  0
  -41.9588   60.5795   65.7322 O   0  0  0  0  0  0  0  0  0  0  0  0
  -40.5995   60.8820   65.2732 C   0  0  0  0  0  0  0  0  0  0  0  0
  -40.5379   60.6203   63.7895 C   0  0  0  0  0  0  0  0  0  0  0  0
  -39.6891   59.9593   66.0601 C   0  0  0  0  0  0  0  0  0  0  0  0
  -37.5663   59.7519   64.9231 N   0  0  0  0  0  0  0  0  0  0  0  0
  -37.6935   61.1096   66.7126 O   0  0  0  0  0  0  0  0  0  0  0  0
  -38.2269   60.3249   65.9333 C   0  0  0  0  0  0  0  0  0  0  0  0
  -38.0462   59.1301   64.3296 H   0  0  0  0  0  0  0  0  0  0  0  0
  -34.9088   61.5679   63.2698 N   0  0  0  0  0  0  0  0  0  0  0  0
  -36.9926   61.0071   62.6584 O   0  0  0  0  0  0  0  0  0  0  0  0
  -36.1605   60.0203   64.6755 C   0  0  0  0  0  0  0  0  0  0  0  0
  -35.4099   58.7076   64.4245 C   0  0  0  0  0  0  0  0  0  0  0  0
  -33.9000   58.8232   64.6038 C   0  0  0  0  0  0  0  0  0  0  0  0
  -33.2043   59.7880   63.6641 C   0  0  0  0  0  0  0  0  0  0  0  0
  -33.6113   61.2349   63.8481 C   0  0  0  0  0  0  0  0  0  0  0  0
  -36.0561   60.9087   63.4458 C   0  0  0  0  0  0  0  0  0  0  0  0
  -34.9415   62.3621   62.6889 H   0  0  0  0  0  0  0  0  0  0  0  0
  -43.5067   57.3884   66.7094 C   0  0  0  0  0  0  0  0  0  0  0  0
  -44.9272   57.6989   67.1688 C   0  0  0  0  0  0  0  0  0  0  0  0
  -45.9722   57.4287   66.1023 C   0  0  0  0  0  0  0  0  0  0  0  0
  -47.3948   57.3599   66.6131 C   0  0  0  0  0  0  0  0  0  0  0  0
  -48.0921   58.6158   66.3866 N   0  0  0  0  0  0  0  0  0  0  0  0
  -50.1308   57.6571   66.2508 O   0  0  0  0  0  0  0  0  0  0  0  0
  -49.4179   58.6736   66.2209 C   0  0  0  0  0  0  0  0  0  0  0  0
  -47.5712   59.4506   66.3543 H   0  0  0  0  0  0  0  0  0  0  0  0
  -49.8468   60.6244   64.7430 C   0  0  0  0  0  0  0  0  0  0  0  0
  -49.9385   60.0268   65.9233 C   0  0  0  0  0  0  0  0  0  0  0  0
  -49.2384   60.0842   63.4866 C   0  0  0  0  0  0  0  0  0  0  0  0
  -50.2866   59.8591   62.4038 C   0  0  0  0  0  0  0  0  0  0  0  0
  -49.8172   60.2325   61.0084 C   0  0  0  0  0  0  0  0  0  0  0  0
  -49.0993   59.1046   60.2861 C   0  0  0  0  0  0  0  0  0  0  0  0
  -50.0143   58.0114   59.7667 C   0  0  0  0  0  0  0  0  0  0  0  0
  -49.9524   56.7315   60.5837 C   0  0  0  0  0  0  0  0  0  0  0  0
  -49.0573   55.6687   59.9771 C   0  0  0  0  0  0  0  0  0  0  0  0
  -47.7954   56.2361   59.3586 C   0  0  0  0  0  0  0  0  0  0  0  0
  -47.0742   55.2845   58.4234 C   0  0  0  0  0  0  0  0  0  0  0  0
  -47.5594   55.3911   56.9912 C   0  0  0  0  0  0  0  0  0  0  0  0
  -48.1778   56.7412   56.6670 C   0  0  0  0  0  0  0  0  0  0  0  0
  -47.1736   57.7989   56.2430 C   0  0  0  0  0  0  0  0  0  0  0  0
  -46.6567   58.6617   57.3839 C   0  0  0  0  0  0  0  0  0  0  0  0
  -45.2222   58.3532   57.7903 C   0  0  0  0  0  0  0  0  0  0  0  0
  -44.2606   58.2910   56.6144 C   0  0  0  0  0  0  0  0  0  0  0  0
  -42.0845   58.7996   57.7899 C   0  0  0  0  0  0  0  0  0  0  0  0
  -43.0669   59.2216   56.7291 C   0  0  0  0  0  0  0  0  0  0  0  0
 43 45  1  0  0  0
 43 42  1  0  0  0
 43 46  1  0  0  0
 64 65  1  0  0  0
 44 45  2  0  0  0
 65 63  1  0  0  0
  2  1  1  0  0  0
  2  4  1  0  0  0
  2  5  1  0  0  0
  3  4  2  0  0  0
 63 62  1  0  0  0
  6  8  1  0  0  0
  6 11  2  0  0  0
  7 10  1  0  0  0
  7 11  1  0  0  0
 62 61  1  0  0  0
 26 28  1  0  0  0
 26 32  1  0  0  0
 26 29  1  0  0  0
 12 18  1  0  0  0
 12 19  1  0  0  0
 61 60  1  0  0  0
 30 36  1  0  0  0
 30 37  1  0  0  0
 30 38  1  0  0  0
 20 21  2  0  0  0
 60 59  1  0  0  0
 22 21  1  0  0  0
 22 23  1  0  0  0
 59 58  1  0  0  0
 27 28  2  0  0  0
 58 57  1  0  0  0
 31 37  2  0  0  0
 57 56  1  0  0  0
 56 55  1  0  0  0
 55 54  1  0  0  0
 54 53  1  0  0  0
 53 52  1  0  0  0
 52 51  1  0  0  0
 51 50  1  0  0  0
 50 49  1  0  0  0
 49 47  1  0  0  0
 47 48  2  0  0  0
 48 45  1  0  0  0
 42 41  1  0  0  0
 41 40  1  0  0  0
 40 39  1  0  0  0
 39  1  1  0  0  0
  1 21  1  0  0  0
  8  4  1  0  0  0
  8  9  1  0  0  0
  8 10  1  0  0  0
 11 13  1  0  0  0
 13 14  2  0  0  0
 13 18  1  0  0  0
 14 15  1  0  0  0
 15 16  2  0  0  0
 16 17  1  0  0  0
 17 18  2  0  0  0
 23 24  1  0  0  0
 23 25  1  0  0  0
 25 28  1  0  0  0
 32 33  1  0  0  0
 32 37  1  0  0  0
 33 34  1  0  0  0
 34 35  1  0  0  0
 35 36  1  0  0  0
M  END
> <minimizedAffinity>
-7.96245

> <CNNscore>
0.1813929528

> <CNNaffinity>
7.7071580887

> <CNN_VS>
1.3980242014

> <CNNaffinity_variance>
1.7105386257

$$$$
/media/chris/experiments/cd1a-new-docking/inputs/ligands/7ryo_ligand.pdb


 65 67  0  0  0  0  0  0  0  0999 V2000
  -38.5900   60.2803   64.7365 C   0  0  0  0  0  0  0  0  0  0  0  0
  -37.7437   59.4370   63.9088 N   0  0  0  0  0  0  0  0  0  0  0  0
  -38.0256   60.7047   62.0737 O   0  0  0  0  0  0  0  0  0  0  0  0
  -37.5326   59.7311   62.6235 C   0  0  0  0  0  0  0  0  0  0  0  0
  -37.3208   58.6391   64.3007 H   0  0  0  0  0  0  0  0  0  0  0  0
  -35.2353   59.1925   61.9130 N   0  0  0  0  0  0  0  0  0  0  0  0
  -35.2325   57.0076   62.4690 O   0  0  0  0  0  0  0  0  0  0  0  0
  -36.6434   58.7742   61.8124 C   0  0  0  0  0  0  0  0  0  0  0  0
  -37.0728   58.8222   60.3492 C   0  0  0  0  0  0  0  0  0  0  0  0
  -36.6400   57.3378   62.3562 C   0  0  0  0  0  0  0  0  0  0  0  0
  -34.5674   58.1757   62.2727 C   0  0  0  0  0  0  0  0  0  0  0  0
  -32.6650   58.0192   60.1187 O   0  0  0  0  0  0  0  0  0  0  0  0
  -33.1206   58.1277   62.4969 C   0  0  0  0  0  0  0  0  0  0  0  0
  -32.6044   58.3027   63.7815 C   0  0  0  0  0  0  0  0  0  0  0  0
  -31.2480   58.5026   63.9720 C   0  0  0  0  0  0  0  0  0  0  0  0
  -30.3889   58.5312   62.8951 C   0  0  0  0  0  0  0  0  0  0  0  0
  -30.8756   58.3649   61.6113 C   0  0  0  0  0  0  0  0  0  0  0  0
  -32.2360   58.1649   61.3994 C   0  0  0  0  0  0  0  0  0  0  0  0
  -33.5750   57.8831   59.9420 H   0  0  0  0  0  0  0  0  0  0  0  0
  -37.8281   60.0386   67.0172 O   0  0  0  0  0  0  0  0  0  0  0  0
  -37.8742   60.6947   66.0134 C   0  0  0  0  0  0  0  0  0  0  0  0
  -37.3169   61.9096   65.8687 O   0  0  0  0  0  0  0  0  0  0  0  0
  -36.0310   62.0018   65.1703 C   0  0  0  0  0  0  0  0  0  0  0  0
  -35.0389   61.1321   65.9005 C   0  0  0  0  0  0  0  0  0  0  0  0
  -35.6504   63.4691   65.2095 C   0  0  0  0  0  0  0  0  0  0  0  0
  -34.0740   63.1958   63.3977 N   0  0  0  0  0  0  0  0  0  0  0  0
  -33.4610   64.4368   65.1715 O   0  0  0  0  0  0  0  0  0  0  0  0
  -34.2952   63.7433   64.5963 C   0  0  0  0  0  0  0  0  0  0  0  0
  -34.7802   62.6485   62.9844 H   0  0  0  0  0  0  0  0  0  0  0  0
  -32.0651   64.7863   60.8427 N   0  0  0  0  0  0  0  0  0  0  0  0
  -34.2463   64.2836   60.9852 O   0  0  0  0  0  0  0  0  0  0  0  0
  -32.8213   63.3851   62.6872 C   0  0  0  0  0  0  0  0  0  0  0  0
  -32.2244   62.0271   62.3012 C   0  0  0  0  0  0  0  0  0  0  0  0
  -30.7369   62.0853   61.9703 C   0  0  0  0  0  0  0  0  0  0  0  0
  -30.3662   62.9588   60.7882 C   0  0  0  0  0  0  0  0  0  0  0  0
  -30.6576   64.4311   60.9896 C   0  0  0  0  0  0  0  0  0  0  0  0
  -33.1059   64.1913   61.4298 C   0  0  0  0  0  0  0  0  0  0  0  0
  -32.2685   65.5442   60.2482 H   0  0  0  0  0  0  0  0  0  0  0  0
  -39.9188   59.5926   65.0537 C   0  0  0  0  0  0  0  0  0  0  0  0
  -39.8079   58.0721   65.0196 C   0  0  0  0  0  0  0  0  0  0  0  0
  -40.4878   57.4508   63.8136 C   0  0  0  0  0  0  0  0  0  0  0  0
  -41.5245   56.3992   64.1434 C   0  0  0  0  0  0  0  0  0  0  0  0
  -42.3275   56.7989   65.2882 N   0  0  0  0  0  0  0  0  0  0  0  0
  -43.9681   57.7117   64.0357 O   0  0  0  0  0  0  0  0  0  0  0  0
  -43.4984   57.4301   65.1504 C   0  0  0  0  0  0  0  0  0  0  0  0
  -41.9983   56.5981   66.1941 H   0  0  0  0  0  0  0  0  0  0  0  0
  -45.4409   57.8311   66.6469 C   0  0  0  0  0  0  0  0  0  0  0  0
  -44.1331   57.8270   66.4271 C   0  0  0  0  0  0  0  0  0  0  0  0
  -46.5308   57.4338   65.7009 C   0  0  0  0  0  0  0  0  0  0  0  0
  -47.7878   56.9939   66.4414 C   0  0  0  0  0  0  0  0  0  0  0  0
  -49.0788   57.4439   65.7796 C   0  0  0  0  0  0  0  0  0  0  0  0
  -49.5542   58.8114   66.2411 C   0  0  0  0  0  0  0  0  0  0  0  0
  -48.8990   59.9768   65.5239 C   0  0  0  0  0  0  0  0  0  0  0  0
  -49.8924   60.9064   64.8466 C   0  0  0  0  0  0  0  0  0  0  0  0
  -51.2370   60.2609   64.5742 C   0  0  0  0  0  0  0  0  0  0  0  0
  -51.4363   59.8942   63.1172 C   0  0  0  0  0  0  0  0  0  0  0  0
  -51.0123   58.4816   62.7638 C   0  0  0  0  0  0  0  0  0  0  0  0
  -49.6532   58.4284   62.0942 C   0  0  0  0  0  0  0  0  0  0  0  0
  -49.6235   59.1235   60.7428 C   0  0  0  0  0  0  0  0  0  0  0  0
  -49.7526   58.1829   59.5573 C   0  0  0  0  0  0  0  0  0  0  0  0
  -48.8067   56.9927   59.5990 C   0  0  0  0  0  0  0  0  0  0  0  0
  -47.3592   57.3429   59.2825 C   0  0  0  0  0  0  0  0  0  0  0  0
  -47.1869   58.0562   57.9510 C   0  0  0  0  0  0  0  0  0  0  0  0
  -46.9445   55.8616   56.7258 C   0  0  0  0  0  0  0  0  0  0  0  0
  -47.5769   57.2285   56.7399 C   0  0  0  0  0  0  0  0  0  0  0  0
 43 45  1  0  0  0
 43 42  1  0  0  0
 43 46  1  0  0  0
 64 65  1  0  0  0
 44 45  2  0  0  0
 65 63  1  0  0  0
  2  1  1  0  0  0
  2  4  1  0  0  0
  2  5  1  0  0  0
  3  4  2  0  0  0
 63 62  1  0  0  0
  6  8  1  0  0  0
  6 11  2  0  0  0
  7 10  1  0  0  0
  7 11  1  0  0  0
 62 61  1  0  0  0
 26 28  1  0  0  0
 26 32  1  0  0  0
 26 29  1  0  0  0
 12 18  1  0  0  0
 12 19  1  0  0  0
 61 60  1  0  0  0
 30 36  1  0  0  0
 30 37  1  0  0  0
 30 38  1  0  0  0
 20 21  2  0  0  0
 60 59  1  0  0  0
 22 21  1  0  0  0
 22 23  1  0  0  0
 59 58  1  0  0  0
 27 28  2  0  0  0
 58 57  1  0  0  0
 31 37  2  0  0  0
 57 56  1  0  0  0
 56 55  1  0  0  0
 55 54  1  0  0  0
 54 53  1  0  0  0
 53 52  1  0  0  0
 52 51  1  0  0  0
 51 50  1  0  0  0
 50 49  1  0  0  0
 49 47  1  0  0  0
 47 48  2  0  0  0
 48 45  1  0  0  0
 42 41  1  0  0  0
 41 40  1  0  0  0
 40 39  1  0  0  0
 39  1  1  0  0  0
  1 21  1  0  0  0
  8  4  1  0  0  0
  8  9  1  0  0  0
  8 10  1  0  0  0
 11 13  1  0  0  0
 13 14  2  0  0  0
 13 18  1  0  0  0
 14 15  1  0  0  0
 15 16  2  0  0  0
 16 17  1  0  0  0
 17 18  2  0  0  0
 23 24  1  0  0  0
 23 25  1  0  0  0
 25 28  1  0  0  0
 32 33  1  0  0  0
 32 37  1  0  0  0
 33 34  1  0  0  0
 34 35  1  0  0  0
 35 36  1  0  0  0
M  END
> <minimizedAffinity>
-10.40243

> <CNNscore>
0.1801208705

> <CNNaffinity>
7.0301465988

> <CNN_VS>
1.2662761211

> <CNNaffinity_variance>
0.9874057770

$$$$
