/media/chris/experiments/cd1a-new-docking/inputs/ligands/7ryo_ligand.pdb


 65 67  0  0  0  0  0  0  0  0999 V2000
  -34.5003   59.7154   63.5454 C   0  0  0  0  0  0  0  0  0  0  0  0
  -35.7582   59.7233   62.8173 N   0  0  0  0  0  0  0  0  0  0  0  0
  -34.9370   58.5343   61.0952 O   0  0  0  0  0  0  0  0  0  0  0  0
  -35.8664   59.1189   61.6315 C   0  0  0  0  0  0  0  0  0  0  0  0
  -36.5403   60.1800   63.2032 H   0  0  0  0  0  0  0  0  0  0  0  0
  -38.0013   57.9722   61.1857 N   0  0  0  0  0  0  0  0  0  0  0  0
  -39.3910   59.6685   61.7092 O   0  0  0  0  0  0  0  0  0  0  0  0
  -37.2256   59.1942   60.9167 C   0  0  0  0  0  0  0  0  0  0  0  0
  -36.9872   59.3110   59.4142 C   0  0  0  0  0  0  0  0  0  0  0  0
  -38.1261   60.3238   61.4381 C   0  0  0  0  0  0  0  0  0  0  0  0
  -39.1409   58.3372   61.6069 C   0  0  0  0  0  0  0  0  0  0  0  0
  -41.3987   57.8186   59.8989 O   0  0  0  0  0  0  0  0  0  0  0  0
  -40.2417   57.4529   61.9972 C   0  0  0  0  0  0  0  0  0  0  0  0
  -40.1588   56.7087   63.1747 C   0  0  0  0  0  0  0  0  0  0  0  0
  -41.0679   55.6970   63.4314 C   0  0  0  0  0  0  0  0  0  0  0  0
  -42.0676   55.4112   62.5272 C   0  0  0  0  0  0  0  0  0  0  0  0
  -42.1689   56.1309   61.3506 C   0  0  0  0  0  0  0  0  0  0  0  0
  -41.2633   57.1502   61.0736 C   0  0  0  0  0  0  0  0  0  0  0  0
  -40.8050   58.5105   59.6824 H   0  0  0  0  0  0  0  0  0  0  0  0
  -34.9196   57.4483   64.2699 O   0  0  0  0  0  0  0  0  0  0  0  0
  -34.1307   58.3086   63.9911 C   0  0  0  0  0  0  0  0  0  0  0  0
  -32.7949   58.1682   64.0500 O   0  0  0  0  0  0  0  0  0  0  0  0
  -32.0420   58.1823   62.7919 C   0  0  0  0  0  0  0  0  0  0  0  0
  -32.3273   56.8943   62.0617 C   0  0  0  0  0  0  0  0  0  0  0  0
  -30.5844   58.3086   63.1908 C   0  0  0  0  0  0  0  0  0  0  0  0
  -30.7347   60.5025   62.1876 N   0  0  0  0  0  0  0  0  0  0  0  0
  -29.0338   60.0860   63.6001 O   0  0  0  0  0  0  0  0  0  0  0  0
  -30.0433   59.7095   63.0113 C   0  0  0  0  0  0  0  0  0  0  0  0
  -31.5372   60.1460   61.7424 H   0  0  0  0  0  0  0  0  0  0  0  0
  -31.2915   64.0731   62.3717 N   0  0  0  0  0  0  0  0  0  0  0  0
  -32.6728   62.3125   62.2206 O   0  0  0  0  0  0  0  0  0  0  0  0
  -30.3363   61.8753   61.9303 C   0  0  0  0  0  0  0  0  0  0  0  0
  -29.8835   62.0282   60.4738 C   0  0  0  0  0  0  0  0  0  0  0  0
  -29.0381   63.2724   60.2242 C   0  0  0  0  0  0  0  0  0  0  0  0
  -29.7276   64.5943   60.4978 C   0  0  0  0  0  0  0  0  0  0  0  0
  -30.1045   64.8085   61.9488 C   0  0  0  0  0  0  0  0  0  0  0  0
  -31.5358   62.7738   62.1867 C   0  0  0  0  0  0  0  0  0  0  0  0
  -31.9849   64.5892   62.8429 H   0  0  0  0  0  0  0  0  0  0  0  0
  -34.5426   60.6727   64.7374 C   0  0  0  0  0  0  0  0  0  0  0  0
  -35.9402   61.2304   64.9846 C   0  0  0  0  0  0  0  0  0  0  0  0
  -36.9292   60.1780   65.4505 C   0  0  0  0  0  0  0  0  0  0  0  0
  -38.2652   60.7227   65.9063 C   0  0  0  0  0  0  0  0  0  0  0  0
  -39.3051   60.4387   64.9301 N   0  0  0  0  0  0  0  0  0  0  0  0
  -40.9270   61.4862   66.0988 O   0  0  0  0  0  0  0  0  0  0  0  0
  -40.5686   60.8436   65.0983 C   0  0  0  0  0  0  0  0  0  0  0  0
  -39.0713   59.9319   64.1191 H   0  0  0  0  0  0  0  0  0  0  0  0
  -42.3491   59.3825   64.1665 C   0  0  0  0  0  0  0  0  0  0  0  0
  -41.5007   60.3939   64.0404 C   0  0  0  0  0  0  0  0  0  0  0  0
  -42.5646   58.5105   65.3638 C   0  0  0  0  0  0  0  0  0  0  0  0
  -43.7332   57.5536   65.1618 C   0  0  0  0  0  0  0  0  0  0  0  0
  -45.0373   58.2451   64.8036 C   0  0  0  0  0  0  0  0  0  0  0  0
  -46.2431   57.6902   65.5434 C   0  0  0  0  0  0  0  0  0  0  0  0
  -46.6335   58.4752   66.7816 C   0  0  0  0  0  0  0  0  0  0  0  0
  -48.0322   59.0649   66.7083 C   0  0  0  0  0  0  0  0  0  0  0  0
  -49.0912   58.0620   66.2943 C   0  0  0  0  0  0  0  0  0  0  0  0
  -50.0015   58.5769   65.1976 C   0  0  0  0  0  0  0  0  0  0  0  0
  -49.5178   58.2787   63.7914 C   0  0  0  0  0  0  0  0  0  0  0  0
  -50.3608   58.9528   62.7270 C   0  0  0  0  0  0  0  0  0  0  0  0
  -51.1822   57.9737   61.9042 C   0  0  0  0  0  0  0  0  0  0  0  0
  -50.4019   57.2825   60.7997 C   0  0  0  0  0  0  0  0  0  0  0  0
  -49.1405   58.0170   60.3728 C   0  0  0  0  0  0  0  0  0  0  0  0
  -48.3918   57.3453   59.2297 C   0  0  0  0  0  0  0  0  0  0  0  0
  -47.3980   58.2630   58.5359 C   0  0  0  0  0  0  0  0  0  0  0  0
  -47.4567   57.0771   56.3073 C   0  0  0  0  0  0  0  0  0  0  0  0
  -46.5983   57.6006   57.4289 C   0  0  0  0  0  0  0  0  0  0  0  0
 43 45  1  0  0  0
 43 42  1  0  0  0
 43 46  1  0  0  0
 64 65  1  0  0  0
 44 45  2  0  0  0
 65 63  1  0  0  0
  2  1  1  0  0  0
  2  4  1  0  0  0
  2  5  1  0  0  0
  3  4  2  0  0  0
 63 62  1  0  0  0
  6  8  1  0  0  0
  6 11  2  0  0  0
  7 10  1  0  0  0
  7 11  1  0  0  0
 62 61  1  0  0  0
 26 28  1  0  0  0
 26 32  1  0  0  0
 26 29  1  0  0  0
 12 18  1  0  0  0
 12 19  1  0  0  0
 61 60  1  0  0  0
 30 36  1  0  0  0
 30 37  1  0  0  0
 30 38  1  0  0  0
 20 21  2  0  0  0
 60 59  1  0  0  0
 22 21  1  0  0  0
 22 23  1  0  0  0
 59 58  1  0  0  0
 27 28  2  0  0  0
 58 57  1  0  0  0
 31 37  2  0  0  0
 57 56  1  0  0  0
 56 55  1  0  0  0
 55 54  1  0  0  0
 54 53  1  0  0  0
 53 52  1  0  0  0
 52 51  1  0  0  0
 51 50  1  0  0  0
 50 49  1  0  0  0
 49 47  1  0  0  0
 47 48  2  0  0  0
 48 45  1  0  0  0
 42 41  1  0  0  0
 41 40  1  0  0  0
 40 39  1  0  0  0
 39  1  1  0  0  0
  1 21  1  0  0  0
  8  4  1  0  0  0
  8  9  1  0  0  0
  8 10  1  0  0  0
 11 13  1  0  0  0
 13 14  2  0  0  0
 13 18  1  0  0  0
 14 15  1  0  0  0
 15 16  2  0  0  0
 16 17  1  0  0  0
 17 18  2  0  0  0
 23 24  1  0  0  0
 23 25  1  0  0  0
 25 28  1  0  0  0
 32 33  1  0  0  0
 32 37  1  0  0  0
 33 34  1  0  0  0
 34 35  1  0  0  0
 35 36  1  0  0  0
M  END
> <minimizedAffinity>
-9.75737

> <CNNscore>
0.5261261463

> <CNNaffinity>
7.7028222084

> <CNN_VS>
4.0526561737

> <CNNaffinity_variance>
0.9599134326

$$$$
/media/chris/experiments/cd1a-new-docking/inputs/ligands/7ryo_ligand.pdb


 65 67  0  0  0  0  0  0  0  0999 V2000
  -34.4506   61.9822   63.9355 C   0  0  0  0  0  0  0  0  0  0  0  0
  -34.8386   60.5866   63.8173 N   0  0  0  0  0  0  0  0  0  0  0  0
  -36.6687   61.0473   62.5957 O   0  0  0  0  0  0  0  0  0  0  0  0
  -35.9369   60.2363   63.1434 C   0  0  0  0  0  0  0  0  0  0  0  0
  -34.2849   59.8906   64.2395 H   0  0  0  0  0  0  0  0  0  0  0  0
  -37.7381   58.5599   63.2738 N   0  0  0  0  0  0  0  0  0  0  0  0
  -37.2499   57.4188   61.3916 O   0  0  0  0  0  0  0  0  0  0  0  0
  -36.2891   58.7408   63.0862 C   0  0  0  0  0  0  0  0  0  0  0  0
  -35.5486   58.0161   64.2062 C   0  0  0  0  0  0  0  0  0  0  0  0
  -36.0129   58.1021   61.7170 C   0  0  0  0  0  0  0  0  0  0  0  0
  -38.1532   57.8416   62.3140 C   0  0  0  0  0  0  0  0  0  0  0  0
  -39.7987   58.8925   60.1993 O   0  0  0  0  0  0  0  0  0  0  0  0
  -39.5346   57.4059   62.0955 C   0  0  0  0  0  0  0  0  0  0  0  0
  -40.0592   56.3437   62.8330 C   0  0  0  0  0  0  0  0  0  0  0  0
  -41.2649   55.7669   62.4732 C   0  0  0  0  0  0  0  0  0  0  0  0
  -41.9638   56.2343   61.3815 C   0  0  0  0  0  0  0  0  0  0  0  0
  -41.4635   57.2828   60.6312 C   0  0  0  0  0  0  0  0  0  0  0  0
  -40.2522   57.8743   60.9757 C   0  0  0  0  0  0  0  0  0  0  0  0
  -38.9863   59.3121   60.4045 H   0  0  0  0  0  0  0  0  0  0  0  0
  -32.2495   62.9761   64.0262 O   0  0  0  0  0  0  0  0  0  0  0  0
  -33.0009   62.1877   63.5222 C   0  0  0  0  0  0  0  0  0  0  0  0
  -32.6832   61.3771   62.4978 O   0  0  0  0  0  0  0  0  0  0  0  0
  -31.2635   61.1467   62.2129 C   0  0  0  0  0  0  0  0  0  0  0  0
  -30.7517   62.3162   61.4105 C   0  0  0  0  0  0  0  0  0  0  0  0
  -31.2098   59.8460   61.4353 C   0  0  0  0  0  0  0  0  0  0  0  0
  -30.4387   57.7174   62.2821 N   0  0  0  0  0  0  0  0  0  0  0  0
  -28.9134   59.3151   61.8546 O   0  0  0  0  0  0  0  0  0  0  0  0
  -30.0823   58.9403   61.8784 C   0  0  0  0  0  0  0  0  0  0  0  0
  -31.3922   57.4721   62.2799 H   0  0  0  0  0  0  0  0  0  0  0  0
  -28.1390   54.9961   61.6504 N   0  0  0  0  0  0  0  0  0  0  0  0
  -30.0648   55.6291   60.6907 O   0  0  0  0  0  0  0  0  0  0  0  0
  -29.4597   56.7398   62.7241 C   0  0  0  0  0  0  0  0  0  0  0  0
  -29.9710   56.0089   63.9708 C   0  0  0  0  0  0  0  0  0  0  0  0
  -28.8713   55.3114   64.7641 C   0  0  0  0  0  0  0  0  0  0  0  0
  -28.1251   54.2202   64.0224 C   0  0  0  0  0  0  0  0  0  0  0  0
  -27.3302   54.7122   62.8310 C   0  0  0  0  0  0  0  0  0  0  0  0
  -29.2470   55.7389   61.5995 C   0  0  0  0  0  0  0  0  0  0  0  0
  -27.8358   54.5983   60.8025 H   0  0  0  0  0  0  0  0  0  0  0  0
  -34.6950   62.5087   65.3505 C   0  0  0  0  0  0  0  0  0  0  0  0
  -35.5220   61.5441   66.1937 C   0  0  0  0  0  0  0  0  0  0  0  0
  -37.0098   61.8397   66.1526 C   0  0  0  0  0  0  0  0  0  0  0  0
  -37.9006   60.6237   66.2836 C   0  0  0  0  0  0  0  0  0  0  0  0
  -38.7941   60.5059   65.1421 N   0  0  0  0  0  0  0  0  0  0  0  0
  -40.6247   61.1575   66.2902 O   0  0  0  0  0  0  0  0  0  0  0  0
  -40.0996   60.7831   65.2288 C   0  0  0  0  0  0  0  0  0  0  0  0
  -38.4259   60.2125   64.2775 H   0  0  0  0  0  0  0  0  0  0  0  0
  -41.8686   59.6717   63.8839 C   0  0  0  0  0  0  0  0  0  0  0  0
  -40.8624   60.5294   63.9862 C   0  0  0  0  0  0  0  0  0  0  0  0
  -42.4535   58.8120   64.9605 C   0  0  0  0  0  0  0  0  0  0  0  0
  -43.4419   57.7977   64.3979 C   0  0  0  0  0  0  0  0  0  0  0  0
  -44.8908   58.0979   64.7409 C   0  0  0  0  0  0  0  0  0  0  0  0
  -45.2066   57.9602   66.2209 C   0  0  0  0  0  0  0  0  0  0  0  0
  -46.6586   57.6415   66.5240 C   0  0  0  0  0  0  0  0  0  0  0  0
  -47.5940   57.9125   65.3573 C   0  0  0  0  0  0  0  0  0  0  0  0
  -48.1375   59.3276   65.3328 C   0  0  0  0  0  0  0  0  0  0  0  0
  -48.8473   59.6699   64.0384 C   0  0  0  0  0  0  0  0  0  0  0  0
  -50.3601   59.6992   64.1430 C   0  0  0  0  0  0  0  0  0  0  0  0
  -51.0417   59.0395   62.9606 C   0  0  0  0  0  0  0  0  0  0  0  0
  -50.0857   58.7072   61.8267 C   0  0  0  0  0  0  0  0  0  0  0  0
  -50.5714   57.5988   60.9090 C   0  0  0  0  0  0  0  0  0  0  0  0
  -49.5586   57.1690   59.8589 C   0  0  0  0  0  0  0  0  0  0  0  0
  -48.2163   57.8791   59.9687 C   0  0  0  0  0  0  0  0  0  0  0  0
  -47.6213   58.2591   58.6224 C   0  0  0  0  0  0  0  0  0  0  0  0
  -47.3169   56.9373   56.4925 C   0  0  0  0  0  0  0  0  0  0  0  0
  -46.8831   57.1332   57.9215 C   0  0  0  0  0  0  0  0  0  0  0  0
 43 45  1  0  0  0
 43 42  1  0  0  0
 43 46  1  0  0  0
 64 65  1  0  0  0
 44 45  2  0  0  0
 65 63  1  0  0  0
  2  1  1  0  0  0
  2  4  1  0  0  0
  2  5  1  0  0  0
  3  4  2  0  0  0
 63 62  1  0  0  0
  6  8  1  0  0  0
  6 11  2  0  0  0
  7 10  1  0  0  0
  7 11  1  0  0  0
 62 61  1  0  0  0
 26 28  1  0  0  0
 26 32  1  0  0  0
 26 29  1  0  0  0
 12 18  1  0  0  0
 12 19  1  0  0  0
 61 60  1  0  0  0
 30 36  1  0  0  0
 30 37  1  0  0  0
 30 38  1  0  0  0
 20 21  2  0  0  0
 60 59  1  0  0  0
 22 21  1  0  0  0
 22 23  1  0  0  0
 59 58  1  0  0  0
 27 28  2  0  0  0
 58 57  1  0  0  0
 31 37  2  0  0  0
 57 56  1  0  0  0
 56 55  1  0  0  0
 55 54  1  0  0  0
 54 53  1  0  0  0
 53 52  1  0  0  0
 52 51  1  0  0  0
 51 50  1  0  0  0
 50 49  1  0  0  0
 49 47  1  0  0  0
 47 48  2  0  0  0
 48 45  1  0  0  0
 42 41  1  0  0  0
 41 40  1  0  0  0
 40 39  1  0  0  0
 39  1  1  0  0  0
  1 21  1  0  0  0
  8  4  1  0  0  0
  8  9  1  0  0  0
  8 10  1  0  0  0
 11 13  1  0  0  0
 13 14  2  0  0  0
 13 18  1  0  0  0
 14 15  1  0  0  0
 15 16  2  0  0  0
 16 17  1  0  0  0
 17 18  2  0  0  0
 23 24  1  0  0  0
 23 25  1  0  0  0
 25 28  1  0  0  0
 32 33  1  0  0  0
 32 37  1  0  0  0
 33 34  1  0  0  0
 34 35  1  0  0  0
 35 36  1  0  0  0
M  END
> <minimizedAffinity>
-11.02745

> <CNNscore>
0.4062527418

> <CNNaffinity>
7.7015495300

> <CNN_VS>
3.1287755966

> <CNNaffinity_variance>
1.0748065710

$$$$
/media/chris/experiments/cd1a-new-docking/inputs/ligands/7ryo_ligand.pdb


 65 67  0  0  0  0  0  0  0  0999 V2000
  -34.8577   58.0895   62.9186 C   0  0  0  0  0  0  0  0  0  0  0  0
  -35.2353   59.4382   63.3067 N   0  0  0  0  0  0  0  0  0  0  0  0
  -34.8464   59.0754   65.4910 O   0  0  0  0  0  0  0  0  0  0  0  0
  -35.1951   59.8188   64.5860 C   0  0  0  0  0  0  0  0  0  0  0  0
  -35.5245   60.0793   62.6178 H   0  0  0  0  0  0  0  0  0  0  0  0
  -34.5234   61.9846   65.5505 N   0  0  0  0  0  0  0  0  0  0  0  0
  -35.1924   63.3112   63.8548 O   0  0  0  0  0  0  0  0  0  0  0  0
  -35.6331   61.2556   64.9143 C   0  0  0  0  0  0  0  0  0  0  0  0
  -36.8124   61.2033   65.8810 C   0  0  0  0  0  0  0  0  0  0  0  0
  -35.9571   62.0932   63.6684 C   0  0  0  0  0  0  0  0  0  0  0  0
  -34.3683   63.0666   64.9067 C   0  0  0  0  0  0  0  0  0  0  0  0
  -33.7016   63.8922   67.5821 O   0  0  0  0  0  0  0  0  0  0  0  0
  -33.3751   64.1055   65.1898 C   0  0  0  0  0  0  0  0  0  0  0  0
  -32.6038   64.6378   64.1558 C   0  0  0  0  0  0  0  0  0  0  0  0
  -31.5056   65.4323   64.4364 C   0  0  0  0  0  0  0  0  0  0  0  0
  -31.1593   65.7086   65.7412 C   0  0  0  0  0  0  0  0  0  0  0  0
  -31.9045   65.1896   66.7843 C   0  0  0  0  0  0  0  0  0  0  0  0
  -33.0105   64.3871   66.5225 C   0  0  0  0  0  0  0  0  0  0  0  0
  -34.4513   63.3485   67.4398 H   0  0  0  0  0  0  0  0  0  0  0  0
  -33.0645   57.1172   61.6226 O   0  0  0  0  0  0  0  0  0  0  0  0
  -33.6297   58.0982   62.0206 C   0  0  0  0  0  0  0  0  0  0  0  0
  -33.2515   59.3598   61.7510 O   0  0  0  0  0  0  0  0  0  0  0  0
  -31.9962   59.8447   62.3330 C   0  0  0  0  0  0  0  0  0  0  0  0
  -32.1946   61.2828   62.7408 C   0  0  0  0  0  0  0  0  0  0  0  0
  -30.9553   59.6933   61.2407 C   0  0  0  0  0  0  0  0  0  0  0  0
  -30.2390   57.6781   62.3667 N   0  0  0  0  0  0  0  0  0  0  0  0
  -28.7183   58.8424   61.1863 O   0  0  0  0  0  0  0  0  0  0  0  0
  -29.8675   58.7043   61.5959 C   0  0  0  0  0  0  0  0  0  0  0  0
  -31.1752   57.6189   62.6656 H   0  0  0  0  0  0  0  0  0  0  0  0
  -28.0991   54.8481   61.6558 N   0  0  0  0  0  0  0  0  0  0  0  0
  -30.0126   55.5883   60.7497 O   0  0  0  0  0  0  0  0  0  0  0  0
  -29.3013   56.6473   62.7763 C   0  0  0  0  0  0  0  0  0  0  0  0
  -29.8188   55.9321   64.0293 C   0  0  0  0  0  0  0  0  0  0  0  0
  -28.7375   55.1715   64.7893 C   0  0  0  0  0  0  0  0  0  0  0  0
  -28.0670   54.0504   64.0204 C   0  0  0  0  0  0  0  0  0  0  0  0
  -27.2772   54.5119   62.8135 C   0  0  0  0  0  0  0  0  0  0  0  0
  -29.1682   55.6473   61.6386 C   0  0  0  0  0  0  0  0  0  0  0  0
  -27.8377   54.4431   60.7974 H   0  0  0  0  0  0  0  0  0  0  0  0
  -36.0210   57.3589   62.2462 C   0  0  0  0  0  0  0  0  0  0  0  0
  -36.5414   58.1011   61.0200 C   0  0  0  0  0  0  0  0  0  0  0  0
  -38.0391   58.3417   61.0586 C   0  0  0  0  0  0  0  0  0  0  0  0
  -38.4616   59.7566   60.7288 C   0  0  0  0  0  0  0  0  0  0  0  0
  -39.8045   60.0275   61.2168 N   0  0  0  0  0  0  0  0  0  0  0  0
  -39.1271   60.5324   63.3096 O   0  0  0  0  0  0  0  0  0  0  0  0
  -40.0413   60.3981   62.4798 C   0  0  0  0  0  0  0  0  0  0  0  0
  -40.5641   59.9350   60.5973 H   0  0  0  0  0  0  0  0  0  0  0  0
  -42.1436   59.7597   63.6401 C   0  0  0  0  0  0  0  0  0  0  0  0
  -41.4750   60.5522   62.8133 C   0  0  0  0  0  0  0  0  0  0  0  0
  -41.6208   58.5871   64.4096 C   0  0  0  0  0  0  0  0  0  0  0  0
  -42.5149   58.2466   65.5956 C   0  0  0  0  0  0  0  0  0  0  0  0
  -43.5037   57.1277   65.3170 C   0  0  0  0  0  0  0  0  0  0  0  0
  -44.9244   57.6151   65.0861 C   0  0  0  0  0  0  0  0  0  0  0  0
  -45.6262   58.1127   66.3357 C   0  0  0  0  0  0  0  0  0  0  0  0
  -47.0465   58.5903   66.0824 C   0  0  0  0  0  0  0  0  0  0  0  0
  -47.2287   59.2609   64.7349 C   0  0  0  0  0  0  0  0  0  0  0  0
  -48.4747   60.1204   64.6619 C   0  0  0  0  0  0  0  0  0  0  0  0
  -49.7713   59.3622   64.8717 C   0  0  0  0  0  0  0  0  0  0  0  0
  -50.9568   60.0346   64.2081 C   0  0  0  0  0  0  0  0  0  0  0  0
  -51.4238   59.3207   62.9501 C   0  0  0  0  0  0  0  0  0  0  0  0
  -50.5421   58.1566   62.5326 C   0  0  0  0  0  0  0  0  0  0  0  0
  -50.5933   57.8362   61.0468 C   0  0  0  0  0  0  0  0  0  0  0  0
  -49.4298   58.4112   60.2507 C   0  0  0  0  0  0  0  0  0  0  0  0
  -48.5157   57.3484   59.6626 C   0  0  0  0  0  0  0  0  0  0  0  0
  -46.8358   58.3298   58.0529 C   0  0  0  0  0  0  0  0  0  0  0  0
  -48.1331   57.5814   58.2123 C   0  0  0  0  0  0  0  0  0  0  0  0
 43 45  1  0  0  0
 43 42  1  0  0  0
 43 46  1  0  0  0
 64 65  1  0  0  0
 44 45  2  0  0  0
 65 63  1  0  0  0
  2  1  1  0  0  0
  2  4  1  0  0  0
  2  5  1  0  0  0
  3  4  2  0  0  0
 63 62  1  0  0  0
  6  8  1  0  0  0
  6 11  2  0  0  0
  7 10  1  0  0  0
  7 11  1  0  0  0
 62 61  1  0  0  0
 26 28  1  0  0  0
 26 32  1  0  0  0
 26 29  1  0  0  0
 12 18  1  0  0  0
 12 19  1  0  0  0
 61 60  1  0  0  0
 30 36  1  0  0  0
 30 37  1  0  0  0
 30 38  1  0  0  0
 20 21  2  0  0  0
 60 59  1  0  0  0
 22 21  1  0  0  0
 22 23  1  0  0  0
 59 58  1  0  0  0
 27 28  2  0  0  0
 58 57  1  0  0  0
 31 37  2  0  0  0
 57 56  1  0  0  0
 56 55  1  0  0  0
 55 54  1  0  0  0
 54 53  1  0  0  0
 53 52  1  0  0  0
 52 51  1  0  0  0
 51 50  1  0  0  0
 50 49  1  0  0  0
 49 47  1  0  0  0
 47 48  2  0  0  0
 48 45  1  0  0  0
 42 41  1  0  0  0
 41 40  1  0  0  0
 40 39  1  0  0  0
 39  1  1  0  0  0
  1 21  1  0  0  0
  8  4  1  0  0  0
  8  9  1  0  0  0
  8 10  1  0  0  0
 11 13  1  0  0  0
 13 14  2  0  0  0
 13 18  1  0  0  0
 14 15  1  0  0  0
 15 16  2  0  0  0
 16 17  1  0  0  0
 17 18  2  0  0  0
 23 24  1  0  0  0
 23 25  1  0  0  0
 25 28  1  0  0  0
 32 33  1  0  0  0
 32 37  1  0  0  0
 33 34  1  0  0  0
 34 35  1  0  0  0
 35 36  1  0  0  0
M  END
> <minimizedAffinity>
-10.81371

> <CNNscore>
0.3855398595

> <CNNaffinity>
7.4773254395

> <CNN_VS>
2.8828070164

> <CNNaffinity_variance>
0.5587990880

$$$$
/media/chris/experiments/cd1a-new-docking/inputs/ligands/7ryo_ligand.pdb


 65 67  0  0  0  0  0  0  0  0999 V2000
  -33.6492   57.8912   62.9422 C   0  0  0  0  0  0  0  0  0  0  0  0
  -34.3500   59.1053   63.3259 N   0  0  0  0  0  0  0  0  0  0  0  0
  -34.8723   58.3317   65.3710 O   0  0  0  0  0  0  0  0  0  0  0  0
  -34.9111   59.2194   64.5322 C   0  0  0  0  0  0  0  0  0  0  0  0
  -34.4119   59.8530   62.6884 H   0  0  0  0  0  0  0  0  0  0  0  0
  -34.7649   61.4421   65.5858 N   0  0  0  0  0  0  0  0  0  0  0  0
  -35.5591   62.6643   63.8658 O   0  0  0  0  0  0  0  0  0  0  0  0
  -35.6537   60.5277   64.8498 C   0  0  0  0  0  0  0  0  0  0  0  0
  -36.8672   60.2083   65.7178 C   0  0  0  0  0  0  0  0  0  0  0  0
  -36.0459   61.3250   63.5971 C   0  0  0  0  0  0  0  0  0  0  0  0
  -34.7838   62.5543   64.9759 C   0  0  0  0  0  0  0  0  0  0  0  0
  -33.8133   63.0056   67.6476 O   0  0  0  0  0  0  0  0  0  0  0  0
  -34.0450   63.7607   65.3561 C   0  0  0  0  0  0  0  0  0  0  0  0
  -33.6582   64.6818   64.3816 C   0  0  0  0  0  0  0  0  0  0  0  0
  -32.7595   65.6897   64.6854 C   0  0  0  0  0  0  0  0  0  0  0  0
  -32.2347   65.7974   65.9549 C   0  0  0  0  0  0  0  0  0  0  0  0
  -32.5981   64.8946   66.9376 C   0  0  0  0  0  0  0  0  0  0  0  0
  -33.4984   63.8733   66.6510 C   0  0  0  0  0  0  0  0  0  0  0  0
  -34.4165   62.3067   67.4871 H   0  0  0  0  0  0  0  0  0  0  0  0
  -32.0987   58.2776   61.1291 O   0  0  0  0  0  0  0  0  0  0  0  0
  -32.3025   58.2091   62.3097 C   0  0  0  0  0  0  0  0  0  0  0  0
  -31.3653   58.3823   63.2579 O   0  0  0  0  0  0  0  0  0  0  0  0
  -30.2773   57.4030   63.3418 C   0  0  0  0  0  0  0  0  0  0  0  0
  -29.9411   57.2011   64.7977 C   0  0  0  0  0  0  0  0  0  0  0  0
  -29.1251   58.0062   62.5620 C   0  0  0  0  0  0  0  0  0  0  0  0
  -29.6309   60.2063   61.6982 N   0  0  0  0  0  0  0  0  0  0  0  0
  -28.5071   60.0519   63.6411 O   0  0  0  0  0  0  0  0  0  0  0  0
  -29.0550   59.5121   62.6840 C   0  0  0  0  0  0  0  0  0  0  0  0
  -30.0555   59.7193   60.9553 H   0  0  0  0  0  0  0  0  0  0  0  0
  -31.0248   63.3841   62.7239 N   0  0  0  0  0  0  0  0  0  0  0  0
  -31.9197   61.3552   62.3873 O   0  0  0  0  0  0  0  0  0  0  0  0
  -29.6485   61.6586   61.6912 C   0  0  0  0  0  0  0  0  0  0  0  0
  -29.5361   62.1799   60.2542 C   0  0  0  0  0  0  0  0  0  0  0  0
  -29.0958   63.6370   60.1655 C   0  0  0  0  0  0  0  0  0  0  0  0
  -30.0311   64.6406   60.8102 C   0  0  0  0  0  0  0  0  0  0  0  0
  -30.1652   64.4882   62.3109 C   0  0  0  0  0  0  0  0  0  0  0  0
  -30.9640   62.1204   62.2980 C   0  0  0  0  0  0  0  0  0  0  0  0
  -31.7226   63.5929   63.3861 H   0  0  0  0  0  0  0  0  0  0  0  0
  -34.5012   57.0295   62.0091 C   0  0  0  0  0  0  0  0  0  0  0  0
  -35.7228   57.7760   61.4840 C   0  0  0  0  0  0  0  0  0  0  0  0
  -37.0153   57.3553   62.1586 C   0  0  0  0  0  0  0  0  0  0  0  0
  -38.2378   58.1352   61.7266 C   0  0  0  0  0  0  0  0  0  0  0  0
  -39.4122   57.2789   61.6759 N   0  0  0  0  0  0  0  0  0  0  0  0
  -40.7830   58.9126   60.9373 O   0  0  0  0  0  0  0  0  0  0  0  0
  -40.6071   57.7326   61.2824 C   0  0  0  0  0  0  0  0  0  0  0  0
  -39.3246   56.3345   61.9398 H   0  0  0  0  0  0  0  0  0  0  0  0
  -42.4085   56.4963   62.4657 C   0  0  0  0  0  0  0  0  0  0  0  0
  -41.6988   56.7372   61.3717 C   0  0  0  0  0  0  0  0  0  0  0  0
  -42.2877   57.1605   63.8016 C   0  0  0  0  0  0  0  0  0  0  0  0
  -43.5111   56.9023   64.6727 C   0  0  0  0  0  0  0  0  0  0  0  0
  -44.4863   58.0657   64.7210 C   0  0  0  0  0  0  0  0  0  0  0  0
  -45.8680   57.6807   65.2229 C   0  0  0  0  0  0  0  0  0  0  0  0
  -47.0010   58.4893   64.6193 C   0  0  0  0  0  0  0  0  0  0  0  0
  -48.3303   58.2918   65.3288 C   0  0  0  0  0  0  0  0  0  0  0  0
  -48.8256   59.5336   66.0437 C   0  0  0  0  0  0  0  0  0  0  0  0
  -50.2334   59.9280   65.6448 C   0  0  0  0  0  0  0  0  0  0  0  0
  -50.3672   60.4056   64.2116 C   0  0  0  0  0  0  0  0  0  0  0  0
  -51.4571   59.6768   63.4508 C   0  0  0  0  0  0  0  0  0  0  0  0
  -50.9180   58.7368   62.3851 C   0  0  0  0  0  0  0  0  0  0  0  0
  -49.5561   59.1308   61.8402 C   0  0  0  0  0  0  0  0  0  0  0  0
  -49.3400   58.7693   60.3788 C   0  0  0  0  0  0  0  0  0  0  0  0
  -48.2483   57.7320   60.1543 C   0  0  0  0  0  0  0  0  0  0  0  0
  -47.4537   57.9569   58.8780 C   0  0  0  0  0  0  0  0  0  0  0  0
  -47.0906   56.8392   56.6429 C   0  0  0  0  0  0  0  0  0  0  0  0
  -48.0935   57.3777   57.6293 C   0  0  0  0  0  0  0  0  0  0  0  0
 43 45  1  0  0  0
 43 42  1  0  0  0
 43 46  1  0  0  0
 64 65  1  0  0  0
 44 45  2  0  0  0
 65 63  1  0  0  0
  2  1  1  0  0  0
  2  4  1  0  0  0
  2  5  1  0  0  0
  3  4  2  0  0  0
 63 62  1  0  0  0
  6  8  1  0  0  0
  6 11  2  0  0  0
  7 10  1  0  0  0
  7 11  1  0  0  0
 62 61  1  0  0  0
 26 28  1  0  0  0
 26 32  1  0  0  0
 26 29  1  0  0  0
 12 18  1  0  0  0
 12 19  1  0  0  0
 61 60  1  0  0  0
 30 36  1  0  0  0
 30 37  1  0  0  0
 30 38  1  0  0  0
 20 21  2  0  0  0
 60 59  1  0  0  0
 22 21  1  0  0  0
 22 23  1  0  0  0
 59 58  1  0  0  0
 27 28  2  0  0  0
 58 57  1  0  0  0
 31 37  2  0  0  0
 57 56  1  0  0  0
 56 55  1  0  0  0
 55 54  1  0  0  0
 54 53  1  0  0  0
 53 52  1  0  0  0
 52 51  1  0  0  0
 51 50  1  0  0  0
 50 49  1  0  0  0
 49 47  1  0  0  0
 47 48  2  0  0  0
 48 45  1  0  0  0
 42 41  1  0  0  0
 41 40  1  0  0  0
 40 39  1  0  0  0
 39  1  1  0  0  0
  1 21  1  0  0  0
  8  4  1  0  0  0
  8  9  1  0  0  0
  8 10  1  0  0  0
 11 13  1  0  0  0
 13 14  2  0  0  0
 13 18  1  0  0  0
 14 15  1  0  0  0
 15 16  2  0  0  0
 16 17  1  0  0  0
 17 18  2  0  0  0
 23 24  1  0  0  0
 23 25  1  0  0  0
 25 28  1  0  0  0
 32 33  1  0  0  0
 32 37  1  0  0  0
 33 34  1  0  0  0
 34 35  1  0  0  0
 35 36  1  0  0  0
M  END
> <minimizedAffinity>
-10.60755

> <CNNscore>
0.3491857350

> <CNNaffinity>
7.2498841286

> <CNN_VS>
2.5315561295

> <CNNaffinity_variance>
0.4315557480

$$$$
/media/chris/experiments/cd1a-new-docking/inputs/ligands/7ryo_ligand.pdb


 65 67  0  0  0  0  0  0  0  0999 V2000
  -34.3681   59.1902   62.9083 C   0  0  0  0  0  0  0  0  0  0  0  0
  -32.9468   59.0199   63.1601 N   0  0  0  0  0  0  0  0  0  0  0  0
  -32.3423   60.5339   61.6122 O   0  0  0  0  0  0  0  0  0  0  0  0
  -32.0414   59.7222   62.4746 C   0  0  0  0  0  0  0  0  0  0  0  0
  -32.6479   58.3786   63.8447 H   0  0  0  0  0  0  0  0  0  0  0  0
  -30.3982   58.1374   63.4022 N   0  0  0  0  0  0  0  0  0  0  0  0
  -28.9278   58.1644   61.6934 O   0  0  0  0  0  0  0  0  0  0  0  0
  -30.5578   59.4650   62.7860 C   0  0  0  0  0  0  0  0  0  0  0  0
  -30.0670   60.5289   63.7633 C   0  0  0  0  0  0  0  0  0  0  0  0
  -29.6751   59.3966   61.5310 C   0  0  0  0  0  0  0  0  0  0  0  0
  -29.5065   57.5228   62.7416 C   0  0  0  0  0  0  0  0  0  0  0  0
  -28.4275   55.8358   60.6743 O   0  0  0  0  0  0  0  0  0  0  0  0
  -29.0208   56.1654   63.0013 C   0  0  0  0  0  0  0  0  0  0  0  0
  -28.9337   55.6909   64.3107 C   0  0  0  0  0  0  0  0  0  0  0  0
  -28.2557   54.5165   64.5884 C   0  0  0  0  0  0  0  0  0  0  0  0
  -27.6576   53.7997   63.5748 C   0  0  0  0  0  0  0  0  0  0  0  0
  -27.7254   54.2506   62.2692 C   0  0  0  0  0  0  0  0  0  0  0  0
  -28.4005   55.4299   61.9704 C   0  0  0  0  0  0  0  0  0  0  0  0
  -28.8738   56.6256   60.4400 H   0  0  0  0  0  0  0  0  0  0  0  0
  -36.2618   59.8840   64.2398 O   0  0  0  0  0  0  0  0  0  0  0  0
  -35.0716   59.7995   64.1117 C   0  0  0  0  0  0  0  0  0  0  0  0
  -34.1734   60.2503   65.0047 O   0  0  0  0  0  0  0  0  0  0  0  0
  -34.0202   61.7002   65.1597 C   0  0  0  0  0  0  0  0  0  0  0  0
  -34.8261   62.1300   66.3594 C   0  0  0  0  0  0  0  0  0  0  0  0
  -34.5391   62.3050   63.8695 C   0  0  0  0  0  0  0  0  0  0  0  0
  -32.8137   63.9697   64.1761 N   0  0  0  0  0  0  0  0  0  0  0  0
  -33.6083   63.6219   62.1002 O   0  0  0  0  0  0  0  0  0  0  0  0
  -33.6163   63.3591   63.2995 C   0  0  0  0  0  0  0  0  0  0  0  0
  -32.8641   63.7177   65.1265 H   0  0  0  0  0  0  0  0  0  0  0  0
  -29.4886   65.3949   64.0994 N   0  0  0  0  0  0  0  0  0  0  0  0
  -30.5903   64.1555   65.6097 O   0  0  0  0  0  0  0  0  0  0  0  0
  -31.8691   64.9943   63.7669 C   0  0  0  0  0  0  0  0  0  0  0  0
  -32.4517   66.3861   64.0375 C   0  0  0  0  0  0  0  0  0  0  0  0
  -31.7660   67.4987   63.2520 C   0  0  0  0  0  0  0  0  0  0  0  0
  -30.2922   67.6926   63.5485 C   0  0  0  0  0  0  0  0  0  0  0  0
  -29.4222   66.5137   63.1654 C   0  0  0  0  0  0  0  0  0  0  0  0
  -30.5925   64.8122   64.5726 C   0  0  0  0  0  0  0  0  0  0  0  0
  -28.6293   65.0316   64.4136 H   0  0  0  0  0  0  0  0  0  0  0  0
  -35.0227   57.8683   62.5042 C   0  0  0  0  0  0  0  0  0  0  0  0
  -35.6659   57.9375   61.1233 C   0  0  0  0  0  0  0  0  0  0  0  0
  -37.1689   58.1394   61.1740 C   0  0  0  0  0  0  0  0  0  0  0  0
  -37.9002   57.2142   62.1219 C   0  0  0  0  0  0  0  0  0  0  0  0
  -39.3386   57.4129   62.0393 N   0  0  0  0  0  0  0  0  0  0  0  0
  -39.4953   58.3743   64.0751 O   0  0  0  0  0  0  0  0  0  0  0  0
  -40.0362   57.9821   63.0282 C   0  0  0  0  0  0  0  0  0  0  0  0
  -39.8141   57.1187   61.2290 H   0  0  0  0  0  0  0  0  0  0  0  0
  -42.4050   57.5377   63.6318 C   0  0  0  0  0  0  0  0  0  0  0  0
  -41.4975   58.0275   62.7982 C   0  0  0  0  0  0  0  0  0  0  0  0
  -42.1724   56.8708   64.9515 C   0  0  0  0  0  0  0  0  0  0  0  0
  -42.1603   57.8757   66.0970 C   0  0  0  0  0  0  0  0  0  0  0  0
  -43.5286   58.4474   66.4260 C   0  0  0  0  0  0  0  0  0  0  0  0
  -44.6297   57.4011   66.4727 C   0  0  0  0  0  0  0  0  0  0  0  0
  -45.9548   57.9106   67.0076 C   0  0  0  0  0  0  0  0  0  0  0  0
  -46.7797   58.6554   65.9711 C   0  0  0  0  0  0  0  0  0  0  0  0
  -48.2756   58.4919   66.1562 C   0  0  0  0  0  0  0  0  0  0  0  0
  -49.0324   58.4171   64.8453 C   0  0  0  0  0  0  0  0  0  0  0  0
  -50.5242   58.6605   64.9692 C   0  0  0  0  0  0  0  0  0  0  0  0
  -51.0310   59.7011   63.9903 C   0  0  0  0  0  0  0  0  0  0  0  0
  -50.5461   59.4722   62.5681 C   0  0  0  0  0  0  0  0  0  0  0  0
  -51.0375   58.1773   61.9448 C   0  0  0  0  0  0  0  0  0  0  0  0
  -49.9302   57.2823   61.4101 C   0  0  0  0  0  0  0  0  0  0  0  0
  -48.7656   58.0435   60.7915 C   0  0  0  0  0  0  0  0  0  0  0  0
  -48.0326   57.2578   59.7162 C   0  0  0  0  0  0  0  0  0  0  0  0
  -46.4818   58.1270   57.9229 C   0  0  0  0  0  0  0  0  0  0  0  0
  -47.9073   57.9791   58.3866 C   0  0  0  0  0  0  0  0  0  0  0  0
 43 45  1  0  0  0
 43 42  1  0  0  0
 43 46  1  0  0  0
 64 65  1  0  0  0
 44 45  2  0  0  0
 65 63  1  0  0  0
  2  1  1  0  0  0
  2  4  1  0  0  0
  2  5  1  0  0  0
  3  4  2  0  0  0
 63 62  1  0  0  0
  6  8  1  0  0  0
  6 11  2  0  0  0
  7 10  1  0  0  0
  7 11  1  0  0  0
 62 61  1  0  0  0
 26 28  1  0  0  0
 26 32  1  0  0  0
 26 29  1  0  0  0
 12 18  1  0  0  0
 12 19  1  0  0  0
 61 60  1  0  0  0
 30 36  1  0  0  0
 30 37  1  0  0  0
 30 38  1  0  0  0
 20 21  2  0  0  0
 60 59  1  0  0  0
 22 21  1  0  0  0
 22 23  1  0  0  0
 59 58  1  0  0  0
 27 28  2  0  0  0
 58 57  1  0  0  0
 31 37  2  0  0  0
 57 56  1  0  0  0
 56 55  1  0  0  0
 55 54  1  0  0  0
 54 53  1  0  0  0
 53 52  1  0  0  0
 52 51  1  0  0  0
 51 50  1  0  0  0
 50 49  1  0  0  0
 49 47  1  0  0  0
 47 48  2  0  0  0
 48 45  1  0  0  0
 42 41  1  0  0  0
 41 40  1  0  0  0
 40 39  1  0  0  0
 39  1  1  0  0  0
  1 21  1  0  0  0
  8  4  1  0  0  0
  8  9  1  0  0  0
  8 10  1  0  0  0
 11 13  1  0  0  0
 13 14  2  0  0  0
 13 18  1  0  0  0
 14 15  1  0  0  0
 15 16  2  0  0  0
 16 17  1  0  0  0
 17 18  2  0  0  0
 23 24  1  0  0  0
 23 25  1  0  0  0
 25 28  1  0  0  0
 32 33  1  0  0  0
 32 37  1  0  0  0
 33 34  1  0  0  0
 34 35  1  0  0  0
 35 36  1  0  0  0
M  END
> <minimizedAffinity>
-10.11880

> <CNNscore>
0.3416060209

> <CNNaffinity>
7.4551453590

> <CNN_VS>
2.5467226505

> <CNNaffinity_variance>
0.1441398412

$$$$
/media/chris/experiments/cd1a-new-docking/inputs/ligands/7ryo_ligand.pdb


 65 67  0  0  0  0  0  0  0  0999 V2000
  -34.9308   60.1825   63.7233 C   0  0  0  0  0  0  0  0  0  0  0  0
  -33.5208   60.0519   63.3956 N   0  0  0  0  0  0  0  0  0  0  0  0
  -33.8462   58.2745   62.0582 O   0  0  0  0  0  0  0  0  0  0  0  0
  -33.0954   59.0886   62.5746 C   0  0  0  0  0  0  0  0  0  0  0  0
  -32.8712   60.6815   63.7840 H   0  0  0  0  0  0  0  0  0  0  0  0
  -30.9711   57.9924   63.1727 N   0  0  0  0  0  0  0  0  0  0  0  0
  -30.2938   57.4504   61.0918 O   0  0  0  0  0  0  0  0  0  0  0  0
  -31.5851   59.0055   62.2985 C   0  0  0  0  0  0  0  0  0  0  0  0
  -30.9544   60.3634   62.5920 C   0  0  0  0  0  0  0  0  0  0  0  0
  -31.2511   58.5190   60.8806 C   0  0  0  0  0  0  0  0  0  0  0  0
  -30.3057   57.2095   62.4287 C   0  0  0  0  0  0  0  0  0  0  0  0
  -28.7152   55.6251   60.6277 O   0  0  0  0  0  0  0  0  0  0  0  0
  -29.5266   56.0508   62.8717 C   0  0  0  0  0  0  0  0  0  0  0  0
  -29.4169   55.7588   64.2319 C   0  0  0  0  0  0  0  0  0  0  0  0
  -28.4968   54.8258   64.6778 C   0  0  0  0  0  0  0  0  0  0  0  0
  -27.6767   54.1722   63.7840 C   0  0  0  0  0  0  0  0  0  0  0  0
  -27.7622   54.4467   62.4312 C   0  0  0  0  0  0  0  0  0  0  0  0
  -28.6792   55.3829   61.9639 C   0  0  0  0  0  0  0  0  0  0  0  0
  -29.3214   56.2497   60.2810 H   0  0  0  0  0  0  0  0  0  0  0  0
  -35.5467   62.4054   63.0023 O   0  0  0  0  0  0  0  0  0  0  0  0
  -35.3222   61.6419   63.9005 C   0  0  0  0  0  0  0  0  0  0  0  0
  -35.3613   61.9646   65.2050 O   0  0  0  0  0  0  0  0  0  0  0  0
  -34.2169   62.6829   65.7743 C   0  0  0  0  0  0  0  0  0  0  0  0
  -34.2096   62.4455   67.2634 C   0  0  0  0  0  0  0  0  0  0  0  0
  -34.4363   64.1419   65.4239 C   0  0  0  0  0  0  0  0  0  0  0  0
  -32.7272   64.0692   63.7162 N   0  0  0  0  0  0  0  0  0  0  0  0
  -32.7996   65.8553   65.0824 O   0  0  0  0  0  0  0  0  0  0  0  0
  -33.2462   64.7671   64.7306 C   0  0  0  0  0  0  0  0  0  0  0  0
  -33.1271   63.2015   63.4787 H   0  0  0  0  0  0  0  0  0  0  0  0
  -31.1522   65.0416   60.6070 N   0  0  0  0  0  0  0  0  0  0  0  0
  -32.7531   63.5549   61.1146 O   0  0  0  0  0  0  0  0  0  0  0  0
  -31.5899   64.5540   62.9540 C   0  0  0  0  0  0  0  0  0  0  0  0
  -30.3257   63.7797   63.3439 C   0  0  0  0  0  0  0  0  0  0  0  0
  -29.0318   64.4884   62.9583 C   0  0  0  0  0  0  0  0  0  0  0  0
  -28.8338   64.7207   61.4736 C   0  0  0  0  0  0  0  0  0  0  0  0
  -29.8508   65.6543   60.8510 C   0  0  0  0  0  0  0  0  0  0  0  0
  -31.8819   64.3400   61.4773 C   0  0  0  0  0  0  0  0  0  0  0  0
  -31.5320   65.1578   59.7062 H   0  0  0  0  0  0  0  0  0  0  0  0
  -35.2902   59.3657   64.9654 C   0  0  0  0  0  0  0  0  0  0  0  0
  -36.3229   58.2834   64.6694 C   0  0  0  0  0  0  0  0  0  0  0  0
  -37.1279   58.5540   63.4120 C   0  0  0  0  0  0  0  0  0  0  0  0
  -38.4503   57.8226   63.3374 C   0  0  0  0  0  0  0  0  0  0  0  0
  -39.2430   58.0539   64.5345 N   0  0  0  0  0  0  0  0  0  0  0  0
  -41.0178   58.8754   63.4081 O   0  0  0  0  0  0  0  0  0  0  0  0
  -40.4770   58.5668   64.4827 C   0  0  0  0  0  0  0  0  0  0  0  0
  -38.8586   57.8256   65.4117 H   0  0  0  0  0  0  0  0  0  0  0  0
  -42.1295   58.1237   66.2846 C   0  0  0  0  0  0  0  0  0  0  0  0
  -41.0967   58.8039   65.8057 C   0  0  0  0  0  0  0  0  0  0  0  0
  -42.8644   56.9938   65.6336 C   0  0  0  0  0  0  0  0  0  0  0  0
  -44.1549   57.4655   64.9747 C   0  0  0  0  0  0  0  0  0  0  0  0
  -45.0565   58.2683   65.8966 C   0  0  0  0  0  0  0  0  0  0  0  0
  -46.5357   57.9780   65.7048 C   0  0  0  0  0  0  0  0  0  0  0  0
  -47.2169   58.8558   64.6718 C   0  0  0  0  0  0  0  0  0  0  0  0
  -48.2102   59.8371   65.2719 C   0  0  0  0  0  0  0  0  0  0  0  0
  -49.2033   59.1911   66.2179 C   0  0  0  0  0  0  0  0  0  0  0  0
  -50.5978   59.0843   65.6343 C   0  0  0  0  0  0  0  0  0  0  0  0
  -51.0066   60.2621   64.7706 C   0  0  0  0  0  0  0  0  0  0  0  0
  -51.5130   59.8394   63.4058 C   0  0  0  0  0  0  0  0  0  0  0  0
  -50.3973   59.5777   62.4073 C   0  0  0  0  0  0  0  0  0  0  0  0
  -50.0097   58.1149   62.2779 C   0  0  0  0  0  0  0  0  0  0  0  0
  -50.5813   57.4240   61.0496 C   0  0  0  0  0  0  0  0  0  0  0  0
  -50.1070   58.0179   59.7303 C   0  0  0  0  0  0  0  0  0  0  0  0
  -48.9038   57.2992   59.1415 C   0  0  0  0  0  0  0  0  0  0  0  0
  -46.4790   57.4415   58.4511 C   0  0  0  0  0  0  0  0  0  0  0  0
  -47.7221   58.2009   58.8339 C   0  0  0  0  0  0  0  0  0  0  0  0
 43 45  1  0  0  0
 43 42  1  0  0  0
 43 46  1  0  0  0
 64 65  1  0  0  0
 44 45  2  0  0  0
 65 63  1  0  0  0
  2  1  1  0  0  0
  2  4  1  0  0  0
  2  5  1  0  0  0
  3  4  2  0  0  0
 63 62  1  0  0  0
  6  8  1  0  0  0
  6 11  2  0  0  0
  7 10  1  0  0  0
  7 11  1  0  0  0
 62 61  1  0  0  0
 26 28  1  0  0  0
 26 32  1  0  0  0
 26 29  1  0  0  0
 12 18  1  0  0  0
 12 19  1  0  0  0
 61 60  1  0  0  0
 30 36  1  0  0  0
 30 37  1  0  0  0
 30 38  1  0  0  0
 20 21  2  0  0  0
 60 59  1  0  0  0
 22 21  1  0  0  0
 22 23  1  0  0  0
 59 58  1  0  0  0
 27 28  2  0  0  0
 58 57  1  0  0  0
 31 37  2  0  0  0
 57 56  1  0  0  0
 56 55  1  0  0  0
 55 54  1  0  0  0
 54 53  1  0  0  0
 53 52  1  0  0  0
 52 51  1  0  0  0
 51 50  1  0  0  0
 50 49  1  0  0  0
 49 47  1  0  0  0
 47 48  2  0  0  0
 48 45  1  0  0  0
 42 41  1  0  0  0
 41 40  1  0  0  0
 40 39  1  0  0  0
 39  1  1  0  0  0
  1 21  1  0  0  0
  8  4  1  0  0  0
  8  9  1  0  0  0
  8 10  1  0  0  0
 11 13  1  0  0  0
 13 14  2  0  0  0
 13 18  1  0  0  0
 14 15  1  0  0  0
 15 16  2  0  0  0
 16 17  1  0  0  0
 17 18  2  0  0  0
 23 24  1  0  0  0
 23 25  1  0  0  0
 25 28  1  0  0  0
 32 33  1  0  0  0
 32 37  1  0  0  0
 33 34  1  0  0  0
 34 35  1  0  0  0
 35 36  1  0  0  0
M  END
> <minimizedAffinity>
-11.12552

> <CNNscore>
0.3195132613

> <CNNaffinity>
7.1859383583

> <CNN_VS>
2.2960026264

> <CNNaffinity_variance>
0.4244061410

$$$$
/media/chris/experiments/cd1a-new-docking/inputs/ligands/7ryo_ligand.pdb


 65 67  0  0  0  0  0  0  0  0999 V2000
  -34.4973   59.8355   64.1213 C   0  0  0  0  0  0  0  0  0  0  0  0
  -34.3959   61.2597   64.3930 N   0  0  0  0  0  0  0  0  0  0  0  0
  -35.1954   61.0659   66.4852 O   0  0  0  0  0  0  0  0  0  0  0  0
  -34.7621   61.7583   65.5764 C   0  0  0  0  0  0  0  0  0  0  0  0
  -34.0532   61.8644   63.6959 H   0  0  0  0  0  0  0  0  0  0  0  0
  -33.2270   63.6722   65.8059 N   0  0  0  0  0  0  0  0  0  0  0  0
  -34.1698   65.0247   64.2681 O   0  0  0  0  0  0  0  0  0  0  0  0
  -34.6454   63.2787   65.7739 C   0  0  0  0  0  0  0  0  0  0  0  0
  -35.2957   63.6552   67.1018 C   0  0  0  0  0  0  0  0  0  0  0  0
  -35.2262   64.0908   64.6070 C   0  0  0  0  0  0  0  0  0  0  0  0
  -33.0793   64.6092   64.9635 C   0  0  0  0  0  0  0  0  0  0  0  0
  -31.2162   65.4165   67.0033 O   0  0  0  0  0  0  0  0  0  0  0  0
  -31.8288   65.3093   64.6605 C   0  0  0  0  0  0  0  0  0  0  0  0
  -31.4269   65.4842   63.3357 C   0  0  0  0  0  0  0  0  0  0  0  0
  -30.1464   65.9201   63.0420 C   0  0  0  0  0  0  0  0  0  0  0  0
  -29.2510   66.1877   64.0546 C   0  0  0  0  0  0  0  0  0  0  0  0
  -29.6228   66.0181   65.3758 C   0  0  0  0  0  0  0  0  0  0  0  0
  -30.9047   65.5787   65.6910 C   0  0  0  0  0  0  0  0  0  0  0  0
  -32.0711   65.1220   67.2489 H   0  0  0  0  0  0  0  0  0  0  0  0
  -32.7773   58.2657   63.4748 O   0  0  0  0  0  0  0  0  0  0  0  0
  -33.2955   59.3386   63.3317 C   0  0  0  0  0  0  0  0  0  0  0  0
  -32.8801   60.2778   62.4641 O   0  0  0  0  0  0  0  0  0  0  0  0
  -31.5007   60.7617   62.5768 C   0  0  0  0  0  0  0  0  0  0  0  0
  -31.5026   62.2460   62.3117 C   0  0  0  0  0  0  0  0  0  0  0  0
  -30.7121   59.9908   61.5359 C   0  0  0  0  0  0  0  0  0  0  0  0
  -30.0672   57.7399   62.1357 N   0  0  0  0  0  0  0  0  0  0  0  0
  -28.6476   59.4209   62.6056 O   0  0  0  0  0  0  0  0  0  0  0  0
  -29.7157   59.0290   62.1440 C   0  0  0  0  0  0  0  0  0  0  0  0
  -30.9370   57.4839   61.7520 H   0  0  0  0  0  0  0  0  0  0  0  0
  -27.9087   54.8618   61.7469 N   0  0  0  0  0  0  0  0  0  0  0  0
  -29.6885   55.6082   60.6041 O   0  0  0  0  0  0  0  0  0  0  0  0
  -29.2027   56.7056   62.6764 C   0  0  0  0  0  0  0  0  0  0  0  0
  -29.8772   56.0289   63.8751 C   0  0  0  0  0  0  0  0  0  0  0  0
  -28.9068   55.2710   64.7746 C   0  0  0  0  0  0  0  0  0  0  0  0
  -28.1702   54.1216   64.1160 C   0  0  0  0  0  0  0  0  0  0  0  0
  -27.2354   54.5418   63.0010 C   0  0  0  0  0  0  0  0  0  0  0  0
  -28.9540   55.6763   61.5853 C   0  0  0  0  0  0  0  0  0  0  0  0
  -27.5550   54.4323   60.9348 H   0  0  0  0  0  0  0  0  0  0  0  0
  -35.8026   59.4996   63.3986 C   0  0  0  0  0  0  0  0  0  0  0  0
  -36.1649   58.0226   63.5113 C   0  0  0  0  0  0  0  0  0  0  0  0
  -36.3504   57.3487   62.1645 C   0  0  0  0  0  0  0  0  0  0  0  0
  -36.2035   58.2676   60.9714 C   0  0  0  0  0  0  0  0  0  0  0  0
  -37.4730   58.4344   60.2816 N   0  0  0  0  0  0  0  0  0  0  0  0
  -37.7357   60.5819   60.9242 O   0  0  0  0  0  0  0  0  0  0  0  0
  -38.1513   59.5867   60.3083 C   0  0  0  0  0  0  0  0  0  0  0  0
  -37.8452   57.6742   59.7788 H   0  0  0  0  0  0  0  0  0  0  0  0
  -40.4880   58.8005   60.0001 C   0  0  0  0  0  0  0  0  0  0  0  0
  -39.4586   59.5429   59.6159 C   0  0  0  0  0  0  0  0  0  0  0  0
  -40.5691   57.8879   61.1838 C   0  0  0  0  0  0  0  0  0  0  0  0
  -41.5549   56.7493   60.9519 C   0  0  0  0  0  0  0  0  0  0  0  0
  -41.9320   55.9973   62.2165 C   0  0  0  0  0  0  0  0  0  0  0  0
  -42.3694   56.9034   63.3553 C   0  0  0  0  0  0  0  0  0  0  0  0
  -42.1030   56.3421   64.7394 C   0  0  0  0  0  0  0  0  0  0  0  0
  -43.0497   56.8762   65.8016 C   0  0  0  0  0  0  0  0  0  0  0  0
  -44.3120   57.4937   65.2325 C   0  0  0  0  0  0  0  0  0  0  0  0
  -45.0652   58.3410   66.2381 C   0  0  0  0  0  0  0  0  0  0  0  0
  -46.1869   57.6135   66.9542 C   0  0  0  0  0  0  0  0  0  0  0  0
  -47.1050   56.8719   66.0028 C   0  0  0  0  0  0  0  0  0  0  0  0
  -48.5332   57.3914   66.0216 C   0  0  0  0  0  0  0  0  0  0  0  0
  -48.6504   58.8768   66.3159 C   0  0  0  0  0  0  0  0  0  0  0  0
  -48.5246   59.7680   65.0899 C   0  0  0  0  0  0  0  0  0  0  0  0
  -49.6267   60.8115   64.9694 C   0  0  0  0  0  0  0  0  0  0  0  0
  -51.0250   60.2153   64.9536 C   0  0  0  0  0  0  0  0  0  0  0  0
  -51.0894   58.7914   62.8692 C   0  0  0  0  0  0  0  0  0  0  0  0
  -51.6095   60.0211   63.5664 C   0  0  0  0  0  0  0  0  0  0  0  0
 43 45  1  0  0  0
 43 42  1  0  0  0
 43 46  1  0  0  0
 64 65  1  0  0  0
 44 45  2  0  0  0
 65 63  1  0  0  0
  2  1  1  0  0  0
  2  4  1  0  0  0
  2  5  1  0  0  0
  3  4  2  0  0  0
 63 62  1  0  0  0
  6  8  1  0  0  0
  6 11  2  0  0  0
  7 10  1  0  0  0
  7 11  1  0  0  0
 62 61  1  0  0  0
 26 28  1  0  0  0
 26 32  1  0  0  0
 26 29  1  0  0  0
 12 18  1  0  0  0
 12 19  1  0  0  0
 61 60  1  0  0  0
 30 36  1  0  0  0
 30 37  1  0  0  0
 30 38  1  0  0  0
 20 21  2  0  0  0
 60 59  1  0  0  0
 22 21  1  0  0  0
 22 23  1  0  0  0
 59 58  1  0  0  0
 27 28  2  0  0  0
 58 57  1  0  0  0
 31 37  2  0  0  0
 57 56  1  0  0  0
 56 55  1  0  0  0
 55 54  1  0  0  0
 54 53  1  0  0  0
 53 52  1  0  0  0
 52 51  1  0  0  0
 51 50  1  0  0  0
 50 49  1  0  0  0
 49 47  1  0  0  0
 47 48  2  0  0  0
 48 45  1  0  0  0
 42 41  1  0  0  0
 41 40  1  0  0  0
 40 39  1  0  0  0
 39  1  1  0  0  0
  1 21  1  0  0  0
  8  4  1  0  0  0
  8  9  1  0  0  0
  8 10  1  0  0  0
 11 13  1  0  0  0
 13 14  2  0  0  0
 13 18  1  0  0  0
 14 15  1  0  0  0
 15 16  2  0  0  0
 16 17  1  0  0  0
 17 18  2  0  0  0
 23 24  1  0  0  0
 23 25  1  0  0  0
 25 28  1  0  0  0
 32 33  1  0  0  0
 32 37  1  0  0  0
 33 34  1  0  0  0
 34 35  1  0  0  0
 35 36  1  0  0  0
M  END
> <minimizedAffinity>
-10.45561

> <CNNscore>
0.2926604152

> <CNNaffinity>
7.5452184677

> <CNN_VS>
2.2081868649

> <CNNaffinity_variance>
0.5509540439

$$$$
/media/chris/experiments/cd1a-new-docking/inputs/ligands/7ryo_ligand.pdb


 65 67  0  0  0  0  0  0  0  0999 V2000
  -35.1230   58.2919   62.6480 C   0  0  0  0  0  0  0  0  0  0  0  0
  -35.4329   59.6276   63.1300 N   0  0  0  0  0  0  0  0  0  0  0  0
  -34.8525   59.1557   65.2499 O   0  0  0  0  0  0  0  0  0  0  0  0
  -35.2664   59.9470   64.4158 C   0  0  0  0  0  0  0  0  0  0  0  0
  -35.7701   60.3054   62.5006 H   0  0  0  0  0  0  0  0  0  0  0  0
  -34.4796   62.0278   65.4753 N   0  0  0  0  0  0  0  0  0  0  0  0
  -35.1748   63.4754   63.8929 O   0  0  0  0  0  0  0  0  0  0  0  0
  -35.6401   61.3744   64.8478 C   0  0  0  0  0  0  0  0  0  0  0  0
  -36.7778   61.3013   65.8619 C   0  0  0  0  0  0  0  0  0  0  0  0
  -35.9884   62.2959   63.6695 C   0  0  0  0  0  0  0  0  0  0  0  0
  -34.3151   63.1414   64.8903 C   0  0  0  0  0  0  0  0  0  0  0  0
  -33.7278   64.0183   67.5679 O   0  0  0  0  0  0  0  0  0  0  0  0
  -33.2754   64.1291   65.1892 C   0  0  0  0  0  0  0  0  0  0  0  0
  -32.4249   64.5789   64.1784 C   0  0  0  0  0  0  0  0  0  0  0  0
  -31.2952   65.3165   64.4878 C   0  0  0  0  0  0  0  0  0  0  0  0
  -30.9954   65.6168   65.7987 C   0  0  0  0  0  0  0  0  0  0  0  0
  -31.8194   65.1791   66.8195 C   0  0  0  0  0  0  0  0  0  0  0  0
  -32.9583   64.4347   66.5287 C   0  0  0  0  0  0  0  0  0  0  0  0
  -34.5015   63.5152   67.4058 H   0  0  0  0  0  0  0  0  0  0  0  0
  -32.9811   57.1773   62.5454 O   0  0  0  0  0  0  0  0  0  0  0  0
  -33.6433   58.1532   62.3231 C   0  0  0  0  0  0  0  0  0  0  0  0
  -33.1736   59.2852   61.7705 O   0  0  0  0  0  0  0  0  0  0  0  0
  -31.9511   59.8717   62.3285 C   0  0  0  0  0  0  0  0  0  0  0  0
  -32.2293   61.3193   62.6454 C   0  0  0  0  0  0  0  0  0  0  0  0
  -30.8939   59.7093   61.2536 C   0  0  0  0  0  0  0  0  0  0  0  0
  -30.2073   57.6547   62.3257 N   0  0  0  0  0  0  0  0  0  0  0  0
  -28.6368   58.9141   61.3212 O   0  0  0  0  0  0  0  0  0  0  0  0
  -29.8086   58.7283   61.6374 C   0  0  0  0  0  0  0  0  0  0  0  0
  -31.1608   57.5584   62.5514 H   0  0  0  0  0  0  0  0  0  0  0  0
  -28.0639   54.8181   61.6527 N   0  0  0  0  0  0  0  0  0  0  0  0
  -29.9683   55.5543   60.7243 O   0  0  0  0  0  0  0  0  0  0  0  0
  -29.2745   56.6257   62.7505 C   0  0  0  0  0  0  0  0  0  0  0  0
  -29.8042   55.9190   64.0033 C   0  0  0  0  0  0  0  0  0  0  0  0
  -28.7307   55.1624   64.7780 C   0  0  0  0  0  0  0  0  0  0  0  0
  -28.0544   54.0356   64.0226 C   0  0  0  0  0  0  0  0  0  0  0  0
  -27.2531   54.4886   62.8200 C   0  0  0  0  0  0  0  0  0  0  0  0
  -29.1320   55.6182   61.6206 C   0  0  0  0  0  0  0  0  0  0  0  0
  -27.7951   54.4074   60.7994 H   0  0  0  0  0  0  0  0  0  0  0  0
  -35.9846   57.9239   61.4391 C   0  0  0  0  0  0  0  0  0  0  0  0
  -37.3444   57.3652   61.8442 C   0  0  0  0  0  0  0  0  0  0  0  0
  -38.4300   58.4234   61.9077 C   0  0  0  0  0  0  0  0  0  0  0  0
  -39.0220   58.6412   63.2830 C   0  0  0  0  0  0  0  0  0  0  0  0
  -40.1043   57.7043   63.5397 N   0  0  0  0  0  0  0  0  0  0  0  0
  -40.5232   58.4910   65.6131 O   0  0  0  0  0  0  0  0  0  0  0  0
  -40.7807   57.6971   64.6934 C   0  0  0  0  0  0  0  0  0  0  0  0
  -40.3470   57.0541   62.8413 H   0  0  0  0  0  0  0  0  0  0  0  0
  -43.1020   56.8113   64.7155 C   0  0  0  0  0  0  0  0  0  0  0  0
  -41.7923   56.6223   64.8025 C   0  0  0  0  0  0  0  0  0  0  0  0
  -43.8288   58.0981   64.4779 C   0  0  0  0  0  0  0  0  0  0  0  0
  -45.3326   57.9396   64.6660 C   0  0  0  0  0  0  0  0  0  0  0  0
  -45.7742   57.9567   66.1192 C   0  0  0  0  0  0  0  0  0  0  0  0
  -46.9460   57.0337   66.4096 C   0  0  0  0  0  0  0  0  0  0  0  0
  -48.2864   57.7370   66.5111 C   0  0  0  0  0  0  0  0  0  0  0  0
  -48.8093   58.2386   65.1753 C   0  0  0  0  0  0  0  0  0  0  0  0
  -50.0948   59.0345   65.2884 C   0  0  0  0  0  0  0  0  0  0  0  0
  -50.3151   59.9775   64.1227 C   0  0  0  0  0  0  0  0  0  0  0  0
  -51.5488   59.6721   63.2951 C   0  0  0  0  0  0  0  0  0  0  0  0
  -51.3101   58.5829   62.2682 C   0  0  0  0  0  0  0  0  0  0  0  0
  -49.9559   58.6886   61.5863 C   0  0  0  0  0  0  0  0  0  0  0  0
  -49.9202   58.1104   60.1823 C   0  0  0  0  0  0  0  0  0  0  0  0
  -49.0689   56.8576   60.0447 C   0  0  0  0  0  0  0  0  0  0  0  0
  -47.6126   57.1357   59.6982 C   0  0  0  0  0  0  0  0  0  0  0  0
  -47.4394   58.1808   58.6079 C   0  0  0  0  0  0  0  0  0  0  0  0
  -47.6084   57.2214   56.2782 C   0  0  0  0  0  0  0  0  0  0  0  0
  -46.6944   57.6900   57.3799 C   0  0  0  0  0  0  0  0  0  0  0  0
 43 45  1  0  0  0
 43 42  1  0  0  0
 43 46  1  0  0  0
 64 65  1  0  0  0
 44 45  2  0  0  0
 65 63  1  0  0  0
  2  1  1  0  0  0
  2  4  1  0  0  0
  2  5  1  0  0  0
  3  4  2  0  0  0
 63 62  1  0  0  0
  6  8  1  0  0  0
  6 11  2  0  0  0
  7 10  1  0  0  0
  7 11  1  0  0  0
 62 61  1  0  0  0
 26 28  1  0  0  0
 26 32  1  0  0  0
 26 29  1  0  0  0
 12 18  1  0  0  0
 12 19  1  0  0  0
 61 60  1  0  0  0
 30 36  1  0  0  0
 30 37  1  0  0  0
 30 38  1  0  0  0
 20 21  2  0  0  0
 60 59  1  0  0  0
 22 21  1  0  0  0
 22 23  1  0  0  0
 59 58  1  0  0  0
 27 28  2  0  0  0
 58 57  1  0  0  0
 31 37  2  0  0  0
 57 56  1  0  0  0
 56 55  1  0  0  0
 55 54  1  0  0  0
 54 53  1  0  0  0
 53 52  1  0  0  0
 52 51  1  0  0  0
 51 50  1  0  0  0
 50 49  1  0  0  0
 49 47  1  0  0  0
 47 48  2  0  0  0
 48 45  1  0  0  0
 42 41  1  0  0  0
 41 40  1  0  0  0
 40 39  1  0  0  0
 39  1  1  0  0  0
  1 21  1  0  0  0
  8  4  1  0  0  0
  8  9  1  0  0  0
  8 10  1  0  0  0
 11 13  1  0  0  0
 13 14  2  0  0  0
 13 18  1  0  0  0
 14 15  1  0  0  0
 15 16  2  0  0  0
 16 17  1  0  0  0
 17 18  2  0  0  0
 23 24  1  0  0  0
 23 25  1  0  0  0
 25 28  1  0  0  0
 32 33  1  0  0  0
 32 37  1  0  0  0
 33 34  1  0  0  0
 34 35  1  0  0  0
 35 36  1  0  0  0
M  END
> <minimizedAffinity>
-10.79379

> <CNNscore>
0.2805337012

> <CNNaffinity>
7.1728029251

> <CNN_VS>
2.0122129917

> <CNNaffinity_variance>
0.5058097243

$$$$
/media/chris/experiments/cd1a-new-docking/inputs/ligands/7ryo_ligand.pdb


 65 67  0  0  0  0  0  0  0  0999 V2000
  -36.7479   60.0186   64.4436 C   0  0  0  0  0  0  0  0  0  0  0  0
  -36.1762   59.3923   63.2632 N   0  0  0  0  0  0  0  0  0  0  0  0
  -34.7834   58.0872   64.4510 O   0  0  0  0  0  0  0  0  0  0  0  0
  -35.2243   58.4625   63.3749 C   0  0  0  0  0  0  0  0  0  0  0  0
  -36.4946   59.6570   62.3700 H   0  0  0  0  0  0  0  0  0  0  0  0
  -33.3008   58.3889   61.8365 N   0  0  0  0  0  0  0  0  0  0  0  0
  -33.0944   56.1487   61.6893 O   0  0  0  0  0  0  0  0  0  0  0  0
  -34.6565   57.8670   62.0761 C   0  0  0  0  0  0  0  0  0  0  0  0
  -35.5574   58.2708   60.9128 C   0  0  0  0  0  0  0  0  0  0  0  0
  -34.4589   56.3452   62.1392 C   0  0  0  0  0  0  0  0  0  0  0  0
  -32.5435   57.3896   61.6439 C   0  0  0  0  0  0  0  0  0  0  0  0
  -31.2013   59.7900   60.7950 O   0  0  0  0  0  0  0  0  0  0  0  0
  -31.1061   57.4360   61.3651 C   0  0  0  0  0  0  0  0  0  0  0  0
  -30.3021   56.3302   61.6448 C   0  0  0  0  0  0  0  0  0  0  0  0
  -28.9226   56.4403   61.6178 C   0  0  0  0  0  0  0  0  0  0  0  0
  -28.3244   57.6439   61.3140 C   0  0  0  0  0  0  0  0  0  0  0  0
  -29.0985   58.7561   61.0376 C   0  0  0  0  0  0  0  0  0  0  0  0
  -30.4867   58.6659   61.0618 C   0  0  0  0  0  0  0  0  0  0  0  0
  -32.1378   59.7627   60.8032 H   0  0  0  0  0  0  0  0  0  0  0  0
  -34.9111   60.6155   65.8964 O   0  0  0  0  0  0  0  0  0  0  0  0
  -35.7499   60.9551   65.1082 C   0  0  0  0  0  0  0  0  0  0  0  0
  -35.9516   62.2218   64.7057 O   0  0  0  0  0  0  0  0  0  0  0  0
  -35.3188   63.2999   65.4719 C   0  0  0  0  0  0  0  0  0  0  0  0
  -36.0976   63.4849   66.7497 C   0  0  0  0  0  0  0  0  0  0  0  0
  -35.3776   64.5237   64.5782 C   0  0  0  0  0  0  0  0  0  0  0  0
  -33.1241   63.8913   63.9748 N   0  0  0  0  0  0  0  0  0  0  0  0
  -34.2087   65.3653   62.6660 O   0  0  0  0  0  0  0  0  0  0  0  0
  -34.1858   64.6364   63.6538 C   0  0  0  0  0  0  0  0  0  0  0  0
  -33.1628   63.3253   64.7794 H   0  0  0  0  0  0  0  0  0  0  0  0
  -31.1424   62.6965   61.1928 N   0  0  0  0  0  0  0  0  0  0  0  0
  -32.7017   61.7363   62.4879 O   0  0  0  0  0  0  0  0  0  0  0  0
  -31.9146   63.8925   63.1706 C   0  0  0  0  0  0  0  0  0  0  0  0
  -30.6802   63.8110   64.0756 C   0  0  0  0  0  0  0  0  0  0  0  0
  -29.3912   64.2543   63.3921 C   0  0  0  0  0  0  0  0  0  0  0  0
  -28.9753   63.4313   62.1891 C   0  0  0  0  0  0  0  0  0  0  0  0
  -29.9399   63.5052   61.0239 C   0  0  0  0  0  0  0  0  0  0  0  0
  -31.9532   62.6805   62.2532 C   0  0  0  0  0  0  0  0  0  0  0  0
  -31.3810   62.1004   60.4466 H   0  0  0  0  0  0  0  0  0  0  0  0
  -37.2590   58.9722   65.4350 C   0  0  0  0  0  0  0  0  0  0  0  0
  -38.4995   58.2467   64.9250 C   0  0  0  0  0  0  0  0  0  0  0  0
  -39.7114   59.1514   64.8002 C   0  0  0  0  0  0  0  0  0  0  0  0
  -40.7346   58.9946   65.9037 C   0  0  0  0  0  0  0  0  0  0  0  0
  -42.0818   58.9251   65.3603 N   0  0  0  0  0  0  0  0  0  0  0  0
  -42.1550   56.6695   65.3728 O   0  0  0  0  0  0  0  0  0  0  0  0
  -42.6981   57.7602   65.1328 C   0  0  0  0  0  0  0  0  0  0  0  0
  -42.5555   59.7630   65.1531 H   0  0  0  0  0  0  0  0  0  0  0  0
  -45.1707   58.0007   65.1745 C   0  0  0  0  0  0  0  0  0  0  0  0
  -44.0321   57.8867   64.5044 C   0  0  0  0  0  0  0  0  0  0  0  0
  -45.3606   58.0452   66.6586 C   0  0  0  0  0  0  0  0  0  0  0  0
  -46.8296   57.9180   67.0434 C   0  0  0  0  0  0  0  0  0  0  0  0
  -47.6389   57.0493   66.0960 C   0  0  0  0  0  0  0  0  0  0  0  0
  -49.0618   57.5399   65.8866 C   0  0  0  0  0  0  0  0  0  0  0  0
  -49.2335   59.0407   66.0275 C   0  0  0  0  0  0  0  0  0  0  0  0
  -50.6326   59.5246   65.6844 C   0  0  0  0  0  0  0  0  0  0  0  0
  -50.6515   60.6587   64.6784 C   0  0  0  0  0  0  0  0  0  0  0  0
  -51.4756   60.3464   63.4455 C   0  0  0  0  0  0  0  0  0  0  0  0
  -51.4695   58.8843   63.0425 C   0  0  0  0  0  0  0  0  0  0  0  0
  -50.3589   58.5506   62.0663 C   0  0  0  0  0  0  0  0  0  0  0  0
  -50.7381   57.4610   61.0768 C   0  0  0  0  0  0  0  0  0  0  0  0
  -49.6648   57.1564   60.0463 C   0  0  0  0  0  0  0  0  0  0  0  0
  -48.3040   57.7552   60.3666 C   0  0  0  0  0  0  0  0  0  0  0  0
  -47.2526   57.5080   59.2934 C   0  0  0  0  0  0  0  0  0  0  0  0
  -47.3936   56.1583   58.6082 C   0  0  0  0  0  0  0  0  0  0  0  0
  -47.9363   56.9826   56.2839 C   0  0  0  0  0  0  0  0  0  0  0  0
  -47.0116   56.1567   57.1392 C   0  0  0  0  0  0  0  0  0  0  0  0
 43 45  1  0  0  0
 43 42  1  0  0  0
 43 46  1  0  0  0
 64 65  1  0  0  0
 44 45  2  0  0  0
 65 63  1  0  0  0
  2  1  1  0  0  0
  2  4  1  0  0  0
  2  5  1  0  0  0
  3  4  2  0  0  0
 63 62  1  0  0  0
  6  8  1  0  0  0
  6 11  2  0  0  0
  7 10  1  0  0  0
  7 11  1  0  0  0
 62 61  1  0  0  0
 26 28  1  0  0  0
 26 32  1  0  0  0
 26 29  1  0  0  0
 12 18  1  0  0  0
 12 19  1  0  0  0
 61 60  1  0  0  0
 30 36  1  0  0  0
 30 37  1  0  0  0
 30 38  1  0  0  0
 20 21  2  0  0  0
 60 59  1  0  0  0
 22 21  1  0  0  0
 22 23  1  0  0  0
 59 58  1  0  0  0
 27 28  2  0  0  0
 58 57  1  0  0  0
 31 37  2  0  0  0
 57 56  1  0  0  0
 56 55  1  0  0  0
 55 54  1  0  0  0
 54 53  1  0  0  0
 53 52  1  0  0  0
 52 51  1  0  0  0
 51 50  1  0  0  0
 50 49  1  0  0  0
 49 47  1  0  0  0
 47 48  2  0  0  0
 48 45  1  0  0  0
 42 41  1  0  0  0
 41 40  1  0  0  0
 40 39  1  0  0  0
 39  1  1  0  0  0
  1 21  1  0  0  0
  8  4  1  0  0  0
  8  9  1  0  0  0
  8 10  1  0  0  0
 11 13  1  0  0  0
 13 14  2  0  0  0
 13 18  1  0  0  0
 14 15  1  0  0  0
 15 16  2  0  0  0
 16 17  1  0  0  0
 17 18  2  0  0  0
 23 24  1  0  0  0
 23 25  1  0  0  0
 25 28  1  0  0  0
 32 33  1  0  0  0
 32 37  1  0  0  0
 33 34  1  0  0  0
 34 35  1  0  0  0
 35 36  1  0  0  0
M  END
> <minimizedAffinity>
-10.30880

> <CNNscore>
0.2766252756

> <CNNaffinity>
6.9265899658

> <CNN_VS>
1.9160698652

> <CNNaffinity_variance>
0.3588531911

$$$$
