/media/chris/experiments/cd1a-new-docking/inputs/ligands/7ryo_ligand.pdb


 65 67  0  0  0  0  0  0  0  0999 V2000
  -35.2985   59.0747   63.3838 C   0  0  0  0  0  0  0  0  0  0  0  0
  -35.9396   60.1211   62.6050 N   0  0  0  0  0  0  0  0  0  0  0  0
  -37.7222   61.4597   62.3149 O   0  0  0  0  0  0  0  0  0  0  0  0
  -37.1417   60.5903   62.9478 C   0  0  0  0  0  0  0  0  0  0  0  0
  -35.4816   60.4886   61.8147 H   0  0  0  0  0  0  0  0  0  0  0  0
  -39.1885   59.6277   63.9255 N   0  0  0  0  0  0  0  0  0  0  0  0
  -38.2646   57.7981   64.8647 O   0  0  0  0  0  0  0  0  0  0  0  0
  -37.7964   60.0114   64.2128 C   0  0  0  0  0  0  0  0  0  0  0  0
  -37.7898   61.0775   65.3042 C   0  0  0  0  0  0  0  0  0  0  0  0
  -37.1462   58.7048   64.6915 C   0  0  0  0  0  0  0  0  0  0  0  0
  -39.3330   58.4271   64.3093 C   0  0  0  0  0  0  0  0  0  0  0  0
  -41.4677   58.6448   66.2275 O   0  0  0  0  0  0  0  0  0  0  0  0
  -40.5609   57.6335   64.2200 C   0  0  0  0  0  0  0  0  0  0  0  0
  -40.7987   56.8344   63.1010 C   0  0  0  0  0  0  0  0  0  0  0  0
  -42.0476   56.2760   62.8894 C   0  0  0  0  0  0  0  0  0  0  0  0
  -43.0730   56.5018   63.7817 C   0  0  0  0  0  0  0  0  0  0  0  0
  -42.8647   57.2937   64.8962 C   0  0  0  0  0  0  0  0  0  0  0  0
  -41.6171   57.8653   65.1250 C   0  0  0  0  0  0  0  0  0  0  0  0
  -40.6401   59.0444   66.4101 H   0  0  0  0  0  0  0  0  0  0  0  0
  -32.9922   58.7025   64.0030 O   0  0  0  0  0  0  0  0  0  0  0  0
  -33.8860   59.4731   63.7845 C   0  0  0  0  0  0  0  0  0  0  0  0
  -33.7824   60.8100   63.8808 O   0  0  0  0  0  0  0  0  0  0  0  0
  -33.8548   61.4149   65.2145 C   0  0  0  0  0  0  0  0  0  0  0  0
  -34.6268   60.4799   66.1108 C   0  0  0  0  0  0  0  0  0  0  0  0
  -34.5604   62.7431   65.0217 C   0  0  0  0  0  0  0  0  0  0  0  0
  -33.3138   64.7847   65.3682 N   0  0  0  0  0  0  0  0  0  0  0  0
  -34.2943   63.8149   67.1457 O   0  0  0  0  0  0  0  0  0  0  0  0
  -34.0434   63.8248   65.9438 C   0  0  0  0  0  0  0  0  0  0  0  0
  -32.9517   65.5101   65.9268 H   0  0  0  0  0  0  0  0  0  0  0  0
  -31.4924   63.6180   62.4672 N   0  0  0  0  0  0  0  0  0  0  0  0
  -30.9403   63.8621   64.6274 O   0  0  0  0  0  0  0  0  0  0  0  0
  -33.0394   64.7886   63.9418 C   0  0  0  0  0  0  0  0  0  0  0  0
  -32.9113   66.2291   63.4340 C   0  0  0  0  0  0  0  0  0  0  0  0
  -33.0760   66.3616   61.9239 C   0  0  0  0  0  0  0  0  0  0  0  0
  -32.0487   65.6231   61.0892 C   0  0  0  0  0  0  0  0  0  0  0  0
  -32.0971   64.1167   61.2365 C   0  0  0  0  0  0  0  0  0  0  0  0
  -31.7317   64.0490   63.7078 C   0  0  0  0  0  0  0  0  0  0  0  0
  -30.8397   62.8871   62.3728 H   0  0  0  0  0  0  0  0  0  0  0  0
  -35.2978   57.7434   62.6309 C   0  0  0  0  0  0  0  0  0  0  0  0
  -35.8901   57.8679   61.2313 C   0  0  0  0  0  0  0  0  0  0  0  0
  -37.4071   57.8362   61.2199 C   0  0  0  0  0  0  0  0  0  0  0  0
  -38.0480   58.6101   60.0886 C   0  0  0  0  0  0  0  0  0  0  0  0
  -38.9570   59.6240   60.5991 N   0  0  0  0  0  0  0  0  0  0  0  0
  -41.0579   60.3949   60.8918 O   0  0  0  0  0  0  0  0  0  0  0  0
  -40.2839   59.5217   60.4666 C   0  0  0  0  0  0  0  0  0  0  0  0
  -38.5835   60.4115   61.0570 H   0  0  0  0  0  0  0  0  0  0  0  0
  -41.4267   58.1771   58.7173 C   0  0  0  0  0  0  0  0  0  0  0  0
  -40.7410   58.2563   59.8496 C   0  0  0  0  0  0  0  0  0  0  0  0
  -41.8621   59.3003   57.8287 C   0  0  0  0  0  0  0  0  0  0  0  0
  -43.0392   58.8990   56.9482 C   0  0  0  0  0  0  0  0  0  0  0  0
  -44.1700   58.2246   57.7057 C   0  0  0  0  0  0  0  0  0  0  0  0
  -45.5005   58.2623   56.9724 C   0  0  0  0  0  0  0  0  0  0  0  0
  -46.7140   58.3294   57.8806 C   0  0  0  0  0  0  0  0  0  0  0  0
  -46.7701   57.2036   58.9000 C   0  0  0  0  0  0  0  0  0  0  0  0
  -47.8951   57.3527   59.9054 C   0  0  0  0  0  0  0  0  0  0  0  0
  -48.9686   58.3241   59.4568 C   0  0  0  0  0  0  0  0  0  0  0  0
  -49.5546   59.1680   60.5724 C   0  0  0  0  0  0  0  0  0  0  0  0
  -50.2128   58.3339   61.6537 C   0  0  0  0  0  0  0  0  0  0  0  0
  -50.7100   59.1603   62.8284 C   0  0  0  0  0  0  0  0  0  0  0  0
  -50.4830   58.5133   64.1837 C   0  0  0  0  0  0  0  0  0  0  0  0
  -49.0260   58.2054   64.4921 C   0  0  0  0  0  0  0  0  0  0  0  0
  -48.7787   57.7644   65.9282 C   0  0  0  0  0  0  0  0  0  0  0  0
  -47.4978   56.9645   66.1032 C   0  0  0  0  0  0  0  0  0  0  0  0
  -45.6173   58.4003   66.9852 C   0  0  0  0  0  0  0  0  0  0  0  0
  -46.6652   57.3672   67.3067 C   0  0  0  0  0  0  0  0  0  0  0  0
 43 45  1  0  0  0
 43 42  1  0  0  0
 43 46  1  0  0  0
 64 65  1  0  0  0
 44 45  2  0  0  0
 65 63  1  0  0  0
  2  1  1  0  0  0
  2  4  1  0  0  0
  2  5  1  0  0  0
  3  4  2  0  0  0
 63 62  1  0  0  0
  6  8  1  0  0  0
  6 11  2  0  0  0
  7 10  1  0  0  0
  7 11  1  0  0  0
 62 61  1  0  0  0
 26 28  1  0  0  0
 26 32  1  0  0  0
 26 29  1  0  0  0
 12 18  1  0  0  0
 12 19  1  0  0  0
 61 60  1  0  0  0
 30 36  1  0  0  0
 30 37  1  0  0  0
 30 38  1  0  0  0
 20 21  2  0  0  0
 60 59  1  0  0  0
 22 21  1  0  0  0
 22 23  1  0  0  0
 59 58  1  0  0  0
 27 28  2  0  0  0
 58 57  1  0  0  0
 31 37  2  0  0  0
 57 56  1  0  0  0
 56 55  1  0  0  0
 55 54  1  0  0  0
 54 53  1  0  0  0
 53 52  1  0  0  0
 52 51  1  0  0  0
 51 50  1  0  0  0
 50 49  1  0  0  0
 49 47  1  0  0  0
 47 48  2  0  0  0
 48 45  1  0  0  0
 42 41  1  0  0  0
 41 40  1  0  0  0
 40 39  1  0  0  0
 39  1  1  0  0  0
  1 21  1  0  0  0
  8  4  1  0  0  0
  8  9  1  0  0  0
  8 10  1  0  0  0
 11 13  1  0  0  0
 13 14  2  0  0  0
 13 18  1  0  0  0
 14 15  1  0  0  0
 15 16  2  0  0  0
 16 17  1  0  0  0
 17 18  2  0  0  0
 23 24  1  0  0  0
 23 25  1  0  0  0
 25 28  1  0  0  0
 32 33  1  0  0  0
 32 37  1  0  0  0
 33 34  1  0  0  0
 34 35  1  0  0  0
 35 36  1  0  0  0
M  END
> <minimizedAffinity>
-7.75850

> <CNNscore>
0.4230281413

> <CNNaffinity>
7.6215057373

> <CNN_VS>
3.2241113186

> <CNNaffinity_variance>
0.5881403685

$$$$
/media/chris/experiments/cd1a-new-docking/inputs/ligands/7ryo_ligand.pdb


 65 67  0  0  0  0  0  0  0  0999 V2000
  -34.7072   58.8552   63.8786 C   0  0  0  0  0  0  0  0  0  0  0  0
  -33.3586   58.5152   64.3006 N   0  0  0  0  0  0  0  0  0  0  0  0
  -31.4058   57.5127   63.8152 O   0  0  0  0  0  0  0  0  0  0  0  0
  -32.5419   57.8304   63.4964 C   0  0  0  0  0  0  0  0  0  0  0  0
  -33.0432   58.7935   65.1908 H   0  0  0  0  0  0  0  0  0  0  0  0
  -34.5293   57.2753   62.1494 N   0  0  0  0  0  0  0  0  0  0  0  0
  -34.1768   58.7152   60.4506 O   0  0  0  0  0  0  0  0  0  0  0  0
  -33.0687   57.4545   62.1016 C   0  0  0  0  0  0  0  0  0  0  0  0
  -32.4212   56.1435   61.6661 C   0  0  0  0  0  0  0  0  0  0  0  0
  -32.8680   58.5616   61.0561 C   0  0  0  0  0  0  0  0  0  0  0  0
  -35.0251   57.9938   61.2287 C   0  0  0  0  0  0  0  0  0  0  0  0
  -37.0625   56.4266   62.5237 O   0  0  0  0  0  0  0  0  0  0  0  0
  -36.4480   58.1240   60.9062 C   0  0  0  0  0  0  0  0  0  0  0  0
  -36.8816   59.1326   60.0447 C   0  0  0  0  0  0  0  0  0  0  0  0
  -38.2301   59.4205   59.9231 C   0  0  0  0  0  0  0  0  0  0  0  0
  -39.1628   58.7144   60.6512 C   0  0  0  0  0  0  0  0  0  0  0  0
  -38.7589   57.7130   61.5153 C   0  0  0  0  0  0  0  0  0  0  0  0
  -37.4079   57.4103   61.6529 C   0  0  0  0  0  0  0  0  0  0  0  0
  -36.1610   56.1987   62.6394 H   0  0  0  0  0  0  0  0  0  0  0  0
  -35.6448   60.8365   62.8607 O   0  0  0  0  0  0  0  0  0  0  0  0
  -34.8385   60.3453   63.6017 C   0  0  0  0  0  0  0  0  0  0  0  0
  -33.9108   61.0360   64.2870 O   0  0  0  0  0  0  0  0  0  0  0  0
  -34.3379   62.2371   65.0113 C   0  0  0  0  0  0  0  0  0  0  0  0
  -35.1785   61.8014   66.1849 C   0  0  0  0  0  0  0  0  0  0  0  0
  -35.1269   63.0578   64.0096 C   0  0  0  0  0  0  0  0  0  0  0  0
  -34.3938   65.3596   63.9279 N   0  0  0  0  0  0  0  0  0  0  0  0
  -36.1971   64.8545   65.1746 O   0  0  0  0  0  0  0  0  0  0  0  0
  -35.2885   64.5024   64.4278 C   0  0  0  0  0  0  0  0  0  0  0  0
  -34.4545   66.3112   64.1728 H   0  0  0  0  0  0  0  0  0  0  0  0
  -31.1246   63.9373   63.3086 N   0  0  0  0  0  0  0  0  0  0  0  0
  -31.9722   65.1558   64.9901 O   0  0  0  0  0  0  0  0  0  0  0  0
  -33.3339   64.9276   63.0335 C   0  0  0  0  0  0  0  0  0  0  0  0
  -33.0520   66.0126   61.9881 C   0  0  0  0  0  0  0  0  0  0  0  0
  -32.3068   65.4996   60.7607 C   0  0  0  0  0  0  0  0  0  0  0  0
  -30.9278   64.9293   61.0270 C   0  0  0  0  0  0  0  0  0  0  0  0
  -30.9280   63.6818   61.8857 C   0  0  0  0  0  0  0  0  0  0  0  0
  -32.0830   64.6833   63.8626 C   0  0  0  0  0  0  0  0  0  0  0  0
  -30.4832   63.5151   63.9248 H   0  0  0  0  0  0  0  0  0  0  0  0
  -35.7428   58.3972   64.9066 C   0  0  0  0  0  0  0  0  0  0  0  0
  -37.1102   59.0313   64.6749 C   0  0  0  0  0  0  0  0  0  0  0  0
  -38.0469   58.8800   65.8590 C   0  0  0  0  0  0  0  0  0  0  0  0
  -38.6538   60.1741   66.3554 C   0  0  0  0  0  0  0  0  0  0  0  0
  -39.3584   60.8641   65.2866 N   0  0  0  0  0  0  0  0  0  0  0  0
  -41.2681   61.2873   64.1608 O   0  0  0  0  0  0  0  0  0  0  0  0
  -40.6707   60.7071   65.0822 C   0  0  0  0  0  0  0  0  0  0  0  0
  -38.8528   61.4663   64.6941 H   0  0  0  0  0  0  0  0  0  0  0  0
  -41.8216   58.6417   65.8456 C   0  0  0  0  0  0  0  0  0  0  0  0
  -41.3486   59.8569   66.0863 C   0  0  0  0  0  0  0  0  0  0  0  0
  -41.7649   57.8733   64.5622 C   0  0  0  0  0  0  0  0  0  0  0  0
  -43.1485   57.6967   63.9490 C   0  0  0  0  0  0  0  0  0  0  0  0
  -44.2694   58.2951   64.7813 C   0  0  0  0  0  0  0  0  0  0  0  0
  -44.9821   57.2809   65.6605 C   0  0  0  0  0  0  0  0  0  0  0  0
  -46.4431   57.5959   65.9214 C   0  0  0  0  0  0  0  0  0  0  0  0
  -46.9457   58.8109   65.1594 C   0  0  0  0  0  0  0  0  0  0  0  0
  -48.2044   59.4170   65.7487 C   0  0  0  0  0  0  0  0  0  0  0  0
  -48.9651   60.2822   64.7638 C   0  0  0  0  0  0  0  0  0  0  0  0
  -50.4368   59.9390   64.6360 C   0  0  0  0  0  0  0  0  0  0  0  0
  -50.8839   59.8060   63.1936 C   0  0  0  0  0  0  0  0  0  0  0  0
  -49.9731   58.9160   62.3637 C   0  0  0  0  0  0  0  0  0  0  0  0
  -50.7090   57.9920   61.4089 C   0  0  0  0  0  0  0  0  0  0  0  0
  -49.8132   56.9946   60.6909 C   0  0  0  0  0  0  0  0  0  0  0  0
  -48.5125   57.5936   60.1738 C   0  0  0  0  0  0  0  0  0  0  0  0
  -48.1857   57.1883   58.7455 C   0  0  0  0  0  0  0  0  0  0  0  0
  -46.4042   57.4609   56.9769 C   0  0  0  0  0  0  0  0  0  0  0  0
  -47.2515   58.1401   58.0206 C   0  0  0  0  0  0  0  0  0  0  0  0
 43 45  1  0  0  0
 43 42  1  0  0  0
 43 46  1  0  0  0
 64 65  1  0  0  0
 44 45  2  0  0  0
 65 63  1  0  0  0
  2  1  1  0  0  0
  2  4  1  0  0  0
  2  5  1  0  0  0
  3  4  2  0  0  0
 63 62  1  0  0  0
  6  8  1  0  0  0
  6 11  2  0  0  0
  7 10  1  0  0  0
  7 11  1  0  0  0
 62 61  1  0  0  0
 26 28  1  0  0  0
 26 32  1  0  0  0
 26 29  1  0  0  0
 12 18  1  0  0  0
 12 19  1  0  0  0
 61 60  1  0  0  0
 30 36  1  0  0  0
 30 37  1  0  0  0
 30 38  1  0  0  0
 20 21  2  0  0  0
 60 59  1  0  0  0
 22 21  1  0  0  0
 22 23  1  0  0  0
 59 58  1  0  0  0
 27 28  2  0  0  0
 58 57  1  0  0  0
 31 37  2  0  0  0
 57 56  1  0  0  0
 56 55  1  0  0  0
 55 54  1  0  0  0
 54 53  1  0  0  0
 53 52  1  0  0  0
 52 51  1  0  0  0
 51 50  1  0  0  0
 50 49  1  0  0  0
 49 47  1  0  0  0
 47 48  2  0  0  0
 48 45  1  0  0  0
 42 41  1  0  0  0
 41 40  1  0  0  0
 40 39  1  0  0  0
 39  1  1  0  0  0
  1 21  1  0  0  0
  8  4  1  0  0  0
  8  9  1  0  0  0
  8 10  1  0  0  0
 11 13  1  0  0  0
 13 14  2  0  0  0
 13 18  1  0  0  0
 14 15  1  0  0  0
 15 16  2  0  0  0
 16 17  1  0  0  0
 17 18  2  0  0  0
 23 24  1  0  0  0
 23 25  1  0  0  0
 25 28  1  0  0  0
 32 33  1  0  0  0
 32 37  1  0  0  0
 33 34  1  0  0  0
 34 35  1  0  0  0
 35 36  1  0  0  0
M  END
> <minimizedAffinity>
-8.43034

> <CNNscore>
0.3089590371

> <CNNaffinity>
7.4627609253

> <CNN_VS>
2.3056874275

> <CNNaffinity_variance>
0.7805290222

$$$$
/media/chris/experiments/cd1a-new-docking/inputs/ligands/7ryo_ligand.pdb


 65 67  0  0  0  0  0  0  0  0999 V2000
  -33.9434   58.6802   63.1756 C   0  0  0  0  0  0  0  0  0  0  0  0
  -34.5706   59.8944   62.6810 N   0  0  0  0  0  0  0  0  0  0  0  0
  -36.1405   61.4788   62.9620 O   0  0  0  0  0  0  0  0  0  0  0  0
  -35.5765   60.4656   63.3477 C   0  0  0  0  0  0  0  0  0  0  0  0
  -34.2496   60.3010   61.8437 H   0  0  0  0  0  0  0  0  0  0  0  0
  -37.4314   60.1124   64.9310 N   0  0  0  0  0  0  0  0  0  0  0  0
  -37.2652   57.8722   65.1240 O   0  0  0  0  0  0  0  0  0  0  0  0
  -36.0135   59.8139   64.6701 C   0  0  0  0  0  0  0  0  0  0  0  0
  -35.1684   60.3849   65.8048 C   0  0  0  0  0  0  0  0  0  0  0  0
  -35.9604   58.2793   64.6394 C   0  0  0  0  0  0  0  0  0  0  0  0
  -38.0111   59.0072   65.1592 C   0  0  0  0  0  0  0  0  0  0  0  0
  -39.6431   61.1040   66.2654 O   0  0  0  0  0  0  0  0  0  0  0  0
  -39.4308   58.8242   65.4699 C   0  0  0  0  0  0  0  0  0  0  0  0
  -40.0830   57.6473   65.0997 C   0  0  0  0  0  0  0  0  0  0  0  0
  -41.4629   57.5589   65.1649 C   0  0  0  0  0  0  0  0  0  0  0  0
  -42.2112   58.6322   65.5968 C   0  0  0  0  0  0  0  0  0  0  0  0
  -41.5895   59.8115   65.9651 C   0  0  0  0  0  0  0  0  0  0  0  0
  -40.2039   59.9205   65.9045 C   0  0  0  0  0  0  0  0  0  0  0  0
  -38.7126   61.2098   66.2357 H   0  0  0  0  0  0  0  0  0  0  0  0
  -31.6624   58.0341   63.6455 O   0  0  0  0  0  0  0  0  0  0  0  0
  -32.4703   58.9063   63.4812 C   0  0  0  0  0  0  0  0  0  0  0  0
  -32.2020   60.2211   63.5632 O   0  0  0  0  0  0  0  0  0  0  0  0
  -31.8640   60.9361   62.3286 C   0  0  0  0  0  0  0  0  0  0  0  0
  -30.9306   60.0664   61.5249 C   0  0  0  0  0  0  0  0  0  0  0  0
  -31.2085   62.2292   62.7732 C   0  0  0  0  0  0  0  0  0  0  0  0
  -32.3699   64.3441   62.6290 N   0  0  0  0  0  0  0  0  0  0  0  0
  -31.3749   63.5412   60.7777 O   0  0  0  0  0  0  0  0  0  0  0  0
  -31.6594   63.4266   61.9666 C   0  0  0  0  0  0  0  0  0  0  0  0
  -32.6893   65.1410   62.1472 H   0  0  0  0  0  0  0  0  0  0  0  0
  -34.7253   63.9516   65.3478 N   0  0  0  0  0  0  0  0  0  0  0  0
  -34.8473   64.9598   63.3479 O   0  0  0  0  0  0  0  0  0  0  0  0
  -32.6845   64.1993   64.0396 C   0  0  0  0  0  0  0  0  0  0  0  0
  -31.9241   65.2479   64.8592 C   0  0  0  0  0  0  0  0  0  0  0  0
  -31.8225   64.9083   66.3422 C   0  0  0  0  0  0  0  0  0  0  0  0
  -33.1432   64.8052   67.0790 C   0  0  0  0  0  0  0  0  0  0  0  0
  -34.0328   63.6762   66.6021 C   0  0  0  0  0  0  0  0  0  0  0  0
  -34.1809   64.4036   64.2158 C   0  0  0  0  0  0  0  0  0  0  0  0
  -35.6959   63.7868   65.3349 H   0  0  0  0  0  0  0  0  0  0  0  0
  -34.1261   57.5214   62.1944 C   0  0  0  0  0  0  0  0  0  0  0  0
  -35.5925   57.1510   62.0004 C   0  0  0  0  0  0  0  0  0  0  0  0
  -36.3067   58.0429   61.0019 C   0  0  0  0  0  0  0  0  0  0  0  0
  -37.8125   58.0759   61.1463 C   0  0  0  0  0  0  0  0  0  0  0  0
  -38.2617   59.3696   61.6356 N   0  0  0  0  0  0  0  0  0  0  0  0
  -39.9347   60.7419   62.2769 O   0  0  0  0  0  0  0  0  0  0  0  0
  -39.5517   59.6323   61.8713 C   0  0  0  0  0  0  0  0  0  0  0  0
  -37.5945   60.0749   61.7986 H   0  0  0  0  0  0  0  0  0  0  0  0
  -41.0521   58.1641   60.5422 C   0  0  0  0  0  0  0  0  0  0  0  0
  -40.4554   58.4751   61.6849 C   0  0  0  0  0  0  0  0  0  0  0  0
  -40.9394   58.8703   59.2271 C   0  0  0  0  0  0  0  0  0  0  0  0
  -41.8223   58.2276   58.1644 C   0  0  0  0  0  0  0  0  0  0  0  0
  -42.3662   59.2106   57.1422 C   0  0  0  0  0  0  0  0  0  0  0  0
  -43.7279   58.8227   56.5900 C   0  0  0  0  0  0  0  0  0  0  0  0
  -44.6465   58.1592   57.5987 C   0  0  0  0  0  0  0  0  0  0  0  0
  -46.1194   58.4420   57.3537 C   0  0  0  0  0  0  0  0  0  0  0  0
  -46.9229   57.2056   57.0007 C   0  0  0  0  0  0  0  0  0  0  0  0
  -47.3532   56.4090   58.2162 C   0  0  0  0  0  0  0  0  0  0  0  0
  -47.9186   57.2478   59.3460 C   0  0  0  0  0  0  0  0  0  0  0  0
  -49.3981   57.5333   59.1797 C   0  0  0  0  0  0  0  0  0  0  0  0
  -50.1178   57.7538   60.5002 C   0  0  0  0  0  0  0  0  0  0  0  0
  -49.3169   58.5446   61.5200 C   0  0  0  0  0  0  0  0  0  0  0  0
  -50.0208   59.7896   62.0370 C   0  0  0  0  0  0  0  0  0  0  0  0
  -51.1477   59.4991   63.0186 C   0  0  0  0  0  0  0  0  0  0  0  0
  -51.0809   60.3410   64.2826 C   0  0  0  0  0  0  0  0  0  0  0  0
  -49.6650   58.6028   65.4445 C   0  0  0  0  0  0  0  0  0  0  0  0
  -50.8324   59.5483   65.5530 C   0  0  0  0  0  0  0  0  0  0  0  0
 43 45  1  0  0  0
 43 42  1  0  0  0
 43 46  1  0  0  0
 64 65  1  0  0  0
 44 45  2  0  0  0
 65 63  1  0  0  0
  2  1  1  0  0  0
  2  4  1  0  0  0
  2  5  1  0  0  0
  3  4  2  0  0  0
 63 62  1  0  0  0
  6  8  1  0  0  0
  6 11  2  0  0  0
  7 10  1  0  0  0
  7 11  1  0  0  0
 62 61  1  0  0  0
 26 28  1  0  0  0
 26 32  1  0  0  0
 26 29  1  0  0  0
 12 18  1  0  0  0
 12 19  1  0  0  0
 61 60  1  0  0  0
 30 36  1  0  0  0
 30 37  1  0  0  0
 30 38  1  0  0  0
 20 21  2  0  0  0
 60 59  1  0  0  0
 22 21  1  0  0  0
 22 23  1  0  0  0
 59 58  1  0  0  0
 27 28  2  0  0  0
 58 57  1  0  0  0
 31 37  2  0  0  0
 57 56  1  0  0  0
 56 55  1  0  0  0
 55 54  1  0  0  0
 54 53  1  0  0  0
 53 52  1  0  0  0
 52 51  1  0  0  0
 51 50  1  0  0  0
 50 49  1  0  0  0
 49 47  1  0  0  0
 47 48  2  0  0  0
 48 45  1  0  0  0
 42 41  1  0  0  0
 41 40  1  0  0  0
 40 39  1  0  0  0
 39  1  1  0  0  0
  1 21  1  0  0  0
  8  4  1  0  0  0
  8  9  1  0  0  0
  8 10  1  0  0  0
 11 13  1  0  0  0
 13 14  2  0  0  0
 13 18  1  0  0  0
 14 15  1  0  0  0
 15 16  2  0  0  0
 16 17  1  0  0  0
 17 18  2  0  0  0
 23 24  1  0  0  0
 23 25  1  0  0  0
 25 28  1  0  0  0
 32 33  1  0  0  0
 32 37  1  0  0  0
 33 34  1  0  0  0
 34 35  1  0  0  0
 35 36  1  0  0  0
M  END
> <minimizedAffinity>
-8.86976

> <CNNscore>
0.2860435545

> <CNNaffinity>
7.2244443893

> <CNN_VS>
2.0665056705

> <CNNaffinity_variance>
0.9184333086

$$$$
/media/chris/experiments/cd1a-new-docking/inputs/ligands/7ryo_ligand.pdb


 65 67  0  0  0  0  0  0  0  0999 V2000
  -35.0205   58.9305   63.4546 C   0  0  0  0  0  0  0  0  0  0  0  0
  -33.9474   58.3125   64.2154 N   0  0  0  0  0  0  0  0  0  0  0  0
  -31.7392   57.9725   64.4647 O   0  0  0  0  0  0  0  0  0  0  0  0
  -32.6713   58.4833   63.8617 C   0  0  0  0  0  0  0  0  0  0  0  0
  -34.1642   57.7609   65.0015 H   0  0  0  0  0  0  0  0  0  0  0  0
  -33.1742   60.6244   62.7504 N   0  0  0  0  0  0  0  0  0  0  0  0
  -31.0548   61.3143   62.4111 O   0  0  0  0  0  0  0  0  0  0  0  0
  -32.3842   59.3861   62.6506 C   0  0  0  0  0  0  0  0  0  0  0  0
  -32.7806   58.6449   61.3773 C   0  0  0  0  0  0  0  0  0  0  0  0
  -30.9313   59.8806   62.5906 C   0  0  0  0  0  0  0  0  0  0  0  0
  -32.3688   61.5948   62.6118 C   0  0  0  0  0  0  0  0  0  0  0  0
  -33.5500   62.8614   64.9105 O   0  0  0  0  0  0  0  0  0  0  0  0
  -32.7171   63.0173   62.6396 C   0  0  0  0  0  0  0  0  0  0  0  0
  -32.3491   63.8495   61.5815 C   0  0  0  0  0  0  0  0  0  0  0  0
  -32.4523   65.2247   61.7011 C   0  0  0  0  0  0  0  0  0  0  0  0
  -32.9201   65.7905   62.8671 C   0  0  0  0  0  0  0  0  0  0  0  0
  -33.2871   64.9882   63.9322 C   0  0  0  0  0  0  0  0  0  0  0  0
  -33.1886   63.6041   63.8319 C   0  0  0  0  0  0  0  0  0  0  0  0
  -33.4953   61.9267   64.8752 H   0  0  0  0  0  0  0  0  0  0  0  0
  -35.5287   61.0067   64.5825 O   0  0  0  0  0  0  0  0  0  0  0  0
  -35.8371   59.8764   64.3223 C   0  0  0  0  0  0  0  0  0  0  0  0
  -36.9441   59.2630   64.7760 O   0  0  0  0  0  0  0  0  0  0  0  0
  -38.0873   60.0961   65.1617 C   0  0  0  0  0  0  0  0  0  0  0  0
  -38.0650   60.2559   66.6608 C   0  0  0  0  0  0  0  0  0  0  0  0
  -39.3162   59.3500   64.6792 C   0  0  0  0  0  0  0  0  0  0  0  0
  -41.0816   59.4487   63.0312 N   0  0  0  0  0  0  0  0  0  0  0  0
  -39.2782   60.7637   62.7477 O   0  0  0  0  0  0  0  0  0  0  0  0
  -39.8851   59.9172   63.3977 C   0  0  0  0  0  0  0  0  0  0  0  0
  -41.4932   59.7846   62.2024 H   0  0  0  0  0  0  0  0  0  0  0  0
  -42.2251   56.0678   63.6274 N   0  0  0  0  0  0  0  0  0  0  0  0
  -41.8111   57.2386   61.7597 O   0  0  0  0  0  0  0  0  0  0  0  0
  -41.7922   58.4579   63.8206 C   0  0  0  0  0  0  0  0  0  0  0  0
  -43.1781   58.9871   64.2063 C   0  0  0  0  0  0  0  0  0  0  0  0
  -43.8100   58.2466   65.3799 C   0  0  0  0  0  0  0  0  0  0  0  0
  -44.0695   56.7701   65.1551 C   0  0  0  0  0  0  0  0  0  0  0  0
  -42.8162   55.9437   64.9556 C   0  0  0  0  0  0  0  0  0  0  0  0
  -41.9442   57.2005   62.9793 C   0  0  0  0  0  0  0  0  0  0  0  0
  -42.0110   55.2280   63.1602 H   0  0  0  0  0  0  0  0  0  0  0  0
  -35.9167   57.8770   62.8018 C   0  0  0  0  0  0  0  0  0  0  0  0
  -36.1963   58.1819   61.3341 C   0  0  0  0  0  0  0  0  0  0  0  0
  -37.6771   58.2389   61.0076 C   0  0  0  0  0  0  0  0  0  0  0  0
  -38.0167   58.9847   59.7357 C   0  0  0  0  0  0  0  0  0  0  0  0
  -38.9840   60.0399   59.9917 N   0  0  0  0  0  0  0  0  0  0  0  0
  -41.1025   60.8126   59.8984 O   0  0  0  0  0  0  0  0  0  0  0  0
  -40.2802   59.9054   59.6908 C   0  0  0  0  0  0  0  0  0  0  0  0
  -38.6747   60.8808   60.3998 H   0  0  0  0  0  0  0  0  0  0  0  0
  -41.4800   58.3622   58.1570 C   0  0  0  0  0  0  0  0  0  0  0  0
  -40.6520   58.5701   59.1717 C   0  0  0  0  0  0  0  0  0  0  0  0
  -42.1855   59.3869   57.3246 C   0  0  0  0  0  0  0  0  0  0  0  0
  -43.4211   58.8087   56.6457 C   0  0  0  0  0  0  0  0  0  0  0  0
  -44.3834   58.1257   57.6020 C   0  0  0  0  0  0  0  0  0  0  0  0
  -45.8463   58.3635   57.2657 C   0  0  0  0  0  0  0  0  0  0  0  0
  -46.6108   57.1118   56.8777 C   0  0  0  0  0  0  0  0  0  0  0  0
  -47.3026   56.4372   58.0506 C   0  0  0  0  0  0  0  0  0  0  0  0
  -47.7194   57.4015   59.1439 C   0  0  0  0  0  0  0  0  0  0  0  0
  -48.9870   56.9781   59.8587 C   0  0  0  0  0  0  0  0  0  0  0  0
  -49.9916   58.0952   60.0659 C   0  0  0  0  0  0  0  0  0  0  0  0
  -49.6696   58.9561   61.2713 C   0  0  0  0  0  0  0  0  0  0  0  0
  -50.4801   58.5889   62.5035 C   0  0  0  0  0  0  0  0  0  0  0  0
  -49.6920   58.6314   63.8012 C   0  0  0  0  0  0  0  0  0  0  0  0
  -48.5702   59.6582   63.8168 C   0  0  0  0  0  0  0  0  0  0  0  0
  -47.4065   59.2875   64.7257 C   0  0  0  0  0  0  0  0  0  0  0  0
  -47.8180   59.0535   66.1703 C   0  0  0  0  0  0  0  0  0  0  0  0
  -47.8360   56.5285   66.1625 C   0  0  0  0  0  0  0  0  0  0  0  0
  -47.2671   57.7781   66.7817 C   0  0  0  0  0  0  0  0  0  0  0  0
 43 45  1  0  0  0
 43 42  1  0  0  0
 43 46  1  0  0  0
 64 65  1  0  0  0
 44 45  2  0  0  0
 65 63  1  0  0  0
  2  1  1  0  0  0
  2  4  1  0  0  0
  2  5  1  0  0  0
  3  4  2  0  0  0
 63 62  1  0  0  0
  6  8  1  0  0  0
  6 11  2  0  0  0
  7 10  1  0  0  0
  7 11  1  0  0  0
 62 61  1  0  0  0
 26 28  1  0  0  0
 26 32  1  0  0  0
 26 29  1  0  0  0
 12 18  1  0  0  0
 12 19  1  0  0  0
 61 60  1  0  0  0
 30 36  1  0  0  0
 30 37  1  0  0  0
 30 38  1  0  0  0
 20 21  2  0  0  0
 60 59  1  0  0  0
 22 21  1  0  0  0
 22 23  1  0  0  0
 59 58  1  0  0  0
 27 28  2  0  0  0
 58 57  1  0  0  0
 31 37  2  0  0  0
 57 56  1  0  0  0
 56 55  1  0  0  0
 55 54  1  0  0  0
 54 53  1  0  0  0
 53 52  1  0  0  0
 52 51  1  0  0  0
 51 50  1  0  0  0
 50 49  1  0  0  0
 49 47  1  0  0  0
 47 48  2  0  0  0
 48 45  1  0  0  0
 42 41  1  0  0  0
 41 40  1  0  0  0
 40 39  1  0  0  0
 39  1  1  0  0  0
  1 21  1  0  0  0
  8  4  1  0  0  0
  8  9  1  0  0  0
  8 10  1  0  0  0
 11 13  1  0  0  0
 13 14  2  0  0  0
 13 18  1  0  0  0
 14 15  1  0  0  0
 15 16  2  0  0  0
 16 17  1  0  0  0
 17 18  2  0  0  0
 23 24  1  0  0  0
 23 25  1  0  0  0
 25 28  1  0  0  0
 32 33  1  0  0  0
 32 37  1  0  0  0
 33 34  1  0  0  0
 34 35  1  0  0  0
 35 36  1  0  0  0
M  END
> <minimizedAffinity>
-8.16613

> <CNNscore>
0.2348972112

> <CNNaffinity>
7.5944442749

> <CNN_VS>
1.7839137316

> <CNNaffinity_variance>
1.1368874311

$$$$
/media/chris/experiments/cd1a-new-docking/inputs/ligands/7ryo_ligand.pdb


 65 67  0  0  0  0  0  0  0  0999 V2000
  -39.1197   58.8869   64.2636 C   0  0  0  0  0  0  0  0  0  0  0  0
  -37.8853   58.2091   64.6227 N   0  0  0  0  0  0  0  0  0  0  0  0
  -35.7556   58.3733   65.3236 O   0  0  0  0  0  0  0  0  0  0  0  0
  -36.8164   58.9011   65.0244 C   0  0  0  0  0  0  0  0  0  0  0  0
  -37.8366   57.2272   64.5692 H   0  0  0  0  0  0  0  0  0  0  0  0
  -35.7391   61.0040   65.7239 N   0  0  0  0  0  0  0  0  0  0  0  0
  -36.0694   62.1787   63.8281 O   0  0  0  0  0  0  0  0  0  0  0  0
  -36.9568   60.4287   65.1291 C   0  0  0  0  0  0  0  0  0  0  0  0
  -38.1488   60.7547   66.0238 C   0  0  0  0  0  0  0  0  0  0  0  0
  -37.0640   61.1253   63.7644 C   0  0  0  0  0  0  0  0  0  0  0  0
  -35.3445   61.9282   64.9494 C   0  0  0  0  0  0  0  0  0  0  0  0
  -33.8994   63.1139   62.7609 O   0  0  0  0  0  0  0  0  0  0  0  0
  -34.1664   62.7761   65.1462 C   0  0  0  0  0  0  0  0  0  0  0  0
  -33.7854   63.1581   66.4332 C   0  0  0  0  0  0  0  0  0  0  0  0
  -32.8335   64.1457   66.6197 C   0  0  0  0  0  0  0  0  0  0  0  0
  -32.2491   64.7649   65.5363 C   0  0  0  0  0  0  0  0  0  0  0  0
  -32.6124   64.4079   64.2505 C   0  0  0  0  0  0  0  0  0  0  0  0
  -33.5688   63.4191   64.0428 C   0  0  0  0  0  0  0  0  0  0  0  0
  -34.5400   62.4526   62.5871 H   0  0  0  0  0  0  0  0  0  0  0  0
  -39.4895   60.5963   62.5955 O   0  0  0  0  0  0  0  0  0  0  0  0
  -39.0131   59.5352   62.8914 C   0  0  0  0  0  0  0  0  0  0  0  0
  -38.3280   58.7438   62.0478 O   0  0  0  0  0  0  0  0  0  0  0  0
  -37.6145   59.3749   60.9332 C   0  0  0  0  0  0  0  0  0  0  0  0
  -38.4600   59.2280   59.6935 C   0  0  0  0  0  0  0  0  0  0  0  0
  -36.2954   58.6351   60.8229 C   0  0  0  0  0  0  0  0  0  0  0  0
  -35.0002   57.2494   62.3212 N   0  0  0  0  0  0  0  0  0  0  0  0
  -37.1722   56.7512   62.0116 O   0  0  0  0  0  0  0  0  0  0  0  0
  -36.1985   57.4583   61.7682 C   0  0  0  0  0  0  0  0  0  0  0  0
  -34.8850   56.4936   62.9414 H   0  0  0  0  0  0  0  0  0  0  0  0
  -31.7289   57.8324   60.8883 N   0  0  0  0  0  0  0  0  0  0  0  0
  -32.7175   56.0195   61.7640 O   0  0  0  0  0  0  0  0  0  0  0  0
  -33.8626   58.1054   62.0331 C   0  0  0  0  0  0  0  0  0  0  0  0
  -33.4338   58.8553   63.2993 C   0  0  0  0  0  0  0  0  0  0  0  0
  -32.5747   60.0839   63.0204 C   0  0  0  0  0  0  0  0  0  0  0  0
  -31.2518   59.8113   62.3323 C   0  0  0  0  0  0  0  0  0  0  0  0
  -31.3854   59.2497   60.9323 C   0  0  0  0  0  0  0  0  0  0  0  0
  -32.7185   57.2282   61.5499 C   0  0  0  0  0  0  0  0  0  0  0  0
  -31.1726   57.2619   60.3102 H   0  0  0  0  0  0  0  0  0  0  0  0
  -39.5177   59.9147   65.3239 C   0  0  0  0  0  0  0  0  0  0  0  0
  -41.0289   60.0026   65.5085 C   0  0  0  0  0  0  0  0  0  0  0  0
  -41.4965   59.4887   66.8575 C   0  0  0  0  0  0  0  0  0  0  0  0
  -42.7986   58.7186   66.8248 C   0  0  0  0  0  0  0  0  0  0  0  0
  -42.5962   57.3725   66.3130 N   0  0  0  0  0  0  0  0  0  0  0  0
  -43.0589   55.7712   64.7914 O   0  0  0  0  0  0  0  0  0  0  0  0
  -43.2232   56.9253   65.2196 C   0  0  0  0  0  0  0  0  0  0  0  0
  -41.9776   56.7708   66.7868 H   0  0  0  0  0  0  0  0  0  0  0  0
  -45.3546   58.1052   64.7307 C   0  0  0  0  0  0  0  0  0  0  0  0
  -44.0538   57.9399   64.5329 C   0  0  0  0  0  0  0  0  0  0  0  0
  -46.2427   57.3487   65.6686 C   0  0  0  0  0  0  0  0  0  0  0  0
  -46.4758   58.1140   66.9654 C   0  0  0  0  0  0  0  0  0  0  0  0
  -47.8146   58.8290   67.0238 C   0  0  0  0  0  0  0  0  0  0  0  0
  -48.9008   58.1540   66.2028 C   0  0  0  0  0  0  0  0  0  0  0  0
  -50.1239   59.0163   65.9535 C   0  0  0  0  0  0  0  0  0  0  0  0
  -49.8187   60.2924   65.1866 C   0  0  0  0  0  0  0  0  0  0  0  0
  -48.8498   60.0913   64.0379 C   0  0  0  0  0  0  0  0  0  0  0  0
  -49.5158   60.1646   62.6784 C   0  0  0  0  0  0  0  0  0  0  0  0
  -50.9275   59.6114   62.6426 C   0  0  0  0  0  0  0  0  0  0  0  0
  -50.9620   58.1046   62.4803 C   0  0  0  0  0  0  0  0  0  0  0  0
  -49.8332   57.5692   61.6146 C   0  0  0  0  0  0  0  0  0  0  0  0
  -50.1476   57.5445   60.1288 C   0  0  0  0  0  0  0  0  0  0  0  0
  -49.0490   58.1201   59.2487 C   0  0  0  0  0  0  0  0  0  0  0  0
  -47.6530   57.6249   59.6006 C   0  0  0  0  0  0  0  0  0  0  0  0
  -46.6720   57.7075   58.4421 C   0  0  0  0  0  0  0  0  0  0  0  0
  -46.9653   55.9208   56.6820 C   0  0  0  0  0  0  0  0  0  0  0  0
  -47.2613   57.3394   57.0926 C   0  0  0  0  0  0  0  0  0  0  0  0
 43 45  1  0  0  0
 43 42  1  0  0  0
 43 46  1  0  0  0
 64 65  1  0  0  0
 44 45  2  0  0  0
 65 63  1  0  0  0
  2  1  1  0  0  0
  2  4  1  0  0  0
  2  5  1  0  0  0
  3  4  2  0  0  0
 63 62  1  0  0  0
  6  8  1  0  0  0
  6 11  2  0  0  0
  7 10  1  0  0  0
  7 11  1  0  0  0
 62 61  1  0  0  0
 26 28  1  0  0  0
 26 32  1  0  0  0
 26 29  1  0  0  0
 12 18  1  0  0  0
 12 19  1  0  0  0
 61 60  1  0  0  0
 30 36  1  0  0  0
 30 37  1  0  0  0
 30 38  1  0  0  0
 20 21  2  0  0  0
 60 59  1  0  0  0
 22 21  1  0  0  0
 22 23  1  0  0  0
 59 58  1  0  0  0
 27 28  2  0  0  0
 58 57  1  0  0  0
 31 37  2  0  0  0
 57 56  1  0  0  0
 56 55  1  0  0  0
 55 54  1  0  0  0
 54 53  1  0  0  0
 53 52  1  0  0  0
 52 51  1  0  0  0
 51 50  1  0  0  0
 50 49  1  0  0  0
 49 47  1  0  0  0
 47 48  2  0  0  0
 48 45  1  0  0  0
 42 41  1  0  0  0
 41 40  1  0  0  0
 40 39  1  0  0  0
 39  1  1  0  0  0
  1 21  1  0  0  0
  8  4  1  0  0  0
  8  9  1  0  0  0
  8 10  1  0  0  0
 11 13  1  0  0  0
 13 14  2  0  0  0
 13 18  1  0  0  0
 14 15  1  0  0  0
 15 16  2  0  0  0
 16 17  1  0  0  0
 17 18  2  0  0  0
 23 24  1  0  0  0
 23 25  1  0  0  0
 25 28  1  0  0  0
 32 33  1  0  0  0
 32 37  1  0  0  0
 33 34  1  0  0  0
 34 35  1  0  0  0
 35 36  1  0  0  0
M  END
> <minimizedAffinity>
-10.38850

> <CNNscore>
0.2154619098

> <CNNaffinity>
7.2586240768

> <CNN_VS>
1.5639569759

> <CNNaffinity_variance>
1.9272495508

$$$$
/media/chris/experiments/cd1a-new-docking/inputs/ligands/7ryo_ligand.pdb


 65 67  0  0  0  0  0  0  0  0999 V2000
  -37.7708   59.1245   61.9139 C   0  0  0  0  0  0  0  0  0  0  0  0
  -37.6913   59.2529   60.4684 N   0  0  0  0  0  0  0  0  0  0  0  0
  -38.7774   59.4680   58.5119 O   0  0  0  0  0  0  0  0  0  0  0  0
  -38.7974   59.3704   59.7298 C   0  0  0  0  0  0  0  0  0  0  0  0
  -36.8106   59.2533   60.0282 H   0  0  0  0  0  0  0  0  0  0  0  0
  -39.9323   59.1868   61.9094 N   0  0  0  0  0  0  0  0  0  0  0  0
  -41.1720   61.0657   61.7839 O   0  0  0  0  0  0  0  0  0  0  0  0
  -40.1453   59.4046   60.4689 C   0  0  0  0  0  0  0  0  0  0  0  0
  -41.0353   58.2915   59.9242 C   0  0  0  0  0  0  0  0  0  0  0  0
  -40.8415   60.7720   60.4028 C   0  0  0  0  0  0  0  0  0  0  0  0
  -40.5187   60.1306   62.5217 C   0  0  0  0  0  0  0  0  0  0  0  0
  -41.7463   62.4255   63.7506 O   0  0  0  0  0  0  0  0  0  0  0  0
  -40.5714   60.3172   63.9736 C   0  0  0  0  0  0  0  0  0  0  0  0
  -40.1448   59.2985   64.8268 C   0  0  0  0  0  0  0  0  0  0  0  0
  -40.4125   59.3608   66.1835 C   0  0  0  0  0  0  0  0  0  0  0  0
  -41.1039   60.4300   66.7099 C   0  0  0  0  0  0  0  0  0  0  0  0
  -41.5418   61.4504   65.8852 C   0  0  0  0  0  0  0  0  0  0  0  0
  -41.2842   61.4048   64.5188 C   0  0  0  0  0  0  0  0  0  0  0  0
  -41.5896   62.4247   62.8268 H   0  0  0  0  0  0  0  0  0  0  0  0
  -37.0163   61.3884   62.2969 O   0  0  0  0  0  0  0  0  0  0  0  0
  -36.9899   60.2298   62.6089 C   0  0  0  0  0  0  0  0  0  0  0  0
  -36.2479   59.7252   63.6101 O   0  0  0  0  0  0  0  0  0  0  0  0
  -35.0937   60.5011   64.0742 C   0  0  0  0  0  0  0  0  0  0  0  0
  -33.8525   59.6765   63.8437 C   0  0  0  0  0  0  0  0  0  0  0  0
  -35.3457   60.7654   65.5460 C   0  0  0  0  0  0  0  0  0  0  0  0
  -36.0619   63.0713   65.6576 N   0  0  0  0  0  0  0  0  0  0  0  0
  -37.5774   61.4591   66.0648 O   0  0  0  0  0  0  0  0  0  0  0  0
  -36.4299   61.7930   65.7834 C   0  0  0  0  0  0  0  0  0  0  0  0
  -36.7309   63.7782   65.8053 H   0  0  0  0  0  0  0  0  0  0  0  0
  -32.6663   63.9471   66.5505 N   0  0  0  0  0  0  0  0  0  0  0  0
  -34.6436   64.2454   67.5664 O   0  0  0  0  0  0  0  0  0  0  0  0
  -34.7029   63.4477   65.3092 C   0  0  0  0  0  0  0  0  0  0  0  0
  -34.7183   64.5846   64.2814 C   0  0  0  0  0  0  0  0  0  0  0  0
  -33.4038   64.7422   63.5249 C   0  0  0  0  0  0  0  0  0  0  0  0
  -32.1979   65.0826   64.3780 C   0  0  0  0  0  0  0  0  0  0  0  0
  -31.8139   64.0027   65.3677 C   0  0  0  0  0  0  0  0  0  0  0  0
  -34.0007   63.9154   66.5742 C   0  0  0  0  0  0  0  0  0  0  0  0
  -32.2096   63.9313   67.4225 H   0  0  0  0  0  0  0  0  0  0  0  0
  -37.2956   57.7463   62.3761 C   0  0  0  0  0  0  0  0  0  0  0  0
  -38.3555   56.6688   62.1732 C   0  0  0  0  0  0  0  0  0  0  0  0
  -39.4031   56.6477   63.2707 C   0  0  0  0  0  0  0  0  0  0  0  0
  -40.6090   55.7818   62.9782 C   0  0  0  0  0  0  0  0  0  0  0  0
  -41.7782   56.5961   62.6874 N   0  0  0  0  0  0  0  0  0  0  0  0
  -43.7121   57.5470   63.3576 O   0  0  0  0  0  0  0  0  0  0  0  0
  -42.7078   56.8621   63.6114 C   0  0  0  0  0  0  0  0  0  0  0  0
  -41.8891   56.9636   61.7808 H   0  0  0  0  0  0  0  0  0  0  0  0
  -42.8781   56.8422   66.0902 C   0  0  0  0  0  0  0  0  0  0  0  0
  -42.3946   56.3419   64.9613 C   0  0  0  0  0  0  0  0  0  0  0  0
  -43.8273   57.9882   66.2528 C   0  0  0  0  0  0  0  0  0  0  0  0
  -45.2374   57.5108   66.5776 C   0  0  0  0  0  0  0  0  0  0  0  0
  -46.1073   58.5688   67.2342 C   0  0  0  0  0  0  0  0  0  0  0  0
  -47.5893   58.4059   66.9401 C   0  0  0  0  0  0  0  0  0  0  0  0
  -47.9366   58.3923   65.4633 C   0  0  0  0  0  0  0  0  0  0  0  0
  -47.4788   59.6377   64.7224 C   0  0  0  0  0  0  0  0  0  0  0  0
  -48.5970   60.3497   63.9865 C   0  0  0  0  0  0  0  0  0  0  0  0
  -49.8494   60.5146   64.8239 C   0  0  0  0  0  0  0  0  0  0  0  0
  -51.0651   59.7881   64.2814 C   0  0  0  0  0  0  0  0  0  0  0  0
  -51.0496   59.6681   62.7703 C   0  0  0  0  0  0  0  0  0  0  0  0
  -50.9356   58.2324   62.2845 C   0  0  0  0  0  0  0  0  0  0  0  0
  -49.7367   57.9728   61.3888 C   0  0  0  0  0  0  0  0  0  0  0  0
  -50.0736   57.8702   59.9093 C   0  0  0  0  0  0  0  0  0  0  0  0
  -48.9483   57.2980   59.0581 C   0  0  0  0  0  0  0  0  0  0  0  0
  -47.6926   58.1549   59.0605 C   0  0  0  0  0  0  0  0  0  0  0  0
  -47.5244   57.2301   56.7168 C   0  0  0  0  0  0  0  0  0  0  0  0
  -46.9087   58.1241   57.7610 C   0  0  0  0  0  0  0  0  0  0  0  0
 43 45  1  0  0  0
 43 42  1  0  0  0
 43 46  1  0  0  0
 64 65  1  0  0  0
 44 45  2  0  0  0
 65 63  1  0  0  0
  2  1  1  0  0  0
  2  4  1  0  0  0
  2  5  1  0  0  0
  3  4  2  0  0  0
 63 62  1  0  0  0
  6  8  1  0  0  0
  6 11  2  0  0  0
  7 10  1  0  0  0
  7 11  1  0  0  0
 62 61  1  0  0  0
 26 28  1  0  0  0
 26 32  1  0  0  0
 26 29  1  0  0  0
 12 18  1  0  0  0
 12 19  1  0  0  0
 61 60  1  0  0  0
 30 36  1  0  0  0
 30 37  1  0  0  0
 30 38  1  0  0  0
 20 21  2  0  0  0
 60 59  1  0  0  0
 22 21  1  0  0  0
 22 23  1  0  0  0
 59 58  1  0  0  0
 27 28  2  0  0  0
 58 57  1  0  0  0
 31 37  2  0  0  0
 57 56  1  0  0  0
 56 55  1  0  0  0
 55 54  1  0  0  0
 54 53  1  0  0  0
 53 52  1  0  0  0
 52 51  1  0  0  0
 51 50  1  0  0  0
 50 49  1  0  0  0
 49 47  1  0  0  0
 47 48  2  0  0  0
 48 45  1  0  0  0
 42 41  1  0  0  0
 41 40  1  0  0  0
 40 39  1  0  0  0
 39  1  1  0  0  0
  1 21  1  0  0  0
  8  4  1  0  0  0
  8  9  1  0  0  0
  8 10  1  0  0  0
 11 13  1  0  0  0
 13 14  2  0  0  0
 13 18  1  0  0  0
 14 15  1  0  0  0
 15 16  2  0  0  0
 16 17  1  0  0  0
 17 18  2  0  0  0
 23 24  1  0  0  0
 23 25  1  0  0  0
 25 28  1  0  0  0
 32 33  1  0  0  0
 32 37  1  0  0  0
 33 34  1  0  0  0
 34 35  1  0  0  0
 35 36  1  0  0  0
M  END
> <minimizedAffinity>
-9.77708

> <CNNscore>
0.2092270851

> <CNNaffinity>
7.7972183228

> <CNN_VS>
1.6313892603

> <CNNaffinity_variance>
1.5717053413

$$$$
/media/chris/experiments/cd1a-new-docking/inputs/ligands/7ryo_ligand.pdb


 65 67  0  0  0  0  0  0  0  0999 V2000
  -36.1196   58.7088   62.6004 C   0  0  0  0  0  0  0  0  0  0  0  0
  -35.2388   58.0636   61.6412 N   0  0  0  0  0  0  0  0  0  0  0  0
  -33.1356   57.5890   61.0047 O   0  0  0  0  0  0  0  0  0  0  0  0
  -33.9129   58.1064   61.7929 C   0  0  0  0  0  0  0  0  0  0  0  0
  -35.6246   57.5888   60.8698 H   0  0  0  0  0  0  0  0  0  0  0  0
  -33.1432   60.2500   62.7334 N   0  0  0  0  0  0  0  0  0  0  0  0
  -34.3890   60.2408   64.6125 O   0  0  0  0  0  0  0  0  0  0  0  0
  -33.3626   58.8258   63.0354 C   0  0  0  0  0  0  0  0  0  0  0  0
  -32.0318   58.1897   63.4252 C   0  0  0  0  0  0  0  0  0  0  0  0
  -34.3482   58.8473   64.2131 C   0  0  0  0  0  0  0  0  0  0  0  0
  -33.7348   60.9195   63.6342 C   0  0  0  0  0  0  0  0  0  0  0  0
  -36.0751   62.3432   64.5172 O   0  0  0  0  0  0  0  0  0  0  0  0
  -33.7812   62.3800   63.7350 C   0  0  0  0  0  0  0  0  0  0  0  0
  -32.6231   63.1331   63.5373 C   0  0  0  0  0  0  0  0  0  0  0  0
  -32.5951   64.4775   63.8656 C   0  0  0  0  0  0  0  0  0  0  0  0
  -33.7112   65.0906   64.3920 C   0  0  0  0  0  0  0  0  0  0  0  0
  -34.8701   64.3656   64.6020 C   0  0  0  0  0  0  0  0  0  0  0  0
  -34.9172   63.0129   64.2803 C   0  0  0  0  0  0  0  0  0  0  0  0
  -36.1393   61.4312   64.3118 H   0  0  0  0  0  0  0  0  0  0  0  0
  -37.6621   56.8816   62.2491 O   0  0  0  0  0  0  0  0  0  0  0  0
  -37.3575   57.8652   62.8658 C   0  0  0  0  0  0  0  0  0  0  0  0
  -38.0763   58.3868   63.8751 O   0  0  0  0  0  0  0  0  0  0  0  0
  -37.4672   58.4287   65.2081 C   0  0  0  0  0  0  0  0  0  0  0  0
  -37.0000   57.0371   65.5529 C   0  0  0  0  0  0  0  0  0  0  0  0
  -38.5591   58.9180   66.1397 C   0  0  0  0  0  0  0  0  0  0  0  0
  -40.3894   60.1320   65.1304 N   0  0  0  0  0  0  0  0  0  0  0  0
  -38.5976   61.2928   65.8401 O   0  0  0  0  0  0  0  0  0  0  0  0
  -39.1787   60.2219   65.6884 C   0  0  0  0  0  0  0  0  0  0  0  0
  -40.8338   60.9528   64.8173 H   0  0  0  0  0  0  0  0  0  0  0  0
  -41.7239   57.4606   63.0867 N   0  0  0  0  0  0  0  0  0  0  0  0
  -41.4672   59.6636   62.7529 O   0  0  0  0  0  0  0  0  0  0  0  0
  -41.0687   58.8578   64.9725 C   0  0  0  0  0  0  0  0  0  0  0  0
  -42.3405   58.8294   65.8275 C   0  0  0  0  0  0  0  0  0  0  0  0
  -42.8693   57.4234   66.0896 C   0  0  0  0  0  0  0  0  0  0  0  0
  -43.2803   56.6418   64.8576 C   0  0  0  0  0  0  0  0  0  0  0  0
  -42.1395   56.3309   63.9113 C   0  0  0  0  0  0  0  0  0  0  0  0
  -41.4380   58.6951   63.5065 C   0  0  0  0  0  0  0  0  0  0  0  0
  -41.6462   57.2949   62.1194 H   0  0  0  0  0  0  0  0  0  0  0  0
  -36.5055   60.1157   62.1413 C   0  0  0  0  0  0  0  0  0  0  0  0
  -37.9236   60.1757   61.5840 C   0  0  0  0  0  0  0  0  0  0  0  0
  -37.9942   59.8782   60.0977 C   0  0  0  0  0  0  0  0  0  0  0  0
  -39.3953   59.8216   59.5293 C   0  0  0  0  0  0  0  0  0  0  0  0
  -40.1503   58.7226   60.1100 N   0  0  0  0  0  0  0  0  0  0  0  0
  -41.8381   57.2299   59.9828 O   0  0  0  0  0  0  0  0  0  0  0  0
  -41.1866   58.1597   59.4794 C   0  0  0  0  0  0  0  0  0  0  0  0
  -39.8900   58.3820   60.9963 H   0  0  0  0  0  0  0  0  0  0  0  0
  -42.6122   58.6885   57.5144 C   0  0  0  0  0  0  0  0  0  0  0  0
  -41.4309   58.6831   58.1167 C   0  0  0  0  0  0  0  0  0  0  0  0
  -43.9205   58.2044   58.0574 C   0  0  0  0  0  0  0  0  0  0  0  0
  -45.0285   58.2848   57.0144 C   0  0  0  0  0  0  0  0  0  0  0  0
  -46.4283   58.2657   57.6038 C   0  0  0  0  0  0  0  0  0  0  0  0
  -46.6154   57.2225   58.6929 C   0  0  0  0  0  0  0  0  0  0  0  0
  -47.7905   57.4852   59.6159 C   0  0  0  0  0  0  0  0  0  0  0  0
  -49.1327   57.4817   58.9030 C   0  0  0  0  0  0  0  0  0  0  0  0
  -50.2630   58.0515   59.7376 C   0  0  0  0  0  0  0  0  0  0  0  0
  -50.3843   57.3980   61.0997 C   0  0  0  0  0  0  0  0  0  0  0  0
  -50.7154   58.3573   62.2267 C   0  0  0  0  0  0  0  0  0  0  0  0
  -49.7196   59.4946   62.3393 C   0  0  0  0  0  0  0  0  0  0  0  0
  -49.7023   60.1419   63.7144 C   0  0  0  0  0  0  0  0  0  0  0  0
  -50.9231   59.8312   64.5629 C   0  0  0  0  0  0  0  0  0  0  0  0
  -50.6072   59.1479   65.8844 C   0  0  0  0  0  0  0  0  0  0  0  0
  -49.3132   58.3459   65.8710 C   0  0  0  0  0  0  0  0  0  0  0  0
  -48.2039   58.9736   66.6995 C   0  0  0  0  0  0  0  0  0  0  0  0
  -46.8059   58.2011   64.7438 C   0  0  0  0  0  0  0  0  0  0  0  0
  -46.8083   58.7682   66.1392 C   0  0  0  0  0  0  0  0  0  0  0  0
 43 45  1  0  0  0
 43 42  1  0  0  0
 43 46  1  0  0  0
 64 65  1  0  0  0
 44 45  2  0  0  0
 65 63  1  0  0  0
  2  1  1  0  0  0
  2  4  1  0  0  0
  2  5  1  0  0  0
  3  4  2  0  0  0
 63 62  1  0  0  0
  6  8  1  0  0  0
  6 11  2  0  0  0
  7 10  1  0  0  0
  7 11  1  0  0  0
 62 61  1  0  0  0
 26 28  1  0  0  0
 26 32  1  0  0  0
 26 29  1  0  0  0
 12 18  1  0  0  0
 12 19  1  0  0  0
 61 60  1  0  0  0
 30 36  1  0  0  0
 30 37  1  0  0  0
 30 38  1  0  0  0
 20 21  2  0  0  0
 60 59  1  0  0  0
 22 21  1  0  0  0
 22 23  1  0  0  0
 59 58  1  0  0  0
 27 28  2  0  0  0
 58 57  1  0  0  0
 31 37  2  0  0  0
 57 56  1  0  0  0
 56 55  1  0  0  0
 55 54  1  0  0  0
 54 53  1  0  0  0
 53 52  1  0  0  0
 52 51  1  0  0  0
 51 50  1  0  0  0
 50 49  1  0  0  0
 49 47  1  0  0  0
 47 48  2  0  0  0
 48 45  1  0  0  0
 42 41  1  0  0  0
 41 40  1  0  0  0
 40 39  1  0  0  0
 39  1  1  0  0  0
  1 21  1  0  0  0
  8  4  1  0  0  0
  8  9  1  0  0  0
  8 10  1  0  0  0
 11 13  1  0  0  0
 13 14  2  0  0  0
 13 18  1  0  0  0
 14 15  1  0  0  0
 15 16  2  0  0  0
 16 17  1  0  0  0
 17 18  2  0  0  0
 23 24  1  0  0  0
 23 25  1  0  0  0
 25 28  1  0  0  0
 32 33  1  0  0  0
 32 37  1  0  0  0
 33 34  1  0  0  0
 34 35  1  0  0  0
 35 36  1  0  0  0
M  END
> <minimizedAffinity>
-8.23964

> <CNNscore>
0.1797435880

> <CNNaffinity>
7.6646256447

> <CNN_VS>
1.3776673079

> <CNNaffinity_variance>
1.3961614370

$$$$
/media/chris/experiments/cd1a-new-docking/inputs/ligands/7ryo_ligand.pdb


 65 67  0  0  0  0  0  0  0  0999 V2000
  -35.2577   58.8108   63.4600 C   0  0  0  0  0  0  0  0  0  0  0  0
  -35.6246   60.0273   62.7545 N   0  0  0  0  0  0  0  0  0  0  0  0
  -37.0885   61.7144   62.4994 O   0  0  0  0  0  0  0  0  0  0  0  0
  -36.7357   60.6953   63.0741 C   0  0  0  0  0  0  0  0  0  0  0  0
  -35.0466   60.3632   62.0317 H   0  0  0  0  0  0  0  0  0  0  0  0
  -39.0066   60.1544   63.8631 N   0  0  0  0  0  0  0  0  0  0  0  0
  -38.6023   58.0588   64.5896 O   0  0  0  0  0  0  0  0  0  0  0  0
  -37.5825   60.1512   64.2365 C   0  0  0  0  0  0  0  0  0  0  0  0
  -37.3857   61.0499   65.4536 C   0  0  0  0  0  0  0  0  0  0  0  0
  -37.2918   58.6792   64.5648 C   0  0  0  0  0  0  0  0  0  0  0  0
  -39.4555   58.9893   64.0878 C   0  0  0  0  0  0  0  0  0  0  0  0
  -40.0783   56.5503   62.6923 O   0  0  0  0  0  0  0  0  0  0  0  0
  -40.8299   58.5348   63.8636 C   0  0  0  0  0  0  0  0  0  0  0  0
  -41.8970   59.2121   64.4552 C   0  0  0  0  0  0  0  0  0  0  0  0
  -43.1662   58.6596   64.4548 C   0  0  0  0  0  0  0  0  0  0  0  0
  -43.3929   57.4329   63.8697 C   0  0  0  0  0  0  0  0  0  0  0  0
  -42.3516   56.7391   63.2806 C   0  0  0  0  0  0  0  0  0  0  0  0
  -41.0685   57.2770   63.2727 C   0  0  0  0  0  0  0  0  0  0  0  0
  -39.2032   56.8845   62.6705 H   0  0  0  0  0  0  0  0  0  0  0  0
  -33.3824   58.1331   64.8257 O   0  0  0  0  0  0  0  0  0  0  0  0
  -33.8624   58.9196   64.0566 C   0  0  0  0  0  0  0  0  0  0  0  0
  -33.2477   60.0323   63.6190 O   0  0  0  0  0  0  0  0  0  0  0  0
  -32.2051   59.8901   62.5980 C   0  0  0  0  0  0  0  0  0  0  0  0
  -31.5872   58.5229   62.7477 C   0  0  0  0  0  0  0  0  0  0  0  0
  -31.2134   61.0044   62.8707 C   0  0  0  0  0  0  0  0  0  0  0  0
  -31.9189   63.2640   62.3818 N   0  0  0  0  0  0  0  0  0  0  0  0
  -30.9287   62.0751   60.7486 O   0  0  0  0  0  0  0  0  0  0  0  0
  -31.3421   62.1586   61.9016 C   0  0  0  0  0  0  0  0  0  0  0  0
  -32.0287   64.0422   61.7890 H   0  0  0  0  0  0  0  0  0  0  0  0
  -34.5485   63.1573   64.8654 N   0  0  0  0  0  0  0  0  0  0  0  0
  -34.5021   63.7684   62.7078 O   0  0  0  0  0  0  0  0  0  0  0  0
  -32.3888   63.3502   63.7536 C   0  0  0  0  0  0  0  0  0  0  0  0
  -31.8087   64.5964   64.4317 C   0  0  0  0  0  0  0  0  0  0  0  0
  -31.8611   64.5436   65.9547 C   0  0  0  0  0  0  0  0  0  0  0  0
  -33.2497   64.4548   66.5561 C   0  0  0  0  0  0  0  0  0  0  0  0
  -33.9930   63.1804   66.2144 C   0  0  0  0  0  0  0  0  0  0  0  0
  -33.9063   63.4438   63.7307 C   0  0  0  0  0  0  0  0  0  0  0  0
  -35.4963   62.9038   64.7835 H   0  0  0  0  0  0  0  0  0  0  0  0
  -35.3689   57.5863   62.5505 C   0  0  0  0  0  0  0  0  0  0  0  0
  -35.9216   57.9350   61.1727 C   0  0  0  0  0  0  0  0  0  0  0  0
  -37.4376   57.9887   61.1336 C   0  0  0  0  0  0  0  0  0  0  0  0
  -38.0127   58.8236   60.0104 C   0  0  0  0  0  0  0  0  0  0  0  0
  -38.9298   59.8286   60.5238 N   0  0  0  0  0  0  0  0  0  0  0  0
  -41.0389   60.5526   60.8720 O   0  0  0  0  0  0  0  0  0  0  0  0
  -40.2574   59.6873   60.4445 C   0  0  0  0  0  0  0  0  0  0  0  0
  -38.5615   60.6395   60.9434 H   0  0  0  0  0  0  0  0  0  0  0  0
  -41.3643   58.2543   58.7431 C   0  0  0  0  0  0  0  0  0  0  0  0
  -40.7019   58.3917   59.8836 C   0  0  0  0  0  0  0  0  0  0  0  0
  -41.7814   59.3303   57.7896 C   0  0  0  0  0  0  0  0  0  0  0  0
  -42.9354   58.8809   56.9018 C   0  0  0  0  0  0  0  0  0  0  0  0
  -44.1103   58.3006   57.6698 C   0  0  0  0  0  0  0  0  0  0  0  0
  -45.4102   58.2988   56.8826 C   0  0  0  0  0  0  0  0  0  0  0  0
  -46.6596   58.1986   57.7375 C   0  0  0  0  0  0  0  0  0  0  0  0
  -46.6983   56.9543   58.6091 C   0  0  0  0  0  0  0  0  0  0  0  0
  -47.8195   56.9647   59.6297 C   0  0  0  0  0  0  0  0  0  0  0  0
  -48.9988   57.8187   59.2089 C   0  0  0  0  0  0  0  0  0  0  0  0
  -49.6414   58.5990   60.3395 C   0  0  0  0  0  0  0  0  0  0  0  0
  -50.0826   57.7117   61.4867 C   0  0  0  0  0  0  0  0  0  0  0  0
  -51.0924   58.3789   62.4061 C   0  0  0  0  0  0  0  0  0  0  0  0
  -50.6876   59.7672   62.8705 C   0  0  0  0  0  0  0  0  0  0  0  0
  -51.1771   60.1262   64.2649 C   0  0  0  0  0  0  0  0  0  0  0  0
  -50.0935   60.6905   65.1734 C   0  0  0  0  0  0  0  0  0  0  0  0
  -48.6901   60.5336   64.6105 C   0  0  0  0  0  0  0  0  0  0  0  0
  -48.1457   58.0839   64.8917 C   0  0  0  0  0  0  0  0  0  0  0  0
  -47.8409   59.4951   65.3208 C   0  0  0  0  0  0  0  0  0  0  0  0
 43 45  1  0  0  0
 43 42  1  0  0  0
 43 46  1  0  0  0
 64 65  1  0  0  0
 44 45  2  0  0  0
 65 63  1  0  0  0
  2  1  1  0  0  0
  2  4  1  0  0  0
  2  5  1  0  0  0
  3  4  2  0  0  0
 63 62  1  0  0  0
  6  8  1  0  0  0
  6 11  2  0  0  0
  7 10  1  0  0  0
  7 11  1  0  0  0
 62 61  1  0  0  0
 26 28  1  0  0  0
 26 32  1  0  0  0
 26 29  1  0  0  0
 12 18  1  0  0  0
 12 19  1  0  0  0
 61 60  1  0  0  0
 30 36  1  0  0  0
 30 37  1  0  0  0
 30 38  1  0  0  0
 20 21  2  0  0  0
 60 59  1  0  0  0
 22 21  1  0  0  0
 22 23  1  0  0  0
 59 58  1  0  0  0
 27 28  2  0  0  0
 58 57  1  0  0  0
 31 37  2  0  0  0
 57 56  1  0  0  0
 56 55  1  0  0  0
 55 54  1  0  0  0
 54 53  1  0  0  0
 53 52  1  0  0  0
 52 51  1  0  0  0
 51 50  1  0  0  0
 50 49  1  0  0  0
 49 47  1  0  0  0
 47 48  2  0  0  0
 48 45  1  0  0  0
 42 41  1  0  0  0
 41 40  1  0  0  0
 40 39  1  0  0  0
 39  1  1  0  0  0
  1 21  1  0  0  0
  8  4  1  0  0  0
  8  9  1  0  0  0
  8 10  1  0  0  0
 11 13  1  0  0  0
 13 14  2  0  0  0
 13 18  1  0  0  0
 14 15  1  0  0  0
 15 16  2  0  0  0
 16 17  1  0  0  0
 17 18  2  0  0  0
 23 24  1  0  0  0
 23 25  1  0  0  0
 25 28  1  0  0  0
 32 33  1  0  0  0
 32 37  1  0  0  0
 33 34  1  0  0  0
 34 35  1  0  0  0
 35 36  1  0  0  0
M  END
> <minimizedAffinity>
-8.59353

> <CNNscore>
0.1775038540

> <CNNaffinity>
7.1679410934

> <CNN_VS>
1.2723371983

> <CNNaffinity_variance>
1.1755081415

$$$$
/media/chris/experiments/cd1a-new-docking/inputs/ligands/7ryo_ligand.pdb


 65 67  0  0  0  0  0  0  0  0999 V2000
  -36.2533   60.2199   64.6681 C   0  0  0  0  0  0  0  0  0  0  0  0
  -35.9573   58.9745   65.3564 N   0  0  0  0  0  0  0  0  0  0  0  0
  -35.4688   56.7851   65.2084 O   0  0  0  0  0  0  0  0  0  0  0  0
  -35.7095   57.8558   64.6708 C   0  0  0  0  0  0  0  0  0  0  0  0
  -35.9393   58.9554   66.3406 H   0  0  0  0  0  0  0  0  0  0  0  0
  -36.9678   57.3989   62.6020 N   0  0  0  0  0  0  0  0  0  0  0  0
  -36.7751   59.4354   61.6539 O   0  0  0  0  0  0  0  0  0  0  0  0
  -35.7104   57.9479   63.1360 C   0  0  0  0  0  0  0  0  0  0  0  0
  -34.5413   57.1325   62.5919 C   0  0  0  0  0  0  0  0  0  0  0  0
  -35.6879   59.3917   62.6125 C   0  0  0  0  0  0  0  0  0  0  0  0
  -37.4576   58.2731   61.8238 C   0  0  0  0  0  0  0  0  0  0  0  0
  -39.5982   56.5233   62.6236 O   0  0  0  0  0  0  0  0  0  0  0  0
  -38.7065   58.1541   61.0678 C   0  0  0  0  0  0  0  0  0  0  0  0
  -38.9590   59.0078   59.9932 C   0  0  0  0  0  0  0  0  0  0  0  0
  -40.2216   59.0724   59.4292 C   0  0  0  0  0  0  0  0  0  0  0  0
  -41.2462   58.2938   59.9215 C   0  0  0  0  0  0  0  0  0  0  0  0
  -41.0234   57.4427   60.9887 C   0  0  0  0  0  0  0  0  0  0  0  0
  -39.7619   57.3654   61.5703 C   0  0  0  0  0  0  0  0  0  0  0  0
  -38.7610   56.4481   63.0376 H   0  0  0  0  0  0  0  0  0  0  0  0
  -33.9327   60.8942   64.6315 O   0  0  0  0  0  0  0  0  0  0  0  0
  -35.0876   61.1927   64.7640 C   0  0  0  0  0  0  0  0  0  0  0  0
  -35.5292   62.4323   65.0393 O   0  0  0  0  0  0  0  0  0  0  0  0
  -34.8622   63.1826   66.1079 C   0  0  0  0  0  0  0  0  0  0  0  0
  -35.8942   63.5274   67.1518 C   0  0  0  0  0  0  0  0  0  0  0  0
  -34.2830   64.4147   65.4402 C   0  0  0  0  0  0  0  0  0  0  0  0
  -32.0428   65.3203   65.3749 N   0  0  0  0  0  0  0  0  0  0  0  0
  -33.0319   65.0551   67.3781 O   0  0  0  0  0  0  0  0  0  0  0  0
  -33.0642   64.9548   66.1549 C   0  0  0  0  0  0  0  0  0  0  0  0
  -31.2252   65.6753   65.7928 H   0  0  0  0  0  0  0  0  0  0  0  0
  -31.9220   63.3897   62.3167 N   0  0  0  0  0  0  0  0  0  0  0  0
  -30.9347   63.1555   64.3170 O   0  0  0  0  0  0  0  0  0  0  0  0
  -32.1043   65.2086   63.9279 C   0  0  0  0  0  0  0  0  0  0  0  0
  -31.2191   66.2785   63.2790 C   0  0  0  0  0  0  0  0  0  0  0  0
  -31.5539   66.5429   61.8151 C   0  0  0  0  0  0  0  0  0  0  0  0
  -31.3812   65.3598   60.8833 C   0  0  0  0  0  0  0  0  0  0  0  0
  -32.3150   64.2028   61.1708 C   0  0  0  0  0  0  0  0  0  0  0  0
  -31.6023   63.8277   63.5365 C   0  0  0  0  0  0  0  0  0  0  0  0
  -31.8893   62.4159   62.1756 H   0  0  0  0  0  0  0  0  0  0  0  0
  -37.5398   60.8550   65.1978 C   0  0  0  0  0  0  0  0  0  0  0  0
  -38.4942   59.8243   65.7913 C   0  0  0  0  0  0  0  0  0  0  0  0
  -39.5064   59.3012   64.7891 C   0  0  0  0  0  0  0  0  0  0  0  0
  -40.8353   58.8925   65.3862 C   0  0  0  0  0  0  0  0  0  0  0  0
  -41.2944   57.6321   64.8246 N   0  0  0  0  0  0  0  0  0  0  0  0
  -42.6905   55.8599   64.8850 O   0  0  0  0  0  0  0  0  0  0  0  0
  -42.3083   56.9425   65.3584 C   0  0  0  0  0  0  0  0  0  0  0  0
  -40.8440   57.2747   64.0254 H   0  0  0  0  0  0  0  0  0  0  0  0
  -44.2403   58.0078   66.5014 C   0  0  0  0  0  0  0  0  0  0  0  0
  -42.9735   57.6157   66.4964 C   0  0  0  0  0  0  0  0  0  0  0  0
  -45.2533   57.8498   65.4106 C   0  0  0  0  0  0  0  0  0  0  0  0
  -46.3842   56.9152   65.8222 C   0  0  0  0  0  0  0  0  0  0  0  0
  -47.7540   57.5714   65.8196 C   0  0  0  0  0  0  0  0  0  0  0  0
  -47.8415   58.8000   66.7096 C   0  0  0  0  0  0  0  0  0  0  0  0
  -48.6863   59.9252   66.1421 C   0  0  0  0  0  0  0  0  0  0  0  0
  -50.1442   59.5455   65.9417 C   0  0  0  0  0  0  0  0  0  0  0  0
  -50.9181   60.5395   65.0980 C   0  0  0  0  0  0  0  0  0  0  0  0
  -51.1669   60.0528   63.6843 C   0  0  0  0  0  0  0  0  0  0  0  0
  -50.7882   58.6038   63.4456 C   0  0  0  0  0  0  0  0  0  0  0  0
  -51.0398   58.1604   62.0180 C   0  0  0  0  0  0  0  0  0  0  0  0
  -50.1952   58.9094   61.0003 C   0  0  0  0  0  0  0  0  0  0  0  0
  -48.8632   58.2482   60.6908 C   0  0  0  0  0  0  0  0  0  0  0  0
  -48.9743   56.7967   60.2509 C   0  0  0  0  0  0  0  0  0  0  0  0
  -48.0269   56.4200   59.1202 C   0  0  0  0  0  0  0  0  0  0  0  0
  -46.9514   57.4624   58.8597 C   0  0  0  0  0  0  0  0  0  0  0  0
  -46.7376   56.4977   56.5360 C   0  0  0  0  0  0  0  0  0  0  0  0
  -46.6851   57.7368   57.3907 C   0  0  0  0  0  0  0  0  0  0  0  0
 43 45  1  0  0  0
 43 42  1  0  0  0
 43 46  1  0  0  0
 64 65  1  0  0  0
 44 45  2  0  0  0
 65 63  1  0  0  0
  2  1  1  0  0  0
  2  4  1  0  0  0
  2  5  1  0  0  0
  3  4  2  0  0  0
 63 62  1  0  0  0
  6  8  1  0  0  0
  6 11  2  0  0  0
  7 10  1  0  0  0
  7 11  1  0  0  0
 62 61  1  0  0  0
 26 28  1  0  0  0
 26 32  1  0  0  0
 26 29  1  0  0  0
 12 18  1  0  0  0
 12 19  1  0  0  0
 61 60  1  0  0  0
 30 36  1  0  0  0
 30 37  1  0  0  0
 30 38  1  0  0  0
 20 21  2  0  0  0
 60 59  1  0  0  0
 22 21  1  0  0  0
 22 23  1  0  0  0
 59 58  1  0  0  0
 27 28  2  0  0  0
 58 57  1  0  0  0
 31 37  2  0  0  0
 57 56  1  0  0  0
 56 55  1  0  0  0
 55 54  1  0  0  0
 54 53  1  0  0  0
 53 52  1  0  0  0
 52 51  1  0  0  0
 51 50  1  0  0  0
 50 49  1  0  0  0
 49 47  1  0  0  0
 47 48  2  0  0  0
 48 45  1  0  0  0
 42 41  1  0  0  0
 41 40  1  0  0  0
 40 39  1  0  0  0
 39  1  1  0  0  0
  1 21  1  0  0  0
  8  4  1  0  0  0
  8  9  1  0  0  0
  8 10  1  0  0  0
 11 13  1  0  0  0
 13 14  2  0  0  0
 13 18  1  0  0  0
 14 15  1  0  0  0
 15 16  2  0  0  0
 16 17  1  0  0  0
 17 18  2  0  0  0
 23 24  1  0  0  0
 23 25  1  0  0  0
 25 28  1  0  0  0
 32 33  1  0  0  0
 32 37  1  0  0  0
 33 34  1  0  0  0
 34 35  1  0  0  0
 35 36  1  0  0  0
M  END
> <minimizedAffinity>
-9.92612

> <CNNscore>
0.1630864143

> <CNNaffinity>
7.3666176796

> <CNN_VS>
1.2013952732

> <CNNaffinity_variance>
0.8253983259

$$$$
