/media/chris/experiments/cd1a-new-docking/inputs/ligands/7ryo_ligand.pdb


 65 67  0  0  0  0  0  0  0  0999 V2000
  -35.3314   58.8479   63.8643 C   0  0  0  0  0  0  0  0  0  0  0  0
  -35.9806   59.8524   63.0386 N   0  0  0  0  0  0  0  0  0  0  0  0
  -37.6886   61.2906   62.7772 O   0  0  0  0  0  0  0  0  0  0  0  0
  -37.1032   60.4507   63.4444 C   0  0  0  0  0  0  0  0  0  0  0  0
  -35.5876   60.0949   62.1690 H   0  0  0  0  0  0  0  0  0  0  0  0
  -39.1257   60.0565   64.7957 N   0  0  0  0  0  0  0  0  0  0  0  0
  -38.5519   58.0521   65.6536 O   0  0  0  0  0  0  0  0  0  0  0  0
  -37.6539   60.0655   64.8273 C   0  0  0  0  0  0  0  0  0  0  0  0
  -37.1849   61.0961   65.8499 C   0  0  0  0  0  0  0  0  0  0  0  0
  -37.2865   58.6361   65.2526 C   0  0  0  0  0  0  0  0  0  0  0  0
  -39.5035   58.9361   65.2554 C   0  0  0  0  0  0  0  0  0  0  0  0
  -40.5661   56.6529   63.8619 O   0  0  0  0  0  0  0  0  0  0  0  0
  -40.8898   58.4890   65.4108 C   0  0  0  0  0  0  0  0  0  0  0  0
  -41.7146   59.0834   66.3666 C   0  0  0  0  0  0  0  0  0  0  0  0
  -42.9347   58.5162   66.6917 C   0  0  0  0  0  0  0  0  0  0  0  0
  -43.3514   57.3565   66.0752 C   0  0  0  0  0  0  0  0  0  0  0  0
  -42.5508   56.7450   65.1277 C   0  0  0  0  0  0  0  0  0  0  0  0
  -41.3200   57.2987   64.7892 C   0  0  0  0  0  0  0  0  0  0  0  0
  -39.7324   56.9998   63.6119 H   0  0  0  0  0  0  0  0  0  0  0  0
  -33.8753   60.1114   65.3217 O   0  0  0  0  0  0  0  0  0  0  0  0
  -34.0001   59.3522   64.4007 C   0  0  0  0  0  0  0  0  0  0  0  0
  -32.9808   58.8453   63.6854 O   0  0  0  0  0  0  0  0  0  0  0  0
  -32.5847   59.5409   62.4570 C   0  0  0  0  0  0  0  0  0  0  0  0
  -32.0393   58.5162   61.4946 C   0  0  0  0  0  0  0  0  0  0  0  0
  -31.5356   60.5505   62.8806 C   0  0  0  0  0  0  0  0  0  0  0  0
  -31.7589   62.8942   62.3335 N   0  0  0  0  0  0  0  0  0  0  0  0
  -30.9279   61.5050   60.7709 O   0  0  0  0  0  0  0  0  0  0  0  0
  -31.3819   61.6890   61.8968 C   0  0  0  0  0  0  0  0  0  0  0  0
  -31.6812   63.6676   61.7292 H   0  0  0  0  0  0  0  0  0  0  0  0
  -34.4968   63.1710   64.6832 N   0  0  0  0  0  0  0  0  0  0  0  0
  -34.2912   63.6632   62.5046 O   0  0  0  0  0  0  0  0  0  0  0  0
  -32.2801   63.0960   63.6742 C   0  0  0  0  0  0  0  0  0  0  0  0
  -31.6104   64.3131   64.3220 C   0  0  0  0  0  0  0  0  0  0  0  0
  -31.7375   64.3439   65.8412 C   0  0  0  0  0  0  0  0  0  0  0  0
  -33.1541   64.4213   66.3751 C   0  0  0  0  0  0  0  0  0  0  0  0
  -34.0041   63.2094   66.0559 C   0  0  0  0  0  0  0  0  0  0  0  0
  -33.7780   63.3352   63.5703 C   0  0  0  0  0  0  0  0  0  0  0  0
  -35.4603   63.0070   64.5652 H   0  0  0  0  0  0  0  0  0  0  0  0
  -35.1508   57.5344   63.1019 C   0  0  0  0  0  0  0  0  0  0  0  0
  -35.9502   57.5023   61.8037 C   0  0  0  0  0  0  0  0  0  0  0  0
  -37.4212   57.1961   62.0157 C   0  0  0  0  0  0  0  0  0  0  0  0
  -38.3534   57.8462   61.0168 C   0  0  0  0  0  0  0  0  0  0  0  0
  -39.1729   58.8648   61.6540 N   0  0  0  0  0  0  0  0  0  0  0  0
  -41.1988   59.7795   62.0447 O   0  0  0  0  0  0  0  0  0  0  0  0
  -40.5021   58.9012   61.5102 C   0  0  0  0  0  0  0  0  0  0  0  0
  -38.7350   59.5497   62.2091 H   0  0  0  0  0  0  0  0  0  0  0  0
  -41.4401   57.8452   59.4661 C   0  0  0  0  0  0  0  0  0  0  0  0
  -41.0646   57.7723   60.7359 C   0  0  0  0  0  0  0  0  0  0  0  0
  -41.3673   59.0306   58.5551 C   0  0  0  0  0  0  0  0  0  0  0  0
  -41.8909   58.7043   57.1619 C   0  0  0  0  0  0  0  0  0  0  0  0
  -43.3180   59.1642   56.9196 C   0  0  0  0  0  0  0  0  0  0  0  0
  -44.3580   58.0910   57.1958 C   0  0  0  0  0  0  0  0  0  0  0  0
  -45.7715   58.6169   57.3609 C   0  0  0  0  0  0  0  0  0  0  0  0
  -46.7423   57.5823   57.9056 C   0  0  0  0  0  0  0  0  0  0  0  0
  -47.7328   58.1481   58.9043 C   0  0  0  0  0  0  0  0  0  0  0  0
  -49.0877   57.4716   58.8466 C   0  0  0  0  0  0  0  0  0  0  0  0
  -50.0482   57.9002   59.9392 C   0  0  0  0  0  0  0  0  0  0  0  0
  -49.3393   58.3020   61.2174 C   0  0  0  0  0  0  0  0  0  0  0  0
  -49.6741   59.7140   61.6697 C   0  0  0  0  0  0  0  0  0  0  0  0
  -50.7705   59.7871   62.7183 C   0  0  0  0  0  0  0  0  0  0  0  0
  -50.6863   58.7070   63.7857 C   0  0  0  0  0  0  0  0  0  0  0  0
  -50.1703   59.2051   65.1288 C   0  0  0  0  0  0  0  0  0  0  0  0
  -49.6743   58.0913   66.0368 C   0  0  0  0  0  0  0  0  0  0  0  0
  -47.3420   58.5190   65.1689 C   0  0  0  0  0  0  0  0  0  0  0  0
  -48.3433   57.4900   65.6239 C   0  0  0  0  0  0  0  0  0  0  0  0
 43 45  1  0  0  0
 43 42  1  0  0  0
 43 46  1  0  0  0
 64 65  1  0  0  0
 44 45  2  0  0  0
 65 63  1  0  0  0
  2  1  1  0  0  0
  2  4  1  0  0  0
  2  5  1  0  0  0
  3  4  2  0  0  0
 63 62  1  0  0  0
  6  8  1  0  0  0
  6 11  2  0  0  0
  7 10  1  0  0  0
  7 11  1  0  0  0
 62 61  1  0  0  0
 26 28  1  0  0  0
 26 32  1  0  0  0
 26 29  1  0  0  0
 12 18  1  0  0  0
 12 19  1  0  0  0
 61 60  1  0  0  0
 30 36  1  0  0  0
 30 37  1  0  0  0
 30 38  1  0  0  0
 20 21  2  0  0  0
 60 59  1  0  0  0
 22 21  1  0  0  0
 22 23  1  0  0  0
 59 58  1  0  0  0
 27 28  2  0  0  0
 58 57  1  0  0  0
 31 37  2  0  0  0
 57 56  1  0  0  0
 56 55  1  0  0  0
 55 54  1  0  0  0
 54 53  1  0  0  0
 53 52  1  0  0  0
 52 51  1  0  0  0
 51 50  1  0  0  0
 50 49  1  0  0  0
 49 47  1  0  0  0
 47 48  2  0  0  0
 48 45  1  0  0  0
 42 41  1  0  0  0
 41 40  1  0  0  0
 40 39  1  0  0  0
 39  1  1  0  0  0
  1 21  1  0  0  0
  8  4  1  0  0  0
  8  9  1  0  0  0
  8 10  1  0  0  0
 11 13  1  0  0  0
 13 14  2  0  0  0
 13 18  1  0  0  0
 14 15  1  0  0  0
 15 16  2  0  0  0
 16 17  1  0  0  0
 17 18  2  0  0  0
 23 24  1  0  0  0
 23 25  1  0  0  0
 25 28  1  0  0  0
 32 33  1  0  0  0
 32 37  1  0  0  0
 33 34  1  0  0  0
 34 35  1  0  0  0
 35 36  1  0  0  0
M  END
> <minimizedAffinity>
-8.68065

> <CNNscore>
0.3339353502

> <CNNaffinity>
7.5032234192

> <CNN_VS>
2.5055916309

> <CNNaffinity_variance>
1.1690986156

$$$$
/media/chris/experiments/cd1a-new-docking/inputs/ligands/7ryo_ligand.pdb


 65 67  0  0  0  0  0  0  0  0999 V2000
  -35.7544   60.5380   64.3632 C   0  0  0  0  0  0  0  0  0  0  0  0
  -34.3640   60.1610   64.1710 N   0  0  0  0  0  0  0  0  0  0  0  0
  -32.8827   58.5697   63.5986 O   0  0  0  0  0  0  0  0  0  0  0  0
  -34.0382   58.9328   63.7610 C   0  0  0  0  0  0  0  0  0  0  0  0
  -33.6532   60.8196   64.3453 H   0  0  0  0  0  0  0  0  0  0  0  0
  -36.4119   58.7039   63.1404 N   0  0  0  0  0  0  0  0  0  0  0  0
  -36.1592   57.2435   61.4414 O   0  0  0  0  0  0  0  0  0  0  0  0
  -35.1868   57.9545   63.4642 C   0  0  0  0  0  0  0  0  0  0  0  0
  -35.4396   57.0998   64.7025 C   0  0  0  0  0  0  0  0  0  0  0  0
  -34.9440   57.0904   62.2180 C   0  0  0  0  0  0  0  0  0  0  0  0
  -36.8500   58.2482   62.0404 C   0  0  0  0  0  0  0  0  0  0  0  0
  -36.7500   59.6349   59.5203 O   0  0  0  0  0  0  0  0  0  0  0  0
  -38.0533   58.6983   61.3367 C   0  0  0  0  0  0  0  0  0  0  0  0
  -39.3164   58.3363   61.8066 C   0  0  0  0  0  0  0  0  0  0  0  0
  -40.4416   58.5436   61.0274 C   0  0  0  0  0  0  0  0  0  0  0  0
  -40.3293   59.1108   59.7767 C   0  0  0  0  0  0  0  0  0  0  0  0
  -39.0885   59.4743   59.2856 C   0  0  0  0  0  0  0  0  0  0  0  0
  -37.9457   59.2719   60.0531 C   0  0  0  0  0  0  0  0  0  0  0  0
  -35.9616   59.5119   60.0114 H   0  0  0  0  0  0  0  0  0  0  0  0
  -35.8192   62.4452   62.8803 O   0  0  0  0  0  0  0  0  0  0  0  0
  -35.9895   61.9908   63.9779 C   0  0  0  0  0  0  0  0  0  0  0  0
  -36.3954   62.7018   65.0443 O   0  0  0  0  0  0  0  0  0  0  0  0
  -35.4172   62.9864   66.0987 C   0  0  0  0  0  0  0  0  0  0  0  0
  -36.1601   63.5382   67.2892 C   0  0  0  0  0  0  0  0  0  0  0  0
  -34.4553   63.9948   65.5008 C   0  0  0  0  0  0  0  0  0  0  0  0
  -32.0565   64.2123   65.2999 N   0  0  0  0  0  0  0  0  0  0  0  0
  -32.9156   63.6441   67.3001 O   0  0  0  0  0  0  0  0  0  0  0  0
  -33.0754   63.9303   66.1169 C   0  0  0  0  0  0  0  0  0  0  0  0
  -31.1379   64.1810   65.6528 H   0  0  0  0  0  0  0  0  0  0  0  0
  -32.9907   63.3770   61.9053 N   0  0  0  0  0  0  0  0  0  0  0  0
  -32.0527   62.2022   63.5699 O   0  0  0  0  0  0  0  0  0  0  0  0
  -32.2651   64.5636   63.9061 C   0  0  0  0  0  0  0  0  0  0  0  0
  -31.0596   65.3467   63.3740 C   0  0  0  0  0  0  0  0  0  0  0  0
  -31.3566   66.1374   62.1045 C   0  0  0  0  0  0  0  0  0  0  0  0
  -31.7713   65.3104   60.9038 C   0  0  0  0  0  0  0  0  0  0  0  0
  -33.0841   64.5763   61.0800 C   0  0  0  0  0  0  0  0  0  0  0  0
  -32.4270   63.2775   63.1113 C   0  0  0  0  0  0  0  0  0  0  0  0
  -33.3849   62.5547   61.5341 H   0  0  0  0  0  0  0  0  0  0  0  0
  -36.2081   60.2734   65.7995 C   0  0  0  0  0  0  0  0  0  0  0  0
  -37.5814   59.6133   65.8620 C   0  0  0  0  0  0  0  0  0  0  0  0
  -38.7211   60.6122   65.9396 C   0  0  0  0  0  0  0  0  0  0  0  0
  -40.0809   60.0019   66.2003 C   0  0  0  0  0  0  0  0  0  0  0  0
  -41.0138   60.3314   65.1344 N   0  0  0  0  0  0  0  0  0  0  0  0
  -42.5618   59.6855   63.6243 O   0  0  0  0  0  0  0  0  0  0  0  0
  -41.7751   59.4041   64.5432 C   0  0  0  0  0  0  0  0  0  0  0  0
  -41.0872   61.2674   64.8382 H   0  0  0  0  0  0  0  0  0  0  0  0
  -42.5348   57.5111   65.9618 C   0  0  0  0  0  0  0  0  0  0  0  0
  -41.6550   58.0503   65.1289 C   0  0  0  0  0  0  0  0  0  0  0  0
  -43.8087   58.1140   66.4662 C   0  0  0  0  0  0  0  0  0  0  0  0
  -44.9887   57.7766   65.5632 C   0  0  0  0  0  0  0  0  0  0  0  0
  -46.2147   57.2858   66.3137 C   0  0  0  0  0  0  0  0  0  0  0  0
  -47.2432   58.3734   66.5755 C   0  0  0  0  0  0  0  0  0  0  0  0
  -47.5551   59.2429   65.3720 C   0  0  0  0  0  0  0  0  0  0  0  0
  -48.9954   59.1298   64.9006 C   0  0  0  0  0  0  0  0  0  0  0  0
  -49.4542   60.3101   64.0669 C   0  0  0  0  0  0  0  0  0  0  0  0
  -49.8854   59.9183   62.6679 C   0  0  0  0  0  0  0  0  0  0  0  0
  -51.1541   59.0892   62.6132 C   0  0  0  0  0  0  0  0  0  0  0  0
  -50.9671   57.7809   61.8707 C   0  0  0  0  0  0  0  0  0  0  0  0
  -49.8250   57.8188   60.8685 C   0  0  0  0  0  0  0  0  0  0  0  0
  -49.3883   56.4515   60.3719 C   0  0  0  0  0  0  0  0  0  0  0  0
  -48.1783   56.4791   59.4510 C   0  0  0  0  0  0  0  0  0  0  0  0
  -47.6908   57.8815   59.1137 C   0  0  0  0  0  0  0  0  0  0  0  0
  -46.4722   57.8960   58.2050 C   0  0  0  0  0  0  0  0  0  0  0  0
  -47.9280   57.1938   56.2650 C   0  0  0  0  0  0  0  0  0  0  0  0
  -46.6037   57.0321   56.9639 C   0  0  0  0  0  0  0  0  0  0  0  0
 43 45  1  0  0  0
 43 42  1  0  0  0
 43 46  1  0  0  0
 64 65  1  0  0  0
 44 45  2  0  0  0
 65 63  1  0  0  0
  2  1  1  0  0  0
  2  4  1  0  0  0
  2  5  1  0  0  0
  3  4  2  0  0  0
 63 62  1  0  0  0
  6  8  1  0  0  0
  6 11  2  0  0  0
  7 10  1  0  0  0
  7 11  1  0  0  0
 62 61  1  0  0  0
 26 28  1  0  0  0
 26 32  1  0  0  0
 26 29  1  0  0  0
 12 18  1  0  0  0
 12 19  1  0  0  0
 61 60  1  0  0  0
 30 36  1  0  0  0
 30 37  1  0  0  0
 30 38  1  0  0  0
 20 21  2  0  0  0
 60 59  1  0  0  0
 22 21  1  0  0  0
 22 23  1  0  0  0
 59 58  1  0  0  0
 27 28  2  0  0  0
 58 57  1  0  0  0
 31 37  2  0  0  0
 57 56  1  0  0  0
 56 55  1  0  0  0
 55 54  1  0  0  0
 54 53  1  0  0  0
 53 52  1  0  0  0
 52 51  1  0  0  0
 51 50  1  0  0  0
 50 49  1  0  0  0
 49 47  1  0  0  0
 47 48  2  0  0  0
 48 45  1  0  0  0
 42 41  1  0  0  0
 41 40  1  0  0  0
 40 39  1  0  0  0
 39  1  1  0  0  0
  1 21  1  0  0  0
  8  4  1  0  0  0
  8  9  1  0  0  0
  8 10  1  0  0  0
 11 13  1  0  0  0
 13 14  2  0  0  0
 13 18  1  0  0  0
 14 15  1  0  0  0
 15 16  2  0  0  0
 16 17  1  0  0  0
 17 18  2  0  0  0
 23 24  1  0  0  0
 23 25  1  0  0  0
 25 28  1  0  0  0
 32 33  1  0  0  0
 32 37  1  0  0  0
 33 34  1  0  0  0
 34 35  1  0  0  0
 35 36  1  0  0  0
M  END
> <minimizedAffinity>
-9.39773

> <CNNscore>
0.2376005054

> <CNNaffinity>
7.5550475121

> <CNN_VS>
1.7950831652

> <CNNaffinity_variance>
0.9493221045

$$$$
/media/chris/experiments/cd1a-new-docking/inputs/ligands/7ryo_ligand.pdb


 65 67  0  0  0  0  0  0  0  0999 V2000
  -35.1809   61.4600   63.8722 C   0  0  0  0  0  0  0  0  0  0  0  0
  -35.4038   62.7924   63.3360 N   0  0  0  0  0  0  0  0  0  0  0  0
  -34.5218   64.7479   62.6638 O   0  0  0  0  0  0  0  0  0  0  0  0
  -34.3793   63.6160   63.1017 C   0  0  0  0  0  0  0  0  0  0  0  0
  -36.3217   63.0914   63.1431 H   0  0  0  0  0  0  0  0  0  0  0  0
  -32.9673   61.6145   63.3706 N   0  0  0  0  0  0  0  0  0  0  0  0
  -31.3090   62.2010   61.9602 O   0  0  0  0  0  0  0  0  0  0  0  0
  -32.9632   63.0867   63.3822 C   0  0  0  0  0  0  0  0  0  0  0  0
  -32.5185   63.5717   64.7586 C   0  0  0  0  0  0  0  0  0  0  0  0
  -31.9468   63.4602   62.2930 C   0  0  0  0  0  0  0  0  0  0  0  0
  -32.0485   61.2436   62.5783 C   0  0  0  0  0  0  0  0  0  0  0  0
  -32.8577   59.0122   64.2062 O   0  0  0  0  0  0  0  0  0  0  0  0
  -31.6900   59.8598   62.2586 C   0  0  0  0  0  0  0  0  0  0  0  0
  -31.0522   59.5618   61.0537 C   0  0  0  0  0  0  0  0  0  0  0  0
  -30.9281   58.2496   60.6306 C   0  0  0  0  0  0  0  0  0  0  0  0
  -31.4327   57.2196   61.3942 C   0  0  0  0  0  0  0  0  0  0  0  0
  -32.0732   57.4883   62.5901 C   0  0  0  0  0  0  0  0  0  0  0  0
  -32.2097   58.8009   63.0311 C   0  0  0  0  0  0  0  0  0  0  0  0
  -32.9663   59.8844   64.5310 H   0  0  0  0  0  0  0  0  0  0  0  0
  -36.9149   60.6765   62.3822 O   0  0  0  0  0  0  0  0  0  0  0  0
  -36.0163   60.4232   63.1362 C   0  0  0  0  0  0  0  0  0  0  0  0
  -35.6217   59.1805   63.4639 O   0  0  0  0  0  0  0  0  0  0  0  0
  -36.4782   58.3964   64.3590 C   0  0  0  0  0  0  0  0  0  0  0  0
  -35.6673   57.2406   64.8884 C   0  0  0  0  0  0  0  0  0  0  0  0
  -37.6469   57.9393   63.5078 C   0  0  0  0  0  0  0  0  0  0  0  0
  -40.0569   58.1220   63.5272 N   0  0  0  0  0  0  0  0  0  0  0  0
  -38.9965   57.7474   65.4758 O   0  0  0  0  0  0  0  0  0  0  0  0
  -38.9578   57.9303   64.2623 C   0  0  0  0  0  0  0  0  0  0  0  0
  -40.9350   58.1278   63.9725 H   0  0  0  0  0  0  0  0  0  0  0  0
  -39.4177   60.1765   60.6179 N   0  0  0  0  0  0  0  0  0  0  0  0
  -40.1515   60.6357   62.6871 O   0  0  0  0  0  0  0  0  0  0  0  0
  -39.9936   58.3220   62.0900 C   0  0  0  0  0  0  0  0  0  0  0  0
  -41.2713   57.7945   61.4278 C   0  0  0  0  0  0  0  0  0  0  0  0
  -41.1242   57.5408   59.9314 C   0  0  0  0  0  0  0  0  0  0  0  0
  -40.7952   58.7601   59.0931 C   0  0  0  0  0  0  0  0  0  0  0  0
  -39.4460   59.3766   59.3981 C   0  0  0  0  0  0  0  0  0  0  0  0
  -39.8612   59.8131   61.8234 C   0  0  0  0  0  0  0  0  0  0  0  0
  -39.0310   61.0789   60.5442 H   0  0  0  0  0  0  0  0  0  0  0  0
  -35.4539   61.4138   65.3763 C   0  0  0  0  0  0  0  0  0  0  0  0
  -36.9160   61.6906   65.7095 C   0  0  0  0  0  0  0  0  0  0  0  0
  -37.4324   60.8579   66.8682 C   0  0  0  0  0  0  0  0  0  0  0  0
  -38.7692   60.1929   66.6233 C   0  0  0  0  0  0  0  0  0  0  0  0
  -39.6146   61.0173   65.7744 N   0  0  0  0  0  0  0  0  0  0  0  0
  -41.6687   61.7087   65.1449 O   0  0  0  0  0  0  0  0  0  0  0  0
  -40.9479   61.0135   65.8795 C   0  0  0  0  0  0  0  0  0  0  0  0
  -39.1917   61.5969   65.1004 H   0  0  0  0  0  0  0  0  0  0  0  0
  -42.2279   59.1041   66.8223 C   0  0  0  0  0  0  0  0  0  0  0  0
  -41.4717   60.1812   66.9855 C   0  0  0  0  0  0  0  0  0  0  0  0
  -42.6913   58.4956   65.5357 C   0  0  0  0  0  0  0  0  0  0  0  0
  -43.7969   57.4717   65.7619 C   0  0  0  0  0  0  0  0  0  0  0  0
  -45.1120   57.8310   65.0922 C   0  0  0  0  0  0  0  0  0  0  0  0
  -46.1112   58.4901   66.0284 C   0  0  0  0  0  0  0  0  0  0  0  0
  -47.4502   58.8095   65.3907 C   0  0  0  0  0  0  0  0  0  0  0  0
  -48.6311   58.5945   66.3226 C   0  0  0  0  0  0  0  0  0  0  0  0
  -49.9497   58.4115   65.5970 C   0  0  0  0  0  0  0  0  0  0  0  0
  -50.5501   59.7174   65.1162 C   0  0  0  0  0  0  0  0  0  0  0  0
  -51.0496   59.6868   63.6845 C   0  0  0  0  0  0  0  0  0  0  0  0
  -50.7869   58.3595   63.0010 C   0  0  0  0  0  0  0  0  0  0  0  0
  -49.8953   58.4826   61.7762 C   0  0  0  0  0  0  0  0  0  0  0  0
  -50.3980   57.7204   60.5624 C   0  0  0  0  0  0  0  0  0  0  0  0
  -49.5506   57.9068   59.3133 C   0  0  0  0  0  0  0  0  0  0  0  0
  -48.0519   57.8116   59.5640 C   0  0  0  0  0  0  0  0  0  0  0  0
  -47.2117   58.3647   58.4241 C   0  0  0  0  0  0  0  0  0  0  0  0
  -47.6603   57.1136   56.2771 C   0  0  0  0  0  0  0  0  0  0  0  0
  -46.7236   57.3186   57.4385 C   0  0  0  0  0  0  0  0  0  0  0  0
 43 45  1  0  0  0
 43 42  1  0  0  0
 43 46  1  0  0  0
 64 65  1  0  0  0
 44 45  2  0  0  0
 65 63  1  0  0  0
  2  1  1  0  0  0
  2  4  1  0  0  0
  2  5  1  0  0  0
  3  4  2  0  0  0
 63 62  1  0  0  0
  6  8  1  0  0  0
  6 11  2  0  0  0
  7 10  1  0  0  0
  7 11  1  0  0  0
 62 61  1  0  0  0
 26 28  1  0  0  0
 26 32  1  0  0  0
 26 29  1  0  0  0
 12 18  1  0  0  0
 12 19  1  0  0  0
 61 60  1  0  0  0
 30 36  1  0  0  0
 30 37  1  0  0  0
 30 38  1  0  0  0
 20 21  2  0  0  0
 60 59  1  0  0  0
 22 21  1  0  0  0
 22 23  1  0  0  0
 59 58  1  0  0  0
 27 28  2  0  0  0
 58 57  1  0  0  0
 31 37  2  0  0  0
 57 56  1  0  0  0
 56 55  1  0  0  0
 55 54  1  0  0  0
 54 53  1  0  0  0
 53 52  1  0  0  0
 52 51  1  0  0  0
 51 50  1  0  0  0
 50 49  1  0  0  0
 49 47  1  0  0  0
 47 48  2  0  0  0
 48 45  1  0  0  0
 42 41  1  0  0  0
 41 40  1  0  0  0
 40 39  1  0  0  0
 39  1  1  0  0  0
  1 21  1  0  0  0
  8  4  1  0  0  0
  8  9  1  0  0  0
  8 10  1  0  0  0
 11 13  1  0  0  0
 13 14  2  0  0  0
 13 18  1  0  0  0
 14 15  1  0  0  0
 15 16  2  0  0  0
 16 17  1  0  0  0
 17 18  2  0  0  0
 23 24  1  0  0  0
 23 25  1  0  0  0
 25 28  1  0  0  0
 32 33  1  0  0  0
 32 37  1  0  0  0
 33 34  1  0  0  0
 34 35  1  0  0  0
 35 36  1  0  0  0
M  END
> <minimizedAffinity>
-9.91752

> <CNNscore>
0.2017406970

> <CNNaffinity>
7.5952463150

> <CNN_VS>
1.5322703123

> <CNNaffinity_variance>
1.1583038568

$$$$
/media/chris/experiments/cd1a-new-docking/inputs/ligands/7ryo_ligand.pdb


 65 67  0  0  0  0  0  0  0  0999 V2000
  -35.3900   59.7707   63.7407 C   0  0  0  0  0  0  0  0  0  0  0  0
  -34.7239   58.5394   63.3503 N   0  0  0  0  0  0  0  0  0  0  0  0
  -34.6385   56.7789   61.9548 O   0  0  0  0  0  0  0  0  0  0  0  0
  -35.1602   57.8254   62.3098 C   0  0  0  0  0  0  0  0  0  0  0  0
  -33.9410   58.2278   63.8595 H   0  0  0  0  0  0  0  0  0  0  0  0
  -37.4452   57.3796   61.5022 N   0  0  0  0  0  0  0  0  0  0  0  0
  -38.4179   59.2791   62.2296 O   0  0  0  0  0  0  0  0  0  0  0  0
  -36.3615   58.3759   61.5237 C   0  0  0  0  0  0  0  0  0  0  0  0
  -35.9234   58.6649   60.0911 C   0  0  0  0  0  0  0  0  0  0  0  0
  -37.0060   59.6063   62.1792 C   0  0  0  0  0  0  0  0  0  0  0  0
  -38.4989   57.9638   61.8993 C   0  0  0  0  0  0  0  0  0  0  0  0
  -40.6431   58.4788   60.0496 O   0  0  0  0  0  0  0  0  0  0  0  0
  -39.8247   57.3559   62.0357 C   0  0  0  0  0  0  0  0  0  0  0  0
  -40.0508   56.3784   63.0055 C   0  0  0  0  0  0  0  0  0  0  0  0
  -41.2134   55.6273   62.9879 C   0  0  0  0  0  0  0  0  0  0  0  0
  -42.1637   55.8353   62.0120 C   0  0  0  0  0  0  0  0  0  0  0  0
  -41.9619   56.7947   61.0366 C   0  0  0  0  0  0  0  0  0  0  0  0
  -40.7987   57.5582   61.0363 C   0  0  0  0  0  0  0  0  0  0  0  0
  -39.8711   59.0090   60.0211 H   0  0  0  0  0  0  0  0  0  0  0  0
  -34.8785   62.0934   63.3120 O   0  0  0  0  0  0  0  0  0  0  0  0
  -34.4900   60.9774   63.5212 C   0  0  0  0  0  0  0  0  0  0  0  0
  -33.1960   60.6164   63.5730 O   0  0  0  0  0  0  0  0  0  0  0  0
  -32.3515   60.9009   62.4088 C   0  0  0  0  0  0  0  0  0  0  0  0
  -31.7051   59.6101   61.9734 C   0  0  0  0  0  0  0  0  0  0  0  0
  -31.3366   61.9235   62.8818 C   0  0  0  0  0  0  0  0  0  0  0  0
  -31.7329   64.2972   62.6568 N   0  0  0  0  0  0  0  0  0  0  0  0
  -30.9688   63.1657   60.8686 O   0  0  0  0  0  0  0  0  0  0  0  0
  -31.3314   63.1812   62.0416 C   0  0  0  0  0  0  0  0  0  0  0  0
  -31.7503   65.1420   62.1516 H   0  0  0  0  0  0  0  0  0  0  0  0
  -34.2732   64.3895   65.2321 N   0  0  0  0  0  0  0  0  0  0  0  0
  -34.1573   65.2459   63.1624 O   0  0  0  0  0  0  0  0  0  0  0  0
  -32.1444   64.2998   64.0498 C   0  0  0  0  0  0  0  0  0  0  0  0
  -31.3140   65.3154   64.8426 C   0  0  0  0  0  0  0  0  0  0  0  0
  -31.3405   65.0832   66.3494 C   0  0  0  0  0  0  0  0  0  0  0  0
  -32.7049   65.1893   67.0011 C   0  0  0  0  0  0  0  0  0  0  0  0
  -33.6929   64.1356   66.5464 C   0  0  0  0  0  0  0  0  0  0  0  0
  -33.6136   64.6867   64.1102 C   0  0  0  0  0  0  0  0  0  0  0  0
  -35.2540   64.3361   65.1657 H   0  0  0  0  0  0  0  0  0  0  0  0
  -35.8725   59.7056   65.1906 C   0  0  0  0  0  0  0  0  0  0  0  0
  -36.6982   58.4548   65.4718 C   0  0  0  0  0  0  0  0  0  0  0  0
  -38.1862   58.7327   65.5768 C   0  0  0  0  0  0  0  0  0  0  0  0
  -38.5451   59.9636   66.3801 C   0  0  0  0  0  0  0  0  0  0  0  0
  -39.3175   60.9016   65.5808 N   0  0  0  0  0  0  0  0  0  0  0  0
  -41.3125   61.6901   64.8795 O   0  0  0  0  0  0  0  0  0  0  0  0
  -40.6549   60.8966   65.5727 C   0  0  0  0  0  0  0  0  0  0  0  0
  -38.8402   61.5615   65.0278 H   0  0  0  0  0  0  0  0  0  0  0  0
  -42.0916   58.9540   66.1514 C   0  0  0  0  0  0  0  0  0  0  0  0
  -41.2685   59.9298   66.5102 C   0  0  0  0  0  0  0  0  0  0  0  0
  -42.5560   58.6072   64.7713 C   0  0  0  0  0  0  0  0  0  0  0  0
  -43.7970   57.7235   64.7990 C   0  0  0  0  0  0  0  0  0  0  0  0
  -44.3249   57.4512   66.1969 C   0  0  0  0  0  0  0  0  0  0  0  0
  -45.7968   57.7887   66.3676 C   0  0  0  0  0  0  0  0  0  0  0  0
  -46.3934   58.5847   65.2222 C   0  0  0  0  0  0  0  0  0  0  0  0
  -47.9128   58.6144   65.2326 C   0  0  0  0  0  0  0  0  0  0  0  0
  -48.4940   59.9772   64.9108 C   0  0  0  0  0  0  0  0  0  0  0  0
  -48.9415   60.1075   63.4687 C   0  0  0  0  0  0  0  0  0  0  0  0
  -50.4448   60.0615   63.2734 C   0  0  0  0  0  0  0  0  0  0  0  0
  -50.9416   58.6858   62.8753 C   0  0  0  0  0  0  0  0  0  0  0  0
  -49.8644   57.8194   62.2434 C   0  0  0  0  0  0  0  0  0  0  0  0
  -49.7603   57.9590   60.7346 C   0  0  0  0  0  0  0  0  0  0  0  0
  -49.2957   56.6984   60.0217 C   0  0  0  0  0  0  0  0  0  0  0  0
  -47.9269   56.8279   59.3677 C   0  0  0  0  0  0  0  0  0  0  0  0
  -47.6366   58.2252   58.8439 C   0  0  0  0  0  0  0  0  0  0  0  0
  -46.7239   57.0414   56.8087 C   0  0  0  0  0  0  0  0  0  0  0  0
  -46.6656   58.2699   57.6781 C   0  0  0  0  0  0  0  0  0  0  0  0
 43 45  1  0  0  0
 43 42  1  0  0  0
 43 46  1  0  0  0
 64 65  1  0  0  0
 44 45  2  0  0  0
 65 63  1  0  0  0
  2  1  1  0  0  0
  2  4  1  0  0  0
  2  5  1  0  0  0
  3  4  2  0  0  0
 63 62  1  0  0  0
  6  8  1  0  0  0
  6 11  2  0  0  0
  7 10  1  0  0  0
  7 11  1  0  0  0
 62 61  1  0  0  0
 26 28  1  0  0  0
 26 32  1  0  0  0
 26 29  1  0  0  0
 12 18  1  0  0  0
 12 19  1  0  0  0
 61 60  1  0  0  0
 30 36  1  0  0  0
 30 37  1  0  0  0
 30 38  1  0  0  0
 20 21  2  0  0  0
 60 59  1  0  0  0
 22 21  1  0  0  0
 22 23  1  0  0  0
 59 58  1  0  0  0
 27 28  2  0  0  0
 58 57  1  0  0  0
 31 37  2  0  0  0
 57 56  1  0  0  0
 56 55  1  0  0  0
 55 54  1  0  0  0
 54 53  1  0  0  0
 53 52  1  0  0  0
 52 51  1  0  0  0
 51 50  1  0  0  0
 50 49  1  0  0  0
 49 47  1  0  0  0
 47 48  2  0  0  0
 48 45  1  0  0  0
 42 41  1  0  0  0
 41 40  1  0  0  0
 40 39  1  0  0  0
 39  1  1  0  0  0
  1 21  1  0  0  0
  8  4  1  0  0  0
  8  9  1  0  0  0
  8 10  1  0  0  0
 11 13  1  0  0  0
 13 14  2  0  0  0
 13 18  1  0  0  0
 14 15  1  0  0  0
 15 16  2  0  0  0
 16 17  1  0  0  0
 17 18  2  0  0  0
 23 24  1  0  0  0
 23 25  1  0  0  0
 25 28  1  0  0  0
 32 33  1  0  0  0
 32 37  1  0  0  0
 33 34  1  0  0  0
 34 35  1  0  0  0
 35 36  1  0  0  0
M  END
> <minimizedAffinity>
-9.84668

> <CNNscore>
0.1925834715

> <CNNaffinity>
7.3311944008

> <CNN_VS>
1.4118669033

> <CNNaffinity_variance>
1.7371549606

$$$$
/media/chris/experiments/cd1a-new-docking/inputs/ligands/7ryo_ligand.pdb


 65 67  0  0  0  0  0  0  0  0999 V2000
  -41.0656   59.1224   65.2755 C   0  0  0  0  0  0  0  0  0  0  0  0
  -39.9343   58.2280   65.4561 N   0  0  0  0  0  0  0  0  0  0  0  0
  -37.7159   57.9939   65.7346 O   0  0  0  0  0  0  0  0  0  0  0  0
  -38.6965   58.7093   65.5933 C   0  0  0  0  0  0  0  0  0  0  0  0
  -40.0826   57.2550   65.4776 H   0  0  0  0  0  0  0  0  0  0  0  0
  -37.2869   60.6017   66.3030 N   0  0  0  0  0  0  0  0  0  0  0  0
  -37.1488   61.6604   64.3173 O   0  0  0  0  0  0  0  0  0  0  0  0
  -38.5238   60.2372   65.5928 C   0  0  0  0  0  0  0  0  0  0  0  0
  -39.7133   60.8686   66.3097 C   0  0  0  0  0  0  0  0  0  0  0  0
  -38.3290   60.8275   64.1883 C   0  0  0  0  0  0  0  0  0  0  0  0
  -36.6230   61.3611   65.5336 C   0  0  0  0  0  0  0  0  0  0  0  0
  -34.5942   61.7442   63.5283 O   0  0  0  0  0  0  0  0  0  0  0  0
  -35.3227   61.9674   65.8294 C   0  0  0  0  0  0  0  0  0  0  0  0
  -35.0764   62.5181   67.0876 C   0  0  0  0  0  0  0  0  0  0  0  0
  -33.9567   63.3027   67.3038 C   0  0  0  0  0  0  0  0  0  0  0  0
  -33.0697   63.5504   66.2788 C   0  0  0  0  0  0  0  0  0  0  0  0
  -33.2931   63.0202   65.0211 C   0  0  0  0  0  0  0  0  0  0  0  0
  -34.4141   62.2309   64.7837 C   0  0  0  0  0  0  0  0  0  0  0  0
  -35.3390   61.2093   63.3356 H   0  0  0  0  0  0  0  0  0  0  0  0
  -42.0808   58.5789   67.4002 O   0  0  0  0  0  0  0  0  0  0  0  0
  -42.2034   58.7695   66.2218 C   0  0  0  0  0  0  0  0  0  0  0  0
  -43.3647   58.6797   65.5504 O   0  0  0  0  0  0  0  0  0  0  0  0
  -44.1796   57.4752   65.7362 C   0  0  0  0  0  0  0  0  0  0  0  0
  -43.6945   56.4281   64.7657 C   0  0  0  0  0  0  0  0  0  0  0  0
  -45.6077   57.9024   65.4578 C   0  0  0  0  0  0  0  0  0  0  0  0
  -47.8649   57.7199   66.3026 N   0  0  0  0  0  0  0  0  0  0  0  0
  -46.1831   56.9135   67.5607 O   0  0  0  0  0  0  0  0  0  0  0  0
  -46.5738   57.4693   66.5380 C   0  0  0  0  0  0  0  0  0  0  0  0
  -48.5333   57.4596   66.9770 H   0  0  0  0  0  0  0  0  0  0  0  0
  -48.5745   60.6677   64.3276 N   0  0  0  0  0  0  0  0  0  0  0  0
  -48.6573   60.2407   66.5279 O   0  0  0  0  0  0  0  0  0  0  0  0
  -48.3108   58.3651   65.0800 C   0  0  0  0  0  0  0  0  0  0  0  0
  -49.6249   57.7373   64.6020 C   0  0  0  0  0  0  0  0  0  0  0  0
  -49.9348   58.0114   63.1344 C   0  0  0  0  0  0  0  0  0  0  0  0
  -50.1118   59.4715   62.7675 C   0  0  0  0  0  0  0  0  0  0  0  0
  -48.8635   60.3106   62.9429 C   0  0  0  0  0  0  0  0  0  0  0  0
  -48.5298   59.8407   65.3745 C   0  0  0  0  0  0  0  0  0  0  0  0
  -48.3934   61.6183   64.5090 H   0  0  0  0  0  0  0  0  0  0  0  0
  -41.5444   59.1260   63.8230 C   0  0  0  0  0  0  0  0  0  0  0  0
  -41.8208   60.5340   63.3066 C   0  0  0  0  0  0  0  0  0  0  0  0
  -41.1685   60.8172   61.9661 C   0  0  0  0  0  0  0  0  0  0  0  0
  -39.7005   60.4590   61.8883 C   0  0  0  0  0  0  0  0  0  0  0  0
  -39.3086   60.1577   60.5206 N   0  0  0  0  0  0  0  0  0  0  0  0
  -37.7980   59.3405   59.0564 O   0  0  0  0  0  0  0  0  0  0  0  0
  -38.1363   59.5852   60.2261 C   0  0  0  0  0  0  0  0  0  0  0  0
  -39.9262   60.3826   59.7877 H   0  0  0  0  0  0  0  0  0  0  0  0
  -37.4403   58.0505   62.0518 C   0  0  0  0  0  0  0  0  0  0  0  0
  -37.3287   59.2033   61.4060 C   0  0  0  0  0  0  0  0  0  0  0  0
  -38.3566   56.9091   61.7386 C   0  0  0  0  0  0  0  0  0  0  0  0
  -39.7097   57.0684   62.4209 C   0  0  0  0  0  0  0  0  0  0  0  0
  -40.6586   55.9071   62.1802 C   0  0  0  0  0  0  0  0  0  0  0  0
  -41.7458   56.2110   61.1628 C   0  0  0  0  0  0  0  0  0  0  0  0
  -41.6791   57.6074   60.5735 C   0  0  0  0  0  0  0  0  0  0  0  0
  -41.3635   57.6227   59.0871 C   0  0  0  0  0  0  0  0  0  0  0  0
  -41.7143   58.9315   58.4069 C   0  0  0  0  0  0  0  0  0  0  0  0
  -42.2548   58.7461   57.0033 C   0  0  0  0  0  0  0  0  0  0  0  0
  -43.7257   59.0821   56.8497 C   0  0  0  0  0  0  0  0  0  0  0  0
  -44.6324   57.9253   57.2208 C   0  0  0  0  0  0  0  0  0  0  0  0
  -46.0834   58.3374   57.4074 C   0  0  0  0  0  0  0  0  0  0  0  0
  -47.0748   57.4923   56.6266 C   0  0  0  0  0  0  0  0  0  0  0  0
  -47.0461   56.0127   56.9775 C   0  0  0  0  0  0  0  0  0  0  0  0
  -46.9333   55.7341   58.4701 C   0  0  0  0  0  0  0  0  0  0  0  0
  -48.2648   55.8032   59.2005 C   0  0  0  0  0  0  0  0  0  0  0  0
  -49.6405   57.9164   59.3356 C   0  0  0  0  0  0  0  0  0  0  0  0
  -48.5145   57.1112   59.9291 C   0  0  0  0  0  0  0  0  0  0  0  0
 43 45  1  0  0  0
 43 42  1  0  0  0
 43 46  1  0  0  0
 64 65  1  0  0  0
 44 45  2  0  0  0
 65 63  1  0  0  0
  2  1  1  0  0  0
  2  4  1  0  0  0
  2  5  1  0  0  0
  3  4  2  0  0  0
 63 62  1  0  0  0
  6  8  1  0  0  0
  6 11  2  0  0  0
  7 10  1  0  0  0
  7 11  1  0  0  0
 62 61  1  0  0  0
 26 28  1  0  0  0
 26 32  1  0  0  0
 26 29  1  0  0  0
 12 18  1  0  0  0
 12 19  1  0  0  0
 61 60  1  0  0  0
 30 36  1  0  0  0
 30 37  1  0  0  0
 30 38  1  0  0  0
 20 21  2  0  0  0
 60 59  1  0  0  0
 22 21  1  0  0  0
 22 23  1  0  0  0
 59 58  1  0  0  0
 27 28  2  0  0  0
 58 57  1  0  0  0
 31 37  2  0  0  0
 57 56  1  0  0  0
 56 55  1  0  0  0
 55 54  1  0  0  0
 54 53  1  0  0  0
 53 52  1  0  0  0
 52 51  1  0  0  0
 51 50  1  0  0  0
 50 49  1  0  0  0
 49 47  1  0  0  0
 47 48  2  0  0  0
 48 45  1  0  0  0
 42 41  1  0  0  0
 41 40  1  0  0  0
 40 39  1  0  0  0
 39  1  1  0  0  0
  1 21  1  0  0  0
  8  4  1  0  0  0
  8  9  1  0  0  0
  8 10  1  0  0  0
 11 13  1  0  0  0
 13 14  2  0  0  0
 13 18  1  0  0  0
 14 15  1  0  0  0
 15 16  2  0  0  0
 16 17  1  0  0  0
 17 18  2  0  0  0
 23 24  1  0  0  0
 23 25  1  0  0  0
 25 28  1  0  0  0
 32 33  1  0  0  0
 32 37  1  0  0  0
 33 34  1  0  0  0
 34 35  1  0  0  0
 35 36  1  0  0  0
M  END
> <minimizedAffinity>
-7.91437

> <CNNscore>
0.1742159426

> <CNNaffinity>
7.6732683182

> <CNN_VS>
1.3368057013

> <CNNaffinity_variance>
2.6369233131

$$$$
/media/chris/experiments/cd1a-new-docking/inputs/ligands/7ryo_ligand.pdb


 65 67  0  0  0  0  0  0  0  0999 V2000
  -40.4273   59.5616   64.9947 C   0  0  0  0  0  0  0  0  0  0  0  0
  -39.6394   58.3874   65.3305 N   0  0  0  0  0  0  0  0  0  0  0  0
  -37.6296   57.5275   65.8550 O   0  0  0  0  0  0  0  0  0  0  0  0
  -38.3319   58.4893   65.5814 C   0  0  0  0  0  0  0  0  0  0  0  0
  -40.0752   57.5056   65.3736 H   0  0  0  0  0  0  0  0  0  0  0  0
  -36.2425   59.7883   65.4437 N   0  0  0  0  0  0  0  0  0  0  0  0
  -36.8359   61.1722   63.7657 O   0  0  0  0  0  0  0  0  0  0  0  0
  -37.7077   59.8939   65.5403 C   0  0  0  0  0  0  0  0  0  0  0  0
  -38.0693   60.6326   66.8253 C   0  0  0  0  0  0  0  0  0  0  0  0
  -38.1014   60.6989   64.2929 C   0  0  0  0  0  0  0  0  0  0  0  0
  -35.8790   60.5060   64.4628 C   0  0  0  0  0  0  0  0  0  0  0  0
  -34.1860   58.3211   63.6602 O   0  0  0  0  0  0  0  0  0  0  0  0
  -34.5038   60.7004   63.9972 C   0  0  0  0  0  0  0  0  0  0  0  0
  -34.0098   61.9888   63.7899 C   0  0  0  0  0  0  0  0  0  0  0  0
  -32.8112   62.1830   63.1253 C   0  0  0  0  0  0  0  0  0  0  0  0
  -32.0892   61.1057   62.6596 C   0  0  0  0  0  0  0  0  0  0  0  0
  -32.5589   59.8186   62.8481 C   0  0  0  0  0  0  0  0  0  0  0  0
  -33.7626   59.6034   63.5118 C   0  0  0  0  0  0  0  0  0  0  0  0
  -34.9924   58.1423   64.1025 H   0  0  0  0  0  0  0  0  0  0  0  0
  -41.2627   60.6331   66.9934 O   0  0  0  0  0  0  0  0  0  0  0  0
  -41.4439   59.8725   66.0830 C   0  0  0  0  0  0  0  0  0  0  0  0
  -42.5684   59.1600   65.8955 O   0  0  0  0  0  0  0  0  0  0  0  0
  -43.2646   58.6426   67.0775 C   0  0  0  0  0  0  0  0  0  0  0  0
  -42.5322   57.4124   67.5504 C   0  0  0  0  0  0  0  0  0  0  0  0
  -44.6755   58.3326   66.6164 C   0  0  0  0  0  0  0  0  0  0  0  0
  -45.8285   57.5259   64.6513 N   0  0  0  0  0  0  0  0  0  0  0  0
  -43.7673   56.7341   65.0831 O   0  0  0  0  0  0  0  0  0  0  0  0
  -44.7139   57.4556   65.3847 C   0  0  0  0  0  0  0  0  0  0  0  0
  -45.9034   56.9718   63.8409 H   0  0  0  0  0  0  0  0  0  0  0  0
  -48.7537   58.3094   66.6319 N   0  0  0  0  0  0  0  0  0  0  0  0
  -47.8567   56.3810   65.9196 O   0  0  0  0  0  0  0  0  0  0  0  0
  -46.9327   58.3966   65.0151 C   0  0  0  0  0  0  0  0  0  0  0  0
  -47.6674   58.8699   63.7558 C   0  0  0  0  0  0  0  0  0  0  0  0
  -48.5263   60.1098   63.9792 C   0  0  0  0  0  0  0  0  0  0  0  0
  -49.6531   59.9502   64.9804 C   0  0  0  0  0  0  0  0  0  0  0  0
  -49.1904   59.6815   66.3971 C   0  0  0  0  0  0  0  0  0  0  0  0
  -47.8892   57.6078   65.8954 C   0  0  0  0  0  0  0  0  0  0  0  0
  -49.1369   57.8530   67.4155 H   0  0  0  0  0  0  0  0  0  0  0  0
  -41.1125   59.4009   63.6369 C   0  0  0  0  0  0  0  0  0  0  0  0
  -41.3770   60.7406   62.9582 C   0  0  0  0  0  0  0  0  0  0  0  0
  -40.7851   60.8309   61.5639 C   0  0  0  0  0  0  0  0  0  0  0  0
  -39.2951   60.5777   61.4913 C   0  0  0  0  0  0  0  0  0  0  0  0
  -38.9030   60.1492   60.1580 N   0  0  0  0  0  0  0  0  0  0  0  0
  -37.4236   59.1346   58.7884 O   0  0  0  0  0  0  0  0  0  0  0  0
  -37.7628   59.4883   59.9295 C   0  0  0  0  0  0  0  0  0  0  0  0
  -39.4960   60.3524   59.3989 H   0  0  0  0  0  0  0  0  0  0  0  0
  -37.1750   58.0546   61.8717 C   0  0  0  0  0  0  0  0  0  0  0  0
  -36.9958   59.1525   61.1498 C   0  0  0  0  0  0  0  0  0  0  0  0
  -38.1406   56.9390   61.6195 C   0  0  0  0  0  0  0  0  0  0  0  0
  -39.4649   57.1660   62.3381 C   0  0  0  0  0  0  0  0  0  0  0  0
  -40.4217   55.9898   62.2471 C   0  0  0  0  0  0  0  0  0  0  0  0
  -41.5986   56.2337   61.3171 C   0  0  0  0  0  0  0  0  0  0  0  0
  -41.6102   57.6052   60.6685 C   0  0  0  0  0  0  0  0  0  0  0  0
  -41.3294   57.5710   59.1754 C   0  0  0  0  0  0  0  0  0  0  0  0
  -41.6000   58.8897   58.4780 C   0  0  0  0  0  0  0  0  0  0  0  0
  -42.1737   58.7193   57.0856 C   0  0  0  0  0  0  0  0  0  0  0  0
  -43.6210   59.1509   56.9480 C   0  0  0  0  0  0  0  0  0  0  0  0
  -44.5898   57.9885   57.0387 C   0  0  0  0  0  0  0  0  0  0  0  0
  -46.0064   58.4151   57.3874 C   0  0  0  0  0  0  0  0  0  0  0  0
  -47.0647   57.3720   57.0728 C   0  0  0  0  0  0  0  0  0  0  0  0
  -48.0520   57.1241   58.2028 C   0  0  0  0  0  0  0  0  0  0  0  0
  -47.5692   57.6105   59.5624 C   0  0  0  0  0  0  0  0  0  0  0  0
  -48.6957   58.0604   60.4787 C   0  0  0  0  0  0  0  0  0  0  0  0
  -51.0156   57.6098   61.3683 C   0  0  0  0  0  0  0  0  0  0  0  0
  -49.9836   57.2720   60.3246 C   0  0  0  0  0  0  0  0  0  0  0  0
 43 45  1  0  0  0
 43 42  1  0  0  0
 43 46  1  0  0  0
 64 65  1  0  0  0
 44 45  2  0  0  0
 65 63  1  0  0  0
  2  1  1  0  0  0
  2  4  1  0  0  0
  2  5  1  0  0  0
  3  4  2  0  0  0
 63 62  1  0  0  0
  6  8  1  0  0  0
  6 11  2  0  0  0
  7 10  1  0  0  0
  7 11  1  0  0  0
 62 61  1  0  0  0
 26 28  1  0  0  0
 26 32  1  0  0  0
 26 29  1  0  0  0
 12 18  1  0  0  0
 12 19  1  0  0  0
 61 60  1  0  0  0
 30 36  1  0  0  0
 30 37  1  0  0  0
 30 38  1  0  0  0
 20 21  2  0  0  0
 60 59  1  0  0  0
 22 21  1  0  0  0
 22 23  1  0  0  0
 59 58  1  0  0  0
 27 28  2  0  0  0
 58 57  1  0  0  0
 31 37  2  0  0  0
 57 56  1  0  0  0
 56 55  1  0  0  0
 55 54  1  0  0  0
 54 53  1  0  0  0
 53 52  1  0  0  0
 52 51  1  0  0  0
 51 50  1  0  0  0
 50 49  1  0  0  0
 49 47  1  0  0  0
 47 48  2  0  0  0
 48 45  1  0  0  0
 42 41  1  0  0  0
 41 40  1  0  0  0
 40 39  1  0  0  0
 39  1  1  0  0  0
  1 21  1  0  0  0
  8  4  1  0  0  0
  8  9  1  0  0  0
  8 10  1  0  0  0
 11 13  1  0  0  0
 13 14  2  0  0  0
 13 18  1  0  0  0
 14 15  1  0  0  0
 15 16  2  0  0  0
 16 17  1  0  0  0
 17 18  2  0  0  0
 23 24  1  0  0  0
 23 25  1  0  0  0
 25 28  1  0  0  0
 32 33  1  0  0  0
 32 37  1  0  0  0
 33 34  1  0  0  0
 34 35  1  0  0  0
 35 36  1  0  0  0
M  END
> <minimizedAffinity>
-7.30674

> <CNNscore>
0.1617588103

> <CNNaffinity>
7.6668081284

> <CNN_VS>
1.2401738167

> <CNNaffinity_variance>
2.4174551964

$$$$
/media/chris/experiments/cd1a-new-docking/inputs/ligands/7ryo_ligand.pdb


 65 67  0  0  0  0  0  0  0  0999 V2000
  -36.5330   58.9887   63.2637 C   0  0  0  0  0  0  0  0  0  0  0  0
  -36.5846   58.5047   64.6331 N   0  0  0  0  0  0  0  0  0  0  0  0
  -37.8187   57.6513   66.3073 O   0  0  0  0  0  0  0  0  0  0  0  0
  -37.7273   58.0553   65.1576 C   0  0  0  0  0  0  0  0  0  0  0  0
  -35.7667   58.5082   65.1810 H   0  0  0  0  0  0  0  0  0  0  0  0
  -40.0742   57.3406   64.9268 N   0  0  0  0  0  0  0  0  0  0  0  0
  -40.9446   59.3106   64.2598 O   0  0  0  0  0  0  0  0  0  0  0  0
  -38.9668   58.0334   64.2479 C   0  0  0  0  0  0  0  0  0  0  0  0
  -38.6237   57.2837   62.9642 C   0  0  0  0  0  0  0  0  0  0  0  0
  -39.5319   59.4312   63.9551 C   0  0  0  0  0  0  0  0  0  0  0  0
  -41.0821   58.1096   64.8797 C   0  0  0  0  0  0  0  0  0  0  0  0
  -42.0253   59.2769   67.3357 O   0  0  0  0  0  0  0  0  0  0  0  0
  -42.4099   57.8283   65.4307 C   0  0  0  0  0  0  0  0  0  0  0  0
  -43.3303   57.0817   64.6941 C   0  0  0  0  0  0  0  0  0  0  0  0
  -44.6558   57.0148   65.0877 C   0  0  0  0  0  0  0  0  0  0  0  0
  -45.0841   57.6849   66.2129 C   0  0  0  0  0  0  0  0  0  0  0  0
  -44.1930   58.4356   66.9580 C   0  0  0  0  0  0  0  0  0  0  0  0
  -42.8572   58.5167   66.5771 C   0  0  0  0  0  0  0  0  0  0  0  0
  -41.1199   59.3521   67.1062 H   0  0  0  0  0  0  0  0  0  0  0  0
  -35.3063   57.8316   61.5326 O   0  0  0  0  0  0  0  0  0  0  0  0
  -35.2941   58.4764   62.5446 C   0  0  0  0  0  0  0  0  0  0  0  0
  -34.1817   58.8285   63.2124 O   0  0  0  0  0  0  0  0  0  0  0  0
  -33.1726   59.6228   62.5049 C   0  0  0  0  0  0  0  0  0  0  0  0
  -32.0510   58.7000   62.0997 C   0  0  0  0  0  0  0  0  0  0  0  0
  -32.7209   60.6810   63.4927 C   0  0  0  0  0  0  0  0  0  0  0  0
  -33.0241   63.0771   63.4001 N   0  0  0  0  0  0  0  0  0  0  0  0
  -31.7056   62.1050   61.8579 O   0  0  0  0  0  0  0  0  0  0  0  0
  -32.4384   62.0154   62.8390 C   0  0  0  0  0  0  0  0  0  0  0  0
  -32.8738   63.9683   63.0095 H   0  0  0  0  0  0  0  0  0  0  0  0
  -36.1839   63.5248   65.1056 N   0  0  0  0  0  0  0  0  0  0  0  0
  -35.1451   64.6672   63.4788 O   0  0  0  0  0  0  0  0  0  0  0  0
  -33.8763   62.9543   64.5699 C   0  0  0  0  0  0  0  0  0  0  0  0
  -33.1407   63.4658   65.8136 C   0  0  0  0  0  0  0  0  0  0  0  0
  -33.7447   62.9761   67.1253 C   0  0  0  0  0  0  0  0  0  0  0  0
  -35.1747   63.4067   67.3850 C   0  0  0  0  0  0  0  0  0  0  0  0
  -36.1791   62.8490   66.3985 C   0  0  0  0  0  0  0  0  0  0  0  0
  -35.1248   63.7906   64.3378 C   0  0  0  0  0  0  0  0  0  0  0  0
  -37.0602   63.8154   64.7635 H   0  0  0  0  0  0  0  0  0  0  0  0
  -36.6028   60.5156   63.2113 C   0  0  0  0  0  0  0  0  0  0  0  0
  -36.8724   61.0363   61.8036 C   0  0  0  0  0  0  0  0  0  0  0  0
  -38.2095   60.5848   61.2459 C   0  0  0  0  0  0  0  0  0  0  0  0
  -38.1173   59.6231   60.0814 C   0  0  0  0  0  0  0  0  0  0  0  0
  -38.9315   58.4409   60.3151 N   0  0  0  0  0  0  0  0  0  0  0  0
  -40.9521   57.4363   60.3497 O   0  0  0  0  0  0  0  0  0  0  0  0
  -40.2570   58.4433   60.1372 C   0  0  0  0  0  0  0  0  0  0  0  0
  -38.4926   57.6120   60.6141 H   0  0  0  0  0  0  0  0  0  0  0  0
  -41.4138   59.8252   58.4267 C   0  0  0  0  0  0  0  0  0  0  0  0
  -40.7991   59.7097   59.5961 C   0  0  0  0  0  0  0  0  0  0  0  0
  -41.7063   58.7438   57.4340 C   0  0  0  0  0  0  0  0  0  0  0  0
  -43.1035   58.8840   56.8425 C   0  0  0  0  0  0  0  0  0  0  0  0
  -44.1979   58.2780   57.7039 C   0  0  0  0  0  0  0  0  0  0  0  0
  -45.5166   58.0941   56.9714 C   0  0  0  0  0  0  0  0  0  0  0  0
  -46.7327   58.5734   57.7415 C   0  0  0  0  0  0  0  0  0  0  0  0
  -47.1569   57.6275   58.8527 C   0  0  0  0  0  0  0  0  0  0  0  0
  -48.5085   56.9826   58.6158 C   0  0  0  0  0  0  0  0  0  0  0  0
  -49.6352   57.6733   59.3577 C   0  0  0  0  0  0  0  0  0  0  0  0
  -49.8497   57.1753   60.7740 C   0  0  0  0  0  0  0  0  0  0  0  0
  -49.3086   58.1310   61.8189 C   0  0  0  0  0  0  0  0  0  0  0  0
  -49.6959   59.5786   61.5646 C   0  0  0  0  0  0  0  0  0  0  0  0
  -50.5268   60.2033   62.6719 C   0  0  0  0  0  0  0  0  0  0  0  0
  -51.0859   59.2037   63.6725 C   0  0  0  0  0  0  0  0  0  0  0  0
  -50.8515   59.5889   65.1268 C   0  0  0  0  0  0  0  0  0  0  0  0
  -50.2585   58.4655   65.9619 C   0  0  0  0  0  0  0  0  0  0  0  0
  -48.1185   59.6858   65.4072 C   0  0  0  0  0  0  0  0  0  0  0  0
  -48.7418   58.4590   66.0196 C   0  0  0  0  0  0  0  0  0  0  0  0
 43 45  1  0  0  0
 43 42  1  0  0  0
 43 46  1  0  0  0
 64 65  1  0  0  0
 44 45  2  0  0  0
 65 63  1  0  0  0
  2  1  1  0  0  0
  2  4  1  0  0  0
  2  5  1  0  0  0
  3  4  2  0  0  0
 63 62  1  0  0  0
  6  8  1  0  0  0
  6 11  2  0  0  0
  7 10  1  0  0  0
  7 11  1  0  0  0
 62 61  1  0  0  0
 26 28  1  0  0  0
 26 32  1  0  0  0
 26 29  1  0  0  0
 12 18  1  0  0  0
 12 19  1  0  0  0
 61 60  1  0  0  0
 30 36  1  0  0  0
 30 37  1  0  0  0
 30 38  1  0  0  0
 20 21  2  0  0  0
 60 59  1  0  0  0
 22 21  1  0  0  0
 22 23  1  0  0  0
 59 58  1  0  0  0
 27 28  2  0  0  0
 58 57  1  0  0  0
 31 37  2  0  0  0
 57 56  1  0  0  0
 56 55  1  0  0  0
 55 54  1  0  0  0
 54 53  1  0  0  0
 53 52  1  0  0  0
 52 51  1  0  0  0
 51 50  1  0  0  0
 50 49  1  0  0  0
 49 47  1  0  0  0
 47 48  2  0  0  0
 48 45  1  0  0  0
 42 41  1  0  0  0
 41 40  1  0  0  0
 40 39  1  0  0  0
 39  1  1  0  0  0
  1 21  1  0  0  0
  8  4  1  0  0  0
  8  9  1  0  0  0
  8 10  1  0  0  0
 11 13  1  0  0  0
 13 14  2  0  0  0
 13 18  1  0  0  0
 14 15  1  0  0  0
 15 16  2  0  0  0
 16 17  1  0  0  0
 17 18  2  0  0  0
 23 24  1  0  0  0
 23 25  1  0  0  0
 25 28  1  0  0  0
 32 33  1  0  0  0
 32 37  1  0  0  0
 33 34  1  0  0  0
 34 35  1  0  0  0
 35 36  1  0  0  0
M  END
> <minimizedAffinity>
-7.57088

> <CNNscore>
0.1531502604

> <CNNaffinity>
7.4507460594

> <CNN_VS>
1.1410837173

> <CNNaffinity_variance>
0.7517346740

$$$$
/media/chris/experiments/cd1a-new-docking/inputs/ligands/7ryo_ligand.pdb


 65 67  0  0  0  0  0  0  0  0999 V2000
  -38.3036   59.5219   64.4345 C   0  0  0  0  0  0  0  0  0  0  0  0
  -38.8966   58.4162   63.7010 N   0  0  0  0  0  0  0  0  0  0  0  0
  -38.9994   57.2330   61.7922 O   0  0  0  0  0  0  0  0  0  0  0  0
  -38.5188   58.1442   62.4496 C   0  0  0  0  0  0  0  0  0  0  0  0
  -39.5856   57.8607   64.1323 H   0  0  0  0  0  0  0  0  0  0  0  0
  -36.1312   58.7503   62.5131 N   0  0  0  0  0  0  0  0  0  0  0  0
  -35.6838   58.5192   60.3155 O   0  0  0  0  0  0  0  0  0  0  0  0
  -37.4111   59.0164   61.8360 C   0  0  0  0  0  0  0  0  0  0  0  0
  -37.7777   60.4853   62.0253 C   0  0  0  0  0  0  0  0  0  0  0  0
  -37.1233   58.6884   60.3634 C   0  0  0  0  0  0  0  0  0  0  0  0
  -35.2768   58.4930   61.6113 C   0  0  0  0  0  0  0  0  0  0  0  0
  -33.3558   60.4392   62.5092 O   0  0  0  0  0  0  0  0  0  0  0  0
  -33.8644   58.1697   61.8264 C   0  0  0  0  0  0  0  0  0  0  0  0
  -33.4267   56.8478   61.7368 C   0  0  0  0  0  0  0  0  0  0  0  0
  -32.1606   56.4961   62.1722 C   0  0  0  0  0  0  0  0  0  0  0  0
  -31.3151   57.4475   62.7000 C   0  0  0  0  0  0  0  0  0  0  0  0
  -31.7262   58.7639   62.8041 C   0  0  0  0  0  0  0  0  0  0  0  0
  -32.9959   59.1363   62.3739 C   0  0  0  0  0  0  0  0  0  0  0  0
  -34.2040   60.7224   62.2291 H   0  0  0  0  0  0  0  0  0  0  0  0
  -37.3406   57.8919   65.9366 O   0  0  0  0  0  0  0  0  0  0  0  0
  -37.3761   59.0209   65.5314 C   0  0  0  0  0  0  0  0  0  0  0  0
  -36.6144   60.0247   66.0000 O   0  0  0  0  0  0  0  0  0  0  0  0
  -35.3798   60.3506   65.2794 C   0  0  0  0  0  0  0  0  0  0  0  0
  -34.4170   59.2041   65.4591 C   0  0  0  0  0  0  0  0  0  0  0  0
  -34.8704   61.6351   65.9038 C   0  0  0  0  0  0  0  0  0  0  0  0
  -35.6281   63.7421   64.9937 N   0  0  0  0  0  0  0  0  0  0  0  0
  -36.8850   62.7434   66.5700 O   0  0  0  0  0  0  0  0  0  0  0  0
  -35.8850   62.7559   65.8578 C   0  0  0  0  0  0  0  0  0  0  0  0
  -36.2572   64.4966   64.9285 H   0  0  0  0  0  0  0  0  0  0  0  0
  -32.0500   63.9788   64.5088 N   0  0  0  0  0  0  0  0  0  0  0  0
  -33.4592   64.8946   65.9942 O   0  0  0  0  0  0  0  0  0  0  0  0
  -34.4473   63.7330   64.1479 C   0  0  0  0  0  0  0  0  0  0  0  0
  -34.6650   64.6373   62.9296 C   0  0  0  0  0  0  0  0  0  0  0  0
  -33.7049   64.3545   61.7793 C   0  0  0  0  0  0  0  0  0  0  0  0
  -32.2361   64.5642   62.0900 C   0  0  0  0  0  0  0  0  0  0  0  0
  -31.6845   63.6246   63.1416 C   0  0  0  0  0  0  0  0  0  0  0  0
  -33.2746   64.2532   64.9641 C   0  0  0  0  0  0  0  0  0  0  0  0
  -31.3168   64.0198   65.1645 H   0  0  0  0  0  0  0  0  0  0  0  0
  -39.3776   60.4476   65.0079 C   0  0  0  0  0  0  0  0  0  0  0  0
  -40.0805   59.8414   66.2178 C   0  0  0  0  0  0  0  0  0  0  0  0
  -41.5936   59.8734   66.1074 C   0  0  0  0  0  0  0  0  0  0  0  0
  -42.1532   59.1903   64.8787 C   0  0  0  0  0  0  0  0  0  0  0  0
  -41.9533   57.7513   64.9449 N   0  0  0  0  0  0  0  0  0  0  0  0
  -42.7839   55.6563   64.8254 O   0  0  0  0  0  0  0  0  0  0  0  0
  -42.9541   56.8845   64.7557 C   0  0  0  0  0  0  0  0  0  0  0  0
  -41.0520   57.4041   65.1352 H   0  0  0  0  0  0  0  0  0  0  0  0
  -45.1829   57.8664   65.2470 C   0  0  0  0  0  0  0  0  0  0  0  0
  -44.2425   57.5100   64.3827 C   0  0  0  0  0  0  0  0  0  0  0  0
  -45.1524   57.7415   66.7383 C   0  0  0  0  0  0  0  0  0  0  0  0
  -46.5179   57.3664   67.3010 C   0  0  0  0  0  0  0  0  0  0  0  0
  -47.5884   57.1800   66.2398 C   0  0  0  0  0  0  0  0  0  0  0  0
  -48.4702   58.4021   66.0441 C   0  0  0  0  0  0  0  0  0  0  0  0
  -49.9395   58.0870   65.8353 C   0  0  0  0  0  0  0  0  0  0  0  0
  -50.8509   59.2850   66.0440 C   0  0  0  0  0  0  0  0  0  0  0  0
  -50.4771   60.4852   65.1964 C   0  0  0  0  0  0  0  0  0  0  0  0
  -50.7670   60.2858   63.7223 C   0  0  0  0  0  0  0  0  0  0  0  0
  -49.5308   60.1676   62.8518 C   0  0  0  0  0  0  0  0  0  0  0  0
  -49.7992   59.4398   61.5494 C   0  0  0  0  0  0  0  0  0  0  0  0
  -50.1637   57.9772   61.7446 C   0  0  0  0  0  0  0  0  0  0  0  0
  -50.1989   57.1686   60.4593 C   0  0  0  0  0  0  0  0  0  0  0  0
  -49.1460   57.5725   59.4388 C   0  0  0  0  0  0  0  0  0  0  0  0
  -47.8266   56.8268   59.5848 C   0  0  0  0  0  0  0  0  0  0  0  0
  -46.6843   57.4610   58.8076 C   0  0  0  0  0  0  0  0  0  0  0  0
  -47.5478   57.1261   56.4584 C   0  0  0  0  0  0  0  0  0  0  0  0
  -47.0996   58.1150   57.5023 C   0  0  0  0  0  0  0  0  0  0  0  0
 43 45  1  0  0  0
 43 42  1  0  0  0
 43 46  1  0  0  0
 64 65  1  0  0  0
 44 45  2  0  0  0
 65 63  1  0  0  0
  2  1  1  0  0  0
  2  4  1  0  0  0
  2  5  1  0  0  0
  3  4  2  0  0  0
 63 62  1  0  0  0
  6  8  1  0  0  0
  6 11  2  0  0  0
  7 10  1  0  0  0
  7 11  1  0  0  0
 62 61  1  0  0  0
 26 28  1  0  0  0
 26 32  1  0  0  0
 26 29  1  0  0  0
 12 18  1  0  0  0
 12 19  1  0  0  0
 61 60  1  0  0  0
 30 36  1  0  0  0
 30 37  1  0  0  0
 30 38  1  0  0  0
 20 21  2  0  0  0
 60 59  1  0  0  0
 22 21  1  0  0  0
 22 23  1  0  0  0
 59 58  1  0  0  0
 27 28  2  0  0  0
 58 57  1  0  0  0
 31 37  2  0  0  0
 57 56  1  0  0  0
 56 55  1  0  0  0
 55 54  1  0  0  0
 54 53  1  0  0  0
 53 52  1  0  0  0
 52 51  1  0  0  0
 51 50  1  0  0  0
 50 49  1  0  0  0
 49 47  1  0  0  0
 47 48  2  0  0  0
 48 45  1  0  0  0
 42 41  1  0  0  0
 41 40  1  0  0  0
 40 39  1  0  0  0
 39  1  1  0  0  0
  1 21  1  0  0  0
  8  4  1  0  0  0
  8  9  1  0  0  0
  8 10  1  0  0  0
 11 13  1  0  0  0
 13 14  2  0  0  0
 13 18  1  0  0  0
 14 15  1  0  0  0
 15 16  2  0  0  0
 16 17  1  0  0  0
 17 18  2  0  0  0
 23 24  1  0  0  0
 23 25  1  0  0  0
 25 28  1  0  0  0
 32 33  1  0  0  0
 32 37  1  0  0  0
 33 34  1  0  0  0
 34 35  1  0  0  0
 35 36  1  0  0  0
M  END
> <minimizedAffinity>
-10.07169

> <CNNscore>
0.1484746188

> <CNNaffinity>
7.1781578064

> <CNN_VS>
1.0657742023

> <CNNaffinity_variance>
1.6776968241

$$$$
/media/chris/experiments/cd1a-new-docking/inputs/ligands/7ryo_ligand.pdb


 65 67  0  0  0  0  0  0  0  0999 V2000
  -39.8441   59.1026   63.4802 C   0  0  0  0  0  0  0  0  0  0  0  0
  -40.5462   60.0488   64.3311 N   0  0  0  0  0  0  0  0  0  0  0  0
  -40.5080   61.3662   66.1523 O   0  0  0  0  0  0  0  0  0  0  0  0
  -39.9513   60.5774   65.4032 C   0  0  0  0  0  0  0  0  0  0  0  0
  -41.4722   60.3034   64.1141 H   0  0  0  0  0  0  0  0  0  0  0  0
  -37.5888   60.9666   64.8207 N   0  0  0  0  0  0  0  0  0  0  0  0
  -36.7824   61.2253   66.9102 O   0  0  0  0  0  0  0  0  0  0  0  0
  -38.4916   60.1780   65.6754 C   0  0  0  0  0  0  0  0  0  0  0  0
  -38.3162   58.6975   65.3509 C   0  0  0  0  0  0  0  0  0  0  0  0
  -38.0266   60.5054   67.1021 C   0  0  0  0  0  0  0  0  0  0  0  0
  -36.7143   61.4862   65.5787 C   0  0  0  0  0  0  0  0  0  0  0  0
  -36.2301   62.1579   62.8222 O   0  0  0  0  0  0  0  0  0  0  0  0
  -35.6105   62.3522   65.1575 C   0  0  0  0  0  0  0  0  0  0  0  0
  -34.8293   63.0056   66.1115 C   0  0  0  0  0  0  0  0  0  0  0  0
  -33.9507   64.0064   65.7338 C   0  0  0  0  0  0  0  0  0  0  0  0
  -33.8356   64.3708   64.4100 C   0  0  0  0  0  0  0  0  0  0  0  0
  -34.6017   63.7421   63.4454 C   0  0  0  0  0  0  0  0  0  0  0  0
  -35.4920   62.7354   63.8057 C   0  0  0  0  0  0  0  0  0  0  0  0
  -36.8387   61.4770   63.0317 H   0  0  0  0  0  0  0  0  0  0  0  0
  -40.5526   60.4116   61.5762 O   0  0  0  0  0  0  0  0  0  0  0  0
  -39.8299   59.5690   62.0322 C   0  0  0  0  0  0  0  0  0  0  0  0
  -38.9081   58.8905   61.3271 O   0  0  0  0  0  0  0  0  0  0  0  0
  -37.6929   59.5996   60.9147 C   0  0  0  0  0  0  0  0  0  0  0  0
  -37.3585   59.1749   59.5071 C   0  0  0  0  0  0  0  0  0  0  0  0
  -36.6246   59.1904   61.9100 C   0  0  0  0  0  0  0  0  0  0  0  0
  -35.0965   57.3179   61.9381 N   0  0  0  0  0  0  0  0  0  0  0  0
  -37.3064   56.8959   61.9454 O   0  0  0  0  0  0  0  0  0  0  0  0
  -36.3773   57.6983   61.9294 C   0  0  0  0  0  0  0  0  0  0  0  0
  -34.8832   56.3568   61.9477 H   0  0  0  0  0  0  0  0  0  0  0  0
  -31.7606   58.3594   60.9997 N   0  0  0  0  0  0  0  0  0  0  0  0
  -32.6785   56.3574   61.4243 O   0  0  0  0  0  0  0  0  0  0  0  0
  -34.0098   58.2816   61.9339 C   0  0  0  0  0  0  0  0  0  0  0  0
  -33.7674   58.8083   63.3528 C   0  0  0  0  0  0  0  0  0  0  0  0
  -32.9880   60.1183   63.3935 C   0  0  0  0  0  0  0  0  0  0  0  0
  -31.5872   60.0612   62.8169 C   0  0  0  0  0  0  0  0  0  0  0  0
  -31.5391   59.7623   61.3332 C   0  0  0  0  0  0  0  0  0  0  0  0
  -32.7570   57.5824   61.4303 C   0  0  0  0  0  0  0  0  0  0  0  0
  -31.1067   57.9419   60.3936 H   0  0  0  0  0  0  0  0  0  0  0  0
  -40.4433   57.7003   63.5966 C   0  0  0  0  0  0  0  0  0  0  0  0
  -41.9481   57.7307   63.8416 C   0  0  0  0  0  0  0  0  0  0  0  0
  -42.3992   56.7511   64.9091 C   0  0  0  0  0  0  0  0  0  0  0  0
  -43.8992   56.6406   65.0735 C   0  0  0  0  0  0  0  0  0  0  0  0
  -44.3312   57.2288   66.3314 N   0  0  0  0  0  0  0  0  0  0  0  0
  -45.6779   58.6389   67.4680 O   0  0  0  0  0  0  0  0  0  0  0  0
  -45.3191   58.1282   66.3943 C   0  0  0  0  0  0  0  0  0  0  0  0
  -43.8816   56.9563   67.1638 H   0  0  0  0  0  0  0  0  0  0  0  0
  -47.2212   58.0114   64.8001 C   0  0  0  0  0  0  0  0  0  0  0  0
  -45.9875   58.3936   65.1008 C   0  0  0  0  0  0  0  0  0  0  0  0
  -48.1892   57.2710   65.6693 C   0  0  0  0  0  0  0  0  0  0  0  0
  -49.4388   58.0960   65.9517 C   0  0  0  0  0  0  0  0  0  0  0  0
  -49.1481   59.5312   66.3552 C   0  0  0  0  0  0  0  0  0  0  0  0
  -49.7785   60.5617   65.4332 C   0  0  0  0  0  0  0  0  0  0  0  0
  -51.1285   60.1568   64.8718 C   0  0  0  0  0  0  0  0  0  0  0  0
  -51.1775   60.1582   63.3530 C   0  0  0  0  0  0  0  0  0  0  0  0
  -49.8077   60.1513   62.7030 C   0  0  0  0  0  0  0  0  0  0  0  0
  -49.3784   58.7751   62.2353 C   0  0  0  0  0  0  0  0  0  0  0  0
  -50.4989   57.7546   62.1816 C   0  0  0  0  0  0  0  0  0  0  0  0
  -50.6497   57.1221   60.8122 C   0  0  0  0  0  0  0  0  0  0  0  0
  -49.3205   56.8641   60.1218 C   0  0  0  0  0  0  0  0  0  0  0  0
  -49.1024   57.6888   58.8652 C   0  0  0  0  0  0  0  0  0  0  0  0
  -47.9006   58.6187   58.9297 C   0  0  0  0  0  0  0  0  0  0  0  0
  -46.6769   58.0985   58.1880 C   0  0  0  0  0  0  0  0  0  0  0  0
  -46.9812   57.6271   56.7751 C   0  0  0  0  0  0  0  0  0  0  0  0
  -47.5373   55.2156   57.2765 C   0  0  0  0  0  0  0  0  0  0  0  0
  -46.6531   56.1681   56.5153 C   0  0  0  0  0  0  0  0  0  0  0  0
 43 45  1  0  0  0
 43 42  1  0  0  0
 43 46  1  0  0  0
 64 65  1  0  0  0
 44 45  2  0  0  0
 65 63  1  0  0  0
  2  1  1  0  0  0
  2  4  1  0  0  0
  2  5  1  0  0  0
  3  4  2  0  0  0
 63 62  1  0  0  0
  6  8  1  0  0  0
  6 11  2  0  0  0
  7 10  1  0  0  0
  7 11  1  0  0  0
 62 61  1  0  0  0
 26 28  1  0  0  0
 26 32  1  0  0  0
 26 29  1  0  0  0
 12 18  1  0  0  0
 12 19  1  0  0  0
 61 60  1  0  0  0
 30 36  1  0  0  0
 30 37  1  0  0  0
 30 38  1  0  0  0
 20 21  2  0  0  0
 60 59  1  0  0  0
 22 21  1  0  0  0
 22 23  1  0  0  0
 59 58  1  0  0  0
 27 28  2  0  0  0
 58 57  1  0  0  0
 31 37  2  0  0  0
 57 56  1  0  0  0
 56 55  1  0  0  0
 55 54  1  0  0  0
 54 53  1  0  0  0
 53 52  1  0  0  0
 52 51  1  0  0  0
 51 50  1  0  0  0
 50 49  1  0  0  0
 49 47  1  0  0  0
 47 48  2  0  0  0
 48 45  1  0  0  0
 42 41  1  0  0  0
 41 40  1  0  0  0
 40 39  1  0  0  0
 39  1  1  0  0  0
  1 21  1  0  0  0
  8  4  1  0  0  0
  8  9  1  0  0  0
  8 10  1  0  0  0
 11 13  1  0  0  0
 13 14  2  0  0  0
 13 18  1  0  0  0
 14 15  1  0  0  0
 15 16  2  0  0  0
 16 17  1  0  0  0
 17 18  2  0  0  0
 23 24  1  0  0  0
 23 25  1  0  0  0
 25 28  1  0  0  0
 32 33  1  0  0  0
 32 37  1  0  0  0
 33 34  1  0  0  0
 34 35  1  0  0  0
 35 36  1  0  0  0
M  END
> <minimizedAffinity>
-10.17042

> <CNNscore>
0.1462230980

> <CNNaffinity>
7.4351243973

> <CNN_VS>
1.0871869326

> <CNNaffinity_variance>
1.4367153645

$$$$
