/media/chris/experiments/cd1a-new-docking/inputs/ligands/7ryo_ligand.pdb


 65 67  0  0  0  0  0  0  0  0999 V2000
  -35.4733   58.6947   62.5099 C   0  0  0  0  0  0  0  0  0  0  0  0
  -34.0257   58.7877   62.4206 N   0  0  0  0  0  0  0  0  0  0  0  0
  -33.7591   56.5827   62.0735 O   0  0  0  0  0  0  0  0  0  0  0  0
  -33.2819   57.7000   62.2057 C   0  0  0  0  0  0  0  0  0  0  0  0
  -33.5881   59.6640   62.5197 H   0  0  0  0  0  0  0  0  0  0  0  0
  -31.4283   59.1535   61.4823 N   0  0  0  0  0  0  0  0  0  0  0  0
  -30.2843   59.2037   63.4245 O   0  0  0  0  0  0  0  0  0  0  0  0
  -31.7562   57.8820   62.1481 C   0  0  0  0  0  0  0  0  0  0  0  0
  -31.1517   56.7318   61.3483 C   0  0  0  0  0  0  0  0  0  0  0  0
  -31.1059   58.0136   63.5332 C   0  0  0  0  0  0  0  0  0  0  0  0
  -30.6387   59.7848   62.2488 C   0  0  0  0  0  0  0  0  0  0  0  0
  -29.4673   60.4927   59.7170 O   0  0  0  0  0  0  0  0  0  0  0  0
  -30.0515   61.1014   61.9893 C   0  0  0  0  0  0  0  0  0  0  0  0
  -30.1714   62.1208   62.9347 C   0  0  0  0  0  0  0  0  0  0  0  0
  -29.8411   63.4246   62.6073 C   0  0  0  0  0  0  0  0  0  0  0  0
  -29.3889   63.7334   61.3429 C   0  0  0  0  0  0  0  0  0  0  0  0
  -29.2655   62.7424   60.3861 C   0  0  0  0  0  0  0  0  0  0  0  0
  -29.5945   61.4263   60.6955 C   0  0  0  0  0  0  0  0  0  0  0  0
  -29.6807   59.5974   59.8930 H   0  0  0  0  0  0  0  0  0  0  0  0
  -35.4811   57.7701   64.7429 O   0  0  0  0  0  0  0  0  0  0  0  0
  -35.9282   58.5576   63.9552 C   0  0  0  0  0  0  0  0  0  0  0  0
  -36.9171   59.4280   64.2231 O   0  0  0  0  0  0  0  0  0  0  0  0
  -37.6172   59.3060   65.5055 C   0  0  0  0  0  0  0  0  0  0  0  0
  -38.7434   58.3185   65.3314 C   0  0  0  0  0  0  0  0  0  0  0  0
  -38.1175   60.7000   65.8309 C   0  0  0  0  0  0  0  0  0  0  0  0
  -36.2612   62.0325   65.0431 N   0  0  0  0  0  0  0  0  0  0  0  0
  -36.7943   62.1253   67.2269 O   0  0  0  0  0  0  0  0  0  0  0  0
  -36.9977   61.6802   66.1008 C   0  0  0  0  0  0  0  0  0  0  0  0
  -36.4706   61.6430   64.1635 H   0  0  0  0  0  0  0  0  0  0  0  0
  -33.4930   63.8840   63.6279 N   0  0  0  0  0  0  0  0  0  0  0  0
  -34.3976   61.8851   63.1619 O   0  0  0  0  0  0  0  0  0  0  0  0
  -35.1605   62.9737   65.1538 C   0  0  0  0  0  0  0  0  0  0  0  0
  -34.3005   62.6369   66.3771 C   0  0  0  0  0  0  0  0  0  0  0  0
  -33.4175   63.7907   66.8398 C   0  0  0  0  0  0  0  0  0  0  0  0
  -32.3897   64.2688   65.8333 C   0  0  0  0  0  0  0  0  0  0  0  0
  -32.9850   64.8689   64.5767 C   0  0  0  0  0  0  0  0  0  0  0  0
  -34.3160   62.8672   63.8939 C   0  0  0  0  0  0  0  0  0  0  0  0
  -33.1979   63.9792   62.6935 H   0  0  0  0  0  0  0  0  0  0  0  0
  -36.0096   57.5440   61.6570 C   0  0  0  0  0  0  0  0  0  0  0  0
  -37.5278   57.4234   61.7336 C   0  0  0  0  0  0  0  0  0  0  0  0
  -38.2516   58.4266   60.8547 C   0  0  0  0  0  0  0  0  0  0  0  0
  -39.7598   58.3995   60.9728 C   0  0  0  0  0  0  0  0  0  0  0  0
  -40.1818   57.5508   62.0759 N   0  0  0  0  0  0  0  0  0  0  0  0
  -41.7167   56.4344   60.8546 O   0  0  0  0  0  0  0  0  0  0  0  0
  -41.1358   56.6239   61.9359 C   0  0  0  0  0  0  0  0  0  0  0  0
  -39.7513   57.6622   62.9542 H   0  0  0  0  0  0  0  0  0  0  0  0
  -42.4578   56.2775   64.0108 C   0  0  0  0  0  0  0  0  0  0  0  0
  -41.4857   55.9129   63.1858 C   0  0  0  0  0  0  0  0  0  0  0  0
  -43.3988   57.4324   63.8652 C   0  0  0  0  0  0  0  0  0  0  0  0
  -43.5868   58.1764   65.1817 C   0  0  0  0  0  0  0  0  0  0  0  0
  -44.5463   57.4934   66.1408 C   0  0  0  0  0  0  0  0  0  0  0  0
  -45.8848   58.2014   66.2692 C   0  0  0  0  0  0  0  0  0  0  0  0
  -46.6556   58.3236   64.9682 C   0  0  0  0  0  0  0  0  0  0  0  0
  -47.9402   59.1249   65.0989 C   0  0  0  0  0  0  0  0  0  0  0  0
  -48.9175   58.5431   66.1015 C   0  0  0  0  0  0  0  0  0  0  0  0
  -50.3625   58.6582   65.6591 C   0  0  0  0  0  0  0  0  0  0  0  0
  -50.7936   60.0646   65.2897 C   0  0  0  0  0  0  0  0  0  0  0  0
  -51.4274   60.1407   63.9147 C   0  0  0  0  0  0  0  0  0  0  0  0
  -51.0019   59.0075   62.9954 C   0  0  0  0  0  0  0  0  0  0  0  0
  -50.0532   59.4294   61.8870 C   0  0  0  0  0  0  0  0  0  0  0  0
  -49.3741   58.2714   61.1722 C   0  0  0  0  0  0  0  0  0  0  0  0
  -50.0006   57.9222   59.8292 C   0  0  0  0  0  0  0  0  0  0  0  0
  -48.9787   57.6100   58.7480 C   0  0  0  0  0  0  0  0  0  0  0  0
  -46.6295   57.9885   57.9028 C   0  0  0  0  0  0  0  0  0  0  0  0
  -47.5581   58.0228   59.0881 C   0  0  0  0  0  0  0  0  0  0  0  0
 43 45  1  0  0  0
 43 42  1  0  0  0
 43 46  1  0  0  0
 64 65  1  0  0  0
 44 45  2  0  0  0
 65 63  1  0  0  0
  2  1  1  0  0  0
  2  4  1  0  0  0
  2  5  1  0  0  0
  3  4  2  0  0  0
 63 62  1  0  0  0
  6  8  1  0  0  0
  6 11  2  0  0  0
  7 10  1  0  0  0
  7 11  1  0  0  0
 62 61  1  0  0  0
 26 28  1  0  0  0
 26 32  1  0  0  0
 26 29  1  0  0  0
 12 18  1  0  0  0
 12 19  1  0  0  0
 61 60  1  0  0  0
 30 36  1  0  0  0
 30 37  1  0  0  0
 30 38  1  0  0  0
 20 21  2  0  0  0
 60 59  1  0  0  0
 22 21  1  0  0  0
 22 23  1  0  0  0
 59 58  1  0  0  0
 27 28  2  0  0  0
 58 57  1  0  0  0
 31 37  2  0  0  0
 57 56  1  0  0  0
 56 55  1  0  0  0
 55 54  1  0  0  0
 54 53  1  0  0  0
 53 52  1  0  0  0
 52 51  1  0  0  0
 51 50  1  0  0  0
 50 49  1  0  0  0
 49 47  1  0  0  0
 47 48  2  0  0  0
 48 45  1  0  0  0
 42 41  1  0  0  0
 41 40  1  0  0  0
 40 39  1  0  0  0
 39  1  1  0  0  0
  1 21  1  0  0  0
  8  4  1  0  0  0
  8  9  1  0  0  0
  8 10  1  0  0  0
 11 13  1  0  0  0
 13 14  2  0  0  0
 13 18  1  0  0  0
 14 15  1  0  0  0
 15 16  2  0  0  0
 16 17  1  0  0  0
 17 18  2  0  0  0
 23 24  1  0  0  0
 23 25  1  0  0  0
 25 28  1  0  0  0
 32 33  1  0  0  0
 32 37  1  0  0  0
 33 34  1  0  0  0
 34 35  1  0  0  0
 35 36  1  0  0  0
M  END
> <minimizedAffinity>
-11.26840

> <CNNscore>
0.4155049324

> <CNNaffinity>
7.3375473022

> <CNN_VS>
3.0487871170

> <CNNaffinity_variance>
1.2178332806

$$$$
/media/chris/experiments/cd1a-new-docking/inputs/ligands/7ryo_ligand.pdb


 65 67  0  0  0  0  0  0  0  0999 V2000
  -34.4701   59.4854   63.4133 C   0  0  0  0  0  0  0  0  0  0  0  0
  -33.0893   59.1831   63.0753 N   0  0  0  0  0  0  0  0  0  0  0  0
  -32.6295   61.2905   62.4422 O   0  0  0  0  0  0  0  0  0  0  0  0
  -32.2748   60.1332   62.6099 C   0  0  0  0  0  0  0  0  0  0  0  0
  -32.7502   58.2661   63.1911 H   0  0  0  0  0  0  0  0  0  0  0  0
  -30.3495   58.7184   63.2131 N   0  0  0  0  0  0  0  0  0  0  0  0
  -29.9656   57.8178   61.1822 O   0  0  0  0  0  0  0  0  0  0  0  0
  -30.8358   59.7245   62.2544 C   0  0  0  0  0  0  0  0  0  0  0  0
  -29.9397   60.9570   62.3300 C   0  0  0  0  0  0  0  0  0  0  0  0
  -30.7209   59.0217   60.8937 C   0  0  0  0  0  0  0  0  0  0  0  0
  -29.9082   57.7397   62.5372 C   0  0  0  0  0  0  0  0  0  0  0  0
  -29.6393   57.2576   65.3619 O   0  0  0  0  0  0  0  0  0  0  0  0
  -29.3243   56.5099   63.0779 C   0  0  0  0  0  0  0  0  0  0  0  0
  -29.0039   55.4527   62.2253 C   0  0  0  0  0  0  0  0  0  0  0  0
  -28.6843   54.2079   62.7395 C   0  0  0  0  0  0  0  0  0  0  0  0
  -28.6781   53.9960   64.1010 C   0  0  0  0  0  0  0  0  0  0  0  0
  -28.9965   55.0258   64.9675 C   0  0  0  0  0  0  0  0  0  0  0  0
  -29.3224   56.2836   64.4696 C   0  0  0  0  0  0  0  0  0  0  0  0
  -29.8634   58.1155   65.0591 H   0  0  0  0  0  0  0  0  0  0  0  0
  -34.4871   59.1505   65.8068 O   0  0  0  0  0  0  0  0  0  0  0  0
  -34.6029   59.8949   64.8725 C   0  0  0  0  0  0  0  0  0  0  0  0
  -34.8894   61.2047   64.9707 O   0  0  0  0  0  0  0  0  0  0  0  0
  -35.5394   61.6805   66.1957 C   0  0  0  0  0  0  0  0  0  0  0  0
  -37.0312   61.6361   65.9812 C   0  0  0  0  0  0  0  0  0  0  0  0
  -35.0285   63.0927   66.4059 C   0  0  0  0  0  0  0  0  0  0  0  0
  -33.4258   63.7333   64.7139 N   0  0  0  0  0  0  0  0  0  0  0  0
  -35.5638   64.3885   64.4654 O   0  0  0  0  0  0  0  0  0  0  0  0
  -34.7002   63.8000   65.1100 C   0  0  0  0  0  0  0  0  0  0  0  0
  -32.7765   63.2472   65.2718 H   0  0  0  0  0  0  0  0  0  0  0  0
  -30.8443   64.5319   62.3073 N   0  0  0  0  0  0  0  0  0  0  0  0
  -30.8206   64.1922   64.5242 O   0  0  0  0  0  0  0  0  0  0  0  0
  -32.9711   64.3574   63.4836 C   0  0  0  0  0  0  0  0  0  0  0  0
  -33.4801   65.8011   63.4060 C   0  0  0  0  0  0  0  0  0  0  0  0
  -33.4530   66.3837   61.9972 C   0  0  0  0  0  0  0  0  0  0  0  0
  -32.0816   66.4807   61.3585 C   0  0  0  0  0  0  0  0  0  0  0  0
  -31.4164   65.1427   61.1122 C   0  0  0  0  0  0  0  0  0  0  0  0
  -31.4507   64.3537   63.4831 C   0  0  0  0  0  0  0  0  0  0  0  0
  -29.9136   64.2183   62.2394 H   0  0  0  0  0  0  0  0  0  0  0  0
  -35.3915   58.3081   63.0904 C   0  0  0  0  0  0  0  0  0  0  0  0
  -35.5539   58.0930   61.5895 C   0  0  0  0  0  0  0  0  0  0  0  0
  -37.0037   57.9830   61.1554 C   0  0  0  0  0  0  0  0  0  0  0  0
  -38.0134   58.3361   62.2256 C   0  0  0  0  0  0  0  0  0  0  0  0
  -39.1910   57.4877   62.1325 N   0  0  0  0  0  0  0  0  0  0  0  0
  -40.2886   58.8731   60.7290 O   0  0  0  0  0  0  0  0  0  0  0  0
  -40.2500   57.8199   61.3862 C   0  0  0  0  0  0  0  0  0  0  0  0
  -39.2093   56.6415   62.6351 H   0  0  0  0  0  0  0  0  0  0  0  0
  -42.2292   56.8096   62.4973 C   0  0  0  0  0  0  0  0  0  0  0  0
  -41.3838   56.8731   61.4777 C   0  0  0  0  0  0  0  0  0  0  0  0
  -42.2436   57.6576   63.7307 C   0  0  0  0  0  0  0  0  0  0  0  0
  -42.8306   56.9106   64.9221 C   0  0  0  0  0  0  0  0  0  0  0  0
  -43.3377   57.8207   66.0274 C   0  0  0  0  0  0  0  0  0  0  0  0
  -44.8531   57.9118   66.0930 C   0  0  0  0  0  0  0  0  0  0  0  0
  -45.5428   57.8535   64.7430 C   0  0  0  0  0  0  0  0  0  0  0  0
  -47.0290   58.1637   64.8087 C   0  0  0  0  0  0  0  0  0  0  0  0
  -47.3909   59.1684   65.8850 C   0  0  0  0  0  0  0  0  0  0  0  0
  -48.8841   59.2743   66.1218 C   0  0  0  0  0  0  0  0  0  0  0  0
  -49.6419   59.9977   65.0252 C   0  0  0  0  0  0  0  0  0  0  0  0
  -50.8147   59.1956   64.4967 C   0  0  0  0  0  0  0  0  0  0  0  0
  -51.2158   59.5816   63.0825 C   0  0  0  0  0  0  0  0  0  0  0  0
  -50.2152   59.1674   62.0177 C   0  0  0  0  0  0  0  0  0  0  0  0
  -50.5887   57.8963   61.2707 C   0  0  0  0  0  0  0  0  0  0  0  0
  -49.8843   57.7384   59.9303 C   0  0  0  0  0  0  0  0  0  0  0  0
  -48.3682   57.7743   60.0358 C   0  0  0  0  0  0  0  0  0  0  0  0
  -46.4254   57.5242   58.4424 C   0  0  0  0  0  0  0  0  0  0  0  0
  -47.6646   58.3023   58.7988 C   0  0  0  0  0  0  0  0  0  0  0  0
 43 45  1  0  0  0
 43 42  1  0  0  0
 43 46  1  0  0  0
 64 65  1  0  0  0
 44 45  2  0  0  0
 65 63  1  0  0  0
  2  1  1  0  0  0
  2  4  1  0  0  0
  2  5  1  0  0  0
  3  4  2  0  0  0
 63 62  1  0  0  0
  6  8  1  0  0  0
  6 11  2  0  0  0
  7 10  1  0  0  0
  7 11  1  0  0  0
 62 61  1  0  0  0
 26 28  1  0  0  0
 26 32  1  0  0  0
 26 29  1  0  0  0
 12 18  1  0  0  0
 12 19  1  0  0  0
 61 60  1  0  0  0
 30 36  1  0  0  0
 30 37  1  0  0  0
 30 38  1  0  0  0
 20 21  2  0  0  0
 60 59  1  0  0  0
 22 21  1  0  0  0
 22 23  1  0  0  0
 59 58  1  0  0  0
 27 28  2  0  0  0
 58 57  1  0  0  0
 31 37  2  0  0  0
 57 56  1  0  0  0
 56 55  1  0  0  0
 55 54  1  0  0  0
 54 53  1  0  0  0
 53 52  1  0  0  0
 52 51  1  0  0  0
 51 50  1  0  0  0
 50 49  1  0  0  0
 49 47  1  0  0  0
 47 48  2  0  0  0
 48 45  1  0  0  0
 42 41  1  0  0  0
 41 40  1  0  0  0
 40 39  1  0  0  0
 39  1  1  0  0  0
  1 21  1  0  0  0
  8  4  1  0  0  0
  8  9  1  0  0  0
  8 10  1  0  0  0
 11 13  1  0  0  0
 13 14  2  0  0  0
 13 18  1  0  0  0
 14 15  1  0  0  0
 15 16  2  0  0  0
 16 17  1  0  0  0
 17 18  2  0  0  0
 23 24  1  0  0  0
 23 25  1  0  0  0
 25 28  1  0  0  0
 32 33  1  0  0  0
 32 37  1  0  0  0
 33 34  1  0  0  0
 34 35  1  0  0  0
 35 36  1  0  0  0
M  END
> <minimizedAffinity>
-10.44742

> <CNNscore>
0.3835417032

> <CNNaffinity>
7.5386018753

> <CNN_VS>
2.8913681507

> <CNNaffinity_variance>
0.5026636720

$$$$
/media/chris/experiments/cd1a-new-docking/inputs/ligands/7ryo_ligand.pdb


 65 67  0  0  0  0  0  0  0  0999 V2000
  -35.8713   59.3664   63.0141 C   0  0  0  0  0  0  0  0  0  0  0  0
  -34.4228   59.4761   62.9700 N   0  0  0  0  0  0  0  0  0  0  0  0
  -34.2223   58.0617   61.2343 O   0  0  0  0  0  0  0  0  0  0  0  0
  -33.7124   58.7993   62.0645 C   0  0  0  0  0  0  0  0  0  0  0  0
  -33.9595   60.0568   63.6161 H   0  0  0  0  0  0  0  0  0  0  0  0
  -31.6104   58.0284   63.0937 N   0  0  0  0  0  0  0  0  0  0  0  0
  -30.4515   57.6370   61.1997 O   0  0  0  0  0  0  0  0  0  0  0  0
  -32.1830   58.9530   62.1013 C   0  0  0  0  0  0  0  0  0  0  0  0
  -31.8402   60.3852   62.5005 C   0  0  0  0  0  0  0  0  0  0  0  0
  -31.4987   58.5511   60.7864 C   0  0  0  0  0  0  0  0  0  0  0  0
  -30.6964   57.3707   62.5092 C   0  0  0  0  0  0  0  0  0  0  0  0
  -29.6949   57.5597   65.2008 O   0  0  0  0  0  0  0  0  0  0  0  0
  -29.8547   56.3361   63.1146 C   0  0  0  0  0  0  0  0  0  0  0  0
  -29.6250   55.1363   62.4399 C   0  0  0  0  0  0  0  0  0  0  0  0
  -29.0423   54.0638   63.0929 C   0  0  0  0  0  0  0  0  0  0  0  0
  -28.6808   54.1668   64.4186 C   0  0  0  0  0  0  0  0  0  0  0  0
  -28.9018   55.3432   65.1114 C   0  0  0  0  0  0  0  0  0  0  0  0
  -29.4882   56.4315   64.4729 C   0  0  0  0  0  0  0  0  0  0  0  0
  -30.0877   58.3102   64.8004 H   0  0  0  0  0  0  0  0  0  0  0  0
  -37.0548   61.3788   62.3889 O   0  0  0  0  0  0  0  0  0  0  0  0
  -36.5197   60.7239   63.2405 C   0  0  0  0  0  0  0  0  0  0  0  0
  -36.3917   61.0995   64.5250 O   0  0  0  0  0  0  0  0  0  0  0  0
  -35.2249   61.9056   64.8969 C   0  0  0  0  0  0  0  0  0  0  0  0
  -34.7447   61.4380   66.2476 C   0  0  0  0  0  0  0  0  0  0  0  0
  -35.7131   63.3411   64.9234 C   0  0  0  0  0  0  0  0  0  0  0  0
  -34.8962   64.8712   63.2402 N   0  0  0  0  0  0  0  0  0  0  0  0
  -33.6914   64.6078   65.1220 O   0  0  0  0  0  0  0  0  0  0  0  0
  -34.6728   64.3266   64.4397 C   0  0  0  0  0  0  0  0  0  0  0  0
  -35.7006   64.6076   62.7376 H   0  0  0  0  0  0  0  0  0  0  0  0
  -34.2205   68.0136   61.5781 N   0  0  0  0  0  0  0  0  0  0  0  0
  -35.9600   66.5985   61.5318 O   0  0  0  0  0  0  0  0  0  0  0  0
  -33.9861   65.8411   62.6563 C   0  0  0  0  0  0  0  0  0  0  0  0
  -33.0021   65.1392   61.7137 C   0  0  0  0  0  0  0  0  0  0  0  0
  -31.7533   65.9604   61.4121 C   0  0  0  0  0  0  0  0  0  0  0  0
  -31.9965   67.2831   60.7126 C   0  0  0  0  0  0  0  0  0  0  0  0
  -32.7871   68.2816   61.5320 C   0  0  0  0  0  0  0  0  0  0  0  0
  -34.8081   66.8517   61.8723 C   0  0  0  0  0  0  0  0  0  0  0  0
  -34.8168   68.7689   61.3705 H   0  0  0  0  0  0  0  0  0  0  0  0
  -36.3203   58.3626   64.0771 C   0  0  0  0  0  0  0  0  0  0  0  0
  -37.6619   57.7212   63.7398 C   0  0  0  0  0  0  0  0  0  0  0  0
  -37.7654   57.2796   62.2917 C   0  0  0  0  0  0  0  0  0  0  0  0
  -38.7641   58.0571   61.4626 C   0  0  0  0  0  0  0  0  0  0  0  0
  -39.7017   58.7743   62.3120 N   0  0  0  0  0  0  0  0  0  0  0  0
  -41.4232   57.3797   61.8814 O   0  0  0  0  0  0  0  0  0  0  0  0
  -40.9714   58.3811   62.4607 C   0  0  0  0  0  0  0  0  0  0  0  0
  -39.3918   59.5753   62.7931 H   0  0  0  0  0  0  0  0  0  0  0  0
  -42.4326   58.9038   64.4010 C   0  0  0  0  0  0  0  0  0  0  0  0
  -41.7953   59.2792   63.3004 C   0  0  0  0  0  0  0  0  0  0  0  0
  -42.4499   57.5470   65.0329 C   0  0  0  0  0  0  0  0  0  0  0  0
  -43.8425   56.9292   65.0046 C   0  0  0  0  0  0  0  0  0  0  0  0
  -44.9607   57.9441   64.8407 C   0  0  0  0  0  0  0  0  0  0  0  0
  -46.1665   57.6685   65.7235 C   0  0  0  0  0  0  0  0  0  0  0  0
  -47.4508   58.3237   65.2513 C   0  0  0  0  0  0  0  0  0  0  0  0
  -48.6019   58.1756   66.2324 C   0  0  0  0  0  0  0  0  0  0  0  0
  -49.9656   58.3765   65.6008 C   0  0  0  0  0  0  0  0  0  0  0  0
  -50.2695   59.8286   65.2913 C   0  0  0  0  0  0  0  0  0  0  0  0
  -51.2801   60.0331   64.1791 C   0  0  0  0  0  0  0  0  0  0  0  0
  -50.9037   59.3038   62.9045 C   0  0  0  0  0  0  0  0  0  0  0  0
  -49.7701   59.9723   62.1443 C   0  0  0  0  0  0  0  0  0  0  0  0
  -49.6508   59.5346   60.6948 C   0  0  0  0  0  0  0  0  0  0  0  0
  -49.4072   58.0447   60.5106 C   0  0  0  0  0  0  0  0  0  0  0  0
  -48.7584   57.6850   59.1811 C   0  0  0  0  0  0  0  0  0  0  0  0
  -47.2451   57.5635   59.2600 C   0  0  0  0  0  0  0  0  0  0  0  0
  -47.3032   57.3840   56.7419 C   0  0  0  0  0  0  0  0  0  0  0  0
  -46.5243   57.8306   57.9511 C   0  0  0  0  0  0  0  0  0  0  0  0
 43 45  1  0  0  0
 43 42  1  0  0  0
 43 46  1  0  0  0
 64 65  1  0  0  0
 44 45  2  0  0  0
 65 63  1  0  0  0
  2  1  1  0  0  0
  2  4  1  0  0  0
  2  5  1  0  0  0
  3  4  2  0  0  0
 63 62  1  0  0  0
  6  8  1  0  0  0
  6 11  2  0  0  0
  7 10  1  0  0  0
  7 11  1  0  0  0
 62 61  1  0  0  0
 26 28  1  0  0  0
 26 32  1  0  0  0
 26 29  1  0  0  0
 12 18  1  0  0  0
 12 19  1  0  0  0
 61 60  1  0  0  0
 30 36  1  0  0  0
 30 37  1  0  0  0
 30 38  1  0  0  0
 20 21  2  0  0  0
 60 59  1  0  0  0
 22 21  1  0  0  0
 22 23  1  0  0  0
 59 58  1  0  0  0
 27 28  2  0  0  0
 58 57  1  0  0  0
 31 37  2  0  0  0
 57 56  1  0  0  0
 56 55  1  0  0  0
 55 54  1  0  0  0
 54 53  1  0  0  0
 53 52  1  0  0  0
 52 51  1  0  0  0
 51 50  1  0  0  0
 50 49  1  0  0  0
 49 47  1  0  0  0
 47 48  2  0  0  0
 48 45  1  0  0  0
 42 41  1  0  0  0
 41 40  1  0  0  0
 40 39  1  0  0  0
 39  1  1  0  0  0
  1 21  1  0  0  0
  8  4  1  0  0  0
  8  9  1  0  0  0
  8 10  1  0  0  0
 11 13  1  0  0  0
 13 14  2  0  0  0
 13 18  1  0  0  0
 14 15  1  0  0  0
 15 16  2  0  0  0
 16 17  1  0  0  0
 17 18  2  0  0  0
 23 24  1  0  0  0
 23 25  1  0  0  0
 25 28  1  0  0  0
 32 33  1  0  0  0
 32 37  1  0  0  0
 33 34  1  0  0  0
 34 35  1  0  0  0
 35 36  1  0  0  0
M  END
> <minimizedAffinity>
-10.52992

> <CNNscore>
0.3805818260

> <CNNaffinity>
7.2931718826

> <CNN_VS>
2.7756485939

> <CNNaffinity_variance>
0.3970234096

$$$$
/media/chris/experiments/cd1a-new-docking/inputs/ligands/7ryo_ligand.pdb


 65 67  0  0  0  0  0  0  0  0999 V2000
  -36.2320   60.5374   64.3662 C   0  0  0  0  0  0  0  0  0  0  0  0
  -35.0448   60.3558   63.5477 N   0  0  0  0  0  0  0  0  0  0  0  0
  -34.1166   58.8768   64.9635 O   0  0  0  0  0  0  0  0  0  0  0  0
  -34.0722   59.5238   63.9276 C   0  0  0  0  0  0  0  0  0  0  0  0
  -34.9568   60.8525   62.7023 H   0  0  0  0  0  0  0  0  0  0  0  0
  -31.7773   58.6549   63.7035 N   0  0  0  0  0  0  0  0  0  0  0  0
  -32.0164   57.6300   61.7096 O   0  0  0  0  0  0  0  0  0  0  0  0
  -32.8397   59.4073   63.0158 C   0  0  0  0  0  0  0  0  0  0  0  0
  -32.3286   60.8087   62.6953 C   0  0  0  0  0  0  0  0  0  0  0  0
  -33.1006   58.5927   61.7402 C   0  0  0  0  0  0  0  0  0  0  0  0
  -31.4091   57.7267   62.9210 C   0  0  0  0  0  0  0  0  0  0  0  0
  -29.9118   57.6696   65.3783 O   0  0  0  0  0  0  0  0  0  0  0  0
  -30.3699   56.7304   63.1912 C   0  0  0  0  0  0  0  0  0  0  0  0
  -30.1681   55.6707   62.3059 C   0  0  0  0  0  0  0  0  0  0  0  0
  -29.3684   54.5991   62.6640 C   0  0  0  0  0  0  0  0  0  0  0  0
  -28.7604   54.5645   63.9001 C   0  0  0  0  0  0  0  0  0  0  0  0
  -28.9480   55.5999   64.7976 C   0  0  0  0  0  0  0  0  0  0  0  0
  -29.7499   56.6847   64.4567 C   0  0  0  0  0  0  0  0  0  0  0  0
  -30.4455   58.4137   65.1798 H   0  0  0  0  0  0  0  0  0  0  0  0
  -36.6506   61.8235   66.3691 O   0  0  0  0  0  0  0  0  0  0  0  0
  -36.0638   61.7031   65.3291 C   0  0  0  0  0  0  0  0  0  0  0  0
  -35.1806   62.5927   64.8433 O   0  0  0  0  0  0  0  0  0  0  0  0
  -33.9664   62.8572   65.6212 C   0  0  0  0  0  0  0  0  0  0  0  0
  -34.2791   62.6085   67.0752 C   0  0  0  0  0  0  0  0  0  0  0  0
  -33.6141   64.3064   65.3466 C   0  0  0  0  0  0  0  0  0  0  0  0
  -32.5402   65.0975   63.3309 N   0  0  0  0  0  0  0  0  0  0  0  0
  -31.2858   64.0297   64.8633 O   0  0  0  0  0  0  0  0  0  0  0  0
  -32.3746   64.4604   64.4937 C   0  0  0  0  0  0  0  0  0  0  0  0
  -33.4373   65.4212   63.0866 H   0  0  0  0  0  0  0  0  0  0  0  0
  -30.6481   67.2031   61.0771 N   0  0  0  0  0  0  0  0  0  0  0  0
  -32.8193   67.1158   61.6332 O   0  0  0  0  0  0  0  0  0  0  0  0
  -31.4346   65.3261   62.4170 C   0  0  0  0  0  0  0  0  0  0  0  0
  -31.3350   64.1730   61.4121 C   0  0  0  0  0  0  0  0  0  0  0  0
  -29.9786   64.0797   60.7216 C   0  0  0  0  0  0  0  0  0  0  0  0
  -29.5888   65.2828   59.8859 C   0  0  0  0  0  0  0  0  0  0  0  0
  -29.4010   66.5567   60.6828 C   0  0  0  0  0  0  0  0  0  0  0  0
  -31.6939   66.6270   61.6740 C   0  0  0  0  0  0  0  0  0  0  0  0
  -30.7266   68.1650   60.8824 H   0  0  0  0  0  0  0  0  0  0  0  0
  -36.5895   59.2547   65.1185 C   0  0  0  0  0  0  0  0  0  0  0  0
  -38.0504   58.8599   64.9308 C   0  0  0  0  0  0  0  0  0  0  0  0
  -38.9075   59.9855   64.3822 C   0  0  0  0  0  0  0  0  0  0  0  0
  -40.1568   59.5345   63.6577 C   0  0  0  0  0  0  0  0  0  0  0  0
  -40.6876   58.3134   64.2429 N   0  0  0  0  0  0  0  0  0  0  0  0
  -41.2881   57.4205   62.2589 O   0  0  0  0  0  0  0  0  0  0  0  0
  -41.2181   57.3388   63.4963 C   0  0  0  0  0  0  0  0  0  0  0  0
  -40.6553   58.2005   65.2203 H   0  0  0  0  0  0  0  0  0  0  0  0
  -42.9777   56.2067   64.8361 C   0  0  0  0  0  0  0  0  0  0  0  0
  -41.7774   56.2095   64.2724 C   0  0  0  0  0  0  0  0  0  0  0  0
  -44.0087   57.2912   64.8031 C   0  0  0  0  0  0  0  0  0  0  0  0
  -44.3639   57.7748   66.2038 C   0  0  0  0  0  0  0  0  0  0  0  0
  -45.7956   58.2634   66.3394 C   0  0  0  0  0  0  0  0  0  0  0  0
  -46.8309   57.2448   65.8924 C   0  0  0  0  0  0  0  0  0  0  0  0
  -48.2457   57.7859   65.8080 C   0  0  0  0  0  0  0  0  0  0  0  0
  -48.3159   59.3037   65.8379 C   0  0  0  0  0  0  0  0  0  0  0  0
  -49.7310   59.8457   65.7846 C   0  0  0  0  0  0  0  0  0  0  0  0
  -50.6720   58.9730   64.9785 C   0  0  0  0  0  0  0  0  0  0  0  0
  -51.0753   59.5586   63.6389 C   0  0  0  0  0  0  0  0  0  0  0  0
  -51.1735   58.5111   62.5475 C   0  0  0  0  0  0  0  0  0  0  0  0
  -49.8214   57.9681   62.1150 C   0  0  0  0  0  0  0  0  0  0  0  0
  -49.3115   58.5423   60.8046 C   0  0  0  0  0  0  0  0  0  0  0  0
  -48.2417   57.6991   60.1279 C   0  0  0  0  0  0  0  0  0  0  0  0
  -48.3448   57.6736   58.6092 C   0  0  0  0  0  0  0  0  0  0  0  0
  -47.0407   58.0190   57.9085 C   0  0  0  0  0  0  0  0  0  0  0  0
  -47.2997   55.6947   56.9562 C   0  0  0  0  0  0  0  0  0  0  0  0
  -46.6300   57.0374   56.8260 C   0  0  0  0  0  0  0  0  0  0  0  0
 43 45  1  0  0  0
 43 42  1  0  0  0
 43 46  1  0  0  0
 64 65  1  0  0  0
 44 45  2  0  0  0
 65 63  1  0  0  0
  2  1  1  0  0  0
  2  4  1  0  0  0
  2  5  1  0  0  0
  3  4  2  0  0  0
 63 62  1  0  0  0
  6  8  1  0  0  0
  6 11  2  0  0  0
  7 10  1  0  0  0
  7 11  1  0  0  0
 62 61  1  0  0  0
 26 28  1  0  0  0
 26 32  1  0  0  0
 26 29  1  0  0  0
 12 18  1  0  0  0
 12 19  1  0  0  0
 61 60  1  0  0  0
 30 36  1  0  0  0
 30 37  1  0  0  0
 30 38  1  0  0  0
 20 21  2  0  0  0
 60 59  1  0  0  0
 22 21  1  0  0  0
 22 23  1  0  0  0
 59 58  1  0  0  0
 27 28  2  0  0  0
 58 57  1  0  0  0
 31 37  2  0  0  0
 57 56  1  0  0  0
 56 55  1  0  0  0
 55 54  1  0  0  0
 54 53  1  0  0  0
 53 52  1  0  0  0
 52 51  1  0  0  0
 51 50  1  0  0  0
 50 49  1  0  0  0
 49 47  1  0  0  0
 47 48  2  0  0  0
 48 45  1  0  0  0
 42 41  1  0  0  0
 41 40  1  0  0  0
 40 39  1  0  0  0
 39  1  1  0  0  0
  1 21  1  0  0  0
  8  4  1  0  0  0
  8  9  1  0  0  0
  8 10  1  0  0  0
 11 13  1  0  0  0
 13 14  2  0  0  0
 13 18  1  0  0  0
 14 15  1  0  0  0
 15 16  2  0  0  0
 16 17  1  0  0  0
 17 18  2  0  0  0
 23 24  1  0  0  0
 23 25  1  0  0  0
 25 28  1  0  0  0
 32 33  1  0  0  0
 32 37  1  0  0  0
 33 34  1  0  0  0
 34 35  1  0  0  0
 35 36  1  0  0  0
M  END
> <minimizedAffinity>
-10.10042

> <CNNscore>
0.3475709558

> <CNNaffinity>
7.2012381554

> <CNN_VS>
2.5029411316

> <CNNaffinity_variance>
0.4216856956

$$$$
/media/chris/experiments/cd1a-new-docking/inputs/ligands/7ryo_ligand.pdb


 65 67  0  0  0  0  0  0  0  0999 V2000
  -35.5191   62.1546   64.0202 C   0  0  0  0  0  0  0  0  0  0  0  0
  -35.8858   60.9183   63.3498 N   0  0  0  0  0  0  0  0  0  0  0  0
  -34.3362   59.7009   64.4315 O   0  0  0  0  0  0  0  0  0  0  0  0
  -35.2478   59.7773   63.6212 C   0  0  0  0  0  0  0  0  0  0  0  0
  -36.6139   60.9223   62.6872 H   0  0  0  0  0  0  0  0  0  0  0  0
  -37.1007   58.2323   63.1194 N   0  0  0  0  0  0  0  0  0  0  0  0
  -36.9264   58.2430   60.8716 O   0  0  0  0  0  0  0  0  0  0  0  0
  -35.6819   58.5195   62.8508 C   0  0  0  0  0  0  0  0  0  0  0  0
  -34.8382   57.3378   63.3197 C   0  0  0  0  0  0  0  0  0  0  0  0
  -35.6232   58.6890   61.3255 C   0  0  0  0  0  0  0  0  0  0  0  0
  -37.6762   58.1050   61.9960 C   0  0  0  0  0  0  0  0  0  0  0  0
  -39.2095   59.3136   59.8813 O   0  0  0  0  0  0  0  0  0  0  0  0
  -39.0951   57.8119   61.7805 C   0  0  0  0  0  0  0  0  0  0  0  0
  -39.7239   56.8102   62.5211 C   0  0  0  0  0  0  0  0  0  0  0  0
  -40.9827   56.3583   62.1643 C   0  0  0  0  0  0  0  0  0  0  0  0
  -41.6322   56.8921   61.0725 C   0  0  0  0  0  0  0  0  0  0  0  0
  -41.0290   57.8827   60.3191 C   0  0  0  0  0  0  0  0  0  0  0  0
  -39.7632   58.3485   60.6607 C   0  0  0  0  0  0  0  0  0  0  0  0
  -38.3584   59.6488   60.0843 H   0  0  0  0  0  0  0  0  0  0  0  0
  -34.2916   63.4181   62.3654 O   0  0  0  0  0  0  0  0  0  0  0  0
  -34.2882   62.7822   63.3833 C   0  0  0  0  0  0  0  0  0  0  0  0
  -33.1900   62.5077   64.1086 O   0  0  0  0  0  0  0  0  0  0  0  0
  -31.9011   62.4403   63.4131 C   0  0  0  0  0  0  0  0  0  0  0  0
  -31.6438   63.7814   62.7737 C   0  0  0  0  0  0  0  0  0  0  0  0
  -32.0481   61.3316   62.3890 C   0  0  0  0  0  0  0  0  0  0  0  0
  -31.3763   59.0906   62.9962 N   0  0  0  0  0  0  0  0  0  0  0  0
  -29.8178   60.4890   62.1728 O   0  0  0  0  0  0  0  0  0  0  0  0
  -30.9777   60.2701   62.5112 C   0  0  0  0  0  0  0  0  0  0  0  0
  -32.3197   58.9727   63.2515 H   0  0  0  0  0  0  0  0  0  0  0  0
  -29.8493   56.0214   61.8377 N   0  0  0  0  0  0  0  0  0  0  0  0
  -31.8741   56.9365   61.5315 O   0  0  0  0  0  0  0  0  0  0  0  0
  -30.4574   57.9773   63.1576 C   0  0  0  0  0  0  0  0  0  0  0  0
  -30.6123   57.3648   64.5541 C   0  0  0  0  0  0  0  0  0  0  0  0
  -29.4210   56.5158   64.9846 C   0  0  0  0  0  0  0  0  0  0  0  0
  -29.1388   55.3032   64.1199 C   0  0  0  0  0  0  0  0  0  0  0  0
  -28.7362   55.6355   62.6983 C   0  0  0  0  0  0  0  0  0  0  0  0
  -30.7884   56.9319   62.1044 C   0  0  0  0  0  0  0  0  0  0  0  0
  -29.9147   55.5622   60.9694 H   0  0  0  0  0  0  0  0  0  0  0  0
  -35.3057   61.9320   65.5181 C   0  0  0  0  0  0  0  0  0  0  0  0
  -36.6013   62.0529   66.3132 C   0  0  0  0  0  0  0  0  0  0  0  0
  -37.3450   60.7369   66.4466 C   0  0  0  0  0  0  0  0  0  0  0  0
  -38.5457   60.5934   65.5373 C   0  0  0  0  0  0  0  0  0  0  0  0
  -39.6094   59.8475   66.1909 N   0  0  0  0  0  0  0  0  0  0  0  0
  -41.0936   61.5449   66.0924 O   0  0  0  0  0  0  0  0  0  0  0  0
  -40.8139   60.3808   66.4225 C   0  0  0  0  0  0  0  0  0  0  0  0
  -39.4373   58.9198   66.4720 H   0  0  0  0  0  0  0  0  0  0  0  0
  -42.5923   58.6550   66.6019 C   0  0  0  0  0  0  0  0  0  0  0  0
  -41.7400   59.4989   67.1675 C   0  0  0  0  0  0  0  0  0  0  0  0
  -42.7929   58.3959   65.1414 C   0  0  0  0  0  0  0  0  0  0  0  0
  -44.0230   57.5338   64.8851 C   0  0  0  0  0  0  0  0  0  0  0  0
  -45.2953   58.3321   64.6588 C   0  0  0  0  0  0  0  0  0  0  0  0
  -46.2955   58.2180   65.7971 C   0  0  0  0  0  0  0  0  0  0  0  0
  -47.7441   58.1431   65.3525 C   0  0  0  0  0  0  0  0  0  0  0  0
  -48.6249   59.2125   65.9771 C   0  0  0  0  0  0  0  0  0  0  0  0
  -50.1058   58.9938   65.7365 C   0  0  0  0  0  0  0  0  0  0  0  0
  -50.8156   60.2338   65.2311 C   0  0  0  0  0  0  0  0  0  0  0  0
  -51.4543   60.0760   63.8646 C   0  0  0  0  0  0  0  0  0  0  0  0
  -50.8915   58.9025   63.0872 C   0  0  0  0  0  0  0  0  0  0  0  0
  -49.7493   59.2893   62.1621 C   0  0  0  0  0  0  0  0  0  0  0  0
  -49.1854   58.1336   61.3540 C   0  0  0  0  0  0  0  0  0  0  0  0
  -50.0053   57.7726   60.1249 C   0  0  0  0  0  0  0  0  0  0  0  0
  -49.1861   57.6652   58.8461 C   0  0  0  0  0  0  0  0  0  0  0  0
  -47.7110   57.9745   59.0450 C   0  0  0  0  0  0  0  0  0  0  0  0
  -47.3169   57.1774   56.6816 C   0  0  0  0  0  0  0  0  0  0  0  0
  -46.9282   58.1571   57.7574 C   0  0  0  0  0  0  0  0  0  0  0  0
 43 45  1  0  0  0
 43 42  1  0  0  0
 43 46  1  0  0  0
 64 65  1  0  0  0
 44 45  2  0  0  0
 65 63  1  0  0  0
  2  1  1  0  0  0
  2  4  1  0  0  0
  2  5  1  0  0  0
  3  4  2  0  0  0
 63 62  1  0  0  0
  6  8  1  0  0  0
  6 11  2  0  0  0
  7 10  1  0  0  0
  7 11  1  0  0  0
 62 61  1  0  0  0
 26 28  1  0  0  0
 26 32  1  0  0  0
 26 29  1  0  0  0
 12 18  1  0  0  0
 12 19  1  0  0  0
 61 60  1  0  0  0
 30 36  1  0  0  0
 30 37  1  0  0  0
 30 38  1  0  0  0
 20 21  2  0  0  0
 60 59  1  0  0  0
 22 21  1  0  0  0
 22 23  1  0  0  0
 59 58  1  0  0  0
 27 28  2  0  0  0
 58 57  1  0  0  0
 31 37  2  0  0  0
 57 56  1  0  0  0
 56 55  1  0  0  0
 55 54  1  0  0  0
 54 53  1  0  0  0
 53 52  1  0  0  0
 52 51  1  0  0  0
 51 50  1  0  0  0
 50 49  1  0  0  0
 49 47  1  0  0  0
 47 48  2  0  0  0
 48 45  1  0  0  0
 42 41  1  0  0  0
 41 40  1  0  0  0
 40 39  1  0  0  0
 39  1  1  0  0  0
  1 21  1  0  0  0
  8  4  1  0  0  0
  8  9  1  0  0  0
  8 10  1  0  0  0
 11 13  1  0  0  0
 13 14  2  0  0  0
 13 18  1  0  0  0
 14 15  1  0  0  0
 15 16  2  0  0  0
 16 17  1  0  0  0
 17 18  2  0  0  0
 23 24  1  0  0  0
 23 25  1  0  0  0
 25 28  1  0  0  0
 32 33  1  0  0  0
 32 37  1  0  0  0
 33 34  1  0  0  0
 34 35  1  0  0  0
 35 36  1  0  0  0
M  END
> <minimizedAffinity>
-10.91613

> <CNNscore>
0.3220671713

> <CNNaffinity>
7.5741066933

> <CNN_VS>
2.4393711090

> <CNNaffinity_variance>
1.4998880625

$$$$
/media/chris/experiments/cd1a-new-docking/inputs/ligands/7ryo_ligand.pdb


 65 67  0  0  0  0  0  0  0  0999 V2000
  -34.6325   59.4005   63.0377 C   0  0  0  0  0  0  0  0  0  0  0  0
  -33.2376   59.1108   62.7502 N   0  0  0  0  0  0  0  0  0  0  0  0
  -32.7091   61.2682   62.4039 O   0  0  0  0  0  0  0  0  0  0  0  0
  -32.3821   60.0917   62.4526 C   0  0  0  0  0  0  0  0  0  0  0  0
  -32.9195   58.1794   62.7753 H   0  0  0  0  0  0  0  0  0  0  0  0
  -30.4354   58.7544   63.1555 N   0  0  0  0  0  0  0  0  0  0  0  0
  -30.0027   57.7567   61.1806 O   0  0  0  0  0  0  0  0  0  0  0  0
  -30.9296   59.6973   62.1384 C   0  0  0  0  0  0  0  0  0  0  0  0
  -30.0616   60.9519   62.1604 C   0  0  0  0  0  0  0  0  0  0  0  0
  -30.7797   58.9264   60.8186 C   0  0  0  0  0  0  0  0  0  0  0  0
  -29.9632   57.7515   62.5385 C   0  0  0  0  0  0  0  0  0  0  0  0
  -29.6144   57.4784   65.3823 O   0  0  0  0  0  0  0  0  0  0  0  0
  -29.3606   56.5654   63.1513 C   0  0  0  0  0  0  0  0  0  0  0  0
  -29.0607   55.4488   62.3700 C   0  0  0  0  0  0  0  0  0  0  0  0
  -28.7230   54.2455   62.9650 C   0  0  0  0  0  0  0  0  0  0  0  0
  -28.6783   54.1341   64.3377 C   0  0  0  0  0  0  0  0  0  0  0  0
  -28.9757   55.2244   65.1349 C   0  0  0  0  0  0  0  0  0  0  0  0
  -29.3193   56.4419   64.5554 C   0  0  0  0  0  0  0  0  0  0  0  0
  -29.8496   58.3116   65.0237 H   0  0  0  0  0  0  0  0  0  0  0  0
  -34.6188   59.2488   65.4498 O   0  0  0  0  0  0  0  0  0  0  0  0
  -34.8079   59.9044   64.4624 C   0  0  0  0  0  0  0  0  0  0  0  0
  -35.2254   61.1824   64.4628 O   0  0  0  0  0  0  0  0  0  0  0  0
  -35.6691   61.7646   65.7330 C   0  0  0  0  0  0  0  0  0  0  0  0
  -37.0695   61.2772   66.0070 C   0  0  0  0  0  0  0  0  0  0  0  0
  -35.6095   63.2669   65.5356 C   0  0  0  0  0  0  0  0  0  0  0  0
  -33.5487   64.1477   64.6305 N   0  0  0  0  0  0  0  0  0  0  0  0
  -33.7589   64.0000   66.8657 O   0  0  0  0  0  0  0  0  0  0  0  0
  -34.2225   63.8340   65.7409 C   0  0  0  0  0  0  0  0  0  0  0  0
  -33.9711   63.9924   63.7549 H   0  0  0  0  0  0  0  0  0  0  0  0
  -31.2656   66.9543   64.5693 N   0  0  0  0  0  0  0  0  0  0  0  0
  -33.2648   66.5841   63.6222 O   0  0  0  0  0  0  0  0  0  0  0  0
  -32.2107   64.7111   64.6783 C   0  0  0  0  0  0  0  0  0  0  0  0
  -31.2821   63.9442   63.7301 C   0  0  0  0  0  0  0  0  0  0  0  0
  -29.8008   64.1445   64.0310 C   0  0  0  0  0  0  0  0  0  0  0  0
  -29.2977   65.5691   63.9077 C   0  0  0  0  0  0  0  0  0  0  0  0
  -29.9100   66.5313   64.9040 C   0  0  0  0  0  0  0  0  0  0  0  0
  -32.2923   66.1658   64.2436 C   0  0  0  0  0  0  0  0  0  0  0  0
  -31.4415   67.9228   64.5852 H   0  0  0  0  0  0  0  0  0  0  0  0
  -35.5182   58.1813   62.7767 C   0  0  0  0  0  0  0  0  0  0  0  0
  -35.8693   58.0243   61.3011 C   0  0  0  0  0  0  0  0  0  0  0  0
  -37.3622   57.9189   61.0504 C   0  0  0  0  0  0  0  0  0  0  0  0
  -38.2086   57.8205   62.3007 C   0  0  0  0  0  0  0  0  0  0  0  0
  -39.3918   58.6598   62.1975 N   0  0  0  0  0  0  0  0  0  0  0  0
  -38.3362   60.5292   62.8940 O   0  0  0  0  0  0  0  0  0  0  0  0
  -39.3696   59.9616   62.5036 C   0  0  0  0  0  0  0  0  0  0  0  0
  -40.2365   58.2567   61.8925 H   0  0  0  0  0  0  0  0  0  0  0  0
  -41.7225   60.3625   63.1939 C   0  0  0  0  0  0  0  0  0  0  0  0
  -40.6852   60.6334   62.4133 C   0  0  0  0  0  0  0  0  0  0  0  0
  -41.7939   59.3701   64.3121 C   0  0  0  0  0  0  0  0  0  0  0  0
  -42.4548   58.0699   63.8711 C   0  0  0  0  0  0  0  0  0  0  0  0
  -42.8696   57.1710   65.0231 C   0  0  0  0  0  0  0  0  0  0  0  0
  -44.3744   57.0852   65.2164 C   0  0  0  0  0  0  0  0  0  0  0  0
  -45.1020   58.4073   65.0601 C   0  0  0  0  0  0  0  0  0  0  0  0
  -46.6118   58.2601   64.9687 C   0  0  0  0  0  0  0  0  0  0  0  0
  -47.1468   57.0431   65.6978 C   0  0  0  0  0  0  0  0  0  0  0  0
  -48.5769   57.2137   66.1696 C   0  0  0  0  0  0  0  0  0  0  0  0
  -49.0435   58.6548   66.2444 C   0  0  0  0  0  0  0  0  0  0  0  0
  -50.5440   58.7938   66.0795 C   0  0  0  0  0  0  0  0  0  0  0  0
  -50.9692   60.1731   65.6031 C   0  0  0  0  0  0  0  0  0  0  0  0
  -51.0723   60.3047   64.0936 C   0  0  0  0  0  0  0  0  0  0  0  0
  -49.7313   60.3944   63.3817 C   0  0  0  0  0  0  0  0  0  0  0  0
  -49.8189   60.2036   61.8738 C   0  0  0  0  0  0  0  0  0  0  0  0
  -49.1687   58.9182   61.3880 C   0  0  0  0  0  0  0  0  0  0  0  0
  -50.7243   56.9668   61.0027 C   0  0  0  0  0  0  0  0  0  0  0  0
  -49.7806   57.6508   61.9566 C   0  0  0  0  0  0  0  0  0  0  0  0
 43 45  1  0  0  0
 43 42  1  0  0  0
 43 46  1  0  0  0
 64 65  1  0  0  0
 44 45  2  0  0  0
 65 63  1  0  0  0
  2  1  1  0  0  0
  2  4  1  0  0  0
  2  5  1  0  0  0
  3  4  2  0  0  0
 63 62  1  0  0  0
  6  8  1  0  0  0
  6 11  2  0  0  0
  7 10  1  0  0  0
  7 11  1  0  0  0
 62 61  1  0  0  0
 26 28  1  0  0  0
 26 32  1  0  0  0
 26 29  1  0  0  0
 12 18  1  0  0  0
 12 19  1  0  0  0
 61 60  1  0  0  0
 30 36  1  0  0  0
 30 37  1  0  0  0
 30 38  1  0  0  0
 20 21  2  0  0  0
 60 59  1  0  0  0
 22 21  1  0  0  0
 22 23  1  0  0  0
 59 58  1  0  0  0
 27 28  2  0  0  0
 58 57  1  0  0  0
 31 37  2  0  0  0
 57 56  1  0  0  0
 56 55  1  0  0  0
 55 54  1  0  0  0
 54 53  1  0  0  0
 53 52  1  0  0  0
 52 51  1  0  0  0
 51 50  1  0  0  0
 50 49  1  0  0  0
 49 47  1  0  0  0
 47 48  2  0  0  0
 48 45  1  0  0  0
 42 41  1  0  0  0
 41 40  1  0  0  0
 40 39  1  0  0  0
 39  1  1  0  0  0
  1 21  1  0  0  0
  8  4  1  0  0  0
  8  9  1  0  0  0
  8 10  1  0  0  0
 11 13  1  0  0  0
 13 14  2  0  0  0
 13 18  1  0  0  0
 14 15  1  0  0  0
 15 16  2  0  0  0
 16 17  1  0  0  0
 17 18  2  0  0  0
 23 24  1  0  0  0
 23 25  1  0  0  0
 25 28  1  0  0  0
 32 33  1  0  0  0
 32 37  1  0  0  0
 33 34  1  0  0  0
 34 35  1  0  0  0
 35 36  1  0  0  0
M  END
> <minimizedAffinity>
-9.99456

> <CNNscore>
0.3082855344

> <CNNaffinity>
7.4928884506

> <CNN_VS>
2.3099491596

> <CNNaffinity_variance>
0.4354345202

$$$$
/media/chris/experiments/cd1a-new-docking/inputs/ligands/7ryo_ligand.pdb


 65 67  0  0  0  0  0  0  0  0999 V2000
  -35.4563   58.4991   62.9461 C   0  0  0  0  0  0  0  0  0  0  0  0
  -34.0309   58.4537   62.6662 N   0  0  0  0  0  0  0  0  0  0  0  0
  -33.7388   60.6510   63.0409 O   0  0  0  0  0  0  0  0  0  0  0  0
  -33.2834   59.5575   62.7403 C   0  0  0  0  0  0  0  0  0  0  0  0
  -33.6112   57.5982   62.4190 H   0  0  0  0  0  0  0  0  0  0  0  0
  -31.1451   58.4913   63.3429 N   0  0  0  0  0  0  0  0  0  0  0  0
  -30.5694   57.7481   61.2937 O   0  0  0  0  0  0  0  0  0  0  0  0
  -31.7883   59.4274   62.4059 C   0  0  0  0  0  0  0  0  0  0  0  0
  -31.1308   60.7975   62.5424 C   0  0  0  0  0  0  0  0  0  0  0  0
  -31.5245   58.8062   61.0263 C   0  0  0  0  0  0  0  0  0  0  0  0
  -30.5226   57.6329   62.6465 C   0  0  0  0  0  0  0  0  0  0  0  0
  -29.6357   57.4789   65.3802 O   0  0  0  0  0  0  0  0  0  0  0  0
  -29.7358   56.5095   63.1609 C   0  0  0  0  0  0  0  0  0  0  0  0
  -29.5084   55.3890   62.3609 C   0  0  0  0  0  0  0  0  0  0  0  0
  -28.9834   54.2307   62.9076 C   0  0  0  0  0  0  0  0  0  0  0  0
  -28.6780   54.1688   64.2499 C   0  0  0  0  0  0  0  0  0  0  0  0
  -28.8981   55.2638   65.0654 C   0  0  0  0  0  0  0  0  0  0  0  0
  -29.4271   56.4363   64.5348 C   0  0  0  0  0  0  0  0  0  0  0  0
  -29.9907   58.2825   65.0544 H   0  0  0  0  0  0  0  0  0  0  0  0
  -35.6650   57.2425   65.0000 O   0  0  0  0  0  0  0  0  0  0  0  0
  -35.7333   58.2954   64.4281 C   0  0  0  0  0  0  0  0  0  0  0  0
  -36.0865   59.4568   65.0060 O   0  0  0  0  0  0  0  0  0  0  0  0
  -37.3471   59.5021   65.7531 C   0  0  0  0  0  0  0  0  0  0  0  0
  -38.2941   58.5056   65.1336 C   0  0  0  0  0  0  0  0  0  0  0  0
  -37.8457   60.9285   65.6249 C   0  0  0  0  0  0  0  0  0  0  0  0
  -36.1358   62.4696   64.8877 N   0  0  0  0  0  0  0  0  0  0  0  0
  -36.5403   62.2955   67.0940 O   0  0  0  0  0  0  0  0  0  0  0  0
  -36.7810   61.9558   65.9389 C   0  0  0  0  0  0  0  0  0  0  0  0
  -36.3712   62.1589   63.9836 H   0  0  0  0  0  0  0  0  0  0  0  0
  -34.0811   65.1552   63.5996 N   0  0  0  0  0  0  0  0  0  0  0  0
  -35.0189   63.3525   62.6501 O   0  0  0  0  0  0  0  0  0  0  0  0
  -35.0970   63.4732   65.0405 C   0  0  0  0  0  0  0  0  0  0  0  0
  -33.8610   62.8551   65.7036 C   0  0  0  0  0  0  0  0  0  0  0  0
  -32.9147   63.8846   66.3117 C   0  0  0  0  0  0  0  0  0  0  0  0
  -32.3080   64.8702   65.3328 C   0  0  0  0  0  0  0  0  0  0  0  0
  -33.3159   65.7857   64.6698 C   0  0  0  0  0  0  0  0  0  0  0  0
  -34.7281   63.9891   63.6587 C   0  0  0  0  0  0  0  0  0  0  0  0
  -34.1248   65.6406   62.7442 H   0  0  0  0  0  0  0  0  0  0  0  0
  -36.2208   57.4780   62.1022 C   0  0  0  0  0  0  0  0  0  0  0  0
  -37.3944   58.1040   61.3563 C   0  0  0  0  0  0  0  0  0  0  0  0
  -38.7155   57.4103   61.6319 C   0  0  0  0  0  0  0  0  0  0  0  0
  -39.9006   58.3398   61.7761 C   0  0  0  0  0  0  0  0  0  0  0  0
  -41.0932   57.6077   62.1718 N   0  0  0  0  0  0  0  0  0  0  0  0
  -41.5957   59.0056   63.8710 O   0  0  0  0  0  0  0  0  0  0  0  0
  -41.8592   57.9961   63.1971 C   0  0  0  0  0  0  0  0  0  0  0  0
  -41.3450   56.7998   61.6686 H   0  0  0  0  0  0  0  0  0  0  0  0
  -43.5674   56.9777   64.6863 C   0  0  0  0  0  0  0  0  0  0  0  0
  -42.9842   57.0835   63.5001 C   0  0  0  0  0  0  0  0  0  0  0  0
  -43.2491   57.7383   65.9355 C   0  0  0  0  0  0  0  0  0  0  0  0
  -44.4548   57.8302   66.8628 C   0  0  0  0  0  0  0  0  0  0  0  0
  -45.7833   57.5877   66.1675 C   0  0  0  0  0  0  0  0  0  0  0  0
  -46.8334   58.6415   66.4776 C   0  0  0  0  0  0  0  0  0  0  0  0
  -48.2156   58.3256   65.9380 C   0  0  0  0  0  0  0  0  0  0  0  0
  -49.1030   59.5507   65.7923 C   0  0  0  0  0  0  0  0  0  0  0  0
  -50.5562   59.2167   65.5179 C   0  0  0  0  0  0  0  0  0  0  0  0
  -51.1925   60.1305   64.4898 C   0  0  0  0  0  0  0  0  0  0  0  0
  -51.3845   59.4985   63.1245 C   0  0  0  0  0  0  0  0  0  0  0  0
  -50.1002   59.4379   62.3214 C   0  0  0  0  0  0  0  0  0  0  0  0
  -49.6791   58.0202   61.9709 C   0  0  0  0  0  0  0  0  0  0  0  0
  -50.2163   57.5235   60.6400 C   0  0  0  0  0  0  0  0  0  0  0  0
  -49.4386   58.0169   59.4296 C   0  0  0  0  0  0  0  0  0  0  0  0
  -47.9779   57.5879   59.4176 C   0  0  0  0  0  0  0  0  0  0  0  0
  -47.1910   58.1534   58.2463 C   0  0  0  0  0  0  0  0  0  0  0  0
  -47.0656   55.7972   57.3470 C   0  0  0  0  0  0  0  0  0  0  0  0
  -47.1673   57.2632   57.0171 C   0  0  0  0  0  0  0  0  0  0  0  0
 43 45  1  0  0  0
 43 42  1  0  0  0
 43 46  1  0  0  0
 64 65  1  0  0  0
 44 45  2  0  0  0
 65 63  1  0  0  0
  2  1  1  0  0  0
  2  4  1  0  0  0
  2  5  1  0  0  0
  3  4  2  0  0  0
 63 62  1  0  0  0
  6  8  1  0  0  0
  6 11  2  0  0  0
  7 10  1  0  0  0
  7 11  1  0  0  0
 62 61  1  0  0  0
 26 28  1  0  0  0
 26 32  1  0  0  0
 26 29  1  0  0  0
 12 18  1  0  0  0
 12 19  1  0  0  0
 61 60  1  0  0  0
 30 36  1  0  0  0
 30 37  1  0  0  0
 30 38  1  0  0  0
 20 21  2  0  0  0
 60 59  1  0  0  0
 22 21  1  0  0  0
 22 23  1  0  0  0
 59 58  1  0  0  0
 27 28  2  0  0  0
 58 57  1  0  0  0
 31 37  2  0  0  0
 57 56  1  0  0  0
 56 55  1  0  0  0
 55 54  1  0  0  0
 54 53  1  0  0  0
 53 52  1  0  0  0
 52 51  1  0  0  0
 51 50  1  0  0  0
 50 49  1  0  0  0
 49 47  1  0  0  0
 47 48  2  0  0  0
 48 45  1  0  0  0
 42 41  1  0  0  0
 41 40  1  0  0  0
 40 39  1  0  0  0
 39  1  1  0  0  0
  1 21  1  0  0  0
  8  4  1  0  0  0
  8  9  1  0  0  0
  8 10  1  0  0  0
 11 13  1  0  0  0
 13 14  2  0  0  0
 13 18  1  0  0  0
 14 15  1  0  0  0
 15 16  2  0  0  0
 16 17  1  0  0  0
 17 18  2  0  0  0
 23 24  1  0  0  0
 23 25  1  0  0  0
 25 28  1  0  0  0
 32 33  1  0  0  0
 32 37  1  0  0  0
 33 34  1  0  0  0
 34 35  1  0  0  0
 35 36  1  0  0  0
M  END
> <minimizedAffinity>
-11.34556

> <CNNscore>
0.2842569053

> <CNNaffinity>
7.3858299255

> <CNN_VS>
2.0994732380

> <CNNaffinity_variance>
0.6434322596

$$$$
/media/chris/experiments/cd1a-new-docking/inputs/ligands/7ryo_ligand.pdb


 65 67  0  0  0  0  0  0  0  0999 V2000
  -36.5586   60.6216   63.5640 C   0  0  0  0  0  0  0  0  0  0  0  0
  -35.6735   61.7548   63.3524 N   0  0  0  0  0  0  0  0  0  0  0  0
  -34.0956   60.9700   64.7481 O   0  0  0  0  0  0  0  0  0  0  0  0
  -34.4957   61.8294   63.9768 C   0  0  0  0  0  0  0  0  0  0  0  0
  -35.9459   62.4766   62.7408 H   0  0  0  0  0  0  0  0  0  0  0  0
  -34.1986   63.8548   62.6052 N   0  0  0  0  0  0  0  0  0  0  0  0
  -33.9276   65.3390   64.2806 O   0  0  0  0  0  0  0  0  0  0  0  0
  -33.6300   63.0729   63.7156 C   0  0  0  0  0  0  0  0  0  0  0  0
  -32.2219   62.6235   63.3371 C   0  0  0  0  0  0  0  0  0  0  0  0
  -33.6136   64.0614   64.8909 C   0  0  0  0  0  0  0  0  0  0  0  0
  -34.3198   65.0502   63.0124 C   0  0  0  0  0  0  0  0  0  0  0  0
  -32.7487   67.3846   62.4073 O   0  0  0  0  0  0  0  0  0  0  0  0
  -34.8440   66.1777   62.2381 C   0  0  0  0  0  0  0  0  0  0  0  0
  -36.1004   66.0911   61.6372 C   0  0  0  0  0  0  0  0  0  0  0  0
  -36.5026   67.0377   60.7107 C   0  0  0  0  0  0  0  0  0  0  0  0
  -35.6670   68.0788   60.3693 C   0  0  0  0  0  0  0  0  0  0  0  0
  -34.4149   68.1850   60.9468 C   0  0  0  0  0  0  0  0  0  0  0  0
  -33.9920   67.2422   61.8786 C   0  0  0  0  0  0  0  0  0  0  0  0
  -32.4339   66.7666   63.0373 H   0  0  0  0  0  0  0  0  0  0  0  0
  -38.4326   60.6587   62.0382 O   0  0  0  0  0  0  0  0  0  0  0  0
  -37.3243   60.2766   62.2955 C   0  0  0  0  0  0  0  0  0  0  0  0
  -36.5947   59.4654   61.5099 O   0  0  0  0  0  0  0  0  0  0  0  0
  -37.1234   58.1304   61.2139 C   0  0  0  0  0  0  0  0  0  0  0  0
  -38.5920   58.2678   60.9006 C   0  0  0  0  0  0  0  0  0  0  0  0
  -36.8747   57.3074   62.4631 C   0  0  0  0  0  0  0  0  0  0  0  0
  -34.5151   57.3227   61.9396 N   0  0  0  0  0  0  0  0  0  0  0  0
  -35.1318   57.3870   64.1023 O   0  0  0  0  0  0  0  0  0  0  0  0
  -35.4309   57.3393   62.9124 C   0  0  0  0  0  0  0  0  0  0  0  0
  -34.8138   57.2839   61.0023 H   0  0  0  0  0  0  0  0  0  0  0  0
  -31.5105   59.0649   62.9550 N   0  0  0  0  0  0  0  0  0  0  0  0
  -33.3691   59.7137   61.8800 O   0  0  0  0  0  0  0  0  0  0  0  0
  -33.0915   57.3603   62.2252 C   0  0  0  0  0  0  0  0  0  0  0  0
  -32.3091   56.6857   61.0929 C   0  0  0  0  0  0  0  0  0  0  0  0
  -30.8960   56.2715   61.4888 C   0  0  0  0  0  0  0  0  0  0  0  0
  -29.9758   57.4041   61.8990 C   0  0  0  0  0  0  0  0  0  0  0  0
  -30.4083   58.1303   63.1555 C   0  0  0  0  0  0  0  0  0  0  0  0
  -32.6681   58.8163   62.3384 C   0  0  0  0  0  0  0  0  0  0  0  0
  -31.3877   59.9742   63.3117 H   0  0  0  0  0  0  0  0  0  0  0  0
  -37.5169   60.8752   64.7286 C   0  0  0  0  0  0  0  0  0  0  0  0
  -37.4351   59.7880   65.7947 C   0  0  0  0  0  0  0  0  0  0  0  0
  -38.4892   58.7090   65.6293 C   0  0  0  0  0  0  0  0  0  0  0  0
  -39.7269   59.1435   64.8753 C   0  0  0  0  0  0  0  0  0  0  0  0
  -40.6315   58.0238   64.6675 N   0  0  0  0  0  0  0  0  0  0  0  0
  -42.2123   59.2690   63.6457 O   0  0  0  0  0  0  0  0  0  0  0  0
  -41.8162   58.1687   64.0639 C   0  0  0  0  0  0  0  0  0  0  0  0
  -40.3631   57.1301   64.9813 H   0  0  0  0  0  0  0  0  0  0  0  0
  -43.7087   56.7150   64.7553 C   0  0  0  0  0  0  0  0  0  0  0  0
  -42.6317   56.9347   64.0135 C   0  0  0  0  0  0  0  0  0  0  0  0
  -44.3336   57.6329   65.7590 C   0  0  0  0  0  0  0  0  0  0  0  0
  -45.8461   57.4577   65.8189 C   0  0  0  0  0  0  0  0  0  0  0  0
  -46.6145   58.4726   64.9903 C   0  0  0  0  0  0  0  0  0  0  0  0
  -47.8205   59.0557   65.7080 C   0  0  0  0  0  0  0  0  0  0  0  0
  -48.9312   58.0581   65.9777 C   0  0  0  0  0  0  0  0  0  0  0  0
  -50.3185   58.6784   65.9632 C   0  0  0  0  0  0  0  0  0  0  0  0
  -50.3387   60.1047   65.4494 C   0  0  0  0  0  0  0  0  0  0  0  0
  -51.4646   60.3679   64.4696 C   0  0  0  0  0  0  0  0  0  0  0  0
  -51.2349   59.7954   63.0841 C   0  0  0  0  0  0  0  0  0  0  0  0
  -49.7982   59.9386   62.6221 C   0  0  0  0  0  0  0  0  0  0  0  0
  -49.5799   59.4745   61.1913 C   0  0  0  0  0  0  0  0  0  0  0  0
  -49.3555   57.9790   61.0505 C   0  0  0  0  0  0  0  0  0  0  0  0
  -49.2864   57.4908   59.6118 C   0  0  0  0  0  0  0  0  0  0  0  0
  -48.1094   56.5675   59.3290 C   0  0  0  0  0  0  0  0  0  0  0  0
  -46.8551   57.3044   58.8877 C   0  0  0  0  0  0  0  0  0  0  0  0
  -47.3794   57.1724   56.4212 C   0  0  0  0  0  0  0  0  0  0  0  0
  -46.9972   58.0581   57.5778 C   0  0  0  0  0  0  0  0  0  0  0  0
 43 45  1  0  0  0
 43 42  1  0  0  0
 43 46  1  0  0  0
 64 65  1  0  0  0
 44 45  2  0  0  0
 65 63  1  0  0  0
  2  1  1  0  0  0
  2  4  1  0  0  0
  2  5  1  0  0  0
  3  4  2  0  0  0
 63 62  1  0  0  0
  6  8  1  0  0  0
  6 11  2  0  0  0
  7 10  1  0  0  0
  7 11  1  0  0  0
 62 61  1  0  0  0
 26 28  1  0  0  0
 26 32  1  0  0  0
 26 29  1  0  0  0
 12 18  1  0  0  0
 12 19  1  0  0  0
 61 60  1  0  0  0
 30 36  1  0  0  0
 30 37  1  0  0  0
 30 38  1  0  0  0
 20 21  2  0  0  0
 60 59  1  0  0  0
 22 21  1  0  0  0
 22 23  1  0  0  0
 59 58  1  0  0  0
 27 28  2  0  0  0
 58 57  1  0  0  0
 31 37  2  0  0  0
 57 56  1  0  0  0
 56 55  1  0  0  0
 55 54  1  0  0  0
 54 53  1  0  0  0
 53 52  1  0  0  0
 52 51  1  0  0  0
 51 50  1  0  0  0
 50 49  1  0  0  0
 49 47  1  0  0  0
 47 48  2  0  0  0
 48 45  1  0  0  0
 42 41  1  0  0  0
 41 40  1  0  0  0
 40 39  1  0  0  0
 39  1  1  0  0  0
  1 21  1  0  0  0
  8  4  1  0  0  0
  8  9  1  0  0  0
  8 10  1  0  0  0
 11 13  1  0  0  0
 13 14  2  0  0  0
 13 18  1  0  0  0
 14 15  1  0  0  0
 15 16  2  0  0  0
 16 17  1  0  0  0
 17 18  2  0  0  0
 23 24  1  0  0  0
 23 25  1  0  0  0
 25 28  1  0  0  0
 32 33  1  0  0  0
 32 37  1  0  0  0
 33 34  1  0  0  0
 34 35  1  0  0  0
 35 36  1  0  0  0
M  END
> <minimizedAffinity>
-10.44083

> <CNNscore>
0.2818190455

> <CNNaffinity>
7.2890791893

> <CNN_VS>
2.0542013645

> <CNNaffinity_variance>
0.6365386844

$$$$
/media/chris/experiments/cd1a-new-docking/inputs/ligands/7ryo_ligand.pdb


 65 67  0  0  0  0  0  0  0  0999 V2000
  -35.4367   59.3085   63.7425 C   0  0  0  0  0  0  0  0  0  0  0  0
  -34.0205   59.1640   63.4495 N   0  0  0  0  0  0  0  0  0  0  0  0
  -34.3311   57.3939   62.0989 O   0  0  0  0  0  0  0  0  0  0  0  0
  -33.5849   58.1987   62.6364 C   0  0  0  0  0  0  0  0  0  0  0  0
  -33.3742   59.7857   63.8557 H   0  0  0  0  0  0  0  0  0  0  0  0
  -31.5880   59.3193   61.7261 N   0  0  0  0  0  0  0  0  0  0  0  0
  -30.2384   59.0713   63.5150 O   0  0  0  0  0  0  0  0  0  0  0  0
  -32.0692   58.1006   62.3975 C   0  0  0  0  0  0  0  0  0  0  0  0
  -31.7872   56.8965   61.5038 C   0  0  0  0  0  0  0  0  0  0  0  0
  -31.2502   58.0481   63.6957 C   0  0  0  0  0  0  0  0  0  0  0  0
  -30.6110   59.7601   62.4049 C   0  0  0  0  0  0  0  0  0  0  0  0
  -29.7543   60.4319   59.7407 O   0  0  0  0  0  0  0  0  0  0  0  0
  -29.8216   60.9571   62.1060 C   0  0  0  0  0  0  0  0  0  0  0  0
  -29.5764   61.9018   63.1034 C   0  0  0  0  0  0  0  0  0  0  0  0
  -29.0488   63.1407   62.7828 C   0  0  0  0  0  0  0  0  0  0  0  0
  -28.7582   63.4578   61.4737 C   0  0  0  0  0  0  0  0  0  0  0  0
  -28.9961   62.5412   60.4658 C   0  0  0  0  0  0  0  0  0  0  0  0
  -29.5280   61.2914   60.7680 C   0  0  0  0  0  0  0  0  0  0  0  0
  -30.1117   59.5825   59.9105 H   0  0  0  0  0  0  0  0  0  0  0  0
  -36.1555   61.4437   62.8675 O   0  0  0  0  0  0  0  0  0  0  0  0
  -35.8378   60.7744   63.8118 C   0  0  0  0  0  0  0  0  0  0  0  0
  -35.7667   61.2237   65.0769 O   0  0  0  0  0  0  0  0  0  0  0  0
  -34.8032   62.2863   65.3803 C   0  0  0  0  0  0  0  0  0  0  0  0
  -34.3812   62.1378   66.8203 C   0  0  0  0  0  0  0  0  0  0  0  0
  -35.5385   63.5879   65.1260 C   0  0  0  0  0  0  0  0  0  0  0  0
  -33.5129   64.4050   64.0909 N   0  0  0  0  0  0  0  0  0  0  0  0
  -35.4866   65.1802   63.3391 O   0  0  0  0  0  0  0  0  0  0  0  0
  -34.8475   64.4660   64.1066 C   0  0  0  0  0  0  0  0  0  0  0  0
  -33.0537   63.8140   64.7305 H   0  0  0  0  0  0  0  0  0  0  0  0
  -32.0559   64.9535   60.8244 N   0  0  0  0  0  0  0  0  0  0  0  0
  -32.5572   63.1024   61.9877 O   0  0  0  0  0  0  0  0  0  0  0  0
  -32.7200   65.1858   63.1573 C   0  0  0  0  0  0  0  0  0  0  0  0
  -31.3968   65.6017   63.8095 C   0  0  0  0  0  0  0  0  0  0  0  0
  -30.7113   66.7702   63.1095 C   0  0  0  0  0  0  0  0  0  0  0  0
  -30.3077   66.5212   61.6698 C   0  0  0  0  0  0  0  0  0  0  0  0
  -31.4726   66.2874   60.7308 C   0  0  0  0  0  0  0  0  0  0  0  0
  -32.4366   64.3231   61.9378 C   0  0  0  0  0  0  0  0  0  0  0  0
  -32.1820   64.4673   59.9777 H   0  0  0  0  0  0  0  0  0  0  0  0
  -35.8146   58.5774   65.0316 C   0  0  0  0  0  0  0  0  0  0  0  0
  -37.1991   57.9430   64.9544 C   0  0  0  0  0  0  0  0  0  0  0  0
  -37.7884   57.9640   63.5562 C   0  0  0  0  0  0  0  0  0  0  0  0
  -39.2962   57.8501   63.5030 C   0  0  0  0  0  0  0  0  0  0  0  0
  -39.8958   58.2660   64.7610 N   0  0  0  0  0  0  0  0  0  0  0  0
  -41.6949   59.2180   63.7860 O   0  0  0  0  0  0  0  0  0  0  0  0
  -41.0591   58.9240   64.8116 C   0  0  0  0  0  0  0  0  0  0  0  0
  -39.4303   58.0563   65.6028 H   0  0  0  0  0  0  0  0  0  0  0  0
  -42.3955   58.7149   66.8956 C   0  0  0  0  0  0  0  0  0  0  0  0
  -41.4715   59.3331   66.1728 C   0  0  0  0  0  0  0  0  0  0  0  0
  -43.1880   57.5002   66.5257 C   0  0  0  0  0  0  0  0  0  0  0  0
  -44.5091   57.8691   65.8619 C   0  0  0  0  0  0  0  0  0  0  0  0
  -45.7256   57.6222   66.7374 C   0  0  0  0  0  0  0  0  0  0  0  0
  -47.0463   57.7889   66.0045 C   0  0  0  0  0  0  0  0  0  0  0  0
  -47.0817   58.9559   65.0358 C   0  0  0  0  0  0  0  0  0  0  0  0
  -48.3070   59.8402   65.1982 C   0  0  0  0  0  0  0  0  0  0  0  0
  -49.3695   59.2432   66.1001 C   0  0  0  0  0  0  0  0  0  0  0  0
  -50.7710   59.7047   65.7542 C   0  0  0  0  0  0  0  0  0  0  0  0
  -50.8526   60.5918   64.5268 C   0  0  0  0  0  0  0  0  0  0  0  0
  -51.6220   59.9488   63.3898 C   0  0  0  0  0  0  0  0  0  0  0  0
  -50.8804   58.7894   62.7448 C   0  0  0  0  0  0  0  0  0  0  0  0
  -49.7536   59.2111   61.8179 C   0  0  0  0  0  0  0  0  0  0  0  0
  -49.0578   58.0555   61.1153 C   0  0  0  0  0  0  0  0  0  0  0  0
  -49.7231   57.6347   59.8122 C   0  0  0  0  0  0  0  0  0  0  0  0
  -48.7400   57.4226   58.6722 C   0  0  0  0  0  0  0  0  0  0  0  0
  -46.3976   57.8771   57.8457 C   0  0  0  0  0  0  0  0  0  0  0  0
  -47.5487   58.3631   58.6867 C   0  0  0  0  0  0  0  0  0  0  0  0
 43 45  1  0  0  0
 43 42  1  0  0  0
 43 46  1  0  0  0
 64 65  1  0  0  0
 44 45  2  0  0  0
 65 63  1  0  0  0
  2  1  1  0  0  0
  2  4  1  0  0  0
  2  5  1  0  0  0
  3  4  2  0  0  0
 63 62  1  0  0  0
  6  8  1  0  0  0
  6 11  2  0  0  0
  7 10  1  0  0  0
  7 11  1  0  0  0
 62 61  1  0  0  0
 26 28  1  0  0  0
 26 32  1  0  0  0
 26 29  1  0  0  0
 12 18  1  0  0  0
 12 19  1  0  0  0
 61 60  1  0  0  0
 30 36  1  0  0  0
 30 37  1  0  0  0
 30 38  1  0  0  0
 20 21  2  0  0  0
 60 59  1  0  0  0
 22 21  1  0  0  0
 22 23  1  0  0  0
 59 58  1  0  0  0
 27 28  2  0  0  0
 58 57  1  0  0  0
 31 37  2  0  0  0
 57 56  1  0  0  0
 56 55  1  0  0  0
 55 54  1  0  0  0
 54 53  1  0  0  0
 53 52  1  0  0  0
 52 51  1  0  0  0
 51 50  1  0  0  0
 50 49  1  0  0  0
 49 47  1  0  0  0
 47 48  2  0  0  0
 48 45  1  0  0  0
 42 41  1  0  0  0
 41 40  1  0  0  0
 40 39  1  0  0  0
 39  1  1  0  0  0
  1 21  1  0  0  0
  8  4  1  0  0  0
  8  9  1  0  0  0
  8 10  1  0  0  0
 11 13  1  0  0  0
 13 14  2  0  0  0
 13 18  1  0  0  0
 14 15  1  0  0  0
 15 16  2  0  0  0
 16 17  1  0  0  0
 17 18  2  0  0  0
 23 24  1  0  0  0
 23 25  1  0  0  0
 25 28  1  0  0  0
 32 33  1  0  0  0
 32 37  1  0  0  0
 33 34  1  0  0  0
 34 35  1  0  0  0
 35 36  1  0  0  0
M  END
> <minimizedAffinity>
-10.51192

> <CNNscore>
0.2783653438

> <CNNaffinity>
6.9516296387

> <CNN_VS>
1.9350928068

> <CNNaffinity_variance>
0.6747764349

$$$$
