/media/chris/experiments/cd1a-new-docking/inputs/ligands/7ryo_ligand.pdb


 65 67  0  0  0  0  0  0  0  0999 V2000
  -35.3533   57.9254   63.4115 C   0  0  0  0  0  0  0  0  0  0  0  0
  -36.4265   58.8656   63.6886 N   0  0  0  0  0  0  0  0  0  0  0  0
  -37.2658   57.6358   65.3730 O   0  0  0  0  0  0  0  0  0  0  0  0
  -37.3058   58.6316   64.6658 C   0  0  0  0  0  0  0  0  0  0  0  0
  -36.5060   59.6852   63.1491 H   0  0  0  0  0  0  0  0  0  0  0  0
  -39.7201   59.0892   64.4815 N   0  0  0  0  0  0  0  0  0  0  0  0
  -40.0536   59.8902   66.5623 O   0  0  0  0  0  0  0  0  0  0  0  0
  -38.4243   59.6650   64.8779 C   0  0  0  0  0  0  0  0  0  0  0  0
  -38.1377   60.8876   64.0114 C   0  0  0  0  0  0  0  0  0  0  0  0
  -38.6277   60.0485   66.3512 C   0  0  0  0  0  0  0  0  0  0  0  0
  -40.5185   59.2597   65.4524 C   0  0  0  0  0  0  0  0  0  0  0  0
  -42.0657   58.7364   63.0827 O   0  0  0  0  0  0  0  0  0  0  0  0
  -41.9222   58.8439   65.4999 C   0  0  0  0  0  0  0  0  0  0  0  0
  -42.5237   58.5457   66.7233 C   0  0  0  0  0  0  0  0  0  0  0  0
  -43.7596   57.9236   66.7651 C   0  0  0  0  0  0  0  0  0  0  0  0
  -44.4129   57.5905   65.5985 C   0  0  0  0  0  0  0  0  0  0  0  0
  -43.8365   57.8711   64.3731 C   0  0  0  0  0  0  0  0  0  0  0  0
  -42.5939   58.4940   64.3105 C   0  0  0  0  0  0  0  0  0  0  0  0
  -41.2306   59.1544   63.0061 H   0  0  0  0  0  0  0  0  0  0  0  0
  -33.3730   58.6821   64.5719 O   0  0  0  0  0  0  0  0  0  0  0  0
  -33.9910   58.5890   63.5474 C   0  0  0  0  0  0  0  0  0  0  0  0
  -33.5835   59.0766   62.3628 O   0  0  0  0  0  0  0  0  0  0  0  0
  -32.2083   58.7991   61.9367 C   0  0  0  0  0  0  0  0  0  0  0  0
  -31.8838   57.3730   62.3033 C   0  0  0  0  0  0  0  0  0  0  0  0
  -31.3421   59.7972   62.6803 C   0  0  0  0  0  0  0  0  0  0  0  0
  -32.3414   61.9735   63.0081 N   0  0  0  0  0  0  0  0  0  0  0  0
  -31.0410   61.6545   61.2001 O   0  0  0  0  0  0  0  0  0  0  0  0
  -31.5616   61.2228   62.2249 C   0  0  0  0  0  0  0  0  0  0  0  0
  -32.7321   61.5734   63.8183 H   0  0  0  0  0  0  0  0  0  0  0  0
  -31.5830   65.5066   63.1976 N   0  0  0  0  0  0  0  0  0  0  0  0
  -31.2183   63.7841   64.5873 O   0  0  0  0  0  0  0  0  0  0  0  0
  -32.6290   63.3631   62.6985 C   0  0  0  0  0  0  0  0  0  0  0  0
  -34.1034   63.6717   62.9823 C   0  0  0  0  0  0  0  0  0  0  0  0
  -34.6099   64.9292   62.2842 C   0  0  0  0  0  0  0  0  0  0  0  0
  -33.9187   66.2184   62.6816 C   0  0  0  0  0  0  0  0  0  0  0  0
  -32.4513   66.2746   62.3118 C   0  0  0  0  0  0  0  0  0  0  0  0
  -31.7484   64.2376   63.5772 C   0  0  0  0  0  0  0  0  0  0  0  0
  -30.7921   65.9731   63.5526 H   0  0  0  0  0  0  0  0  0  0  0  0
  -35.5154   57.2888   62.0303 C   0  0  0  0  0  0  0  0  0  0  0  0
  -36.8619   57.6172   61.3943 C   0  0  0  0  0  0  0  0  0  0  0  0
  -36.8125   58.8304   60.4843 C   0  0  0  0  0  0  0  0  0  0  0  0
  -38.0441   59.0303   59.6283 C   0  0  0  0  0  0  0  0  0  0  0  0
  -38.9663   59.9664   60.2513 N   0  0  0  0  0  0  0  0  0  0  0  0
  -41.0727   60.5556   60.8080 O   0  0  0  0  0  0  0  0  0  0  0  0
  -40.2854   59.7487   60.2869 C   0  0  0  0  0  0  0  0  0  0  0  0
  -38.6078   60.7872   60.6601 H   0  0  0  0  0  0  0  0  0  0  0  0
  -41.4243   58.2934   58.6260 C   0  0  0  0  0  0  0  0  0  0  0  0
  -40.7048   58.4432   59.7299 C   0  0  0  0  0  0  0  0  0  0  0  0
  -41.9407   59.3637   57.7159 C   0  0  0  0  0  0  0  0  0  0  0  0
  -43.1117   58.8719   56.8741 C   0  0  0  0  0  0  0  0  0  0  0  0
  -44.2010   58.1854   57.6800 C   0  0  0  0  0  0  0  0  0  0  0  0
  -45.5745   58.2614   57.0344 C   0  0  0  0  0  0  0  0  0  0  0  0
  -46.7226   58.3844   58.0184 C   0  0  0  0  0  0  0  0  0  0  0  0
  -46.8997   57.1581   58.8984 C   0  0  0  0  0  0  0  0  0  0  0  0
  -48.3483   56.8476   59.2200 C   0  0  0  0  0  0  0  0  0  0  0  0
  -49.1091   58.0451   59.7528 C   0  0  0  0  0  0  0  0  0  0  0  0
  -50.4460   57.7069   60.3839 C   0  0  0  0  0  0  0  0  0  0  0  0
  -50.4846   58.0055   61.8696 C   0  0  0  0  0  0  0  0  0  0  0  0
  -49.2553   58.7506   62.3633 C   0  0  0  0  0  0  0  0  0  0  0  0
  -49.5673   60.0146   63.1454 C   0  0  0  0  0  0  0  0  0  0  0  0
  -50.8283   59.9299   63.9914 C   0  0  0  0  0  0  0  0  0  0  0  0
  -50.5636   59.6948   65.4723 C   0  0  0  0  0  0  0  0  0  0  0  0
  -50.2508   58.2456   65.8081 C   0  0  0  0  0  0  0  0  0  0  0  0
  -48.0336   59.2679   66.4524 C   0  0  0  0  0  0  0  0  0  0  0  0
  -48.8228   57.9996   66.2600 C   0  0  0  0  0  0  0  0  0  0  0  0
 43 45  1  0  0  0
 43 42  1  0  0  0
 43 46  1  0  0  0
 64 65  1  0  0  0
 44 45  2  0  0  0
 65 63  1  0  0  0
  2  1  1  0  0  0
  2  4  1  0  0  0
  2  5  1  0  0  0
  3  4  2  0  0  0
 63 62  1  0  0  0
  6  8  1  0  0  0
  6 11  2  0  0  0
  7 10  1  0  0  0
  7 11  1  0  0  0
 62 61  1  0  0  0
 26 28  1  0  0  0
 26 32  1  0  0  0
 26 29  1  0  0  0
 12 18  1  0  0  0
 12 19  1  0  0  0
 61 60  1  0  0  0
 30 36  1  0  0  0
 30 37  1  0  0  0
 30 38  1  0  0  0
 20 21  2  0  0  0
 60 59  1  0  0  0
 22 21  1  0  0  0
 22 23  1  0  0  0
 59 58  1  0  0  0
 27 28  2  0  0  0
 58 57  1  0  0  0
 31 37  2  0  0  0
 57 56  1  0  0  0
 56 55  1  0  0  0
 55 54  1  0  0  0
 54 53  1  0  0  0
 53 52  1  0  0  0
 52 51  1  0  0  0
 51 50  1  0  0  0
 50 49  1  0  0  0
 49 47  1  0  0  0
 47 48  2  0  0  0
 48 45  1  0  0  0
 42 41  1  0  0  0
 41 40  1  0  0  0
 40 39  1  0  0  0
 39  1  1  0  0  0
  1 21  1  0  0  0
  8  4  1  0  0  0
  8  9  1  0  0  0
  8 10  1  0  0  0
 11 13  1  0  0  0
 13 14  2  0  0  0
 13 18  1  0  0  0
 14 15  1  0  0  0
 15 16  2  0  0  0
 16 17  1  0  0  0
 17 18  2  0  0  0
 23 24  1  0  0  0
 23 25  1  0  0  0
 25 28  1  0  0  0
 32 33  1  0  0  0
 32 37  1  0  0  0
 33 34  1  0  0  0
 34 35  1  0  0  0
 35 36  1  0  0  0
M  END
> <minimizedAffinity>
-8.44547

> <CNNscore>
0.2787622809

> <CNNaffinity>
7.3444733620

> <CNN_VS>
2.0473620892

> <CNNaffinity_variance>
1.0471411943

$$$$
/media/chris/experiments/cd1a-new-docking/inputs/ligands/7ryo_ligand.pdb


 65 67  0  0  0  0  0  0  0  0999 V2000
  -39.0512   59.5066   64.5982 C   0  0  0  0  0  0  0  0  0  0  0  0
  -38.1917   58.9309   63.5772 N   0  0  0  0  0  0  0  0  0  0  0  0
  -38.5728   60.5930   62.1122 O   0  0  0  0  0  0  0  0  0  0  0  0
  -38.0258   59.5388   62.4000 C   0  0  0  0  0  0  0  0  0  0  0  0
  -37.7261   58.0821   63.7558 H   0  0  0  0  0  0  0  0  0  0  0  0
  -35.7212   59.2678   61.5711 N   0  0  0  0  0  0  0  0  0  0  0  0
  -35.6558   57.0145   61.5386 O   0  0  0  0  0  0  0  0  0  0  0  0
  -37.1184   58.8512   61.3666 C   0  0  0  0  0  0  0  0  0  0  0  0
  -37.5612   59.2665   59.9669 C   0  0  0  0  0  0  0  0  0  0  0  0
  -37.0725   57.3234   61.5175 C   0  0  0  0  0  0  0  0  0  0  0  0
  -35.0234   58.2115   61.6526 C   0  0  0  0  0  0  0  0  0  0  0  0
  -33.5156   60.3789   62.7978 O   0  0  0  0  0  0  0  0  0  0  0  0
  -33.5741   58.1468   61.8549 C   0  0  0  0  0  0  0  0  0  0  0  0
  -32.8870   56.9542   61.6247 C   0  0  0  0  0  0  0  0  0  0  0  0
  -31.5747   56.8084   62.0402 C   0  0  0  0  0  0  0  0  0  0  0  0
  -30.9289   57.8396   62.6868 C   0  0  0  0  0  0  0  0  0  0  0  0
  -31.5887   59.0302   62.9311 C   0  0  0  0  0  0  0  0  0  0  0  0
  -32.9086   59.1951   62.5230 C   0  0  0  0  0  0  0  0  0  0  0  0
  -34.4040   60.5218   62.5364 H   0  0  0  0  0  0  0  0  0  0  0  0
  -38.5284   61.2822   66.1521 O   0  0  0  0  0  0  0  0  0  0  0  0
  -38.2361   60.2263   65.6623 C   0  0  0  0  0  0  0  0  0  0  0  0
  -37.1298   59.5247   65.9639 O   0  0  0  0  0  0  0  0  0  0  0  0
  -35.9002   59.8195   65.2217 C   0  0  0  0  0  0  0  0  0  0  0  0
  -35.0811   58.5554   65.1526 C   0  0  0  0  0  0  0  0  0  0  0  0
  -35.2043   60.9157   66.0051 C   0  0  0  0  0  0  0  0  0  0  0  0
  -33.8354   62.4938   64.7896 N   0  0  0  0  0  0  0  0  0  0  0  0
  -36.0342   62.9223   64.9973 O   0  0  0  0  0  0  0  0  0  0  0  0
  -35.0653   62.2025   65.2225 C   0  0  0  0  0  0  0  0  0  0  0  0
  -33.0960   61.8789   65.0005 H   0  0  0  0  0  0  0  0  0  0  0  0
  -32.4721   65.8289   64.4542 N   0  0  0  0  0  0  0  0  0  0  0  0
  -33.3607   64.7027   66.1785 O   0  0  0  0  0  0  0  0  0  0  0  0
  -33.5578   63.6917   64.0166 C   0  0  0  0  0  0  0  0  0  0  0  0
  -34.8183   64.1395   63.2681 C   0  0  0  0  0  0  0  0  0  0  0  0
  -34.5353   65.0841   62.1050 C   0  0  0  0  0  0  0  0  0  0  0  0
  -33.8859   66.4017   62.4789 C   0  0  0  0  0  0  0  0  0  0  0  0
  -32.4950   66.2641   63.0619 C   0  0  0  0  0  0  0  0  0  0  0  0
  -33.1214   64.7865   64.9774 C   0  0  0  0  0  0  0  0  0  0  0  0
  -31.9200   66.3597   65.0728 H   0  0  0  0  0  0  0  0  0  0  0  0
  -39.9545   58.4448   65.2272 C   0  0  0  0  0  0  0  0  0  0  0  0
  -41.2507   58.2500   64.4479 C   0  0  0  0  0  0  0  0  0  0  0  0
  -41.9979   59.5468   64.1981 C   0  0  0  0  0  0  0  0  0  0  0  0
  -42.1497   60.4343   65.4140 C   0  0  0  0  0  0  0  0  0  0  0  0
  -41.5068   59.8418   66.5762 N   0  0  0  0  0  0  0  0  0  0  0  0
  -41.6454   58.9756   68.6557 O   0  0  0  0  0  0  0  0  0  0  0  0
  -42.1979   59.4696   67.6591 C   0  0  0  0  0  0  0  0  0  0  0  0
  -40.5312   59.7106   66.5654 H   0  0  0  0  0  0  0  0  0  0  0  0
  -44.4687   58.7240   66.9800 C   0  0  0  0  0  0  0  0  0  0  0  0
  -43.6643   59.6229   67.5311 C   0  0  0  0  0  0  0  0  0  0  0  0
  -44.0977   57.3942   66.4015 C   0  0  0  0  0  0  0  0  0  0  0  0
  -44.8536   57.1107   65.1091 C   0  0  0  0  0  0  0  0  0  0  0  0
  -45.7342   58.2596   64.6488 C   0  0  0  0  0  0  0  0  0  0  0  0
  -47.2133   57.9137   64.6085 C   0  0  0  0  0  0  0  0  0  0  0  0
  -47.9212   58.0354   65.9448 C   0  0  0  0  0  0  0  0  0  0  0  0
  -48.3902   59.4473   66.2549 C   0  0  0  0  0  0  0  0  0  0  0  0
  -49.8403   59.6974   65.8901 C   0  0  0  0  0  0  0  0  0  0  0  0
  -50.0068   60.3734   64.5440 C   0  0  0  0  0  0  0  0  0  0  0  0
  -50.9687   59.6706   63.6055 C   0  0  0  0  0  0  0  0  0  0  0  0
  -50.5607   58.2404   63.3119 C   0  0  0  0  0  0  0  0  0  0  0  0
  -50.0455   58.0428   61.8957 C   0  0  0  0  0  0  0  0  0  0  0  0
  -49.3868   59.2733   61.2968 C   0  0  0  0  0  0  0  0  0  0  0  0
  -49.2648   59.2408   59.7812 C   0  0  0  0  0  0  0  0  0  0  0  0
  -48.5953   57.9840   59.2425 C   0  0  0  0  0  0  0  0  0  0  0  0
  -47.2353   58.2446   58.6152 C   0  0  0  0  0  0  0  0  0  0  0  0
  -48.0337   56.6047   56.8690 C   0  0  0  0  0  0  0  0  0  0  0  0
  -46.8480   57.2629   57.5243 C   0  0  0  0  0  0  0  0  0  0  0  0
 43 45  1  0  0  0
 43 42  1  0  0  0
 43 46  1  0  0  0
 64 65  1  0  0  0
 44 45  2  0  0  0
 65 63  1  0  0  0
  2  1  1  0  0  0
  2  4  1  0  0  0
  2  5  1  0  0  0
  3  4  2  0  0  0
 63 62  1  0  0  0
  6  8  1  0  0  0
  6 11  2  0  0  0
  7 10  1  0  0  0
  7 11  1  0  0  0
 62 61  1  0  0  0
 26 28  1  0  0  0
 26 32  1  0  0  0
 26 29  1  0  0  0
 12 18  1  0  0  0
 12 19  1  0  0  0
 61 60  1  0  0  0
 30 36  1  0  0  0
 30 37  1  0  0  0
 30 38  1  0  0  0
 20 21  2  0  0  0
 60 59  1  0  0  0
 22 21  1  0  0  0
 22 23  1  0  0  0
 59 58  1  0  0  0
 27 28  2  0  0  0
 58 57  1  0  0  0
 31 37  2  0  0  0
 57 56  1  0  0  0
 56 55  1  0  0  0
 55 54  1  0  0  0
 54 53  1  0  0  0
 53 52  1  0  0  0
 52 51  1  0  0  0
 51 50  1  0  0  0
 50 49  1  0  0  0
 49 47  1  0  0  0
 47 48  2  0  0  0
 48 45  1  0  0  0
 42 41  1  0  0  0
 41 40  1  0  0  0
 40 39  1  0  0  0
 39  1  1  0  0  0
  1 21  1  0  0  0
  8  4  1  0  0  0
  8  9  1  0  0  0
  8 10  1  0  0  0
 11 13  1  0  0  0
 13 14  2  0  0  0
 13 18  1  0  0  0
 14 15  1  0  0  0
 15 16  2  0  0  0
 16 17  1  0  0  0
 17 18  2  0  0  0
 23 24  1  0  0  0
 23 25  1  0  0  0
 25 28  1  0  0  0
 32 33  1  0  0  0
 32 37  1  0  0  0
 33 34  1  0  0  0
 34 35  1  0  0  0
 35 36  1  0  0  0
M  END
> <minimizedAffinity>
-8.00786

> <CNNscore>
0.2599297166

> <CNNaffinity>
7.5040359497

> <CNN_VS>
1.9505219460

> <CNNaffinity_variance>
0.5840890408

$$$$
/media/chris/experiments/cd1a-new-docking/inputs/ligands/7ryo_ligand.pdb


 65 67  0  0  0  0  0  0  0  0999 V2000
  -35.9365   59.4251   64.2020 C   0  0  0  0  0  0  0  0  0  0  0  0
  -37.2633   60.0180   64.2241 N   0  0  0  0  0  0  0  0  0  0  0  0
  -38.3000   58.0439   64.5107 O   0  0  0  0  0  0  0  0  0  0  0  0
  -38.3500   59.2579   64.3799 C   0  0  0  0  0  0  0  0  0  0  0  0
  -37.3620   60.9923   64.1231 H   0  0  0  0  0  0  0  0  0  0  0  0
  -40.7908   58.9670   64.2081 N   0  0  0  0  0  0  0  0  0  0  0  0
  -41.3851   60.1757   66.0160 O   0  0  0  0  0  0  0  0  0  0  0  0
  -39.7171   59.9615   64.3685 C   0  0  0  0  0  0  0  0  0  0  0  0
  -39.7616   60.9349   63.1945 C   0  0  0  0  0  0  0  0  0  0  0  0
  -40.0551   60.6568   65.6956 C   0  0  0  0  0  0  0  0  0  0  0  0
  -41.6286   59.1667   65.1395 C   0  0  0  0  0  0  0  0  0  0  0  0
  -42.5481   58.4565   67.7726 O   0  0  0  0  0  0  0  0  0  0  0  0
  -42.8615   58.4100   65.3695 C   0  0  0  0  0  0  0  0  0  0  0  0
  -43.7189   58.1271   64.3055 C   0  0  0  0  0  0  0  0  0  0  0  0
  -44.9906   57.6335   64.5404 C   0  0  0  0  0  0  0  0  0  0  0  0
  -45.4270   57.4146   65.8289 C   0  0  0  0  0  0  0  0  0  0  0  0
  -44.5986   57.6911   66.9013 C   0  0  0  0  0  0  0  0  0  0  0  0
  -43.3177   58.1897   66.6854 C   0  0  0  0  0  0  0  0  0  0  0  0
  -41.6807   58.7931   67.6614 H   0  0  0  0  0  0  0  0  0  0  0  0
  -34.0679   59.6773   65.7138 O   0  0  0  0  0  0  0  0  0  0  0  0
  -34.9821   60.1767   65.1179 C   0  0  0  0  0  0  0  0  0  0  0  0
  -35.3177   61.4767   65.1842 O   0  0  0  0  0  0  0  0  0  0  0  0
  -35.4121   62.0999   66.5080 C   0  0  0  0  0  0  0  0  0  0  0  0
  -36.8032   61.8623   67.0388 C   0  0  0  0  0  0  0  0  0  0  0  0
  -35.1227   63.5720   66.2870 C   0  0  0  0  0  0  0  0  0  0  0  0
  -34.0558   63.8567   64.1369 N   0  0  0  0  0  0  0  0  0  0  0  0
  -32.7797   63.9611   65.9868 O   0  0  0  0  0  0  0  0  0  0  0  0
  -33.8787   63.8107   65.4604 C   0  0  0  0  0  0  0  0  0  0  0  0
  -34.9608   63.7292   63.7708 H   0  0  0  0  0  0  0  0  0  0  0  0
  -32.4755   65.6864   61.4446 N   0  0  0  0  0  0  0  0  0  0  0  0
  -34.6165   65.2488   61.9503 O   0  0  0  0  0  0  0  0  0  0  0  0
  -32.9515   64.0897   63.2227 C   0  0  0  0  0  0  0  0  0  0  0  0
  -32.5211   62.7714   62.5698 C   0  0  0  0  0  0  0  0  0  0  0  0
  -31.1226   62.8176   61.9637 C   0  0  0  0  0  0  0  0  0  0  0  0
  -30.9307   63.8207   60.8436 C   0  0  0  0  0  0  0  0  0  0  0  0
  -31.0897   65.2649   61.2706 C   0  0  0  0  0  0  0  0  0  0  0  0
  -33.4201   65.0594   62.1492 C   0  0  0  0  0  0  0  0  0  0  0  0
  -32.7420   66.5208   60.9952 H   0  0  0  0  0  0  0  0  0  0  0  0
  -35.3839   59.3533   62.7777 C   0  0  0  0  0  0  0  0  0  0  0  0
  -35.0434   57.9272   62.3586 C   0  0  0  0  0  0  0  0  0  0  0  0
  -36.2347   57.1664   61.8067 C   0  0  0  0  0  0  0  0  0  0  0  0
  -37.3529   58.0381   61.2783 C   0  0  0  0  0  0  0  0  0  0  0  0
  -38.6510   57.4350   61.5358 N   0  0  0  0  0  0  0  0  0  0  0  0
  -40.8890   57.4170   61.2442 O   0  0  0  0  0  0  0  0  0  0  0  0
  -39.7799   57.9258   61.0128 C   0  0  0  0  0  0  0  0  0  0  0  0
  -38.7002   56.6397   62.1138 H   0  0  0  0  0  0  0  0  0  0  0  0
  -40.3298   59.2994   59.0168 C   0  0  0  0  0  0  0  0  0  0  0  0
  -39.5807   59.0614   60.0849 C   0  0  0  0  0  0  0  0  0  0  0  0
  -41.5118   58.5184   58.5335 C   0  0  0  0  0  0  0  0  0  0  0  0
  -41.7811   58.7608   57.0534 C   0  0  0  0  0  0  0  0  0  0  0  0
  -43.2324   59.0794   56.7380 C   0  0  0  0  0  0  0  0  0  0  0  0
  -44.2243   58.2423   57.5284 C   0  0  0  0  0  0  0  0  0  0  0  0
  -45.6706   58.4223   57.1073 C   0  0  0  0  0  0  0  0  0  0  0  0
  -46.5594   57.2461   57.4766 C   0  0  0  0  0  0  0  0  0  0  0  0
  -47.9256   57.6571   57.9894 C   0  0  0  0  0  0  0  0  0  0  0  0
  -48.0230   57.6398   59.5017 C   0  0  0  0  0  0  0  0  0  0  0  0
  -49.3348   58.1673   60.0503 C   0  0  0  0  0  0  0  0  0  0  0  0
  -49.7935   57.4228   61.2886 C   0  0  0  0  0  0  0  0  0  0  0  0
  -51.1393   57.8991   61.8102 C   0  0  0  0  0  0  0  0  0  0  0  0
  -51.0725   58.5927   63.1597 C   0  0  0  0  0  0  0  0  0  0  0  0
  -50.7372   60.0742   63.0843 C   0  0  0  0  0  0  0  0  0  0  0  0
  -50.4914   60.7215   64.4403 C   0  0  0  0  0  0  0  0  0  0  0  0
  -50.1026   59.7279   65.5232 C   0  0  0  0  0  0  0  0  0  0  0  0
  -47.8308   60.0531   64.4698 C   0  0  0  0  0  0  0  0  0  0  0  0
  -48.6206   59.4043   65.5761 C   0  0  0  0  0  0  0  0  0  0  0  0
 43 45  1  0  0  0
 43 42  1  0  0  0
 43 46  1  0  0  0
 64 65  1  0  0  0
 44 45  2  0  0  0
 65 63  1  0  0  0
  2  1  1  0  0  0
  2  4  1  0  0  0
  2  5  1  0  0  0
  3  4  2  0  0  0
 63 62  1  0  0  0
  6  8  1  0  0  0
  6 11  2  0  0  0
  7 10  1  0  0  0
  7 11  1  0  0  0
 62 61  1  0  0  0
 26 28  1  0  0  0
 26 32  1  0  0  0
 26 29  1  0  0  0
 12 18  1  0  0  0
 12 19  1  0  0  0
 61 60  1  0  0  0
 30 36  1  0  0  0
 30 37  1  0  0  0
 30 38  1  0  0  0
 20 21  2  0  0  0
 60 59  1  0  0  0
 22 21  1  0  0  0
 22 23  1  0  0  0
 59 58  1  0  0  0
 27 28  2  0  0  0
 58 57  1  0  0  0
 31 37  2  0  0  0
 57 56  1  0  0  0
 56 55  1  0  0  0
 55 54  1  0  0  0
 54 53  1  0  0  0
 53 52  1  0  0  0
 52 51  1  0  0  0
 51 50  1  0  0  0
 50 49  1  0  0  0
 49 47  1  0  0  0
 47 48  2  0  0  0
 48 45  1  0  0  0
 42 41  1  0  0  0
 41 40  1  0  0  0
 40 39  1  0  0  0
 39  1  1  0  0  0
  1 21  1  0  0  0
  8  4  1  0  0  0
  8  9  1  0  0  0
  8 10  1  0  0  0
 11 13  1  0  0  0
 13 14  2  0  0  0
 13 18  1  0  0  0
 14 15  1  0  0  0
 15 16  2  0  0  0
 16 17  1  0  0  0
 17 18  2  0  0  0
 23 24  1  0  0  0
 23 25  1  0  0  0
 25 28  1  0  0  0
 32 33  1  0  0  0
 32 37  1  0  0  0
 33 34  1  0  0  0
 34 35  1  0  0  0
 35 36  1  0  0  0
M  END
> <minimizedAffinity>
-8.01496

> <CNNscore>
0.2065616995

> <CNNaffinity>
7.3966016769

> <CNN_VS>
1.5278545618

> <CNNaffinity_variance>
0.9087693095

$$$$
/media/chris/experiments/cd1a-new-docking/inputs/ligands/7ryo_ligand.pdb


 65 67  0  0  0  0  0  0  0  0999 V2000
  -39.4755   59.4544   65.6163 C   0  0  0  0  0  0  0  0  0  0  0  0
  -38.1756   59.8201   65.0788 N   0  0  0  0  0  0  0  0  0  0  0  0
  -37.6148   61.0473   66.8770 O   0  0  0  0  0  0  0  0  0  0  0  0
  -37.3434   60.6008   65.7723 C   0  0  0  0  0  0  0  0  0  0  0  0
  -37.9053   59.4881   64.1924 H   0  0  0  0  0  0  0  0  0  0  0  0
  -35.1332   59.7685   65.0695 N   0  0  0  0  0  0  0  0  0  0  0  0
  -35.1450   60.5693   62.9621 O   0  0  0  0  0  0  0  0  0  0  0  0
  -35.9972   60.9594   65.1217 C   0  0  0  0  0  0  0  0  0  0  0  0
  -35.3133   62.0334   65.9622 C   0  0  0  0  0  0  0  0  0  0  0  0
  -36.1256   61.3853   63.6517 C   0  0  0  0  0  0  0  0  0  0  0  0
  -34.7326   59.6484   63.8718 C   0  0  0  0  0  0  0  0  0  0  0  0
  -35.5864   57.7097   61.9237 O   0  0  0  0  0  0  0  0  0  0  0  0
  -33.8474   58.6008   63.3577 C   0  0  0  0  0  0  0  0  0  0  0  0
  -32.4940   58.5977   63.6981 C   0  0  0  0  0  0  0  0  0  0  0  0
  -31.6049   57.7700   63.0344 C   0  0  0  0  0  0  0  0  0  0  0  0
  -32.0447   56.9374   62.0284 C   0  0  0  0  0  0  0  0  0  0  0  0
  -33.3800   56.9246   61.6688 C   0  0  0  0  0  0  0  0  0  0  0  0
  -34.2886   57.7509   62.3227 C   0  0  0  0  0  0  0  0  0  0  0  0
  -36.2233   58.2537   62.3437 H   0  0  0  0  0  0  0  0  0  0  0  0
  -39.4126   57.4719   64.2356 O   0  0  0  0  0  0  0  0  0  0  0  0
  -40.0521   58.2481   64.8902 C   0  0  0  0  0  0  0  0  0  0  0  0
  -41.3833   58.1837   65.0662 O   0  0  0  0  0  0  0  0  0  0  0  0
  -42.0313   56.8722   64.9669 C   0  0  0  0  0  0  0  0  0  0  0  0
  -42.7214   56.7916   63.6286 C   0  0  0  0  0  0  0  0  0  0  0  0
  -43.0089   56.8120   66.1246 C   0  0  0  0  0  0  0  0  0  0  0  0
  -45.4130   57.0291   66.2486 N   0  0  0  0  0  0  0  0  0  0  0  0
  -44.2295   58.7262   65.3650 O   0  0  0  0  0  0  0  0  0  0  0  0
  -44.2694   57.6096   65.8741 C   0  0  0  0  0  0  0  0  0  0  0  0
  -45.3839   56.1314   66.6519 H   0  0  0  0  0  0  0  0  0  0  0  0
  -47.8907   59.4883   67.2011 N   0  0  0  0  0  0  0  0  0  0  0  0
  -46.3535   58.3342   68.3571 O   0  0  0  0  0  0  0  0  0  0  0  0
  -46.6979   57.6845   66.0780 C   0  0  0  0  0  0  0  0  0  0  0  0
  -47.8067   56.6375   65.9237 C   0  0  0  0  0  0  0  0  0  0  0  0
  -49.0846   57.1882   65.2999 C   0  0  0  0  0  0  0  0  0  0  0  0
  -49.7725   58.2866   66.0861 C   0  0  0  0  0  0  0  0  0  0  0  0
  -48.9616   59.5593   66.2130 C   0  0  0  0  0  0  0  0  0  0  0  0
  -46.9666   58.5313   67.3120 C   0  0  0  0  0  0  0  0  0  0  0  0
  -47.8446   60.2231   67.8546 H   0  0  0  0  0  0  0  0  0  0  0  0
  -40.4472   60.6347   65.5716 C   0  0  0  0  0  0  0  0  0  0  0  0
  -41.4492   60.5184   64.4281 C   0  0  0  0  0  0  0  0  0  0  0  0
  -41.0445   61.3075   63.1968 C   0  0  0  0  0  0  0  0  0  0  0  0
  -40.9883   60.5007   61.9180 C   0  0  0  0  0  0  0  0  0  0  0  0
  -39.6265   60.0843   61.6230 N   0  0  0  0  0  0  0  0  0  0  0  0
  -38.1768   58.5083   60.9100 O   0  0  0  0  0  0  0  0  0  0  0  0
  -39.3417   58.8665   61.1492 C   0  0  0  0  0  0  0  0  0  0  0  0
  -38.8903   60.7196   61.7771 H   0  0  0  0  0  0  0  0  0  0  0  0
  -41.2447   58.0937   59.7512 C   0  0  0  0  0  0  0  0  0  0  0  0
  -40.5277   58.0282   60.8649 C   0  0  0  0  0  0  0  0  0  0  0  0
  -41.0187   58.9796   58.5660 C   0  0  0  0  0  0  0  0  0  0  0  0
  -41.4762   58.3181   57.2718 C   0  0  0  0  0  0  0  0  0  0  0  0
  -42.5488   59.0973   56.5304 C   0  0  0  0  0  0  0  0  0  0  0  0
  -43.8934   59.1052   57.2383 C   0  0  0  0  0  0  0  0  0  0  0  0
  -44.7884   57.9292   56.8950 C   0  0  0  0  0  0  0  0  0  0  0  0
  -46.2328   58.1217   57.3264 C   0  0  0  0  0  0  0  0  0  0  0  0
  -47.2285   57.3789   56.4573 C   0  0  0  0  0  0  0  0  0  0  0  0
  -47.4518   55.9467   56.8999 C   0  0  0  0  0  0  0  0  0  0  0  0
  -47.0395   55.6627   58.3315 C   0  0  0  0  0  0  0  0  0  0  0  0
  -48.2052   55.7200   59.2989 C   0  0  0  0  0  0  0  0  0  0  0  0
  -48.2654   57.0173   60.0886 C   0  0  0  0  0  0  0  0  0  0  0  0
  -49.1697   58.0743   59.4790 C   0  0  0  0  0  0  0  0  0  0  0  0
  -50.5822   58.0878   60.0426 C   0  0  0  0  0  0  0  0  0  0  0  0
  -50.7118   57.4107   61.4002 C   0  0  0  0  0  0  0  0  0  0  0  0
  -51.1014   58.3652   62.5174 C   0  0  0  0  0  0  0  0  0  0  0  0
  -49.1084   59.9005   62.7334 C   0  0  0  0  0  0  0  0  0  0  0  0
  -50.5612   59.7745   62.3567 C   0  0  0  0  0  0  0  0  0  0  0  0
 43 45  1  0  0  0
 43 42  1  0  0  0
 43 46  1  0  0  0
 64 65  1  0  0  0
 44 45  2  0  0  0
 65 63  1  0  0  0
  2  1  1  0  0  0
  2  4  1  0  0  0
  2  5  1  0  0  0
  3  4  2  0  0  0
 63 62  1  0  0  0
  6  8  1  0  0  0
  6 11  2  0  0  0
  7 10  1  0  0  0
  7 11  1  0  0  0
 62 61  1  0  0  0
 26 28  1  0  0  0
 26 32  1  0  0  0
 26 29  1  0  0  0
 12 18  1  0  0  0
 12 19  1  0  0  0
 61 60  1  0  0  0
 30 36  1  0  0  0
 30 37  1  0  0  0
 30 38  1  0  0  0
 20 21  2  0  0  0
 60 59  1  0  0  0
 22 21  1  0  0  0
 22 23  1  0  0  0
 59 58  1  0  0  0
 27 28  2  0  0  0
 58 57  1  0  0  0
 31 37  2  0  0  0
 57 56  1  0  0  0
 56 55  1  0  0  0
 55 54  1  0  0  0
 54 53  1  0  0  0
 53 52  1  0  0  0
 52 51  1  0  0  0
 51 50  1  0  0  0
 50 49  1  0  0  0
 49 47  1  0  0  0
 47 48  2  0  0  0
 48 45  1  0  0  0
 42 41  1  0  0  0
 41 40  1  0  0  0
 40 39  1  0  0  0
 39  1  1  0  0  0
  1 21  1  0  0  0
  8  4  1  0  0  0
  8  9  1  0  0  0
  8 10  1  0  0  0
 11 13  1  0  0  0
 13 14  2  0  0  0
 13 18  1  0  0  0
 14 15  1  0  0  0
 15 16  2  0  0  0
 16 17  1  0  0  0
 17 18  2  0  0  0
 23 24  1  0  0  0
 23 25  1  0  0  0
 25 28  1  0  0  0
 32 33  1  0  0  0
 32 37  1  0  0  0
 33 34  1  0  0  0
 34 35  1  0  0  0
 35 36  1  0  0  0
M  END
> <minimizedAffinity>
-8.73922

> <CNNscore>
0.1824674010

> <CNNaffinity>
7.6835618019

> <CNN_VS>
1.4019995928

> <CNNaffinity_variance>
2.1948187351

$$$$
/media/chris/experiments/cd1a-new-docking/inputs/ligands/7ryo_ligand.pdb


 65 67  0  0  0  0  0  0  0  0999 V2000
  -39.4359   59.5475   65.8869 C   0  0  0  0  0  0  0  0  0  0  0  0
  -37.9924   59.7167   65.8748 N   0  0  0  0  0  0  0  0  0  0  0  0
  -38.0110   60.9911   64.0229 O   0  0  0  0  0  0  0  0  0  0  0  0
  -37.3961   60.4391   64.9232 C   0  0  0  0  0  0  0  0  0  0  0  0
  -37.4475   59.2934   66.5770 H   0  0  0  0  0  0  0  0  0  0  0  0
  -35.3752   61.2565   63.7745 N   0  0  0  0  0  0  0  0  0  0  0  0
  -34.4342   62.3388   65.5140 O   0  0  0  0  0  0  0  0  0  0  0  0
  -35.8632   60.5488   64.9698 C   0  0  0  0  0  0  0  0  0  0  0  0
  -35.2682   59.1441   64.9935 C   0  0  0  0  0  0  0  0  0  0  0  0
  -35.3491   61.4028   66.1382 C   0  0  0  0  0  0  0  0  0  0  0  0
  -34.6227   62.1954   64.1762 C   0  0  0  0  0  0  0  0  0  0  0  0
  -35.4594   64.9358   63.9049 O   0  0  0  0  0  0  0  0  0  0  0  0
  -33.9154   63.1584   63.3289 C   0  0  0  0  0  0  0  0  0  0  0  0
  -32.7071   62.8062   62.7259 C   0  0  0  0  0  0  0  0  0  0  0  0
  -31.9125   63.7702   62.1299 C   0  0  0  0  0  0  0  0  0  0  0  0
  -32.3043   65.0912   62.1238 C   0  0  0  0  0  0  0  0  0  0  0  0
  -33.4950   65.4672   62.7183 C   0  0  0  0  0  0  0  0  0  0  0  0
  -34.3062   64.5131   63.3244 C   0  0  0  0  0  0  0  0  0  0  0  0
  -36.0279   64.3183   64.3215 H   0  0  0  0  0  0  0  0  0  0  0  0
  -39.1075   57.6591   64.4149 O   0  0  0  0  0  0  0  0  0  0  0  0
  -39.8609   58.3801   65.0087 C   0  0  0  0  0  0  0  0  0  0  0  0
  -41.2011   58.2804   64.9727 O   0  0  0  0  0  0  0  0  0  0  0  0
  -41.7925   56.9431   64.8653 C   0  0  0  0  0  0  0  0  0  0  0  0
  -42.4363   56.8240   63.5071 C   0  0  0  0  0  0  0  0  0  0  0  0
  -42.8028   56.8528   65.9925 C   0  0  0  0  0  0  0  0  0  0  0  0
  -45.1891   57.1062   66.2819 N   0  0  0  0  0  0  0  0  0  0  0  0
  -44.1119   58.5645   64.9497 O   0  0  0  0  0  0  0  0  0  0  0  0
  -44.0913   57.5848   65.6896 C   0  0  0  0  0  0  0  0  0  0  0  0
  -45.1122   56.3170   66.8654 H   0  0  0  0  0  0  0  0  0  0  0  0
  -47.7518   59.5012   67.1707 N   0  0  0  0  0  0  0  0  0  0  0  0
  -46.1882   58.4177   68.3591 O   0  0  0  0  0  0  0  0  0  0  0  0
  -46.4928   57.7169   66.0896 C   0  0  0  0  0  0  0  0  0  0  0  0
  -47.5664   56.6323   65.9456 C   0  0  0  0  0  0  0  0  0  0  0  0
  -48.8560   57.1306   65.3022 C   0  0  0  0  0  0  0  0  0  0  0  0
  -49.5851   58.2202   66.0631 C   0  0  0  0  0  0  0  0  0  0  0  0
  -48.8163   59.5203   66.1732 C   0  0  0  0  0  0  0  0  0  0  0  0
  -46.7987   58.5765   67.3060 C   0  0  0  0  0  0  0  0  0  0  0  0
  -47.7346   60.2487   67.8112 H   0  0  0  0  0  0  0  0  0  0  0  0
  -40.1496   60.8338   65.4686 C   0  0  0  0  0  0  0  0  0  0  0  0
  -41.3930   60.5609   64.6291 C   0  0  0  0  0  0  0  0  0  0  0  0
  -41.4414   61.3772   63.3508 C   0  0  0  0  0  0  0  0  0  0  0  0
  -41.1913   60.5867   62.0851 C   0  0  0  0  0  0  0  0  0  0  0  0
  -39.7863   60.6292   61.7122 N   0  0  0  0  0  0  0  0  0  0  0  0
  -37.9086   59.5676   61.0480 O   0  0  0  0  0  0  0  0  0  0  0  0
  -39.1118   59.5314   61.3536 C   0  0  0  0  0  0  0  0  0  0  0  0
  -39.3164   61.4942   61.7242 H   0  0  0  0  0  0  0  0  0  0  0  0
  -40.7091   57.9809   60.2500 C   0  0  0  0  0  0  0  0  0  0  0  0
  -39.9363   58.3047   61.2779 C   0  0  0  0  0  0  0  0  0  0  0  0
  -40.9034   58.7395   58.9743 C   0  0  0  0  0  0  0  0  0  0  0  0
  -42.1017   58.2227   58.1876 C   0  0  0  0  0  0  0  0  0  0  0  0
  -42.5293   59.1353   57.0512 C   0  0  0  0  0  0  0  0  0  0  0  0
  -43.9378   58.8633   56.5499 C   0  0  0  0  0  0  0  0  0  0  0  0
  -44.7726   57.9930   57.4705 C   0  0  0  0  0  0  0  0  0  0  0  0
  -46.2502   58.3481   57.4637 C   0  0  0  0  0  0  0  0  0  0  0  0
  -47.0968   57.4008   56.6365 C   0  0  0  0  0  0  0  0  0  0  0  0
  -47.0749   55.9768   57.1548 C   0  0  0  0  0  0  0  0  0  0  0  0
  -47.1711   55.8586   58.6637 C   0  0  0  0  0  0  0  0  0  0  0  0
  -48.5890   55.6181   59.1431 C   0  0  0  0  0  0  0  0  0  0  0  0
  -49.0621   56.6481   60.1558 C   0  0  0  0  0  0  0  0  0  0  0  0
  -49.5785   57.9357   59.5377 C   0  0  0  0  0  0  0  0  0  0  0  0
  -48.7918   59.1764   59.9310 C   0  0  0  0  0  0  0  0  0  0  0  0
  -49.6093   60.2094   60.6947 C   0  0  0  0  0  0  0  0  0  0  0  0
  -49.5431   60.0377   62.2037 C   0  0  0  0  0  0  0  0  0  0  0  0
  -51.1778   58.1927   62.7513 C   0  0  0  0  0  0  0  0  0  0  0  0
  -50.8633   59.6622   62.8518 C   0  0  0  0  0  0  0  0  0  0  0  0
 43 45  1  0  0  0
 43 42  1  0  0  0
 43 46  1  0  0  0
 64 65  1  0  0  0
 44 45  2  0  0  0
 65 63  1  0  0  0
  2  1  1  0  0  0
  2  4  1  0  0  0
  2  5  1  0  0  0
  3  4  2  0  0  0
 63 62  1  0  0  0
  6  8  1  0  0  0
  6 11  2  0  0  0
  7 10  1  0  0  0
  7 11  1  0  0  0
 62 61  1  0  0  0
 26 28  1  0  0  0
 26 32  1  0  0  0
 26 29  1  0  0  0
 12 18  1  0  0  0
 12 19  1  0  0  0
 61 60  1  0  0  0
 30 36  1  0  0  0
 30 37  1  0  0  0
 30 38  1  0  0  0
 20 21  2  0  0  0
 60 59  1  0  0  0
 22 21  1  0  0  0
 22 23  1  0  0  0
 59 58  1  0  0  0
 27 28  2  0  0  0
 58 57  1  0  0  0
 31 37  2  0  0  0
 57 56  1  0  0  0
 56 55  1  0  0  0
 55 54  1  0  0  0
 54 53  1  0  0  0
 53 52  1  0  0  0
 52 51  1  0  0  0
 51 50  1  0  0  0
 50 49  1  0  0  0
 49 47  1  0  0  0
 47 48  2  0  0  0
 48 45  1  0  0  0
 42 41  1  0  0  0
 41 40  1  0  0  0
 40 39  1  0  0  0
 39  1  1  0  0  0
  1 21  1  0  0  0
  8  4  1  0  0  0
  8  9  1  0  0  0
  8 10  1  0  0  0
 11 13  1  0  0  0
 13 14  2  0  0  0
 13 18  1  0  0  0
 14 15  1  0  0  0
 15 16  2  0  0  0
 16 17  1  0  0  0
 17 18  2  0  0  0
 23 24  1  0  0  0
 23 25  1  0  0  0
 25 28  1  0  0  0
 32 33  1  0  0  0
 32 37  1  0  0  0
 33 34  1  0  0  0
 34 35  1  0  0  0
 35 36  1  0  0  0
M  END
> <minimizedAffinity>
-8.30717

> <CNNscore>
0.1770846695

> <CNNaffinity>
7.6430435181

> <CNN_VS>
1.3534657955

> <CNNaffinity_variance>
1.6786180735

$$$$
/media/chris/experiments/cd1a-new-docking/inputs/ligands/7ryo_ligand.pdb


 65 67  0  0  0  0  0  0  0  0999 V2000
  -38.5888   59.6560   64.8579 C   0  0  0  0  0  0  0  0  0  0  0  0
  -37.3559   60.1523   65.4463 N   0  0  0  0  0  0  0  0  0  0  0  0
  -36.7106   61.2033   63.5668 O   0  0  0  0  0  0  0  0  0  0  0  0
  -36.5087   60.8977   64.7326 C   0  0  0  0  0  0  0  0  0  0  0  0
  -37.1429   59.9360   66.3828 H   0  0  0  0  0  0  0  0  0  0  0  0
  -34.5057   62.3228   64.5620 N   0  0  0  0  0  0  0  0  0  0  0  0
  -34.6731   63.3506   66.5615 O   0  0  0  0  0  0  0  0  0  0  0  0
  -35.2160   61.3628   65.4231 C   0  0  0  0  0  0  0  0  0  0  0  0
  -34.3201   60.1510   65.6612 C   0  0  0  0  0  0  0  0  0  0  0  0
  -35.4665   62.1471   66.7196 C   0  0  0  0  0  0  0  0  0  0  0  0
  -34.2647   63.3503   65.2658 C   0  0  0  0  0  0  0  0  0  0  0  0
  -32.1489   64.5791   66.7811 O   0  0  0  0  0  0  0  0  0  0  0  0
  -33.5713   64.5606   64.8187 C   0  0  0  0  0  0  0  0  0  0  0  0
  -33.8240   65.0849   63.5503 C   0  0  0  0  0  0  0  0  0  0  0  0
  -33.0094   66.0722   63.0234 C   0  0  0  0  0  0  0  0  0  0  0  0
  -31.9375   66.5509   63.7449 C   0  0  0  0  0  0  0  0  0  0  0  0
  -31.6626   66.0451   65.0023 C   0  0  0  0  0  0  0  0  0  0  0  0
  -32.4686   65.0509   65.5480 C   0  0  0  0  0  0  0  0  0  0  0  0
  -32.6716   63.9096   67.1767 H   0  0  0  0  0  0  0  0  0  0  0  0
  -40.0947   61.2799   65.8253 O   0  0  0  0  0  0  0  0  0  0  0  0
  -39.8032   60.1303   65.6421 C   0  0  0  0  0  0  0  0  0  0  0  0
  -40.4948   59.0815   66.1205 O   0  0  0  0  0  0  0  0  0  0  0  0
  -41.9367   59.2425   66.3322 C   0  0  0  0  0  0  0  0  0  0  0  0
  -42.1707   59.4711   67.8041 C   0  0  0  0  0  0  0  0  0  0  0  0
  -42.5670   57.9536   65.8412 C   0  0  0  0  0  0  0  0  0  0  0  0
  -44.9153   58.1132   66.3909 N   0  0  0  0  0  0  0  0  0  0  0  0
  -44.3081   58.2813   64.2311 O   0  0  0  0  0  0  0  0  0  0  0  0
  -44.0067   58.1276   65.4115 C   0  0  0  0  0  0  0  0  0  0  0  0
  -44.6151   57.9861   67.3198 H   0  0  0  0  0  0  0  0  0  0  0  0
  -48.1975   59.3674   67.2560 N   0  0  0  0  0  0  0  0  0  0  0  0
  -46.4407   58.6986   68.4799 O   0  0  0  0  0  0  0  0  0  0  0  0
  -46.3333   58.2800   66.1245 C   0  0  0  0  0  0  0  0  0  0  0  0
  -46.9577   56.9354   65.7347 C   0  0  0  0  0  0  0  0  0  0  0  0
  -48.2936   57.0687   65.0117 C   0  0  0  0  0  0  0  0  0  0  0  0
  -49.4015   57.7309   65.8065 C   0  0  0  0  0  0  0  0  0  0  0  0
  -49.1344   59.1807   66.1534 C   0  0  0  0  0  0  0  0  0  0  0  0
  -46.9963   58.8004   67.3900 C   0  0  0  0  0  0  0  0  0  0  0  0
  -48.4806   59.9752   67.9769 H   0  0  0  0  0  0  0  0  0  0  0  0
  -38.5747   58.1310   64.7425 C   0  0  0  0  0  0  0  0  0  0  0  0
  -37.3400   57.6158   64.0108 C   0  0  0  0  0  0  0  0  0  0  0  0
  -37.4891   57.6354   62.5009 C   0  0  0  0  0  0  0  0  0  0  0  0
  -38.7584   56.9960   61.9818 C   0  0  0  0  0  0  0  0  0  0  0  0
  -39.4339   56.2496   63.0313 N   0  0  0  0  0  0  0  0  0  0  0  0
  -41.3376   55.4601   63.9515 O   0  0  0  0  0  0  0  0  0  0  0  0
  -40.7613   56.0869   63.0473 C   0  0  0  0  0  0  0  0  0  0  0  0
  -38.8965   55.8511   63.7535 H   0  0  0  0  0  0  0  0  0  0  0  0
  -41.7265   57.9304   61.6895 C   0  0  0  0  0  0  0  0  0  0  0  0
  -41.4597   56.6435   61.8672 C   0  0  0  0  0  0  0  0  0  0  0  0
  -41.3807   59.0717   62.5941 C   0  0  0  0  0  0  0  0  0  0  0  0
  -40.8695   60.2760   61.8127 C   0  0  0  0  0  0  0  0  0  0  0  0
  -39.5820   60.0117   61.0514 C   0  0  0  0  0  0  0  0  0  0  0  0
  -39.7972   59.7187   59.5759 C   0  0  0  0  0  0  0  0  0  0  0  0
  -41.2347   59.8616   59.1126 C   0  0  0  0  0  0  0  0  0  0  0  0
  -41.6601   58.7917   58.1206 C   0  0  0  0  0  0  0  0  0  0  0  0
  -42.2737   59.3516   56.8523 C   0  0  0  0  0  0  0  0  0  0  0  0
  -43.5164   58.6038   56.4126 C   0  0  0  0  0  0  0  0  0  0  0  0
  -44.6082   58.5326   57.4628 C   0  0  0  0  0  0  0  0  0  0  0  0
  -45.8527   57.8232   56.9667 C   0  0  0  0  0  0  0  0  0  0  0  0
  -47.0625   58.0396   57.8609 C   0  0  0  0  0  0  0  0  0  0  0  0
  -46.9852   57.3196   59.1959 C   0  0  0  0  0  0  0  0  0  0  0  0
  -48.3293   56.8501   59.7307 C   0  0  0  0  0  0  0  0  0  0  0  0
  -49.4231   57.9073   59.6654 C   0  0  0  0  0  0  0  0  0  0  0  0
  -50.4192   57.8185   60.8103 C   0  0  0  0  0  0  0  0  0  0  0  0
  -51.1777   59.0815   62.8611 C   0  0  0  0  0  0  0  0  0  0  0  0
  -50.0072   58.5728   62.0614 C   0  0  0  0  0  0  0  0  0  0  0  0
 43 45  1  0  0  0
 43 42  1  0  0  0
 43 46  1  0  0  0
 64 65  1  0  0  0
 44 45  2  0  0  0
 65 63  1  0  0  0
  2  1  1  0  0  0
  2  4  1  0  0  0
  2  5  1  0  0  0
  3  4  2  0  0  0
 63 62  1  0  0  0
  6  8  1  0  0  0
  6 11  2  0  0  0
  7 10  1  0  0  0
  7 11  1  0  0  0
 62 61  1  0  0  0
 26 28  1  0  0  0
 26 32  1  0  0  0
 26 29  1  0  0  0
 12 18  1  0  0  0
 12 19  1  0  0  0
 61 60  1  0  0  0
 30 36  1  0  0  0
 30 37  1  0  0  0
 30 38  1  0  0  0
 20 21  2  0  0  0
 60 59  1  0  0  0
 22 21  1  0  0  0
 22 23  1  0  0  0
 59 58  1  0  0  0
 27 28  2  0  0  0
 58 57  1  0  0  0
 31 37  2  0  0  0
 57 56  1  0  0  0
 56 55  1  0  0  0
 55 54  1  0  0  0
 54 53  1  0  0  0
 53 52  1  0  0  0
 52 51  1  0  0  0
 51 50  1  0  0  0
 50 49  1  0  0  0
 49 47  1  0  0  0
 47 48  2  0  0  0
 48 45  1  0  0  0
 42 41  1  0  0  0
 41 40  1  0  0  0
 40 39  1  0  0  0
 39  1  1  0  0  0
  1 21  1  0  0  0
  8  4  1  0  0  0
  8  9  1  0  0  0
  8 10  1  0  0  0
 11 13  1  0  0  0
 13 14  2  0  0  0
 13 18  1  0  0  0
 14 15  1  0  0  0
 15 16  2  0  0  0
 16 17  1  0  0  0
 17 18  2  0  0  0
 23 24  1  0  0  0
 23 25  1  0  0  0
 25 28  1  0  0  0
 32 33  1  0  0  0
 32 37  1  0  0  0
 33 34  1  0  0  0
 34 35  1  0  0  0
 35 36  1  0  0  0
M  END
> <minimizedAffinity>
-7.91704

> <CNNscore>
0.1682477593

> <CNNaffinity>
7.6473031044

> <CNN_VS>
1.2866415977

> <CNNaffinity_variance>
1.4070111513

$$$$
/media/chris/experiments/cd1a-new-docking/inputs/ligands/7ryo_ligand.pdb


 65 67  0  0  0  0  0  0  0  0999 V2000
  -39.6715   60.2354   63.7922 C   0  0  0  0  0  0  0  0  0  0  0  0
  -38.8406   59.3330   63.0126 N   0  0  0  0  0  0  0  0  0  0  0  0
  -37.7326   61.0014   61.9914 O   0  0  0  0  0  0  0  0  0  0  0  0
  -37.9256   59.8070   62.1635 C   0  0  0  0  0  0  0  0  0  0  0  0
  -38.9539   58.3602   63.1119 H   0  0  0  0  0  0  0  0  0  0  0  0
  -35.6770   59.1414   61.4069 N   0  0  0  0  0  0  0  0  0  0  0  0
  -35.7556   56.9775   62.0348 O   0  0  0  0  0  0  0  0  0  0  0  0
  -37.1047   58.7850   61.3600 C   0  0  0  0  0  0  0  0  0  0  0  0
  -37.5748   58.8059   59.9086 C   0  0  0  0  0  0  0  0  0  0  0  0
  -37.1497   57.3681   61.9509 C   0  0  0  0  0  0  0  0  0  0  0  0
  -35.0448   58.1071   61.7811 C   0  0  0  0  0  0  0  0  0  0  0  0
  -33.4661   60.2143   62.9432 O   0  0  0  0  0  0  0  0  0  0  0  0
  -33.5957   58.0000   61.9660 C   0  0  0  0  0  0  0  0  0  0  0  0
  -32.9439   56.7930   61.7094 C   0  0  0  0  0  0  0  0  0  0  0  0
  -31.6316   56.6051   62.1077 C   0  0  0  0  0  0  0  0  0  0  0  0
  -30.9510   57.6080   62.7631 C   0  0  0  0  0  0  0  0  0  0  0  0
  -31.5754   58.8120   63.0335 C   0  0  0  0  0  0  0  0  0  0  0  0
  -32.8947   59.0190   62.6430 C   0  0  0  0  0  0  0  0  0  0  0  0
  -34.3531   60.3853   62.6942 H   0  0  0  0  0  0  0  0  0  0  0  0
  -39.7217   60.9572   66.0982 O   0  0  0  0  0  0  0  0  0  0  0  0
  -39.1709   60.3458   65.2247 C   0  0  0  0  0  0  0  0  0  0  0  0
  -38.0125   59.6798   65.3721 O   0  0  0  0  0  0  0  0  0  0  0  0
  -36.7607   60.4311   65.2372 C   0  0  0  0  0  0  0  0  0  0  0  0
  -35.6275   59.4403   65.1496 C   0  0  0  0  0  0  0  0  0  0  0  0
  -36.6720   61.3009   66.4762 C   0  0  0  0  0  0  0  0  0  0  0  0
  -35.0094   62.6652   65.3732 N   0  0  0  0  0  0  0  0  0  0  0  0
  -36.5070   63.6775   66.7125 O   0  0  0  0  0  0  0  0  0  0  0  0
  -36.0564   62.6552   66.2032 C   0  0  0  0  0  0  0  0  0  0  0  0
  -34.6914   61.8139   64.9944 H   0  0  0  0  0  0  0  0  0  0  0  0
  -33.8069   65.0490   62.9308 N   0  0  0  0  0  0  0  0  0  0  0  0
  -34.1214   62.8288   62.8796 O   0  0  0  0  0  0  0  0  0  0  0  0
  -34.3272   63.8959   65.0135 C   0  0  0  0  0  0  0  0  0  0  0  0
  -32.9899   63.9932   65.7563 C   0  0  0  0  0  0  0  0  0  0  0  0
  -32.4215   65.4073   65.8087 C   0  0  0  0  0  0  0  0  0  0  0  0
  -32.1006   66.0307   64.4649 C   0  0  0  0  0  0  0  0  0  0  0  0
  -33.3098   66.2565   63.5815 C   0  0  0  0  0  0  0  0  0  0  0  0
  -34.0755   63.8787   63.5140 C   0  0  0  0  0  0  0  0  0  0  0  0
  -33.9605   65.1030   61.9599 H   0  0  0  0  0  0  0  0  0  0  0  0
  -41.1395   59.8079   63.7581 C   0  0  0  0  0  0  0  0  0  0  0  0
  -41.4304   58.8204   62.6331 C   0  0  0  0  0  0  0  0  0  0  0  0
  -41.0730   57.3890   62.9877 C   0  0  0  0  0  0  0  0  0  0  0  0
  -42.2407   56.5372   63.4354 C   0  0  0  0  0  0  0  0  0  0  0  0
  -42.3507   56.5230   64.8855 N   0  0  0  0  0  0  0  0  0  0  0  0
  -43.4013   57.1813   66.7714 O   0  0  0  0  0  0  0  0  0  0  0  0
  -43.3166   57.1842   65.5323 C   0  0  0  0  0  0  0  0  0  0  0  0
  -41.6926   56.0100   65.4079 H   0  0  0  0  0  0  0  0  0  0  0  0
  -45.5001   58.2628   65.0399 C   0  0  0  0  0  0  0  0  0  0  0  0
  -44.3052   57.8414   64.6484 C   0  0  0  0  0  0  0  0  0  0  0  0
  -46.0931   58.1914   66.4124 C   0  0  0  0  0  0  0  0  0  0  0  0
  -47.2883   57.2475   66.4622 C   0  0  0  0  0  0  0  0  0  0  0  0
  -48.4216   57.6430   65.5314 C   0  0  0  0  0  0  0  0  0  0  0  0
  -49.7861   57.6422   66.2001 C   0  0  0  0  0  0  0  0  0  0  0  0
  -50.6022   58.8981   65.9586 C   0  0  0  0  0  0  0  0  0  0  0  0
  -49.8443   59.9763   65.2018 C   0  0  0  0  0  0  0  0  0  0  0  0
  -50.6125   60.5433   64.0242 C   0  0  0  0  0  0  0  0  0  0  0  0
  -51.1775   59.4731   63.1120 C   0  0  0  0  0  0  0  0  0  0  0  0
  -50.1301   58.6761   62.3585 C   0  0  0  0  0  0  0  0  0  0  0  0
  -49.9168   59.1790   60.9444 C   0  0  0  0  0  0  0  0  0  0  0  0
  -50.0393   58.0864   59.8949 C   0  0  0  0  0  0  0  0  0  0  0  0
  -48.9466   57.0338   59.9633 C   0  0  0  0  0  0  0  0  0  0  0  0
  -47.5360   57.6005   60.0090 C   0  0  0  0  0  0  0  0  0  0  0  0
  -46.6957   57.2647   58.7845 C   0  0  0  0  0  0  0  0  0  0  0  0
  -47.1964   57.9221   57.5085 C   0  0  0  0  0  0  0  0  0  0  0  0
  -47.3968   55.5189   56.7597 C   0  0  0  0  0  0  0  0  0  0  0  0
  -47.3941   56.9670   56.3455 C   0  0  0  0  0  0  0  0  0  0  0  0
 43 45  1  0  0  0
 43 42  1  0  0  0
 43 46  1  0  0  0
 64 65  1  0  0  0
 44 45  2  0  0  0
 65 63  1  0  0  0
  2  1  1  0  0  0
  2  4  1  0  0  0
  2  5  1  0  0  0
  3  4  2  0  0  0
 63 62  1  0  0  0
  6  8  1  0  0  0
  6 11  2  0  0  0
  7 10  1  0  0  0
  7 11  1  0  0  0
 62 61  1  0  0  0
 26 28  1  0  0  0
 26 32  1  0  0  0
 26 29  1  0  0  0
 12 18  1  0  0  0
 12 19  1  0  0  0
 61 60  1  0  0  0
 30 36  1  0  0  0
 30 37  1  0  0  0
 30 38  1  0  0  0
 20 21  2  0  0  0
 60 59  1  0  0  0
 22 21  1  0  0  0
 22 23  1  0  0  0
 59 58  1  0  0  0
 27 28  2  0  0  0
 58 57  1  0  0  0
 31 37  2  0  0  0
 57 56  1  0  0  0
 56 55  1  0  0  0
 55 54  1  0  0  0
 54 53  1  0  0  0
 53 52  1  0  0  0
 52 51  1  0  0  0
 51 50  1  0  0  0
 50 49  1  0  0  0
 49 47  1  0  0  0
 47 48  2  0  0  0
 48 45  1  0  0  0
 42 41  1  0  0  0
 41 40  1  0  0  0
 40 39  1  0  0  0
 39  1  1  0  0  0
  1 21  1  0  0  0
  8  4  1  0  0  0
  8  9  1  0  0  0
  8 10  1  0  0  0
 11 13  1  0  0  0
 13 14  2  0  0  0
 13 18  1  0  0  0
 14 15  1  0  0  0
 15 16  2  0  0  0
 16 17  1  0  0  0
 17 18  2  0  0  0
 23 24  1  0  0  0
 23 25  1  0  0  0
 25 28  1  0  0  0
 32 33  1  0  0  0
 32 37  1  0  0  0
 33 34  1  0  0  0
 34 35  1  0  0  0
 35 36  1  0  0  0
M  END
> <minimizedAffinity>
-10.63938

> <CNNscore>
0.1663475335

> <CNNaffinity>
7.3587737083

> <CNN_VS>
1.2241138220

> <CNNaffinity_variance>
1.3843837976

$$$$
/media/chris/experiments/cd1a-new-docking/inputs/ligands/7ryo_ligand.pdb


 65 67  0  0  0  0  0  0  0  0999 V2000
  -40.3370   60.2375   65.3887 C   0  0  0  0  0  0  0  0  0  0  0  0
  -39.0385   60.4125   64.7597 N   0  0  0  0  0  0  0  0  0  0  0  0
  -37.9986   60.8737   66.6987 O   0  0  0  0  0  0  0  0  0  0  0  0
  -37.9621   60.7217   65.4867 C   0  0  0  0  0  0  0  0  0  0  0  0
  -38.9516   60.3018   63.7854 H   0  0  0  0  0  0  0  0  0  0  0  0
  -36.2125   62.3217   64.8154 N   0  0  0  0  0  0  0  0  0  0  0  0
  -34.4194   61.1462   65.5124 O   0  0  0  0  0  0  0  0  0  0  0  0
  -36.6313   60.9122   64.7406 C   0  0  0  0  0  0  0  0  0  0  0  0
  -36.8266   60.5286   63.2769 C   0  0  0  0  0  0  0  0  0  0  0  0
  -35.4615   60.1469   65.3769 C   0  0  0  0  0  0  0  0  0  0  0  0
  -35.0175   62.3354   65.2411 C   0  0  0  0  0  0  0  0  0  0  0  0
  -33.9078   62.9873   67.8153 O   0  0  0  0  0  0  0  0  0  0  0  0
  -34.1954   63.5259   65.4697 C   0  0  0  0  0  0  0  0  0  0  0  0
  -33.7995   64.3213   64.3935 C   0  0  0  0  0  0  0  0  0  0  0  0
  -32.8324   65.2975   64.5601 C   0  0  0  0  0  0  0  0  0  0  0  0
  -32.2475   65.4972   65.7916 C   0  0  0  0  0  0  0  0  0  0  0  0
  -32.6188   64.7196   66.8733 C   0  0  0  0  0  0  0  0  0  0  0  0
  -33.5875   63.7319   66.7252 C   0  0  0  0  0  0  0  0  0  0  0  0
  -34.5562   62.3142   67.7489 H   0  0  0  0  0  0  0  0  0  0  0  0
  -40.2160   57.8283   65.2394 O   0  0  0  0  0  0  0  0  0  0  0  0
  -40.8718   58.8307   65.1658 C   0  0  0  0  0  0  0  0  0  0  0  0
  -42.1788   58.8669   64.8533 O   0  0  0  0  0  0  0  0  0  0  0  0
  -43.1401   58.3671   65.8411 C   0  0  0  0  0  0  0  0  0  0  0  0
  -42.3659   57.8482   67.0264 C   0  0  0  0  0  0  0  0  0  0  0  0
  -43.9172   57.2725   65.1357 C   0  0  0  0  0  0  0  0  0  0  0  0
  -45.9458   58.5833   65.0400 N   0  0  0  0  0  0  0  0  0  0  0  0
  -46.0858   56.4430   65.7190 O   0  0  0  0  0  0  0  0  0  0  0  0
  -45.4126   57.3928   65.3288 C   0  0  0  0  0  0  0  0  0  0  0  0
  -45.3565   59.3089   64.7309 H   0  0  0  0  0  0  0  0  0  0  0  0
  -48.8121   59.8220   66.8686 N   0  0  0  0  0  0  0  0  0  0  0  0
  -46.8585   58.9235   67.5067 O   0  0  0  0  0  0  0  0  0  0  0  0
  -47.3699   58.8377   65.1688 C   0  0  0  0  0  0  0  0  0  0  0  0
  -48.1656   57.5853   64.7841 C   0  0  0  0  0  0  0  0  0  0  0  0
  -49.6264   57.8681   64.4500 C   0  0  0  0  0  0  0  0  0  0  0  0
  -50.4519   58.4516   65.5795 C   0  0  0  0  0  0  0  0  0  0  0  0
  -50.0045   59.8271   66.0280 C   0  0  0  0  0  0  0  0  0  0  0  0
  -47.6589   59.1983   66.6175 C   0  0  0  0  0  0  0  0  0  0  0  0
  -48.8633   60.3319   67.7091 H   0  0  0  0  0  0  0  0  0  0  0  0
  -41.3372   61.2859   64.8994 C   0  0  0  0  0  0  0  0  0  0  0  0
  -41.9251   60.9356   63.5367 C   0  0  0  0  0  0  0  0  0  0  0  0
  -41.0462   61.3685   62.3780 C   0  0  0  0  0  0  0  0  0  0  0  0
  -40.8821   60.3334   61.2866 C   0  0  0  0  0  0  0  0  0  0  0  0
  -39.6402   59.5946   61.4504 N   0  0  0  0  0  0  0  0  0  0  0  0
  -38.5602   57.6573   61.8679 O   0  0  0  0  0  0  0  0  0  0  0  0
  -39.6216   58.2839   61.7157 C   0  0  0  0  0  0  0  0  0  0  0  0
  -38.7853   60.0751   61.3631 H   0  0  0  0  0  0  0  0  0  0  0  0
  -41.6453   57.3176   60.6459 C   0  0  0  0  0  0  0  0  0  0  0  0
  -40.9561   57.6442   61.7309 C   0  0  0  0  0  0  0  0  0  0  0  0
  -41.2419   57.4955   59.2155 C   0  0  0  0  0  0  0  0  0  0  0  0
  -41.7317   58.8239   58.6522 C   0  0  0  0  0  0  0  0  0  0  0  0
  -41.9273   58.8168   57.1459 C   0  0  0  0  0  0  0  0  0  0  0  0
  -43.3244   59.2278   56.7122 C   0  0  0  0  0  0  0  0  0  0  0  0
  -44.3408   58.1016   56.7261 C   0  0  0  0  0  0  0  0  0  0  0  0
  -45.3267   58.1902   57.8793 C   0  0  0  0  0  0  0  0  0  0  0  0
  -46.7004   58.6799   57.4653 C   0  0  0  0  0  0  0  0  0  0  0  0
  -47.5031   57.6356   56.7155 C   0  0  0  0  0  0  0  0  0  0  0  0
  -46.8685   56.2584   56.6896 C   0  0  0  0  0  0  0  0  0  0  0  0
  -47.6128   55.2544   57.5473 C   0  0  0  0  0  0  0  0  0  0  0  0
  -47.7187   55.6730   59.0046 C   0  0  0  0  0  0  0  0  0  0  0  0
  -49.1299   56.0104   59.4532 C   0  0  0  0  0  0  0  0  0  0  0  0
  -49.2213   56.5529   60.8711 C   0  0  0  0  0  0  0  0  0  0  0  0
  -48.6472   57.9536   61.0344 C   0  0  0  0  0  0  0  0  0  0  0  0
  -49.3033   58.9852   60.1310 C   0  0  0  0  0  0  0  0  0  0  0  0
  -50.0711   60.1774   62.2203 C   0  0  0  0  0  0  0  0  0  0  0  0
  -49.5870   60.3173   60.8010 C   0  0  0  0  0  0  0  0  0  0  0  0
 43 45  1  0  0  0
 43 42  1  0  0  0
 43 46  1  0  0  0
 64 65  1  0  0  0
 44 45  2  0  0  0
 65 63  1  0  0  0
  2  1  1  0  0  0
  2  4  1  0  0  0
  2  5  1  0  0  0
  3  4  2  0  0  0
 63 62  1  0  0  0
  6  8  1  0  0  0
  6 11  2  0  0  0
  7 10  1  0  0  0
  7 11  1  0  0  0
 62 61  1  0  0  0
 26 28  1  0  0  0
 26 32  1  0  0  0
 26 29  1  0  0  0
 12 18  1  0  0  0
 12 19  1  0  0  0
 61 60  1  0  0  0
 30 36  1  0  0  0
 30 37  1  0  0  0
 30 38  1  0  0  0
 20 21  2  0  0  0
 60 59  1  0  0  0
 22 21  1  0  0  0
 22 23  1  0  0  0
 59 58  1  0  0  0
 27 28  2  0  0  0
 58 57  1  0  0  0
 31 37  2  0  0  0
 57 56  1  0  0  0
 56 55  1  0  0  0
 55 54  1  0  0  0
 54 53  1  0  0  0
 53 52  1  0  0  0
 52 51  1  0  0  0
 51 50  1  0  0  0
 50 49  1  0  0  0
 49 47  1  0  0  0
 47 48  2  0  0  0
 48 45  1  0  0  0
 42 41  1  0  0  0
 41 40  1  0  0  0
 40 39  1  0  0  0
 39  1  1  0  0  0
  1 21  1  0  0  0
  8  4  1  0  0  0
  8  9  1  0  0  0
  8 10  1  0  0  0
 11 13  1  0  0  0
 13 14  2  0  0  0
 13 18  1  0  0  0
 14 15  1  0  0  0
 15 16  2  0  0  0
 16 17  1  0  0  0
 17 18  2  0  0  0
 23 24  1  0  0  0
 23 25  1  0  0  0
 25 28  1  0  0  0
 32 33  1  0  0  0
 32 37  1  0  0  0
 33 34  1  0  0  0
 34 35  1  0  0  0
 35 36  1  0  0  0
M  END
> <minimizedAffinity>
-8.03219

> <CNNscore>
0.1615848541

> <CNNaffinity>
7.4175705910

> <CNN_VS>
1.1985670328

> <CNNaffinity_variance>
1.5478112698

$$$$
/media/chris/experiments/cd1a-new-docking/inputs/ligands/7ryo_ligand.pdb


 65 67  0  0  0  0  0  0  0  0999 V2000
  -34.2671   58.9422   63.8005 C   0  0  0  0  0  0  0  0  0  0  0  0
  -35.1724   58.6379   62.7050 N   0  0  0  0  0  0  0  0  0  0  0  0
  -36.1898   60.6405   62.7964 O   0  0  0  0  0  0  0  0  0  0  0  0
  -36.0723   59.5337   62.2919 C   0  0  0  0  0  0  0  0  0  0  0  0
  -35.1215   57.7602   62.2619 H   0  0  0  0  0  0  0  0  0  0  0  0
  -37.8325   57.9753   61.5536 N   0  0  0  0  0  0  0  0  0  0  0  0
  -39.3032   59.4980   60.7783 O   0  0  0  0  0  0  0  0  0  0  0  0
  -37.0077   59.1235   61.1426 C   0  0  0  0  0  0  0  0  0  0  0  0
  -36.1625   58.7225   59.9374 C   0  0  0  0  0  0  0  0  0  0  0  0
  -38.0368   60.2044   60.7799 C   0  0  0  0  0  0  0  0  0  0  0  0
  -39.0416   58.2796   61.3194 C   0  0  0  0  0  0  0  0  0  0  0  0
  -41.2929   58.1647   59.5301 O   0  0  0  0  0  0  0  0  0  0  0  0
  -40.2100   57.4330   61.5714 C   0  0  0  0  0  0  0  0  0  0  0  0
  -40.2052   56.5311   62.6363 C   0  0  0  0  0  0  0  0  0  0  0  0
  -41.1888   55.5628   62.7408 C   0  0  0  0  0  0  0  0  0  0  0  0
  -42.1864   55.4765   61.7943 C   0  0  0  0  0  0  0  0  0  0  0  0
  -42.2115   56.3554   60.7268 C   0  0  0  0  0  0  0  0  0  0  0  0
  -41.2304   57.3342   60.6033 C   0  0  0  0  0  0  0  0  0  0  0  0
  -40.6473   58.8345   59.4177 H   0  0  0  0  0  0  0  0  0  0  0  0
  -32.3136   57.6568   63.1901 O   0  0  0  0  0  0  0  0  0  0  0  0
  -32.8172   58.7271   63.3927 C   0  0  0  0  0  0  0  0  0  0  0  0
  -32.1708   59.9030   63.3109 O   0  0  0  0  0  0  0  0  0  0  0  0
  -32.1433   60.5884   62.0151 C   0  0  0  0  0  0  0  0  0  0  0  0
  -30.9284   60.1121   61.2596 C   0  0  0  0  0  0  0  0  0  0  0  0
  -32.0780   62.0685   62.3384 C   0  0  0  0  0  0  0  0  0  0  0  0
  -33.2186   62.2497   64.4617 N   0  0  0  0  0  0  0  0  0  0  0  0
  -34.1788   63.1736   62.6490 O   0  0  0  0  0  0  0  0  0  0  0  0
  -33.2555   62.5453   63.1593 C   0  0  0  0  0  0  0  0  0  0  0  0
  -32.4523   61.7430   64.8155 H   0  0  0  0  0  0  0  0  0  0  0  0
  -34.4866   64.2700   67.1828 N   0  0  0  0  0  0  0  0  0  0  0  0
  -32.4504   63.4705   66.6872 O   0  0  0  0  0  0  0  0  0  0  0  0
  -34.2767   62.6545   65.3706 C   0  0  0  0  0  0  0  0  0  0  0  0
  -34.9431   61.4193   65.9867 C   0  0  0  0  0  0  0  0  0  0  0  0
  -36.3196   61.6995   66.5802 C   0  0  0  0  0  0  0  0  0  0  0  0
  -36.3460   62.6953   67.7227 C   0  0  0  0  0  0  0  0  0  0  0  0
  -35.9275   64.0975   67.3329 C   0  0  0  0  0  0  0  0  0  0  0  0
  -33.6585   63.5011   66.4721 C   0  0  0  0  0  0  0  0  0  0  0  0
  -34.0825   65.0334   67.6551 H   0  0  0  0  0  0  0  0  0  0  0  0
  -34.6104   58.1265   65.0478 C   0  0  0  0  0  0  0  0  0  0  0  0
  -35.9179   57.3567   64.8960 C   0  0  0  0  0  0  0  0  0  0  0  0
  -37.0134   57.8518   65.8219 C   0  0  0  0  0  0  0  0  0  0  0  0
  -38.1777   58.5204   65.1243 C   0  0  0  0  0  0  0  0  0  0  0  0
  -38.8155   59.4972   65.9928 N   0  0  0  0  0  0  0  0  0  0  0  0
  -40.2340   61.2301   66.2733 O   0  0  0  0  0  0  0  0  0  0  0  0
  -39.7000   60.3884   65.5324 C   0  0  0  0  0  0  0  0  0  0  0  0
  -38.5886   59.5024   66.9508 H   0  0  0  0  0  0  0  0  0  0  0  0
  -41.2387   59.8970   63.6444 C   0  0  0  0  0  0  0  0  0  0  0  0
  -40.0387   60.2300   64.1004 C   0  0  0  0  0  0  0  0  0  0  0  0
  -42.4804   59.6340   64.4378 C   0  0  0  0  0  0  0  0  0  0  0  0
  -42.6340   58.1551   64.7713 C   0  0  0  0  0  0  0  0  0  0  0  0
  -44.0284   57.6099   64.5146 C   0  0  0  0  0  0  0  0  0  0  0  0
  -45.0232   57.9428   65.6140 C   0  0  0  0  0  0  0  0  0  0  0  0
  -46.3510   58.4807   65.1146 C   0  0  0  0  0  0  0  0  0  0  0  0
  -47.5238   58.1289   66.0149 C   0  0  0  0  0  0  0  0  0  0  0  0
  -48.7983   57.8176   65.2553 C   0  0  0  0  0  0  0  0  0  0  0  0
  -48.8103   58.3926   63.8531 C   0  0  0  0  0  0  0  0  0  0  0  0
  -49.6712   59.6307   63.6918 C   0  0  0  0  0  0  0  0  0  0  0  0
  -50.6503   59.5172   62.5401 C   0  0  0  0  0  0  0  0  0  0  0  0
  -50.9176   58.0812   62.1199 C   0  0  0  0  0  0  0  0  0  0  0  0
  -50.4579   57.7503   60.7107 C   0  0  0  0  0  0  0  0  0  0  0  0
  -49.2813   58.5834   60.2261 C   0  0  0  0  0  0  0  0  0  0  0  0
  -48.0372   57.7666   59.9049 C   0  0  0  0  0  0  0  0  0  0  0  0
  -48.2592   56.7292   58.8162 C   0  0  0  0  0  0  0  0  0  0  0  0
  -46.5029   57.9081   57.4370 C   0  0  0  0  0  0  0  0  0  0  0  0
  -47.8132   57.1654   57.4324 C   0  0  0  0  0  0  0  0  0  0  0  0
 43 45  1  0  0  0
 43 42  1  0  0  0
 43 46  1  0  0  0
 64 65  1  0  0  0
 44 45  2  0  0  0
 65 63  1  0  0  0
  2  1  1  0  0  0
  2  4  1  0  0  0
  2  5  1  0  0  0
  3  4  2  0  0  0
 63 62  1  0  0  0
  6  8  1  0  0  0
  6 11  2  0  0  0
  7 10  1  0  0  0
  7 11  1  0  0  0
 62 61  1  0  0  0
 26 28  1  0  0  0
 26 32  1  0  0  0
 26 29  1  0  0  0
 12 18  1  0  0  0
 12 19  1  0  0  0
 61 60  1  0  0  0
 30 36  1  0  0  0
 30 37  1  0  0  0
 30 38  1  0  0  0
 20 21  2  0  0  0
 60 59  1  0  0  0
 22 21  1  0  0  0
 22 23  1  0  0  0
 59 58  1  0  0  0
 27 28  2  0  0  0
 58 57  1  0  0  0
 31 37  2  0  0  0
 57 56  1  0  0  0
 56 55  1  0  0  0
 55 54  1  0  0  0
 54 53  1  0  0  0
 53 52  1  0  0  0
 52 51  1  0  0  0
 51 50  1  0  0  0
 50 49  1  0  0  0
 49 47  1  0  0  0
 47 48  2  0  0  0
 48 45  1  0  0  0
 42 41  1  0  0  0
 41 40  1  0  0  0
 40 39  1  0  0  0
 39  1  1  0  0  0
  1 21  1  0  0  0
  8  4  1  0  0  0
  8  9  1  0  0  0
  8 10  1  0  0  0
 11 13  1  0  0  0
 13 14  2  0  0  0
 13 18  1  0  0  0
 14 15  1  0  0  0
 15 16  2  0  0  0
 16 17  1  0  0  0
 17 18  2  0  0  0
 23 24  1  0  0  0
 23 25  1  0  0  0
 25 28  1  0  0  0
 32 33  1  0  0  0
 32 37  1  0  0  0
 33 34  1  0  0  0
 34 35  1  0  0  0
 35 36  1  0  0  0
M  END
> <minimizedAffinity>
-8.66776

> <CNNscore>
0.1609310657

> <CNNaffinity>
7.6954712868

> <CNN_VS>
1.2384403944

> <CNNaffinity_variance>
1.3038467169

$$$$
