/media/chris/experiments/cd1a-new-docking/inputs/ligands/7ryo_ligand.pdb


 65 67  0  0  0  0  0  0  0  0999 V2000
  -34.1566   58.3207   62.9115 C   0  0  0  0  0  0  0  0  0  0  0  0
  -35.3374   58.3299   62.0642 N   0  0  0  0  0  0  0  0  0  0  0  0
  -35.8718   60.4511   62.5822 O   0  0  0  0  0  0  0  0  0  0  0  0
  -36.1060   59.4179   61.9733 C   0  0  0  0  0  0  0  0  0  0  0  0
  -35.5734   57.5238   61.5507 H   0  0  0  0  0  0  0  0  0  0  0  0
  -38.0844   58.0898   61.3452 N   0  0  0  0  0  0  0  0  0  0  0  0
  -39.6309   59.7222   61.5095 O   0  0  0  0  0  0  0  0  0  0  0  0
  -37.3498   59.3363   61.0730 C   0  0  0  0  0  0  0  0  0  0  0  0
  -36.9041   59.3421   59.6138 C   0  0  0  0  0  0  0  0  0  0  0  0
  -38.3799   60.4397   61.3562 C   0  0  0  0  0  0  0  0  0  0  0  0
  -39.2921   58.4079   61.5683 C   0  0  0  0  0  0  0  0  0  0  0  0
  -41.4359   57.8517   59.7303 O   0  0  0  0  0  0  0  0  0  0  0  0
  -40.3847   57.4844   61.8832 C   0  0  0  0  0  0  0  0  0  0  0  0
  -40.3435   56.7228   63.0517 C   0  0  0  0  0  0  0  0  0  0  0  0
  -41.2336   55.6799   63.2420 C   0  0  0  0  0  0  0  0  0  0  0  0
  -42.1730   55.3801   62.2796 C   0  0  0  0  0  0  0  0  0  0  0  0
  -42.2321   56.1168   61.1106 C   0  0  0  0  0  0  0  0  0  0  0  0
  -41.3445   57.1673   60.9001 C   0  0  0  0  0  0  0  0  0  0  0  0
  -40.8528   58.5647   59.5578 H   0  0  0  0  0  0  0  0  0  0  0  0
  -32.9025   57.5854   60.9808 O   0  0  0  0  0  0  0  0  0  0  0  0
  -32.9467   57.7801   62.1642 C   0  0  0  0  0  0  0  0  0  0  0  0
  -31.9382   57.5302   63.0174 O   0  0  0  0  0  0  0  0  0  0  0  0
  -30.5822   57.4179   62.4712 C   0  0  0  0  0  0  0  0  0  0  0  0
  -30.2814   55.9550   62.2633 C   0  0  0  0  0  0  0  0  0  0  0  0
  -29.6726   58.0525   63.5054 C   0  0  0  0  0  0  0  0  0  0  0  0
  -30.3768   60.1834   62.6082 N   0  0  0  0  0  0  0  0  0  0  0  0
  -28.3546   60.0495   63.5851 O   0  0  0  0  0  0  0  0  0  0  0  0
  -29.4039   59.5163   63.2354 C   0  0  0  0  0  0  0  0  0  0  0  0
  -31.1971   59.7034   62.3512 H   0  0  0  0  0  0  0  0  0  0  0  0
  -31.6801   63.5587   62.5570 N   0  0  0  0  0  0  0  0  0  0  0  0
  -32.6490   61.5397   62.4327 O   0  0  0  0  0  0  0  0  0  0  0  0
  -30.2590   61.5967   62.2945 C   0  0  0  0  0  0  0  0  0  0  0  0
  -29.7549   61.7773   60.8582 C   0  0  0  0  0  0  0  0  0  0  0  0
  -29.1746   63.1604   60.5836 C   0  0  0  0  0  0  0  0  0  0  0  0
  -30.1421   64.3164   60.7433 C   0  0  0  0  0  0  0  0  0  0  0  0
  -30.6488   64.5100   62.1572 C   0  0  0  0  0  0  0  0  0  0  0  0
  -31.6342   62.2303   62.4338 C   0  0  0  0  0  0  0  0  0  0  0  0
  -32.4955   63.9360   62.9597 H   0  0  0  0  0  0  0  0  0  0  0  0
  -34.4020   57.5304   64.1977 C   0  0  0  0  0  0  0  0  0  0  0  0
  -35.2112   58.3218   65.2196 C   0  0  0  0  0  0  0  0  0  0  0  0
  -36.7085   58.1147   65.0855 C   0  0  0  0  0  0  0  0  0  0  0  0
  -37.5556   59.2295   65.6589 C   0  0  0  0  0  0  0  0  0  0  0  0
  -38.8352   59.3181   64.9735 N   0  0  0  0  0  0  0  0  0  0  0  0
  -39.5751   61.0503   66.2169 O   0  0  0  0  0  0  0  0  0  0  0  0
  -39.7580   60.2280   65.3044 C   0  0  0  0  0  0  0  0  0  0  0  0
  -39.0284   58.6881   64.2422 H   0  0  0  0  0  0  0  0  0  0  0  0
  -41.9928   59.2507   64.8312 C   0  0  0  0  0  0  0  0  0  0  0  0
  -41.0265   60.1144   64.5505 C   0  0  0  0  0  0  0  0  0  0  0  0
  -42.0310   58.2464   65.9404 C   0  0  0  0  0  0  0  0  0  0  0  0
  -43.4421   58.0599   66.4844 C   0  0  0  0  0  0  0  0  0  0  0  0
  -44.4983   57.8933   65.4057 C   0  0  0  0  0  0  0  0  0  0  0  0
  -45.9217   57.9447   65.9352 C   0  0  0  0  0  0  0  0  0  0  0  0
  -46.9592   58.3465   64.9037 C   0  0  0  0  0  0  0  0  0  0  0  0
  -48.3803   57.9832   65.3012 C   0  0  0  0  0  0  0  0  0  0  0  0
  -49.0647   59.0449   66.1396 C   0  0  0  0  0  0  0  0  0  0  0  0
  -50.5613   59.1104   65.9103 C   0  0  0  0  0  0  0  0  0  0  0  0
  -51.0358   60.3825   65.2345 C   0  0  0  0  0  0  0  0  0  0  0  0
  -51.4003   60.1710   63.7783 C   0  0  0  0  0  0  0  0  0  0  0  0
  -50.1987   59.8703   62.8974 C   0  0  0  0  0  0  0  0  0  0  0  0
  -50.3710   58.6530   62.0058 C   0  0  0  0  0  0  0  0  0  0  0  0
  -49.5046   58.6672   60.7558 C   0  0  0  0  0  0  0  0  0  0  0  0
  -49.6706   57.4361   59.8755 C   0  0  0  0  0  0  0  0  0  0  0  0
  -48.8178   57.4729   58.6174 C   0  0  0  0  0  0  0  0  0  0  0  0
  -46.5709   58.3129   57.8290 C   0  0  0  0  0  0  0  0  0  0  0  0
  -47.3228   57.5303   58.8733 C   0  0  0  0  0  0  0  0  0  0  0  0
 43 45  1  0  0  0
 43 42  1  0  0  0
 43 46  1  0  0  0
 64 65  1  0  0  0
 44 45  2  0  0  0
 65 63  1  0  0  0
  2  1  1  0  0  0
  2  4  1  0  0  0
  2  5  1  0  0  0
  3  4  2  0  0  0
 63 62  1  0  0  0
  6  8  1  0  0  0
  6 11  2  0  0  0
  7 10  1  0  0  0
  7 11  1  0  0  0
 62 61  1  0  0  0
 26 28  1  0  0  0
 26 32  1  0  0  0
 26 29  1  0  0  0
 12 18  1  0  0  0
 12 19  1  0  0  0
 61 60  1  0  0  0
 30 36  1  0  0  0
 30 37  1  0  0  0
 30 38  1  0  0  0
 20 21  2  0  0  0
 60 59  1  0  0  0
 22 21  1  0  0  0
 22 23  1  0  0  0
 59 58  1  0  0  0
 27 28  2  0  0  0
 58 57  1  0  0  0
 31 37  2  0  0  0
 57 56  1  0  0  0
 56 55  1  0  0  0
 55 54  1  0  0  0
 54 53  1  0  0  0
 53 52  1  0  0  0
 52 51  1  0  0  0
 51 50  1  0  0  0
 50 49  1  0  0  0
 49 47  1  0  0  0
 47 48  2  0  0  0
 48 45  1  0  0  0
 42 41  1  0  0  0
 41 40  1  0  0  0
 40 39  1  0  0  0
 39  1  1  0  0  0
  1 21  1  0  0  0
  8  4  1  0  0  0
  8  9  1  0  0  0
  8 10  1  0  0  0
 11 13  1  0  0  0
 13 14  2  0  0  0
 13 18  1  0  0  0
 14 15  1  0  0  0
 15 16  2  0  0  0
 16 17  1  0  0  0
 17 18  2  0  0  0
 23 24  1  0  0  0
 23 25  1  0  0  0
 25 28  1  0  0  0
 32 33  1  0  0  0
 32 37  1  0  0  0
 33 34  1  0  0  0
 34 35  1  0  0  0
 35 36  1  0  0  0
M  END
> <minimizedAffinity>
-9.90488

> <CNNscore>
0.5257372260

> <CNNaffinity>
7.7764067650

> <CNN_VS>
4.0883464813

> <CNNaffinity_variance>
0.7823514342

$$$$
/media/chris/experiments/cd1a-new-docking/inputs/ligands/7ryo_ligand.pdb


 65 67  0  0  0  0  0  0  0  0999 V2000
  -34.3623   57.9650   62.7563 C   0  0  0  0  0  0  0  0  0  0  0  0
  -34.9243   59.2297   63.2001 N   0  0  0  0  0  0  0  0  0  0  0  0
  -34.6349   58.7609   65.3795 O   0  0  0  0  0  0  0  0  0  0  0  0
  -35.0122   59.5209   64.5001 C   0  0  0  0  0  0  0  0  0  0  0  0
  -35.2442   59.8799   62.5337 H   0  0  0  0  0  0  0  0  0  0  0  0
  -34.6193   61.7472   65.4804 N   0  0  0  0  0  0  0  0  0  0  0  0
  -35.5711   62.9854   63.8543 O   0  0  0  0  0  0  0  0  0  0  0  0
  -35.6410   60.8700   64.8855 C   0  0  0  0  0  0  0  0  0  0  0  0
  -36.7443   60.6256   65.9106 C   0  0  0  0  0  0  0  0  0  0  0  0
  -36.1545   61.6693   63.6787 C   0  0  0  0  0  0  0  0  0  0  0  0
  -34.6629   62.8505   64.8557 C   0  0  0  0  0  0  0  0  0  0  0  0
  -33.3629   63.3089   67.3822 O   0  0  0  0  0  0  0  0  0  0  0  0
  -33.8220   64.0222   65.1117 C   0  0  0  0  0  0  0  0  0  0  0  0
  -33.5043   64.8973   64.0721 C   0  0  0  0  0  0  0  0  0  0  0  0
  -32.5242   65.8603   64.2395 C   0  0  0  0  0  0  0  0  0  0  0  0
  -31.8490   65.9680   65.4358 C   0  0  0  0  0  0  0  0  0  0  0  0
  -32.1417   65.1101   66.4804 C   0  0  0  0  0  0  0  0  0  0  0  0
  -33.1220   64.1343   66.3306 C   0  0  0  0  0  0  0  0  0  0  0  0
  -34.0168   62.6413   67.3136 H   0  0  0  0  0  0  0  0  0  0  0  0
  -32.6973   58.6555   61.1464 O   0  0  0  0  0  0  0  0  0  0  0  0
  -32.9570   58.1505   62.2036 C   0  0  0  0  0  0  0  0  0  0  0  0
  -32.0453   57.6505   63.0556 O   0  0  0  0  0  0  0  0  0  0  0  0
  -30.7150   57.3249   62.5320 C   0  0  0  0  0  0  0  0  0  0  0  0
  -30.6363   55.8299   62.3519 C   0  0  0  0  0  0  0  0  0  0  0  0
  -29.7330   57.8334   63.5698 C   0  0  0  0  0  0  0  0  0  0  0  0
  -30.0024   59.9205   62.3811 N   0  0  0  0  0  0  0  0  0  0  0  0
  -28.5791   59.8568   64.1223 O   0  0  0  0  0  0  0  0  0  0  0  0
  -29.3814   59.2926   63.3837 C   0  0  0  0  0  0  0  0  0  0  0  0
  -30.6364   59.4168   61.8209 H   0  0  0  0  0  0  0  0  0  0  0  0
  -30.7226   63.4351   62.8528 N   0  0  0  0  0  0  0  0  0  0  0  0
  -31.9827   61.5834   62.9700 O   0  0  0  0  0  0  0  0  0  0  0  0
  -29.7691   61.3250   62.0938 C   0  0  0  0  0  0  0  0  0  0  0  0
  -29.7040   61.5490   60.5787 C   0  0  0  0  0  0  0  0  0  0  0  0
  -29.0286   62.8577   60.1831 C   0  0  0  0  0  0  0  0  0  0  0  0
  -29.7113   64.1182   60.6757 C   0  0  0  0  0  0  0  0  0  0  0  0
  -29.7279   64.2658   62.1828 C   0  0  0  0  0  0  0  0  0  0  0  0
  -30.9218   62.1269   62.6771 C   0  0  0  0  0  0  0  0  0  0  0  0
  -31.3085   63.8867   63.5025 H   0  0  0  0  0  0  0  0  0  0  0  0
  -35.2680   57.2848   61.7286 C   0  0  0  0  0  0  0  0  0  0  0  0
  -36.7479   57.4765   62.0423 C   0  0  0  0  0  0  0  0  0  0  0  0
  -37.4436   58.4247   61.0835 C   0  0  0  0  0  0  0  0  0  0  0  0
  -38.9420   58.2387   60.9849 C   0  0  0  0  0  0  0  0  0  0  0  0
  -39.4216   57.3166   62.0020 N   0  0  0  0  0  0  0  0  0  0  0  0
  -41.4979   57.1658   61.1302 O   0  0  0  0  0  0  0  0  0  0  0  0
  -40.6728   56.8440   62.0008 C   0  0  0  0  0  0  0  0  0  0  0  0
  -38.8053   57.0308   62.7145 H   0  0  0  0  0  0  0  0  0  0  0  0
  -41.7634   56.3505   64.1781 C   0  0  0  0  0  0  0  0  0  0  0  0
  -41.0016   55.9811   63.1573 C   0  0  0  0  0  0  0  0  0  0  0  0
  -42.4535   57.6634   64.3789 C   0  0  0  0  0  0  0  0  0  0  0  0
  -43.9379   57.5773   64.0455 C   0  0  0  0  0  0  0  0  0  0  0  0
  -44.8351   57.4638   65.2657 C   0  0  0  0  0  0  0  0  0  0  0  0
  -45.9430   58.5032   65.3048 C   0  0  0  0  0  0  0  0  0  0  0  0
  -47.2927   57.9976   64.8310 C   0  0  0  0  0  0  0  0  0  0  0  0
  -48.3605   58.0187   65.9121 C   0  0  0  0  0  0  0  0  0  0  0  0
  -49.0473   59.3624   66.0586 C   0  0  0  0  0  0  0  0  0  0  0  0
  -50.4935   59.3435   65.6059 C   0  0  0  0  0  0  0  0  0  0  0  0
  -50.8235   60.3532   64.5234 C   0  0  0  0  0  0  0  0  0  0  0  0
  -51.3665   59.7058   63.2647 C   0  0  0  0  0  0  0  0  0  0  0  0
  -50.8422   58.2966   63.0417 C   0  0  0  0  0  0  0  0  0  0  0  0
  -50.8079   57.8698   61.5845 C   0  0  0  0  0  0  0  0  0  0  0  0
  -49.8423   58.6686   60.7228 C   0  0  0  0  0  0  0  0  0  0  0  0
  -48.5017   57.9824   60.4991 C   0  0  0  0  0  0  0  0  0  0  0  0
  -48.2841   57.5339   59.0629 C   0  0  0  0  0  0  0  0  0  0  0  0
  -46.6952   57.4767   57.1012 C   0  0  0  0  0  0  0  0  0  0  0  0
  -47.0841   58.1669   58.3822 C   0  0  0  0  0  0  0  0  0  0  0  0
 43 45  1  0  0  0
 43 42  1  0  0  0
 43 46  1  0  0  0
 64 65  1  0  0  0
 44 45  2  0  0  0
 65 63  1  0  0  0
  2  1  1  0  0  0
  2  4  1  0  0  0
  2  5  1  0  0  0
  3  4  2  0  0  0
 63 62  1  0  0  0
  6  8  1  0  0  0
  6 11  2  0  0  0
  7 10  1  0  0  0
  7 11  1  0  0  0
 62 61  1  0  0  0
 26 28  1  0  0  0
 26 32  1  0  0  0
 26 29  1  0  0  0
 12 18  1  0  0  0
 12 19  1  0  0  0
 61 60  1  0  0  0
 30 36  1  0  0  0
 30 37  1  0  0  0
 30 38  1  0  0  0
 20 21  2  0  0  0
 60 59  1  0  0  0
 22 21  1  0  0  0
 22 23  1  0  0  0
 59 58  1  0  0  0
 27 28  2  0  0  0
 58 57  1  0  0  0
 31 37  2  0  0  0
 57 56  1  0  0  0
 56 55  1  0  0  0
 55 54  1  0  0  0
 54 53  1  0  0  0
 53 52  1  0  0  0
 52 51  1  0  0  0
 51 50  1  0  0  0
 50 49  1  0  0  0
 49 47  1  0  0  0
 47 48  2  0  0  0
 48 45  1  0  0  0
 42 41  1  0  0  0
 41 40  1  0  0  0
 40 39  1  0  0  0
 39  1  1  0  0  0
  1 21  1  0  0  0
  8  4  1  0  0  0
  8  9  1  0  0  0
  8 10  1  0  0  0
 11 13  1  0  0  0
 13 14  2  0  0  0
 13 18  1  0  0  0
 14 15  1  0  0  0
 15 16  2  0  0  0
 16 17  1  0  0  0
 17 18  2  0  0  0
 23 24  1  0  0  0
 23 25  1  0  0  0
 25 28  1  0  0  0
 32 33  1  0  0  0
 32 37  1  0  0  0
 33 34  1  0  0  0
 34 35  1  0  0  0
 35 36  1  0  0  0
M  END
> <minimizedAffinity>
-10.34644

> <CNNscore>
0.4655200243

> <CNNaffinity>
7.2330803871

> <CNN_VS>
3.3671438694

> <CNNaffinity_variance>
0.5579593778

$$$$
/media/chris/experiments/cd1a-new-docking/inputs/ligands/7ryo_ligand.pdb


 65 67  0  0  0  0  0  0  0  0999 V2000
  -35.5604   59.4690   63.4122 C   0  0  0  0  0  0  0  0  0  0  0  0
  -34.1322   59.6247   63.1921 N   0  0  0  0  0  0  0  0  0  0  0  0
  -33.9762   57.7702   61.9311 O   0  0  0  0  0  0  0  0  0  0  0  0
  -33.4531   58.7423   62.4553 C   0  0  0  0  0  0  0  0  0  0  0  0
  -33.6596   60.3905   63.5913 H   0  0  0  0  0  0  0  0  0  0  0  0
  -31.1995   58.0531   63.1751 N   0  0  0  0  0  0  0  0  0  0  0  0
  -30.2900   57.7515   61.1343 O   0  0  0  0  0  0  0  0  0  0  0  0
  -31.9410   58.9675   62.2912 C   0  0  0  0  0  0  0  0  0  0  0  0
  -31.6117   60.4067   62.6758 C   0  0  0  0  0  0  0  0  0  0  0  0
  -31.4229   58.6225   60.8871 C   0  0  0  0  0  0  0  0  0  0  0  0
  -30.3442   57.4502   62.4579 C   0  0  0  0  0  0  0  0  0  0  0  0
  -30.0067   56.7844   65.2376 O   0  0  0  0  0  0  0  0  0  0  0  0
  -29.3834   56.4456   62.9199 C   0  0  0  0  0  0  0  0  0  0  0  0
  -28.6887   55.6637   61.9962 C   0  0  0  0  0  0  0  0  0  0  0  0
  -27.9693   54.5569   62.4131 C   0  0  0  0  0  0  0  0  0  0  0  0
  -27.9295   54.2127   63.7467 C   0  0  0  0  0  0  0  0  0  0  0  0
  -28.6129   54.9684   64.6818 C   0  0  0  0  0  0  0  0  0  0  0  0
  -29.3432   56.0830   64.2819 C   0  0  0  0  0  0  0  0  0  0  0  0
  -30.5076   57.5401   65.0011 H   0  0  0  0  0  0  0  0  0  0  0  0
  -36.8202   61.2730   62.4127 O   0  0  0  0  0  0  0  0  0  0  0  0
  -36.2729   60.8128   63.3764 C   0  0  0  0  0  0  0  0  0  0  0  0
  -36.1865   61.4244   64.5704 O   0  0  0  0  0  0  0  0  0  0  0  0
  -34.9907   62.2247   64.8525 C   0  0  0  0  0  0  0  0  0  0  0  0
  -34.5784   61.9628   66.2791 C   0  0  0  0  0  0  0  0  0  0  0  0
  -35.4027   63.6665   64.6264 C   0  0  0  0  0  0  0  0  0  0  0  0
  -33.1453   63.9458   63.8090 N   0  0  0  0  0  0  0  0  0  0  0  0
  -34.6814   65.4955   63.2604 O   0  0  0  0  0  0  0  0  0  0  0  0
  -34.3800   64.4555   63.8395 C   0  0  0  0  0  0  0  0  0  0  0  0
  -32.9617   63.1081   64.2927 H   0  0  0  0  0  0  0  0  0  0  0  0
  -31.5999   65.0884   60.7432 N   0  0  0  0  0  0  0  0  0  0  0  0
  -32.9605   63.3721   61.2264 O   0  0  0  0  0  0  0  0  0  0  0  0
  -32.0662   64.5921   63.0828 C   0  0  0  0  0  0  0  0  0  0  0  0
  -30.7135   64.0450   63.5523 C   0  0  0  0  0  0  0  0  0  0  0  0
  -29.5347   64.9466   63.2019 C   0  0  0  0  0  0  0  0  0  0  0  0
  -29.3051   65.1726   61.7207 C   0  0  0  0  0  0  0  0  0  0  0  0
  -30.4288   65.9117   61.0247 C   0  0  0  0  0  0  0  0  0  0  0  0
  -32.2473   64.2978   61.6021 C   0  0  0  0  0  0  0  0  0  0  0  0
  -31.9493   65.1191   59.8232 H   0  0  0  0  0  0  0  0  0  0  0  0
  -35.8435   58.7355   64.7241 C   0  0  0  0  0  0  0  0  0  0  0  0
  -37.0716   57.8363   64.6328 C   0  0  0  0  0  0  0  0  0  0  0  0
  -37.5280   57.5917   63.2064 C   0  0  0  0  0  0  0  0  0  0  0  0
  -38.9907   57.8825   62.9510 C   0  0  0  0  0  0  0  0  0  0  0  0
  -39.7210   58.0226   64.2008 N   0  0  0  0  0  0  0  0  0  0  0  0
  -40.5480   60.0589   63.6877 O   0  0  0  0  0  0  0  0  0  0  0  0
  -40.4514   59.1077   64.4802 C   0  0  0  0  0  0  0  0  0  0  0  0
  -39.6764   57.2952   64.8626 H   0  0  0  0  0  0  0  0  0  0  0  0
  -42.0955   58.3612   66.1870 C   0  0  0  0  0  0  0  0  0  0  0  0
  -41.0576   59.1056   65.8303 C   0  0  0  0  0  0  0  0  0  0  0  0
  -42.8501   57.3780   65.3477 C   0  0  0  0  0  0  0  0  0  0  0  0
  -44.1057   57.9967   64.7457 C   0  0  0  0  0  0  0  0  0  0  0  0
  -45.3980   57.4547   65.3314 C   0  0  0  0  0  0  0  0  0  0  0  0
  -46.5589   58.4320   65.2517 C   0  0  0  0  0  0  0  0  0  0  0  0
  -47.4933   58.3929   66.4463 C   0  0  0  0  0  0  0  0  0  0  0  0
  -48.9417   58.1240   66.0732 C   0  0  0  0  0  0  0  0  0  0  0  0
  -49.8377   59.3395   66.2089 C   0  0  0  0  0  0  0  0  0  0  0  0
  -49.6654   60.3343   65.0787 C   0  0  0  0  0  0  0  0  0  0  0  0
  -50.9647   60.9073   64.5460 C   0  0  0  0  0  0  0  0  0  0  0  0
  -51.5903   60.0400   63.4715 C   0  0  0  0  0  0  0  0  0  0  0  0
  -50.5651   59.3289   62.6034 C   0  0  0  0  0  0  0  0  0  0  0  0
  -50.9588   57.9164   62.2076 C   0  0  0  0  0  0  0  0  0  0  0  0
  -50.7085   57.5855   60.7444 C   0  0  0  0  0  0  0  0  0  0  0  0
  -49.2746   57.1729   60.4412 C   0  0  0  0  0  0  0  0  0  0  0  0
  -48.5533   58.1330   59.5090 C   0  0  0  0  0  0  0  0  0  0  0  0
  -46.7097   58.4456   57.8120 C   0  0  0  0  0  0  0  0  0  0  0  0
  -47.2679   57.5857   58.9155 C   0  0  0  0  0  0  0  0  0  0  0  0
 43 45  1  0  0  0
 43 42  1  0  0  0
 43 46  1  0  0  0
 64 65  1  0  0  0
 44 45  2  0  0  0
 65 63  1  0  0  0
  2  1  1  0  0  0
  2  4  1  0  0  0
  2  5  1  0  0  0
  3  4  2  0  0  0
 63 62  1  0  0  0
  6  8  1  0  0  0
  6 11  2  0  0  0
  7 10  1  0  0  0
  7 11  1  0  0  0
 62 61  1  0  0  0
 26 28  1  0  0  0
 26 32  1  0  0  0
 26 29  1  0  0  0
 12 18  1  0  0  0
 12 19  1  0  0  0
 61 60  1  0  0  0
 30 36  1  0  0  0
 30 37  1  0  0  0
 30 38  1  0  0  0
 20 21  2  0  0  0
 60 59  1  0  0  0
 22 21  1  0  0  0
 22 23  1  0  0  0
 59 58  1  0  0  0
 27 28  2  0  0  0
 58 57  1  0  0  0
 31 37  2  0  0  0
 57 56  1  0  0  0
 56 55  1  0  0  0
 55 54  1  0  0  0
 54 53  1  0  0  0
 53 52  1  0  0  0
 52 51  1  0  0  0
 51 50  1  0  0  0
 50 49  1  0  0  0
 49 47  1  0  0  0
 47 48  2  0  0  0
 48 45  1  0  0  0
 42 41  1  0  0  0
 41 40  1  0  0  0
 40 39  1  0  0  0
 39  1  1  0  0  0
  1 21  1  0  0  0
  8  4  1  0  0  0
  8  9  1  0  0  0
  8 10  1  0  0  0
 11 13  1  0  0  0
 13 14  2  0  0  0
 13 18  1  0  0  0
 14 15  1  0  0  0
 15 16  2  0  0  0
 16 17  1  0  0  0
 17 18  2  0  0  0
 23 24  1  0  0  0
 23 25  1  0  0  0
 25 28  1  0  0  0
 32 33  1  0  0  0
 32 37  1  0  0  0
 33 34  1  0  0  0
 34 35  1  0  0  0
 35 36  1  0  0  0
M  END
> <minimizedAffinity>
-11.02765

> <CNNscore>
0.4105799794

> <CNNaffinity>
7.3150649071

> <CNN_VS>
3.0034191608

> <CNNaffinity_variance>
0.4990660250

$$$$
/media/chris/experiments/cd1a-new-docking/inputs/ligands/7ryo_ligand.pdb


 65 67  0  0  0  0  0  0  0  0999 V2000
  -34.8397   61.9306   63.9888 C   0  0  0  0  0  0  0  0  0  0  0  0
  -35.1439   60.5813   63.5424 N   0  0  0  0  0  0  0  0  0  0  0  0
  -36.9400   61.2231   62.3527 O   0  0  0  0  0  0  0  0  0  0  0  0
  -36.1895   60.3431   62.7471 C   0  0  0  0  0  0  0  0  0  0  0  0
  -34.5718   59.8336   63.8302 H   0  0  0  0  0  0  0  0  0  0  0  0
  -37.7370   58.4319   62.9051 N   0  0  0  0  0  0  0  0  0  0  0  0
  -37.8670   57.9429   60.7081 O   0  0  0  0  0  0  0  0  0  0  0  0
  -36.4551   58.8844   62.3399 C   0  0  0  0  0  0  0  0  0  0  0  0
  -35.3332   58.0071   62.8873 C   0  0  0  0  0  0  0  0  0  0  0  0
  -36.6343   58.6977   60.8261 C   0  0  0  0  0  0  0  0  0  0  0  0
  -38.4176   57.9482   61.9500 C   0  0  0  0  0  0  0  0  0  0  0  0
  -40.4927   58.5093   60.0362 O   0  0  0  0  0  0  0  0  0  0  0  0
  -39.7623   57.3761   62.0505 C   0  0  0  0  0  0  0  0  0  0  0  0
  -40.0423   56.4102   63.0179 C   0  0  0  0  0  0  0  0  0  0  0  0
  -41.2234   55.6899   62.9699 C   0  0  0  0  0  0  0  0  0  0  0  0
  -42.1391   55.9175   61.9657 C   0  0  0  0  0  0  0  0  0  0  0  0
  -41.8837   56.8661   60.9922 C   0  0  0  0  0  0  0  0  0  0  0  0
  -40.7012   57.5986   61.0223 C   0  0  0  0  0  0  0  0  0  0  0  0
  -39.7064   59.0189   60.0278 H   0  0  0  0  0  0  0  0  0  0  0  0
  -32.7220   63.0174   64.4074 O   0  0  0  0  0  0  0  0  0  0  0  0
  -33.3826   62.2819   63.7272 C   0  0  0  0  0  0  0  0  0  0  0  0
  -32.9424   61.6696   62.6143 O   0  0  0  0  0  0  0  0  0  0  0  0
  -31.5438   61.8698   62.2222 C   0  0  0  0  0  0  0  0  0  0  0  0
  -31.4778   63.0815   61.3271 C   0  0  0  0  0  0  0  0  0  0  0  0
  -31.1363   60.5984   61.5030 C   0  0  0  0  0  0  0  0  0  0  0  0
  -30.5306   58.3744   62.2301 N   0  0  0  0  0  0  0  0  0  0  0  0
  -29.4304   60.1261   63.1149 O   0  0  0  0  0  0  0  0  0  0  0  0
  -30.2900   59.6823   62.3586 C   0  0  0  0  0  0  0  0  0  0  0  0
  -31.2328   58.0762   61.6077 H   0  0  0  0  0  0  0  0  0  0  0  0
  -28.8999   55.1572   62.5202 N   0  0  0  0  0  0  0  0  0  0  0  0
  -30.6520   55.8849   61.3238 O   0  0  0  0  0  0  0  0  0  0  0  0
  -29.7858   57.3797   62.9821 C   0  0  0  0  0  0  0  0  0  0  0  0
  -30.4275   57.1706   64.3584 C   0  0  0  0  0  0  0  0  0  0  0  0
  -29.4978   56.5128   65.3725 C   0  0  0  0  0  0  0  0  0  0  0  0
  -29.0228   55.1190   65.0127 C   0  0  0  0  0  0  0  0  0  0  0  0
  -28.1567   55.0602   63.7719 C   0  0  0  0  0  0  0  0  0  0  0  0
  -29.8167   56.0742   62.2032 C   0  0  0  0  0  0  0  0  0  0  0  0
  -28.7051   54.4746   61.8380 H   0  0  0  0  0  0  0  0  0  0  0  0
  -35.1904   62.1196   65.4654 C   0  0  0  0  0  0  0  0  0  0  0  0
  -36.6831   61.9590   65.7325 C   0  0  0  0  0  0  0  0  0  0  0  0
  -37.1076   60.5118   65.8994 C   0  0  0  0  0  0  0  0  0  0  0  0
  -38.5307   60.3205   66.3764 C   0  0  0  0  0  0  0  0  0  0  0  0
  -39.4225   60.0447   65.2612 N   0  0  0  0  0  0  0  0  0  0  0  0
  -40.9990   61.5118   65.9367 O   0  0  0  0  0  0  0  0  0  0  0  0
  -40.5995   60.6644   65.1214 C   0  0  0  0  0  0  0  0  0  0  0  0
  -39.1510   59.3805   64.5873 H   0  0  0  0  0  0  0  0  0  0  0  0
  -42.2899   59.2120   64.0230 C   0  0  0  0  0  0  0  0  0  0  0  0
  -41.4036   60.1971   63.9702 C   0  0  0  0  0  0  0  0  0  0  0  0
  -42.6796   58.3923   65.2132 C   0  0  0  0  0  0  0  0  0  0  0  0
  -43.8404   57.4567   64.8984 C   0  0  0  0  0  0  0  0  0  0  0  0
  -45.1834   58.1586   64.7954 C   0  0  0  0  0  0  0  0  0  0  0  0
  -45.9590   58.1824   66.1020 C   0  0  0  0  0  0  0  0  0  0  0  0
  -47.3924   57.6985   65.9881 C   0  0  0  0  0  0  0  0  0  0  0  0
  -48.1997   58.4400   64.9356 C   0  0  0  0  0  0  0  0  0  0  0  0
  -49.6943   58.4129   65.1887 C   0  0  0  0  0  0  0  0  0  0  0  0
  -50.3521   59.7667   65.0118 C   0  0  0  0  0  0  0  0  0  0  0  0
  -51.3749   59.8240   63.8935 C   0  0  0  0  0  0  0  0  0  0  0  0
  -51.0458   58.8845   62.7502 C   0  0  0  0  0  0  0  0  0  0  0  0
  -50.0160   59.4513   61.7865 C   0  0  0  0  0  0  0  0  0  0  0  0
  -49.0082   58.4323   61.2841 C   0  0  0  0  0  0  0  0  0  0  0  0
  -49.5411   57.5102   60.1983 C   0  0  0  0  0  0  0  0  0  0  0  0
  -48.8594   57.6874   58.8485 C   0  0  0  0  0  0  0  0  0  0  0  0
  -47.3419   57.7152   58.9364 C   0  0  0  0  0  0  0  0  0  0  0  0
  -47.5081   57.1122   56.4900 C   0  0  0  0  0  0  0  0  0  0  0  0
  -46.6336   57.6420   57.5960 C   0  0  0  0  0  0  0  0  0  0  0  0
 43 45  1  0  0  0
 43 42  1  0  0  0
 43 46  1  0  0  0
 64 65  1  0  0  0
 44 45  2  0  0  0
 65 63  1  0  0  0
  2  1  1  0  0  0
  2  4  1  0  0  0
  2  5  1  0  0  0
  3  4  2  0  0  0
 63 62  1  0  0  0
  6  8  1  0  0  0
  6 11  2  0  0  0
  7 10  1  0  0  0
  7 11  1  0  0  0
 62 61  1  0  0  0
 26 28  1  0  0  0
 26 32  1  0  0  0
 26 29  1  0  0  0
 12 18  1  0  0  0
 12 19  1  0  0  0
 61 60  1  0  0  0
 30 36  1  0  0  0
 30 37  1  0  0  0
 30 38  1  0  0  0
 20 21  2  0  0  0
 60 59  1  0  0  0
 22 21  1  0  0  0
 22 23  1  0  0  0
 59 58  1  0  0  0
 27 28  2  0  0  0
 58 57  1  0  0  0
 31 37  2  0  0  0
 57 56  1  0  0  0
 56 55  1  0  0  0
 55 54  1  0  0  0
 54 53  1  0  0  0
 53 52  1  0  0  0
 52 51  1  0  0  0
 51 50  1  0  0  0
 50 49  1  0  0  0
 49 47  1  0  0  0
 47 48  2  0  0  0
 48 45  1  0  0  0
 42 41  1  0  0  0
 41 40  1  0  0  0
 40 39  1  0  0  0
 39  1  1  0  0  0
  1 21  1  0  0  0
  8  4  1  0  0  0
  8  9  1  0  0  0
  8 10  1  0  0  0
 11 13  1  0  0  0
 13 14  2  0  0  0
 13 18  1  0  0  0
 14 15  1  0  0  0
 15 16  2  0  0  0
 16 17  1  0  0  0
 17 18  2  0  0  0
 23 24  1  0  0  0
 23 25  1  0  0  0
 25 28  1  0  0  0
 32 33  1  0  0  0
 32 37  1  0  0  0
 33 34  1  0  0  0
 34 35  1  0  0  0
 35 36  1  0  0  0
M  END
> <minimizedAffinity>
-10.94635

> <CNNscore>
0.3486977816

> <CNNaffinity>
7.6793870926

> <CNN_VS>
2.6777851582

> <CNNaffinity_variance>
1.1663700342

$$$$
/media/chris/experiments/cd1a-new-docking/inputs/ligands/7ryo_ligand.pdb


 65 67  0  0  0  0  0  0  0  0999 V2000
  -34.1994   58.1326   62.6321 C   0  0  0  0  0  0  0  0  0  0  0  0
  -34.5058   59.4992   63.0207 N   0  0  0  0  0  0  0  0  0  0  0  0
  -34.2798   59.0801   65.2177 O   0  0  0  0  0  0  0  0  0  0  0  0
  -34.5189   59.8585   64.3065 C   0  0  0  0  0  0  0  0  0  0  0  0
  -34.7063   60.1684   62.3270 H   0  0  0  0  0  0  0  0  0  0  0  0
  -33.6679   62.1568   64.5630 N   0  0  0  0  0  0  0  0  0  0  0  0
  -35.1784   63.2048   63.2580 O   0  0  0  0  0  0  0  0  0  0  0  0
  -34.8757   61.3180   64.6332 C   0  0  0  0  0  0  0  0  0  0  0  0
  -35.4441   61.3825   66.0476 C   0  0  0  0  0  0  0  0  0  0  0  0
  -35.8266   61.9560   63.6097 C   0  0  0  0  0  0  0  0  0  0  0  0
  -33.9352   63.1355   63.8015 C   0  0  0  0  0  0  0  0  0  0  0  0
  -33.5760   64.0371   61.0919 O   0  0  0  0  0  0  0  0  0  0  0  0
  -33.0251   64.2264   63.4447 C   0  0  0  0  0  0  0  0  0  0  0  0
  -32.3980   64.9710   64.4445 C   0  0  0  0  0  0  0  0  0  0  0  0
  -31.7357   66.1463   64.1341 C   0  0  0  0  0  0  0  0  0  0  0  0
  -31.6866   66.5966   62.8328 C   0  0  0  0  0  0  0  0  0  0  0  0
  -32.3038   65.8796   61.8239 C   0  0  0  0  0  0  0  0  0  0  0  0
  -32.9761   64.6972   62.1165 C   0  0  0  0  0  0  0  0  0  0  0  0
  -34.0369   63.2378   61.2556 H   0  0  0  0  0  0  0  0  0  0  0  0
  -32.3978   58.4225   61.0475 O   0  0  0  0  0  0  0  0  0  0  0  0
  -32.7748   58.0144   62.1112 C   0  0  0  0  0  0  0  0  0  0  0  0
  -31.9995   57.3696   63.0003 O   0  0  0  0  0  0  0  0  0  0  0  0
  -30.5585   57.3001   62.7388 C   0  0  0  0  0  0  0  0  0  0  0  0
  -30.1327   55.8576   62.8461 C   0  0  0  0  0  0  0  0  0  0  0  0
  -29.9101   58.1732   63.7957 C   0  0  0  0  0  0  0  0  0  0  0  0
  -30.4567   60.2099   62.6147 N   0  0  0  0  0  0  0  0  0  0  0  0
  -28.3815   59.9836   63.4537 O   0  0  0  0  0  0  0  0  0  0  0  0
  -29.5096   59.5343   63.2716 C   0  0  0  0  0  0  0  0  0  0  0  0
  -31.3440   59.7992   62.4989 H   0  0  0  0  0  0  0  0  0  0  0  0
  -29.7581   62.4387   59.8511 N   0  0  0  0  0  0  0  0  0  0  0  0
  -29.2237   60.3008   60.2685 O   0  0  0  0  0  0  0  0  0  0  0  0
  -30.2150   61.5331   62.0667 C   0  0  0  0  0  0  0  0  0  0  0  0
  -29.1772   62.2741   62.9173 C   0  0  0  0  0  0  0  0  0  0  0  0
  -29.1861   63.7852   62.7129 C   0  0  0  0  0  0  0  0  0  0  0  0
  -28.8606   64.2548   61.3089 C   0  0  0  0  0  0  0  0  0  0  0  0
  -29.8724   63.8333   60.2640 C   0  0  0  0  0  0  0  0  0  0  0  0
  -29.6885   61.3711   60.6494 C   0  0  0  0  0  0  0  0  0  0  0  0
  -29.7290   62.2670   58.8821 H   0  0  0  0  0  0  0  0  0  0  0  0
  -35.2025   57.6096   61.6029 C   0  0  0  0  0  0  0  0  0  0  0  0
  -36.6315   57.6060   62.1351 C   0  0  0  0  0  0  0  0  0  0  0  0
  -37.3636   58.9122   61.8890 C   0  0  0  0  0  0  0  0  0  0  0  0
  -38.0691   59.0006   60.5534 C   0  0  0  0  0  0  0  0  0  0  0  0
  -39.1952   58.0822   60.4961 N   0  0  0  0  0  0  0  0  0  0  0  0
  -40.7125   59.6340   61.1155 O   0  0  0  0  0  0  0  0  0  0  0  0
  -40.4433   58.4680   60.7831 C   0  0  0  0  0  0  0  0  0  0  0  0
  -39.0337   57.1462   60.2375 H   0  0  0  0  0  0  0  0  0  0  0  0
  -41.7162   56.5741   61.7661 C   0  0  0  0  0  0  0  0  0  0  0  0
  -41.4437   57.3781   60.7472 C   0  0  0  0  0  0  0  0  0  0  0  0
  -41.1142   56.5946   63.1364 C   0  0  0  0  0  0  0  0  0  0  0  0
  -41.5742   57.8070   63.9367 C   0  0  0  0  0  0  0  0  0  0  0  0
  -43.0807   57.8924   64.1093 C   0  0  0  0  0  0  0  0  0  0  0  0
  -43.6509   56.8153   65.0171 C   0  0  0  0  0  0  0  0  0  0  0  0
  -44.9857   57.1685   65.6457 C   0  0  0  0  0  0  0  0  0  0  0  0
  -45.6898   58.3277   64.9603 C   0  0  0  0  0  0  0  0  0  0  0  0
  -47.0688   58.6155   65.5208 C   0  0  0  0  0  0  0  0  0  0  0  0
  -48.0997   58.9001   64.4470 C   0  0  0  0  0  0  0  0  0  0  0  0
  -49.4898   58.3815   64.7611 C   0  0  0  0  0  0  0  0  0  0  0  0
  -50.5075   58.7554   63.7015 C   0  0  0  0  0  0  0  0  0  0  0  0
  -50.0615   59.9142   62.8248 C   0  0  0  0  0  0  0  0  0  0  0  0
  -49.9754   59.5775   61.3463 C   0  0  0  0  0  0  0  0  0  0  0  0
  -49.0008   58.4572   61.0170 C   0  0  0  0  0  0  0  0  0  0  0  0
  -49.0515   58.0017   59.5651 C   0  0  0  0  0  0  0  0  0  0  0  0
  -47.7608   57.3548   59.0888 C   0  0  0  0  0  0  0  0  0  0  0  0
  -46.5589   57.1935   56.8740 C   0  0  0  0  0  0  0  0  0  0  0  0
  -47.0615   58.1002   57.9666 C   0  0  0  0  0  0  0  0  0  0  0  0
 43 45  1  0  0  0
 43 42  1  0  0  0
 43 46  1  0  0  0
 64 65  1  0  0  0
 44 45  2  0  0  0
 65 63  1  0  0  0
  2  1  1  0  0  0
  2  4  1  0  0  0
  2  5  1  0  0  0
  3  4  2  0  0  0
 63 62  1  0  0  0
  6  8  1  0  0  0
  6 11  2  0  0  0
  7 10  1  0  0  0
  7 11  1  0  0  0
 62 61  1  0  0  0
 26 28  1  0  0  0
 26 32  1  0  0  0
 26 29  1  0  0  0
 12 18  1  0  0  0
 12 19  1  0  0  0
 61 60  1  0  0  0
 30 36  1  0  0  0
 30 37  1  0  0  0
 30 38  1  0  0  0
 20 21  2  0  0  0
 60 59  1  0  0  0
 22 21  1  0  0  0
 22 23  1  0  0  0
 59 58  1  0  0  0
 27 28  2  0  0  0
 58 57  1  0  0  0
 31 37  2  0  0  0
 57 56  1  0  0  0
 56 55  1  0  0  0
 55 54  1  0  0  0
 54 53  1  0  0  0
 53 52  1  0  0  0
 52 51  1  0  0  0
 51 50  1  0  0  0
 50 49  1  0  0  0
 49 47  1  0  0  0
 47 48  2  0  0  0
 48 45  1  0  0  0
 42 41  1  0  0  0
 41 40  1  0  0  0
 40 39  1  0  0  0
 39  1  1  0  0  0
  1 21  1  0  0  0
  8  4  1  0  0  0
  8  9  1  0  0  0
  8 10  1  0  0  0
 11 13  1  0  0  0
 13 14  2  0  0  0
 13 18  1  0  0  0
 14 15  1  0  0  0
 15 16  2  0  0  0
 16 17  1  0  0  0
 17 18  2  0  0  0
 23 24  1  0  0  0
 23 25  1  0  0  0
 25 28  1  0  0  0
 32 33  1  0  0  0
 32 37  1  0  0  0
 33 34  1  0  0  0
 34 35  1  0  0  0
 35 36  1  0  0  0
M  END
> <minimizedAffinity>
-9.97195

> <CNNscore>
0.3221986890

> <CNNaffinity>
7.1980943680

> <CNN_VS>
2.3192164898

> <CNNaffinity_variance>
0.8322089911

$$$$
/media/chris/experiments/cd1a-new-docking/inputs/ligands/7ryo_ligand.pdb


 65 67  0  0  0  0  0  0  0  0999 V2000
  -36.0875   60.7700   64.4326 C   0  0  0  0  0  0  0  0  0  0  0  0
  -35.2599   61.9395   64.1883 N   0  0  0  0  0  0  0  0  0  0  0  0
  -33.5462   60.7368   63.3696 O   0  0  0  0  0  0  0  0  0  0  0  0
  -34.0368   61.8156   63.6674 C   0  0  0  0  0  0  0  0  0  0  0  0
  -35.6056   62.8343   64.4098 H   0  0  0  0  0  0  0  0  0  0  0  0
  -33.8421   63.9318   62.4200 N   0  0  0  0  0  0  0  0  0  0  0  0
  -33.5691   65.3159   64.1786 O   0  0  0  0  0  0  0  0  0  0  0  0
  -33.2179   63.1008   63.4627 C   0  0  0  0  0  0  0  0  0  0  0  0
  -31.8081   62.7223   63.0188 C   0  0  0  0  0  0  0  0  0  0  0  0
  -33.1983   64.0135   64.6977 C   0  0  0  0  0  0  0  0  0  0  0  0
  -33.9885   65.0946   62.9055 C   0  0  0  0  0  0  0  0  0  0  0  0
  -32.5121   67.5168   62.4184 O   0  0  0  0  0  0  0  0  0  0  0  0
  -34.5694   66.2508   62.2188 C   0  0  0  0  0  0  0  0  0  0  0  0
  -35.8371   66.1594   61.6427 C   0  0  0  0  0  0  0  0  0  0  0  0
  -36.2939   67.1492   60.7896 C   0  0  0  0  0  0  0  0  0  0  0  0
  -35.5024   68.2387   60.4980 C   0  0  0  0  0  0  0  0  0  0  0  0
  -34.2404   68.3511   61.0523 C   0  0  0  0  0  0  0  0  0  0  0  0
  -33.7628   67.3655   61.9103 C   0  0  0  0  0  0  0  0  0  0  0  0
  -32.1611   66.8707   62.9993 H   0  0  0  0  0  0  0  0  0  0  0  0
  -37.4445   60.9588   62.4417 O   0  0  0  0  0  0  0  0  0  0  0  0
  -36.7486   60.2857   63.1507 C   0  0  0  0  0  0  0  0  0  0  0  0
  -36.4620   58.9905   62.9324 O   0  0  0  0  0  0  0  0  0  0  0  0
  -36.9310   58.3793   61.6849 C   0  0  0  0  0  0  0  0  0  0  0  0
  -37.6587   57.1053   62.0329 C   0  0  0  0  0  0  0  0  0  0  0  0
  -35.6831   58.1244   60.8618 C   0  0  0  0  0  0  0  0  0  0  0  0
  -33.3182   58.1518   61.3600 N   0  0  0  0  0  0  0  0  0  0  0  0
  -34.6643   56.8719   62.6294 O   0  0  0  0  0  0  0  0  0  0  0  0
  -34.5121   57.6551   61.6962 C   0  0  0  0  0  0  0  0  0  0  0  0
  -33.2565   58.7766   60.6016 H   0  0  0  0  0  0  0  0  0  0  0  0
  -30.1423   58.9978   62.8737 N   0  0  0  0  0  0  0  0  0  0  0  0
  -31.2775   59.8294   61.1272 O   0  0  0  0  0  0  0  0  0  0  0  0
  -32.1087   57.7964   62.0814 C   0  0  0  0  0  0  0  0  0  0  0  0
  -31.4717   56.5486   61.4594 C   0  0  0  0  0  0  0  0  0  0  0  0
  -30.4870   55.8401   62.3834 C   0  0  0  0  0  0  0  0  0  0  0  0
  -29.2795   56.6571   62.7984 C   0  0  0  0  0  0  0  0  0  0  0  0
  -29.6123   57.8732   63.6372 C   0  0  0  0  0  0  0  0  0  0  0  0
  -31.1387   58.9635   61.9861 C   0  0  0  0  0  0  0  0  0  0  0  0
  -29.7207   59.8738   63.0293 H   0  0  0  0  0  0  0  0  0  0  0  0
  -37.1318   61.0448   65.5156 C   0  0  0  0  0  0  0  0  0  0  0  0
  -37.9902   59.8212   65.8179 C   0  0  0  0  0  0  0  0  0  0  0  0
  -39.4536   60.0172   65.4678 C   0  0  0  0  0  0  0  0  0  0  0  0
  -39.9732   59.1001   64.3823 C   0  0  0  0  0  0  0  0  0  0  0  0
  -40.9021   58.1220   64.9257 N   0  0  0  0  0  0  0  0  0  0  0  0
  -41.5948   57.4019   62.9019 O   0  0  0  0  0  0  0  0  0  0  0  0
  -41.6503   57.3388   64.1410 C   0  0  0  0  0  0  0  0  0  0  0  0
  -40.9828   58.0333   65.9028 H   0  0  0  0  0  0  0  0  0  0  0  0
  -43.8552   56.7703   65.1353 C   0  0  0  0  0  0  0  0  0  0  0  0
  -42.5925   56.4623   64.8720 C   0  0  0  0  0  0  0  0  0  0  0  0
  -44.5941   58.0148   64.7535 C   0  0  0  0  0  0  0  0  0  0  0  0
  -45.9106   58.1438   65.5098 C   0  0  0  0  0  0  0  0  0  0  0  0
  -47.0789   58.5720   64.6389 C   0  0  0  0  0  0  0  0  0  0  0  0
  -48.3847   57.8778   64.9887 C   0  0  0  0  0  0  0  0  0  0  0  0
  -49.0916   58.4492   66.2034 C   0  0  0  0  0  0  0  0  0  0  0  0
  -50.3632   59.2083   65.8624 C   0  0  0  0  0  0  0  0  0  0  0  0
  -50.1376   60.3757   64.9217 C   0  0  0  0  0  0  0  0  0  0  0  0
  -51.1913   60.4775   63.8371 C   0  0  0  0  0  0  0  0  0  0  0  0
  -51.5071   59.1648   63.1463 C   0  0  0  0  0  0  0  0  0  0  0  0
  -50.4940   58.8075   62.0766 C   0  0  0  0  0  0  0  0  0  0  0  0
  -50.8067   57.4996   61.3682 C   0  0  0  0  0  0  0  0  0  0  0  0
  -49.7920   57.1092   60.3078 C   0  0  0  0  0  0  0  0  0  0  0  0
  -48.5286   57.9561   60.3111 C   0  0  0  0  0  0  0  0  0  0  0  0
  -47.9774   58.2482   58.9223 C   0  0  0  0  0  0  0  0  0  0  0  0
  -46.6447   57.5711   58.6458 C   0  0  0  0  0  0  0  0  0  0  0  0
  -47.6917   57.1951   56.3789 C   0  0  0  0  0  0  0  0  0  0  0  0
  -46.4252   57.1855   57.1942 C   0  0  0  0  0  0  0  0  0  0  0  0
 43 45  1  0  0  0
 43 42  1  0  0  0
 43 46  1  0  0  0
 64 65  1  0  0  0
 44 45  2  0  0  0
 65 63  1  0  0  0
  2  1  1  0  0  0
  2  4  1  0  0  0
  2  5  1  0  0  0
  3  4  2  0  0  0
 63 62  1  0  0  0
  6  8  1  0  0  0
  6 11  2  0  0  0
  7 10  1  0  0  0
  7 11  1  0  0  0
 62 61  1  0  0  0
 26 28  1  0  0  0
 26 32  1  0  0  0
 26 29  1  0  0  0
 12 18  1  0  0  0
 12 19  1  0  0  0
 61 60  1  0  0  0
 30 36  1  0  0  0
 30 37  1  0  0  0
 30 38  1  0  0  0
 20 21  2  0  0  0
 60 59  1  0  0  0
 22 21  1  0  0  0
 22 23  1  0  0  0
 59 58  1  0  0  0
 27 28  2  0  0  0
 58 57  1  0  0  0
 31 37  2  0  0  0
 57 56  1  0  0  0
 56 55  1  0  0  0
 55 54  1  0  0  0
 54 53  1  0  0  0
 53 52  1  0  0  0
 52 51  1  0  0  0
 51 50  1  0  0  0
 50 49  1  0  0  0
 49 47  1  0  0  0
 47 48  2  0  0  0
 48 45  1  0  0  0
 42 41  1  0  0  0
 41 40  1  0  0  0
 40 39  1  0  0  0
 39  1  1  0  0  0
  1 21  1  0  0  0
  8  4  1  0  0  0
  8  9  1  0  0  0
  8 10  1  0  0  0
 11 13  1  0  0  0
 13 14  2  0  0  0
 13 18  1  0  0  0
 14 15  1  0  0  0
 15 16  2  0  0  0
 16 17  1  0  0  0
 17 18  2  0  0  0
 23 24  1  0  0  0
 23 25  1  0  0  0
 25 28  1  0  0  0
 32 33  1  0  0  0
 32 37  1  0  0  0
 33 34  1  0  0  0
 34 35  1  0  0  0
 35 36  1  0  0  0
M  END
> <minimizedAffinity>
-10.49807

> <CNNscore>
0.3152649403

> <CNNaffinity>
7.1273589134

> <CNN_VS>
2.2470064163

> <CNNaffinity_variance>
0.5769961476

$$$$
/media/chris/experiments/cd1a-new-docking/inputs/ligands/7ryo_ligand.pdb


 65 67  0  0  0  0  0  0  0  0999 V2000
  -35.6883   59.2010   62.9770 C   0  0  0  0  0  0  0  0  0  0  0  0
  -34.2393   59.0975   62.9301 N   0  0  0  0  0  0  0  0  0  0  0  0
  -34.2450   57.8082   61.0886 O   0  0  0  0  0  0  0  0  0  0  0  0
  -33.6342   58.3952   61.9693 C   0  0  0  0  0  0  0  0  0  0  0  0
  -33.6973   59.5510   63.6155 H   0  0  0  0  0  0  0  0  0  0  0  0
  -31.5210   59.5286   61.4018 N   0  0  0  0  0  0  0  0  0  0  0  0
  -30.5084   59.3406   63.4074 O   0  0  0  0  0  0  0  0  0  0  0  0
  -32.0991   58.3167   62.0058 C   0  0  0  0  0  0  0  0  0  0  0  0
  -31.6479   57.0987   61.2053 C   0  0  0  0  0  0  0  0  0  0  0  0
  -31.5236   58.3051   63.4296 C   0  0  0  0  0  0  0  0  0  0  0  0
  -30.6861   59.9995   62.2327 C   0  0  0  0  0  0  0  0  0  0  0  0
  -29.6297   60.7888   59.6744 O   0  0  0  0  0  0  0  0  0  0  0  0
  -29.8707   61.2027   62.0504 C   0  0  0  0  0  0  0  0  0  0  0  0
  -29.6958   62.0972   63.1071 C   0  0  0  0  0  0  0  0  0  0  0  0
  -29.1397   63.3454   62.8859 C   0  0  0  0  0  0  0  0  0  0  0  0
  -28.7508   63.7212   61.6186 C   0  0  0  0  0  0  0  0  0  0  0  0
  -28.9173   62.8550   60.5534 C   0  0  0  0  0  0  0  0  0  0  0  0
  -29.4764   61.5971   60.7553 C   0  0  0  0  0  0  0  0  0  0  0  0
  -30.0030   59.9355   59.7767 H   0  0  0  0  0  0  0  0  0  0  0  0
  -36.9373   60.3966   64.6657 O   0  0  0  0  0  0  0  0  0  0  0  0
  -36.1279   60.4163   63.7798 C   0  0  0  0  0  0  0  0  0  0  0  0
  -35.4985   61.5217   63.3450 O   0  0  0  0  0  0  0  0  0  0  0  0
  -34.7982   62.3515   64.3302 C   0  0  0  0  0  0  0  0  0  0  0  0
  -35.4474   63.7124   64.3417 C   0  0  0  0  0  0  0  0  0  0  0  0
  -33.3553   62.4045   63.8663 C   0  0  0  0  0  0  0  0  0  0  0  0
  -32.5186   64.6446   63.5149 N   0  0  0  0  0  0  0  0  0  0  0  0
  -33.3377   63.5188   61.7475 O   0  0  0  0  0  0  0  0  0  0  0  0
  -33.0745   63.5713   62.9457 C   0  0  0  0  0  0  0  0  0  0  0  0
  -32.3299   64.6299   64.4811 H   0  0  0  0  0  0  0  0  0  0  0  0
  -30.2872   67.3582   62.6483 N   0  0  0  0  0  0  0  0  0  0  0  0
  -30.6489   66.2179   64.5455 O   0  0  0  0  0  0  0  0  0  0  0  0
  -32.1848   65.8328   62.7491 C   0  0  0  0  0  0  0  0  0  0  0  0
  -33.3625   66.8139   62.7586 C   0  0  0  0  0  0  0  0  0  0  0  0
  -33.3003   67.8541   61.6454 C   0  0  0  0  0  0  0  0  0  0  0  0
  -32.0989   68.7777   61.6831 C   0  0  0  0  0  0  0  0  0  0  0  0
  -30.7721   68.0779   61.4755 C   0  0  0  0  0  0  0  0  0  0  0  0
  -30.9726   66.4875   63.3926 C   0  0  0  0  0  0  0  0  0  0  0  0
  -29.3570   67.5331   62.9193 H   0  0  0  0  0  0  0  0  0  0  0  0
  -36.3188   57.9228   63.5317 C   0  0  0  0  0  0  0  0  0  0  0  0
  -37.1805   57.2051   62.4984 C   0  0  0  0  0  0  0  0  0  0  0  0
  -37.8309   58.1489   61.5040 C   0  0  0  0  0  0  0  0  0  0  0  0
  -39.3064   57.9062   61.2727 C   0  0  0  0  0  0  0  0  0  0  0  0
  -40.1152   58.7021   62.1821 N   0  0  0  0  0  0  0  0  0  0  0  0
  -41.7145   57.1262   62.4117 O   0  0  0  0  0  0  0  0  0  0  0  0
  -41.2680   58.2514   62.6890 C   0  0  0  0  0  0  0  0  0  0  0  0
  -39.8041   59.6018   62.4330 H   0  0  0  0  0  0  0  0  0  0  0  0
  -42.4284   58.9870   64.7592 C   0  0  0  0  0  0  0  0  0  0  0  0
  -41.9898   59.2308   63.5316 C   0  0  0  0  0  0  0  0  0  0  0  0
  -42.2839   57.7247   65.5505 C   0  0  0  0  0  0  0  0  0  0  0  0
  -43.6215   57.0187   65.7357 C   0  0  0  0  0  0  0  0  0  0  0  0
  -44.7669   57.6658   64.9767 C   0  0  0  0  0  0  0  0  0  0  0  0
  -46.1264   57.4366   65.6159 C   0  0  0  0  0  0  0  0  0  0  0  0
  -46.7689   58.6872   66.1860 C   0  0  0  0  0  0  0  0  0  0  0  0
  -47.9653   59.1723   65.3844 C   0  0  0  0  0  0  0  0  0  0  0  0
  -49.2184   59.3559   66.2179 C   0  0  0  0  0  0  0  0  0  0  0  0
  -50.4846   58.9668   65.4817 C   0  0  0  0  0  0  0  0  0  0  0  0
  -51.1185   60.0933   64.6884 C   0  0  0  0  0  0  0  0  0  0  0  0
  -51.2222   59.7813   63.2085 C   0  0  0  0  0  0  0  0  0  0  0  0
  -50.7847   58.3674   62.8623 C   0  0  0  0  0  0  0  0  0  0  0  0
  -49.8043   58.2862   61.7052 C   0  0  0  0  0  0  0  0  0  0  0  0
  -50.2995   57.4659   60.5240 C   0  0  0  0  0  0  0  0  0  0  0  0
  -49.5819   57.7709   59.2163 C   0  0  0  0  0  0  0  0  0  0  0  0
  -48.1588   58.2697   59.4095 C   0  0  0  0  0  0  0  0  0  0  0  0
  -47.4667   56.6542   57.5965 C   0  0  0  0  0  0  0  0  0  0  0  0
  -47.2330   57.9967   58.2381 C   0  0  0  0  0  0  0  0  0  0  0  0
 43 45  1  0  0  0
 43 42  1  0  0  0
 43 46  1  0  0  0
 64 65  1  0  0  0
 44 45  2  0  0  0
 65 63  1  0  0  0
  2  1  1  0  0  0
  2  4  1  0  0  0
  2  5  1  0  0  0
  3  4  2  0  0  0
 63 62  1  0  0  0
  6  8  1  0  0  0
  6 11  2  0  0  0
  7 10  1  0  0  0
  7 11  1  0  0  0
 62 61  1  0  0  0
 26 28  1  0  0  0
 26 32  1  0  0  0
 26 29  1  0  0  0
 12 18  1  0  0  0
 12 19  1  0  0  0
 61 60  1  0  0  0
 30 36  1  0  0  0
 30 37  1  0  0  0
 30 38  1  0  0  0
 20 21  2  0  0  0
 60 59  1  0  0  0
 22 21  1  0  0  0
 22 23  1  0  0  0
 59 58  1  0  0  0
 27 28  2  0  0  0
 58 57  1  0  0  0
 31 37  2  0  0  0
 57 56  1  0  0  0
 56 55  1  0  0  0
 55 54  1  0  0  0
 54 53  1  0  0  0
 53 52  1  0  0  0
 52 51  1  0  0  0
 51 50  1  0  0  0
 50 49  1  0  0  0
 49 47  1  0  0  0
 47 48  2  0  0  0
 48 45  1  0  0  0
 42 41  1  0  0  0
 41 40  1  0  0  0
 40 39  1  0  0  0
 39  1  1  0  0  0
  1 21  1  0  0  0
  8  4  1  0  0  0
  8  9  1  0  0  0
  8 10  1  0  0  0
 11 13  1  0  0  0
 13 14  2  0  0  0
 13 18  1  0  0  0
 14 15  1  0  0  0
 15 16  2  0  0  0
 16 17  1  0  0  0
 17 18  2  0  0  0
 23 24  1  0  0  0
 23 25  1  0  0  0
 25 28  1  0  0  0
 32 33  1  0  0  0
 32 37  1  0  0  0
 33 34  1  0  0  0
 34 35  1  0  0  0
 35 36  1  0  0  0
M  END
> <minimizedAffinity>
-9.89818

> <CNNscore>
0.3070594370

> <CNNaffinity>
7.0164198875

> <CNN_VS>
2.1544580460

> <CNNaffinity_variance>
0.3235403895

$$$$
/media/chris/experiments/cd1a-new-docking/inputs/ligands/7ryo_ligand.pdb


 65 67  0  0  0  0  0  0  0  0999 V2000
  -36.4403   61.6532   64.7711 C   0  0  0  0  0  0  0  0  0  0  0  0
  -35.8372   60.4724   64.1756 N   0  0  0  0  0  0  0  0  0  0  0  0
  -37.0927   60.5905   62.3146 O   0  0  0  0  0  0  0  0  0  0  0  0
  -36.2258   60.0373   62.9747 C   0  0  0  0  0  0  0  0  0  0  0  0
  -35.1334   59.9874   64.6640 H   0  0  0  0  0  0  0  0  0  0  0  0
  -34.1451   59.0465   62.1021 N   0  0  0  0  0  0  0  0  0  0  0  0
  -34.0851   57.2172   63.4187 O   0  0  0  0  0  0  0  0  0  0  0  0
  -35.5536   58.7674   62.4271 C   0  0  0  0  0  0  0  0  0  0  0  0
  -36.2799   58.3327   61.1577 C   0  0  0  0  0  0  0  0  0  0  0  0
  -35.4753   57.6285   63.4546 C   0  0  0  0  0  0  0  0  0  0  0  0
  -33.4444   58.1627   62.6830 C   0  0  0  0  0  0  0  0  0  0  0  0
  -31.9503   58.3201   60.2281 O   0  0  0  0  0  0  0  0  0  0  0  0
  -31.9848   58.0492   62.6364 C   0  0  0  0  0  0  0  0  0  0  0  0
  -31.2476   58.0020   63.8204 C   0  0  0  0  0  0  0  0  0  0  0  0
  -29.8705   58.1404   63.7962 C   0  0  0  0  0  0  0  0  0  0  0  0
  -29.2089   58.3263   62.6020 C   0  0  0  0  0  0  0  0  0  0  0  0
  -29.9164   58.3813   61.4150 C   0  0  0  0  0  0  0  0  0  0  0  0
  -31.3012   58.2464   61.4190 C   0  0  0  0  0  0  0  0  0  0  0  0
  -32.8828   58.2332   60.1966 H   0  0  0  0  0  0  0  0  0  0  0  0
  -35.5936   63.8974   64.4756 O   0  0  0  0  0  0  0  0  0  0  0  0
  -35.4307   62.7846   64.8943 C   0  0  0  0  0  0  0  0  0  0  0  0
  -34.3196   62.3592   65.5201 O   0  0  0  0  0  0  0  0  0  0  0  0
  -33.7914   63.1719   66.6203 C   0  0  0  0  0  0  0  0  0  0  0  0
  -34.9221   63.4562   67.5765 C   0  0  0  0  0  0  0  0  0  0  0  0
  -33.2524   64.4329   65.9730 C   0  0  0  0  0  0  0  0  0  0  0  0
  -32.3570   63.8335   63.8094 N   0  0  0  0  0  0  0  0  0  0  0  0
  -30.9151   64.2770   65.4786 O   0  0  0  0  0  0  0  0  0  0  0  0
  -32.0680   64.1718   65.0692 C   0  0  0  0  0  0  0  0  0  0  0  0
  -33.3007   63.7643   63.5373 H   0  0  0  0  0  0  0  0  0  0  0  0
  -30.9915   64.0581   60.4660 N   0  0  0  0  0  0  0  0  0  0  0  0
  -33.0858   63.9606   61.2627 O   0  0  0  0  0  0  0  0  0  0  0  0
  -31.3189   63.5649   62.8298 C   0  0  0  0  0  0  0  0  0  0  0  0
  -30.9044   62.0904   62.8923 C   0  0  0  0  0  0  0  0  0  0  0  0
  -29.5491   61.8090   62.2526 C   0  0  0  0  0  0  0  0  0  0  0  0
  -29.4506   62.1188   60.7720 C   0  0  0  0  0  0  0  0  0  0  0  0
  -29.6114   63.5861   60.4335 C   0  0  0  0  0  0  0  0  0  0  0  0
  -31.8755   63.8783   61.4499 C   0  0  0  0  0  0  0  0  0  0  0  0
  -31.3035   64.5619   59.6798 H   0  0  0  0  0  0  0  0  0  0  0  0
  -37.0688   61.3317   66.1278 C   0  0  0  0  0  0  0  0  0  0  0  0
  -37.9558   60.0924   66.0775 C   0  0  0  0  0  0  0  0  0  0  0  0
  -39.3967   60.4035   65.7173 C   0  0  0  0  0  0  0  0  0  0  0  0
  -39.9175   59.6703   64.5005 C   0  0  0  0  0  0  0  0  0  0  0  0
  -40.6247   58.4588   64.8841 N   0  0  0  0  0  0  0  0  0  0  0  0
  -40.8640   57.7225   62.7640 O   0  0  0  0  0  0  0  0  0  0  0  0
  -41.0494   57.5671   63.9822 C   0  0  0  0  0  0  0  0  0  0  0  0
  -40.7963   58.2895   65.8385 H   0  0  0  0  0  0  0  0  0  0  0  0
  -43.1180   56.4685   64.8112 C   0  0  0  0  0  0  0  0  0  0  0  0
  -41.8175   56.4383   64.5532 C   0  0  0  0  0  0  0  0  0  0  0  0
  -44.0732   57.5968   64.5765 C   0  0  0  0  0  0  0  0  0  0  0  0
  -45.2182   57.5850   65.5818 C   0  0  0  0  0  0  0  0  0  0  0  0
  -46.5658   57.9453   64.9809 C   0  0  0  0  0  0  0  0  0  0  0  0
  -47.5502   58.5114   65.9907 C   0  0  0  0  0  0  0  0  0  0  0  0
  -48.9887   58.0822   65.7712 C   0  0  0  0  0  0  0  0  0  0  0  0
  -50.0002   59.1716   66.0865 C   0  0  0  0  0  0  0  0  0  0  0  0
  -49.8801   60.3875   65.1889 C   0  0  0  0  0  0  0  0  0  0  0  0
  -51.2125   60.8531   64.6369 C   0  0  0  0  0  0  0  0  0  0  0  0
  -51.7556   59.9977   63.5084 C   0  0  0  0  0  0  0  0  0  0  0  0
  -50.6792   59.5612   62.5343 C   0  0  0  0  0  0  0  0  0  0  0  0
  -50.6150   58.0540   62.3482 C   0  0  0  0  0  0  0  0  0  0  0  0
  -50.4454   57.6128   60.9049 C   0  0  0  0  0  0  0  0  0  0  0  0
  -49.1042   57.9853   60.2919 C   0  0  0  0  0  0  0  0  0  0  0  0
  -48.9632   57.5900   58.8284 C   0  0  0  0  0  0  0  0  0  0  0  0
  -47.5593   57.7902   58.2804 C   0  0  0  0  0  0  0  0  0  0  0  0
  -46.9864   55.8612   56.7550 C   0  0  0  0  0  0  0  0  0  0  0  0
  -47.3690   57.3148   56.8515 C   0  0  0  0  0  0  0  0  0  0  0  0
 43 45  1  0  0  0
 43 42  1  0  0  0
 43 46  1  0  0  0
 64 65  1  0  0  0
 44 45  2  0  0  0
 65 63  1  0  0  0
  2  1  1  0  0  0
  2  4  1  0  0  0
  2  5  1  0  0  0
  3  4  2  0  0  0
 63 62  1  0  0  0
  6  8  1  0  0  0
  6 11  2  0  0  0
  7 10  1  0  0  0
  7 11  1  0  0  0
 62 61  1  0  0  0
 26 28  1  0  0  0
 26 32  1  0  0  0
 26 29  1  0  0  0
 12 18  1  0  0  0
 12 19  1  0  0  0
 61 60  1  0  0  0
 30 36  1  0  0  0
 30 37  1  0  0  0
 30 38  1  0  0  0
 20 21  2  0  0  0
 60 59  1  0  0  0
 22 21  1  0  0  0
 22 23  1  0  0  0
 59 58  1  0  0  0
 27 28  2  0  0  0
 58 57  1  0  0  0
 31 37  2  0  0  0
 57 56  1  0  0  0
 56 55  1  0  0  0
 55 54  1  0  0  0
 54 53  1  0  0  0
 53 52  1  0  0  0
 52 51  1  0  0  0
 51 50  1  0  0  0
 50 49  1  0  0  0
 49 47  1  0  0  0
 47 48  2  0  0  0
 48 45  1  0  0  0
 42 41  1  0  0  0
 41 40  1  0  0  0
 40 39  1  0  0  0
 39  1  1  0  0  0
  1 21  1  0  0  0
  8  4  1  0  0  0
  8  9  1  0  0  0
  8 10  1  0  0  0
 11 13  1  0  0  0
 13 14  2  0  0  0
 13 18  1  0  0  0
 14 15  1  0  0  0
 15 16  2  0  0  0
 16 17  1  0  0  0
 17 18  2  0  0  0
 23 24  1  0  0  0
 23 25  1  0  0  0
 25 28  1  0  0  0
 32 33  1  0  0  0
 32 37  1  0  0  0
 33 34  1  0  0  0
 34 35  1  0  0  0
 35 36  1  0  0  0
M  END
> <minimizedAffinity>
-10.67749

> <CNNscore>
0.3057625890

> <CNNaffinity>
7.0788865089

> <CNN_VS>
2.1644587517

> <CNNaffinity_variance>
0.6655465364

$$$$
/media/chris/experiments/cd1a-new-docking/inputs/ligands/7ryo_ligand.pdb


 65 67  0  0  0  0  0  0  0  0999 V2000
  -33.0564   58.8748   63.0228 C   0  0  0  0  0  0  0  0  0  0  0  0
  -34.0453   59.9142   63.2560 N   0  0  0  0  0  0  0  0  0  0  0  0
  -34.5471   59.1773   65.3197 O   0  0  0  0  0  0  0  0  0  0  0  0
  -34.7167   59.9737   64.4085 C   0  0  0  0  0  0  0  0  0  0  0  0
  -34.2222   60.5826   62.5553 H   0  0  0  0  0  0  0  0  0  0  0  0
  -36.9198   60.8182   63.6975 N   0  0  0  0  0  0  0  0  0  0  0  0
  -37.7993   61.1786   65.7419 O   0  0  0  0  0  0  0  0  0  0  0  0
  -35.7620   61.0903   64.5653 C   0  0  0  0  0  0  0  0  0  0  0  0
  -35.1325   62.4173   64.1524 C   0  0  0  0  0  0  0  0  0  0  0  0
  -36.3679   61.1637   65.9746 C   0  0  0  0  0  0  0  0  0  0  0  0
  -37.9572   60.8870   64.4245 C   0  0  0  0  0  0  0  0  0  0  0  0
  -40.1990   60.9775   66.2271 O   0  0  0  0  0  0  0  0  0  0  0  0
  -39.3385   60.6868   63.9799 C   0  0  0  0  0  0  0  0  0  0  0  0
  -39.6286   60.5847   62.6188 C   0  0  0  0  0  0  0  0  0  0  0  0
  -40.9382   60.6407   62.1737 C   0  0  0  0  0  0  0  0  0  0  0  0
  -41.9733   60.7978   63.0694 C   0  0  0  0  0  0  0  0  0  0  0  0
  -41.7124   60.9059   64.4233 C   0  0  0  0  0  0  0  0  0  0  0  0
  -40.4027   60.8541   64.8897 C   0  0  0  0  0  0  0  0  0  0  0  0
  -39.3289   60.9468   66.5733 H   0  0  0  0  0  0  0  0  0  0  0  0
  -30.6611   59.0497   63.2926 O   0  0  0  0  0  0  0  0  0  0  0  0
  -31.6734   59.4697   62.8036 C   0  0  0  0  0  0  0  0  0  0  0  0
  -31.7447   60.5461   62.0014 O   0  0  0  0  0  0  0  0  0  0  0  0
  -30.5657   60.8911   61.2009 C   0  0  0  0  0  0  0  0  0  0  0  0
  -29.9673   59.6113   60.6739 C   0  0  0  0  0  0  0  0  0  0  0  0
  -29.6300   61.6191   62.1465 C   0  0  0  0  0  0  0  0  0  0  0  0
  -31.0774   63.5116   61.7402 N   0  0  0  0  0  0  0  0  0  0  0  0
  -29.0607   63.8860   62.6645 O   0  0  0  0  0  0  0  0  0  0  0  0
  -29.8920   63.1076   62.2055 C   0  0  0  0  0  0  0  0  0  0  0  0
  -31.7047   62.8417   61.3835 H   0  0  0  0  0  0  0  0  0  0  0  0
  -33.5682   66.1278   61.9510 N   0  0  0  0  0  0  0  0  0  0  0  0
  -33.6174   64.0240   61.1752 O   0  0  0  0  0  0  0  0  0  0  0  0
  -31.4673   64.9107   61.7454 C   0  0  0  0  0  0  0  0  0  0  0  0
  -30.8033   65.6469   60.5762 C   0  0  0  0  0  0  0  0  0  0  0  0
  -30.7739   67.1621   60.7459 C   0  0  0  0  0  0  0  0  0  0  0  0
  -32.1297   67.8343   60.8342 C   0  0  0  0  0  0  0  0  0  0  0  0
  -32.9390   67.4402   62.0520 C   0  0  0  0  0  0  0  0  0  0  0  0
  -32.9790   64.9830   61.5988 C   0  0  0  0  0  0  0  0  0  0  0  0
  -34.5282   66.0818   62.1649 H   0  0  0  0  0  0  0  0  0  0  0  0
  -33.4579   57.9792   61.8499 C   0  0  0  0  0  0  0  0  0  0  0  0
  -34.6411   57.0780   62.1863 C   0  0  0  0  0  0  0  0  0  0  0  0
  -35.9673   57.6234   61.6901 C   0  0  0  0  0  0  0  0  0  0  0  0
  -37.1210   57.4573   62.6548 C   0  0  0  0  0  0  0  0  0  0  0  0
  -38.3751   57.2732   61.9421 N   0  0  0  0  0  0  0  0  0  0  0  0
  -39.6394   57.3009   63.8115 O   0  0  0  0  0  0  0  0  0  0  0  0
  -39.5509   57.2079   62.5762 C   0  0  0  0  0  0  0  0  0  0  0  0
  -38.3582   57.1941   60.9610 H   0  0  0  0  0  0  0  0  0  0  0  0
  -41.9213   56.6181   62.1213 C   0  0  0  0  0  0  0  0  0  0  0  0
  -40.7077   56.9387   61.6933 C   0  0  0  0  0  0  0  0  0  0  0  0
  -42.3870   56.4791   63.5370 C   0  0  0  0  0  0  0  0  0  0  0  0
  -43.2398   57.6656   63.9694 C   0  0  0  0  0  0  0  0  0  0  0  0
  -44.2436   57.3343   65.0601 C   0  0  0  0  0  0  0  0  0  0  0  0
  -45.6062   57.9723   64.8468 C   0  0  0  0  0  0  0  0  0  0  0  0
  -46.4334   58.1193   66.1101 C   0  0  0  0  0  0  0  0  0  0  0  0
  -47.7943   58.7523   65.8723 C   0  0  0  0  0  0  0  0  0  0  0  0
  -47.8058   59.7534   64.7337 C   0  0  0  0  0  0  0  0  0  0  0  0
  -48.9632   60.7287   64.8111 C   0  0  0  0  0  0  0  0  0  0  0  0
  -50.2964   60.0917   65.1529 C   0  0  0  0  0  0  0  0  0  0  0  0
  -51.2353   60.0250   63.9645 C   0  0  0  0  0  0  0  0  0  0  0  0
  -50.5505   59.5747   62.6845 C   0  0  0  0  0  0  0  0  0  0  0  0
  -50.5106   58.0679   62.4982 C   0  0  0  0  0  0  0  0  0  0  0  0
  -50.7985   57.6068   61.0777 C   0  0  0  0  0  0  0  0  0  0  0  0
  -49.6123   56.9434   60.3915 C   0  0  0  0  0  0  0  0  0  0  0  0
  -49.2304   57.6003   59.0748 C   0  0  0  0  0  0  0  0  0  0  0  0
  -46.8987   57.5652   58.1060 C   0  0  0  0  0  0  0  0  0  0  0  0
  -47.8500   58.2316   59.0649 C   0  0  0  0  0  0  0  0  0  0  0  0
 43 45  1  0  0  0
 43 42  1  0  0  0
 43 46  1  0  0  0
 64 65  1  0  0  0
 44 45  2  0  0  0
 65 63  1  0  0  0
  2  1  1  0  0  0
  2  4  1  0  0  0
  2  5  1  0  0  0
  3  4  2  0  0  0
 63 62  1  0  0  0
  6  8  1  0  0  0
  6 11  2  0  0  0
  7 10  1  0  0  0
  7 11  1  0  0  0
 62 61  1  0  0  0
 26 28  1  0  0  0
 26 32  1  0  0  0
 26 29  1  0  0  0
 12 18  1  0  0  0
 12 19  1  0  0  0
 61 60  1  0  0  0
 30 36  1  0  0  0
 30 37  1  0  0  0
 30 38  1  0  0  0
 20 21  2  0  0  0
 60 59  1  0  0  0
 22 21  1  0  0  0
 22 23  1  0  0  0
 59 58  1  0  0  0
 27 28  2  0  0  0
 58 57  1  0  0  0
 31 37  2  0  0  0
 57 56  1  0  0  0
 56 55  1  0  0  0
 55 54  1  0  0  0
 54 53  1  0  0  0
 53 52  1  0  0  0
 52 51  1  0  0  0
 51 50  1  0  0  0
 50 49  1  0  0  0
 49 47  1  0  0  0
 47 48  2  0  0  0
 48 45  1  0  0  0
 42 41  1  0  0  0
 41 40  1  0  0  0
 40 39  1  0  0  0
 39  1  1  0  0  0
  1 21  1  0  0  0
  8  4  1  0  0  0
  8  9  1  0  0  0
  8 10  1  0  0  0
 11 13  1  0  0  0
 13 14  2  0  0  0
 13 18  1  0  0  0
 14 15  1  0  0  0
 15 16  2  0  0  0
 16 17  1  0  0  0
 17 18  2  0  0  0
 23 24  1  0  0  0
 23 25  1  0  0  0
 25 28  1  0  0  0
 32 33  1  0  0  0
 32 37  1  0  0  0
 33 34  1  0  0  0
 34 35  1  0  0  0
 35 36  1  0  0  0
M  END
> <minimizedAffinity>
-10.20613

> <CNNscore>
0.2923498750

> <CNNaffinity>
7.2798981667

> <CNN_VS>
2.1282773018

> <CNNaffinity_variance>
1.0923197269

$$$$
