/media/chris/experiments/cd1a-new-docking/inputs/ligands/7ryo_ligand.pdb


 65 67  0  0  0  0  0  0  0  0999 V2000
  -37.9347   60.6851   65.2982 C   0  0  0  0  0  0  0  0  0  0  0  0
  -37.3026   60.0700   64.1431 N   0  0  0  0  0  0  0  0  0  0  0  0
  -39.2147   59.9744   62.9647 O   0  0  0  0  0  0  0  0  0  0  0  0
  -38.0146   59.7628   63.0560 C   0  0  0  0  0  0  0  0  0  0  0  0
  -36.3373   59.8771   64.1624 H   0  0  0  0  0  0  0  0  0  0  0  0
  -35.8310   59.3695   61.9840 N   0  0  0  0  0  0  0  0  0  0  0  0
  -35.9791   57.1302   61.7685 O   0  0  0  0  0  0  0  0  0  0  0  0
  -37.2738   59.0929   61.8871 C   0  0  0  0  0  0  0  0  0  0  0  0
  -37.8023   59.6648   60.5750 C   0  0  0  0  0  0  0  0  0  0  0  0
  -37.3568   57.5595   61.9122 C   0  0  0  0  0  0  0  0  0  0  0  0
  -35.2302   58.2545   61.9129 C   0  0  0  0  0  0  0  0  0  0  0  0
  -33.3963   60.3151   62.7342 O   0  0  0  0  0  0  0  0  0  0  0  0
  -33.7808   58.0491   61.9648 C   0  0  0  0  0  0  0  0  0  0  0  0
  -33.2451   56.7786   61.7491 C   0  0  0  0  0  0  0  0  0  0  0  0
  -31.9151   56.5199   62.0326 C   0  0  0  0  0  0  0  0  0  0  0  0
  -31.1019   57.5141   62.5318 C   0  0  0  0  0  0  0  0  0  0  0  0
  -31.6094   58.7804   62.7588 C   0  0  0  0  0  0  0  0  0  0  0  0
  -32.9441   59.0593   62.4820 C   0  0  0  0  0  0  0  0  0  0  0  0
  -34.2901   60.5352   62.5588 H   0  0  0  0  0  0  0  0  0  0  0  0
  -37.1588   62.2311   66.9861 O   0  0  0  0  0  0  0  0  0  0  0  0
  -36.9084   61.3709   66.1875 C   0  0  0  0  0  0  0  0  0  0  0  0
  -35.6760   60.8942   65.9399 O   0  0  0  0  0  0  0  0  0  0  0  0
  -34.6380   61.8427   65.5244 C   0  0  0  0  0  0  0  0  0  0  0  0
  -34.2662   62.6825   66.7203 C   0  0  0  0  0  0  0  0  0  0  0  0
  -35.2593   62.6655   64.4124 C   0  0  0  0  0  0  0  0  0  0  0  0
  -34.2742   64.8580   64.1588 N   0  0  0  0  0  0  0  0  0  0  0  0
  -36.1364   64.6593   65.4056 O   0  0  0  0  0  0  0  0  0  0  0  0
  -35.2641   64.1488   64.7085 C   0  0  0  0  0  0  0  0  0  0  0  0
  -34.2317   65.8277   64.3243 H   0  0  0  0  0  0  0  0  0  0  0  0
  -31.0667   63.2460   63.7039 N   0  0  0  0  0  0  0  0  0  0  0  0
  -31.8214   64.7723   65.1639 O   0  0  0  0  0  0  0  0  0  0  0  0
  -33.2589   64.2396   63.3242 C   0  0  0  0  0  0  0  0  0  0  0  0
  -32.9881   65.1103   62.0919 C   0  0  0  0  0  0  0  0  0  0  0  0
  -32.3013   64.3623   60.9544 C   0  0  0  0  0  0  0  0  0  0  0  0
  -30.9284   63.8059   61.2758 C   0  0  0  0  0  0  0  0  0  0  0  0
  -30.9286   62.7335   62.3449 C   0  0  0  0  0  0  0  0  0  0  0  0
  -31.9851   64.1089   64.1441 C   0  0  0  0  0  0  0  0  0  0  0  0
  -30.4141   62.9214   64.3658 H   0  0  0  0  0  0  0  0  0  0  0  0
  -38.7517   59.6654   66.0931 C   0  0  0  0  0  0  0  0  0  0  0  0
  -40.1869   60.1255   66.3248 C   0  0  0  0  0  0  0  0  0  0  0  0
  -41.2024   59.3482   65.5079 C   0  0  0  0  0  0  0  0  0  0  0  0
  -40.7680   57.9514   65.1212 C   0  0  0  0  0  0  0  0  0  0  0  0
  -41.1630   57.6410   63.7564 N   0  0  0  0  0  0  0  0  0  0  0  0
  -42.4858   56.5180   62.3132 O   0  0  0  0  0  0  0  0  0  0  0  0
  -42.1584   56.7916   63.4795 C   0  0  0  0  0  0  0  0  0  0  0  0
  -40.6822   58.0701   63.0121 H   0  0  0  0  0  0  0  0  0  0  0  0
  -43.9488   56.8447   65.2015 C   0  0  0  0  0  0  0  0  0  0  0  0
  -42.8736   56.2791   64.6694 C   0  0  0  0  0  0  0  0  0  0  0  0
  -44.6686   58.0695   64.7299 C   0  0  0  0  0  0  0  0  0  0  0  0
  -46.1786   57.9290   64.8794 C   0  0  0  0  0  0  0  0  0  0  0  0
  -46.6980   58.3198   66.2522 C   0  0  0  0  0  0  0  0  0  0  0  0
  -48.2142   58.3789   66.3345 C   0  0  0  0  0  0  0  0  0  0  0  0
  -48.9147   58.3768   64.9888 C   0  0  0  0  0  0  0  0  0  0  0  0
  -48.7739   59.6865   64.2311 C   0  0  0  0  0  0  0  0  0  0  0  0
  -50.1015   60.3349   63.8908 C   0  0  0  0  0  0  0  0  0  0  0  0
  -51.0400   59.4106   63.1414 C   0  0  0  0  0  0  0  0  0  0  0  0
  -50.5482   58.9995   61.7669 C   0  0  0  0  0  0  0  0  0  0  0  0
  -50.8800   57.5585   61.4331 C   0  0  0  0  0  0  0  0  0  0  0  0
  -49.9626   56.9611   60.3788 C   0  0  0  0  0  0  0  0  0  0  0  0
  -48.8451   57.8871   59.9307 C   0  0  0  0  0  0  0  0  0  0  0  0
  -47.4854   57.2154   59.8178 C   0  0  0  0  0  0  0  0  0  0  0  0
  -46.6639   57.6809   58.6234 C   0  0  0  0  0  0  0  0  0  0  0  0
  -47.5074   58.0246   57.4062 C   0  0  0  0  0  0  0  0  0  0  0  0
  -47.1456   55.5713   56.9298 C   0  0  0  0  0  0  0  0  0  0  0  0
  -47.8583   56.8362   56.5294 C   0  0  0  0  0  0  0  0  0  0  0  0
 43 45  1  0  0  0
 43 42  1  0  0  0
 43 46  1  0  0  0
 64 65  1  0  0  0
 44 45  2  0  0  0
 65 63  1  0  0  0
  2  1  1  0  0  0
  2  4  1  0  0  0
  2  5  1  0  0  0
  3  4  2  0  0  0
 63 62  1  0  0  0
  6  8  1  0  0  0
  6 11  2  0  0  0
  7 10  1  0  0  0
  7 11  1  0  0  0
 62 61  1  0  0  0
 26 28  1  0  0  0
 26 32  1  0  0  0
 26 29  1  0  0  0
 12 18  1  0  0  0
 12 19  1  0  0  0
 61 60  1  0  0  0
 30 36  1  0  0  0
 30 37  1  0  0  0
 30 38  1  0  0  0
 20 21  2  0  0  0
 60 59  1  0  0  0
 22 21  1  0  0  0
 22 23  1  0  0  0
 59 58  1  0  0  0
 27 28  2  0  0  0
 58 57  1  0  0  0
 31 37  2  0  0  0
 57 56  1  0  0  0
 56 55  1  0  0  0
 55 54  1  0  0  0
 54 53  1  0  0  0
 53 52  1  0  0  0
 52 51  1  0  0  0
 51 50  1  0  0  0
 50 49  1  0  0  0
 49 47  1  0  0  0
 47 48  2  0  0  0
 48 45  1  0  0  0
 42 41  1  0  0  0
 41 40  1  0  0  0
 40 39  1  0  0  0
 39  1  1  0  0  0
  1 21  1  0  0  0
  8  4  1  0  0  0
  8  9  1  0  0  0
  8 10  1  0  0  0
 11 13  1  0  0  0
 13 14  2  0  0  0
 13 18  1  0  0  0
 14 15  1  0  0  0
 15 16  2  0  0  0
 16 17  1  0  0  0
 17 18  2  0  0  0
 23 24  1  0  0  0
 23 25  1  0  0  0
 25 28  1  0  0  0
 32 33  1  0  0  0
 32 37  1  0  0  0
 33 34  1  0  0  0
 34 35  1  0  0  0
 35 36  1  0  0  0
M  END
> <minimizedAffinity>
-10.02633

> <CNNscore>
0.2929878831

> <CNNaffinity>
7.3776216507

> <CNN_VS>
2.1615538597

> <CNNaffinity_variance>
1.0228325129

$$$$
/media/chris/experiments/cd1a-new-docking/inputs/ligands/7ryo_ligand.pdb


 65 67  0  0  0  0  0  0  0  0999 V2000
  -35.2352   57.5590   63.3002 C   0  0  0  0  0  0  0  0  0  0  0  0
  -34.1342   58.4578   62.9964 N   0  0  0  0  0  0  0  0  0  0  0  0
  -32.9532   56.8805   61.9141 O   0  0  0  0  0  0  0  0  0  0  0  0
  -33.0685   58.0288   62.3158 C   0  0  0  0  0  0  0  0  0  0  0  0
  -34.1746   59.3946   63.2963 H   0  0  0  0  0  0  0  0  0  0  0  0
  -32.5022   60.3813   61.8501 N   0  0  0  0  0  0  0  0  0  0  0  0
  -30.9278   60.6524   63.4409 O   0  0  0  0  0  0  0  0  0  0  0  0
  -31.9373   59.0375   62.0569 C   0  0  0  0  0  0  0  0  0  0  0  0
  -31.1799   58.6181   60.8006 C   0  0  0  0  0  0  0  0  0  0  0  0
  -30.9939   59.2156   63.2557 C   0  0  0  0  0  0  0  0  0  0  0  0
  -31.8957   61.1680   62.6391 C   0  0  0  0  0  0  0  0  0  0  0  0
  -31.0807   63.0710   60.6395 O   0  0  0  0  0  0  0  0  0  0  0  0
  -32.1312   62.6075   62.7741 C   0  0  0  0  0  0  0  0  0  0  0  0
  -32.8996   63.0955   63.8319 C   0  0  0  0  0  0  0  0  0  0  0  0
  -33.3317   64.4106   63.8377 C   0  0  0  0  0  0  0  0  0  0  0  0
  -33.0083   65.2559   62.7986 C   0  0  0  0  0  0  0  0  0  0  0  0
  -32.2518   64.7958   61.7363 C   0  0  0  0  0  0  0  0  0  0  0  0
  -31.8100   63.4767   61.7113 C   0  0  0  0  0  0  0  0  0  0  0  0
  -30.7683   62.1888   60.5923 H   0  0  0  0  0  0  0  0  0  0  0  0
  -37.3551   57.0433   62.2605 O   0  0  0  0  0  0  0  0  0  0  0  0
  -36.3867   57.7493   62.3244 C   0  0  0  0  0  0  0  0  0  0  0  0
  -36.1596   58.8078   61.5273 O   0  0  0  0  0  0  0  0  0  0  0  0
  -37.3169   59.5284   60.9879 C   0  0  0  0  0  0  0  0  0  0  0  0
  -37.8694   60.4099   62.0795 C   0  0  0  0  0  0  0  0  0  0  0  0
  -38.3003   58.4569   60.5586 C   0  0  0  0  0  0  0  0  0  0  0  0
  -40.7142   58.5324   60.4624 N   0  0  0  0  0  0  0  0  0  0  0  0
  -39.5461   59.8948   59.1055 O   0  0  0  0  0  0  0  0  0  0  0  0
  -39.5733   59.0257   59.9723 C   0  0  0  0  0  0  0  0  0  0  0  0
  -41.5704   58.8683   60.1109 H   0  0  0  0  0  0  0  0  0  0  0  0
  -41.8151   55.3548   61.7985 N   0  0  0  0  0  0  0  0  0  0  0  0
  -42.7716   56.8590   60.4372 O   0  0  0  0  0  0  0  0  0  0  0  0
  -40.7277   57.5148   61.4987 C   0  0  0  0  0  0  0  0  0  0  0  0
  -40.9554   58.1620   62.8695 C   0  0  0  0  0  0  0  0  0  0  0  0
  -40.5431   57.2756   64.0397 C   0  0  0  0  0  0  0  0  0  0  0  0
  -41.2962   55.9658   64.1620 C   0  0  0  0  0  0  0  0  0  0  0  0
  -41.0731   55.0121   63.0071 C   0  0  0  0  0  0  0  0  0  0  0  0
  -41.8612   56.5467   61.1990 C   0  0  0  0  0  0  0  0  0  0  0  0
  -42.3364   54.6313   61.3813 H   0  0  0  0  0  0  0  0  0  0  0  0
  -35.7091   57.7295   64.7443 C   0  0  0  0  0  0  0  0  0  0  0  0
  -36.4535   59.0428   64.9595 C   0  0  0  0  0  0  0  0  0  0  0  0
  -37.8435   58.8535   65.5382 C   0  0  0  0  0  0  0  0  0  0  0  0
  -38.4391   60.0914   66.1723 C   0  0  0  0  0  0  0  0  0  0  0  0
  -39.3860   60.7337   65.2746 N   0  0  0  0  0  0  0  0  0  0  0  0
  -41.5106   61.2732   64.7372 O   0  0  0  0  0  0  0  0  0  0  0  0
  -40.7023   60.7353   65.5117 C   0  0  0  0  0  0  0  0  0  0  0  0
  -39.0471   61.1816   64.4660 H   0  0  0  0  0  0  0  0  0  0  0  0
  -42.0585   59.2212   66.9406 C   0  0  0  0  0  0  0  0  0  0  0  0
  -41.0924   60.1188   66.7992 C   0  0  0  0  0  0  0  0  0  0  0  0
  -42.9280   58.6344   65.8728 C   0  0  0  0  0  0  0  0  0  0  0  0
  -43.8250   57.5304   66.4191 C   0  0  0  0  0  0  0  0  0  0  0  0
  -45.3037   57.7537   66.1532 C   0  0  0  0  0  0  0  0  0  0  0  0
  -45.9748   58.6595   67.1722 C   0  0  0  0  0  0  0  0  0  0  0  0
  -47.4872   58.7106   67.0641 C   0  0  0  0  0  0  0  0  0  0  0  0
  -47.9808   59.2690   65.7397 C   0  0  0  0  0  0  0  0  0  0  0  0
  -49.4921   59.3123   65.6264 C   0  0  0  0  0  0  0  0  0  0  0  0
  -50.0385   58.3523   64.5887 C   0  0  0  0  0  0  0  0  0  0  0  0
  -49.2985   58.3740   63.2651 C   0  0  0  0  0  0  0  0  0  0  0  0
  -50.1926   58.7518   62.1006 C   0  0  0  0  0  0  0  0  0  0  0  0
  -50.5078   57.5819   61.1830 C   0  0  0  0  0  0  0  0  0  0  0  0
  -49.8473   57.6674   59.8179 C   0  0  0  0  0  0  0  0  0  0  0  0
  -48.4961   58.3653   59.8209 C   0  0  0  0  0  0  0  0  0  0  0  0
  -47.3709   57.5350   59.2187 C   0  0  0  0  0  0  0  0  0  0  0  0
  -46.8751   58.0663   57.8834 C   0  0  0  0  0  0  0  0  0  0  0  0
  -47.4003   55.7088   57.1469 C   0  0  0  0  0  0  0  0  0  0  0  0
  -46.7228   57.0095   56.8044 C   0  0  0  0  0  0  0  0  0  0  0  0
 43 45  1  0  0  0
 43 42  1  0  0  0
 43 46  1  0  0  0
 64 65  1  0  0  0
 44 45  2  0  0  0
 65 63  1  0  0  0
  2  1  1  0  0  0
  2  4  1  0  0  0
  2  5  1  0  0  0
  3  4  2  0  0  0
 63 62  1  0  0  0
  6  8  1  0  0  0
  6 11  2  0  0  0
  7 10  1  0  0  0
  7 11  1  0  0  0
 62 61  1  0  0  0
 26 28  1  0  0  0
 26 32  1  0  0  0
 26 29  1  0  0  0
 12 18  1  0  0  0
 12 19  1  0  0  0
 61 60  1  0  0  0
 30 36  1  0  0  0
 30 37  1  0  0  0
 30 38  1  0  0  0
 20 21  2  0  0  0
 60 59  1  0  0  0
 22 21  1  0  0  0
 22 23  1  0  0  0
 59 58  1  0  0  0
 27 28  2  0  0  0
 58 57  1  0  0  0
 31 37  2  0  0  0
 57 56  1  0  0  0
 56 55  1  0  0  0
 55 54  1  0  0  0
 54 53  1  0  0  0
 53 52  1  0  0  0
 52 51  1  0  0  0
 51 50  1  0  0  0
 50 49  1  0  0  0
 49 47  1  0  0  0
 47 48  2  0  0  0
 48 45  1  0  0  0
 42 41  1  0  0  0
 41 40  1  0  0  0
 40 39  1  0  0  0
 39  1  1  0  0  0
  1 21  1  0  0  0
  8  4  1  0  0  0
  8  9  1  0  0  0
  8 10  1  0  0  0
 11 13  1  0  0  0
 13 14  2  0  0  0
 13 18  1  0  0  0
 14 15  1  0  0  0
 15 16  2  0  0  0
 16 17  1  0  0  0
 17 18  2  0  0  0
 23 24  1  0  0  0
 23 25  1  0  0  0
 25 28  1  0  0  0
 32 33  1  0  0  0
 32 37  1  0  0  0
 33 34  1  0  0  0
 34 35  1  0  0  0
 35 36  1  0  0  0
M  END
> <minimizedAffinity>
-10.20329

> <CNNscore>
0.2795903981

> <CNNaffinity>
7.7042036057

> <CNN_VS>
2.1540212631

> <CNNaffinity_variance>
2.2914764881

$$$$
/media/chris/experiments/cd1a-new-docking/inputs/ligands/7ryo_ligand.pdb


 65 67  0  0  0  0  0  0  0  0999 V2000
  -38.0618   58.9462   65.6120 C   0  0  0  0  0  0  0  0  0  0  0  0
  -39.1655   58.0522   65.3038 N   0  0  0  0  0  0  0  0  0  0  0  0
  -39.9369   59.3441   63.6334 O   0  0  0  0  0  0  0  0  0  0  0  0
  -40.0230   58.3373   64.3208 C   0  0  0  0  0  0  0  0  0  0  0  0
  -39.2825   57.2262   65.8265 H   0  0  0  0  0  0  0  0  0  0  0  0
  -42.2085   57.5188   65.1116 N   0  0  0  0  0  0  0  0  0  0  0  0
  -43.3238   57.6444   63.1563 O   0  0  0  0  0  0  0  0  0  0  0  0
  -41.1764   57.3507   64.0753 C   0  0  0  0  0  0  0  0  0  0  0  0
  -40.6312   55.9272   64.1433 C   0  0  0  0  0  0  0  0  0  0  0  0
  -41.9289   57.6082   62.7615 C   0  0  0  0  0  0  0  0  0  0  0  0
  -43.3174   57.6711   64.5146 C   0  0  0  0  0  0  0  0  0  0  0  0
  -43.7305   57.3517   67.3450 O   0  0  0  0  0  0  0  0  0  0  0  0
  -44.6214   57.8707   65.1514 C   0  0  0  0  0  0  0  0  0  0  0  0
  -45.6936   58.3701   64.4108 C   0  0  0  0  0  0  0  0  0  0  0  0
  -46.8498   58.7909   65.0452 C   0  0  0  0  0  0  0  0  0  0  0  0
  -46.9574   58.7220   66.4173 C   0  0  0  0  0  0  0  0  0  0  0  0
  -45.9075   58.2354   67.1746 C   0  0  0  0  0  0  0  0  0  0  0  0
  -44.7366   57.8096   66.5554 C   0  0  0  0  0  0  0  0  0  0  0  0
  -42.9289   57.0576   66.9590 H   0  0  0  0  0  0  0  0  0  0  0  0
  -39.4974   60.6047   66.6265 O   0  0  0  0  0  0  0  0  0  0  0  0
  -38.5602   60.3499   65.9216 C   0  0  0  0  0  0  0  0  0  0  0  0
  -37.8169   61.2670   65.2784 O   0  0  0  0  0  0  0  0  0  0  0  0
  -36.4721   61.5496   65.7898 C   0  0  0  0  0  0  0  0  0  0  0  0
  -36.5916   61.8992   67.2517 C   0  0  0  0  0  0  0  0  0  0  0  0
  -35.9558   62.7089   64.9598 C   0  0  0  0  0  0  0  0  0  0  0  0
  -34.3486   62.8789   63.1625 N   0  0  0  0  0  0  0  0  0  0  0  0
  -36.0582   61.4339   62.9361 O   0  0  0  0  0  0  0  0  0  0  0  0
  -35.4641   62.2834   63.5941 C   0  0  0  0  0  0  0  0  0  0  0  0
  -33.9897   62.6382   62.2778 H   0  0  0  0  0  0  0  0  0  0  0  0
  -32.0713   65.6700   63.5046 N   0  0  0  0  0  0  0  0  0  0  0  0
  -32.1796   63.9471   62.0726 O   0  0  0  0  0  0  0  0  0  0  0  0
  -33.6503   63.8711   63.9609 C   0  0  0  0  0  0  0  0  0  0  0  0
  -33.0077   63.2061   65.1835 C   0  0  0  0  0  0  0  0  0  0  0  0
  -32.6524   64.1864   66.2961 C   0  0  0  0  0  0  0  0  0  0  0  0
  -31.6391   65.2516   65.9268 C   0  0  0  0  0  0  0  0  0  0  0  0
  -32.1126   66.2140   64.8578 C   0  0  0  0  0  0  0  0  0  0  0  0
  -32.5686   64.5001   63.0971 C   0  0  0  0  0  0  0  0  0  0  0  0
  -31.6303   66.2237   62.8204 H   0  0  0  0  0  0  0  0  0  0  0  0
  -37.0330   58.9691   64.4806 C   0  0  0  0  0  0  0  0  0  0  0  0
  -35.9880   57.8678   64.6241 C   0  0  0  0  0  0  0  0  0  0  0  0
  -34.9866   57.8426   63.4844 C   0  0  0  0  0  0  0  0  0  0  0  0
  -35.5913   58.0037   62.1068 C   0  0  0  0  0  0  0  0  0  0  0  0
  -36.8597   57.2991   62.0079 N   0  0  0  0  0  0  0  0  0  0  0  0
  -38.9867   57.2015   61.2595 O   0  0  0  0  0  0  0  0  0  0  0  0
  -37.9002   57.7986   61.3320 C   0  0  0  0  0  0  0  0  0  0  0  0
  -36.9557   56.4263   62.4529 H   0  0  0  0  0  0  0  0  0  0  0  0
  -38.5346   59.8136   60.0239 C   0  0  0  0  0  0  0  0  0  0  0  0
  -37.6173   59.0670   60.6240 C   0  0  0  0  0  0  0  0  0  0  0  0
  -40.0088   59.5665   59.9441 C   0  0  0  0  0  0  0  0  0  0  0  0
  -40.3659   58.6571   58.7747 C   0  0  0  0  0  0  0  0  0  0  0  0
  -41.8477   58.6393   58.4417 C   0  0  0  0  0  0  0  0  0  0  0  0
  -42.1585   59.0977   57.0266 C   0  0  0  0  0  0  0  0  0  0  0  0
  -43.6262   59.0174   56.6509 C   0  0  0  0  0  0  0  0  0  0  0  0
  -44.4362   58.1125   57.5644 C   0  0  0  0  0  0  0  0  0  0  0  0
  -45.8221   57.8010   57.0341 C   0  0  0  0  0  0  0  0  0  0  0  0
  -46.9291   58.4244   57.8606 C   0  0  0  0  0  0  0  0  0  0  0  0
  -47.3169   57.6264   59.0906 C   0  0  0  0  0  0  0  0  0  0  0  0
  -48.8060   57.3526   59.1654 C   0  0  0  0  0  0  0  0  0  0  0  0
  -49.5130   58.1720   60.2325 C   0  0  0  0  0  0  0  0  0  0  0  0
  -50.5503   57.3963   61.0259 C   0  0  0  0  0  0  0  0  0  0  0  0
  -51.1011   58.1431   62.2308 C   0  0  0  0  0  0  0  0  0  0  0  0
  -50.0285   58.6644   63.1773 C   0  0  0  0  0  0  0  0  0  0  0  0
  -50.2097   60.1271   63.5499 C   0  0  0  0  0  0  0  0  0  0  0  0
  -50.6717   59.3315   65.9015 C   0  0  0  0  0  0  0  0  0  0  0  0
  -50.9754   60.3563   64.8404 C   0  0  0  0  0  0  0  0  0  0  0  0
 43 45  1  0  0  0
 43 42  1  0  0  0
 43 46  1  0  0  0
 64 65  1  0  0  0
 44 45  2  0  0  0
 65 63  1  0  0  0
  2  1  1  0  0  0
  2  4  1  0  0  0
  2  5  1  0  0  0
  3  4  2  0  0  0
 63 62  1  0  0  0
  6  8  1  0  0  0
  6 11  2  0  0  0
  7 10  1  0  0  0
  7 11  1  0  0  0
 62 61  1  0  0  0
 26 28  1  0  0  0
 26 32  1  0  0  0
 26 29  1  0  0  0
 12 18  1  0  0  0
 12 19  1  0  0  0
 61 60  1  0  0  0
 30 36  1  0  0  0
 30 37  1  0  0  0
 30 38  1  0  0  0
 20 21  2  0  0  0
 60 59  1  0  0  0
 22 21  1  0  0  0
 22 23  1  0  0  0
 59 58  1  0  0  0
 27 28  2  0  0  0
 58 57  1  0  0  0
 31 37  2  0  0  0
 57 56  1  0  0  0
 56 55  1  0  0  0
 55 54  1  0  0  0
 54 53  1  0  0  0
 53 52  1  0  0  0
 52 51  1  0  0  0
 51 50  1  0  0  0
 50 49  1  0  0  0
 49 47  1  0  0  0
 47 48  2  0  0  0
 48 45  1  0  0  0
 42 41  1  0  0  0
 41 40  1  0  0  0
 40 39  1  0  0  0
 39  1  1  0  0  0
  1 21  1  0  0  0
  8  4  1  0  0  0
  8  9  1  0  0  0
  8 10  1  0  0  0
 11 13  1  0  0  0
 13 14  2  0  0  0
 13 18  1  0  0  0
 14 15  1  0  0  0
 15 16  2  0  0  0
 16 17  1  0  0  0
 17 18  2  0  0  0
 23 24  1  0  0  0
 23 25  1  0  0  0
 25 28  1  0  0  0
 32 33  1  0  0  0
 32 37  1  0  0  0
 33 34  1  0  0  0
 34 35  1  0  0  0
 35 36  1  0  0  0
M  END
> <minimizedAffinity>
-8.58479

> <CNNscore>
0.2529628277

> <CNNaffinity>
7.6127281189

> <CNN_VS>
1.9257372618

> <CNNaffinity_variance>
1.1186302900

$$$$
/media/chris/experiments/cd1a-new-docking/inputs/ligands/7ryo_ligand.pdb


 65 67  0  0  0  0  0  0  0  0999 V2000
  -37.3013   57.6952   61.8306 C   0  0  0  0  0  0  0  0  0  0  0  0
  -37.1169   58.1660   63.1932 N   0  0  0  0  0  0  0  0  0  0  0  0
  -38.2948   60.0510   62.8564 O   0  0  0  0  0  0  0  0  0  0  0  0
  -37.6415   59.3270   63.5930 C   0  0  0  0  0  0  0  0  0  0  0  0
  -36.5987   57.6221   63.8295 H   0  0  0  0  0  0  0  0  0  0  0  0
  -36.0345   60.3506   65.1555 N   0  0  0  0  0  0  0  0  0  0  0  0
  -37.4128   61.8785   66.0768 O   0  0  0  0  0  0  0  0  0  0  0  0
  -37.3798   59.7631   65.0440 C   0  0  0  0  0  0  0  0  0  0  0  0
  -37.4641   58.5387   65.9503 C   0  0  0  0  0  0  0  0  0  0  0  0
  -38.3125   60.8868   65.5198 C   0  0  0  0  0  0  0  0  0  0  0  0
  -36.1645   61.4800   65.7184 C   0  0  0  0  0  0  0  0  0  0  0  0
  -34.8569   63.0795   63.7144 O   0  0  0  0  0  0  0  0  0  0  0  0
  -35.0840   62.4172   66.0349 C   0  0  0  0  0  0  0  0  0  0  0  0
  -34.7450   62.6723   67.3643 C   0  0  0  0  0  0  0  0  0  0  0  0
  -33.9045   63.7244   67.6852 C   0  0  0  0  0  0  0  0  0  0  0  0
  -33.3909   64.5340   66.6955 C   0  0  0  0  0  0  0  0  0  0  0  0
  -33.7150   64.3052   65.3706 C   0  0  0  0  0  0  0  0  0  0  0  0
  -34.5598   63.2541   65.0284 C   0  0  0  0  0  0  0  0  0  0  0  0
  -35.4230   62.3808   63.4509 H   0  0  0  0  0  0  0  0  0  0  0  0
  -36.7518   58.8427   59.7758 O   0  0  0  0  0  0  0  0  0  0  0  0
  -36.4111   58.4566   60.8599 C   0  0  0  0  0  0  0  0  0  0  0  0
  -35.1807   58.6195   61.3765 O   0  0  0  0  0  0  0  0  0  0  0  0
  -34.2434   57.4947   61.2986 C   0  0  0  0  0  0  0  0  0  0  0  0
  -34.3866   56.6785   62.5584 C   0  0  0  0  0  0  0  0  0  0  0  0
  -32.8676   58.1189   61.1688 C   0  0  0  0  0  0  0  0  0  0  0  0
  -30.9628   58.2081   62.6542 N   0  0  0  0  0  0  0  0  0  0  0  0
  -31.7771   56.1914   62.0781 O   0  0  0  0  0  0  0  0  0  0  0  0
  -31.8201   57.4162   62.0037 C   0  0  0  0  0  0  0  0  0  0  0  0
  -30.2601   57.7984   63.2089 H   0  0  0  0  0  0  0  0  0  0  0  0
  -32.2053   61.4122   63.7871 N   0  0  0  0  0  0  0  0  0  0  0  0
  -33.0744   59.3446   63.7870 O   0  0  0  0  0  0  0  0  0  0  0  0
  -31.0378   59.6559   62.5664 C   0  0  0  0  0  0  0  0  0  0  0  0
  -31.2792   60.0838   61.1143 C   0  0  0  0  0  0  0  0  0  0  0  0
  -30.9279   61.5421   60.8406 C   0  0  0  0  0  0  0  0  0  0  0  0
  -31.7280   62.5633   61.6247 C   0  0  0  0  0  0  0  0  0  0  0  0
  -31.5072   62.5071   63.1218 C   0  0  0  0  0  0  0  0  0  0  0  0
  -32.1953   60.1250   63.4336 C   0  0  0  0  0  0  0  0  0  0  0  0
  -32.7397   61.6474   64.5798 H   0  0  0  0  0  0  0  0  0  0  0  0
  -38.7685   57.7798   61.4075 C   0  0  0  0  0  0  0  0  0  0  0  0
  -39.6534   56.8110   62.1846 C   0  0  0  0  0  0  0  0  0  0  0  0
  -41.0728   56.7409   61.6527 C   0  0  0  0  0  0  0  0  0  0  0  0
  -42.0983   57.4777   62.4863 C   0  0  0  0  0  0  0  0  0  0  0  0
  -41.4539   58.3388   63.4652 N   0  0  0  0  0  0  0  0  0  0  0  0
  -40.9990   58.8531   65.6152 O   0  0  0  0  0  0  0  0  0  0  0  0
  -41.5392   58.1093   64.7802 C   0  0  0  0  0  0  0  0  0  0  0  0
  -40.9382   59.1158   63.1499 H   0  0  0  0  0  0  0  0  0  0  0  0
  -43.4687   56.8235   65.6730 C   0  0  0  0  0  0  0  0  0  0  0  0
  -42.2557   56.8649   65.1384 C   0  0  0  0  0  0  0  0  0  0  0  0
  -44.3638   57.9762   66.0057 C   0  0  0  0  0  0  0  0  0  0  0  0
  -45.7526   57.8044   65.4025 C   0  0  0  0  0  0  0  0  0  0  0  0
  -46.8117   57.3905   66.4094 C   0  0  0  0  0  0  0  0  0  0  0  0
  -47.9676   58.3714   66.5141 C   0  0  0  0  0  0  0  0  0  0  0  0
  -49.0456   58.1829   65.4634 C   0  0  0  0  0  0  0  0  0  0  0  0
  -50.3986   58.7371   65.8781 C   0  0  0  0  0  0  0  0  0  0  0  0
  -50.9681   59.7419   64.8959 C   0  0  0  0  0  0  0  0  0  0  0  0
  -49.9507   60.2241   63.8813 C   0  0  0  0  0  0  0  0  0  0  0  0
  -50.2607   59.8322   62.4494 C   0  0  0  0  0  0  0  0  0  0  0  0
  -50.9606   58.4913   62.3479 C   0  0  0  0  0  0  0  0  0  0  0  0
  -50.4670   57.6442   61.1865 C   0  0  0  0  0  0  0  0  0  0  0  0
  -49.1707   58.1355   60.5658 C   0  0  0  0  0  0  0  0  0  0  0  0
  -48.4967   57.1274   59.6481 C   0  0  0  0  0  0  0  0  0  0  0  0
  -47.1149   57.5537   59.1714 C   0  0  0  0  0  0  0  0  0  0  0  0
  -47.0844   57.9852   57.7141 C   0  0  0  0  0  0  0  0  0  0  0  0
  -47.1264   55.6929   56.6559 C   0  0  0  0  0  0  0  0  0  0  0  0
  -47.7945   57.0383   56.7636 C   0  0  0  0  0  0  0  0  0  0  0  0
 43 45  1  0  0  0
 43 42  1  0  0  0
 43 46  1  0  0  0
 64 65  1  0  0  0
 44 45  2  0  0  0
 65 63  1  0  0  0
  2  1  1  0  0  0
  2  4  1  0  0  0
  2  5  1  0  0  0
  3  4  2  0  0  0
 63 62  1  0  0  0
  6  8  1  0  0  0
  6 11  2  0  0  0
  7 10  1  0  0  0
  7 11  1  0  0  0
 62 61  1  0  0  0
 26 28  1  0  0  0
 26 32  1  0  0  0
 26 29  1  0  0  0
 12 18  1  0  0  0
 12 19  1  0  0  0
 61 60  1  0  0  0
 30 36  1  0  0  0
 30 37  1  0  0  0
 30 38  1  0  0  0
 20 21  2  0  0  0
 60 59  1  0  0  0
 22 21  1  0  0  0
 22 23  1  0  0  0
 59 58  1  0  0  0
 27 28  2  0  0  0
 58 57  1  0  0  0
 31 37  2  0  0  0
 57 56  1  0  0  0
 56 55  1  0  0  0
 55 54  1  0  0  0
 54 53  1  0  0  0
 53 52  1  0  0  0
 52 51  1  0  0  0
 51 50  1  0  0  0
 50 49  1  0  0  0
 49 47  1  0  0  0
 47 48  2  0  0  0
 48 45  1  0  0  0
 42 41  1  0  0  0
 41 40  1  0  0  0
 40 39  1  0  0  0
 39  1  1  0  0  0
  1 21  1  0  0  0
  8  4  1  0  0  0
  8  9  1  0  0  0
  8 10  1  0  0  0
 11 13  1  0  0  0
 13 14  2  0  0  0
 13 18  1  0  0  0
 14 15  1  0  0  0
 15 16  2  0  0  0
 16 17  1  0  0  0
 17 18  2  0  0  0
 23 24  1  0  0  0
 23 25  1  0  0  0
 25 28  1  0  0  0
 32 33  1  0  0  0
 32 37  1  0  0  0
 33 34  1  0  0  0
 34 35  1  0  0  0
 35 36  1  0  0  0
M  END
> <minimizedAffinity>
-9.33242

> <CNNscore>
0.2357475162

> <CNNaffinity>
7.4631104469

> <CNN_VS>
1.7594097853

> <CNNaffinity_variance>
0.9077895880

$$$$
/media/chris/experiments/cd1a-new-docking/inputs/ligands/7ryo_ligand.pdb


 65 67  0  0  0  0  0  0  0  0999 V2000
  -37.9994   59.2271   64.3854 C   0  0  0  0  0  0  0  0  0  0  0  0
  -36.8129   59.9911   64.7329 N   0  0  0  0  0  0  0  0  0  0  0  0
  -37.9470   61.4430   66.0212 O   0  0  0  0  0  0  0  0  0  0  0  0
  -36.8946   61.0539   65.5372 C   0  0  0  0  0  0  0  0  0  0  0  0
  -35.9379   59.7218   64.3708 H   0  0  0  0  0  0  0  0  0  0  0  0
  -35.1533   62.5444   64.6325 N   0  0  0  0  0  0  0  0  0  0  0  0
  -35.1816   64.0979   66.2662 O   0  0  0  0  0  0  0  0  0  0  0  0
  -35.5958   61.8207   65.8359 C   0  0  0  0  0  0  0  0  0  0  0  0
  -34.5153   60.8225   66.2409 C   0  0  0  0  0  0  0  0  0  0  0  0
  -35.7696   62.9267   66.8872 C   0  0  0  0  0  0  0  0  0  0  0  0
  -34.9622   63.7520   64.9709 C   0  0  0  0  0  0  0  0  0  0  0  0
  -32.5095   65.1932   65.4078 O   0  0  0  0  0  0  0  0  0  0  0  0
  -34.5134   64.8348   64.0923 C   0  0  0  0  0  0  0  0  0  0  0  0
  -35.2047   65.1114   62.9121 C   0  0  0  0  0  0  0  0  0  0  0  0
  -34.6601   65.9569   61.9609 C   0  0  0  0  0  0  0  0  0  0  0  0
  -33.4274   66.5371   62.1671 C   0  0  0  0  0  0  0  0  0  0  0  0
  -32.7198   66.2757   63.3262 C   0  0  0  0  0  0  0  0  0  0  0  0
  -33.2496   65.4270   64.2930 C   0  0  0  0  0  0  0  0  0  0  0  0
  -32.8379   64.6264   66.0779 H   0  0  0  0  0  0  0  0  0  0  0  0
  -39.3068   60.7781   63.0717 O   0  0  0  0  0  0  0  0  0  0  0  0
  -38.6554   59.7716   63.1254 C   0  0  0  0  0  0  0  0  0  0  0  0
  -38.4218   58.9566   62.0820 O   0  0  0  0  0  0  0  0  0  0  0  0
  -37.7097   59.5037   60.9230 C   0  0  0  0  0  0  0  0  0  0  0  0
  -38.6498   59.4836   59.7442 C   0  0  0  0  0  0  0  0  0  0  0  0
  -36.5090   58.6004   60.7188 C   0  0  0  0  0  0  0  0  0  0  0  0
  -35.2676   57.2970   62.3320 N   0  0  0  0  0  0  0  0  0  0  0  0
  -37.4226   56.7683   61.9598 O   0  0  0  0  0  0  0  0  0  0  0  0
  -36.4437   57.4704   61.7222 C   0  0  0  0  0  0  0  0  0  0  0  0
  -35.1734   56.5723   62.9918 H   0  0  0  0  0  0  0  0  0  0  0  0
  -31.9403   57.8336   61.0148 N   0  0  0  0  0  0  0  0  0  0  0  0
  -32.9546   56.0601   61.9404 O   0  0  0  0  0  0  0  0  0  0  0  0
  -34.1241   58.1469   62.0494 C   0  0  0  0  0  0  0  0  0  0  0  0
  -33.7565   58.9655   63.2922 C   0  0  0  0  0  0  0  0  0  0  0  0
  -32.8940   60.1855   62.9871 C   0  0  0  0  0  0  0  0  0  0  0  0
  -31.5404   59.8892   62.3726 C   0  0  0  0  0  0  0  0  0  0  0  0
  -31.6084   59.2542   60.9995 C   0  0  0  0  0  0  0  0  0  0  0  0
  -32.9541   57.2559   61.6633 C   0  0  0  0  0  0  0  0  0  0  0  0
  -31.3553   57.2386   60.4923 H   0  0  0  0  0  0  0  0  0  0  0  0
  -38.9946   59.1881   65.5461 C   0  0  0  0  0  0  0  0  0  0  0  0
  -40.3403   58.5989   65.1372 C   0  0  0  0  0  0  0  0  0  0  0  0
  -41.4906   59.5773   65.2863 C   0  0  0  0  0  0  0  0  0  0  0  0
  -42.7262   59.2282   64.4858 C   0  0  0  0  0  0  0  0  0  0  0  0
  -42.7858   57.8008   64.2138 N   0  0  0  0  0  0  0  0  0  0  0  0
  -43.2919   55.7048   64.8803 O   0  0  0  0  0  0  0  0  0  0  0  0
  -43.2538   56.9247   65.1096 C   0  0  0  0  0  0  0  0  0  0  0  0
  -42.4715   57.4685   63.3420 H   0  0  0  0  0  0  0  0  0  0  0  0
  -45.0773   57.6657   66.6259 C   0  0  0  0  0  0  0  0  0  0  0  0
  -43.7872   57.5399   66.3454 C   0  0  0  0  0  0  0  0  0  0  0  0
  -46.2429   57.2161   65.8013 C   0  0  0  0  0  0  0  0  0  0  0  0
  -47.5668   57.6820   66.3946 C   0  0  0  0  0  0  0  0  0  0  0  0
  -47.9311   59.1118   66.0341 C   0  0  0  0  0  0  0  0  0  0  0  0
  -47.8038   59.4164   64.5508 C   0  0  0  0  0  0  0  0  0  0  0  0
  -48.6347   60.5953   64.0803 C   0  0  0  0  0  0  0  0  0  0  0  0
  -49.8479   60.8678   64.9540 C   0  0  0  0  0  0  0  0  0  0  0  0
  -51.0647   60.0472   64.5735 C   0  0  0  0  0  0  0  0  0  0  0  0
  -51.1143   59.7061   63.0977 C   0  0  0  0  0  0  0  0  0  0  0  0
  -50.9872   58.2259   62.7929 C   0  0  0  0  0  0  0  0  0  0  0  0
  -49.9498   57.9347   61.7265 C   0  0  0  0  0  0  0  0  0  0  0  0
  -50.5345   57.8634   60.3254 C   0  0  0  0  0  0  0  0  0  0  0  0
  -49.5001   57.6760   59.2291 C   0  0  0  0  0  0  0  0  0  0  0  0
  -48.1186   58.2085   59.5770 C   0  0  0  0  0  0  0  0  0  0  0  0
  -46.9766   57.3270   59.0903 C   0  0  0  0  0  0  0  0  0  0  0  0
  -47.4409   55.9995   58.5130 C   0  0  0  0  0  0  0  0  0  0  0  0
  -47.6716   56.9916   56.2024 C   0  0  0  0  0  0  0  0  0  0  0  0
  -47.1757   55.8334   57.0276 C   0  0  0  0  0  0  0  0  0  0  0  0
 43 45  1  0  0  0
 43 42  1  0  0  0
 43 46  1  0  0  0
 64 65  1  0  0  0
 44 45  2  0  0  0
 65 63  1  0  0  0
  2  1  1  0  0  0
  2  4  1  0  0  0
  2  5  1  0  0  0
  3  4  2  0  0  0
 63 62  1  0  0  0
  6  8  1  0  0  0
  6 11  2  0  0  0
  7 10  1  0  0  0
  7 11  1  0  0  0
 62 61  1  0  0  0
 26 28  1  0  0  0
 26 32  1  0  0  0
 26 29  1  0  0  0
 12 18  1  0  0  0
 12 19  1  0  0  0
 61 60  1  0  0  0
 30 36  1  0  0  0
 30 37  1  0  0  0
 30 38  1  0  0  0
 20 21  2  0  0  0
 60 59  1  0  0  0
 22 21  1  0  0  0
 22 23  1  0  0  0
 59 58  1  0  0  0
 27 28  2  0  0  0
 58 57  1  0  0  0
 31 37  2  0  0  0
 57 56  1  0  0  0
 56 55  1  0  0  0
 55 54  1  0  0  0
 54 53  1  0  0  0
 53 52  1  0  0  0
 52 51  1  0  0  0
 51 50  1  0  0  0
 50 49  1  0  0  0
 49 47  1  0  0  0
 47 48  2  0  0  0
 48 45  1  0  0  0
 42 41  1  0  0  0
 41 40  1  0  0  0
 40 39  1  0  0  0
 39  1  1  0  0  0
  1 21  1  0  0  0
  8  4  1  0  0  0
  8  9  1  0  0  0
  8 10  1  0  0  0
 11 13  1  0  0  0
 13 14  2  0  0  0
 13 18  1  0  0  0
 14 15  1  0  0  0
 15 16  2  0  0  0
 16 17  1  0  0  0
 17 18  2  0  0  0
 23 24  1  0  0  0
 23 25  1  0  0  0
 25 28  1  0  0  0
 32 33  1  0  0  0
 32 37  1  0  0  0
 33 34  1  0  0  0
 34 35  1  0  0  0
 35 36  1  0  0  0
M  END
> <minimizedAffinity>
-10.23667

> <CNNscore>
0.2070965618

> <CNNaffinity>
7.2187700272

> <CNN_VS>
1.4949824810

> <CNNaffinity_variance>
1.4774603844

$$$$
/media/chris/experiments/cd1a-new-docking/inputs/ligands/7ryo_ligand.pdb


 65 67  0  0  0  0  0  0  0  0999 V2000
  -39.3033   60.1730   64.5356 C   0  0  0  0  0  0  0  0  0  0  0  0
  -38.4886   59.4219   63.5953 N   0  0  0  0  0  0  0  0  0  0  0  0
  -39.1318   60.6544   61.8286 O   0  0  0  0  0  0  0  0  0  0  0  0
  -38.4755   59.7365   62.2977 C   0  0  0  0  0  0  0  0  0  0  0  0
  -37.9395   58.6715   63.9190 H   0  0  0  0  0  0  0  0  0  0  0  0
  -36.1916   59.2677   61.5001 N   0  0  0  0  0  0  0  0  0  0  0  0
  -36.2046   57.0318   61.7885 O   0  0  0  0  0  0  0  0  0  0  0  0
  -37.6047   58.8768   61.3667 C   0  0  0  0  0  0  0  0  0  0  0  0
  -38.0493   59.1048   59.9251 C   0  0  0  0  0  0  0  0  0  0  0  0
  -37.6099   57.3854   61.7332 C   0  0  0  0  0  0  0  0  0  0  0  0
  -35.5299   58.2093   61.7265 C   0  0  0  0  0  0  0  0  0  0  0  0
  -33.9936   60.3321   62.9171 O   0  0  0  0  0  0  0  0  0  0  0  0
  -34.0814   58.1219   61.9261 C   0  0  0  0  0  0  0  0  0  0  0  0
  -33.4098   56.9258   61.6696 C   0  0  0  0  0  0  0  0  0  0  0  0
  -32.0991   56.7543   62.0806 C   0  0  0  0  0  0  0  0  0  0  0  0
  -31.4397   57.7630   62.7487 C   0  0  0  0  0  0  0  0  0  0  0  0
  -32.0842   58.9563   63.0193 C   0  0  0  0  0  0  0  0  0  0  0  0
  -33.4021   59.1469   62.6161 C   0  0  0  0  0  0  0  0  0  0  0  0
  -34.8804   60.4919   62.6596 H   0  0  0  0  0  0  0  0  0  0  0  0
  -38.7664   60.1646   66.8920 O   0  0  0  0  0  0  0  0  0  0  0  0
  -38.5102   60.5396   65.7811 C   0  0  0  0  0  0  0  0  0  0  0  0
  -37.4927   61.3604   65.4678 O   0  0  0  0  0  0  0  0  0  0  0  0
  -36.1811   60.7639   65.1967 C   0  0  0  0  0  0  0  0  0  0  0  0
  -36.3052   59.2695   65.3556 C   0  0  0  0  0  0  0  0  0  0  0  0
  -35.2371   61.3757   66.2134 C   0  0  0  0  0  0  0  0  0  0  0  0
  -35.4135   63.7863   66.2015 N   0  0  0  0  0  0  0  0  0  0  0  0
  -36.4943   62.6422   67.8092 O   0  0  0  0  0  0  0  0  0  0  0  0
  -35.7703   62.6557   66.8177 C   0  0  0  0  0  0  0  0  0  0  0  0
  -35.7327   64.6466   66.5583 H   0  0  0  0  0  0  0  0  0  0  0  0
  -32.1813   64.0195   64.5914 N   0  0  0  0  0  0  0  0  0  0  0  0
  -33.0319   64.9243   66.4592 O   0  0  0  0  0  0  0  0  0  0  0  0
  -34.5683   63.7825   65.0203 C   0  0  0  0  0  0  0  0  0  0  0  0
  -35.1623   64.6991   63.9447 C   0  0  0  0  0  0  0  0  0  0  0  0
  -34.6255   64.4250   62.5440 C   0  0  0  0  0  0  0  0  0  0  0  0
  -33.1339   64.6285   62.3664 C   0  0  0  0  0  0  0  0  0  0  0  0
  -32.2777   63.6776   63.1763 C   0  0  0  0  0  0  0  0  0  0  0  0
  -33.1924   64.2923   65.4192 C   0  0  0  0  0  0  0  0  0  0  0  0
  -31.2757   64.0526   64.9761 H   0  0  0  0  0  0  0  0  0  0  0  0
  -40.5752   59.4075   64.9036 C   0  0  0  0  0  0  0  0  0  0  0  0
  -40.4229   57.9025   64.7110 C   0  0  0  0  0  0  0  0  0  0  0  0
  -41.1389   57.3828   63.4782 C   0  0  0  0  0  0  0  0  0  0  0  0
  -42.4541   56.6881   63.7558 C   0  0  0  0  0  0  0  0  0  0  0  0
  -42.7034   56.5948   65.1856 N   0  0  0  0  0  0  0  0  0  0  0  0
  -43.8589   57.2418   67.0132 O   0  0  0  0  0  0  0  0  0  0  0  0
  -43.6560   57.3133   65.7900 C   0  0  0  0  0  0  0  0  0  0  0  0
  -42.1532   55.9829   65.7261 H   0  0  0  0  0  0  0  0  0  0  0  0
  -45.8102   58.1143   64.8460 C   0  0  0  0  0  0  0  0  0  0  0  0
  -44.4842   58.1260   64.8716 C   0  0  0  0  0  0  0  0  0  0  0  0
  -46.7369   57.3245   65.7165 C   0  0  0  0  0  0  0  0  0  0  0  0
  -47.9171   58.1634   66.1912 C   0  0  0  0  0  0  0  0  0  0  0  0
  -49.2624   57.4776   66.0275 C   0  0  0  0  0  0  0  0  0  0  0  0
  -50.4424   58.4338   66.0762 C   0  0  0  0  0  0  0  0  0  0  0  0
  -50.0649   59.8996   65.9728 C   0  0  0  0  0  0  0  0  0  0  0  0
  -51.0343   60.7166   65.1347 C   0  0  0  0  0  0  0  0  0  0  0  0
  -51.1767   60.2137   63.7114 C   0  0  0  0  0  0  0  0  0  0  0  0
  -49.8613   60.1758   62.9596 C   0  0  0  0  0  0  0  0  0  0  0  0
  -49.4037   58.7836   62.5692 C   0  0  0  0  0  0  0  0  0  0  0  0
  -50.5598   57.8475   62.2775 C   0  0  0  0  0  0  0  0  0  0  0  0
  -50.4574   57.1738   60.9189 C   0  0  0  0  0  0  0  0  0  0  0  0
  -50.1126   58.1190   59.7810 C   0  0  0  0  0  0  0  0  0  0  0  0
  -49.0945   57.5653   58.7964 C   0  0  0  0  0  0  0  0  0  0  0  0
  -47.7216   58.2159   58.8964 C   0  0  0  0  0  0  0  0  0  0  0  0
  -46.5820   57.2858   58.5128 C   0  0  0  0  0  0  0  0  0  0  0  0
  -47.0352   55.5723   56.7142 C   0  0  0  0  0  0  0  0  0  0  0  0
  -47.0114   55.8658   58.1912 C   0  0  0  0  0  0  0  0  0  0  0  0
 43 45  1  0  0  0
 43 42  1  0  0  0
 43 46  1  0  0  0
 64 65  1  0  0  0
 44 45  2  0  0  0
 65 63  1  0  0  0
  2  1  1  0  0  0
  2  4  1  0  0  0
  2  5  1  0  0  0
  3  4  2  0  0  0
 63 62  1  0  0  0
  6  8  1  0  0  0
  6 11  2  0  0  0
  7 10  1  0  0  0
  7 11  1  0  0  0
 62 61  1  0  0  0
 26 28  1  0  0  0
 26 32  1  0  0  0
 26 29  1  0  0  0
 12 18  1  0  0  0
 12 19  1  0  0  0
 61 60  1  0  0  0
 30 36  1  0  0  0
 30 37  1  0  0  0
 30 38  1  0  0  0
 20 21  2  0  0  0
 60 59  1  0  0  0
 22 21  1  0  0  0
 22 23  1  0  0  0
 59 58  1  0  0  0
 27 28  2  0  0  0
 58 57  1  0  0  0
 31 37  2  0  0  0
 57 56  1  0  0  0
 56 55  1  0  0  0
 55 54  1  0  0  0
 54 53  1  0  0  0
 53 52  1  0  0  0
 52 51  1  0  0  0
 51 50  1  0  0  0
 50 49  1  0  0  0
 49 47  1  0  0  0
 47 48  2  0  0  0
 48 45  1  0  0  0
 42 41  1  0  0  0
 41 40  1  0  0  0
 40 39  1  0  0  0
 39  1  1  0  0  0
  1 21  1  0  0  0
  8  4  1  0  0  0
  8  9  1  0  0  0
  8 10  1  0  0  0
 11 13  1  0  0  0
 13 14  2  0  0  0
 13 18  1  0  0  0
 14 15  1  0  0  0
 15 16  2  0  0  0
 16 17  1  0  0  0
 17 18  2  0  0  0
 23 24  1  0  0  0
 23 25  1  0  0  0
 25 28  1  0  0  0
 32 33  1  0  0  0
 32 37  1  0  0  0
 33 34  1  0  0  0
 34 35  1  0  0  0
 35 36  1  0  0  0
M  END
> <minimizedAffinity>
-10.68416

> <CNNscore>
0.1964864731

> <CNNaffinity>
7.3050355911

> <CNN_VS>
1.4353406429

> <CNNaffinity_variance>
1.4565013647

$$$$
/media/chris/experiments/cd1a-new-docking/inputs/ligands/7ryo_ligand.pdb


 65 67  0  0  0  0  0  0  0  0999 V2000
  -41.3637   60.4004   64.3322 C   0  0  0  0  0  0  0  0  0  0  0  0
  -42.4072   59.4983   64.7900 N   0  0  0  0  0  0  0  0  0  0  0  0
  -41.0279   58.3601   66.1524 O   0  0  0  0  0  0  0  0  0  0  0  0
  -42.1402   58.5379   65.6784 C   0  0  0  0  0  0  0  0  0  0  0  0
  -43.3224   59.5965   64.4407 H   0  0  0  0  0  0  0  0  0  0  0  0
  -44.5525   58.3752   66.1539 N   0  0  0  0  0  0  0  0  0  0  0  0
  -45.0171   56.5978   64.8470 O   0  0  0  0  0  0  0  0  0  0  0  0
  -43.2953   57.6115   66.0923 C   0  0  0  0  0  0  0  0  0  0  0  0
  -42.9957   57.0354   67.4729 C   0  0  0  0  0  0  0  0  0  0  0  0
  -43.5866   56.5058   65.0669 C   0  0  0  0  0  0  0  0  0  0  0  0
  -45.4055   57.7496   65.4538 C   0  0  0  0  0  0  0  0  0  0  0  0
  -47.6336   56.1315   66.2912 O   0  0  0  0  0  0  0  0  0  0  0  0
  -46.7984   58.1451   65.2318 C   0  0  0  0  0  0  0  0  0  0  0  0
  -47.0948   59.4107   64.7239 C   0  0  0  0  0  0  0  0  0  0  0  0
  -48.3948   59.8862   64.7380 C   0  0  0  0  0  0  0  0  0  0  0  0
  -49.4140   59.1156   65.2539 C   0  0  0  0  0  0  0  0  0  0  0  0
  -49.1461   57.8598   65.7675 C   0  0  0  0  0  0  0  0  0  0  0  0
  -47.8457   57.3653   65.7640 C   0  0  0  0  0  0  0  0  0  0  0  0
  -46.7693   55.7697   66.3041 H   0  0  0  0  0  0  0  0  0  0  0  0
  -41.3868   61.6072   66.4260 O   0  0  0  0  0  0  0  0  0  0  0  0
  -40.7649   61.1832   65.4912 C   0  0  0  0  0  0  0  0  0  0  0  0
  -39.4433   61.3531   65.3129 O   0  0  0  0  0  0  0  0  0  0  0  0
  -38.5466   60.2609   65.7039 C   0  0  0  0  0  0  0  0  0  0  0  0
  -38.0405   60.5467   67.0953 C   0  0  0  0  0  0  0  0  0  0  0  0
  -37.4336   60.2591   64.6742 C   0  0  0  0  0  0  0  0  0  0  0  0
  -35.0861   59.9594   65.1661 N   0  0  0  0  0  0  0  0  0  0  0  0
  -36.4377   58.1634   65.2637 O   0  0  0  0  0  0  0  0  0  0  0  0
  -36.2769   59.3631   65.0578 C   0  0  0  0  0  0  0  0  0  0  0  0
  -34.3008   59.4182   65.4107 H   0  0  0  0  0  0  0  0  0  0  0  0
  -33.9123   62.7500   63.1841 N   0  0  0  0  0  0  0  0  0  0  0  0
  -33.1732   60.6510   63.4644 O   0  0  0  0  0  0  0  0  0  0  0  0
  -34.9170   61.3831   64.9333 C   0  0  0  0  0  0  0  0  0  0  0  0
  -34.3779   62.0630   66.1970 C   0  0  0  0  0  0  0  0  0  0  0  0
  -34.5901   63.5729   66.2163 C   0  0  0  0  0  0  0  0  0  0  0  0
  -33.9014   64.3419   65.1063 C   0  0  0  0  0  0  0  0  0  0  0  0
  -34.4087   64.0140   63.7177 C   0  0  0  0  0  0  0  0  0  0  0  0
  -33.9241   61.5637   63.7960 C   0  0  0  0  0  0  0  0  0  0  0  0
  -33.5283   62.7746   62.2780 H   0  0  0  0  0  0  0  0  0  0  0  0
  -41.8823   61.3439   63.2459 C   0  0  0  0  0  0  0  0  0  0  0  0
  -41.1890   61.1228   61.9058 C   0  0  0  0  0  0  0  0  0  0  0  0
  -39.9826   60.2075   62.0015 C   0  0  0  0  0  0  0  0  0  0  0  0
  -38.9708   60.3755   60.8891 C   0  0  0  0  0  0  0  0  0  0  0  0
  -37.6143   60.3781   61.4134 N   0  0  0  0  0  0  0  0  0  0  0  0
  -35.7111   59.2726   61.9129 O   0  0  0  0  0  0  0  0  0  0  0  0
  -36.8647   59.2711   61.4530 C   0  0  0  0  0  0  0  0  0  0  0  0
  -37.2354   61.2220   61.7503 H   0  0  0  0  0  0  0  0  0  0  0  0
  -38.2321   57.1969   61.4914 C   0  0  0  0  0  0  0  0  0  0  0  0
  -37.4953   58.0833   60.8353 C   0  0  0  0  0  0  0  0  0  0  0  0
  -38.5970   57.2031   62.9430 C   0  0  0  0  0  0  0  0  0  0  0  0
  -40.1047   57.1159   63.1461 C   0  0  0  0  0  0  0  0  0  0  0  0
  -40.7258   55.8457   62.5914 C   0  0  0  0  0  0  0  0  0  0  0  0
  -41.7701   56.0985   61.5168 C   0  0  0  0  0  0  0  0  0  0  0  0
  -41.7418   57.4987   60.9335 C   0  0  0  0  0  0  0  0  0  0  0  0
  -41.3324   57.5368   59.4705 C   0  0  0  0  0  0  0  0  0  0  0  0
  -41.6294   58.8602   58.7929 C   0  0  0  0  0  0  0  0  0  0  0  0
  -41.8963   58.7211   57.3075 C   0  0  0  0  0  0  0  0  0  0  0  0
  -43.3107   59.0749   56.8900 C   0  0  0  0  0  0  0  0  0  0  0  0
  -44.3189   58.0112   57.2775 C   0  0  0  0  0  0  0  0  0  0  0  0
  -45.7531   58.5142   57.2709 C   0  0  0  0  0  0  0  0  0  0  0  0
  -46.6441   57.8652   58.3158 C   0  0  0  0  0  0  0  0  0  0  0  0
  -48.0845   57.6653   57.8707 C   0  0  0  0  0  0  0  0  0  0  0  0
  -49.0919   57.6857   59.0121 C   0  0  0  0  0  0  0  0  0  0  0  0
  -48.4859   57.3303   60.3602 C   0  0  0  0  0  0  0  0  0  0  0  0
  -49.6831   59.4474   61.0393 C   0  0  0  0  0  0  0  0  0  0  0  0
  -48.9131   58.2376   61.4997 C   0  0  0  0  0  0  0  0  0  0  0  0
 43 45  1  0  0  0
 43 42  1  0  0  0
 43 46  1  0  0  0
 64 65  1  0  0  0
 44 45  2  0  0  0
 65 63  1  0  0  0
  2  1  1  0  0  0
  2  4  1  0  0  0
  2  5  1  0  0  0
  3  4  2  0  0  0
 63 62  1  0  0  0
  6  8  1  0  0  0
  6 11  2  0  0  0
  7 10  1  0  0  0
  7 11  1  0  0  0
 62 61  1  0  0  0
 26 28  1  0  0  0
 26 32  1  0  0  0
 26 29  1  0  0  0
 12 18  1  0  0  0
 12 19  1  0  0  0
 61 60  1  0  0  0
 30 36  1  0  0  0
 30 37  1  0  0  0
 30 38  1  0  0  0
 20 21  2  0  0  0
 60 59  1  0  0  0
 22 21  1  0  0  0
 22 23  1  0  0  0
 59 58  1  0  0  0
 27 28  2  0  0  0
 58 57  1  0  0  0
 31 37  2  0  0  0
 57 56  1  0  0  0
 56 55  1  0  0  0
 55 54  1  0  0  0
 54 53  1  0  0  0
 53 52  1  0  0  0
 52 51  1  0  0  0
 51 50  1  0  0  0
 50 49  1  0  0  0
 49 47  1  0  0  0
 47 48  2  0  0  0
 48 45  1  0  0  0
 42 41  1  0  0  0
 41 40  1  0  0  0
 40 39  1  0  0  0
 39  1  1  0  0  0
  1 21  1  0  0  0
  8  4  1  0  0  0
  8  9  1  0  0  0
  8 10  1  0  0  0
 11 13  1  0  0  0
 13 14  2  0  0  0
 13 18  1  0  0  0
 14 15  1  0  0  0
 15 16  2  0  0  0
 16 17  1  0  0  0
 17 18  2  0  0  0
 23 24  1  0  0  0
 23 25  1  0  0  0
 25 28  1  0  0  0
 32 33  1  0  0  0
 32 37  1  0  0  0
 33 34  1  0  0  0
 34 35  1  0  0  0
 35 36  1  0  0  0
M  END
> <minimizedAffinity>
-7.74226

> <CNNscore>
0.1723167300

> <CNNaffinity>
7.8830795288

> <CNN_VS>
1.3583865166

> <CNNaffinity_variance>
1.8438555002

$$$$
/media/chris/experiments/cd1a-new-docking/inputs/ligands/7ryo_ligand.pdb


 65 67  0  0  0  0  0  0  0  0999 V2000
  -39.9116   59.1888   64.9361 C   0  0  0  0  0  0  0  0  0  0  0  0
  -40.9753   58.4160   65.5556 N   0  0  0  0  0  0  0  0  0  0  0  0
  -42.6028   59.4727   64.4205 O   0  0  0  0  0  0  0  0  0  0  0  0
  -42.2535   58.6318   65.2356 C   0  0  0  0  0  0  0  0  0  0  0  0
  -40.7505   57.7249   66.2197 H   0  0  0  0  0  0  0  0  0  0  0  0
  -44.5642   58.5605   66.0887 N   0  0  0  0  0  0  0  0  0  0  0  0
  -45.1914   56.6086   65.1509 O   0  0  0  0  0  0  0  0  0  0  0  0
  -43.3185   57.7873   65.9544 C   0  0  0  0  0  0  0  0  0  0  0  0
  -42.8057   57.4255   67.3450 C   0  0  0  0  0  0  0  0  0  0  0  0
  -43.7428   56.5408   65.1638 C   0  0  0  0  0  0  0  0  0  0  0  0
  -45.5026   57.8419   65.6281 C   0  0  0  0  0  0  0  0  0  0  0  0
  -47.6187   55.9946   66.2554 O   0  0  0  0  0  0  0  0  0  0  0  0
  -46.9191   58.2091   65.5616 C   0  0  0  0  0  0  0  0  0  0  0  0
  -47.2891   59.5336   65.3243 C   0  0  0  0  0  0  0  0  0  0  0  0
  -48.6012   59.9383   65.4996 C   0  0  0  0  0  0  0  0  0  0  0  0
  -49.5601   59.0381   65.9107 C   0  0  0  0  0  0  0  0  0  0  0  0
  -49.2185   57.7208   66.1570 C   0  0  0  0  0  0  0  0  0  0  0  0
  -47.9046   57.2955   65.9885 C   0  0  0  0  0  0  0  0  0  0  0  0
  -46.7433   55.6765   66.1518 H   0  0  0  0  0  0  0  0  0  0  0  0
  -40.4706   61.3102   65.9500 O   0  0  0  0  0  0  0  0  0  0  0  0
  -39.6452   60.4742   65.7051 C   0  0  0  0  0  0  0  0  0  0  0  0
  -38.3497   60.5545   66.0553 O   0  0  0  0  0  0  0  0  0  0  0  0
  -37.3378   60.3101   65.0228 C   0  0  0  0  0  0  0  0  0  0  0  0
  -36.3352   59.3278   65.5738 C   0  0  0  0  0  0  0  0  0  0  0  0
  -36.7190   61.6632   64.7303 C   0  0  0  0  0  0  0  0  0  0  0  0
  -35.2581   63.2319   65.8471 N   0  0  0  0  0  0  0  0  0  0  0  0
  -36.8846   62.2436   67.0469 O   0  0  0  0  0  0  0  0  0  0  0  0
  -36.2957   62.4008   65.9811 C   0  0  0  0  0  0  0  0  0  0  0  0
  -34.9424   63.7333   66.6334 H   0  0  0  0  0  0  0  0  0  0  0  0
  -32.2650   63.4180   63.8222 N   0  0  0  0  0  0  0  0  0  0  0  0
  -32.6983   63.9152   65.9659 O   0  0  0  0  0  0  0  0  0  0  0  0
  -34.5826   63.4169   64.5747 C   0  0  0  0  0  0  0  0  0  0  0  0
  -35.1339   64.6565   63.8610 C   0  0  0  0  0  0  0  0  0  0  0  0
  -34.8353   64.6840   62.3659 C   0  0  0  0  0  0  0  0  0  0  0  0
  -33.3658   64.7140   61.9954 C   0  0  0  0  0  0  0  0  0  0  0  0
  -32.5982   63.4739   62.4028 C   0  0  0  0  0  0  0  0  0  0  0  0
  -33.0987   63.6055   64.8477 C   0  0  0  0  0  0  0  0  0  0  0  0
  -31.3269   63.2214   64.0473 H   0  0  0  0  0  0  0  0  0  0  0  0
  -40.2229   59.4850   63.4683 C   0  0  0  0  0  0  0  0  0  0  0  0
  -40.3713   58.2142   62.6386 C   0  0  0  0  0  0  0  0  0  0  0  0
  -39.4257   57.1075   63.0671 C   0  0  0  0  0  0  0  0  0  0  0  0
  -38.2157   56.9286   62.1764 C   0  0  0  0  0  0  0  0  0  0  0  0
  -37.0437   57.5676   62.7535 N   0  0  0  0  0  0  0  0  0  0  0  0
  -35.1319   58.7393   62.4961 O   0  0  0  0  0  0  0  0  0  0  0  0
  -36.1389   58.2053   62.0028 C   0  0  0  0  0  0  0  0  0  0  0  0
  -36.9119   57.5295   63.7284 H   0  0  0  0  0  0  0  0  0  0  0  0
  -37.2885   59.1945   60.0348 C   0  0  0  0  0  0  0  0  0  0  0  0
  -36.4832   58.2843   60.5656 C   0  0  0  0  0  0  0  0  0  0  0  0
  -37.9905   60.3168   60.7336 C   0  0  0  0  0  0  0  0  0  0  0  0
  -39.4164   60.4933   60.2262 C   0  0  0  0  0  0  0  0  0  0  0  0
  -39.8229   59.4771   59.1730 C   0  0  0  0  0  0  0  0  0  0  0  0
  -41.0297   58.6420   59.5676 C   0  0  0  0  0  0  0  0  0  0  0  0
  -41.8227   58.0952   58.3954 C   0  0  0  0  0  0  0  0  0  0  0  0
  -41.9419   59.0717   57.2371 C   0  0  0  0  0  0  0  0  0  0  0  0
  -43.3238   59.1066   56.6143 C   0  0  0  0  0  0  0  0  0  0  0  0
  -44.3055   58.1721   57.2924 C   0  0  0  0  0  0  0  0  0  0  0  0
  -45.7392   58.6665   57.2971 C   0  0  0  0  0  0  0  0  0  0  0  0
  -46.7483   57.5359   57.3319 C   0  0  0  0  0  0  0  0  0  0  0  0
  -46.9605   56.9647   58.7243 C   0  0  0  0  0  0  0  0  0  0  0  0
  -47.9902   57.7132   59.5527 C   0  0  0  0  0  0  0  0  0  0  0  0
  -49.4278   57.4960   59.1065 C   0  0  0  0  0  0  0  0  0  0  0  0
  -50.4539   57.6870   60.2150 C   0  0  0  0  0  0  0  0  0  0  0  0
  -49.8642   57.5728   61.6114 C   0  0  0  0  0  0  0  0  0  0  0  0
  -49.7414   60.0732   61.9419 C   0  0  0  0  0  0  0  0  0  0  0  0
  -50.1690   58.7499   62.5201 C   0  0  0  0  0  0  0  0  0  0  0  0
 43 45  1  0  0  0
 43 42  1  0  0  0
 43 46  1  0  0  0
 64 65  1  0  0  0
 44 45  2  0  0  0
 65 63  1  0  0  0
  2  1  1  0  0  0
  2  4  1  0  0  0
  2  5  1  0  0  0
  3  4  2  0  0  0
 63 62  1  0  0  0
  6  8  1  0  0  0
  6 11  2  0  0  0
  7 10  1  0  0  0
  7 11  1  0  0  0
 62 61  1  0  0  0
 26 28  1  0  0  0
 26 32  1  0  0  0
 26 29  1  0  0  0
 12 18  1  0  0  0
 12 19  1  0  0  0
 61 60  1  0  0  0
 30 36  1  0  0  0
 30 37  1  0  0  0
 30 38  1  0  0  0
 20 21  2  0  0  0
 60 59  1  0  0  0
 22 21  1  0  0  0
 22 23  1  0  0  0
 59 58  1  0  0  0
 27 28  2  0  0  0
 58 57  1  0  0  0
 31 37  2  0  0  0
 57 56  1  0  0  0
 56 55  1  0  0  0
 55 54  1  0  0  0
 54 53  1  0  0  0
 53 52  1  0  0  0
 52 51  1  0  0  0
 51 50  1  0  0  0
 50 49  1  0  0  0
 49 47  1  0  0  0
 47 48  2  0  0  0
 48 45  1  0  0  0
 42 41  1  0  0  0
 41 40  1  0  0  0
 40 39  1  0  0  0
 39  1  1  0  0  0
  1 21  1  0  0  0
  8  4  1  0  0  0
  8  9  1  0  0  0
  8 10  1  0  0  0
 11 13  1  0  0  0
 13 14  2  0  0  0
 13 18  1  0  0  0
 14 15  1  0  0  0
 15 16  2  0  0  0
 16 17  1  0  0  0
 17 18  2  0  0  0
 23 24  1  0  0  0
 23 25  1  0  0  0
 25 28  1  0  0  0
 32 33  1  0  0  0
 32 37  1  0  0  0
 33 34  1  0  0  0
 34 35  1  0  0  0
 35 36  1  0  0  0
M  END
> <minimizedAffinity>
-8.24446

> <CNNscore>
0.1716074198

> <CNNaffinity>
7.7719802856

> <CNN_VS>
1.3337295055

> <CNNaffinity_variance>
1.2519736290

$$$$
/media/chris/experiments/cd1a-new-docking/inputs/ligands/7ryo_ligand.pdb


 65 67  0  0  0  0  0  0  0  0999 V2000
  -37.6496   60.0823   61.7715 C   0  0  0  0  0  0  0  0  0  0  0  0
  -37.0948   60.5057   63.0463 N   0  0  0  0  0  0  0  0  0  0  0  0
  -35.0235   59.7869   62.5493 O   0  0  0  0  0  0  0  0  0  0  0  0
  -35.8033   60.3159   63.3274 C   0  0  0  0  0  0  0  0  0  0  0  0
  -37.6785   60.9377   63.7111 H   0  0  0  0  0  0  0  0  0  0  0  0
  -34.2172   61.7542   64.5471 N   0  0  0  0  0  0  0  0  0  0  0  0
  -35.6868   62.7360   65.9467 O   0  0  0  0  0  0  0  0  0  0  0  0
  -35.3018   60.7717   64.7076 C   0  0  0  0  0  0  0  0  0  0  0  0
  -34.7663   59.5593   65.4633 C   0  0  0  0  0  0  0  0  0  0  0  0
  -36.3631   61.5253   65.5227 C   0  0  0  0  0  0  0  0  0  0  0  0
  -34.5225   62.7669   65.2475 C   0  0  0  0  0  0  0  0  0  0  0  0
  -33.6445   63.7638   67.8008 O   0  0  0  0  0  0  0  0  0  0  0  0
  -33.7295   63.9904   65.3891 C   0  0  0  0  0  0  0  0  0  0  0  0
  -33.2455   64.6465   64.2566 C   0  0  0  0  0  0  0  0  0  0  0  0
  -32.3017   65.6519   64.3772 C   0  0  0  0  0  0  0  0  0  0  0  0
  -31.8275   66.0186   65.6179 C   0  0  0  0  0  0  0  0  0  0  0  0
  -32.2876   65.3809   66.7556 C   0  0  0  0  0  0  0  0  0  0  0  0
  -33.2345   64.3666   66.6546 C   0  0  0  0  0  0  0  0  0  0  0  0
  -34.2813   63.0771   67.7671 H   0  0  0  0  0  0  0  0  0  0  0  0
  -39.7189   60.5265   60.6046 O   0  0  0  0  0  0  0  0  0  0  0  0
  -39.1035   60.5090   61.6348 C   0  0  0  0  0  0  0  0  0  0  0  0
  -39.5990   60.8846   62.8267 O   0  0  0  0  0  0  0  0  0  0  0  0
  -40.9770   60.5053   63.1536 C   0  0  0  0  0  0  0  0  0  0  0  0
  -41.9032   61.5019   62.5034 C   0  0  0  0  0  0  0  0  0  0  0  0
  -41.0616   60.5412   64.6671 C   0  0  0  0  0  0  0  0  0  0  0  0
  -41.0912   58.3852   65.7594 N   0  0  0  0  0  0  0  0  0  0  0  0
  -39.1067   59.3962   65.4408 O   0  0  0  0  0  0  0  0  0  0  0  0
  -40.3291   59.3934   65.3260 C   0  0  0  0  0  0  0  0  0  0  0  0
  -40.6617   57.6156   66.1983 H   0  0  0  0  0  0  0  0  0  0  0  0
  -44.4473   58.2213   67.1023 N   0  0  0  0  0  0  0  0  0  0  0  0
  -42.4935   57.3276   67.7465 O   0  0  0  0  0  0  0  0  0  0  0  0
  -42.5350   58.3919   65.6017 C   0  0  0  0  0  0  0  0  0  0  0  0
  -42.9464   57.4361   64.4761 C   0  0  0  0  0  0  0  0  0  0  0  0
  -44.3466   57.6990   63.9325 C   0  0  0  0  0  0  0  0  0  0  0  0
  -45.4745   57.5388   64.9325 C   0  0  0  0  0  0  0  0  0  0  0  0
  -45.4358   58.5319   66.0751 C   0  0  0  0  0  0  0  0  0  0  0  0
  -43.1579   57.9335   66.9108 C   0  0  0  0  0  0  0  0  0  0  0  0
  -44.7644   58.2242   68.0343 H   0  0  0  0  0  0  0  0  0  0  0  0
  -37.5027   58.5726   61.5758 C   0  0  0  0  0  0  0  0  0  0  0  0
  -38.1279   57.7761   62.7160 C   0  0  0  0  0  0  0  0  0  0  0  0
  -38.8573   56.5315   62.2452 C   0  0  0  0  0  0  0  0  0  0  0  0
  -40.1517   56.2428   62.9736 C   0  0  0  0  0  0  0  0  0  0  0  0
  -41.1318   55.6466   62.0797 N   0  0  0  0  0  0  0  0  0  0  0  0
  -42.6296   55.8559   60.4044 O   0  0  0  0  0  0  0  0  0  0  0  0
  -41.7836   56.3642   61.1582 C   0  0  0  0  0  0  0  0  0  0  0  0
  -41.3218   54.6836   62.1553 H   0  0  0  0  0  0  0  0  0  0  0  0
  -41.2101   58.4473   59.9312 C   0  0  0  0  0  0  0  0  0  0  0  0
  -41.3532   57.7772   61.0667 C   0  0  0  0  0  0  0  0  0  0  0  0
  -41.4590   57.9561   58.5393 C   0  0  0  0  0  0  0  0  0  0  0  0
  -41.7866   59.1001   57.5875 C   0  0  0  0  0  0  0  0  0  0  0  0
  -42.8274   58.7469   56.5392 C   0  0  0  0  0  0  0  0  0  0  0  0
  -44.2448   59.1212   56.9392 C   0  0  0  0  0  0  0  0  0  0  0  0
  -45.1070   57.9464   57.3613 C   0  0  0  0  0  0  0  0  0  0  0  0
  -46.5932   58.2630   57.3821 C   0  0  0  0  0  0  0  0  0  0  0  0
  -47.4455   57.2135   56.6958 C   0  0  0  0  0  0  0  0  0  0  0  0
  -48.5226   56.6409   57.5952 C   0  0  0  0  0  0  0  0  0  0  0  0
  -49.0586   57.6142   58.6275 C   0  0  0  0  0  0  0  0  0  0  0  0
  -48.6899   57.2254   60.0456 C   0  0  0  0  0  0  0  0  0  0  0  0
  -49.8454   56.6105   60.8180 C   0  0  0  0  0  0  0  0  0  0  0  0
  -50.9629   57.5857   61.1454 C   0  0  0  0  0  0  0  0  0  0  0  0
  -50.5024   58.8437   61.8653 C   0  0  0  0  0  0  0  0  0  0  0  0
  -50.5300   58.7315   63.3835 C   0  0  0  0  0  0  0  0  0  0  0  0
  -50.9719   60.0103   64.0766 C   0  0  0  0  0  0  0  0  0  0  0  0
  -50.1325   58.8024   66.1291 C   0  0  0  0  0  0  0  0  0  0  0  0
  -50.9639   59.9379   65.5928 C   0  0  0  0  0  0  0  0  0  0  0  0
 43 45  1  0  0  0
 43 42  1  0  0  0
 43 46  1  0  0  0
 64 65  1  0  0  0
 44 45  2  0  0  0
 65 63  1  0  0  0
  2  1  1  0  0  0
  2  4  1  0  0  0
  2  5  1  0  0  0
  3  4  2  0  0  0
 63 62  1  0  0  0
  6  8  1  0  0  0
  6 11  2  0  0  0
  7 10  1  0  0  0
  7 11  1  0  0  0
 62 61  1  0  0  0
 26 28  1  0  0  0
 26 32  1  0  0  0
 26 29  1  0  0  0
 12 18  1  0  0  0
 12 19  1  0  0  0
 61 60  1  0  0  0
 30 36  1  0  0  0
 30 37  1  0  0  0
 30 38  1  0  0  0
 20 21  2  0  0  0
 60 59  1  0  0  0
 22 21  1  0  0  0
 22 23  1  0  0  0
 59 58  1  0  0  0
 27 28  2  0  0  0
 58 57  1  0  0  0
 31 37  2  0  0  0
 57 56  1  0  0  0
 56 55  1  0  0  0
 55 54  1  0  0  0
 54 53  1  0  0  0
 53 52  1  0  0  0
 52 51  1  0  0  0
 51 50  1  0  0  0
 50 49  1  0  0  0
 49 47  1  0  0  0
 47 48  2  0  0  0
 48 45  1  0  0  0
 42 41  1  0  0  0
 41 40  1  0  0  0
 40 39  1  0  0  0
 39  1  1  0  0  0
  1 21  1  0  0  0
  8  4  1  0  0  0
  8  9  1  0  0  0
  8 10  1  0  0  0
 11 13  1  0  0  0
 13 14  2  0  0  0
 13 18  1  0  0  0
 14 15  1  0  0  0
 15 16  2  0  0  0
 16 17  1  0  0  0
 17 18  2  0  0  0
 23 24  1  0  0  0
 23 25  1  0  0  0
 25 28  1  0  0  0
 32 33  1  0  0  0
 32 37  1  0  0  0
 33 34  1  0  0  0
 34 35  1  0  0  0
 35 36  1  0  0  0
M  END
> <minimizedAffinity>
-7.36270

> <CNNscore>
0.1698859483

> <CNNaffinity>
7.4362802505

> <CNN_VS>
1.2633194923

> <CNNaffinity_variance>
1.1082358360

$$$$
