/media/chris/experiments/cd1a-new-docking/inputs/ligands/7ryo_ligand.pdb


 65 67  0  0  0  0  0  0  0  0999 V2000
  -38.6293   58.8504   61.9983 C   0  0  0  0  0  0  0  0  0  0  0  0
  -37.4496   58.7051   62.8346 N   0  0  0  0  0  0  0  0  0  0  0  0
  -36.1673   57.9537   61.1479 O   0  0  0  0  0  0  0  0  0  0  0  0
  -36.2990   58.2601   62.3235 C   0  0  0  0  0  0  0  0  0  0  0  0
  -37.4993   58.9377   63.7899 H   0  0  0  0  0  0  0  0  0  0  0  0
  -34.1109   57.1933   62.7053 N   0  0  0  0  0  0  0  0  0  0  0  0
  -32.9430   59.0440   63.2478 O   0  0  0  0  0  0  0  0  0  0  0  0
  -35.1054   58.1134   63.2814 C   0  0  0  0  0  0  0  0  0  0  0  0
  -35.6025   57.5421   64.6058 C   0  0  0  0  0  0  0  0  0  0  0  0
  -34.3236   59.4197   63.4846 C   0  0  0  0  0  0  0  0  0  0  0  0
  -32.9906   57.7882   62.7317 C   0  0  0  0  0  0  0  0  0  0  0  0
  -30.5737   57.9230   64.2885 O   0  0  0  0  0  0  0  0  0  0  0  0
  -31.7140   57.2475   62.2590 C   0  0  0  0  0  0  0  0  0  0  0  0
  -31.6606   56.5096   61.0759 C   0  0  0  0  0  0  0  0  0  0  0  0
  -30.5233   55.7928   60.7460 C   0  0  0  0  0  0  0  0  0  0  0  0
  -29.4279   55.7987   61.5819 C   0  0  0  0  0  0  0  0  0  0  0  0
  -29.4567   56.5182   62.7627 C   0  0  0  0  0  0  0  0  0  0  0  0
  -30.5915   57.2431   63.1126 C   0  0  0  0  0  0  0  0  0  0  0  0
  -31.3220   58.4210   64.5531 H   0  0  0  0  0  0  0  0  0  0  0  0
  -40.3435   60.5401   61.7801 O   0  0  0  0  0  0  0  0  0  0  0  0
  -39.4705   60.0406   62.4348 C   0  0  0  0  0  0  0  0  0  0  0  0
  -39.0857   60.4701   63.6493 O   0  0  0  0  0  0  0  0  0  0  0  0
  -39.7384   59.8896   64.8270 C   0  0  0  0  0  0  0  0  0  0  0  0
  -40.5717   60.9648   65.4773 C   0  0  0  0  0  0  0  0  0  0  0  0
  -38.6122   59.4115   65.7227 C   0  0  0  0  0  0  0  0  0  0  0  0
  -36.9043   61.0465   65.2206 N   0  0  0  0  0  0  0  0  0  0  0  0
  -37.6948   60.9364   67.3241 O   0  0  0  0  0  0  0  0  0  0  0  0
  -37.6955   60.5302   66.1654 C   0  0  0  0  0  0  0  0  0  0  0  0
  -36.9480   60.6803   64.3077 H   0  0  0  0  0  0  0  0  0  0  0  0
  -34.9481   63.9144   64.2000 N   0  0  0  0  0  0  0  0  0  0  0  0
  -35.6058   62.0516   63.1381 O   0  0  0  0  0  0  0  0  0  0  0  0
  -35.9819   62.1326   65.5017 C   0  0  0  0  0  0  0  0  0  0  0  0
  -34.7863   61.6131   66.3080 C   0  0  0  0  0  0  0  0  0  0  0  0
  -34.0125   62.7110   67.0297 C   0  0  0  0  0  0  0  0  0  0  0  0
  -33.3793   63.7578   66.1348 C   0  0  0  0  0  0  0  0  0  0  0  0
  -34.3747   64.5931   65.3573 C   0  0  0  0  0  0  0  0  0  0  0  0
  -35.4947   62.6968   64.1764 C   0  0  0  0  0  0  0  0  0  0  0  0
  -34.9299   64.4060   63.3472 H   0  0  0  0  0  0  0  0  0  0  0  0
  -39.4626   57.5680   61.9856 C   0  0  0  0  0  0  0  0  0  0  0  0
  -40.5325   57.5818   60.8991 C   0  0  0  0  0  0  0  0  0  0  0  0
  -41.7850   56.8168   61.2846 C   0  0  0  0  0  0  0  0  0  0  0  0
  -41.5657   55.7108   62.2936 C   0  0  0  0  0  0  0  0  0  0  0  0
  -42.3965   55.9063   63.4711 N   0  0  0  0  0  0  0  0  0  0  0  0
  -40.7651   56.9072   64.6669 O   0  0  0  0  0  0  0  0  0  0  0  0
  -41.9331   56.4940   64.5794 C   0  0  0  0  0  0  0  0  0  0  0  0
  -43.3306   55.5957   63.4517 H   0  0  0  0  0  0  0  0  0  0  0  0
  -44.0117   57.2542   65.7085 C   0  0  0  0  0  0  0  0  0  0  0  0
  -42.8987   56.5333   65.7003 C   0  0  0  0  0  0  0  0  0  0  0  0
  -44.5365   58.1426   64.6242 C   0  0  0  0  0  0  0  0  0  0  0  0
  -46.0218   58.4327   64.8021 C   0  0  0  0  0  0  0  0  0  0  0  0
  -46.8132   57.2618   65.3587 C   0  0  0  0  0  0  0  0  0  0  0  0
  -47.7336   57.6409   66.5069 C   0  0  0  0  0  0  0  0  0  0  0  0
  -49.0418   58.2774   66.0765 C   0  0  0  0  0  0  0  0  0  0  0  0
  -49.0689   59.7861   66.2569 C   0  0  0  0  0  0  0  0  0  0  0  0
  -49.3600   60.5439   64.9763 C   0  0  0  0  0  0  0  0  0  0  0  0
  -50.8166   60.9384   64.8367 C   0  0  0  0  0  0  0  0  0  0  0  0
  -51.5716   60.1756   63.7652 C   0  0  0  0  0  0  0  0  0  0  0  0
  -50.6549   59.5757   62.7175 C   0  0  0  0  0  0  0  0  0  0  0  0
  -50.7585   58.0621   62.6266 C   0  0  0  0  0  0  0  0  0  0  0  0
  -51.0027   57.5392   61.2216 C   0  0  0  0  0  0  0  0  0  0  0  0
  -49.7685   56.9594   60.5480 C   0  0  0  0  0  0  0  0  0  0  0  0
  -49.4194   57.6226   59.2228 C   0  0  0  0  0  0  0  0  0  0  0  0
  -48.0330   58.2462   59.2052 C   0  0  0  0  0  0  0  0  0  0  0  0
  -46.0756   58.0225   57.6258 C   0  0  0  0  0  0  0  0  0  0  0  0
  -46.9454   57.3438   58.6511 C   0  0  0  0  0  0  0  0  0  0  0  0
 43 45  1  0  0  0
 43 42  1  0  0  0
 43 46  1  0  0  0
 64 65  1  0  0  0
 44 45  2  0  0  0
 65 63  1  0  0  0
  2  1  1  0  0  0
  2  4  1  0  0  0
  2  5  1  0  0  0
  3  4  2  0  0  0
 63 62  1  0  0  0
  6  8  1  0  0  0
  6 11  2  0  0  0
  7 10  1  0  0  0
  7 11  1  0  0  0
 62 61  1  0  0  0
 26 28  1  0  0  0
 26 32  1  0  0  0
 26 29  1  0  0  0
 12 18  1  0  0  0
 12 19  1  0  0  0
 61 60  1  0  0  0
 30 36  1  0  0  0
 30 37  1  0  0  0
 30 38  1  0  0  0
 20 21  2  0  0  0
 60 59  1  0  0  0
 22 21  1  0  0  0
 22 23  1  0  0  0
 59 58  1  0  0  0
 27 28  2  0  0  0
 58 57  1  0  0  0
 31 37  2  0  0  0
 57 56  1  0  0  0
 56 55  1  0  0  0
 55 54  1  0  0  0
 54 53  1  0  0  0
 53 52  1  0  0  0
 52 51  1  0  0  0
 51 50  1  0  0  0
 50 49  1  0  0  0
 49 47  1  0  0  0
 47 48  2  0  0  0
 48 45  1  0  0  0
 42 41  1  0  0  0
 41 40  1  0  0  0
 40 39  1  0  0  0
 39  1  1  0  0  0
  1 21  1  0  0  0
  8  4  1  0  0  0
  8  9  1  0  0  0
  8 10  1  0  0  0
 11 13  1  0  0  0
 13 14  2  0  0  0
 13 18  1  0  0  0
 14 15  1  0  0  0
 15 16  2  0  0  0
 16 17  1  0  0  0
 17 18  2  0  0  0
 23 24  1  0  0  0
 23 25  1  0  0  0
 25 28  1  0  0  0
 32 33  1  0  0  0
 32 37  1  0  0  0
 33 34  1  0  0  0
 34 35  1  0  0  0
 35 36  1  0  0  0
M  END
> <minimizedAffinity>
-10.89000

> <CNNscore>
0.3927275836

> <CNNaffinity>
7.7387666702

> <CNN_VS>
3.0392272472

> <CNNaffinity_variance>
1.5842046738

$$$$
/media/chris/experiments/cd1a-new-docking/inputs/ligands/7ryo_ligand.pdb


 65 67  0  0  0  0  0  0  0  0999 V2000
  -39.9973   58.3589   62.2824 C   0  0  0  0  0  0  0  0  0  0  0  0
  -39.0775   58.4535   63.4036 N   0  0  0  0  0  0  0  0  0  0  0  0
  -39.9407   60.3954   64.1367 O   0  0  0  0  0  0  0  0  0  0  0  0
  -39.1326   59.4857   64.2489 C   0  0  0  0  0  0  0  0  0  0  0  0
  -38.4053   57.7476   63.5417 H   0  0  0  0  0  0  0  0  0  0  0  0
  -36.8665   60.1661   64.9369 N   0  0  0  0  0  0  0  0  0  0  0  0
  -37.4208   61.2554   66.8315 O   0  0  0  0  0  0  0  0  0  0  0  0
  -38.1083   59.5214   65.3950 C   0  0  0  0  0  0  0  0  0  0  0  0
  -37.7968   58.0906   65.8234 C   0  0  0  0  0  0  0  0  0  0  0  0
  -38.5545   60.3854   66.5838 C   0  0  0  0  0  0  0  0  0  0  0  0
  -36.5883   61.0793   65.7725 C   0  0  0  0  0  0  0  0  0  0  0  0
  -35.5766   62.1578   63.3033 O   0  0  0  0  0  0  0  0  0  0  0  0
  -35.4338   61.9791   65.7164 C   0  0  0  0  0  0  0  0  0  0  0  0
  -34.8649   62.4633   66.8951 C   0  0  0  0  0  0  0  0  0  0  0  0
  -33.9414   63.4937   66.8573 C   0  0  0  0  0  0  0  0  0  0  0  0
  -33.5711   64.0552   65.6547 C   0  0  0  0  0  0  0  0  0  0  0  0
  -34.1234   63.5967   64.4726 C   0  0  0  0  0  0  0  0  0  0  0  0
  -35.0549   62.5632   64.4902 C   0  0  0  0  0  0  0  0  0  0  0  0
  -36.2062   61.4642   63.2809 H   0  0  0  0  0  0  0  0  0  0  0  0
  -40.3795   59.6749   60.2917 O   0  0  0  0  0  0  0  0  0  0  0  0
  -39.6603   59.3798   61.2060 C   0  0  0  0  0  0  0  0  0  0  0  0
  -38.4337   59.8915   61.4087 O   0  0  0  0  0  0  0  0  0  0  0  0
  -37.3187   59.3450   60.6289 C   0  0  0  0  0  0  0  0  0  0  0  0
  -37.6631   59.4741   59.1667 C   0  0  0  0  0  0  0  0  0  0  0  0
  -37.1867   57.8989   61.0652 C   0  0  0  0  0  0  0  0  0  0  0  0
  -34.7804   57.8803   61.2925 N   0  0  0  0  0  0  0  0  0  0  0  0
  -36.0268   57.2534   63.0575 O   0  0  0  0  0  0  0  0  0  0  0  0
  -35.9488   57.6443   61.8962 C   0  0  0  0  0  0  0  0  0  0  0  0
  -34.7791   58.1928   60.3589 H   0  0  0  0  0  0  0  0  0  0  0  0
  -32.2927   58.8540   63.7332 N   0  0  0  0  0  0  0  0  0  0  0  0
  -33.7631   60.0124   62.4976 O   0  0  0  0  0  0  0  0  0  0  0  0
  -33.5123   57.6891   61.9743 C   0  0  0  0  0  0  0  0  0  0  0  0
  -32.3988   57.4308   60.9530 C   0  0  0  0  0  0  0  0  0  0  0  0
  -31.1566   56.7822   61.5542 C   0  0  0  0  0  0  0  0  0  0  0  0
  -30.4478   57.5952   62.6192 C   0  0  0  0  0  0  0  0  0  0  0  0
  -31.2674   57.8253   63.8716 C   0  0  0  0  0  0  0  0  0  0  0  0
  -33.1994   58.9537   62.7585 C   0  0  0  0  0  0  0  0  0  0  0  0
  -32.3185   59.5472   64.4317 H   0  0  0  0  0  0  0  0  0  0  0  0
  -41.4489   58.5075   62.7407 C   0  0  0  0  0  0  0  0  0  0  0  0
  -42.2864   57.2729   62.4250 C   0  0  0  0  0  0  0  0  0  0  0  0
  -41.7916   56.0207   63.1247 C   0  0  0  0  0  0  0  0  0  0  0  0
  -41.5412   56.1815   64.6082 C   0  0  0  0  0  0  0  0  0  0  0  0
  -42.7830   56.4304   65.3231 N   0  0  0  0  0  0  0  0  0  0  0  0
  -42.0659   58.3622   66.2437 O   0  0  0  0  0  0  0  0  0  0  0  0
  -42.9563   57.5095   66.0938 C   0  0  0  0  0  0  0  0  0  0  0  0
  -43.5200   55.7834   65.2369 H   0  0  0  0  0  0  0  0  0  0  0  0
  -45.4162   57.8330   66.2287 C   0  0  0  0  0  0  0  0  0  0  0  0
  -44.2545   57.5521   66.8034 C   0  0  0  0  0  0  0  0  0  0  0  0
  -45.6751   58.1403   64.7869 C   0  0  0  0  0  0  0  0  0  0  0  0
  -47.1537   58.3961   64.5214 C   0  0  0  0  0  0  0  0  0  0  0  0
  -48.0849   57.5399   65.3622 C   0  0  0  0  0  0  0  0  0  0  0  0
  -49.2969   58.2929   65.8851 C   0  0  0  0  0  0  0  0  0  0  0  0
  -49.0873   59.7878   66.0372 C   0  0  0  0  0  0  0  0  0  0  0  0
  -49.7752   60.6082   64.9585 C   0  0  0  0  0  0  0  0  0  0  0  0
  -51.2435   60.2719   64.7861 C   0  0  0  0  0  0  0  0  0  0  0  0
  -51.6162   59.9535   63.3519 C   0  0  0  0  0  0  0  0  0  0  0  0
  -50.4520   59.5123   62.4860 C   0  0  0  0  0  0  0  0  0  0  0  0
  -50.3923   58.0082   62.3070 C   0  0  0  0  0  0  0  0  0  0  0  0
  -50.6343   57.5654   60.8733 C   0  0  0  0  0  0  0  0  0  0  0  0
  -49.4025   57.0130   60.1772 C   0  0  0  0  0  0  0  0  0  0  0  0
  -48.4386   58.0773   59.6761 C   0  0  0  0  0  0  0  0  0  0  0  0
  -47.1700   57.5157   59.0492 C   0  0  0  0  0  0  0  0  0  0  0  0
  -46.9224   58.0142   57.6346 C   0  0  0  0  0  0  0  0  0  0  0  0
  -47.3798   55.6201   56.9748 C   0  0  0  0  0  0  0  0  0  0  0  0
  -47.3816   57.0634   56.5441 C   0  0  0  0  0  0  0  0  0  0  0  0
 43 45  1  0  0  0
 43 42  1  0  0  0
 43 46  1  0  0  0
 64 65  1  0  0  0
 44 45  2  0  0  0
 65 63  1  0  0  0
  2  1  1  0  0  0
  2  4  1  0  0  0
  2  5  1  0  0  0
  3  4  2  0  0  0
 63 62  1  0  0  0
  6  8  1  0  0  0
  6 11  2  0  0  0
  7 10  1  0  0  0
  7 11  1  0  0  0
 62 61  1  0  0  0
 26 28  1  0  0  0
 26 32  1  0  0  0
 26 29  1  0  0  0
 12 18  1  0  0  0
 12 19  1  0  0  0
 61 60  1  0  0  0
 30 36  1  0  0  0
 30 37  1  0  0  0
 30 38  1  0  0  0
 20 21  2  0  0  0
 60 59  1  0  0  0
 22 21  1  0  0  0
 22 23  1  0  0  0
 59 58  1  0  0  0
 27 28  2  0  0  0
 58 57  1  0  0  0
 31 37  2  0  0  0
 57 56  1  0  0  0
 56 55  1  0  0  0
 55 54  1  0  0  0
 54 53  1  0  0  0
 53 52  1  0  0  0
 52 51  1  0  0  0
 51 50  1  0  0  0
 50 49  1  0  0  0
 49 47  1  0  0  0
 47 48  2  0  0  0
 48 45  1  0  0  0
 42 41  1  0  0  0
 41 40  1  0  0  0
 40 39  1  0  0  0
 39  1  1  0  0  0
  1 21  1  0  0  0
  8  4  1  0  0  0
  8  9  1  0  0  0
  8 10  1  0  0  0
 11 13  1  0  0  0
 13 14  2  0  0  0
 13 18  1  0  0  0
 14 15  1  0  0  0
 15 16  2  0  0  0
 16 17  1  0  0  0
 17 18  2  0  0  0
 23 24  1  0  0  0
 23 25  1  0  0  0
 25 28  1  0  0  0
 32 33  1  0  0  0
 32 37  1  0  0  0
 33 34  1  0  0  0
 34 35  1  0  0  0
 35 36  1  0  0  0
M  END
> <minimizedAffinity>
-11.14343

> <CNNscore>
0.3049908578

> <CNNaffinity>
7.7994003296

> <CNN_VS>
2.3787457943

> <CNNaffinity_variance>
1.7355067730

$$$$
/media/chris/experiments/cd1a-new-docking/inputs/ligands/7ryo_ligand.pdb


 65 67  0  0  0  0  0  0  0  0999 V2000
  -35.8774   58.9544   62.5166 C   0  0  0  0  0  0  0  0  0  0  0  0
  -34.4240   58.9477   62.5155 N   0  0  0  0  0  0  0  0  0  0  0  0
  -34.2680   61.1604   62.8808 O   0  0  0  0  0  0  0  0  0  0  0  0
  -33.7343   60.0758   62.7018 C   0  0  0  0  0  0  0  0  0  0  0  0
  -33.9420   58.1008   62.3757 H   0  0  0  0  0  0  0  0  0  0  0  0
  -31.7456   58.8352   63.4619 N   0  0  0  0  0  0  0  0  0  0  0  0
  -30.7407   58.5836   61.4593 O   0  0  0  0  0  0  0  0  0  0  0  0
  -32.2000   59.9854   62.6630 C   0  0  0  0  0  0  0  0  0  0  0  0
  -31.6149   61.2639   63.2550 C   0  0  0  0  0  0  0  0  0  0  0  0
  -31.6420   59.7023   61.2603 C   0  0  0  0  0  0  0  0  0  0  0  0
  -30.9735   58.1490   62.7252 C   0  0  0  0  0  0  0  0  0  0  0  0
  -29.8473   57.7436   65.3425 O   0  0  0  0  0  0  0  0  0  0  0  0
  -30.2869   56.9131   63.1082 C   0  0  0  0  0  0  0  0  0  0  0  0
  -30.2817   55.8176   62.2438 C   0  0  0  0  0  0  0  0  0  0  0  0
  -29.8546   54.5770   62.6851 C   0  0  0  0  0  0  0  0  0  0  0  0
  -29.4283   54.4073   63.9843 C   0  0  0  0  0  0  0  0  0  0  0  0
  -29.4278   55.4758   64.8623 C   0  0  0  0  0  0  0  0  0  0  0  0
  -29.8555   56.7301   64.4382 C   0  0  0  0  0  0  0  0  0  0  0  0
  -30.1292   58.6004   65.0886 H   0  0  0  0  0  0  0  0  0  0  0  0
  -36.1211   57.4791   64.4152 O   0  0  0  0  0  0  0  0  0  0  0  0
  -36.4292   58.4967   63.8584 C   0  0  0  0  0  0  0  0  0  0  0  0
  -37.3275   59.3811   64.3256 O   0  0  0  0  0  0  0  0  0  0  0  0
  -37.2413   59.7754   65.7352 C   0  0  0  0  0  0  0  0  0  0  0  0
  -38.5185   59.3550   66.4173 C   0  0  0  0  0  0  0  0  0  0  0  0
  -37.0601   61.2808   65.7268 C   0  0  0  0  0  0  0  0  0  0  0  0
  -35.3876   62.9820   65.3384 N   0  0  0  0  0  0  0  0  0  0  0  0
  -34.6995   60.9018   65.8492 O   0  0  0  0  0  0  0  0  0  0  0  0
  -35.6092   61.6997   65.6413 C   0  0  0  0  0  0  0  0  0  0  0  0
  -36.1568   63.5762   65.1819 H   0  0  0  0  0  0  0  0  0  0  0  0
  -32.3498   64.2844   66.8112 N   0  0  0  0  0  0  0  0  0  0  0  0
  -34.5024   64.3376   67.4388 O   0  0  0  0  0  0  0  0  0  0  0  0
  -34.0443   63.5244   65.2336 C   0  0  0  0  0  0  0  0  0  0  0  0
  -34.0084   64.6437   64.1870 C   0  0  0  0  0  0  0  0  0  0  0  0
  -32.6059   64.9610   63.6795 C   0  0  0  0  0  0  0  0  0  0  0  0
  -31.6299   65.4560   64.7284 C   0  0  0  0  0  0  0  0  0  0  0  0
  -31.3064   64.4395   65.8032 C   0  0  0  0  0  0  0  0  0  0  0  0
  -33.6513   64.0849   66.5913 C   0  0  0  0  0  0  0  0  0  0  0  0
  -32.0640   64.3319   67.7521 H   0  0  0  0  0  0  0  0  0  0  0  0
  -36.4376   58.1028   61.3764 C   0  0  0  0  0  0  0  0  0  0  0  0
  -37.0333   58.9504   60.2575 C   0  0  0  0  0  0  0  0  0  0  0  0
  -38.3786   59.5534   60.6167 C   0  0  0  0  0  0  0  0  0  0  0  0
  -39.3838   58.5704   61.1759 C   0  0  0  0  0  0  0  0  0  0  0  0
  -39.8249   58.9725   62.5021 N   0  0  0  0  0  0  0  0  0  0  0  0
  -41.5966   57.5746   62.5239 O   0  0  0  0  0  0  0  0  0  0  0  0
  -40.9061   58.4421   63.0836 C   0  0  0  0  0  0  0  0  0  0  0  0
  -39.3108   59.6576   62.9875 H   0  0  0  0  0  0  0  0  0  0  0  0
  -42.4406   58.9625   64.9673 C   0  0  0  0  0  0  0  0  0  0  0  0
  -41.2447   59.0316   64.3982 C   0  0  0  0  0  0  0  0  0  0  0  0
  -43.6677   58.2847   64.4427 C   0  0  0  0  0  0  0  0  0  0  0  0
  -44.1629   57.2007   65.3923 C   0  0  0  0  0  0  0  0  0  0  0  0
  -45.5095   57.5075   66.0246 C   0  0  0  0  0  0  0  0  0  0  0  0
  -46.5478   58.0048   65.0328 C   0  0  0  0  0  0  0  0  0  0  0  0
  -47.6578   58.8338   65.6514 C   0  0  0  0  0  0  0  0  0  0  0  0
  -47.9693   60.1030   64.8758 C   0  0  0  0  0  0  0  0  0  0  0  0
  -49.4305   60.5036   64.9320 C   0  0  0  0  0  0  0  0  0  0  0  0
  -50.3665   59.3203   65.0760 C   0  0  0  0  0  0  0  0  0  0  0  0
  -50.6959   58.6206   63.7715 C   0  0  0  0  0  0  0  0  0  0  0  0
  -50.7263   59.5692   62.5895 C   0  0  0  0  0  0  0  0  0  0  0  0
  -49.7001   59.2285   61.5213 C   0  0  0  0  0  0  0  0  0  0  0  0
  -50.2464   58.3873   60.3807 C   0  0  0  0  0  0  0  0  0  0  0  0
  -49.3266   57.2586   59.9413 C   0  0  0  0  0  0  0  0  0  0  0  0
  -48.7694   57.4282   58.5347 C   0  0  0  0  0  0  0  0  0  0  0  0
  -47.5705   58.3605   58.4673 C   0  0  0  0  0  0  0  0  0  0  0  0
  -46.4993   56.8033   56.7929 C   0  0  0  0  0  0  0  0  0  0  0  0
  -46.2909   57.7041   57.9819 C   0  0  0  0  0  0  0  0  0  0  0  0
 43 45  1  0  0  0
 43 42  1  0  0  0
 43 46  1  0  0  0
 64 65  1  0  0  0
 44 45  2  0  0  0
 65 63  1  0  0  0
  2  1  1  0  0  0
  2  4  1  0  0  0
  2  5  1  0  0  0
  3  4  2  0  0  0
 63 62  1  0  0  0
  6  8  1  0  0  0
  6 11  2  0  0  0
  7 10  1  0  0  0
  7 11  1  0  0  0
 62 61  1  0  0  0
 26 28  1  0  0  0
 26 32  1  0  0  0
 26 29  1  0  0  0
 12 18  1  0  0  0
 12 19  1  0  0  0
 61 60  1  0  0  0
 30 36  1  0  0  0
 30 37  1  0  0  0
 30 38  1  0  0  0
 20 21  2  0  0  0
 60 59  1  0  0  0
 22 21  1  0  0  0
 22 23  1  0  0  0
 59 58  1  0  0  0
 27 28  2  0  0  0
 58 57  1  0  0  0
 31 37  2  0  0  0
 57 56  1  0  0  0
 56 55  1  0  0  0
 55 54  1  0  0  0
 54 53  1  0  0  0
 53 52  1  0  0  0
 52 51  1  0  0  0
 51 50  1  0  0  0
 50 49  1  0  0  0
 49 47  1  0  0  0
 47 48  2  0  0  0
 48 45  1  0  0  0
 42 41  1  0  0  0
 41 40  1  0  0  0
 40 39  1  0  0  0
 39  1  1  0  0  0
  1 21  1  0  0  0
  8  4  1  0  0  0
  8  9  1  0  0  0
  8 10  1  0  0  0
 11 13  1  0  0  0
 13 14  2  0  0  0
 13 18  1  0  0  0
 14 15  1  0  0  0
 15 16  2  0  0  0
 16 17  1  0  0  0
 17 18  2  0  0  0
 23 24  1  0  0  0
 23 25  1  0  0  0
 25 28  1  0  0  0
 32 33  1  0  0  0
 32 37  1  0  0  0
 33 34  1  0  0  0
 34 35  1  0  0  0
 35 36  1  0  0  0
M  END
> <minimizedAffinity>
-9.61144

> <CNNscore>
0.2679472566

> <CNNaffinity>
7.4580307007

> <CNN_VS>
1.9983588457

> <CNNaffinity_variance>
0.4104736447

$$$$
/media/chris/experiments/cd1a-new-docking/inputs/ligands/7ryo_ligand.pdb


 65 67  0  0  0  0  0  0  0  0999 V2000
  -33.3749   58.5920   62.6326 C   0  0  0  0  0  0  0  0  0  0  0  0
  -34.2914   59.6444   63.0385 N   0  0  0  0  0  0  0  0  0  0  0  0
  -34.8023   58.6487   64.9881 O   0  0  0  0  0  0  0  0  0  0  0  0
  -34.9372   59.5773   64.2053 C   0  0  0  0  0  0  0  0  0  0  0  0
  -34.4379   60.4167   62.4457 H   0  0  0  0  0  0  0  0  0  0  0  0
  -37.0618   60.6881   63.6363 N   0  0  0  0  0  0  0  0  0  0  0  0
  -37.9568   60.7456   65.7049 O   0  0  0  0  0  0  0  0  0  0  0  0
  -35.9063   60.7206   64.5481 C   0  0  0  0  0  0  0  0  0  0  0  0
  -35.1788   62.0512   64.3814 C   0  0  0  0  0  0  0  0  0  0  0  0
  -36.5349   60.5883   65.9432 C   0  0  0  0  0  0  0  0  0  0  0  0
  -38.1069   60.7019   64.3554 C   0  0  0  0  0  0  0  0  0  0  0  0
  -40.3558   61.3054   66.0471 O   0  0  0  0  0  0  0  0  0  0  0  0
  -39.4891   60.6818   63.8710 C   0  0  0  0  0  0  0  0  0  0  0  0
  -39.7529   60.5042   62.5123 C   0  0  0  0  0  0  0  0  0  0  0  0
  -41.0234   60.7247   62.0089 C   0  0  0  0  0  0  0  0  0  0  0  0
  -42.0452   61.1225   62.8434 C   0  0  0  0  0  0  0  0  0  0  0  0
  -41.8091   61.3100   64.1931 C   0  0  0  0  0  0  0  0  0  0  0  0
  -40.5384   61.0955   64.7175 C   0  0  0  0  0  0  0  0  0  0  0  0
  -39.5120   61.1698   66.4313 H   0  0  0  0  0  0  0  0  0  0  0  0
  -31.8728   58.9851   60.7806 O   0  0  0  0  0  0  0  0  0  0  0  0
  -32.1517   59.1663   61.9337 C   0  0  0  0  0  0  0  0  0  0  0  0
  -31.4133   59.8894   62.7935 O   0  0  0  0  0  0  0  0  0  0  0  0
  -29.9531   59.8103   62.6873 C   0  0  0  0  0  0  0  0  0  0  0  0
  -29.4986   58.5655   63.4065 C   0  0  0  0  0  0  0  0  0  0  0  0
  -29.4281   61.0760   63.3367 C   0  0  0  0  0  0  0  0  0  0  0  0
  -30.9821   62.9084   63.6008 N   0  0  0  0  0  0  0  0  0  0  0  0
  -29.7899   62.7824   61.6970 O   0  0  0  0  0  0  0  0  0  0  0  0
  -30.0829   62.3294   62.7999 C   0  0  0  0  0  0  0  0  0  0  0  0
  -31.1769   62.4999   64.4752 H   0  0  0  0  0  0  0  0  0  0  0  0
  -32.4339   66.1311   64.3755 N   0  0  0  0  0  0  0  0  0  0  0  0
  -32.1709   64.2442   65.5592 O   0  0  0  0  0  0  0  0  0  0  0  0
  -31.6802   64.1233   63.2185 C   0  0  0  0  0  0  0  0  0  0  0  0
  -32.9122   63.7794   62.3739 C   0  0  0  0  0  0  0  0  0  0  0  0
  -33.4424   64.9545   61.5596 C   0  0  0  0  0  0  0  0  0  0  0  0
  -33.9164   66.1460   62.3678 C   0  0  0  0  0  0  0  0  0  0  0  0
  -32.8229   66.8341   63.1578 C   0  0  0  0  0  0  0  0  0  0  0  0
  -32.1171   64.8391   64.4869 C   0  0  0  0  0  0  0  0  0  0  0  0
  -32.4017   66.6656   65.2017 H   0  0  0  0  0  0  0  0  0  0  0  0
  -34.0734   57.5575   61.7489 C   0  0  0  0  0  0  0  0  0  0  0  0
  -35.4728   57.9989   61.3339 C   0  0  0  0  0  0  0  0  0  0  0  0
  -36.5744   57.1935   61.9974 C   0  0  0  0  0  0  0  0  0  0  0  0
  -37.9777   57.6741   61.6986 C   0  0  0  0  0  0  0  0  0  0  0  0
  -38.9690   56.8007   62.3063 N   0  0  0  0  0  0  0  0  0  0  0  0
  -40.6466   57.4835   60.9599 O   0  0  0  0  0  0  0  0  0  0  0  0
  -40.2396   56.7685   61.8903 C   0  0  0  0  0  0  0  0  0  0  0  0
  -38.6958   56.2140   63.0483 H   0  0  0  0  0  0  0  0  0  0  0  0
  -41.8844   56.2767   63.6865 C   0  0  0  0  0  0  0  0  0  0  0  0
  -41.1192   55.8776   62.6796 C   0  0  0  0  0  0  0  0  0  0  0  0
  -42.0435   57.6651   64.2227 C   0  0  0  0  0  0  0  0  0  0  0  0
  -43.5071   58.0860   64.2732 C   0  0  0  0  0  0  0  0  0  0  0  0
  -44.1456   57.9226   65.6417 C   0  0  0  0  0  0  0  0  0  0  0  0
  -45.5714   57.3998   65.5890 C   0  0  0  0  0  0  0  0  0  0  0  0
  -46.6311   58.4387   65.9046 C   0  0  0  0  0  0  0  0  0  0  0  0
  -47.4334   58.8734   64.6892 C   0  0  0  0  0  0  0  0  0  0  0  0
  -48.8475   59.3080   65.0210 C   0  0  0  0  0  0  0  0  0  0  0  0
  -49.4350   60.2551   63.9940 C   0  0  0  0  0  0  0  0  0  0  0  0
  -50.5998   59.6830   63.2092 C   0  0  0  0  0  0  0  0  0  0  0  0
  -50.1847   59.1440   61.8545 C   0  0  0  0  0  0  0  0  0  0  0  0
  -50.7294   57.7537   61.5704 C   0  0  0  0  0  0  0  0  0  0  0  0
  -49.9575   56.9888   60.5093 C   0  0  0  0  0  0  0  0  0  0  0  0
  -49.2476   57.8723   59.4952 C   0  0  0  0  0  0  0  0  0  0  0  0
  -47.7510   57.6130   59.3909 C   0  0  0  0  0  0  0  0  0  0  0  0
  -47.1478   58.0727   58.0734 C   0  0  0  0  0  0  0  0  0  0  0  0
  -46.9070   55.9448   56.7353 C   0  0  0  0  0  0  0  0  0  0  0  0
  -47.6004   57.2757   56.8634 C   0  0  0  0  0  0  0  0  0  0  0  0
 43 45  1  0  0  0
 43 42  1  0  0  0
 43 46  1  0  0  0
 64 65  1  0  0  0
 44 45  2  0  0  0
 65 63  1  0  0  0
  2  1  1  0  0  0
  2  4  1  0  0  0
  2  5  1  0  0  0
  3  4  2  0  0  0
 63 62  1  0  0  0
  6  8  1  0  0  0
  6 11  2  0  0  0
  7 10  1  0  0  0
  7 11  1  0  0  0
 62 61  1  0  0  0
 26 28  1  0  0  0
 26 32  1  0  0  0
 26 29  1  0  0  0
 12 18  1  0  0  0
 12 19  1  0  0  0
 61 60  1  0  0  0
 30 36  1  0  0  0
 30 37  1  0  0  0
 30 38  1  0  0  0
 20 21  2  0  0  0
 60 59  1  0  0  0
 22 21  1  0  0  0
 22 23  1  0  0  0
 59 58  1  0  0  0
 27 28  2  0  0  0
 58 57  1  0  0  0
 31 37  2  0  0  0
 57 56  1  0  0  0
 56 55  1  0  0  0
 55 54  1  0  0  0
 54 53  1  0  0  0
 53 52  1  0  0  0
 52 51  1  0  0  0
 51 50  1  0  0  0
 50 49  1  0  0  0
 49 47  1  0  0  0
 47 48  2  0  0  0
 48 45  1  0  0  0
 42 41  1  0  0  0
 41 40  1  0  0  0
 40 39  1  0  0  0
 39  1  1  0  0  0
  1 21  1  0  0  0
  8  4  1  0  0  0
  8  9  1  0  0  0
  8 10  1  0  0  0
 11 13  1  0  0  0
 13 14  2  0  0  0
 13 18  1  0  0  0
 14 15  1  0  0  0
 15 16  2  0  0  0
 16 17  1  0  0  0
 17 18  2  0  0  0
 23 24  1  0  0  0
 23 25  1  0  0  0
 25 28  1  0  0  0
 32 33  1  0  0  0
 32 37  1  0  0  0
 33 34  1  0  0  0
 34 35  1  0  0  0
 35 36  1  0  0  0
M  END
> <minimizedAffinity>
-10.12796

> <CNNscore>
0.2616859376

> <CNNaffinity>
7.4410467148

> <CNN_VS>
1.9472173452

> <CNNaffinity_variance>
1.3088670969

$$$$
/media/chris/experiments/cd1a-new-docking/inputs/ligands/7ryo_ligand.pdb


 65 67  0  0  0  0  0  0  0  0999 V2000
  -38.3373   57.7482   61.6988 C   0  0  0  0  0  0  0  0  0  0  0  0
  -37.0057   57.6419   62.2714 N   0  0  0  0  0  0  0  0  0  0  0  0
  -36.0097   58.6112   60.5045 O   0  0  0  0  0  0  0  0  0  0  0  0
  -35.9378   58.0927   61.6087 C   0  0  0  0  0  0  0  0  0  0  0  0
  -36.8896   57.2324   63.1591 H   0  0  0  0  0  0  0  0  0  0  0  0
  -33.5805   58.8098   61.6332 N   0  0  0  0  0  0  0  0  0  0  0  0
  -33.4007   59.2426   63.8387 O   0  0  0  0  0  0  0  0  0  0  0  0
  -34.5630   57.9207   62.2750 C   0  0  0  0  0  0  0  0  0  0  0  0
  -34.1095   56.4739   62.1050 C   0  0  0  0  0  0  0  0  0  0  0  0
  -34.5422   58.3525   63.7488 C   0  0  0  0  0  0  0  0  0  0  0  0
  -33.0171   59.4737   62.5561 C   0  0  0  0  0  0  0  0  0  0  0  0
  -30.9024   59.1928   60.6241 O   0  0  0  0  0  0  0  0  0  0  0  0
  -31.9685   60.4809   62.3790 C   0  0  0  0  0  0  0  0  0  0  0  0
  -32.0445   61.6982   63.0569 C   0  0  0  0  0  0  0  0  0  0  0  0
  -31.2036   62.7443   62.7183 C   0  0  0  0  0  0  0  0  0  0  0  0
  -30.2795   62.5974   61.7068 C   0  0  0  0  0  0  0  0  0  0  0  0
  -30.1870   61.4027   61.0162 C   0  0  0  0  0  0  0  0  0  0  0  0
  -31.0249   60.3404   61.3405 C   0  0  0  0  0  0  0  0  0  0  0  0
  -31.4518   58.4589   60.8176 H   0  0  0  0  0  0  0  0  0  0  0  0
  -39.2992   59.7723   60.7940 O   0  0  0  0  0  0  0  0  0  0  0  0
  -38.8385   59.1842   61.7333 C   0  0  0  0  0  0  0  0  0  0  0  0
  -38.6741   59.7120   62.9588 O   0  0  0  0  0  0  0  0  0  0  0  0
  -39.7035   59.4485   63.9690 C   0  0  0  0  0  0  0  0  0  0  0  0
  -40.6356   60.6331   64.0069 C   0  0  0  0  0  0  0  0  0  0  0  0
  -38.9550   59.2613   65.2743 C   0  0  0  0  0  0  0  0  0  0  0  0
  -36.9938   60.6487   65.0077 N   0  0  0  0  0  0  0  0  0  0  0  0
  -38.5311   61.2515   66.5357 O   0  0  0  0  0  0  0  0  0  0  0  0
  -38.1426   60.4751   65.6675 C   0  0  0  0  0  0  0  0  0  0  0  0
  -36.7329   59.9932   64.3210 H   0  0  0  0  0  0  0  0  0  0  0  0
  -35.0957   63.5366   63.9346 N   0  0  0  0  0  0  0  0  0  0  0  0
  -35.6512   61.6087   62.9319 O   0  0  0  0  0  0  0  0  0  0  0  0
  -36.1189   61.7770   65.2744 C   0  0  0  0  0  0  0  0  0  0  0  0
  -34.9382   61.3337   66.1456 C   0  0  0  0  0  0  0  0  0  0  0  0
  -34.2287   62.4872   66.8463 C   0  0  0  0  0  0  0  0  0  0  0  0
  -33.5969   63.5164   65.9301 C   0  0  0  0  0  0  0  0  0  0  0  0
  -34.5892   64.2831   65.0812 C   0  0  0  0  0  0  0  0  0  0  0  0
  -35.6007   62.3009   63.9443 C   0  0  0  0  0  0  0  0  0  0  0  0
  -35.0615   63.9919   63.0624 H   0  0  0  0  0  0  0  0  0  0  0  0
  -39.3202   56.8097   62.4005 C   0  0  0  0  0  0  0  0  0  0  0  0
  -40.7070   56.8428   61.7672 C   0  0  0  0  0  0  0  0  0  0  0  0
  -41.7781   56.2185   62.6422 C   0  0  0  0  0  0  0  0  0  0  0  0
  -41.5205   56.3228   64.1295 C   0  0  0  0  0  0  0  0  0  0  0  0
  -42.7692   56.3921   64.8719 N   0  0  0  0  0  0  0  0  0  0  0  0
  -42.1976   58.2656   65.9929 O   0  0  0  0  0  0  0  0  0  0  0  0
  -43.0187   57.3647   65.7553 C   0  0  0  0  0  0  0  0  0  0  0  0
  -43.4531   55.7005   64.7191 H   0  0  0  0  0  0  0  0  0  0  0  0
  -45.4751   57.6451   66.0027 C   0  0  0  0  0  0  0  0  0  0  0  0
  -44.3071   57.2256   66.4702 C   0  0  0  0  0  0  0  0  0  0  0  0
  -45.7518   58.3110   64.6910 C   0  0  0  0  0  0  0  0  0  0  0  0
  -47.2310   58.6376   64.5252 C   0  0  0  0  0  0  0  0  0  0  0  0
  -48.1472   57.7896   65.3904 C   0  0  0  0  0  0  0  0  0  0  0  0
  -49.0059   58.6023   66.3451 C   0  0  0  0  0  0  0  0  0  0  0  0
  -50.4784   58.6435   65.9819 C   0  0  0  0  0  0  0  0  0  0  0  0
  -50.9434   60.0056   65.4938 C   0  0  0  0  0  0  0  0  0  0  0  0
  -51.2615   60.0416   64.0119 C   0  0  0  0  0  0  0  0  0  0  0  0
  -50.0454   60.3122   63.1489 C   0  0  0  0  0  0  0  0  0  0  0  0
  -49.9631   59.4585   61.8981 C   0  0  0  0  0  0  0  0  0  0  0  0
  -50.6180   58.1023   62.0706 C   0  0  0  0  0  0  0  0  0  0  0  0
  -50.4316   57.1899   60.8694 C   0  0  0  0  0  0  0  0  0  0  0  0
  -49.7534   57.8541   59.6837 C   0  0  0  0  0  0  0  0  0  0  0  0
  -48.3026   57.4440   59.4842 C   0  0  0  0  0  0  0  0  0  0  0  0
  -47.4986   58.4142   58.6296 C   0  0  0  0  0  0  0  0  0  0  0  0
  -46.5262   57.7258   57.6853 C   0  0  0  0  0  0  0  0  0  0  0  0
  -47.2629   55.4698   56.8228 C   0  0  0  0  0  0  0  0  0  0  0  0
  -47.1862   56.9508   56.5594 C   0  0  0  0  0  0  0  0  0  0  0  0
 43 45  1  0  0  0
 43 42  1  0  0  0
 43 46  1  0  0  0
 64 65  1  0  0  0
 44 45  2  0  0  0
 65 63  1  0  0  0
  2  1  1  0  0  0
  2  4  1  0  0  0
  2  5  1  0  0  0
  3  4  2  0  0  0
 63 62  1  0  0  0
  6  8  1  0  0  0
  6 11  2  0  0  0
  7 10  1  0  0  0
  7 11  1  0  0  0
 62 61  1  0  0  0
 26 28  1  0  0  0
 26 32  1  0  0  0
 26 29  1  0  0  0
 12 18  1  0  0  0
 12 19  1  0  0  0
 61 60  1  0  0  0
 30 36  1  0  0  0
 30 37  1  0  0  0
 30 38  1  0  0  0
 20 21  2  0  0  0
 60 59  1  0  0  0
 22 21  1  0  0  0
 22 23  1  0  0  0
 59 58  1  0  0  0
 27 28  2  0  0  0
 58 57  1  0  0  0
 31 37  2  0  0  0
 57 56  1  0  0  0
 56 55  1  0  0  0
 55 54  1  0  0  0
 54 53  1  0  0  0
 53 52  1  0  0  0
 52 51  1  0  0  0
 51 50  1  0  0  0
 50 49  1  0  0  0
 49 47  1  0  0  0
 47 48  2  0  0  0
 48 45  1  0  0  0
 42 41  1  0  0  0
 41 40  1  0  0  0
 40 39  1  0  0  0
 39  1  1  0  0  0
  1 21  1  0  0  0
  8  4  1  0  0  0
  8  9  1  0  0  0
  8 10  1  0  0  0
 11 13  1  0  0  0
 13 14  2  0  0  0
 13 18  1  0  0  0
 14 15  1  0  0  0
 15 16  2  0  0  0
 16 17  1  0  0  0
 17 18  2  0  0  0
 23 24  1  0  0  0
 23 25  1  0  0  0
 25 28  1  0  0  0
 32 33  1  0  0  0
 32 37  1  0  0  0
 33 34  1  0  0  0
 34 35  1  0  0  0
 35 36  1  0  0  0
M  END
> <minimizedAffinity>
-10.73131

> <CNNscore>
0.2369661331

> <CNNaffinity>
7.4506402016

> <CNN_VS>
1.7655494213

> <CNNaffinity_variance>
1.4611175060

$$$$
/media/chris/experiments/cd1a-new-docking/inputs/ligands/7ryo_ligand.pdb


 65 67  0  0  0  0  0  0  0  0999 V2000
  -38.4038   60.7844   64.1194 C   0  0  0  0  0  0  0  0  0  0  0  0
  -37.6462   60.1538   63.0513 N   0  0  0  0  0  0  0  0  0  0  0  0
  -37.1694   58.3263   64.2704 O   0  0  0  0  0  0  0  0  0  0  0  0
  -37.0846   58.9551   63.2260 C   0  0  0  0  0  0  0  0  0  0  0  0
  -37.5460   60.6163   62.1880 H   0  0  0  0  0  0  0  0  0  0  0  0
  -34.8714   58.7828   62.1566 N   0  0  0  0  0  0  0  0  0  0  0  0
  -34.8025   56.5413   61.9232 O   0  0  0  0  0  0  0  0  0  0  0  0
  -36.2807   58.3692   62.0538 C   0  0  0  0  0  0  0  0  0  0  0  0
  -36.8595   58.8979   60.7450 C   0  0  0  0  0  0  0  0  0  0  0  0
  -36.2155   56.8347   62.0667 C   0  0  0  0  0  0  0  0  0  0  0  0
  -34.1657   57.7313   62.0783 C   0  0  0  0  0  0  0  0  0  0  0  0
  -32.6489   58.6963   64.3258 O   0  0  0  0  0  0  0  0  0  0  0  0
  -32.7034   57.6663   62.1323 C   0  0  0  0  0  0  0  0  0  0  0  0
  -31.9948   56.9920   61.1372 C   0  0  0  0  0  0  0  0  0  0  0  0
  -30.6486   56.7137   61.2997 C   0  0  0  0  0  0  0  0  0  0  0  0
  -29.9899   57.0992   62.4469 C   0  0  0  0  0  0  0  0  0  0  0  0
  -30.6702   57.7648   63.4503 C   0  0  0  0  0  0  0  0  0  0  0  0
  -32.0240   58.0517   63.3064 C   0  0  0  0  0  0  0  0  0  0  0  0
  -33.5602   58.9041   64.2601 H   0  0  0  0  0  0  0  0  0  0  0  0
  -37.7595   60.1001   66.3459 O   0  0  0  0  0  0  0  0  0  0  0  0
  -37.5996   60.8339   65.4098 C   0  0  0  0  0  0  0  0  0  0  0  0
  -36.6970   61.8293   65.3652 O   0  0  0  0  0  0  0  0  0  0  0  0
  -35.2903   61.4989   65.6141 C   0  0  0  0  0  0  0  0  0  0  0  0
  -34.8103   62.3388   66.7707 C   0  0  0  0  0  0  0  0  0  0  0  0
  -34.5614   61.8224   64.3244 C   0  0  0  0  0  0  0  0  0  0  0  0
  -33.1484   63.7177   63.8208 N   0  0  0  0  0  0  0  0  0  0  0  0
  -35.3415   64.0804   64.1677 O   0  0  0  0  0  0  0  0  0  0  0  0
  -34.3890   63.3085   64.1014 C   0  0  0  0  0  0  0  0  0  0  0  0
  -32.4232   63.0530   63.7809 H   0  0  0  0  0  0  0  0  0  0  0  0
  -32.9807   66.6118   61.6553 N   0  0  0  0  0  0  0  0  0  0  0  0
  -32.7888   64.4080   61.2856 O   0  0  0  0  0  0  0  0  0  0  0  0
  -32.8391   65.1150   63.5730 C   0  0  0  0  0  0  0  0  0  0  0  0
  -31.4464   65.4510   64.1180 C   0  0  0  0  0  0  0  0  0  0  0  0
  -31.2128   66.9444   64.3190 C   0  0  0  0  0  0  0  0  0  0  0  0
  -31.2909   67.7907   63.0639 C   0  0  0  0  0  0  0  0  0  0  0  0
  -32.6596   67.8146   62.4162 C   0  0  0  0  0  0  0  0  0  0  0  0
  -32.8671   65.3482   62.0707 C   0  0  0  0  0  0  0  0  0  0  0  0
  -33.3163   66.7462   60.7396 H   0  0  0  0  0  0  0  0  0  0  0  0
  -39.7450   60.0825   64.3382 C   0  0  0  0  0  0  0  0  0  0  0  0
  -40.6505   60.8475   65.2975 C   0  0  0  0  0  0  0  0  0  0  0  0
  -41.1744   59.9909   66.4352 C   0  0  0  0  0  0  0  0  0  0  0  0
  -41.5258   58.5709   66.0485 C   0  0  0  0  0  0  0  0  0  0  0  0
  -42.8643   58.4995   65.4843 N   0  0  0  0  0  0  0  0  0  0  0  0
  -42.7587   56.2828   65.0738 O   0  0  0  0  0  0  0  0  0  0  0  0
  -43.3870   57.3534   65.0351 C   0  0  0  0  0  0  0  0  0  0  0  0
  -43.4032   59.3218   65.4314 H   0  0  0  0  0  0  0  0  0  0  0  0
  -45.8104   57.9008   65.0719 C   0  0  0  0  0  0  0  0  0  0  0  0
  -44.7281   57.4909   64.4243 C   0  0  0  0  0  0  0  0  0  0  0  0
  -45.9176   58.3199   66.5048 C   0  0  0  0  0  0  0  0  0  0  0  0
  -47.3184   58.0866   67.0574 C   0  0  0  0  0  0  0  0  0  0  0  0
  -48.2146   57.2777   66.1356 C   0  0  0  0  0  0  0  0  0  0  0  0
  -49.3575   58.0821   65.5390 C   0  0  0  0  0  0  0  0  0  0  0  0
  -49.3631   59.5477   65.9312 C   0  0  0  0  0  0  0  0  0  0  0  0
  -50.7216   60.2108   65.7750 C   0  0  0  0  0  0  0  0  0  0  0  0
  -51.3563   59.9785   64.4178 C   0  0  0  0  0  0  0  0  0  0  0  0
  -50.5157   60.5025   63.2707 C   0  0  0  0  0  0  0  0  0  0  0  0
  -50.0222   59.4320   62.3165 C   0  0  0  0  0  0  0  0  0  0  0  0
  -51.0171   58.3022   62.1388 C   0  0  0  0  0  0  0  0  0  0  0  0
  -50.6767   57.3811   60.9787 C   0  0  0  0  0  0  0  0  0  0  0  0
  -49.1874   57.2299   60.7215 C   0  0  0  0  0  0  0  0  0  0  0  0
  -48.8385   56.8121   59.3014 C   0  0  0  0  0  0  0  0  0  0  0  0
  -47.6130   55.9139   59.2055 C   0  0  0  0  0  0  0  0  0  0  0  0
  -47.2047   55.5984   57.7755 C   0  0  0  0  0  0  0  0  0  0  0  0
  -47.8115   57.2625   55.9759 C   0  0  0  0  0  0  0  0  0  0  0  0
  -46.7713   56.8064   56.9651 C   0  0  0  0  0  0  0  0  0  0  0  0
 43 45  1  0  0  0
 43 42  1  0  0  0
 43 46  1  0  0  0
 64 65  1  0  0  0
 44 45  2  0  0  0
 65 63  1  0  0  0
  2  1  1  0  0  0
  2  4  1  0  0  0
  2  5  1  0  0  0
  3  4  2  0  0  0
 63 62  1  0  0  0
  6  8  1  0  0  0
  6 11  2  0  0  0
  7 10  1  0  0  0
  7 11  1  0  0  0
 62 61  1  0  0  0
 26 28  1  0  0  0
 26 32  1  0  0  0
 26 29  1  0  0  0
 12 18  1  0  0  0
 12 19  1  0  0  0
 61 60  1  0  0  0
 30 36  1  0  0  0
 30 37  1  0  0  0
 30 38  1  0  0  0
 20 21  2  0  0  0
 60 59  1  0  0  0
 22 21  1  0  0  0
 22 23  1  0  0  0
 59 58  1  0  0  0
 27 28  2  0  0  0
 58 57  1  0  0  0
 31 37  2  0  0  0
 57 56  1  0  0  0
 56 55  1  0  0  0
 55 54  1  0  0  0
 54 53  1  0  0  0
 53 52  1  0  0  0
 52 51  1  0  0  0
 51 50  1  0  0  0
 50 49  1  0  0  0
 49 47  1  0  0  0
 47 48  2  0  0  0
 48 45  1  0  0  0
 42 41  1  0  0  0
 41 40  1  0  0  0
 40 39  1  0  0  0
 39  1  1  0  0  0
  1 21  1  0  0  0
  8  4  1  0  0  0
  8  9  1  0  0  0
  8 10  1  0  0  0
 11 13  1  0  0  0
 13 14  2  0  0  0
 13 18  1  0  0  0
 14 15  1  0  0  0
 15 16  2  0  0  0
 16 17  1  0  0  0
 17 18  2  0  0  0
 23 24  1  0  0  0
 23 25  1  0  0  0
 25 28  1  0  0  0
 32 33  1  0  0  0
 32 37  1  0  0  0
 33 34  1  0  0  0
 34 35  1  0  0  0
 35 36  1  0  0  0
M  END
> <minimizedAffinity>
-9.41266

> <CNNscore>
0.2264783978

> <CNNaffinity>
7.0322585106

> <CNN_VS>
1.5926545858

> <CNNaffinity_variance>
0.3385041356

$$$$
/media/chris/experiments/cd1a-new-docking/inputs/ligands/7ryo_ligand.pdb


 65 67  0  0  0  0  0  0  0  0999 V2000
  -42.4258   58.0310   65.4108 C   0  0  0  0  0  0  0  0  0  0  0  0
  -43.7241   58.0914   66.0612 N   0  0  0  0  0  0  0  0  0  0  0  0
  -44.8539   57.6238   64.1749 O   0  0  0  0  0  0  0  0  0  0  0  0
  -44.8464   57.8777   65.3701 C   0  0  0  0  0  0  0  0  0  0  0  0
  -43.7767   58.2923   67.0236 H   0  0  0  0  0  0  0  0  0  0  0  0
  -47.1257   58.8140   65.3660 N   0  0  0  0  0  0  0  0  0  0  0  0
  -48.2530   56.9135   65.8144 O   0  0  0  0  0  0  0  0  0  0  0  0
  -46.1794   57.9833   66.1290 C   0  0  0  0  0  0  0  0  0  0  0  0
  -45.9256   58.6364   67.4842 C   0  0  0  0  0  0  0  0  0  0  0  0
  -46.9055   56.6378   66.2744 C   0  0  0  0  0  0  0  0  0  0  0  0
  -48.2001   58.1489   65.2517 C   0  0  0  0  0  0  0  0  0  0  0  0
  -50.0053   60.0871   66.3777 O   0  0  0  0  0  0  0  0  0  0  0  0
  -49.4184   58.5869   64.5666 C   0  0  0  0  0  0  0  0  0  0  0  0
  -49.6729   58.1751   63.2578 C   0  0  0  0  0  0  0  0  0  0  0  0
  -50.6820   58.7682   62.5187 C   0  0  0  0  0  0  0  0  0  0  0  0
  -51.4492   59.7734   63.0659 C   0  0  0  0  0  0  0  0  0  0  0  0
  -51.2145   60.2031   64.3593 C   0  0  0  0  0  0  0  0  0  0  0  0
  -50.2034   59.6208   65.1173 C   0  0  0  0  0  0  0  0  0  0  0  0
  -49.3325   59.7162   66.9141 H   0  0  0  0  0  0  0  0  0  0  0  0
  -42.3576   59.6769   63.6424 O   0  0  0  0  0  0  0  0  0  0  0  0
  -42.0712   59.3618   64.7645 C   0  0  0  0  0  0  0  0  0  0  0  0
  -41.3727   60.1299   65.6187 O   0  0  0  0  0  0  0  0  0  0  0  0
  -40.0392   60.5821   65.2102 C   0  0  0  0  0  0  0  0  0  0  0  0
  -39.8601   60.2512   63.7501 C   0  0  0  0  0  0  0  0  0  0  0  0
  -39.0648   59.8302   66.0959 C   0  0  0  0  0  0  0  0  0  0  0  0
  -37.2762   61.4383   66.3345 N   0  0  0  0  0  0  0  0  0  0  0  0
  -36.8345   59.4931   65.2939 O   0  0  0  0  0  0  0  0  0  0  0  0
  -37.6259   60.2363   65.8673 C   0  0  0  0  0  0  0  0  0  0  0  0
  -37.9538   61.9914   66.7863 H   0  0  0  0  0  0  0  0  0  0  0  0
  -34.3634   63.1469   67.6345 N   0  0  0  0  0  0  0  0  0  0  0  0
  -36.5607   63.3370   68.0422 O   0  0  0  0  0  0  0  0  0  0  0  0
  -35.9249   61.9521   66.1949 C   0  0  0  0  0  0  0  0  0  0  0  0
  -35.7927   62.7382   64.8857 C   0  0  0  0  0  0  0  0  0  0  0  0
  -34.3503   62.9251   64.4280 C   0  0  0  0  0  0  0  0  0  0  0  0
  -33.4623   63.7071   65.3755 C   0  0  0  0  0  0  0  0  0  0  0  0
  -33.2379   63.0336   66.7131 C   0  0  0  0  0  0  0  0  0  0  0  0
  -35.6433   62.8732   67.3715 C   0  0  0  0  0  0  0  0  0  0  0  0
  -34.1574   63.4578   68.5456 H   0  0  0  0  0  0  0  0  0  0  0  0
  -42.3691   56.8950   64.3884 C   0  0  0  0  0  0  0  0  0  0  0  0
  -40.9825   56.7358   63.7740 C   0  0  0  0  0  0  0  0  0  0  0  0
  -41.0023   56.0331   62.4293 C   0  0  0  0  0  0  0  0  0  0  0  0
  -41.5822   56.8511   61.2961 C   0  0  0  0  0  0  0  0  0  0  0  0
  -40.8960   58.1271   61.1691 N   0  0  0  0  0  0  0  0  0  0  0  0
  -41.0789   58.1963   58.9207 O   0  0  0  0  0  0  0  0  0  0  0  0
  -40.6929   58.7108   59.9831 C   0  0  0  0  0  0  0  0  0  0  0  0
  -40.5704   58.5757   61.9828 H   0  0  0  0  0  0  0  0  0  0  0  0
  -38.5907   60.0203   60.1827 C   0  0  0  0  0  0  0  0  0  0  0  0
  -39.9085   59.9643   60.0449 C   0  0  0  0  0  0  0  0  0  0  0  0
  -37.6302   58.8768   60.2841 C   0  0  0  0  0  0  0  0  0  0  0  0
  -37.0393   58.7589   61.6837 C   0  0  0  0  0  0  0  0  0  0  0  0
  -36.5755   57.3565   62.0376 C   0  0  0  0  0  0  0  0  0  0  0  0
  -35.2181   57.3189   62.7198 C   0  0  0  0  0  0  0  0  0  0  0  0
  -34.3525   58.5373   62.4589 C   0  0  0  0  0  0  0  0  0  0  0  0
  -33.3388   58.8062   63.5588 C   0  0  0  0  0  0  0  0  0  0  0  0
  -32.0090   59.3212   63.0439 C   0  0  0  0  0  0  0  0  0  0  0  0
  -32.0891   60.7327   62.4978 C   0  0  0  0  0  0  0  0  0  0  0  0
  -30.8225   61.2125   61.8154 C   0  0  0  0  0  0  0  0  0  0  0  0
  -29.8876   61.9403   62.7609 C   0  0  0  0  0  0  0  0  0  0  0  0
  -29.7674   63.4252   62.4597 C   0  0  0  0  0  0  0  0  0  0  0  0
  -30.8853   64.2705   63.0452 C   0  0  0  0  0  0  0  0  0  0  0  0
  -30.9800   65.6715   62.4610 C   0  0  0  0  0  0  0  0  0  0  0  0
  -32.1097   66.5087   63.0446 C   0  0  0  0  0  0  0  0  0  0  0  0
  -33.3024   66.6491   62.1125 C   0  0  0  0  0  0  0  0  0  0  0  0
  -35.3211   65.2800   61.4594 C   0  0  0  0  0  0  0  0  0  0  0  0
  -34.5540   65.9293   62.5812 C   0  0  0  0  0  0  0  0  0  0  0  0
 43 45  1  0  0  0
 43 42  1  0  0  0
 43 46  1  0  0  0
 64 65  1  0  0  0
 44 45  2  0  0  0
 65 63  1  0  0  0
  2  1  1  0  0  0
  2  4  1  0  0  0
  2  5  1  0  0  0
  3  4  2  0  0  0
 63 62  1  0  0  0
  6  8  1  0  0  0
  6 11  2  0  0  0
  7 10  1  0  0  0
  7 11  1  0  0  0
 62 61  1  0  0  0
 26 28  1  0  0  0
 26 32  1  0  0  0
 26 29  1  0  0  0
 12 18  1  0  0  0
 12 19  1  0  0  0
 61 60  1  0  0  0
 30 36  1  0  0  0
 30 37  1  0  0  0
 30 38  1  0  0  0
 20 21  2  0  0  0
 60 59  1  0  0  0
 22 21  1  0  0  0
 22 23  1  0  0  0
 59 58  1  0  0  0
 27 28  2  0  0  0
 58 57  1  0  0  0
 31 37  2  0  0  0
 57 56  1  0  0  0
 56 55  1  0  0  0
 55 54  1  0  0  0
 54 53  1  0  0  0
 53 52  1  0  0  0
 52 51  1  0  0  0
 51 50  1  0  0  0
 50 49  1  0  0  0
 49 47  1  0  0  0
 47 48  2  0  0  0
 48 45  1  0  0  0
 42 41  1  0  0  0
 41 40  1  0  0  0
 40 39  1  0  0  0
 39  1  1  0  0  0
  1 21  1  0  0  0
  8  4  1  0  0  0
  8  9  1  0  0  0
  8 10  1  0  0  0
 11 13  1  0  0  0
 13 14  2  0  0  0
 13 18  1  0  0  0
 14 15  1  0  0  0
 15 16  2  0  0  0
 16 17  1  0  0  0
 17 18  2  0  0  0
 23 24  1  0  0  0
 23 25  1  0  0  0
 25 28  1  0  0  0
 32 33  1  0  0  0
 32 37  1  0  0  0
 33 34  1  0  0  0
 34 35  1  0  0  0
 35 36  1  0  0  0
M  END
> <minimizedAffinity>
-9.75827

> <CNNscore>
0.2148170620

> <CNNaffinity>
7.6600542068

> <CNN_VS>
1.6455103159

> <CNNaffinity_variance>
1.9534622431

$$$$
/media/chris/experiments/cd1a-new-docking/inputs/ligands/7ryo_ligand.pdb


 65 67  0  0  0  0  0  0  0  0999 V2000
  -42.3573   58.0186   65.4285 C   0  0  0  0  0  0  0  0  0  0  0  0
  -43.6546   58.0801   66.0808 N   0  0  0  0  0  0  0  0  0  0  0  0
  -44.7897   57.6546   64.1877 O   0  0  0  0  0  0  0  0  0  0  0  0
  -44.7792   57.8884   65.3871 C   0  0  0  0  0  0  0  0  0  0  0  0
  -43.7048   58.2653   67.0464 H   0  0  0  0  0  0  0  0  0  0  0  0
  -47.0649   58.8088   65.3789 N   0  0  0  0  0  0  0  0  0  0  0  0
  -48.1778   56.9059   65.8524 O   0  0  0  0  0  0  0  0  0  0  0  0
  -46.1107   57.9935   66.1486 C   0  0  0  0  0  0  0  0  0  0  0  0
  -45.8576   58.6638   67.4955 C   0  0  0  0  0  0  0  0  0  0  0  0
  -46.8271   56.6447   66.3116 C   0  0  0  0  0  0  0  0  0  0  0  0
  -48.1350   58.1351   65.2754 C   0  0  0  0  0  0  0  0  0  0  0  0
  -49.9813   60.0281   66.4116 O   0  0  0  0  0  0  0  0  0  0  0  0
  -49.3583   58.5567   64.5889 C   0  0  0  0  0  0  0  0  0  0  0  0
  -49.5993   58.1529   63.2751 C   0  0  0  0  0  0  0  0  0  0  0  0
  -50.6160   58.7341   62.5370 C   0  0  0  0  0  0  0  0  0  0  0  0
  -51.4043   59.7194   63.0903 C   0  0  0  0  0  0  0  0  0  0  0  0
  -51.1834   60.1409   64.3888 C   0  0  0  0  0  0  0  0  0  0  0  0
  -50.1650   59.5704   65.1459 C   0  0  0  0  0  0  0  0  0  0  0  0
  -49.3040   59.6647   66.9475 H   0  0  0  0  0  0  0  0  0  0  0  0
  -42.3156   59.7305   63.7230 O   0  0  0  0  0  0  0  0  0  0  0  0
  -41.9849   59.3604   64.8157 C   0  0  0  0  0  0  0  0  0  0  0  0
  -41.2147   60.0675   65.6608 O   0  0  0  0  0  0  0  0  0  0  0  0
  -39.9034   60.5207   65.1867 C   0  0  0  0  0  0  0  0  0  0  0  0
  -39.7893   60.1734   63.7239 C   0  0  0  0  0  0  0  0  0  0  0  0
  -38.8861   59.7836   66.0358 C   0  0  0  0  0  0  0  0  0  0  0  0
  -37.2126   61.5059   66.3109 N   0  0  0  0  0  0  0  0  0  0  0  0
  -36.6255   59.6000   65.2694 O   0  0  0  0  0  0  0  0  0  0  0  0
  -37.4739   60.2859   65.8328 C   0  0  0  0  0  0  0  0  0  0  0  0
  -37.9329   62.0102   66.7538 H   0  0  0  0  0  0  0  0  0  0  0  0
  -34.3514   63.2118   67.7241 N   0  0  0  0  0  0  0  0  0  0  0  0
  -36.5401   63.2258   68.2142 O   0  0  0  0  0  0  0  0  0  0  0  0
  -35.8965   62.1092   66.1959 C   0  0  0  0  0  0  0  0  0  0  0  0
  -35.8526   63.0517   64.9879 C   0  0  0  0  0  0  0  0  0  0  0  0
  -34.4392   63.3740   64.5152 C   0  0  0  0  0  0  0  0  0  0  0  0
  -33.5615   64.0874   65.5245 C   0  0  0  0  0  0  0  0  0  0  0  0
  -33.2546   63.2735   66.7641 C   0  0  0  0  0  0  0  0  0  0  0  0
  -35.6233   62.8984   67.4666 C   0  0  0  0  0  0  0  0  0  0  0  0
  -34.1305   63.4234   68.6599 H   0  0  0  0  0  0  0  0  0  0  0  0
  -42.3160   56.9080   64.3778 C   0  0  0  0  0  0  0  0  0  0  0  0
  -40.9169   56.6999   63.8080 C   0  0  0  0  0  0  0  0  0  0  0  0
  -40.9230   56.1021   62.4134 C   0  0  0  0  0  0  0  0  0  0  0  0
  -41.6242   56.9415   61.3679 C   0  0  0  0  0  0  0  0  0  0  0  0
  -40.9180   58.1929   61.1436 N   0  0  0  0  0  0  0  0  0  0  0  0
  -41.1683   58.1306   58.9015 O   0  0  0  0  0  0  0  0  0  0  0  0
  -40.7401   58.6999   59.9189 C   0  0  0  0  0  0  0  0  0  0  0  0
  -40.5591   58.6827   61.9185 H   0  0  0  0  0  0  0  0  0  0  0  0
  -38.6141   59.9804   60.0373 C   0  0  0  0  0  0  0  0  0  0  0  0
  -39.9304   59.9382   59.8814 C   0  0  0  0  0  0  0  0  0  0  0  0
  -37.6799   58.8322   60.2590 C   0  0  0  0  0  0  0  0  0  0  0  0
  -36.8900   58.9893   61.5526 C   0  0  0  0  0  0  0  0  0  0  0  0
  -36.9077   57.7539   62.4361 C   0  0  0  0  0  0  0  0  0  0  0  0
  -35.6575   56.8991   62.3113 C   0  0  0  0  0  0  0  0  0  0  0  0
  -34.4137   57.6652   61.9015 C   0  0  0  0  0  0  0  0  0  0  0  0
  -33.1322   56.8615   62.0481 C   0  0  0  0  0  0  0  0  0  0  0  0
  -32.1123   57.1450   60.9626 C   0  0  0  0  0  0  0  0  0  0  0  0
  -30.7258   56.6355   61.3017 C   0  0  0  0  0  0  0  0  0  0  0  0
  -29.6336   57.6835   61.2079 C   0  0  0  0  0  0  0  0  0  0  0  0
  -30.1742   59.0988   61.2593 C   0  0  0  0  0  0  0  0  0  0  0  0
  -29.6119   59.9134   62.4127 C   0  0  0  0  0  0  0  0  0  0  0  0
  -29.6475   61.4152   62.1883 C   0  0  0  0  0  0  0  0  0  0  0  0
  -29.6639   62.2373   63.4677 C   0  0  0  0  0  0  0  0  0  0  0  0
  -30.5224   63.4919   63.3845 C   0  0  0  0  0  0  0  0  0  0  0  0
  -29.7463   64.7739   63.6403 C   0  0  0  0  0  0  0  0  0  0  0  0
  -31.0406   66.8838   64.1394 C   0  0  0  0  0  0  0  0  0  0  0  0
  -30.3495   65.6713   64.7056 C   0  0  0  0  0  0  0  0  0  0  0  0
 43 45  1  0  0  0
 43 42  1  0  0  0
 43 46  1  0  0  0
 64 65  1  0  0  0
 44 45  2  0  0  0
 65 63  1  0  0  0
  2  1  1  0  0  0
  2  4  1  0  0  0
  2  5  1  0  0  0
  3  4  2  0  0  0
 63 62  1  0  0  0
  6  8  1  0  0  0
  6 11  2  0  0  0
  7 10  1  0  0  0
  7 11  1  0  0  0
 62 61  1  0  0  0
 26 28  1  0  0  0
 26 32  1  0  0  0
 26 29  1  0  0  0
 12 18  1  0  0  0
 12 19  1  0  0  0
 61 60  1  0  0  0
 30 36  1  0  0  0
 30 37  1  0  0  0
 30 38  1  0  0  0
 20 21  2  0  0  0
 60 59  1  0  0  0
 22 21  1  0  0  0
 22 23  1  0  0  0
 59 58  1  0  0  0
 27 28  2  0  0  0
 58 57  1  0  0  0
 31 37  2  0  0  0
 57 56  1  0  0  0
 56 55  1  0  0  0
 55 54  1  0  0  0
 54 53  1  0  0  0
 53 52  1  0  0  0
 52 51  1  0  0  0
 51 50  1  0  0  0
 50 49  1  0  0  0
 49 47  1  0  0  0
 47 48  2  0  0  0
 48 45  1  0  0  0
 42 41  1  0  0  0
 41 40  1  0  0  0
 40 39  1  0  0  0
 39  1  1  0  0  0
  1 21  1  0  0  0
  8  4  1  0  0  0
  8  9  1  0  0  0
  8 10  1  0  0  0
 11 13  1  0  0  0
 13 14  2  0  0  0
 13 18  1  0  0  0
 14 15  1  0  0  0
 15 16  2  0  0  0
 16 17  1  0  0  0
 17 18  2  0  0  0
 23 24  1  0  0  0
 23 25  1  0  0  0
 25 28  1  0  0  0
 32 33  1  0  0  0
 32 37  1  0  0  0
 33 34  1  0  0  0
 34 35  1  0  0  0
 35 36  1  0  0  0
M  END
> <minimizedAffinity>
-10.20865

> <CNNscore>
0.1909073591

> <CNNaffinity>
7.4437623024

> <CNN_VS>
1.4210690260

> <CNNaffinity_variance>
2.0775799751

$$$$
/media/chris/experiments/cd1a-new-docking/inputs/ligands/7ryo_ligand.pdb


 65 67  0  0  0  0  0  0  0  0999 V2000
  -38.5321   60.4671   64.8736 C   0  0  0  0  0  0  0  0  0  0  0  0
  -37.7756   59.4817   64.1194 N   0  0  0  0  0  0  0  0  0  0  0  0
  -36.9318   61.0038   62.6965 O   0  0  0  0  0  0  0  0  0  0  0  0
  -37.0268   59.8460   63.0757 C   0  0  0  0  0  0  0  0  0  0  0  0
  -37.8157   58.5336   64.3815 H   0  0  0  0  0  0  0  0  0  0  0  0
  -34.8598   59.1077   62.1643 N   0  0  0  0  0  0  0  0  0  0  0  0
  -34.8260   57.0374   63.0567 O   0  0  0  0  0  0  0  0  0  0  0  0
  -36.2766   58.7383   62.3179 C   0  0  0  0  0  0  0  0  0  0  0  0
  -36.9007   58.5763   60.9352 C   0  0  0  0  0  0  0  0  0  0  0  0
  -36.2288   57.4050   63.0788 C   0  0  0  0  0  0  0  0  0  0  0  0
  -34.1699   58.1319   62.5906 C   0  0  0  0  0  0  0  0  0  0  0  0
  -32.5631   57.9380   60.2108 O   0  0  0  0  0  0  0  0  0  0  0  0
  -32.7075   58.0586   62.6274 C   0  0  0  0  0  0  0  0  0  0  0  0
  -32.0276   58.2267   63.8343 C   0  0  0  0  0  0  0  0  0  0  0  0
  -30.6546   58.4028   63.8483 C   0  0  0  0  0  0  0  0  0  0  0  0
  -29.9406   58.4143   62.6699 C   0  0  0  0  0  0  0  0  0  0  0  0
  -30.5910   58.2545   61.4599 C   0  0  0  0  0  0  0  0  0  0  0  0
  -31.9707   58.0783   61.4251 C   0  0  0  0  0  0  0  0  0  0  0  0
  -33.4905   57.8177   60.1530 H   0  0  0  0  0  0  0  0  0  0  0  0
  -37.6205   60.2904   67.1049 O   0  0  0  0  0  0  0  0  0  0  0  0
  -37.7616   60.9318   66.1004 C   0  0  0  0  0  0  0  0  0  0  0  0
  -37.2773   62.1716   65.9117 O   0  0  0  0  0  0  0  0  0  0  0  0
  -35.8339   62.3264   65.7059 C   0  0  0  0  0  0  0  0  0  0  0  0
  -35.1802   62.4579   67.0583 C   0  0  0  0  0  0  0  0  0  0  0  0
  -35.6741   63.5771   64.8638 C   0  0  0  0  0  0  0  0  0  0  0  0
  -33.9097   63.0952   63.2836 N   0  0  0  0  0  0  0  0  0  0  0  0
  -33.4860   64.5444   64.9514 O   0  0  0  0  0  0  0  0  0  0  0  0
  -34.2573   63.7823   64.3755 C   0  0  0  0  0  0  0  0  0  0  0  0
  -34.5706   62.4984   62.8637 H   0  0  0  0  0  0  0  0  0  0  0  0
  -31.5642   64.5587   60.9490 N   0  0  0  0  0  0  0  0  0  0  0  0
  -33.7773   64.2010   60.8768 O   0  0  0  0  0  0  0  0  0  0  0  0
  -32.5849   63.2037   62.6983 C   0  0  0  0  0  0  0  0  0  0  0  0
  -32.0438   61.8106   62.3577 C   0  0  0  0  0  0  0  0  0  0  0  0
  -30.5309   61.7714   62.1714 C   0  0  0  0  0  0  0  0  0  0  0  0
  -29.9916   62.6228   61.0392 C   0  0  0  0  0  0  0  0  0  0  0  0
  -30.2038   64.1104   61.2265 C   0  0  0  0  0  0  0  0  0  0  0  0
  -32.6935   64.0316   61.4276 C   0  0  0  0  0  0  0  0  0  0  0  0
  -31.6593   65.3307   60.3455 H   0  0  0  0  0  0  0  0  0  0  0  0
  -39.9094   59.9295   65.2649 C   0  0  0  0  0  0  0  0  0  0  0  0
  -41.0244   60.5040   64.3977 C   0  0  0  0  0  0  0  0  0  0  0  0
  -40.5562   60.9048   63.0111 C   0  0  0  0  0  0  0  0  0  0  0  0
  -40.5371   59.7797   61.9996 C   0  0  0  0  0  0  0  0  0  0  0  0
  -41.4635   58.7237   62.3761 N   0  0  0  0  0  0  0  0  0  0  0  0
  -39.8374   57.2477   62.8966 O   0  0  0  0  0  0  0  0  0  0  0  0
  -41.0438   57.5267   62.8000 C   0  0  0  0  0  0  0  0  0  0  0  0
  -42.4311   58.8956   62.3170 H   0  0  0  0  0  0  0  0  0  0  0  0
  -42.7340   56.4011   64.2317 C   0  0  0  0  0  0  0  0  0  0  0  0
  -42.1294   56.5554   63.0615 C   0  0  0  0  0  0  0  0  0  0  0  0
  -42.4822   57.1549   65.5001 C   0  0  0  0  0  0  0  0  0  0  0  0
  -43.6604   58.0481   65.8689 C   0  0  0  0  0  0  0  0  0  0  0  0
  -44.9447   57.7037   65.1345 C   0  0  0  0  0  0  0  0  0  0  0  0
  -46.1781   58.3695   65.7215 C   0  0  0  0  0  0  0  0  0  0  0  0
  -47.2363   58.7393   64.6991 C   0  0  0  0  0  0  0  0  0  0  0  0
  -48.5743   58.0601   64.9402 C   0  0  0  0  0  0  0  0  0  0  0  0
  -49.2804   58.5410   66.1928 C   0  0  0  0  0  0  0  0  0  0  0  0
  -50.3592   59.5674   65.9104 C   0  0  0  0  0  0  0  0  0  0  0  0
  -50.2836   60.1911   64.5301 C   0  0  0  0  0  0  0  0  0  0  0  0
  -51.4808   59.8478   63.6660 C   0  0  0  0  0  0  0  0  0  0  0  0
  -51.1333   58.9489   62.4906 C   0  0  0  0  0  0  0  0  0  0  0  0
  -49.8945   59.3792   61.7242 C   0  0  0  0  0  0  0  0  0  0  0  0
  -48.9680   58.2351   61.3426 C   0  0  0  0  0  0  0  0  0  0  0  0
  -49.1935   57.7013   59.9348 C   0  0  0  0  0  0  0  0  0  0  0  0
  -47.9281   57.1740   59.2778 C   0  0  0  0  0  0  0  0  0  0  0  0
  -46.2142   58.0707   57.6546 C   0  0  0  0  0  0  0  0  0  0  0  0
  -47.6622   57.7297   57.8905 C   0  0  0  0  0  0  0  0  0  0  0  0
 43 45  1  0  0  0
 43 42  1  0  0  0
 43 46  1  0  0  0
 64 65  1  0  0  0
 44 45  2  0  0  0
 65 63  1  0  0  0
  2  1  1  0  0  0
  2  4  1  0  0  0
  2  5  1  0  0  0
  3  4  2  0  0  0
 63 62  1  0  0  0
  6  8  1  0  0  0
  6 11  2  0  0  0
  7 10  1  0  0  0
  7 11  1  0  0  0
 62 61  1  0  0  0
 26 28  1  0  0  0
 26 32  1  0  0  0
 26 29  1  0  0  0
 12 18  1  0  0  0
 12 19  1  0  0  0
 61 60  1  0  0  0
 30 36  1  0  0  0
 30 37  1  0  0  0
 30 38  1  0  0  0
 20 21  2  0  0  0
 60 59  1  0  0  0
 22 21  1  0  0  0
 22 23  1  0  0  0
 59 58  1  0  0  0
 27 28  2  0  0  0
 58 57  1  0  0  0
 31 37  2  0  0  0
 57 56  1  0  0  0
 56 55  1  0  0  0
 55 54  1  0  0  0
 54 53  1  0  0  0
 53 52  1  0  0  0
 52 51  1  0  0  0
 51 50  1  0  0  0
 50 49  1  0  0  0
 49 47  1  0  0  0
 47 48  2  0  0  0
 48 45  1  0  0  0
 42 41  1  0  0  0
 41 40  1  0  0  0
 40 39  1  0  0  0
 39  1  1  0  0  0
  1 21  1  0  0  0
  8  4  1  0  0  0
  8  9  1  0  0  0
  8 10  1  0  0  0
 11 13  1  0  0  0
 13 14  2  0  0  0
 13 18  1  0  0  0
 14 15  1  0  0  0
 15 16  2  0  0  0
 16 17  1  0  0  0
 17 18  2  0  0  0
 23 24  1  0  0  0
 23 25  1  0  0  0
 25 28  1  0  0  0
 32 33  1  0  0  0
 32 37  1  0  0  0
 33 34  1  0  0  0
 34 35  1  0  0  0
 35 36  1  0  0  0
M  END
> <minimizedAffinity>
-10.17651

> <CNNscore>
0.1906812191

> <CNNaffinity>
7.3270263672

> <CNN_VS>
1.3971263170

> <CNNaffinity_variance>
1.5660860538

$$$$
