/media/chris/experiments/cd1a-new-docking/inputs/ligands/7ryn_ligand.pdb


 68 68  0  0  0  0  0  0  0  0999 V2000
  -32.9266   62.6074   62.7716 C   0  0  0  0  0  0  0  0  0  0  0  0
  -34.0473   62.3125   63.6595 N   0  0  0  0  0  0  0  0  0  0  0  0
  -35.5669   63.5316   62.5316 O   0  0  0  0  0  0  0  0  0  0  0  0
  -35.2780   62.7963   63.4712 C   0  0  0  0  0  0  0  0  0  0  0  0
  -33.8881   61.7280   64.4356 H   0  0  0  0  0  0  0  0  0  0  0  0
  -36.3077   62.3749   64.4897 C   0  0  0  0  0  0  0  0  0  0  0  0
  -36.6671   60.8985   64.3815 C   0  0  0  0  0  0  0  0  0  0  0  0
  -37.3836   60.3772   65.6169 C   0  0  0  0  0  0  0  0  0  0  0  0
  -38.2883   59.1863   65.3478 C   0  0  0  0  0  0  0  0  0  0  0  0
  -39.6912   59.5681   64.8999 C   0  0  0  0  0  0  0  0  0  0  0  0
  -40.6955   59.6842   66.0396 C   0  0  0  0  0  0  0  0  0  0  0  0
  -41.6513   58.5026   66.1423 C   0  0  0  0  0  0  0  0  0  0  0  0
  -43.0984   58.8827   66.4452 C   0  0  0  0  0  0  0  0  0  0  0  0
  -44.1148   57.8017   66.0807 C   0  0  0  0  0  0  0  0  0  0  0  0
  -45.4156   58.3284   65.4750 C   0  0  0  0  0  0  0  0  0  0  0  0
  -46.6318   58.1337   66.3807 C   0  0  0  0  0  0  0  0  0  0  0  0
  -47.9085   57.6937   65.6645 C   0  0  0  0  0  0  0  0  0  0  0  0
  -48.8669   58.8300   65.2983 C   0  0  0  0  0  0  0  0  0  0  0  0
  -48.6266   59.3744   63.9199 C   0  0  0  0  0  0  0  0  0  0  0  0
  -49.4536   59.2865   62.8931 C   0  0  0  0  0  0  0  0  0  0  0  0
  -50.7999   58.6279   62.8990 C   0  0  0  0  0  0  0  0  0  0  0  0
  -51.1258   57.8840   61.6021 C   0  0  0  0  0  0  0  0  0  0  0  0
  -50.0955   58.1095   60.5033 C   0  0  0  0  0  0  0  0  0  0  0  0
  -49.3447   56.8426   60.1089 C   0  0  0  0  0  0  0  0  0  0  0  0
  -48.0143   57.0899   59.4070 C   0  0  0  0  0  0  0  0  0  0  0  0
  -47.5786   55.9481   58.4995 C   0  0  0  0  0  0  0  0  0  0  0  0
  -47.0678   56.3948   57.1389 C   0  0  0  0  0  0  0  0  0  0  0  0
  -47.4535   57.8212   56.8038 C   0  0  0  0  0  0  0  0  0  0  0  0
  -31.4244   61.3815   61.3310 O   0  0  0  0  0  0  0  0  0  0  0  0
  -32.0570   61.3497   62.6136 C   0  0  0  0  0  0  0  0  0  0  0  0
  -30.9076   62.1979   61.2455 H   0  0  0  0  0  0  0  0  0  0  0  0
  -32.8659   60.1001   62.7813 C   0  0  0  0  0  0  0  0  0  0  0  0
  -32.7718   59.2672   63.7989 C   0  0  0  0  0  0  0  0  0  0  0  0
  -33.6041   58.0356   63.9449 C   0  0  0  0  0  0  0  0  0  0  0  0
  -34.2929   57.6774   62.6264 C   0  0  0  0  0  0  0  0  0  0  0  0
  -35.8089   57.6108   62.7135 C   0  0  0  0  0  0  0  0  0  0  0  0
  -36.5312   58.2869   61.5607 C   0  0  0  0  0  0  0  0  0  0  0  0
  -38.0438   58.3347   61.7209 C   0  0  0  0  0  0  0  0  0  0  0  0
  -38.6332   57.0744   62.3353 C   0  0  0  0  0  0  0  0  0  0  0  0
  -40.1475   57.0019   62.2485 C   0  0  0  0  0  0  0  0  0  0  0  0
  -40.7105   57.4210   60.9032 C   0  0  0  0  0  0  0  0  0  0  0  0
  -41.8228   58.4513   60.9955 C   0  0  0  0  0  0  0  0  0  0  0  0
  -42.4541   58.5213   62.3737 C   0  0  0  0  0  0  0  0  0  0  0  0
  -42.6478   59.9295   62.9029 C   0  0  0  0  0  0  0  0  0  0  0  0
  -42.2559   60.9903   61.8931 C   0  0  0  0  0  0  0  0  0  0  0  0
  -43.0297   62.2796   62.0761 C   0  0  0  0  0  0  0  0  0  0  0  0
  -32.1349   63.7826   63.3071 C   0  0  0  0  0  0  0  0  0  0  0  0
  -30.7870   63.6694   62.8369 O   0  0  0  0  0  0  0  0  0  0  0  0
  -30.6019   64.0695   60.0716 O   0  0  0  0  0  0  0  0  0  0  0  0
  -31.9958   67.8255   61.6437 O   0  0  0  0  0  0  0  0  0  0  0  0
  -30.5051   65.9295   63.2124 O   0  0  0  0  0  0  0  0  0  0  0  0
  -30.2545   64.8560   62.3246 C   0  0  0  0  0  0  0  0  0  0  0  0
  -30.9095   65.1231   60.9756 C   0  0  0  0  0  0  0  0  0  0  0  0
  -30.4228   66.4549   60.4184 C   0  0  0  0  0  0  0  0  0  0  0  0
  -30.6103   67.5733   61.4328 C   0  0  0  0  0  0  0  0  0  0  0  0
  -29.9609   67.1787   62.7570 C   0  0  0  0  0  0  0  0  0  0  0  0
  -30.9163   63.2278   60.4371 H   0  0  0  0  0  0  0  0  0  0  0  0
  -32.4104   68.0765   60.8035 H   0  0  0  0  0  0  0  0  0  0  0  0
  -30.0022   69.5186   63.3990 O   0  0  0  0  0  0  0  0  0  0  0  0
  -30.1963   68.1858   63.8582 C   0  0  0  0  0  0  0  0  0  0  0  0
  -30.1606   70.1382   64.1282 H   0  0  0  0  0  0  0  0  0  0  0  0
  -31.2750   66.7025   59.2558 O   0  0  0  0  0  0  0  0  0  0  0  0
  -29.2932   67.4849   58.1299 O   0  0  0  0  0  0  0  0  0  0  0  0
  -31.5302   67.5718   56.9880 O   0  0  0  0  0  0  0  0  0  0  0  0
  -30.4038   65.5191   57.3815 O   0  0  0  0  0  0  0  0  0  0  0  0
  -30.5834   66.9721   57.8512 S   0  0  0  0  0  0  0  0  0  0  0  0
  -29.3685   68.4040   58.4303 H   0  0  0  0  0  0  0  0  0  0  0  0
  -29.7586   65.0724   57.9517 H   0  0  0  0  0  0  0  0  0  0  0  0
  2  1  1  0  0  0
  2  4  1  0  0  0
  2  5  1  0  0  0
 47 48  1  0  0  0
 47  1  1  0  0  0
 48 52  1  0  0  0
  1 30  1  0  0  0
 29 30  1  0  0  0
 29 31  1  0  0  0
 30 32  1  0  0  0
  3  4  2  0  0  0
 32 33  2  0  0  0
 49 53  1  0  0  0
 49 57  1  0  0  0
 33 34  1  0  0  0
 62 54  1  0  0  0
 62 66  1  0  0  0
 34 35  1  0  0  0
 50 55  1  0  0  0
 50 58  1  0  0  0
 35 36  1  0  0  0
 51 52  1  0  0  0
 51 56  1  0  0  0
 36 37  1  0  0  0
 59 60  1  0  0  0
 59 61  1  0  0  0
 37 38  1  0  0  0
 63 66  1  0  0  0
 63 67  1  0  0  0
 38 39  1  0  0  0
 64 66  1  0  0  0
 39 40  1  0  0  0
 65 66  1  0  0  0
 65 68  1  0  0  0
 40 41  1  0  0  0
 41 42  1  0  0  0
 42 43  1  0  0  0
 43 44  1  0  0  0
 44 45  1  0  0  0
 45 46  1  0  0  0
  4  6  1  0  0  0
  6  7  1  0  0  0
  7  8  1  0  0  0
  8  9  1  0  0  0
  9 10  1  0  0  0
 10 11  1  0  0  0
 11 12  1  0  0  0
 12 13  1  0  0  0
 13 14  1  0  0  0
 14 15  1  0  0  0
 15 16  1  0  0  0
 16 17  1  0  0  0
 17 18  1  0  0  0
 18 19  1  0  0  0
 19 20  2  0  0  0
 20 21  1  0  0  0
 21 22  1  0  0  0
 22 23  1  0  0  0
 23 24  1  0  0  0
 24 25  1  0  0  0
 25 26  1  0  0  0
 26 27  1  0  0  0
 27 28  1  0  0  0
 52 53  1  0  0  0
 53 54  1  0  0  0
 54 55  1  0  0  0
 55 56  1  0  0  0
 56 60  1  0  0  0
M  CHG 1  64  -1
M  END
> <minimizedAffinity>
-9.08691

> <CNNscore>
0.3489277661

> <CNNaffinity>
7.0144987106

> <CNN_VS>
2.4475533962

> <CNNaffinity_variance>
1.0150120258

$$$$
/media/chris/experiments/cd1a-new-docking/inputs/ligands/7ryn_ligand.pdb


 68 68  0  0  0  0  0  0  0  0999 V2000
  -31.6987   63.5136   63.4477 C   0  0  0  0  0  0  0  0  0  0  0  0
  -32.5211   63.1253   64.5897 N   0  0  0  0  0  0  0  0  0  0  0  0
  -33.0735   65.2195   65.2034 O   0  0  0  0  0  0  0  0  0  0  0  0
  -33.1435   64.0063   65.3774 C   0  0  0  0  0  0  0  0  0  0  0  0
  -32.6219   62.1665   64.7891 H   0  0  0  0  0  0  0  0  0  0  0  0
  -33.9543   63.4155   66.5038 C   0  0  0  0  0  0  0  0  0  0  0  0
  -34.5222   62.0446   66.1591 C   0  0  0  0  0  0  0  0  0  0  0  0
  -36.0329   62.0613   65.9892 C   0  0  0  0  0  0  0  0  0  0  0  0
  -36.5859   60.8397   65.2742 C   0  0  0  0  0  0  0  0  0  0  0  0
  -38.0765   60.6239   65.4884 C   0  0  0  0  0  0  0  0  0  0  0  0
  -38.5138   59.1685   65.3807 C   0  0  0  0  0  0  0  0  0  0  0  0
  -40.0238   58.9729   65.4286 C   0  0  0  0  0  0  0  0  0  0  0  0
  -40.8014   60.1728   65.9635 C   0  0  0  0  0  0  0  0  0  0  0  0
  -42.0219   59.7989   66.8031 C   0  0  0  0  0  0  0  0  0  0  0  0
  -42.3111   58.2996   66.8745 C   0  0  0  0  0  0  0  0  0  0  0  0
  -43.7122   57.9261   66.3898 C   0  0  0  0  0  0  0  0  0  0  0  0
  -43.8619   57.8063   64.8733 C   0  0  0  0  0  0  0  0  0  0  0  0
  -45.1785   58.3482   64.3103 C   0  0  0  0  0  0  0  0  0  0  0  0
  -46.1987   58.6251   65.3764 C   0  0  0  0  0  0  0  0  0  0  0  0
  -47.4766   58.8973   65.1792 C   0  0  0  0  0  0  0  0  0  0  0  0
  -48.1654   58.9817   63.8508 C   0  0  0  0  0  0  0  0  0  0  0  0
  -49.0079   60.2468   63.6745 C   0  0  0  0  0  0  0  0  0  0  0  0
  -50.2516   60.0283   62.8232 C   0  0  0  0  0  0  0  0  0  0  0  0
  -50.9077   58.6706   63.0482 C   0  0  0  0  0  0  0  0  0  0  0  0
  -51.0951   57.8424   61.7822 C   0  0  0  0  0  0  0  0  0  0  0  0
  -49.7976   57.5559   61.0396 C   0  0  0  0  0  0  0  0  0  0  0  0
  -49.7955   58.0158   59.5903 C   0  0  0  0  0  0  0  0  0  0  0  0
  -48.4137   57.9997   58.9689 C   0  0  0  0  0  0  0  0  0  0  0  0
  -33.4052   62.9039   61.8506 O   0  0  0  0  0  0  0  0  0  0  0  0
  -32.0556   62.6326   62.2397 C   0  0  0  0  0  0  0  0  0  0  0  0
  -33.5019   63.8494   61.6564 H   0  0  0  0  0  0  0  0  0  0  0  0
  -31.8688   61.1786   62.5479 C   0  0  0  0  0  0  0  0  0  0  0  0
  -32.8070   60.2573   62.4539 C   0  0  0  0  0  0  0  0  0  0  0  0
  -32.5851   58.8111   62.7544 C   0  0  0  0  0  0  0  0  0  0  0  0
  -33.8361   57.9865   62.4441 C   0  0  0  0  0  0  0  0  0  0  0  0
  -35.0611   58.3853   63.2508 C   0  0  0  0  0  0  0  0  0  0  0  0
  -36.2918   58.6833   62.4115 C   0  0  0  0  0  0  0  0  0  0  0  0
  -37.1157   57.4524   62.0624 C   0  0  0  0  0  0  0  0  0  0  0  0
  -38.6113   57.7190   61.9888 C   0  0  0  0  0  0  0  0  0  0  0  0
  -39.4600   56.6169   62.5979 C   0  0  0  0  0  0  0  0  0  0  0  0
  -40.9516   56.8925   62.5593 C   0  0  0  0  0  0  0  0  0  0  0  0
  -41.3814   57.7947   61.4153 C   0  0  0  0  0  0  0  0  0  0  0  0
  -42.3719   58.8624   61.8412 C   0  0  0  0  0  0  0  0  0  0  0  0
  -41.7442   60.2033   62.1702 C   0  0  0  0  0  0  0  0  0  0  0  0
  -42.7066   61.1403   62.8734 C   0  0  0  0  0  0  0  0  0  0  0  0
  -43.0408   62.3608   62.0408 C   0  0  0  0  0  0  0  0  0  0  0  0
  -30.2306   63.4170   63.8080 C   0  0  0  0  0  0  0  0  0  0  0  0
  -29.4628   63.9190   62.7083 O   0  0  0  0  0  0  0  0  0  0  0  0
  -29.3893   65.3499   60.3025 O   0  0  0  0  0  0  0  0  0  0  0  0
  -31.8095   67.7396   62.9395 O   0  0  0  0  0  0  0  0  0  0  0  0
  -29.8434   65.8659   63.8887 O   0  0  0  0  0  0  0  0  0  0  0  0
  -29.2915   65.3063   62.7115 C   0  0  0  0  0  0  0  0  0  0  0  0
  -29.9902   65.8707   61.4813 C   0  0  0  0  0  0  0  0  0  0  0  0
  -29.9042   67.3917   61.4893 C   0  0  0  0  0  0  0  0  0  0  0  0
  -30.4091   67.9609   62.8069 C   0  0  0  0  0  0  0  0  0  0  0  0
  -29.6790   67.2908   63.9682 C   0  0  0  0  0  0  0  0  0  0  0  0
  -29.4503   64.3819   60.3091 H   0  0  0  0  0  0  0  0  0  0  0  0
  -32.2753   68.1647   62.2026 H   0  0  0  0  0  0  0  0  0  0  0  0
  -30.5763   66.5957   66.1131 O   0  0  0  0  0  0  0  0  0  0  0  0
  -30.1981   67.7162   65.3217 C   0  0  0  0  0  0  0  0  0  0  0  0
  -30.9041   66.9028   66.9728 H   0  0  0  0  0  0  0  0  0  0  0  0
  -30.7870   67.8173   60.4035 O   0  0  0  0  0  0  0  0  0  0  0  0
  -29.0945   68.0324   58.7017 O   0  0  0  0  0  0  0  0  0  0  0  0
  -30.1455   70.0735   59.7241 O   0  0  0  0  0  0  0  0  0  0  0  0
  -31.3442   68.6551   58.2448 O   0  0  0  0  0  0  0  0  0  0  0  0
  -30.1891   68.7392   59.2561 S   0  0  0  0  0  0  0  0  0  0  0  0
  -28.3444   68.0648   59.3157 H   0  0  0  0  0  0  0  0  0  0  0  0
  -31.4066   67.7508   57.8997 H   0  0  0  0  0  0  0  0  0  0  0  0
  2  1  1  0  0  0
  2  4  1  0  0  0
  2  5  1  0  0  0
 47 48  1  0  0  0
 47  1  1  0  0  0
 48 52  1  0  0  0
  1 30  1  0  0  0
 29 30  1  0  0  0
 29 31  1  0  0  0
 30 32  1  0  0  0
  3  4  2  0  0  0
 32 33  2  0  0  0
 49 53  1  0  0  0
 49 57  1  0  0  0
 33 34  1  0  0  0
 62 54  1  0  0  0
 62 66  1  0  0  0
 34 35  1  0  0  0
 50 55  1  0  0  0
 50 58  1  0  0  0
 35 36  1  0  0  0
 51 52  1  0  0  0
 51 56  1  0  0  0
 36 37  1  0  0  0
 59 60  1  0  0  0
 59 61  1  0  0  0
 37 38  1  0  0  0
 63 66  1  0  0  0
 63 67  1  0  0  0
 38 39  1  0  0  0
 64 66  1  0  0  0
 39 40  1  0  0  0
 65 66  1  0  0  0
 65 68  1  0  0  0
 40 41  1  0  0  0
 41 42  1  0  0  0
 42 43  1  0  0  0
 43 44  1  0  0  0
 44 45  1  0  0  0
 45 46  1  0  0  0
  4  6  1  0  0  0
  6  7  1  0  0  0
  7  8  1  0  0  0
  8  9  1  0  0  0
  9 10  1  0  0  0
 10 11  1  0  0  0
 11 12  1  0  0  0
 12 13  1  0  0  0
 13 14  1  0  0  0
 14 15  1  0  0  0
 15 16  1  0  0  0
 16 17  1  0  0  0
 17 18  1  0  0  0
 18 19  1  0  0  0
 19 20  2  0  0  0
 20 21  1  0  0  0
 21 22  1  0  0  0
 22 23  1  0  0  0
 23 24  1  0  0  0
 24 25  1  0  0  0
 25 26  1  0  0  0
 26 27  1  0  0  0
 27 28  1  0  0  0
 52 53  1  0  0  0
 53 54  1  0  0  0
 54 55  1  0  0  0
 55 56  1  0  0  0
 56 60  1  0  0  0
M  CHG 1  64  -1
M  END
> <minimizedAffinity>
-8.86105

> <CNNscore>
0.2208881676

> <CNNaffinity>
6.6784791946

> <CNN_VS>
1.4751970768

> <CNNaffinity_variance>
1.6749868393

$$$$
/media/chris/experiments/cd1a-new-docking/inputs/ligands/7ryn_ligand.pdb


 68 68  0  0  0  0  0  0  0  0999 V2000
  -31.7819   63.7343   63.0936 C   0  0  0  0  0  0  0  0  0  0  0  0
  -32.5266   63.4661   64.3203 N   0  0  0  0  0  0  0  0  0  0  0  0
  -32.9040   65.6233   64.8415 O   0  0  0  0  0  0  0  0  0  0  0  0
  -33.0289   64.4292   65.0976 C   0  0  0  0  0  0  0  0  0  0  0  0
  -32.6655   62.5289   64.5879 H   0  0  0  0  0  0  0  0  0  0  0  0
  -33.7751   63.9577   66.3208 C   0  0  0  0  0  0  0  0  0  0  0  0
  -34.3078   62.5386   66.1699 C   0  0  0  0  0  0  0  0  0  0  0  0
  -35.7931   62.5007   65.8480 C   0  0  0  0  0  0  0  0  0  0  0  0
  -36.1098   61.9597   64.4637 C   0  0  0  0  0  0  0  0  0  0  0  0
  -37.3229   61.0424   64.4243 C   0  0  0  0  0  0  0  0  0  0  0  0
  -37.7774   60.5567   65.7948 C   0  0  0  0  0  0  0  0  0  0  0  0
  -39.0119   59.6651   65.7552 C   0  0  0  0  0  0  0  0  0  0  0  0
  -40.0187   60.0251   64.6655 C   0  0  0  0  0  0  0  0  0  0  0  0
  -41.4670   60.0773   65.1493 C   0  0  0  0  0  0  0  0  0  0  0  0
  -41.6724   59.6261   66.5953 C   0  0  0  0  0  0  0  0  0  0  0  0
  -42.5802   58.4032   66.7285 C   0  0  0  0  0  0  0  0  0  0  0  0
  -43.2880   57.9793   65.4417 C   0  0  0  0  0  0  0  0  0  0  0  0
  -44.8082   57.8399   65.5575 C   0  0  0  0  0  0  0  0  0  0  0  0
  -45.3877   58.6729   66.6642 C   0  0  0  0  0  0  0  0  0  0  0  0
  -46.6549   58.6986   67.0374 C   0  0  0  0  0  0  0  0  0  0  0  0
  -47.7688   57.8988   66.4325 C   0  0  0  0  0  0  0  0  0  0  0  0
  -48.9254   58.7534   65.9097 C   0  0  0  0  0  0  0  0  0  0  0  0
  -48.4652   60.0128   65.1876 C   0  0  0  0  0  0  0  0  0  0  0  0
  -49.3042   60.3466   63.9592 C   0  0  0  0  0  0  0  0  0  0  0  0
  -50.7615   59.9091   64.0522 C   0  0  0  0  0  0  0  0  0  0  0  0
  -51.1736   58.9169   62.9739 C   0  0  0  0  0  0  0  0  0  0  0  0
  -50.0066   58.2635   62.2506 C   0  0  0  0  0  0  0  0  0  0  0  0
  -50.2209   58.1664   60.7538 C   0  0  0  0  0  0  0  0  0  0  0  0
  -33.8104   62.9895   62.0141 O   0  0  0  0  0  0  0  0  0  0  0  0
  -32.3838   62.9128   61.9422 C   0  0  0  0  0  0  0  0  0  0  0  0
  -34.0861   63.9190   61.9847 H   0  0  0  0  0  0  0  0  0  0  0  0
  -31.9209   61.4887   61.9852 C   0  0  0  0  0  0  0  0  0  0  0  0
  -32.5077   60.5211   62.6616 C   0  0  0  0  0  0  0  0  0  0  0  0
  -32.0298   59.1061   62.6723 C   0  0  0  0  0  0  0  0  0  0  0  0
  -32.7965   58.2742   63.7026 C   0  0  0  0  0  0  0  0  0  0  0  0
  -33.9986   58.9827   64.3053 C   0  0  0  0  0  0  0  0  0  0  0  0
  -35.1693   58.0677   64.6214 C   0  0  0  0  0  0  0  0  0  0  0  0
  -35.8126   57.4393   63.3937 C   0  0  0  0  0  0  0  0  0  0  0  0
  -36.1992   58.4477   62.3228 C   0  0  0  0  0  0  0  0  0  0  0  0
  -37.5778   58.2134   61.7309 C   0  0  0  0  0  0  0  0  0  0  0  0
  -38.2728   56.9706   62.2554 C   0  0  0  0  0  0  0  0  0  0  0  0
  -39.7891   57.0616   62.2421 C   0  0  0  0  0  0  0  0  0  0  0  0
  -40.3125   58.1066   61.2743 C   0  0  0  0  0  0  0  0  0  0  0  0
  -41.6550   58.6989   61.6582 C   0  0  0  0  0  0  0  0  0  0  0  0
  -41.7161   60.1971   61.4344 C   0  0  0  0  0  0  0  0  0  0  0  0
  -41.5391   60.5741   59.9780 C   0  0  0  0  0  0  0  0  0  0  0  0
  -30.3125   63.4310   63.3011 C   0  0  0  0  0  0  0  0  0  0  0  0
  -29.5474   64.5032   62.7389 O   0  0  0  0  0  0  0  0  0  0  0  0
  -30.1485   66.7694   64.2698 O   0  0  0  0  0  0  0  0  0  0  0  0
  -29.1522   68.2978   60.3719 O   0  0  0  0  0  0  0  0  0  0  0  0
  -30.1199   65.6228   60.8031 O   0  0  0  0  0  0  0  0  0  0  0  0
  -30.3167   65.5397   62.2023 C   0  0  0  0  0  0  0  0  0  0  0  0
  -29.8907   66.8391   62.8731 C   0  0  0  0  0  0  0  0  0  0  0  0
  -30.6431   68.0113   62.2559 C   0  0  0  0  0  0  0  0  0  0  0  0
  -30.4985   68.0171   60.7413 C   0  0  0  0  0  0  0  0  0  0  0  0
  -30.9027   66.6552   60.1824 C   0  0  0  0  0  0  0  0  0  0  0  0
  -29.6646   66.0201   64.6509 H   0  0  0  0  0  0  0  0  0  0  0  0
  -28.8933   69.1628   60.7260 H   0  0  0  0  0  0  0  0  0  0  0  0
  -29.4160   65.9595   58.3951 O   0  0  0  0  0  0  0  0  0  0  0  0
  -30.6830   66.5347   58.6926 C   0  0  0  0  0  0  0  0  0  0  0  0
  -29.3071   65.8967   57.4333 H   0  0  0  0  0  0  0  0  0  0  0  0
  -29.9967   69.1995   62.8125 O   0  0  0  0  0  0  0  0  0  0  0  0
  -30.8404   71.3279   62.0606 O   0  0  0  0  0  0  0  0  0  0  0  0
  -30.6428   70.8264   64.5152 O   0  0  0  0  0  0  0  0  0  0  0  0
  -32.2812   69.7813   63.1513 O   0  0  0  0  0  0  0  0  0  0  0  0
  -30.8996   70.4556   63.1745 S   0  0  0  0  0  0  0  0  0  0  0  0
  -29.9784   71.7723   62.0435 H   0  0  0  0  0  0  0  0  0  0  0  0
  -32.4942   69.5114   62.2443 H   0  0  0  0  0  0  0  0  0  0  0  0
  2  1  1  0  0  0
  2  4  1  0  0  0
  2  5  1  0  0  0
 47 48  1  0  0  0
 47  1  1  0  0  0
 48 52  1  0  0  0
  1 30  1  0  0  0
 29 30  1  0  0  0
 29 31  1  0  0  0
 30 32  1  0  0  0
  3  4  2  0  0  0
 32 33  2  0  0  0
 49 53  1  0  0  0
 49 57  1  0  0  0
 33 34  1  0  0  0
 62 54  1  0  0  0
 62 66  1  0  0  0
 34 35  1  0  0  0
 50 55  1  0  0  0
 50 58  1  0  0  0
 35 36  1  0  0  0
 51 52  1  0  0  0
 51 56  1  0  0  0
 36 37  1  0  0  0
 59 60  1  0  0  0
 59 61  1  0  0  0
 37 38  1  0  0  0
 63 66  1  0  0  0
 63 67  1  0  0  0
 38 39  1  0  0  0
 64 66  1  0  0  0
 39 40  1  0  0  0
 65 66  1  0  0  0
 65 68  1  0  0  0
 40 41  1  0  0  0
 41 42  1  0  0  0
 42 43  1  0  0  0
 43 44  1  0  0  0
 44 45  1  0  0  0
 45 46  1  0  0  0
  4  6  1  0  0  0
  6  7  1  0  0  0
  7  8  1  0  0  0
  8  9  1  0  0  0
  9 10  1  0  0  0
 10 11  1  0  0  0
 11 12  1  0  0  0
 12 13  1  0  0  0
 13 14  1  0  0  0
 14 15  1  0  0  0
 15 16  1  0  0  0
 16 17  1  0  0  0
 17 18  1  0  0  0
 18 19  1  0  0  0
 19 20  2  0  0  0
 20 21  1  0  0  0
 21 22  1  0  0  0
 22 23  1  0  0  0
 23 24  1  0  0  0
 24 25  1  0  0  0
 25 26  1  0  0  0
 26 27  1  0  0  0
 27 28  1  0  0  0
 52 53  1  0  0  0
 53 54  1  0  0  0
 54 55  1  0  0  0
 55 56  1  0  0  0
 56 60  1  0  0  0
M  CHG 1  64  -1
M  END
> <minimizedAffinity>
-8.56833

> <CNNscore>
0.2063934654

> <CNNaffinity>
6.7471618652

> <CNN_VS>
1.3925701380

> <CNNaffinity_variance>
1.8469545841

$$$$
/media/chris/experiments/cd1a-new-docking/inputs/ligands/7ryn_ligand.pdb


 68 68  0  0  0  0  0  0  0  0999 V2000
  -31.8894   65.5755   60.5334 C   0  0  0  0  0  0  0  0  0  0  0  0
  -31.3370   64.4740   61.3163 N   0  0  0  0  0  0  0  0  0  0  0  0
  -33.1638   63.1638   61.1987 O   0  0  0  0  0  0  0  0  0  0  0  0
  -32.0154   63.3559   61.5877 C   0  0  0  0  0  0  0  0  0  0  0  0
  -30.4189   64.5596   61.6613 H   0  0  0  0  0  0  0  0  0  0  0  0
  -31.2757   62.3260   62.4048 C   0  0  0  0  0  0  0  0  0  0  0  0
  -32.1911   61.2259   62.9265 C   0  0  0  0  0  0  0  0  0  0  0  0
  -31.7318   59.8363   62.5149 C   0  0  0  0  0  0  0  0  0  0  0  0
  -32.7874   59.0330   61.7735 C   0  0  0  0  0  0  0  0  0  0  0  0
  -33.4188   57.9287   62.6079 C   0  0  0  0  0  0  0  0  0  0  0  0
  -33.0503   57.9804   64.0852 C   0  0  0  0  0  0  0  0  0  0  0  0
  -34.2524   58.0294   65.0195 C   0  0  0  0  0  0  0  0  0  0  0  0
  -35.4506   58.7998   64.4705 C   0  0  0  0  0  0  0  0  0  0  0  0
  -36.7208   57.9613   64.3365 C   0  0  0  0  0  0  0  0  0  0  0  0
  -37.7153   58.4731   63.2947 C   0  0  0  0  0  0  0  0  0  0  0  0
  -37.6626   57.7050   61.9738 C   0  0  0  0  0  0  0  0  0  0  0  0
  -37.2352   58.5315   60.7611 C   0  0  0  0  0  0  0  0  0  0  0  0
  -38.3747   58.9363   59.8222 C   0  0  0  0  0  0  0  0  0  0  0  0
  -39.4430   59.7345   60.5119 C   0  0  0  0  0  0  0  0  0  0  0  0
  -40.7357   59.4608   60.5210 C   0  0  0  0  0  0  0  0  0  0  0  0
  -41.3952   58.2961   59.8467 C   0  0  0  0  0  0  0  0  0  0  0  0
  -41.4284   57.0283   60.7029 C   0  0  0  0  0  0  0  0  0  0  0  0
  -41.9068   57.2761   62.1274 C   0  0  0  0  0  0  0  0  0  0  0  0
  -40.9987   56.6604   63.1860 C   0  0  0  0  0  0  0  0  0  0  0  0
  -41.4107   56.9602   64.6228 C   0  0  0  0  0  0  0  0  0  0  0  0
  -40.6721   58.1401   65.2387 C   0  0  0  0  0  0  0  0  0  0  0  0
  -41.4307   59.4558   65.1660 C   0  0  0  0  0  0  0  0  0  0  0  0
  -40.8653   60.4056   64.1297 C   0  0  0  0  0  0  0  0  0  0  0  0
  -29.5604   66.0585   60.1129 O   0  0  0  0  0  0  0  0  0  0  0  0
  -30.8513   66.0349   59.4970 C   0  0  0  0  0  0  0  0  0  0  0  0
  -29.3570   65.1804   60.4715 H   0  0  0  0  0  0  0  0  0  0  0  0
  -31.1996   67.3773   58.9309 C   0  0  0  0  0  0  0  0  0  0  0  0
  -30.8123   67.8271   57.7538 C   0  0  0  0  0  0  0  0  0  0  0  0
  -31.1892   69.1664   57.2104 C   0  0  0  0  0  0  0  0  0  0  0  0
  -31.7335   69.0487   55.7853 C   0  0  0  0  0  0  0  0  0  0  0  0
  -31.5965   67.6617   55.1786 C   0  0  0  0  0  0  0  0  0  0  0  0
  -32.8379   67.1720   54.4527 C   0  0  0  0  0  0  0  0  0  0  0  0
  -33.8537   68.2657   54.1568 C   0  0  0  0  0  0  0  0  0  0  0  0
  -34.0900   68.4945   52.6719 C   0  0  0  0  0  0  0  0  0  0  0  0
  -34.4910   69.9183   52.3284 C   0  0  0  0  0  0  0  0  0  0  0  0
  -35.8674   70.0387   51.7010 C   0  0  0  0  0  0  0  0  0  0  0  0
  -36.6885   68.7625   51.7692 C   0  0  0  0  0  0  0  0  0  0  0  0
  -37.8515   68.8561   52.7395 C   0  0  0  0  0  0  0  0  0  0  0  0
  -37.6260   68.1412   54.0579 C   0  0  0  0  0  0  0  0  0  0  0  0
  -37.2578   69.0914   55.1804 C   0  0  0  0  0  0  0  0  0  0  0  0
  -37.7396   70.5048   54.9258 C   0  0  0  0  0  0  0  0  0  0  0  0
  -32.3144   66.7032   61.4511 C   0  0  0  0  0  0  0  0  0  0  0  0
  -33.5860   66.3678   62.0179 O   0  0  0  0  0  0  0  0  0  0  0  0
  -35.6260   64.9836   63.3459 O   0  0  0  0  0  0  0  0  0  0  0  0
  -32.0033   63.8092   65.3506 O   0  0  0  0  0  0  0  0  0  0  0  0
  -32.2600   66.2838   63.9056 O   0  0  0  0  0  0  0  0  0  0  0  0
  -33.5866   66.2688   63.4123 C   0  0  0  0  0  0  0  0  0  0  0  0
  -34.2760   64.9648   63.7922 C   0  0  0  0  0  0  0  0  0  0  0  0
  -34.2226   64.7718   65.3025 C   0  0  0  0  0  0  0  0  0  0  0  0
  -32.7968   64.8947   65.8192 C   0  0  0  0  0  0  0  0  0  0  0  0
  -32.1888   66.2100   65.3386 C   0  0  0  0  0  0  0  0  0  0  0  0
  -35.6468   65.1069   62.3840 H   0  0  0  0  0  0  0  0  0  0  0  0
  -32.3878   62.9724   65.6550 H   0  0  0  0  0  0  0  0  0  0  0  0
  -30.4925   65.9610   67.0560 O   0  0  0  0  0  0  0  0  0  0  0  0
  -30.7333   66.3642   65.7128 C   0  0  0  0  0  0  0  0  0  0  0  0
  -29.5515   66.0723   67.2633 H   0  0  0  0  0  0  0  0  0  0  0  0
  -34.7039   63.4074   65.5178 O   0  0  0  0  0  0  0  0  0  0  0  0
  -36.2062   61.7921   66.4879 O   0  0  0  0  0  0  0  0  0  0  0  0
  -36.9094   64.1894   66.2159 O   0  0  0  0  0  0  0  0  0  0  0  0
  -35.2893   63.5342   67.8229 O   0  0  0  0  0  0  0  0  0  0  0  0
  -35.9491   63.1846   66.4789 S   0  0  0  0  0  0  0  0  0  0  0  0
  -36.6242   61.5351   65.6513 H   0  0  0  0  0  0  0  0  0  0  0  0
  -34.6214   62.8649   68.0390 H   0  0  0  0  0  0  0  0  0  0  0  0
  2  1  1  0  0  0
  2  4  1  0  0  0
  2  5  1  0  0  0
 47 48  1  0  0  0
 47  1  1  0  0  0
 48 52  1  0  0  0
  1 30  1  0  0  0
 29 30  1  0  0  0
 29 31  1  0  0  0
 30 32  1  0  0  0
  3  4  2  0  0  0
 32 33  2  0  0  0
 49 53  1  0  0  0
 49 57  1  0  0  0
 33 34  1  0  0  0
 62 54  1  0  0  0
 62 66  1  0  0  0
 34 35  1  0  0  0
 50 55  1  0  0  0
 50 58  1  0  0  0
 35 36  1  0  0  0
 51 52  1  0  0  0
 51 56  1  0  0  0
 36 37  1  0  0  0
 59 60  1  0  0  0
 59 61  1  0  0  0
 37 38  1  0  0  0
 63 66  1  0  0  0
 63 67  1  0  0  0
 38 39  1  0  0  0
 64 66  1  0  0  0
 39 40  1  0  0  0
 65 66  1  0  0  0
 65 68  1  0  0  0
 40 41  1  0  0  0
 41 42  1  0  0  0
 42 43  1  0  0  0
 43 44  1  0  0  0
 44 45  1  0  0  0
 45 46  1  0  0  0
  4  6  1  0  0  0
  6  7  1  0  0  0
  7  8  1  0  0  0
  8  9  1  0  0  0
  9 10  1  0  0  0
 10 11  1  0  0  0
 11 12  1  0  0  0
 12 13  1  0  0  0
 13 14  1  0  0  0
 14 15  1  0  0  0
 15 16  1  0  0  0
 16 17  1  0  0  0
 17 18  1  0  0  0
 18 19  1  0  0  0
 19 20  2  0  0  0
 20 21  1  0  0  0
 21 22  1  0  0  0
 22 23  1  0  0  0
 23 24  1  0  0  0
 24 25  1  0  0  0
 25 26  1  0  0  0
 26 27  1  0  0  0
 27 28  1  0  0  0
 52 53  1  0  0  0
 53 54  1  0  0  0
 54 55  1  0  0  0
 55 56  1  0  0  0
 56 60  1  0  0  0
M  CHG 1  64  -1
M  END
> <minimizedAffinity>
-7.89561

> <CNNscore>
0.2012929469

> <CNNaffinity>
6.6545166969

> <CNN_VS>
1.3395072222

> <CNNaffinity_variance>
1.4656496048

$$$$
/media/chris/experiments/cd1a-new-docking/inputs/ligands/7ryn_ligand.pdb


 68 68  0  0  0  0  0  0  0  0999 V2000
  -29.9080   64.8481   64.2516 C   0  0  0  0  0  0  0  0  0  0  0  0
  -30.4330   64.0478   63.1492 N   0  0  0  0  0  0  0  0  0  0  0  0
  -28.8149   62.4837   63.2037 O   0  0  0  0  0  0  0  0  0  0  0  0
  -29.8472   62.9300   62.7116 C   0  0  0  0  0  0  0  0  0  0  0  0
  -31.2599   64.3468   62.7064 H   0  0  0  0  0  0  0  0  0  0  0  0
  -30.5412   62.2347   61.5670 C   0  0  0  0  0  0  0  0  0  0  0  0
  -30.5366   60.7185   61.7146 C   0  0  0  0  0  0  0  0  0  0  0  0
  -31.5597   60.2244   62.7247 C   0  0  0  0  0  0  0  0  0  0  0  0
  -32.6075   59.2946   62.1356 C   0  0  0  0  0  0  0  0  0  0  0  0
  -32.8280   58.0251   62.9444 C   0  0  0  0  0  0  0  0  0  0  0  0
  -33.4223   58.2659   64.3262 C   0  0  0  0  0  0  0  0  0  0  0  0
  -34.9158   57.9793   64.4140 C   0  0  0  0  0  0  0  0  0  0  0  0
  -35.5400   57.4679   63.1181 C   0  0  0  0  0  0  0  0  0  0  0  0
  -37.0632   57.5796   63.0750 C   0  0  0  0  0  0  0  0  0  0  0  0
  -37.6403   57.8936   61.6948 C   0  0  0  0  0  0  0  0  0  0  0  0
  -38.1542   59.3273   61.5615 C   0  0  0  0  0  0  0  0  0  0  0  0
  -39.0420   59.5862   60.3444 C   0  0  0  0  0  0  0  0  0  0  0  0
  -39.8181   58.3663   59.8410 C   0  0  0  0  0  0  0  0  0  0  0  0
  -41.2041   58.2806   60.4116 C   0  0  0  0  0  0  0  0  0  0  0  0
  -41.6100   57.4412   61.3478 C   0  0  0  0  0  0  0  0  0  0  0  0
  -40.7670   56.4072   62.0309 C   0  0  0  0  0  0  0  0  0  0  0  0
  -41.5635   55.4644   62.9354 C   0  0  0  0  0  0  0  0  0  0  0  0
  -41.6860   55.9654   64.3684 C   0  0  0  0  0  0  0  0  0  0  0  0
  -43.0431   56.5873   64.6778 C   0  0  0  0  0  0  0  0  0  0  0  0
  -43.1057   57.3392   66.0024 C   0  0  0  0  0  0  0  0  0  0  0  0
  -44.2399   58.3516   66.0794 C   0  0  0  0  0  0  0  0  0  0  0  0
  -45.0484   58.4791   64.7981 C   0  0  0  0  0  0  0  0  0  0  0  0
  -46.5041   58.8152   65.0508 C   0  0  0  0  0  0  0  0  0  0  0  0
  -30.5542   65.5591   66.4678 O   0  0  0  0  0  0  0  0  0  0  0  0
  -31.0675   65.2859   65.1608 C   0  0  0  0  0  0  0  0  0  0  0  0
  -29.8600   66.2340   66.4079 H   0  0  0  0  0  0  0  0  0  0  0  0
  -32.1441   64.2457   65.2146 C   0  0  0  0  0  0  0  0  0  0  0  0
  -33.0754   64.1661   66.1443 C   0  0  0  0  0  0  0  0  0  0  0  0
  -34.1457   63.1245   66.1620 C   0  0  0  0  0  0  0  0  0  0  0  0
  -33.8419   62.0064   65.1627 C   0  0  0  0  0  0  0  0  0  0  0  0
  -34.6436   62.0879   63.8738 C   0  0  0  0  0  0  0  0  0  0  0  0
  -35.8469   61.1617   63.8270 C   0  0  0  0  0  0  0  0  0  0  0  0
  -36.9260   61.4971   64.8461 C   0  0  0  0  0  0  0  0  0  0  0  0
  -37.3866   60.3007   65.6644 C   0  0  0  0  0  0  0  0  0  0  0  0
  -38.8679   60.3212   65.9979 C   0  0  0  0  0  0  0  0  0  0  0  0
  -39.6097   59.0600   65.5956 C   0  0  0  0  0  0  0  0  0  0  0  0
  -40.3422   59.1734   64.2697 C   0  0  0  0  0  0  0  0  0  0  0  0
  -41.2420   60.3928   64.1910 C   0  0  0  0  0  0  0  0  0  0  0  0
  -41.2238   61.0988   62.8488 C   0  0  0  0  0  0  0  0  0  0  0  0
  -42.5892   61.1352   62.1910 C   0  0  0  0  0  0  0  0  0  0  0  0
  -43.2298   62.5062   62.2591 C   0  0  0  0  0  0  0  0  0  0  0  0
  -29.1314   66.0309   63.7110 C   0  0  0  0  0  0  0  0  0  0  0  0
  -29.9769   67.1856   63.7607 O   0  0  0  0  0  0  0  0  0  0  0  0
  -28.7489   67.5898   61.2768 O   0  0  0  0  0  0  0  0  0  0  0  0
  -32.0205   64.9116   60.4729 O   0  0  0  0  0  0  0  0  0  0  0  0
  -31.9820   66.7029   62.7239 O   0  0  0  0  0  0  0  0  0  0  0  0
  -30.7470   67.3852   62.6113 C   0  0  0  0  0  0  0  0  0  0  0  0
  -29.9598   66.8579   61.4187 C   0  0  0  0  0  0  0  0  0  0  0  0
  -30.7983   66.9750   60.1521 C   0  0  0  0  0  0  0  0  0  0  0  0
  -32.1602   66.3220   60.3358 C   0  0  0  0  0  0  0  0  0  0  0  0
  -32.8356   66.8868   61.5831 C   0  0  0  0  0  0  0  0  0  0  0  0
  -28.2244   67.5076   62.0886 H   0  0  0  0  0  0  0  0  0  0  0  0
  -31.5916   64.5507   59.6813 H   0  0  0  0  0  0  0  0  0  0  0  0
  -35.2561   67.0576   61.6181 O   0  0  0  0  0  0  0  0  0  0  0  0
  -34.1483   66.2121   61.9057 C   0  0  0  0  0  0  0  0  0  0  0  0
  -36.0806   66.5957   61.8360 H   0  0  0  0  0  0  0  0  0  0  0  0
  -30.0394   66.2440   59.1377 O   0  0  0  0  0  0  0  0  0  0  0  0
  -29.0135   68.1396   58.0599 O   0  0  0  0  0  0  0  0  0  0  0  0
  -30.8994   66.9042   56.9496 O   0  0  0  0  0  0  0  0  0  0  0  0
  -28.7350   65.9529   57.1664 O   0  0  0  0  0  0  0  0  0  0  0  0
  -29.7365   66.9614   57.7529 S   0  0  0  0  0  0  0  0  0  0  0  0
  -29.6167   68.8008   58.4338 H   0  0  0  0  0  0  0  0  0  0  0  0
  -27.9203   65.9628   57.6927 H   0  0  0  0  0  0  0  0  0  0  0  0
  2  1  1  0  0  0
  2  4  1  0  0  0
  2  5  1  0  0  0
 47 48  1  0  0  0
 47  1  1  0  0  0
 48 52  1  0  0  0
  1 30  1  0  0  0
 29 30  1  0  0  0
 29 31  1  0  0  0
 30 32  1  0  0  0
  3  4  2  0  0  0
 32 33  2  0  0  0
 49 53  1  0  0  0
 49 57  1  0  0  0
 33 34  1  0  0  0
 62 54  1  0  0  0
 62 66  1  0  0  0
 34 35  1  0  0  0
 50 55  1  0  0  0
 50 58  1  0  0  0
 35 36  1  0  0  0
 51 52  1  0  0  0
 51 56  1  0  0  0
 36 37  1  0  0  0
 59 60  1  0  0  0
 59 61  1  0  0  0
 37 38  1  0  0  0
 63 66  1  0  0  0
 63 67  1  0  0  0
 38 39  1  0  0  0
 64 66  1  0  0  0
 39 40  1  0  0  0
 65 66  1  0  0  0
 65 68  1  0  0  0
 40 41  1  0  0  0
 41 42  1  0  0  0
 42 43  1  0  0  0
 43 44  1  0  0  0
 44 45  1  0  0  0
 45 46  1  0  0  0
  4  6  1  0  0  0
  6  7  1  0  0  0
  7  8  1  0  0  0
  8  9  1  0  0  0
  9 10  1  0  0  0
 10 11  1  0  0  0
 11 12  1  0  0  0
 12 13  1  0  0  0
 13 14  1  0  0  0
 14 15  1  0  0  0
 15 16  1  0  0  0
 16 17  1  0  0  0
 17 18  1  0  0  0
 18 19  1  0  0  0
 19 20  2  0  0  0
 20 21  1  0  0  0
 21 22  1  0  0  0
 22 23  1  0  0  0
 23 24  1  0  0  0
 24 25  1  0  0  0
 25 26  1  0  0  0
 26 27  1  0  0  0
 27 28  1  0  0  0
 52 53  1  0  0  0
 53 54  1  0  0  0
 54 55  1  0  0  0
 55 56  1  0  0  0
 56 60  1  0  0  0
M  CHG 1  64  -1
M  END
> <minimizedAffinity>
-8.41164

> <CNNscore>
0.1927161217

> <CNNaffinity>
7.2072739601

> <CNN_VS>
1.3889578581

> <CNNaffinity_variance>
2.3566846848

$$$$
/media/chris/experiments/cd1a-new-docking/inputs/ligands/7ryn_ligand.pdb


 68 68  0  0  0  0  0  0  0  0999 V2000
  -30.7794   63.4592   63.3206 C   0  0  0  0  0  0  0  0  0  0  0  0
  -31.7011   62.3608   63.0463 N   0  0  0  0  0  0  0  0  0  0  0  0
  -30.1488   60.9513   62.2270 O   0  0  0  0  0  0  0  0  0  0  0  0
  -31.3154   61.1945   62.5219 C   0  0  0  0  0  0  0  0  0  0  0  0
  -32.6543   62.4859   63.2583 H   0  0  0  0  0  0  0  0  0  0  0  0
  -32.4101   60.1771   62.3174 C   0  0  0  0  0  0  0  0  0  0  0  0
  -32.2730   58.9762   63.2444 C   0  0  0  0  0  0  0  0  0  0  0  0
  -33.5816   58.2242   63.4276 C   0  0  0  0  0  0  0  0  0  0  0  0
  -34.3470   57.9958   62.1348 C   0  0  0  0  0  0  0  0  0  0  0  0
  -35.8154   57.6555   62.3411 C   0  0  0  0  0  0  0  0  0  0  0  0
  -36.7511   58.3120   61.3339 C   0  0  0  0  0  0  0  0  0  0  0  0
  -38.2128   57.9171   61.5015 C   0  0  0  0  0  0  0  0  0  0  0  0
  -39.1690   58.5988   60.5260 C   0  0  0  0  0  0  0  0  0  0  0  0
  -40.5613   57.9713   60.4789 C   0  0  0  0  0  0  0  0  0  0  0  0
  -40.8087   56.8897   61.5303 C   0  0  0  0  0  0  0  0  0  0  0  0
  -42.0637   57.1317   62.3691 C   0  0  0  0  0  0  0  0  0  0  0  0
  -42.0618   56.4644   63.7443 C   0  0  0  0  0  0  0  0  0  0  0  0
  -43.1644   56.9403   64.6938 C   0  0  0  0  0  0  0  0  0  0  0  0
  -44.0340   58.0053   64.0907 C   0  0  0  0  0  0  0  0  0  0  0  0
  -45.0106   58.6517   64.7024 C   0  0  0  0  0  0  0  0  0  0  0  0
  -45.4448   58.4538   66.1232 C   0  0  0  0  0  0  0  0  0  0  0  0
  -46.8917   57.9761   66.2628 C   0  0  0  0  0  0  0  0  0  0  0  0
  -47.8616   59.0919   66.6288 C   0  0  0  0  0  0  0  0  0  0  0  0
  -48.8311   59.4431   65.5059 C   0  0  0  0  0  0  0  0  0  0  0  0
  -48.6948   58.5757   64.2598 C   0  0  0  0  0  0  0  0  0  0  0  0
  -49.4393   59.1208   63.0491 C   0  0  0  0  0  0  0  0  0  0  0  0
  -50.9227   58.7877   63.0288 C   0  0  0  0  0  0  0  0  0  0  0  0
  -51.7922   59.9422   63.4835 C   0  0  0  0  0  0  0  0  0  0  0  0
  -30.2276   64.7962   65.2553 O   0  0  0  0  0  0  0  0  0  0  0  0
  -31.3262   64.3053   64.4816 C   0  0  0  0  0  0  0  0  0  0  0  0
  -29.6293   65.3016   64.6829 H   0  0  0  0  0  0  0  0  0  0  0  0
  -32.2729   63.5180   65.3347 C   0  0  0  0  0  0  0  0  0  0  0  0
  -33.5332   63.8338   65.5584 C   0  0  0  0  0  0  0  0  0  0  0  0
  -34.4571   63.0190   66.4030 C   0  0  0  0  0  0  0  0  0  0  0  0
  -34.3747   61.5359   66.0355 C   0  0  0  0  0  0  0  0  0  0  0  0
  -35.0832   61.1748   64.7401 C   0  0  0  0  0  0  0  0  0  0  0  0
  -36.5355   61.6159   64.6784 C   0  0  0  0  0  0  0  0  0  0  0  0
  -37.4985   60.5171   64.2530 C   0  0  0  0  0  0  0  0  0  0  0  0
  -37.3600   59.2365   65.0618 C   0  0  0  0  0  0  0  0  0  0  0  0
  -38.6882   58.6196   65.4633 C   0  0  0  0  0  0  0  0  0  0  0  0
  -39.8521   59.0287   64.5798 C   0  0  0  0  0  0  0  0  0  0  0  0
  -40.9006   59.8660   65.2918 C   0  0  0  0  0  0  0  0  0  0  0  0
  -41.6906   60.7550   64.3493 C   0  0  0  0  0  0  0  0  0  0  0  0
  -41.2084   60.7280   62.9116 C   0  0  0  0  0  0  0  0  0  0  0  0
  -42.3084   61.0582   61.9219 C   0  0  0  0  0  0  0  0  0  0  0  0
  -43.0367   62.3400   62.2700 C   0  0  0  0  0  0  0  0  0  0  0  0
  -30.5656   64.2832   62.0678 C   0  0  0  0  0  0  0  0  0  0  0  0
  -29.2164   64.7633   62.0691 O   0  0  0  0  0  0  0  0  0  0  0  0
  -29.5000   65.9463   59.5470 O   0  0  0  0  0  0  0  0  0  0  0  0
  -31.6560   68.5289   62.2310 O   0  0  0  0  0  0  0  0  0  0  0  0
  -29.5175   66.8090   63.0950 O   0  0  0  0  0  0  0  0  0  0  0  0
  -29.0978   66.1477   61.9161 C   0  0  0  0  0  0  0  0  0  0  0  0
  -29.9665   66.5681   60.7377 C   0  0  0  0  0  0  0  0  0  0  0  0
  -29.9370   68.0838   60.5874 C   0  0  0  0  0  0  0  0  0  0  0  0
  -30.2927   68.7701   61.8980 C   0  0  0  0  0  0  0  0  0  0  0  0
  -29.3977   68.2384   63.0146 C   0  0  0  0  0  0  0  0  0  0  0  0
  -29.5235   64.9826   59.6549 H   0  0  0  0  0  0  0  0  0  0  0  0
  -32.2265   68.8661   61.5227 H   0  0  0  0  0  0  0  0  0  0  0  0
  -29.7438   67.7660   65.3697 O   0  0  0  0  0  0  0  0  0  0  0  0
  -29.7576   68.7848   64.3764 C   0  0  0  0  0  0  0  0  0  0  0  0
  -29.9786   68.1492   66.2292 H   0  0  0  0  0  0  0  0  0  0  0  0
  -30.9648   68.3762   59.5887 O   0  0  0  0  0  0  0  0  0  0  0  0
  -31.7283   69.3564   57.5238 O   0  0  0  0  0  0  0  0  0  0  0  0
  -29.3550   68.5647   57.7621 O   0  0  0  0  0  0  0  0  0  0  0  0
  -30.1484   70.5001   58.8853 O   0  0  0  0  0  0  0  0  0  0  0  0
  -30.5407   69.1483   58.2666 S   0  0  0  0  0  0  0  0  0  0  0  0
  -32.0062   68.5206   57.1177 H   0  0  0  0  0  0  0  0  0  0  0  0
  -30.9387   70.9331   59.2440 H   0  0  0  0  0  0  0  0  0  0  0  0
  2  1  1  0  0  0
  2  4  1  0  0  0
  2  5  1  0  0  0
 47 48  1  0  0  0
 47  1  1  0  0  0
 48 52  1  0  0  0
  1 30  1  0  0  0
 29 30  1  0  0  0
 29 31  1  0  0  0
 30 32  1  0  0  0
  3  4  2  0  0  0
 32 33  2  0  0  0
 49 53  1  0  0  0
 49 57  1  0  0  0
 33 34  1  0  0  0
 62 54  1  0  0  0
 62 66  1  0  0  0
 34 35  1  0  0  0
 50 55  1  0  0  0
 50 58  1  0  0  0
 35 36  1  0  0  0
 51 52  1  0  0  0
 51 56  1  0  0  0
 36 37  1  0  0  0
 59 60  1  0  0  0
 59 61  1  0  0  0
 37 38  1  0  0  0
 63 66  1  0  0  0
 63 67  1  0  0  0
 38 39  1  0  0  0
 64 66  1  0  0  0
 39 40  1  0  0  0
 65 66  1  0  0  0
 65 68  1  0  0  0
 40 41  1  0  0  0
 41 42  1  0  0  0
 42 43  1  0  0  0
 43 44  1  0  0  0
 44 45  1  0  0  0
 45 46  1  0  0  0
  4  6  1  0  0  0
  6  7  1  0  0  0
  7  8  1  0  0  0
  8  9  1  0  0  0
  9 10  1  0  0  0
 10 11  1  0  0  0
 11 12  1  0  0  0
 12 13  1  0  0  0
 13 14  1  0  0  0
 14 15  1  0  0  0
 15 16  1  0  0  0
 16 17  1  0  0  0
 17 18  1  0  0  0
 18 19  1  0  0  0
 19 20  2  0  0  0
 20 21  1  0  0  0
 21 22  1  0  0  0
 22 23  1  0  0  0
 23 24  1  0  0  0
 24 25  1  0  0  0
 25 26  1  0  0  0
 26 27  1  0  0  0
 27 28  1  0  0  0
 52 53  1  0  0  0
 53 54  1  0  0  0
 54 55  1  0  0  0
 55 56  1  0  0  0
 56 60  1  0  0  0
M  CHG 1  64  -1
M  END
> <minimizedAffinity>
-8.52237

> <CNNscore>
0.1862649173

> <CNNaffinity>
6.6388344765

> <CNN_VS>
1.2365819216

> <CNNaffinity_variance>
1.7725616693

$$$$
/media/chris/experiments/cd1a-new-docking/inputs/ligands/7ryn_ligand.pdb


 68 68  0  0  0  0  0  0  0  0999 V2000
  -37.2268   59.7468   63.0864 C   0  0  0  0  0  0  0  0  0  0  0  0
  -38.4877   59.8258   62.3549 N   0  0  0  0  0  0  0  0  0  0  0  0
  -37.6500   59.1659   60.3723 O   0  0  0  0  0  0  0  0  0  0  0  0
  -38.6015   59.5299   61.0573 C   0  0  0  0  0  0  0  0  0  0  0  0
  -39.2942   60.1113   62.8420 H   0  0  0  0  0  0  0  0  0  0  0  0
  -39.9873   59.6635   60.4767 C   0  0  0  0  0  0  0  0  0  0  0  0
  -40.6404   58.3143   60.2056 C   0  0  0  0  0  0  0  0  0  0  0  0
  -41.5814   57.8837   61.3193 C   0  0  0  0  0  0  0  0  0  0  0  0
  -40.9712   56.8864   62.2901 C   0  0  0  0  0  0  0  0  0  0  0  0
  -40.9377   57.3724   63.7314 C   0  0  0  0  0  0  0  0  0  0  0  0
  -41.7586   56.5212   64.6918 C   0  0  0  0  0  0  0  0  0  0  0  0
  -43.2634   56.7152   64.5561 C   0  0  0  0  0  0  0  0  0  0  0  0
  -43.7593   58.1082   64.9356 C   0  0  0  0  0  0  0  0  0  0  0  0
  -44.1466   58.2512   66.4067 C   0  0  0  0  0  0  0  0  0  0  0  0
  -45.6160   58.5958   66.6482 C   0  0  0  0  0  0  0  0  0  0  0  0
  -46.5734   57.8852   65.6912 C   0  0  0  0  0  0  0  0  0  0  0  0
  -48.0576   58.0610   66.0114 C   0  0  0  0  0  0  0  0  0  0  0  0
  -48.5069   59.5107   66.2121 C   0  0  0  0  0  0  0  0  0  0  0  0
  -48.4327   60.3241   64.9523 C   0  0  0  0  0  0  0  0  0  0  0  0
  -49.4004   60.4758   64.0655 C   0  0  0  0  0  0  0  0  0  0  0  0
  -50.7685   59.8684   64.1405 C   0  0  0  0  0  0  0  0  0  0  0  0
  -51.1812   59.1244   62.8687 C   0  0  0  0  0  0  0  0  0  0  0  0
  -50.0189   58.4248   62.1764 C   0  0  0  0  0  0  0  0  0  0  0  0
  -49.6773   59.0220   60.8159 C   0  0  0  0  0  0  0  0  0  0  0  0
  -49.6598   58.0156   59.6710 C   0  0  0  0  0  0  0  0  0  0  0  0
  -48.2599   57.5955   59.2456 C   0  0  0  0  0  0  0  0  0  0  0  0
  -48.1358   57.2480   57.7706 C   0  0  0  0  0  0  0  0  0  0  0  0
  -47.0012   57.9824   57.0856 C   0  0  0  0  0  0  0  0  0  0  0  0
  -37.3637   58.2513   64.9783 O   0  0  0  0  0  0  0  0  0  0  0  0
  -37.0196   58.3097   63.5910 C   0  0  0  0  0  0  0  0  0  0  0  0
  -38.2776   58.5539   65.0978 H   0  0  0  0  0  0  0  0  0  0  0  0
  -35.6119   57.8486   63.3682 C   0  0  0  0  0  0  0  0  0  0  0  0
  -34.7966   58.3209   62.4462 C   0  0  0  0  0  0  0  0  0  0  0  0
  -33.3916   57.8502   62.2587 C   0  0  0  0  0  0  0  0  0  0  0  0
  -32.4024   58.7709   62.9763 C   0  0  0  0  0  0  0  0  0  0  0  0
  -32.7722   60.2443   62.9240 C   0  0  0  0  0  0  0  0  0  0  0  0
  -31.8255   61.0970   62.0966 C   0  0  0  0  0  0  0  0  0  0  0  0
  -30.4161   60.5330   61.9917 C   0  0  0  0  0  0  0  0  0  0  0  0
  -29.3277   61.5938   62.0487 C   0  0  0  0  0  0  0  0  0  0  0  0
  -29.5310   62.6205   63.1490 C   0  0  0  0  0  0  0  0  0  0  0  0
  -29.5698   64.0551   62.6564 C   0  0  0  0  0  0  0  0  0  0  0  0
  -29.9105   64.1906   61.1822 C   0  0  0  0  0  0  0  0  0  0  0  0
  -30.1171   65.6307   60.7507 C   0  0  0  0  0  0  0  0  0  0  0  0
  -30.5343   66.5659   61.8695 C   0  0  0  0  0  0  0  0  0  0  0  0
  -30.7211   67.9939   61.3959 C   0  0  0  0  0  0  0  0  0  0  0  0
  -29.4135   68.7544   61.3156 C   0  0  0  0  0  0  0  0  0  0  0  0
  -37.2188   60.7536   64.2180 C   0  0  0  0  0  0  0  0  0  0  0  0
  -35.8625   61.1384   64.4691 O   0  0  0  0  0  0  0  0  0  0  0  0
  -34.4847   62.3229   66.5997 O   0  0  0  0  0  0  0  0  0  0  0  0
  -32.9657   64.2734   63.0769 O   0  0  0  0  0  0  0  0  0  0  0  0
  -35.5583   63.0304   63.1821 O   0  0  0  0  0  0  0  0  0  0  0  0
  -35.6521   62.5201   64.4989 C   0  0  0  0  0  0  0  0  0  0  0  0
  -34.3596   62.7840   65.2604 C   0  0  0  0  0  0  0  0  0  0  0  0
  -34.0436   64.2743   65.2431 C   0  0  0  0  0  0  0  0  0  0  0  0
  -34.0501   64.8180   63.8221 C   0  0  0  0  0  0  0  0  0  0  0  0
  -35.3662   64.4535   63.1396 C   0  0  0  0  0  0  0  0  0  0  0  0
  -34.6856   61.3740   66.5976 H   0  0  0  0  0  0  0  0  0  0  0  0
  -32.1284   64.5039   63.5088 H   0  0  0  0  0  0  0  0  0  0  0  0
  -34.6439   63.9797   60.8717 O   0  0  0  0  0  0  0  0  0  0  0  0
  -35.4136   64.8580   61.6847 C   0  0  0  0  0  0  0  0  0  0  0  0
  -34.6955   64.2668   59.9467 H   0  0  0  0  0  0  0  0  0  0  0  0
  -32.6934   64.3720   65.7970 O   0  0  0  0  0  0  0  0  0  0  0  0
  -32.6834   66.1166   67.4595 O   0  0  0  0  0  0  0  0  0  0  0  0
  -32.1951   66.6434   65.0512 O   0  0  0  0  0  0  0  0  0  0  0  0
  -30.6577   65.4466   66.4081 O   0  0  0  0  0  0  0  0  0  0  0  0
  -32.1365   65.8069   66.1905 S   0  0  0  0  0  0  0  0  0  0  0  0
  -33.6196   66.3496   67.3599 H   0  0  0  0  0  0  0  0  0  0  0  0
  -30.5760   64.8709   67.1844 H   0  0  0  0  0  0  0  0  0  0  0  0
  2  1  1  0  0  0
  2  4  1  0  0  0
  2  5  1  0  0  0
 47 48  1  0  0  0
 47  1  1  0  0  0
 48 52  1  0  0  0
  1 30  1  0  0  0
 29 30  1  0  0  0
 29 31  1  0  0  0
 30 32  1  0  0  0
  3  4  2  0  0  0
 32 33  2  0  0  0
 49 53  1  0  0  0
 49 57  1  0  0  0
 33 34  1  0  0  0
 62 54  1  0  0  0
 62 66  1  0  0  0
 34 35  1  0  0  0
 50 55  1  0  0  0
 50 58  1  0  0  0
 35 36  1  0  0  0
 51 52  1  0  0  0
 51 56  1  0  0  0
 36 37  1  0  0  0
 59 60  1  0  0  0
 59 61  1  0  0  0
 37 38  1  0  0  0
 63 66  1  0  0  0
 63 67  1  0  0  0
 38 39  1  0  0  0
 64 66  1  0  0  0
 39 40  1  0  0  0
 65 66  1  0  0  0
 65 68  1  0  0  0
 40 41  1  0  0  0
 41 42  1  0  0  0
 42 43  1  0  0  0
 43 44  1  0  0  0
 44 45  1  0  0  0
 45 46  1  0  0  0
  4  6  1  0  0  0
  6  7  1  0  0  0
  7  8  1  0  0  0
  8  9  1  0  0  0
  9 10  1  0  0  0
 10 11  1  0  0  0
 11 12  1  0  0  0
 12 13  1  0  0  0
 13 14  1  0  0  0
 14 15  1  0  0  0
 15 16  1  0  0  0
 16 17  1  0  0  0
 17 18  1  0  0  0
 18 19  1  0  0  0
 19 20  2  0  0  0
 20 21  1  0  0  0
 21 22  1  0  0  0
 22 23  1  0  0  0
 23 24  1  0  0  0
 24 25  1  0  0  0
 25 26  1  0  0  0
 26 27  1  0  0  0
 27 28  1  0  0  0
 52 53  1  0  0  0
 53 54  1  0  0  0
 54 55  1  0  0  0
 55 56  1  0  0  0
 56 60  1  0  0  0
M  CHG 1  64  -1
M  END
> <minimizedAffinity>
-9.34935

> <CNNscore>
0.1650998145

> <CNNaffinity>
6.8138742447

> <CNN_VS>
1.1249693632

> <CNNaffinity_variance>
0.8532762527

$$$$
/media/chris/experiments/cd1a-new-docking/inputs/ligands/7ryn_ligand.pdb


 68 68  0  0  0  0  0  0  0  0999 V2000
  -37.8613   58.4817   63.8882 C   0  0  0  0  0  0  0  0  0  0  0  0
  -39.0353   57.9327   63.2160 N   0  0  0  0  0  0  0  0  0  0  0  0
  -38.7754   59.0937   61.3049 O   0  0  0  0  0  0  0  0  0  0  0  0
  -39.4006   58.2804   61.9792 C   0  0  0  0  0  0  0  0  0  0  0  0
  -39.5850   57.2735   63.6983 H   0  0  0  0  0  0  0  0  0  0  0  0
  -40.6386   57.6008   61.4492 C   0  0  0  0  0  0  0  0  0  0  0  0
  -41.9089   58.0758   62.1430 C   0  0  0  0  0  0  0  0  0  0  0  0
  -42.0257   59.5912   62.1794 C   0  0  0  0  0  0  0  0  0  0  0  0
  -42.6653   60.1294   63.4485 C   0  0  0  0  0  0  0  0  0  0  0  0
  -41.6621   60.5619   64.5073 C   0  0  0  0  0  0  0  0  0  0  0  0
  -41.8212   59.8444   65.8417 C   0  0  0  0  0  0  0  0  0  0  0  0
  -41.9487   58.3316   65.7173 C   0  0  0  0  0  0  0  0  0  0  0  0
  -43.1201   57.7289   66.4889 C   0  0  0  0  0  0  0  0  0  0  0  0
  -44.4399   58.4747   66.2983 C   0  0  0  0  0  0  0  0  0  0  0  0
  -45.1599   58.1703   64.9847 C   0  0  0  0  0  0  0  0  0  0  0  0
  -46.5889   58.7113   64.9341 C   0  0  0  0  0  0  0  0  0  0  0  0
  -47.2601   58.8951   66.2951 C   0  0  0  0  0  0  0  0  0  0  0  0
  -48.5623   59.6996   66.2688 C   0  0  0  0  0  0  0  0  0  0  0  0
  -49.7816   58.8321   66.1466 C   0  0  0  0  0  0  0  0  0  0  0  0
  -50.6885   58.8944   65.1876 C   0  0  0  0  0  0  0  0  0  0  0  0
  -50.6807   59.8425   64.0269 C   0  0  0  0  0  0  0  0  0  0  0  0
  -50.9530   59.1680   62.6806 C   0  0  0  0  0  0  0  0  0  0  0  0
  -49.7023   58.5869   62.0344 C   0  0  0  0  0  0  0  0  0  0  0  0
  -50.0011   57.4997   61.0082 C   0  0  0  0  0  0  0  0  0  0  0  0
  -49.7001   57.8925   59.5664 C   0  0  0  0  0  0  0  0  0  0  0  0
  -48.3430   57.4128   59.0710 C   0  0  0  0  0  0  0  0  0  0  0  0
  -48.1779   57.4648   57.5604 C   0  0  0  0  0  0  0  0  0  0  0  0
  -46.7815   57.8695   57.1338 C   0  0  0  0  0  0  0  0  0  0  0  0
  -36.8935   56.8800   65.4154 O   0  0  0  0  0  0  0  0  0  0  0  0
  -36.8149   57.3712   64.0742 C   0  0  0  0  0  0  0  0  0  0  0  0
  -37.7948   56.5683   65.5933 H   0  0  0  0  0  0  0  0  0  0  0  0
  -35.4342   57.8622   63.7635 C   0  0  0  0  0  0  0  0  0  0  0  0
  -34.5510   58.2575   64.6587 C   0  0  0  0  0  0  0  0  0  0  0  0
  -33.1751   58.7282   64.3178 C   0  0  0  0  0  0  0  0  0  0  0  0
  -33.2163   59.8151   63.2416 C   0  0  0  0  0  0  0  0  0  0  0  0
  -32.4152   59.4857   61.9925 C   0  0  0  0  0  0  0  0  0  0  0  0
  -31.4038   60.5493   61.6005 C   0  0  0  0  0  0  0  0  0  0  0  0
  -30.1042   60.4884   62.3899 C   0  0  0  0  0  0  0  0  0  0  0  0
  -29.2536   61.7428   62.2640 C   0  0  0  0  0  0  0  0  0  0  0  0
  -29.5842   62.8119   63.2904 C   0  0  0  0  0  0  0  0  0  0  0  0
  -29.4280   64.2313   62.7771 C   0  0  0  0  0  0  0  0  0  0  0  0
  -28.9635   65.2199   63.8327 C   0  0  0  0  0  0  0  0  0  0  0  0
  -29.4657   66.6305   63.5867 C   0  0  0  0  0  0  0  0  0  0  0  0
  -30.0807   67.2971   64.8024 C   0  0  0  0  0  0  0  0  0  0  0  0
  -31.5561   66.9832   64.9550 C   0  0  0  0  0  0  0  0  0  0  0  0
  -31.8217   65.9534   66.0337 C   0  0  0  0  0  0  0  0  0  0  0  0
  -38.2639   59.1104   65.2061 C   0  0  0  0  0  0  0  0  0  0  0  0
  -38.3109   60.5310   65.0319 O   0  0  0  0  0  0  0  0  0  0  0  0
  -36.7757   60.9544   62.7287 O   0  0  0  0  0  0  0  0  0  0  0  0
  -36.4413   64.6124   64.9712 O   0  0  0  0  0  0  0  0  0  0  0  0
  -37.0517   62.0796   66.1915 O   0  0  0  0  0  0  0  0  0  0  0  0
  -37.0665   61.1625   65.1135 C   0  0  0  0  0  0  0  0  0  0  0  0
  -36.8198   61.8903   63.7984 C   0  0  0  0  0  0  0  0  0  0  0  0
  -35.5113   62.6668   63.8739 C   0  0  0  0  0  0  0  0  0  0  0  0
  -35.4809   63.5689   65.0988 C   0  0  0  0  0  0  0  0  0  0  0  0
  -35.7896   62.7477   66.3482 C   0  0  0  0  0  0  0  0  0  0  0  0
  -37.6133   60.4668   62.6910 H   0  0  0  0  0  0  0  0  0  0  0  0
  -36.2469   65.1356   64.1779 H   0  0  0  0  0  0  0  0  0  0  0  0
  -36.5458   62.8824   68.6502 O   0  0  0  0  0  0  0  0  0  0  0  0
  -35.8909   63.5860   67.6009 C   0  0  0  0  0  0  0  0  0  0  0  0
  -36.5942   63.4471   69.4373 H   0  0  0  0  0  0  0  0  0  0  0  0
  -35.4982   63.4873   62.6631 O   0  0  0  0  0  0  0  0  0  0  0  0
  -34.0612   65.3839   63.0442 O   0  0  0  0  0  0  0  0  0  0  0  0
  -34.0184   64.1696   60.8443 O   0  0  0  0  0  0  0  0  0  0  0  0
  -33.1393   63.2021   62.8262 O   0  0  0  0  0  0  0  0  0  0  0  0
  -34.1458   64.2129   62.2525 S   0  0  0  0  0  0  0  0  0  0  0  0
  -34.6855   66.0464   62.7094 H   0  0  0  0  0  0  0  0  0  0  0  0
  -33.1968   63.2026   63.7945 H   0  0  0  0  0  0  0  0  0  0  0  0
  2  1  1  0  0  0
  2  4  1  0  0  0
  2  5  1  0  0  0
 47 48  1  0  0  0
 47  1  1  0  0  0
 48 52  1  0  0  0
  1 30  1  0  0  0
 29 30  1  0  0  0
 29 31  1  0  0  0
 30 32  1  0  0  0
  3  4  2  0  0  0
 32 33  2  0  0  0
 49 53  1  0  0  0
 49 57  1  0  0  0
 33 34  1  0  0  0
 62 54  1  0  0  0
 62 66  1  0  0  0
 34 35  1  0  0  0
 50 55  1  0  0  0
 50 58  1  0  0  0
 35 36  1  0  0  0
 51 52  1  0  0  0
 51 56  1  0  0  0
 36 37  1  0  0  0
 59 60  1  0  0  0
 59 61  1  0  0  0
 37 38  1  0  0  0
 63 66  1  0  0  0
 63 67  1  0  0  0
 38 39  1  0  0  0
 64 66  1  0  0  0
 39 40  1  0  0  0
 65 66  1  0  0  0
 65 68  1  0  0  0
 40 41  1  0  0  0
 41 42  1  0  0  0
 42 43  1  0  0  0
 43 44  1  0  0  0
 44 45  1  0  0  0
 45 46  1  0  0  0
  4  6  1  0  0  0
  6  7  1  0  0  0
  7  8  1  0  0  0
  8  9  1  0  0  0
  9 10  1  0  0  0
 10 11  1  0  0  0
 11 12  1  0  0  0
 12 13  1  0  0  0
 13 14  1  0  0  0
 14 15  1  0  0  0
 15 16  1  0  0  0
 16 17  1  0  0  0
 17 18  1  0  0  0
 18 19  1  0  0  0
 19 20  2  0  0  0
 20 21  1  0  0  0
 21 22  1  0  0  0
 22 23  1  0  0  0
 23 24  1  0  0  0
 24 25  1  0  0  0
 25 26  1  0  0  0
 26 27  1  0  0  0
 27 28  1  0  0  0
 52 53  1  0  0  0
 53 54  1  0  0  0
 54 55  1  0  0  0
 55 56  1  0  0  0
 56 60  1  0  0  0
M  CHG 1  64  -1
M  END
> <minimizedAffinity>
-9.46526

> <CNNscore>
0.1528485715

> <CNNaffinity>
6.8212456703

> <CNN_VS>
1.0426176786

> <CNNaffinity_variance>
1.9135820866

$$$$
/media/chris/experiments/cd1a-new-docking/inputs/ligands/7ryn_ligand.pdb


 68 68  0  0  0  0  0  0  0  0999 V2000
  -34.3405   61.4047   64.1698 C   0  0  0  0  0  0  0  0  0  0  0  0
  -35.5865   61.0576   64.8468 N   0  0  0  0  0  0  0  0  0  0  0  0
  -36.9458   61.6431   63.1506 O   0  0  0  0  0  0  0  0  0  0  0  0
  -36.7900   61.2033   64.2861 C   0  0  0  0  0  0  0  0  0  0  0  0
  -35.5372   60.6983   65.7621 H   0  0  0  0  0  0  0  0  0  0  0  0
  -37.9618   60.7833   65.1380 C   0  0  0  0  0  0  0  0  0  0  0  0
  -39.0802   60.1481   64.3218 C   0  0  0  0  0  0  0  0  0  0  0  0
  -39.4159   58.7390   64.7837 C   0  0  0  0  0  0  0  0  0  0  0  0
  -40.2949   58.6899   66.0224 C   0  0  0  0  0  0  0  0  0  0  0  0
  -41.1743   59.9183   66.2019 C   0  0  0  0  0  0  0  0  0  0  0  0
  -42.2921   59.7367   67.2209 C   0  0  0  0  0  0  0  0  0  0  0  0
  -43.2564   58.6067   66.8840 C   0  0  0  0  0  0  0  0  0  0  0  0
  -44.7326   58.9753   67.0086 C   0  0  0  0  0  0  0  0  0  0  0  0
  -45.6772   58.0099   66.2942 C   0  0  0  0  0  0  0  0  0  0  0  0
  -46.1047   58.4546   64.8957 C   0  0  0  0  0  0  0  0  0  0  0  0
  -47.3015   59.4060   64.8985 C   0  0  0  0  0  0  0  0  0  0  0  0
  -48.1628   59.3589   66.1605 C   0  0  0  0  0  0  0  0  0  0  0  0
  -49.4942   58.6192   66.0055 C   0  0  0  0  0  0  0  0  0  0  0  0
  -50.5442   59.4453   65.3206 C   0  0  0  0  0  0  0  0  0  0  0  0
  -50.8810   59.3742   64.0449 C   0  0  0  0  0  0  0  0  0  0  0  0
  -50.2842   58.4521   63.0253 C   0  0  0  0  0  0  0  0  0  0  0  0
  -51.2609   58.0418   61.9212 C   0  0  0  0  0  0  0  0  0  0  0  0
  -50.5967   57.2794   60.7823 C   0  0  0  0  0  0  0  0  0  0  0  0
  -49.1098   57.5836   60.6370 C   0  0  0  0  0  0  0  0  0  0  0  0
  -48.7721   58.5619   59.5178 C   0  0  0  0  0  0  0  0  0  0  0  0
  -47.8955   57.9651   58.4258 C   0  0  0  0  0  0  0  0  0  0  0  0
  -47.7274   56.4567   58.5176 C   0  0  0  0  0  0  0  0  0  0  0  0
  -47.2908   55.8316   57.2083 C   0  0  0  0  0  0  0  0  0  0  0  0
  -33.1451   60.3293   62.3672 O   0  0  0  0  0  0  0  0  0  0  0  0
  -33.6458   60.1199   63.6908 C   0  0  0  0  0  0  0  0  0  0  0  0
  -32.5465   61.0927   62.3650 H   0  0  0  0  0  0  0  0  0  0  0  0
  -34.5758   58.9463   63.7324 C   0  0  0  0  0  0  0  0  0  0  0  0
  -35.1047   58.3606   62.6764 C   0  0  0  0  0  0  0  0  0  0  0  0
  -36.0181   57.1811   62.7502 C   0  0  0  0  0  0  0  0  0  0  0  0
  -37.3693   57.4901   62.1021 C   0  0  0  0  0  0  0  0  0  0  0  0
  -37.3255   58.6077   61.0727 C   0  0  0  0  0  0  0  0  0  0  0  0
  -38.5338   58.6578   60.1533 C   0  0  0  0  0  0  0  0  0  0  0  0
  -39.7926   58.0471   60.7517 C   0  0  0  0  0  0  0  0  0  0  0  0
  -41.0791   58.6819   60.2469 C   0  0  0  0  0  0  0  0  0  0  0  0
  -41.0940   60.1971   60.3467 C   0  0  0  0  0  0  0  0  0  0  0  0
  -42.2160   60.7490   61.2064 C   0  0  0  0  0  0  0  0  0  0  0  0
  -42.0271   60.5073   62.6942 C   0  0  0  0  0  0  0  0  0  0  0  0
  -43.0834   59.5923   63.2856 C   0  0  0  0  0  0  0  0  0  0  0  0
  -43.0167   58.1591   62.7940 C   0  0  0  0  0  0  0  0  0  0  0  0
  -42.7497   57.1712   63.9126 C   0  0  0  0  0  0  0  0  0  0  0  0
  -41.8161   56.0554   63.4908 C   0  0  0  0  0  0  0  0  0  0  0  0
  -33.4572   62.2187   65.0926 C   0  0  0  0  0  0  0  0  0  0  0  0
  -34.1915   63.3725   65.5172 O   0  0  0  0  0  0  0  0  0  0  0  0
  -31.6578   64.5103   65.8735 O   0  0  0  0  0  0  0  0  0  0  0  0
  -32.4342   64.8338   61.6527 O   0  0  0  0  0  0  0  0  0  0  0  0
  -34.5265   64.6412   63.6181 O   0  0  0  0  0  0  0  0  0  0  0  0
  -33.8429   64.5528   64.8543 C   0  0  0  0  0  0  0  0  0  0  0  0
  -32.3372   64.5377   64.6246 C   0  0  0  0  0  0  0  0  0  0  0  0
  -31.9229   65.7670   63.8258 C   0  0  0  0  0  0  0  0  0  0  0  0
  -32.7449   65.8936   62.5517 C   0  0  0  0  0  0  0  0  0  0  0  0
  -34.2320   65.8466   62.8940 C   0  0  0  0  0  0  0  0  0  0  0  0
  -31.9296   63.7240   66.3722 H   0  0  0  0  0  0  0  0  0  0  0  0
  -31.4897   64.8619   61.4338 H   0  0  0  0  0  0  0  0  0  0  0  0
  -36.1629   66.8180   61.7909 O   0  0  0  0  0  0  0  0  0  0  0  0
  -35.1235   65.8532   61.6744 C   0  0  0  0  0  0  0  0  0  0  0  0
  -36.7153   66.7962   60.9940 H   0  0  0  0  0  0  0  0  0  0  0  0
  -30.5217   65.5286   63.4809 O   0  0  0  0  0  0  0  0  0  0  0  0
  -29.1867   66.1195   65.3982 O   0  0  0  0  0  0  0  0  0  0  0  0
  -29.7250   67.8316   63.6390 O   0  0  0  0  0  0  0  0  0  0  0  0
  -28.2111   66.0489   63.2301 O   0  0  0  0  0  0  0  0  0  0  0  0
  -29.4191   66.5158   64.0588 S   0  0  0  0  0  0  0  0  0  0  0  0
  -29.9323   66.3989   65.9521 H   0  0  0  0  0  0  0  0  0  0  0  0
  -27.9700   65.1461   63.4902 H   0  0  0  0  0  0  0  0  0  0  0  0
  2  1  1  0  0  0
  2  4  1  0  0  0
  2  5  1  0  0  0
 47 48  1  0  0  0
 47  1  1  0  0  0
 48 52  1  0  0  0
  1 30  1  0  0  0
 29 30  1  0  0  0
 29 31  1  0  0  0
 30 32  1  0  0  0
  3  4  2  0  0  0
 32 33  2  0  0  0
 49 53  1  0  0  0
 49 57  1  0  0  0
 33 34  1  0  0  0
 62 54  1  0  0  0
 62 66  1  0  0  0
 34 35  1  0  0  0
 50 55  1  0  0  0
 50 58  1  0  0  0
 35 36  1  0  0  0
 51 52  1  0  0  0
 51 56  1  0  0  0
 36 37  1  0  0  0
 59 60  1  0  0  0
 59 61  1  0  0  0
 37 38  1  0  0  0
 63 66  1  0  0  0
 63 67  1  0  0  0
 38 39  1  0  0  0
 64 66  1  0  0  0
 39 40  1  0  0  0
 65 66  1  0  0  0
 65 68  1  0  0  0
 40 41  1  0  0  0
 41 42  1  0  0  0
 42 43  1  0  0  0
 43 44  1  0  0  0
 44 45  1  0  0  0
 45 46  1  0  0  0
  4  6  1  0  0  0
  6  7  1  0  0  0
  7  8  1  0  0  0
  8  9  1  0  0  0
  9 10  1  0  0  0
 10 11  1  0  0  0
 11 12  1  0  0  0
 12 13  1  0  0  0
 13 14  1  0  0  0
 14 15  1  0  0  0
 15 16  1  0  0  0
 16 17  1  0  0  0
 17 18  1  0  0  0
 18 19  1  0  0  0
 19 20  2  0  0  0
 20 21  1  0  0  0
 21 22  1  0  0  0
 22 23  1  0  0  0
 23 24  1  0  0  0
 24 25  1  0  0  0
 25 26  1  0  0  0
 26 27  1  0  0  0
 27 28  1  0  0  0
 52 53  1  0  0  0
 53 54  1  0  0  0
 54 55  1  0  0  0
 55 56  1  0  0  0
 56 60  1  0  0  0
M  CHG 1  64  -1
M  END
> <minimizedAffinity>
-9.26445

> <CNNscore>
0.1276097000

> <CNNaffinity>
7.1609926224

> <CNN_VS>
0.9138121009

> <CNNaffinity_variance>
1.0123093128

$$$$
