/media/chris/experiments/cd1a-new-docking/inputs/ligands/7ryn_ligand.pdb


 68 68  0  0  0  0  0  0  0  0999 V2000
  -36.9286   58.5148   63.9803 C   0  0  0  0  0  0  0  0  0  0  0  0
  -37.5379   58.6987   62.6665 N   0  0  0  0  0  0  0  0  0  0  0  0
  -35.7758   57.9478   61.4839 O   0  0  0  0  0  0  0  0  0  0  0  0
  -36.9158   58.4015   61.5225 C   0  0  0  0  0  0  0  0  0  0  0  0
  -38.4528   59.0595   62.6214 H   0  0  0  0  0  0  0  0  0  0  0  0
  -37.7089   58.6524   60.2642 C   0  0  0  0  0  0  0  0  0  0  0  0
  -38.4701   59.9713   60.3059 C   0  0  0  0  0  0  0  0  0  0  0  0
  -39.9766   59.7818   60.2290 C   0  0  0  0  0  0  0  0  0  0  0  0
  -40.4064   58.3381   60.0287 C   0  0  0  0  0  0  0  0  0  0  0  0
  -41.8128   58.1869   59.4686 C   0  0  0  0  0  0  0  0  0  0  0  0
  -42.2765   59.3711   58.6299 C   0  0  0  0  0  0  0  0  0  0  0  0
  -42.7379   58.9917   57.2287 C   0  0  0  0  0  0  0  0  0  0  0  0
  -44.2069   59.2922   56.9422 C   0  0  0  0  0  0  0  0  0  0  0  0
  -45.1146   58.0643   56.9936 C   0  0  0  0  0  0  0  0  0  0  0  0
  -46.6101   58.3785   57.0267 C   0  0  0  0  0  0  0  0  0  0  0  0
  -47.4937   57.1312   57.0595 C   0  0  0  0  0  0  0  0  0  0  0  0
  -47.3237   56.2500   58.2969 C   0  0  0  0  0  0  0  0  0  0  0  0
  -48.2682   56.5772   59.4566 C   0  0  0  0  0  0  0  0  0  0  0  0
  -48.9289   57.9174   59.3104 C   0  0  0  0  0  0  0  0  0  0  0  0
  -50.0093   58.3267   59.9517 C   0  0  0  0  0  0  0  0  0  0  0  0
  -50.7911   57.5359   60.9564 C   0  0  0  0  0  0  0  0  0  0  0  0
  -51.0748   58.2982   62.2524 C   0  0  0  0  0  0  0  0  0  0  0  0
  -49.9555   59.2524   62.6471 C   0  0  0  0  0  0  0  0  0  0  0  0
  -48.7750   58.5567   63.3155 C   0  0  0  0  0  0  0  0  0  0  0  0
  -48.0595   59.3972   64.3669 C   0  0  0  0  0  0  0  0  0  0  0  0
  -48.2936   58.9228   65.7941 C   0  0  0  0  0  0  0  0  0  0  0  0
  -47.1442   58.1170   66.3784 C   0  0  0  0  0  0  0  0  0  0  0  0
  -46.5944   58.7161   67.6569 C   0  0  0  0  0  0  0  0  0  0  0  0
  -38.9486   57.2066   64.1876 O   0  0  0  0  0  0  0  0  0  0  0  0
  -37.9673   57.9205   64.9451 C   0  0  0  0  0  0  0  0  0  0  0  0
  -38.5117   56.5248   63.6535 H   0  0  0  0  0  0  0  0  0  0  0  0
  -38.6073   58.9840   65.7839 C   0  0  0  0  0  0  0  0  0  0  0  0
  -39.7732   59.5465   65.5346 C   0  0  0  0  0  0  0  0  0  0  0  0
  -40.3922   60.5950   66.3996 C   0  0  0  0  0  0  0  0  0  0  0  0
  -41.9195   60.5157   66.3528 C   0  0  0  0  0  0  0  0  0  0  0  0
  -42.5289   59.6062   67.4074 C   0  0  0  0  0  0  0  0  0  0  0  0
  -43.2593   58.3989   66.8447 C   0  0  0  0  0  0  0  0  0  0  0  0
  -42.3396   57.2703   66.4020 C   0  0  0  0  0  0  0  0  0  0  0  0
  -42.8960   56.4442   65.2525 C   0  0  0  0  0  0  0  0  0  0  0  0
  -42.0381   56.4827   64.0001 C   0  0  0  0  0  0  0  0  0  0  0  0
  -42.5261   57.4594   62.9463 C   0  0  0  0  0  0  0  0  0  0  0  0
  -43.7636   58.2392   63.3559 C   0  0  0  0  0  0  0  0  0  0  0  0
  -43.5551   59.7419   63.3257 C   0  0  0  0  0  0  0  0  0  0  0  0
  -42.2090   60.1765   62.7786 C   0  0  0  0  0  0  0  0  0  0  0  0
  -42.0127   61.6786   62.8397 C   0  0  0  0  0  0  0  0  0  0  0  0
  -43.0770   62.4348   62.0717 C   0  0  0  0  0  0  0  0  0  0  0  0
  -36.3723   59.8307   64.4837 C   0  0  0  0  0  0  0  0  0  0  0  0
  -34.9800   59.6523   64.7670 O   0  0  0  0  0  0  0  0  0  0  0  0
  -33.3240   60.7071   62.7704 O   0  0  0  0  0  0  0  0  0  0  0  0
  -35.4277   64.1023   64.3735 O   0  0  0  0  0  0  0  0  0  0  0  0
  -34.9956   61.6815   65.8671 O   0  0  0  0  0  0  0  0  0  0  0  0
  -34.2788   60.8426   64.9806 C   0  0  0  0  0  0  0  0  0  0  0  0
  -34.0969   61.5310   63.6342 C   0  0  0  0  0  0  0  0  0  0  0  0
  -33.4127   62.8780   63.8295 C   0  0  0  0  0  0  0  0  0  0  0  0
  -34.1467   63.7191   64.8635 C   0  0  0  0  0  0  0  0  0  0  0  0
  -34.3172   62.9157   66.1504 C   0  0  0  0  0  0  0  0  0  0  0  0
  -33.7694   59.8533   62.6540 H   0  0  0  0  0  0  0  0  0  0  0  0
  -35.3216   64.6129   63.5557 H   0  0  0  0  0  0  0  0  0  0  0  0
  -36.5259   63.3684   67.0477 O   0  0  0  0  0  0  0  0  0  0  0  0
  -35.1362   63.6352   67.1964 C   0  0  0  0  0  0  0  0  0  0  0  0
  -37.0216   63.8438   67.7326 H   0  0  0  0  0  0  0  0  0  0  0  0
  -33.4973   63.5286   62.5221 O   0  0  0  0  0  0  0  0  0  0  0  0
  -31.2006   64.1888   62.8317 O   0  0  0  0  0  0  0  0  0  0  0  0
  -32.4644   64.8858   60.7745 O   0  0  0  0  0  0  0  0  0  0  0  0
  -31.7857   62.6380   61.1259 O   0  0  0  0  0  0  0  0  0  0  0  0
  -32.1501   63.9686   61.8046 S   0  0  0  0  0  0  0  0  0  0  0  0
  -31.4006   65.0237   63.2834 H   0  0  0  0  0  0  0  0  0  0  0  0
  -31.5628   61.9800   61.8030 H   0  0  0  0  0  0  0  0  0  0  0  0
  2  1  1  0  0  0
  2  4  1  0  0  0
  2  5  1  0  0  0
 47 48  1  0  0  0
 47  1  1  0  0  0
 48 52  1  0  0  0
  1 30  1  0  0  0
 29 30  1  0  0  0
 29 31  1  0  0  0
 30 32  1  0  0  0
  3  4  2  0  0  0
 32 33  2  0  0  0
 49 53  1  0  0  0
 49 57  1  0  0  0
 33 34  1  0  0  0
 62 54  1  0  0  0
 62 66  1  0  0  0
 34 35  1  0  0  0
 50 55  1  0  0  0
 50 58  1  0  0  0
 35 36  1  0  0  0
 51 52  1  0  0  0
 51 56  1  0  0  0
 36 37  1  0  0  0
 59 60  1  0  0  0
 59 61  1  0  0  0
 37 38  1  0  0  0
 63 66  1  0  0  0
 63 67  1  0  0  0
 38 39  1  0  0  0
 64 66  1  0  0  0
 39 40  1  0  0  0
 65 66  1  0  0  0
 65 68  1  0  0  0
 40 41  1  0  0  0
 41 42  1  0  0  0
 42 43  1  0  0  0
 43 44  1  0  0  0
 44 45  1  0  0  0
 45 46  1  0  0  0
  4  6  1  0  0  0
  6  7  1  0  0  0
  7  8  1  0  0  0
  8  9  1  0  0  0
  9 10  1  0  0  0
 10 11  1  0  0  0
 11 12  1  0  0  0
 12 13  1  0  0  0
 13 14  1  0  0  0
 14 15  1  0  0  0
 15 16  1  0  0  0
 16 17  1  0  0  0
 17 18  1  0  0  0
 18 19  1  0  0  0
 19 20  2  0  0  0
 20 21  1  0  0  0
 21 22  1  0  0  0
 22 23  1  0  0  0
 23 24  1  0  0  0
 24 25  1  0  0  0
 25 26  1  0  0  0
 26 27  1  0  0  0
 27 28  1  0  0  0
 52 53  1  0  0  0
 53 54  1  0  0  0
 54 55  1  0  0  0
 55 56  1  0  0  0
 56 60  1  0  0  0
M  CHG 1  64  -1
M  END
> <minimizedAffinity>
-6.66016

> <CNNscore>
0.1599667668

> <CNNaffinity>
7.1944084167

> <CNN_VS>
1.1508662701

> <CNNaffinity_variance>
1.8961627483

$$$$
/media/chris/experiments/cd1a-new-docking/inputs/ligands/7ryn_ligand.pdb


 68 68  0  0  0  0  0  0  0  0999 V2000
  -37.8408   60.6090   64.5778 C   0  0  0  0  0  0  0  0  0  0  0  0
  -38.8894   59.7194   65.0679 N   0  0  0  0  0  0  0  0  0  0  0  0
  -39.9959   61.2875   66.2446 O   0  0  0  0  0  0  0  0  0  0  0  0
  -39.8836   60.1266   65.8616 C   0  0  0  0  0  0  0  0  0  0  0  0
  -38.8625   58.7724   64.8002 H   0  0  0  0  0  0  0  0  0  0  0  0
  -40.8779   59.0642   66.2592 C   0  0  0  0  0  0  0  0  0  0  0  0
  -42.0698   59.6334   67.0180 C   0  0  0  0  0  0  0  0  0  0  0  0
  -43.3125   58.7663   66.8941 C   0  0  0  0  0  0  0  0  0  0  0  0
  -43.0673   57.4329   66.2077 C   0  0  0  0  0  0  0  0  0  0  0  0
  -43.8783   57.2374   64.9355 C   0  0  0  0  0  0  0  0  0  0  0  0
  -44.4025   58.5332   64.3295 C   0  0  0  0  0  0  0  0  0  0  0  0
  -45.9196   58.6637   64.3701 C   0  0  0  0  0  0  0  0  0  0  0  0
  -46.5145   58.7061   65.7753 C   0  0  0  0  0  0  0  0  0  0  0  0
  -47.2807   57.4430   66.1648 C   0  0  0  0  0  0  0  0  0  0  0  0
  -48.7906   57.5186   65.9390 C   0  0  0  0  0  0  0  0  0  0  0  0
  -49.3862   58.8899   66.2586 C   0  0  0  0  0  0  0  0  0  0  0  0
  -50.8285   59.0931   65.7949 C   0  0  0  0  0  0  0  0  0  0  0  0
  -51.0057   60.1118   64.6658 C   0  0  0  0  0  0  0  0  0  0  0  0
  -49.7011   60.5515   64.0669 C   0  0  0  0  0  0  0  0  0  0  0  0
  -49.3017   60.3344   62.8262 C   0  0  0  0  0  0  0  0  0  0  0  0
  -50.0725   59.6077   61.7661 C   0  0  0  0  0  0  0  0  0  0  0  0
  -50.1213   58.0921   61.9718 C   0  0  0  0  0  0  0  0  0  0  0  0
  -50.3357   57.3157   60.6794 C   0  0  0  0  0  0  0  0  0  0  0  0
  -49.4547   56.0767   60.5647 C   0  0  0  0  0  0  0  0  0  0  0  0
  -48.3597   56.1762   59.5089 C   0  0  0  0  0  0  0  0  0  0  0  0
  -48.2572   57.5490   58.8596 C   0  0  0  0  0  0  0  0  0  0  0  0
  -47.0917   57.6954   57.8942 C   0  0  0  0  0  0  0  0  0  0  0  0
  -47.5327   57.7869   56.4475 C   0  0  0  0  0  0  0  0  0  0  0  0
  -37.4934   62.0708   62.6864 O   0  0  0  0  0  0  0  0  0  0  0  0
  -37.9878   60.7807   63.0573 C   0  0  0  0  0  0  0  0  0  0  0  0
  -36.5727   62.1604   62.9783 H   0  0  0  0  0  0  0  0  0  0  0  0
  -39.4104   60.6064   62.6214 C   0  0  0  0  0  0  0  0  0  0  0  0
  -39.8036   60.4098   61.3786 C   0  0  0  0  0  0  0  0  0  0  0  0
  -41.2303   60.2243   60.9774 C   0  0  0  0  0  0  0  0  0  0  0  0
  -41.3461   59.2856   59.7748 C   0  0  0  0  0  0  0  0  0  0  0  0
  -41.3250   57.8084   60.1329 C   0  0  0  0  0  0  0  0  0  0  0  0
  -41.9624   57.4813   61.4725 C   0  0  0  0  0  0  0  0  0  0  0  0
  -41.3972   56.2355   62.1390 C   0  0  0  0  0  0  0  0  0  0  0  0
  -40.5944   56.5269   63.3975 C   0  0  0  0  0  0  0  0  0  0  0  0
  -39.3791   57.4053   63.1583 C   0  0  0  0  0  0  0  0  0  0  0  0
  -38.3804   56.8245   62.1745 C   0  0  0  0  0  0  0  0  0  0  0  0
  -37.0752   57.5974   62.0940 C   0  0  0  0  0  0  0  0  0  0  0  0
  -36.0932   57.2195   63.1873 C   0  0  0  0  0  0  0  0  0  0  0  0
  -34.6795   56.9670   62.6995 C   0  0  0  0  0  0  0  0  0  0  0  0
  -33.9616   58.2437   62.3080 C   0  0  0  0  0  0  0  0  0  0  0  0
  -32.6750   58.4466   63.0812 C   0  0  0  0  0  0  0  0  0  0  0  0
  -36.4790   60.0669   64.9599 C   0  0  0  0  0  0  0  0  0  0  0  0
  -35.5133   60.5837   64.0373 O   0  0  0  0  0  0  0  0  0  0  0  0
  -33.4682   61.7004   62.4844 O   0  0  0  0  0  0  0  0  0  0  0  0
  -35.0116   64.9783   64.8073 O   0  0  0  0  0  0  0  0  0  0  0  0
  -35.2430   62.2314   65.6310 O   0  0  0  0  0  0  0  0  0  0  0  0
  -34.6155   61.4981   64.5957 C   0  0  0  0  0  0  0  0  0  0  0  0
  -34.1508   62.4377   63.4907 C   0  0  0  0  0  0  0  0  0  0  0  0
  -33.2359   63.5082   64.0720 C   0  0  0  0  0  0  0  0  0  0  0  0
  -33.8961   64.2112   65.2489 C   0  0  0  0  0  0  0  0  0  0  0  0
  -34.3661   63.1752   66.2669 C   0  0  0  0  0  0  0  0  0  0  0  0
  -34.0603   61.0226   62.1224 H   0  0  0  0  0  0  0  0  0  0  0  0
  -34.7149   65.6373   64.1603 H   0  0  0  0  0  0  0  0  0  0  0  0
  -36.5328   63.8112   67.1555 O   0  0  0  0  0  0  0  0  0  0  0  0
  -35.1348   63.7794   67.4186 C   0  0  0  0  0  0  0  0  0  0  0  0
  -36.9955   64.2036   67.9123 H   0  0  0  0  0  0  0  0  0  0  0  0
  -33.0425   64.4618   62.9799 O   0  0  0  0  0  0  0  0  0  0  0  0
  -31.0325   65.6695   62.4251 O   0  0  0  0  0  0  0  0  0  0  0  0
  -31.9076   63.8751   60.8988 O   0  0  0  0  0  0  0  0  0  0  0  0
  -30.9291   63.3641   63.0008 O   0  0  0  0  0  0  0  0  0  0  0  0
  -31.6714   64.4302   62.1783 S   0  0  0  0  0  0  0  0  0  0  0  0
  -31.4766   66.3685   61.9199 H   0  0  0  0  0  0  0  0  0  0  0  0
  -30.7483   63.7090   63.8892 H   0  0  0  0  0  0  0  0  0  0  0  0
  2  1  1  0  0  0
  2  4  1  0  0  0
  2  5  1  0  0  0
 47 48  1  0  0  0
 47  1  1  0  0  0
 48 52  1  0  0  0
  1 30  1  0  0  0
 29 30  1  0  0  0
 29 31  1  0  0  0
 30 32  1  0  0  0
  3  4  2  0  0  0
 32 33  2  0  0  0
 49 53  1  0  0  0
 49 57  1  0  0  0
 33 34  1  0  0  0
 62 54  1  0  0  0
 62 66  1  0  0  0
 34 35  1  0  0  0
 50 55  1  0  0  0
 50 58  1  0  0  0
 35 36  1  0  0  0
 51 52  1  0  0  0
 51 56  1  0  0  0
 36 37  1  0  0  0
 59 60  1  0  0  0
 59 61  1  0  0  0
 37 38  1  0  0  0
 63 66  1  0  0  0
 63 67  1  0  0  0
 38 39  1  0  0  0
 64 66  1  0  0  0
 39 40  1  0  0  0
 65 66  1  0  0  0
 65 68  1  0  0  0
 40 41  1  0  0  0
 41 42  1  0  0  0
 42 43  1  0  0  0
 43 44  1  0  0  0
 44 45  1  0  0  0
 45 46  1  0  0  0
  4  6  1  0  0  0
  6  7  1  0  0  0
  7  8  1  0  0  0
  8  9  1  0  0  0
  9 10  1  0  0  0
 10 11  1  0  0  0
 11 12  1  0  0  0
 12 13  1  0  0  0
 13 14  1  0  0  0
 14 15  1  0  0  0
 15 16  1  0  0  0
 16 17  1  0  0  0
 17 18  1  0  0  0
 18 19  1  0  0  0
 19 20  2  0  0  0
 20 21  1  0  0  0
 21 22  1  0  0  0
 22 23  1  0  0  0
 23 24  1  0  0  0
 24 25  1  0  0  0
 25 26  1  0  0  0
 26 27  1  0  0  0
 27 28  1  0  0  0
 52 53  1  0  0  0
 53 54  1  0  0  0
 54 55  1  0  0  0
 55 56  1  0  0  0
 56 60  1  0  0  0
M  CHG 1  64  -1
M  END
> <minimizedAffinity>
-9.09777

> <CNNscore>
0.1513794214

> <CNNaffinity>
7.4868345261

> <CNN_VS>
1.1333526373

> <CNNaffinity_variance>
1.5773041248

$$$$
/media/chris/experiments/cd1a-new-docking/inputs/ligands/7ryn_ligand.pdb


 68 68  0  0  0  0  0  0  0  0999 V2000
  -40.6648   61.2425   64.1062 C   0  0  0  0  0  0  0  0  0  0  0  0
  -41.1837   60.6054   65.3130 N   0  0  0  0  0  0  0  0  0  0  0  0
  -41.7699   62.5143   66.3521 O   0  0  0  0  0  0  0  0  0  0  0  0
  -41.6950   61.2891   66.3402 C   0  0  0  0  0  0  0  0  0  0  0  0
  -41.1554   59.6231   65.3726 H   0  0  0  0  0  0  0  0  0  0  0  0
  -42.1884   60.4564   67.4972 C   0  0  0  0  0  0  0  0  0  0  0  0
  -41.6813   59.0210   67.4429 C   0  0  0  0  0  0  0  0  0  0  0  0
  -42.7582   58.0339   67.0220 C   0  0  0  0  0  0  0  0  0  0  0  0
  -42.3236   57.0801   65.9218 C   0  0  0  0  0  0  0  0  0  0  0  0
  -40.9343   57.3668   65.3721 C   0  0  0  0  0  0  0  0  0  0  0  0
  -40.6690   56.7488   64.0052 C   0  0  0  0  0  0  0  0  0  0  0  0
  -41.7293   55.7478   63.5645 C   0  0  0  0  0  0  0  0  0  0  0  0
  -41.7618   55.4795   62.0620 C   0  0  0  0  0  0  0  0  0  0  0  0
  -40.9807   56.4965   61.2315 C   0  0  0  0  0  0  0  0  0  0  0  0
  -41.8375   57.5875   60.5896 C   0  0  0  0  0  0  0  0  0  0  0  0
  -41.1371   58.3156   59.4421 C   0  0  0  0  0  0  0  0  0  0  0  0
  -40.8648   59.7995   59.6876 C   0  0  0  0  0  0  0  0  0  0  0  0
  -39.5374   60.1047   60.3867 C   0  0  0  0  0  0  0  0  0  0  0  0
  -38.3916   59.3047   59.8378 C   0  0  0  0  0  0  0  0  0  0  0  0
  -37.7345   58.3497   60.4720 C   0  0  0  0  0  0  0  0  0  0  0  0
  -38.0030   57.8711   61.8666 C   0  0  0  0  0  0  0  0  0  0  0  0
  -36.7898   57.2248   62.5388 C   0  0  0  0  0  0  0  0  0  0  0  0
  -36.6392   57.6069   64.0052 C   0  0  0  0  0  0  0  0  0  0  0  0
  -35.2012   57.5300   64.5058 C   0  0  0  0  0  0  0  0  0  0  0  0
  -34.5191   58.8825   64.6770 C   0  0  0  0  0  0  0  0  0  0  0  0
  -33.1594   58.9735   63.9989 C   0  0  0  0  0  0  0  0  0  0  0  0
  -32.9017   57.8820   62.9722 C   0  0  0  0  0  0  0  0  0  0  0  0
  -33.2204   58.3175   61.5564 C   0  0  0  0  0  0  0  0  0  0  0  0
  -42.4394   62.0776   62.6962 O   0  0  0  0  0  0  0  0  0  0  0  0
  -41.6030   60.9401   62.9268 C   0  0  0  0  0  0  0  0  0  0  0  0
  -41.8865   62.8580   62.5344 H   0  0  0  0  0  0  0  0  0  0  0  0
  -42.4246   59.7135   63.1809 C   0  0  0  0  0  0  0  0  0  0  0  0
  -43.6856   59.7122   63.5656 C   0  0  0  0  0  0  0  0  0  0  0  0
  -44.4830   58.4707   63.7965 C   0  0  0  0  0  0  0  0  0  0  0  0
  -45.6171   58.7224   64.7922 C   0  0  0  0  0  0  0  0  0  0  0  0
  -46.0630   57.4852   65.5547 C   0  0  0  0  0  0  0  0  0  0  0  0
  -47.5131   57.5184   66.0060 C   0  0  0  0  0  0  0  0  0  0  0  0
  -48.2494   58.7956   65.6291 C   0  0  0  0  0  0  0  0  0  0  0  0
  -49.1668   58.6396   64.4260 C   0  0  0  0  0  0  0  0  0  0  0  0
  -48.9894   59.7228   63.3767 C   0  0  0  0  0  0  0  0  0  0  0  0
  -49.9811   59.6421   62.2310 C   0  0  0  0  0  0  0  0  0  0  0  0
  -50.7227   58.3188   62.1512 C   0  0  0  0  0  0  0  0  0  0  0  0
  -50.2998   57.4721   60.9651 C   0  0  0  0  0  0  0  0  0  0  0  0
  -49.0961   58.0056   60.2124 C   0  0  0  0  0  0  0  0  0  0  0  0
  -48.9709   57.4163   58.8211 C   0  0  0  0  0  0  0  0  0  0  0  0
  -47.7388   57.9091   58.0907 C   0  0  0  0  0  0  0  0  0  0  0  0
  -39.2485   60.7758   63.8404 C   0  0  0  0  0  0  0  0  0  0  0  0
  -38.6075   60.5417   65.0994 O   0  0  0  0  0  0  0  0  0  0  0  0
  -36.9551   60.7742   62.8508 O   0  0  0  0  0  0  0  0  0  0  0  0
  -36.4990   64.5027   64.9514 O   0  0  0  0  0  0  0  0  0  0  0  0
  -37.3084   62.0653   66.2481 O   0  0  0  0  0  0  0  0  0  0  0  0
  -37.3324   61.1039   65.2095 C   0  0  0  0  0  0  0  0  0  0  0  0
  -36.9884   61.7575   63.8775 C   0  0  0  0  0  0  0  0  0  0  0  0
  -35.6405   62.4603   63.9784 C   0  0  0  0  0  0  0  0  0  0  0  0
  -35.6081   63.4125   65.1648 C   0  0  0  0  0  0  0  0  0  0  0  0
  -36.0167   62.6663   66.4324 C   0  0  0  0  0  0  0  0  0  0  0  0
  -37.8178   60.3341   62.7964 H   0  0  0  0  0  0  0  0  0  0  0  0
  -36.2410   64.9783   64.1463 H   0  0  0  0  0  0  0  0  0  0  0  0
  -36.5059   62.8352   68.8032 O   0  0  0  0  0  0  0  0  0  0  0  0
  -36.1204   63.5637   67.6433 C   0  0  0  0  0  0  0  0  0  0  0  0
  -36.5629   63.4390   69.5602 H   0  0  0  0  0  0  0  0  0  0  0  0
  -35.5284   63.2244   62.7362 O   0  0  0  0  0  0  0  0  0  0  0  0
  -33.1225   63.0999   62.7918 O   0  0  0  0  0  0  0  0  0  0  0  0
  -34.2893   65.3241   62.8757 O   0  0  0  0  0  0  0  0  0  0  0  0
  -34.2352   64.0119   60.8978 O   0  0  0  0  0  0  0  0  0  0  0  0
  -34.1674   63.9858   62.4336 S   0  0  0  0  0  0  0  0  0  0  0  0
  -33.0507   63.0586   63.7584 H   0  0  0  0  0  0  0  0  0  0  0  0
  -34.1547   63.1079   60.5552 H   0  0  0  0  0  0  0  0  0  0  0  0
  2  1  1  0  0  0
  2  4  1  0  0  0
  2  5  1  0  0  0
 47 48  1  0  0  0
 47  1  1  0  0  0
 48 52  1  0  0  0
  1 30  1  0  0  0
 29 30  1  0  0  0
 29 31  1  0  0  0
 30 32  1  0  0  0
  3  4  2  0  0  0
 32 33  2  0  0  0
 49 53  1  0  0  0
 49 57  1  0  0  0
 33 34  1  0  0  0
 62 54  1  0  0  0
 62 66  1  0  0  0
 34 35  1  0  0  0
 50 55  1  0  0  0
 50 58  1  0  0  0
 35 36  1  0  0  0
 51 52  1  0  0  0
 51 56  1  0  0  0
 36 37  1  0  0  0
 59 60  1  0  0  0
 59 61  1  0  0  0
 37 38  1  0  0  0
 63 66  1  0  0  0
 63 67  1  0  0  0
 38 39  1  0  0  0
 64 66  1  0  0  0
 39 40  1  0  0  0
 65 66  1  0  0  0
 65 68  1  0  0  0
 40 41  1  0  0  0
 41 42  1  0  0  0
 42 43  1  0  0  0
 43 44  1  0  0  0
 44 45  1  0  0  0
 45 46  1  0  0  0
  4  6  1  0  0  0
  6  7  1  0  0  0
  7  8  1  0  0  0
  8  9  1  0  0  0
  9 10  1  0  0  0
 10 11  1  0  0  0
 11 12  1  0  0  0
 12 13  1  0  0  0
 13 14  1  0  0  0
 14 15  1  0  0  0
 15 16  1  0  0  0
 16 17  1  0  0  0
 17 18  1  0  0  0
 18 19  1  0  0  0
 19 20  2  0  0  0
 20 21  1  0  0  0
 21 22  1  0  0  0
 22 23  1  0  0  0
 23 24  1  0  0  0
 24 25  1  0  0  0
 25 26  1  0  0  0
 26 27  1  0  0  0
 27 28  1  0  0  0
 52 53  1  0  0  0
 53 54  1  0  0  0
 54 55  1  0  0  0
 55 56  1  0  0  0
 56 60  1  0  0  0
M  CHG 1  64  -1
M  END
> <minimizedAffinity>
-8.66865

> <CNNscore>
0.1416958869

> <CNNaffinity>
7.5322198868

> <CNN_VS>
1.0672845840

> <CNNaffinity_variance>
2.2549908161

$$$$
/media/chris/experiments/cd1a-new-docking/inputs/ligands/7ryn_ligand.pdb


 68 68  0  0  0  0  0  0  0  0999 V2000
  -38.6705   58.3897   61.0735 C   0  0  0  0  0  0  0  0  0  0  0  0
  -39.2750   57.1989   61.6632 N   0  0  0  0  0  0  0  0  0  0  0  0
  -40.9985   58.2695   62.6384 O   0  0  0  0  0  0  0  0  0  0  0  0
  -40.3898   57.2308   62.3984 C   0  0  0  0  0  0  0  0  0  0  0  0
  -38.8395   56.3291   61.5116 H   0  0  0  0  0  0  0  0  0  0  0  0
  -40.8676   55.8975   62.9173 C   0  0  0  0  0  0  0  0  0  0  0  0
  -41.2997   55.9588   64.3767 C   0  0  0  0  0  0  0  0  0  0  0  0
  -42.8067   56.0793   64.5378 C   0  0  0  0  0  0  0  0  0  0  0  0
  -43.2546   57.3761   65.1911 C   0  0  0  0  0  0  0  0  0  0  0  0
  -44.1536   58.2305   64.3099 C   0  0  0  0  0  0  0  0  0  0  0  0
  -45.5851   58.3508   64.8171 C   0  0  0  0  0  0  0  0  0  0  0  0
  -45.8085   57.7250   66.1878 C   0  0  0  0  0  0  0  0  0  0  0  0
  -47.1155   56.9482   66.3242 C   0  0  0  0  0  0  0  0  0  0  0  0
  -48.3065   57.6078   65.6310 C   0  0  0  0  0  0  0  0  0  0  0  0
  -48.7809   58.9083   66.2792 C   0  0  0  0  0  0  0  0  0  0  0  0
  -49.2875   59.9412   65.2723 C   0  0  0  0  0  0  0  0  0  0  0  0
  -50.7912   59.8969   65.0009 C   0  0  0  0  0  0  0  0  0  0  0  0
  -51.1778   59.8284   63.5211 C   0  0  0  0  0  0  0  0  0  0  0  0
  -50.9445   58.4728   62.9194 C   0  0  0  0  0  0  0  0  0  0  0  0
  -50.2647   58.2177   61.8154 C   0  0  0  0  0  0  0  0  0  0  0  0
  -49.5871   59.2306   60.9431 C   0  0  0  0  0  0  0  0  0  0  0  0
  -49.0403   58.6497   59.6373 C   0  0  0  0  0  0  0  0  0  0  0  0
  -49.3376   57.1658   59.4674 C   0  0  0  0  0  0  0  0  0  0  0  0
  -48.1444   56.2700   59.7806 C   0  0  0  0  0  0  0  0  0  0  0  0
  -47.1941   56.0515   58.6089 C   0  0  0  0  0  0  0  0  0  0  0  0
  -47.8632   56.1694   57.2468 C   0  0  0  0  0  0  0  0  0  0  0  0
  -47.6321   57.5025   56.5532 C   0  0  0  0  0  0  0  0  0  0  0  0
  -46.4433   58.2586   57.1107 C   0  0  0  0  0  0  0  0  0  0  0  0
  -38.1462   59.1237   58.8327 O   0  0  0  0  0  0  0  0  0  0  0  0
  -39.1894   58.5665   59.6374 C   0  0  0  0  0  0  0  0  0  0  0  0
  -37.3654   58.5495   58.8725 H   0  0  0  0  0  0  0  0  0  0  0  0
  -40.4139   59.4287   59.5997 C   0  0  0  0  0  0  0  0  0  0  0  0
  -40.6533   60.4409   60.4098 C   0  0  0  0  0  0  0  0  0  0  0  0
  -41.8784   61.2921   60.3371 C   0  0  0  0  0  0  0  0  0  0  0  0
  -42.6558   61.2511   61.6543 C   0  0  0  0  0  0  0  0  0  0  0  0
  -43.2435   62.5891   62.0728 C   0  0  0  0  0  0  0  0  0  0  0  0
  -42.5599   63.2240   63.2718 C   0  0  0  0  0  0  0  0  0  0  0  0
  -42.3787   62.2806   64.4520 C   0  0  0  0  0  0  0  0  0  0  0  0
  -41.4338   61.1229   64.1691 C   0  0  0  0  0  0  0  0  0  0  0  0
  -41.2536   60.1788   65.3448 C   0  0  0  0  0  0  0  0  0  0  0  0
  -40.2337   60.6495   66.3650 C   0  0  0  0  0  0  0  0  0  0  0  0
  -38.9316   59.8676   66.3393 C   0  0  0  0  0  0  0  0  0  0  0  0
  -38.9638   58.6927   65.3796 C   0  0  0  0  0  0  0  0  0  0  0  0
  -38.1192   57.5089   65.8103 C   0  0  0  0  0  0  0  0  0  0  0  0
  -37.1863   57.0297   64.7155 C   0  0  0  0  0  0  0  0  0  0  0  0
  -35.7481   56.9312   65.1803 C   0  0  0  0  0  0  0  0  0  0  0  0
  -37.1603   58.2847   61.1236 C   0  0  0  0  0  0  0  0  0  0  0  0
  -36.7353   58.5405   62.4670 O   0  0  0  0  0  0  0  0  0  0  0  0
  -37.4481   61.0379   63.5140 O   0  0  0  0  0  0  0  0  0  0  0  0
  -33.6407   60.1315   65.3042 O   0  0  0  0  0  0  0  0  0  0  0  0
  -34.4991   59.0067   62.7990 O   0  0  0  0  0  0  0  0  0  0  0  0
  -35.7850   59.5588   62.5861 C   0  0  0  0  0  0  0  0  0  0  0  0
  -36.1824   60.4395   63.7635 C   0  0  0  0  0  0  0  0  0  0  0  0
  -35.1259   61.5143   63.9860 C   0  0  0  0  0  0  0  0  0  0  0  0
  -33.7392   60.9001   64.1095 C   0  0  0  0  0  0  0  0  0  0  0  0
  -33.4677   60.0010   62.9059 C   0  0  0  0  0  0  0  0  0  0  0  0
  -38.1117   60.3443   63.3740 H   0  0  0  0  0  0  0  0  0  0  0  0
  -33.8129   60.7012   66.0702 H   0  0  0  0  0  0  0  0  0  0  0  0
  -32.3159   57.9842   63.6091 O   0  0  0  0  0  0  0  0  0  0  0  0
  -32.1543   59.2605   63.0012 C   0  0  0  0  0  0  0  0  0  0  0  0
  -31.4566   57.5366   63.6547 H   0  0  0  0  0  0  0  0  0  0  0  0
  -35.4971   62.1402   65.2549 O   0  0  0  0  0  0  0  0  0  0  0  0
  -36.2910   64.0812   64.0679 O   0  0  0  0  0  0  0  0  0  0  0  0
  -34.5182   64.3007   65.8355 O   0  0  0  0  0  0  0  0  0  0  0  0
  -36.7753   63.8051   66.3801 O   0  0  0  0  0  0  0  0  0  0  0  0
  -35.6884   63.7166   65.2963 S   0  0  0  0  0  0  0  0  0  0  0  0
  -35.6312   64.0365   63.3582 H   0  0  0  0  0  0  0  0  0  0  0  0
  -37.5973   63.4128   66.0465 H   0  0  0  0  0  0  0  0  0  0  0  0
  2  1  1  0  0  0
  2  4  1  0  0  0
  2  5  1  0  0  0
 47 48  1  0  0  0
 47  1  1  0  0  0
 48 52  1  0  0  0
  1 30  1  0  0  0
 29 30  1  0  0  0
 29 31  1  0  0  0
 30 32  1  0  0  0
  3  4  2  0  0  0
 32 33  2  0  0  0
 49 53  1  0  0  0
 49 57  1  0  0  0
 33 34  1  0  0  0
 62 54  1  0  0  0
 62 66  1  0  0  0
 34 35  1  0  0  0
 50 55  1  0  0  0
 50 58  1  0  0  0
 35 36  1  0  0  0
 51 52  1  0  0  0
 51 56  1  0  0  0
 36 37  1  0  0  0
 59 60  1  0  0  0
 59 61  1  0  0  0
 37 38  1  0  0  0
 63 66  1  0  0  0
 63 67  1  0  0  0
 38 39  1  0  0  0
 64 66  1  0  0  0
 39 40  1  0  0  0
 65 66  1  0  0  0
 65 68  1  0  0  0
 40 41  1  0  0  0
 41 42  1  0  0  0
 42 43  1  0  0  0
 43 44  1  0  0  0
 44 45  1  0  0  0
 45 46  1  0  0  0
  4  6  1  0  0  0
  6  7  1  0  0  0
  7  8  1  0  0  0
  8  9  1  0  0  0
  9 10  1  0  0  0
 10 11  1  0  0  0
 11 12  1  0  0  0
 12 13  1  0  0  0
 13 14  1  0  0  0
 14 15  1  0  0  0
 15 16  1  0  0  0
 16 17  1  0  0  0
 17 18  1  0  0  0
 18 19  1  0  0  0
 19 20  2  0  0  0
 20 21  1  0  0  0
 21 22  1  0  0  0
 22 23  1  0  0  0
 23 24  1  0  0  0
 24 25  1  0  0  0
 25 26  1  0  0  0
 26 27  1  0  0  0
 27 28  1  0  0  0
 52 53  1  0  0  0
 53 54  1  0  0  0
 54 55  1  0  0  0
 55 56  1  0  0  0
 56 60  1  0  0  0
M  CHG 1  64  -1
M  END
> <minimizedAffinity>
-7.77312

> <CNNscore>
0.1365659833

> <CNNaffinity>
7.3558425903

> <CNN_VS>
1.0045578480

> <CNNaffinity_variance>
1.7677145004

$$$$
/media/chris/experiments/cd1a-new-docking/inputs/ligands/7ryn_ligand.pdb


 68 68  0  0  0  0  0  0  0  0999 V2000
  -40.7384   60.0769   65.3542 C   0  0  0  0  0  0  0  0  0  0  0  0
  -41.4409   60.8618   64.3434 N   0  0  0  0  0  0  0  0  0  0  0  0
  -40.0574   60.3469   62.6438 O   0  0  0  0  0  0  0  0  0  0  0  0
  -41.0469   60.9358   63.0692 C   0  0  0  0  0  0  0  0  0  0  0  0
  -42.2448   61.3613   64.6142 H   0  0  0  0  0  0  0  0  0  0  0  0
  -41.9044   61.7908   62.1698 C   0  0  0  0  0  0  0  0  0  0  0  0
  -42.2310   61.1056   60.8491 C   0  0  0  0  0  0  0  0  0  0  0  0
  -41.2025   60.0545   60.4635 C   0  0  0  0  0  0  0  0  0  0  0  0
  -41.7945   58.8380   59.7715 C   0  0  0  0  0  0  0  0  0  0  0  0
  -42.0128   57.6497   60.6961 C   0  0  0  0  0  0  0  0  0  0  0  0
  -42.5664   58.0233   62.0653 C   0  0  0  0  0  0  0  0  0  0  0  0
  -42.1502   57.0717   63.1796 C   0  0  0  0  0  0  0  0  0  0  0  0
  -40.6685   57.1305   63.5425 C   0  0  0  0  0  0  0  0  0  0  0  0
  -39.7774   56.2552   62.6627 C   0  0  0  0  0  0  0  0  0  0  0  0
  -38.4195   56.8686   62.3215 C   0  0  0  0  0  0  0  0  0  0  0  0
  -38.4974   57.9703   61.2644 C   0  0  0  0  0  0  0  0  0  0  0  0
  -37.1517   58.4113   60.6889 C   0  0  0  0  0  0  0  0  0  0  0  0
  -35.9288   57.9722   61.4986 C   0  0  0  0  0  0  0  0  0  0  0  0
  -34.6559   58.6130   61.0264 C   0  0  0  0  0  0  0  0  0  0  0  0
  -33.4305   58.2515   61.3641 C   0  0  0  0  0  0  0  0  0  0  0  0
  -33.0651   57.1268   62.2846 C   0  0  0  0  0  0  0  0  0  0  0  0
  -32.2939   57.5758   63.5276 C   0  0  0  0  0  0  0  0  0  0  0  0
  -32.3351   59.0817   63.7505 C   0  0  0  0  0  0  0  0  0  0  0  0
  -33.5485   59.5418   64.5508 C   0  0  0  0  0  0  0  0  0  0  0  0
  -34.3268   58.4154   65.2210 C   0  0  0  0  0  0  0  0  0  0  0  0
  -35.6847   58.1473   64.5876 C   0  0  0  0  0  0  0  0  0  0  0  0
  -36.4582   57.0082   65.2324 C   0  0  0  0  0  0  0  0  0  0  0  0
  -37.8590   57.4085   65.6488 C   0  0  0  0  0  0  0  0  0  0  0  0
  -41.1228   58.7545   67.3388 O   0  0  0  0  0  0  0  0  0  0  0  0
  -41.6904   59.7854   66.5253 C   0  0  0  0  0  0  0  0  0  0  0  0
  -40.2428   59.0288   67.6409 H   0  0  0  0  0  0  0  0  0  0  0  0
  -43.0529   59.3956   66.0396 C   0  0  0  0  0  0  0  0  0  0  0  0
  -43.6755   58.2751   66.3478 C   0  0  0  0  0  0  0  0  0  0  0  0
  -45.0418   57.9218   65.8588 C   0  0  0  0  0  0  0  0  0  0  0  0
  -46.0689   58.0021   66.9901 C   0  0  0  0  0  0  0  0  0  0  0  0
  -47.2650   58.8888   66.6840 C   0  0  0  0  0  0  0  0  0  0  0  0
  -47.3637   59.3255   65.2323 C   0  0  0  0  0  0  0  0  0  0  0  0
  -48.6339   60.0958   64.9029 C   0  0  0  0  0  0  0  0  0  0  0  0
  -49.0382   60.0100   63.4392 C   0  0  0  0  0  0  0  0  0  0  0  0
  -49.1606   58.5881   62.9206 C   0  0  0  0  0  0  0  0  0  0  0  0
  -50.5119   58.2671   62.3093 C   0  0  0  0  0  0  0  0  0  0  0  0
  -50.4472   57.8804   60.8417 C   0  0  0  0  0  0  0  0  0  0  0  0
  -49.1768   58.3523   60.1591 C   0  0  0  0  0  0  0  0  0  0  0  0
  -48.5947   57.3639   59.1670 C   0  0  0  0  0  0  0  0  0  0  0  0
  -47.8705   58.0452   58.0225 C   0  0  0  0  0  0  0  0  0  0  0  0
  -47.0542   57.0758   57.1930 C   0  0  0  0  0  0  0  0  0  0  0  0
  -39.4902   60.8074   65.8043 C   0  0  0  0  0  0  0  0  0  0  0  0
  -38.4738   60.6150   64.8139 O   0  0  0  0  0  0  0  0  0  0  0  0
  -36.5129   60.9560   62.8443 O   0  0  0  0  0  0  0  0  0  0  0  0
  -36.4751   64.6256   65.0927 O   0  0  0  0  0  0  0  0  0  0  0  0
  -37.4015   62.1306   66.1855 O   0  0  0  0  0  0  0  0  0  0  0  0
  -37.2449   61.2022   65.1286 C   0  0  0  0  0  0  0  0  0  0  0  0
  -36.7249   61.9054   63.8816 C   0  0  0  0  0  0  0  0  0  0  0  0
  -35.4266   62.6350   64.2019 C   0  0  0  0  0  0  0  0  0  0  0  0
  -35.5964   63.5497   65.4060 C   0  0  0  0  0  0  0  0  0  0  0  0
  -36.1682   62.7547   66.5771 C   0  0  0  0  0  0  0  0  0  0  0  0
  -37.3457   60.4984   62.6495 H   0  0  0  0  0  0  0  0  0  0  0  0
  -36.1134   65.1321   64.3486 H   0  0  0  0  0  0  0  0  0  0  0  0
  -36.5704   62.8296   68.9691 O   0  0  0  0  0  0  0  0  0  0  0  0
  -36.4748   63.6107   67.7836 C   0  0  0  0  0  0  0  0  0  0  0  0
  -36.7674   63.4079   69.7225 H   0  0  0  0  0  0  0  0  0  0  0  0
  -35.1521   63.4404   63.0122 O   0  0  0  0  0  0  0  0  0  0  0  0
  -33.3118   62.0748   62.2671 O   0  0  0  0  0  0  0  0  0  0  0  0
  -32.9157   64.4185   63.0827 O   0  0  0  0  0  0  0  0  0  0  0  0
  -33.9829   63.9779   61.0081 O   0  0  0  0  0  0  0  0  0  0  0  0
  -33.6805   63.4340   62.4141 S   0  0  0  0  0  0  0  0  0  0  0  0
  -33.1130   61.6976   63.1385 H   0  0  0  0  0  0  0  0  0  0  0  0
  -34.5085   63.3278   60.5161 H   0  0  0  0  0  0  0  0  0  0  0  0
  2  1  1  0  0  0
  2  4  1  0  0  0
  2  5  1  0  0  0
 47 48  1  0  0  0
 47  1  1  0  0  0
 48 52  1  0  0  0
  1 30  1  0  0  0
 29 30  1  0  0  0
 29 31  1  0  0  0
 30 32  1  0  0  0
  3  4  2  0  0  0
 32 33  2  0  0  0
 49 53  1  0  0  0
 49 57  1  0  0  0
 33 34  1  0  0  0
 62 54  1  0  0  0
 62 66  1  0  0  0
 34 35  1  0  0  0
 50 55  1  0  0  0
 50 58  1  0  0  0
 35 36  1  0  0  0
 51 52  1  0  0  0
 51 56  1  0  0  0
 36 37  1  0  0  0
 59 60  1  0  0  0
 59 61  1  0  0  0
 37 38  1  0  0  0
 63 66  1  0  0  0
 63 67  1  0  0  0
 38 39  1  0  0  0
 64 66  1  0  0  0
 39 40  1  0  0  0
 65 66  1  0  0  0
 65 68  1  0  0  0
 40 41  1  0  0  0
 41 42  1  0  0  0
 42 43  1  0  0  0
 43 44  1  0  0  0
 44 45  1  0  0  0
 45 46  1  0  0  0
  4  6  1  0  0  0
  6  7  1  0  0  0
  7  8  1  0  0  0
  8  9  1  0  0  0
  9 10  1  0  0  0
 10 11  1  0  0  0
 11 12  1  0  0  0
 12 13  1  0  0  0
 13 14  1  0  0  0
 14 15  1  0  0  0
 15 16  1  0  0  0
 16 17  1  0  0  0
 17 18  1  0  0  0
 18 19  1  0  0  0
 19 20  2  0  0  0
 20 21  1  0  0  0
 21 22  1  0  0  0
 22 23  1  0  0  0
 23 24  1  0  0  0
 24 25  1  0  0  0
 25 26  1  0  0  0
 26 27  1  0  0  0
 27 28  1  0  0  0
 52 53  1  0  0  0
 53 54  1  0  0  0
 54 55  1  0  0  0
 55 56  1  0  0  0
 56 60  1  0  0  0
M  CHG 1  64  -1
M  END
> <minimizedAffinity>
-7.54050

> <CNNscore>
0.1303518713

> <CNNaffinity>
7.3324189186

> <CNN_VS>
0.9557945132

> <CNNaffinity_variance>
1.4208837748

$$$$
/media/chris/experiments/cd1a-new-docking/inputs/ligands/7ryn_ligand.pdb


 68 68  0  0  0  0  0  0  0  0999 V2000
  -37.2299   59.8115   64.2799 C   0  0  0  0  0  0  0  0  0  0  0  0
  -37.9965   58.9870   63.3505 N   0  0  0  0  0  0  0  0  0  0  0  0
  -36.7031   57.1545   63.5414 O   0  0  0  0  0  0  0  0  0  0  0  0
  -37.6745   57.7251   63.0539 C   0  0  0  0  0  0  0  0  0  0  0  0
  -38.7902   59.3806   62.9211 H   0  0  0  0  0  0  0  0  0  0  0  0
  -38.5906   57.0303   62.0775 C   0  0  0  0  0  0  0  0  0  0  0  0
  -39.6727   56.2127   62.7712 C   0  0  0  0  0  0  0  0  0  0  0  0
  -40.6556   57.0770   63.5447 C   0  0  0  0  0  0  0  0  0  0  0  0
  -41.7090   57.7418   62.6742 C   0  0  0  0  0  0  0  0  0  0  0  0
  -43.1319   57.5548   63.1791 C   0  0  0  0  0  0  0  0  0  0  0  0
  -43.7571   58.8200   63.7529 C   0  0  0  0  0  0  0  0  0  0  0  0
  -45.0944   58.5883   64.4445 C   0  0  0  0  0  0  0  0  0  0  0  0
  -45.0036   57.8102   65.7548 C   0  0  0  0  0  0  0  0  0  0  0  0
  -46.3481   57.6049   66.4508 C   0  0  0  0  0  0  0  0  0  0  0  0
  -47.0230   58.8917   66.9253 C   0  0  0  0  0  0  0  0  0  0  0  0
  -48.3134   59.2159   66.1723 C   0  0  0  0  0  0  0  0  0  0  0  0
  -48.1303   60.0462   64.9021 C   0  0  0  0  0  0  0  0  0  0  0  0
  -49.3631   60.8447   64.4701 C   0  0  0  0  0  0  0  0  0  0  0  0
  -50.5815   59.9857   64.2920 C   0  0  0  0  0  0  0  0  0  0  0  0
  -51.0358   59.5070   63.1473 C   0  0  0  0  0  0  0  0  0  0  0  0
  -50.4242   59.7230   61.7963 C   0  0  0  0  0  0  0  0  0  0  0  0
  -49.3314   58.7104   61.4473 C   0  0  0  0  0  0  0  0  0  0  0  0
  -49.8191   57.2678   61.4658 C   0  0  0  0  0  0  0  0  0  0  0  0
  -49.3661   56.4604   60.2545 C   0  0  0  0  0  0  0  0  0  0  0  0
  -48.1494   57.0308   59.5348 C   0  0  0  0  0  0  0  0  0  0  0  0
  -47.5202   56.0683   58.5375 C   0  0  0  0  0  0  0  0  0  0  0  0
  -46.7440   56.7484   57.4209 C   0  0  0  0  0  0  0  0  0  0  0  0
  -47.5808   57.7435   56.6429 C   0  0  0  0  0  0  0  0  0  0  0  0
  -37.6497   60.9759   66.3542 O   0  0  0  0  0  0  0  0  0  0  0  0
  -38.1871   60.7349   65.0506 C   0  0  0  0  0  0  0  0  0  0  0  0
  -36.7606   61.3552   66.2724 H   0  0  0  0  0  0  0  0  0  0  0  0
  -39.5625   60.1479   65.1381 C   0  0  0  0  0  0  0  0  0  0  0  0
  -40.0708   59.5637   66.2051 C   0  0  0  0  0  0  0  0  0  0  0  0
  -41.4529   59.0008   66.2658 C   0  0  0  0  0  0  0  0  0  0  0  0
  -42.2442   59.6090   67.4255 C   0  0  0  0  0  0  0  0  0  0  0  0
  -42.6805   61.0469   67.1959 C   0  0  0  0  0  0  0  0  0  0  0  0
  -41.7780   61.8315   66.2589 C   0  0  0  0  0  0  0  0  0  0  0  0
  -42.3066   63.2136   65.9040 C   0  0  0  0  0  0  0  0  0  0  0  0
  -42.5917   63.3962   64.4212 C   0  0  0  0  0  0  0  0  0  0  0  0
  -42.3985   62.1331   63.6008 C   0  0  0  0  0  0  0  0  0  0  0  0
  -42.8473   62.2591   62.1567 C   0  0  0  0  0  0  0  0  0  0  0  0
  -42.2500   61.2114   61.2331 C   0  0  0  0  0  0  0  0  0  0  0  0
  -40.9955   60.5698   61.7961 C   0  0  0  0  0  0  0  0  0  0  0  0
  -39.7900   60.6406   60.8785 C   0  0  0  0  0  0  0  0  0  0  0  0
  -39.6931   59.4454   59.9507 C   0  0  0  0  0  0  0  0  0  0  0  0
  -38.2713   59.1680   59.5080 C   0  0  0  0  0  0  0  0  0  0  0  0
  -36.1691   60.5904   63.5300 C   0  0  0  0  0  0  0  0  0  0  0  0
  -34.8843   60.1805   64.0117 O   0  0  0  0  0  0  0  0  0  0  0  0
  -32.8927   61.3792   62.4504 O   0  0  0  0  0  0  0  0  0  0  0  0
  -34.8478   64.6482   64.4538 O   0  0  0  0  0  0  0  0  0  0  0  0
  -34.8453   61.9606   65.4807 O   0  0  0  0  0  0  0  0  0  0  0  0
  -34.1050   61.2195   64.5288 C   0  0  0  0  0  0  0  0  0  0  0  0
  -33.6869   62.1166   63.3711 C   0  0  0  0  0  0  0  0  0  0  0  0
  -32.9069   63.3138   63.8993 C   0  0  0  0  0  0  0  0  0  0  0  0
  -33.6829   64.0321   64.9934 C   0  0  0  0  0  0  0  0  0  0  0  0
  -34.0931   63.0324   66.0718 C   0  0  0  0  0  0  0  0  0  0  0  0
  -33.3996   60.6203   62.1215 H   0  0  0  0  0  0  0  0  0  0  0  0
  -34.5892   65.2840   63.7683 H   0  0  0  0  0  0  0  0  0  0  0  0
  -35.9563   62.7227   67.5953 O   0  0  0  0  0  0  0  0  0  0  0  0
  -34.9662   63.6399   67.1447 C   0  0  0  0  0  0  0  0  0  0  0  0
  -36.4979   63.1429   68.2816 H   0  0  0  0  0  0  0  0  0  0  0  0
  -32.7605   64.1985   62.7437 O   0  0  0  0  0  0  0  0  0  0  0  0
  -31.2124   65.5852   61.5242 O   0  0  0  0  0  0  0  0  0  0  0  0
  -30.9360   65.2303   63.9966 O   0  0  0  0  0  0  0  0  0  0  0  0
  -32.6987   66.5509   63.1102 O   0  0  0  0  0  0  0  0  0  0  0  0
  -31.7215   65.3969   62.8320 S   0  0  0  0  0  0  0  0  0  0  0  0
  -30.5895   64.8719   61.3139 H   0  0  0  0  0  0  0  0  0  0  0  0
  -33.2576   66.6964   62.3308 H   0  0  0  0  0  0  0  0  0  0  0  0
  2  1  1  0  0  0
  2  4  1  0  0  0
  2  5  1  0  0  0
 47 48  1  0  0  0
 47  1  1  0  0  0
 48 52  1  0  0  0
  1 30  1  0  0  0
 29 30  1  0  0  0
 29 31  1  0  0  0
 30 32  1  0  0  0
  3  4  2  0  0  0
 32 33  2  0  0  0
 49 53  1  0  0  0
 49 57  1  0  0  0
 33 34  1  0  0  0
 62 54  1  0  0  0
 62 66  1  0  0  0
 34 35  1  0  0  0
 50 55  1  0  0  0
 50 58  1  0  0  0
 35 36  1  0  0  0
 51 52  1  0  0  0
 51 56  1  0  0  0
 36 37  1  0  0  0
 59 60  1  0  0  0
 59 61  1  0  0  0
 37 38  1  0  0  0
 63 66  1  0  0  0
 63 67  1  0  0  0
 38 39  1  0  0  0
 64 66  1  0  0  0
 39 40  1  0  0  0
 65 66  1  0  0  0
 65 68  1  0  0  0
 40 41  1  0  0  0
 41 42  1  0  0  0
 42 43  1  0  0  0
 43 44  1  0  0  0
 44 45  1  0  0  0
 45 46  1  0  0  0
  4  6  1  0  0  0
  6  7  1  0  0  0
  7  8  1  0  0  0
  8  9  1  0  0  0
  9 10  1  0  0  0
 10 11  1  0  0  0
 11 12  1  0  0  0
 12 13  1  0  0  0
 13 14  1  0  0  0
 14 15  1  0  0  0
 15 16  1  0  0  0
 16 17  1  0  0  0
 17 18  1  0  0  0
 18 19  1  0  0  0
 19 20  2  0  0  0
 20 21  1  0  0  0
 21 22  1  0  0  0
 22 23  1  0  0  0
 23 24  1  0  0  0
 24 25  1  0  0  0
 25 26  1  0  0  0
 26 27  1  0  0  0
 27 28  1  0  0  0
 52 53  1  0  0  0
 53 54  1  0  0  0
 54 55  1  0  0  0
 55 56  1  0  0  0
 56 60  1  0  0  0
M  CHG 1  64  -1
M  END
> <minimizedAffinity>
-7.48667

> <CNNscore>
0.1261568218

> <CNNaffinity>
7.2394332886

> <CNN_VS>
0.9133039117

> <CNNaffinity_variance>
1.1769307852

$$$$
/media/chris/experiments/cd1a-new-docking/inputs/ligands/7ryn_ligand.pdb


 68 68  0  0  0  0  0  0  0  0999 V2000
  -43.1750   57.5372   65.8008 C   0  0  0  0  0  0  0  0  0  0  0  0
  -42.2480   57.4863   64.6741 N   0  0  0  0  0  0  0  0  0  0  0  0
  -41.8138   55.2827   64.8276 O   0  0  0  0  0  0  0  0  0  0  0  0
  -41.6405   56.3655   64.2756 C   0  0  0  0  0  0  0  0  0  0  0  0
  -42.0614   58.3193   64.1838 H   0  0  0  0  0  0  0  0  0  0  0  0
  -40.7226   56.5081   63.0871 C   0  0  0  0  0  0  0  0  0  0  0  0
  -41.3808   56.0726   61.7842 C   0  0  0  0  0  0  0  0  0  0  0  0
  -41.8683   57.2477   60.9519 C   0  0  0  0  0  0  0  0  0  0  0  0
  -40.9428   57.6158   59.8043 C   0  0  0  0  0  0  0  0  0  0  0  0
  -40.1466   58.8904   60.0405 C   0  0  0  0  0  0  0  0  0  0  0  0
  -38.7527   58.8733   59.4259 C   0  0  0  0  0  0  0  0  0  0  0  0
  -37.6302   58.7357   60.4465 C   0  0  0  0  0  0  0  0  0  0  0  0
  -37.9473   57.8067   61.6157 C   0  0  0  0  0  0  0  0  0  0  0  0
  -36.7145   57.3215   62.3767 C   0  0  0  0  0  0  0  0  0  0  0  0
  -35.4308   58.0913   62.0670 C   0  0  0  0  0  0  0  0  0  0  0  0
  -34.2011   57.5402   62.7891 C   0  0  0  0  0  0  0  0  0  0  0  0
  -32.8698   58.1603   62.3655 C   0  0  0  0  0  0  0  0  0  0  0  0
  -32.5756   59.5342   62.9737 C   0  0  0  0  0  0  0  0  0  0  0  0
  -31.4056   60.2192   62.3288 C   0  0  0  0  0  0  0  0  0  0  0  0
  -31.3729   61.4703   61.9048 C   0  0  0  0  0  0  0  0  0  0  0  0
  -32.4969   62.4583   61.9852 C   0  0  0  0  0  0  0  0  0  0  0  0
  -32.1473   63.8346   61.4152 C   0  0  0  0  0  0  0  0  0  0  0  0
  -33.0641   64.9435   61.9141 C   0  0  0  0  0  0  0  0  0  0  0  0
  -34.4530   64.4505   62.3041 C   0  0  0  0  0  0  0  0  0  0  0  0
  -34.9371   64.9385   63.6647 C   0  0  0  0  0  0  0  0  0  0  0  0
  -33.9771   64.6278   64.8044 C   0  0  0  0  0  0  0  0  0  0  0  0
  -33.8203   63.1444   65.0991 C   0  0  0  0  0  0  0  0  0  0  0  0
  -33.9497   62.8196   66.5734 C   0  0  0  0  0  0  0  0  0  0  0  0
  -44.6744   58.1190   63.9985 O   0  0  0  0  0  0  0  0  0  0  0  0
  -44.6186   57.4776   65.2760 C   0  0  0  0  0  0  0  0  0  0  0  0
  -44.0467   57.6921   63.3946 H   0  0  0  0  0  0  0  0  0  0  0  0
  -45.5772   58.1121   66.2365 C   0  0  0  0  0  0  0  0  0  0  0  0
  -46.8067   58.4872   65.9437 C   0  0  0  0  0  0  0  0  0  0  0  0
  -47.7445   59.1041   66.9289 C   0  0  0  0  0  0  0  0  0  0  0  0
  -48.9517   59.7264   66.2242 C   0  0  0  0  0  0  0  0  0  0  0  0
  -49.9697   58.7152   65.7224 C   0  0  0  0  0  0  0  0  0  0  0  0
  -50.4515   58.9652   64.3036 C   0  0  0  0  0  0  0  0  0  0  0  0
  -49.4012   59.5856   63.3938 C   0  0  0  0  0  0  0  0  0  0  0  0
  -49.7276   59.4652   61.9132 C   0  0  0  0  0  0  0  0  0  0  0  0
  -50.5974   58.2676   61.5737 C   0  0  0  0  0  0  0  0  0  0  0  0
  -50.3189   57.6686   60.2076 C   0  0  0  0  0  0  0  0  0  0  0  0
  -49.3485   56.5002   60.2342 C   0  0  0  0  0  0  0  0  0  0  0  0
  -48.0379   56.8013   59.5312 C   0  0  0  0  0  0  0  0  0  0  0  0
  -48.1036   57.9579   58.5523 C   0  0  0  0  0  0  0  0  0  0  0  0
  -47.5762   57.5897   57.1794 C   0  0  0  0  0  0  0  0  0  0  0  0
  -47.1303   56.1445   57.0972 C   0  0  0  0  0  0  0  0  0  0  0  0
  -42.9211   58.7814   66.6266 C   0  0  0  0  0  0  0  0  0  0  0  0
  -41.5154   59.0545   66.6091 O   0  0  0  0  0  0  0  0  0  0  0  0
  -38.8182   59.7296   66.2769 O   0  0  0  0  0  0  0  0  0  0  0  0
  -40.5149   59.9698   62.3290 O   0  0  0  0  0  0  0  0  0  0  0  0
  -42.0802   60.2629   64.7252 O   0  0  0  0  0  0  0  0  0  0  0  0
  -41.1455   60.1159   65.7779 C   0  0  0  0  0  0  0  0  0  0  0  0
  -39.7619   59.8153   65.2166 C   0  0  0  0  0  0  0  0  0  0  0  0
  -39.3535   60.9058   64.2343 C   0  0  0  0  0  0  0  0  0  0  0  0
  -40.4234   61.1134   63.1724 C   0  0  0  0  0  0  0  0  0  0  0  0
  -41.7726   61.3554   63.8445 C   0  0  0  0  0  0  0  0  0  0  0  0
  -39.0888   59.0327   66.8951 H   0  0  0  0  0  0  0  0  0  0  0  0
  -39.6585   59.8143   61.9010 H   0  0  0  0  0  0  0  0  0  0  0  0
  -42.8864   62.6955   62.1557 O   0  0  0  0  0  0  0  0  0  0  0  0
  -42.9157   61.4609   62.8623 C   0  0  0  0  0  0  0  0  0  0  0  0
  -43.6312   62.7309   61.5354 H   0  0  0  0  0  0  0  0  0  0  0  0
  -38.1339   60.3990   63.6056 O   0  0  0  0  0  0  0  0  0  0  0  0
  -36.0583   61.4863   63.0430 O   0  0  0  0  0  0  0  0  0  0  0  0
  -36.1919   59.9261   65.0085 O   0  0  0  0  0  0  0  0  0  0  0  0
  -37.2174   62.0672   65.0371 O   0  0  0  0  0  0  0  0  0  0  0  0
  -36.7313   60.9108   64.1480 S   0  0  0  0  0  0  0  0  0  0  0  0
  -35.7365   60.7825   62.4581 H   0  0  0  0  0  0  0  0  0  0  0  0
  -37.5959   62.7658   64.4807 H   0  0  0  0  0  0  0  0  0  0  0  0
  2  1  1  0  0  0
  2  4  1  0  0  0
  2  5  1  0  0  0
 47 48  1  0  0  0
 47  1  1  0  0  0
 48 52  1  0  0  0
  1 30  1  0  0  0
 29 30  1  0  0  0
 29 31  1  0  0  0
 30 32  1  0  0  0
  3  4  2  0  0  0
 32 33  2  0  0  0
 49 53  1  0  0  0
 49 57  1  0  0  0
 33 34  1  0  0  0
 62 54  1  0  0  0
 62 66  1  0  0  0
 34 35  1  0  0  0
 50 55  1  0  0  0
 50 58  1  0  0  0
 35 36  1  0  0  0
 51 52  1  0  0  0
 51 56  1  0  0  0
 36 37  1  0  0  0
 59 60  1  0  0  0
 59 61  1  0  0  0
 37 38  1  0  0  0
 63 66  1  0  0  0
 63 67  1  0  0  0
 38 39  1  0  0  0
 64 66  1  0  0  0
 39 40  1  0  0  0
 65 66  1  0  0  0
 65 68  1  0  0  0
 40 41  1  0  0  0
 41 42  1  0  0  0
 42 43  1  0  0  0
 43 44  1  0  0  0
 44 45  1  0  0  0
 45 46  1  0  0  0
  4  6  1  0  0  0
  6  7  1  0  0  0
  7  8  1  0  0  0
  8  9  1  0  0  0
  9 10  1  0  0  0
 10 11  1  0  0  0
 11 12  1  0  0  0
 12 13  1  0  0  0
 13 14  1  0  0  0
 14 15  1  0  0  0
 15 16  1  0  0  0
 16 17  1  0  0  0
 17 18  1  0  0  0
 18 19  1  0  0  0
 19 20  2  0  0  0
 20 21  1  0  0  0
 21 22  1  0  0  0
 22 23  1  0  0  0
 23 24  1  0  0  0
 24 25  1  0  0  0
 25 26  1  0  0  0
 26 27  1  0  0  0
 27 28  1  0  0  0
 52 53  1  0  0  0
 53 54  1  0  0  0
 54 55  1  0  0  0
 55 56  1  0  0  0
 56 60  1  0  0  0
M  CHG 1  64  -1
M  END
> <minimizedAffinity>
-9.04039

> <CNNscore>
0.1175290048

> <CNNaffinity>
7.0637578964

> <CNN_VS>
0.8301964402

> <CNNaffinity_variance>
2.2778267860

$$$$
/media/chris/experiments/cd1a-new-docking/inputs/ligands/7ryn_ligand.pdb


 68 68  0  0  0  0  0  0  0  0999 V2000
  -41.2300   59.9957   65.6845 C   0  0  0  0  0  0  0  0  0  0  0  0
  -41.8159   60.9724   64.7713 N   0  0  0  0  0  0  0  0  0  0  0  0
  -42.8114   59.4672   63.4255 O   0  0  0  0  0  0  0  0  0  0  0  0
  -42.5597   60.6334   63.7149 C   0  0  0  0  0  0  0  0  0  0  0  0
  -41.6550   61.9285   64.9426 H   0  0  0  0  0  0  0  0  0  0  0  0
  -43.0855   61.7825   62.8913 C   0  0  0  0  0  0  0  0  0  0  0  0
  -42.5752   61.7552   61.4562 C   0  0  0  0  0  0  0  0  0  0  0  0
  -41.2824   60.9689   61.3082 C   0  0  0  0  0  0  0  0  0  0  0  0
  -40.9517   60.5915   59.8739 C   0  0  0  0  0  0  0  0  0  0  0  0
  -39.8120   59.5916   59.7479 C   0  0  0  0  0  0  0  0  0  0  0  0
  -40.2697   58.1477   59.5846 C   0  0  0  0  0  0  0  0  0  0  0  0
  -41.7640   57.9461   59.8006 C   0  0  0  0  0  0  0  0  0  0  0  0
  -42.1241   57.2042   61.0853 C   0  0  0  0  0  0  0  0  0  0  0  0
  -41.5328   55.7986   61.1785 C   0  0  0  0  0  0  0  0  0  0  0  0
  -41.3249   55.2880   62.6042 C   0  0  0  0  0  0  0  0  0  0  0  0
  -42.1380   56.0523   63.6493 C   0  0  0  0  0  0  0  0  0  0  0  0
  -41.3167   56.6832   64.7736 C   0  0  0  0  0  0  0  0  0  0  0  0
  -39.8398   56.9134   64.4425 C   0  0  0  0  0  0  0  0  0  0  0  0
  -39.6321   57.9984   63.4258 C   0  0  0  0  0  0  0  0  0  0  0  0
  -38.6848   58.0315   62.5051 C   0  0  0  0  0  0  0  0  0  0  0  0
  -37.6285   56.9906   62.2890 C   0  0  0  0  0  0  0  0  0  0  0  0
  -36.2255   57.4447   62.6977 C   0  0  0  0  0  0  0  0  0  0  0  0
  -36.0402   57.5439   64.2060 C   0  0  0  0  0  0  0  0  0  0  0  0
  -35.1406   58.6993   64.6302 C   0  0  0  0  0  0  0  0  0  0  0  0
  -33.7082   58.2958   64.9605 C   0  0  0  0  0  0  0  0  0  0  0  0
  -32.6942   58.7171   63.9064 C   0  0  0  0  0  0  0  0  0  0  0  0
  -32.6121   57.7797   62.7120 C   0  0  0  0  0  0  0  0  0  0  0  0
  -33.1021   58.4172   61.4278 C   0  0  0  0  0  0  0  0  0  0  0  0
  -41.5642   58.8716   67.7962 O   0  0  0  0  0  0  0  0  0  0  0  0
  -42.1157   59.8715   66.9346 C   0  0  0  0  0  0  0  0  0  0  0  0
  -40.6487   59.1042   68.0170 H   0  0  0  0  0  0  0  0  0  0  0  0
  -43.5320   59.5445   66.5721 C   0  0  0  0  0  0  0  0  0  0  0  0
  -44.0583   58.3359   66.5863 C   0  0  0  0  0  0  0  0  0  0  0  0
  -45.4799   58.0440   66.2334 C   0  0  0  0  0  0  0  0  0  0  0  0
  -45.7708   58.4072   64.7758 C   0  0  0  0  0  0  0  0  0  0  0  0
  -47.0493   59.2046   64.5756 C   0  0  0  0  0  0  0  0  0  0  0  0
  -48.3236   58.3965   64.7510 C   0  0  0  0  0  0  0  0  0  0  0  0
  -49.5419   59.2330   65.1136 C   0  0  0  0  0  0  0  0  0  0  0  0
  -50.7471   58.9752   64.2225 C   0  0  0  0  0  0  0  0  0  0  0  0
  -50.3849   58.5168   62.8208 C   0  0  0  0  0  0  0  0  0  0  0  0
  -49.8816   59.6276   61.9178 C   0  0  0  0  0  0  0  0  0  0  0  0
  -49.5424   59.1698   60.5097 C   0  0  0  0  0  0  0  0  0  0  0  0
  -49.6519   57.6668   60.3318 C   0  0  0  0  0  0  0  0  0  0  0  0
  -48.5768   57.0606   59.4503 C   0  0  0  0  0  0  0  0  0  0  0  0
  -47.9386   58.0790   58.5260 C   0  0  0  0  0  0  0  0  0  0  0  0
  -47.7110   57.5344   57.1311 C   0  0  0  0  0  0  0  0  0  0  0  0
  -39.8103   60.3946   66.0307 C   0  0  0  0  0  0  0  0  0  0  0  0
  -39.1107   60.6726   64.8125 O   0  0  0  0  0  0  0  0  0  0  0  0
  -37.4021   60.9015   62.6059 O   0  0  0  0  0  0  0  0  0  0  0  0
  -36.4316   64.2629   65.1122 O   0  0  0  0  0  0  0  0  0  0  0  0
  -37.6193   61.8466   66.1262 O   0  0  0  0  0  0  0  0  0  0  0  0
  -37.7680   61.0208   64.9863 C   0  0  0  0  0  0  0  0  0  0  0  0
  -37.3065   61.7588   63.7365 C   0  0  0  0  0  0  0  0  0  0  0  0
  -35.8707   62.2351   63.9169 C   0  0  0  0  0  0  0  0  0  0  0  0
  -35.7176   63.0342   65.2028 C   0  0  0  0  0  0  0  0  0  0  0  0
  -36.2558   62.2222   66.3782 C   0  0  0  0  0  0  0  0  0  0  0  0
  -38.3198   60.6051   62.5015 H   0  0  0  0  0  0  0  0  0  0  0  0
  -36.0911   64.7805   64.3658 H   0  0  0  0  0  0  0  0  0  0  0  0
  -35.0581   63.7546   67.8293 O   0  0  0  0  0  0  0  0  0  0  0  0
  -36.2459   62.9852   67.6821 C   0  0  0  0  0  0  0  0  0  0  0  0
  -35.0837   64.2306   68.6741 H   0  0  0  0  0  0  0  0  0  0  0  0
  -35.6234   63.1066   62.7685 O   0  0  0  0  0  0  0  0  0  0  0  0
  -34.0899   63.8842   61.0802 O   0  0  0  0  0  0  0  0  0  0  0  0
  -33.2494   62.6355   63.0925 O   0  0  0  0  0  0  0  0  0  0  0  0
  -34.0793   64.8542   63.2519 O   0  0  0  0  0  0  0  0  0  0  0  0
  -34.1283   63.5411   62.4534 S   0  0  0  0  0  0  0  0  0  0  0  0
  -34.1193   63.0762   60.5441 H   0  0  0  0  0  0  0  0  0  0  0  0
  -34.6721   65.5038   62.8426 H   0  0  0  0  0  0  0  0  0  0  0  0
  2  1  1  0  0  0
  2  4  1  0  0  0
  2  5  1  0  0  0
 47 48  1  0  0  0
 47  1  1  0  0  0
 48 52  1  0  0  0
  1 30  1  0  0  0
 29 30  1  0  0  0
 29 31  1  0  0  0
 30 32  1  0  0  0
  3  4  2  0  0  0
 32 33  2  0  0  0
 49 53  1  0  0  0
 49 57  1  0  0  0
 33 34  1  0  0  0
 62 54  1  0  0  0
 62 66  1  0  0  0
 34 35  1  0  0  0
 50 55  1  0  0  0
 50 58  1  0  0  0
 35 36  1  0  0  0
 51 52  1  0  0  0
 51 56  1  0  0  0
 36 37  1  0  0  0
 59 60  1  0  0  0
 59 61  1  0  0  0
 37 38  1  0  0  0
 63 66  1  0  0  0
 63 67  1  0  0  0
 38 39  1  0  0  0
 64 66  1  0  0  0
 39 40  1  0  0  0
 65 66  1  0  0  0
 65 68  1  0  0  0
 40 41  1  0  0  0
 41 42  1  0  0  0
 42 43  1  0  0  0
 43 44  1  0  0  0
 44 45  1  0  0  0
 45 46  1  0  0  0
  4  6  1  0  0  0
  6  7  1  0  0  0
  7  8  1  0  0  0
  8  9  1  0  0  0
  9 10  1  0  0  0
 10 11  1  0  0  0
 11 12  1  0  0  0
 12 13  1  0  0  0
 13 14  1  0  0  0
 14 15  1  0  0  0
 15 16  1  0  0  0
 16 17  1  0  0  0
 17 18  1  0  0  0
 18 19  1  0  0  0
 19 20  2  0  0  0
 20 21  1  0  0  0
 21 22  1  0  0  0
 22 23  1  0  0  0
 23 24  1  0  0  0
 24 25  1  0  0  0
 25 26  1  0  0  0
 26 27  1  0  0  0
 27 28  1  0  0  0
 52 53  1  0  0  0
 53 54  1  0  0  0
 54 55  1  0  0  0
 55 56  1  0  0  0
 56 60  1  0  0  0
M  CHG 1  64  -1
M  END
> <minimizedAffinity>
-8.41386

> <CNNscore>
0.1146877035

> <CNNaffinity>
7.4591417313

> <CNN_VS>
0.8554718494

> <CNNaffinity_variance>
1.8778369427

$$$$
/media/chris/experiments/cd1a-new-docking/inputs/ligands/7ryn_ligand.pdb


 68 68  0  0  0  0  0  0  0  0999 V2000
  -36.2120   58.0788   63.3568 C   0  0  0  0  0  0  0  0  0  0  0  0
  -36.8048   58.9043   64.4049 N   0  0  0  0  0  0  0  0  0  0  0  0
  -36.5382   60.8674   63.3359 O   0  0  0  0  0  0  0  0  0  0  0  0
  -36.9218   60.2317   64.3136 C   0  0  0  0  0  0  0  0  0  0  0  0
  -37.1346   58.4605   65.2195 H   0  0  0  0  0  0  0  0  0  0  0  0
  -37.5681   60.9125   65.4943 C   0  0  0  0  0  0  0  0  0  0  0  0
  -38.4923   59.9835   66.2711 C   0  0  0  0  0  0  0  0  0  0  0  0
  -39.9555   60.1687   65.9021 C   0  0  0  0  0  0  0  0  0  0  0  0
  -40.7518   58.8748   65.8719 C   0  0  0  0  0  0  0  0  0  0  0  0
  -42.2386   59.0611   66.1349 C   0  0  0  0  0  0  0  0  0  0  0  0
  -42.9473   57.7981   66.6077 C   0  0  0  0  0  0  0  0  0  0  0  0
  -43.8141   57.1411   65.5412 C   0  0  0  0  0  0  0  0  0  0  0  0
  -44.4221   58.1121   64.5323 C   0  0  0  0  0  0  0  0  0  0  0  0
  -45.7953   58.6478   64.9343 C   0  0  0  0  0  0  0  0  0  0  0  0
  -46.6327   57.6860   65.7770 C   0  0  0  0  0  0  0  0  0  0  0  0
  -47.4817   58.3869   66.8378 C   0  0  0  0  0  0  0  0  0  0  0  0
  -48.2244   59.6320   66.3535 C   0  0  0  0  0  0  0  0  0  0  0  0
  -49.2813   59.3744   65.2762 C   0  0  0  0  0  0  0  0  0  0  0  0
  -49.0138   60.1270   64.0049 C   0  0  0  0  0  0  0  0  0  0  0  0
  -49.7096   60.0358   62.8852 C   0  0  0  0  0  0  0  0  0  0  0  0
  -50.9078   59.1644   62.6601 C   0  0  0  0  0  0  0  0  0  0  0  0
  -50.6336   57.9657   61.7494 C   0  0  0  0  0  0  0  0  0  0  0  0
  -49.4060   58.1482   60.8670 C   0  0  0  0  0  0  0  0  0  0  0  0
  -49.2541   57.0608   59.8092 C   0  0  0  0  0  0  0  0  0  0  0  0
  -47.8120   56.6672   59.5109 C   0  0  0  0  0  0  0  0  0  0  0  0
  -47.6211   56.0310   58.1414 C   0  0  0  0  0  0  0  0  0  0  0  0
  -47.7892   56.9956   56.9781 C   0  0  0  0  0  0  0  0  0  0  0  0
  -46.9841   58.2681   57.1466 C   0  0  0  0  0  0  0  0  0  0  0  0
  -34.4391   58.0171   64.9962 O   0  0  0  0  0  0  0  0  0  0  0  0
  -34.6965   57.9700   63.5898 C   0  0  0  0  0  0  0  0  0  0  0  0
  -34.9302   57.3073   65.4388 H   0  0  0  0  0  0  0  0  0  0  0  0
  -33.9527   59.0544   62.8723 C   0  0  0  0  0  0  0  0  0  0  0  0
  -32.6887   58.9903   62.5035 C   0  0  0  0  0  0  0  0  0  0  0  0
  -31.9787   60.0840   61.7750 C   0  0  0  0  0  0  0  0  0  0  0  0
  -31.6409   61.2425   62.7156 C   0  0  0  0  0  0  0  0  0  0  0  0
  -31.4607   62.5804   62.0167 C   0  0  0  0  0  0  0  0  0  0  0  0
  -32.7535   63.2051   61.5206 C   0  0  0  0  0  0  0  0  0  0  0  0
  -32.6163   64.6620   61.1031 C   0  0  0  0  0  0  0  0  0  0  0  0
  -31.9361   65.5349   62.1465 C   0  0  0  0  0  0  0  0  0  0  0  0
  -32.9054   66.2912   63.0377 C   0  0  0  0  0  0  0  0  0  0  0  0
  -33.4274   65.4818   64.2103 C   0  0  0  0  0  0  0  0  0  0  0  0
  -32.3579   65.0998   65.2191 C   0  0  0  0  0  0  0  0  0  0  0  0
  -32.3459   63.6164   65.5382 C   0  0  0  0  0  0  0  0  0  0  0  0
  -33.5959   62.8731   65.1078 C   0  0  0  0  0  0  0  0  0  0  0  0
  -34.3680   62.3032   66.2816 C   0  0  0  0  0  0  0  0  0  0  0  0
  -35.0859   63.3727   67.0784 C   0  0  0  0  0  0  0  0  0  0  0  0
  -36.5379   58.6557   61.9946 C   0  0  0  0  0  0  0  0  0  0  0  0
  -37.6374   57.9206   61.4454 O   0  0  0  0  0  0  0  0  0  0  0  0
  -38.9148   60.3921   61.7625 O   0  0  0  0  0  0  0  0  0  0  0  0
  -42.0911   57.5950   60.9816 O   0  0  0  0  0  0  0  0  0  0  0  0
  -39.5557   56.8127   62.0938 O   0  0  0  0  0  0  0  0  0  0  0  0
  -38.8212   58.0194   62.1821 C   0  0  0  0  0  0  0  0  0  0  0  0
  -39.6351   59.1749   61.6144 C   0  0  0  0  0  0  0  0  0  0  0  0
  -40.9761   59.2653   62.3315 C   0  0  0  0  0  0  0  0  0  0  0  0
  -41.6988   57.9264   62.3097 C   0  0  0  0  0  0  0  0  0  0  0  0
  -40.7763   56.8371   62.8511 C   0  0  0  0  0  0  0  0  0  0  0  0
  -38.0638   60.3224   61.3023 H   0  0  0  0  0  0  0  0  0  0  0  0
  -42.6775   58.2861   60.6358 H   0  0  0  0  0  0  0  0  0  0  0  0
  -41.5871   54.8899   64.0510 O   0  0  0  0  0  0  0  0  0  0  0  0
  -41.3745   55.4527   62.7616 C   0  0  0  0  0  0  0  0  0  0  0  0
  -41.9708   54.0040   63.9580 H   0  0  0  0  0  0  0  0  0  0  0  0
  -41.7416   60.2455   61.5615 O   0  0  0  0  0  0  0  0  0  0  0  0
  -42.9316   62.3278   61.3284 O   0  0  0  0  0  0  0  0  0  0  0  0
  -41.3819   61.9520   63.2707 O   0  0  0  0  0  0  0  0  0  0  0  0
  -43.4666   60.8293   63.0963 O   0  0  0  0  0  0  0  0  0  0  0  0
  -42.3303   61.5124   62.3176 S   0  0  0  0  0  0  0  0  0  0  0  0
  -42.2410   62.7763   60.8155 H   0  0  0  0  0  0  0  0  0  0  0  0
  -44.1401   60.5126   62.4741 H   0  0  0  0  0  0  0  0  0  0  0  0
  2  1  1  0  0  0
  2  4  1  0  0  0
  2  5  1  0  0  0
 47 48  1  0  0  0
 47  1  1  0  0  0
 48 52  1  0  0  0
  1 30  1  0  0  0
 29 30  1  0  0  0
 29 31  1  0  0  0
 30 32  1  0  0  0
  3  4  2  0  0  0
 32 33  2  0  0  0
 49 53  1  0  0  0
 49 57  1  0  0  0
 33 34  1  0  0  0
 62 54  1  0  0  0
 62 66  1  0  0  0
 34 35  1  0  0  0
 50 55  1  0  0  0
 50 58  1  0  0  0
 35 36  1  0  0  0
 51 52  1  0  0  0
 51 56  1  0  0  0
 36 37  1  0  0  0
 59 60  1  0  0  0
 59 61  1  0  0  0
 37 38  1  0  0  0
 63 66  1  0  0  0
 63 67  1  0  0  0
 38 39  1  0  0  0
 64 66  1  0  0  0
 39 40  1  0  0  0
 65 66  1  0  0  0
 65 68  1  0  0  0
 40 41  1  0  0  0
 41 42  1  0  0  0
 42 43  1  0  0  0
 43 44  1  0  0  0
 44 45  1  0  0  0
 45 46  1  0  0  0
  4  6  1  0  0  0
  6  7  1  0  0  0
  7  8  1  0  0  0
  8  9  1  0  0  0
  9 10  1  0  0  0
 10 11  1  0  0  0
 11 12  1  0  0  0
 12 13  1  0  0  0
 13 14  1  0  0  0
 14 15  1  0  0  0
 15 16  1  0  0  0
 16 17  1  0  0  0
 17 18  1  0  0  0
 18 19  1  0  0  0
 19 20  2  0  0  0
 20 21  1  0  0  0
 21 22  1  0  0  0
 22 23  1  0  0  0
 23 24  1  0  0  0
 24 25  1  0  0  0
 25 26  1  0  0  0
 26 27  1  0  0  0
 27 28  1  0  0  0
 52 53  1  0  0  0
 53 54  1  0  0  0
 54 55  1  0  0  0
 55 56  1  0  0  0
 56 60  1  0  0  0
M  CHG 1  64  -1
M  END
> <minimizedAffinity>
-8.87161

> <CNNscore>
0.1068375111

> <CNNaffinity>
6.9322762489

> <CNN_VS>
0.7406271696

> <CNNaffinity_variance>
2.1667094231

$$$$
