/media/chris/experiments/cd1a-new-docking/inputs/ligands/7ryn_ligand.pdb


 68 68  0  0  0  0  0  0  0  0999 V2000
  -33.2049   63.1996   64.2786 C   0  0  0  0  0  0  0  0  0  0  0  0
  -34.1523   62.3740   65.0216 N   0  0  0  0  0  0  0  0  0  0  0  0
  -36.0027   63.4350   64.3016 O   0  0  0  0  0  0  0  0  0  0  0  0
  -35.4749   62.5552   64.9756 C   0  0  0  0  0  0  0  0  0  0  0  0
  -33.7988   61.6477   65.5844 H   0  0  0  0  0  0  0  0  0  0  0  0
  -36.2937   61.5981   65.8057 C   0  0  0  0  0  0  0  0  0  0  0  0
  -37.2179   60.7325   64.9587 C   0  0  0  0  0  0  0  0  0  0  0  0
  -38.4367   60.2489   65.7280 C   0  0  0  0  0  0  0  0  0  0  0  0
  -38.8395   58.8189   65.4087 C   0  0  0  0  0  0  0  0  0  0  0  0
  -40.3171   58.6533   65.0864 C   0  0  0  0  0  0  0  0  0  0  0  0
  -40.6451   57.3786   64.3195 C   0  0  0  0  0  0  0  0  0  0  0  0
  -42.1358   57.0785   64.2304 C   0  0  0  0  0  0  0  0  0  0  0  0
  -43.0173   57.9878   65.0827 C   0  0  0  0  0  0  0  0  0  0  0  0
  -44.4982   57.6120   65.0664 C   0  0  0  0  0  0  0  0  0  0  0  0
  -45.4380   58.7434   64.6499 C   0  0  0  0  0  0  0  0  0  0  0  0
  -46.9141   58.4298   64.8942 C   0  0  0  0  0  0  0  0  0  0  0  0
  -47.4709   58.9331   66.2259 C   0  0  0  0  0  0  0  0  0  0  0  0
  -48.7734   59.7308   66.1204 C   0  0  0  0  0  0  0  0  0  0  0  0
  -49.9766   58.8578   65.9099 C   0  0  0  0  0  0  0  0  0  0  0  0
  -50.8541   58.9651   64.9279 C   0  0  0  0  0  0  0  0  0  0  0  0
  -50.8230   59.9787   63.8245 C   0  0  0  0  0  0  0  0  0  0  0  0
  -50.2103   59.4534   62.5245 C   0  0  0  0  0  0  0  0  0  0  0  0
  -50.8289   58.1439   62.0533 C   0  0  0  0  0  0  0  0  0  0  0  0
  -50.4005   57.7444   60.6458 C   0  0  0  0  0  0  0  0  0  0  0  0
  -49.0427   58.2913   60.2201 C   0  0  0  0  0  0  0  0  0  0  0  0
  -48.1759   57.2771   59.4873 C   0  0  0  0  0  0  0  0  0  0  0  0
  -48.1211   57.4781   57.9812 C   0  0  0  0  0  0  0  0  0  0  0  0
  -47.4682   56.3193   57.2554 C   0  0  0  0  0  0  0  0  0  0  0  0
  -33.3718   62.9134   61.8859 O   0  0  0  0  0  0  0  0  0  0  0  0
  -32.7040   62.4214   63.0513 C   0  0  0  0  0  0  0  0  0  0  0  0
  -33.2174   63.8675   61.8033 H   0  0  0  0  0  0  0  0  0  0  0  0
  -32.9209   60.9478   63.2113 C   0  0  0  0  0  0  0  0  0  0  0  0
  -32.0643   60.0121   62.8523 C   0  0  0  0  0  0  0  0  0  0  0  0
  -32.3038   58.5498   63.0390 C   0  0  0  0  0  0  0  0  0  0  0  0
  -33.3645   58.0370   62.0628 C   0  0  0  0  0  0  0  0  0  0  0  0
  -34.6229   57.5080   62.7315 C   0  0  0  0  0  0  0  0  0  0  0  0
  -35.8981   58.2216   62.3163 C   0  0  0  0  0  0  0  0  0  0  0  0
  -37.1731   57.5008   62.7293 C   0  0  0  0  0  0  0  0  0  0  0  0
  -38.2259   57.4454   61.6330 C   0  0  0  0  0  0  0  0  0  0  0  0
  -38.0791   58.5373   60.5879 C   0  0  0  0  0  0  0  0  0  0  0  0
  -39.3983   59.0872   60.0788 C   0  0  0  0  0  0  0  0  0  0  0  0
  -40.5656   58.1273   60.2325 C   0  0  0  0  0  0  0  0  0  0  0  0
  -41.7683   58.7587   60.9088 C   0  0  0  0  0  0  0  0  0  0  0  0
  -41.4407   59.9600   61.7747 C   0  0  0  0  0  0  0  0  0  0  0  0
  -42.2493   61.1864   61.3995 C   0  0  0  0  0  0  0  0  0  0  0  0
  -42.9457   61.8095   62.5917 C   0  0  0  0  0  0  0  0  0  0  0  0
  -32.0681   63.6279   65.1833 C   0  0  0  0  0  0  0  0  0  0  0  0
  -32.3990   64.9004   65.7509 O   0  0  0  0  0  0  0  0  0  0  0  0
  -29.9817   66.1860   65.1636 O   0  0  0  0  0  0  0  0  0  0  0  0
  -31.9555   65.7482   61.3642 O   0  0  0  0  0  0  0  0  0  0  0  0
  -33.3743   65.8095   63.8664 O   0  0  0  0  0  0  0  0  0  0  0  0
  -32.3613   65.9628   64.8432 C   0  0  0  0  0  0  0  0  0  0  0  0
  -30.9887   65.9706   64.1830 C   0  0  0  0  0  0  0  0  0  0  0  0
  -30.9315   67.0608   63.1202 C   0  0  0  0  0  0  0  0  0  0  0  0
  -32.0907   66.9326   62.1429 C   0  0  0  0  0  0  0  0  0  0  0  0
  -33.4079   66.8838   62.9133 C   0  0  0  0  0  0  0  0  0  0  0  0
  -30.0283   65.4864   65.8339 H   0  0  0  0  0  0  0  0  0  0  0  0
  -31.1191   65.7772   60.8739 H   0  0  0  0  0  0  0  0  0  0  0  0
  -35.0299   65.2866   62.0730 O   0  0  0  0  0  0  0  0  0  0  0  0
  -34.6071   66.6443   62.0262 C   0  0  0  0  0  0  0  0  0  0  0  0
  -35.7992   65.1673   61.4943 H   0  0  0  0  0  0  0  0  0  0  0  0
  -29.6714   66.8247   62.4162 O   0  0  0  0  0  0  0  0  0  0  0  0
  -29.2737   69.0766   61.6561 O   0  0  0  0  0  0  0  0  0  0  0  0
  -27.3616   67.4750   61.9636 O   0  0  0  0  0  0  0  0  0  0  0  0
  -28.5398   68.3884   63.8113 O   0  0  0  0  0  0  0  0  0  0  0  0
  -28.6201   68.0120   62.3228 S   0  0  0  0  0  0  0  0  0  0  0  0
  -29.3422   68.8723   60.7103 H   0  0  0  0  0  0  0  0  0  0  0  0
  -29.3882   68.7621   64.0966 H   0  0  0  0  0  0  0  0  0  0  0  0
  2  1  1  0  0  0
  2  4  1  0  0  0
  2  5  1  0  0  0
 47 48  1  0  0  0
 47  1  1  0  0  0
 48 52  1  0  0  0
  1 30  1  0  0  0
 29 30  1  0  0  0
 29 31  1  0  0  0
 30 32  1  0  0  0
  3  4  2  0  0  0
 32 33  2  0  0  0
 49 53  1  0  0  0
 49 57  1  0  0  0
 33 34  1  0  0  0
 62 54  1  0  0  0
 62 66  1  0  0  0
 34 35  1  0  0  0
 50 55  1  0  0  0
 50 58  1  0  0  0
 35 36  1  0  0  0
 51 52  1  0  0  0
 51 56  1  0  0  0
 36 37  1  0  0  0
 59 60  1  0  0  0
 59 61  1  0  0  0
 37 38  1  0  0  0
 63 66  1  0  0  0
 63 67  1  0  0  0
 38 39  1  0  0  0
 64 66  1  0  0  0
 39 40  1  0  0  0
 65 66  1  0  0  0
 65 68  1  0  0  0
 40 41  1  0  0  0
 41 42  1  0  0  0
 42 43  1  0  0  0
 43 44  1  0  0  0
 44 45  1  0  0  0
 45 46  1  0  0  0
  4  6  1  0  0  0
  6  7  1  0  0  0
  7  8  1  0  0  0
  8  9  1  0  0  0
  9 10  1  0  0  0
 10 11  1  0  0  0
 11 12  1  0  0  0
 12 13  1  0  0  0
 13 14  1  0  0  0
 14 15  1  0  0  0
 15 16  1  0  0  0
 16 17  1  0  0  0
 17 18  1  0  0  0
 18 19  1  0  0  0
 19 20  2  0  0  0
 20 21  1  0  0  0
 21 22  1  0  0  0
 22 23  1  0  0  0
 23 24  1  0  0  0
 24 25  1  0  0  0
 25 26  1  0  0  0
 26 27  1  0  0  0
 27 28  1  0  0  0
 52 53  1  0  0  0
 53 54  1  0  0  0
 54 55  1  0  0  0
 55 56  1  0  0  0
 56 60  1  0  0  0
M  CHG 1  64  -1
M  END
> <minimizedAffinity>
-9.36136

> <CNNscore>
0.4768329859

> <CNNaffinity>
7.1707992554

> <CNN_VS>
3.4192736149

> <CNNaffinity_variance>
1.1349313259

$$$$
/media/chris/experiments/cd1a-new-docking/inputs/ligands/7ryn_ligand.pdb


 68 68  0  0  0  0  0  0  0  0999 V2000
  -33.0755   62.6543   63.1255 C   0  0  0  0  0  0  0  0  0  0  0  0
  -34.1926   62.1639   63.9272 N   0  0  0  0  0  0  0  0  0  0  0  0
  -35.8012   63.2195   62.7584 O   0  0  0  0  0  0  0  0  0  0  0  0
  -35.4662   62.4838   63.6822 C   0  0  0  0  0  0  0  0  0  0  0  0
  -33.9977   61.5680   64.6862 H   0  0  0  0  0  0  0  0  0  0  0  0
  -36.4830   61.8740   64.6147 C   0  0  0  0  0  0  0  0  0  0  0  0
  -37.1662   60.6511   64.0161 C   0  0  0  0  0  0  0  0  0  0  0  0
  -38.4378   60.2686   64.7563 C   0  0  0  0  0  0  0  0  0  0  0  0
  -38.6375   58.7695   64.9043 C   0  0  0  0  0  0  0  0  0  0  0  0
  -40.0523   58.3733   65.2992 C   0  0  0  0  0  0  0  0  0  0  0  0
  -40.7830   59.4250   66.1243 C   0  0  0  0  0  0  0  0  0  0  0  0
  -42.2514   59.1044   66.3716 C   0  0  0  0  0  0  0  0  0  0  0  0
  -42.6213   57.6364   66.1753 C   0  0  0  0  0  0  0  0  0  0  0  0
  -43.4766   57.3704   64.9375 C   0  0  0  0  0  0  0  0  0  0  0  0
  -44.7540   58.2059   64.8542 C   0  0  0  0  0  0  0  0  0  0  0  0
  -45.6406   58.0880   66.0940 C   0  0  0  0  0  0  0  0  0  0  0  0
  -47.1247   58.3676   65.8574 C   0  0  0  0  0  0  0  0  0  0  0  0
  -47.4519   59.0169   64.5101 C   0  0  0  0  0  0  0  0  0  0  0  0
  -48.4211   60.1570   64.6321 C   0  0  0  0  0  0  0  0  0  0  0  0
  -49.7268   60.0929   64.4399 C   0  0  0  0  0  0  0  0  0  0  0  0
  -50.5036   58.8676   64.0641 C   0  0  0  0  0  0  0  0  0  0  0  0
  -51.1785   58.9639   62.6943 C   0  0  0  0  0  0  0  0  0  0  0  0
  -50.1893   58.9973   61.5367 C   0  0  0  0  0  0  0  0  0  0  0  0
  -49.9842   57.6383   60.8770 C   0  0  0  0  0  0  0  0  0  0  0  0
  -49.3102   57.6951   59.5108 C   0  0  0  0  0  0  0  0  0  0  0  0
  -47.8863   57.1571   59.5070 C   0  0  0  0  0  0  0  0  0  0  0  0
  -47.3722   56.7665   58.1305 C   0  0  0  0  0  0  0  0  0  0  0  0
  -47.1490   57.9601   57.2242 C   0  0  0  0  0  0  0  0  0  0  0  0
  -31.6708   61.6875   61.4147 O   0  0  0  0  0  0  0  0  0  0  0  0
  -32.1695   61.4744   62.7384 C   0  0  0  0  0  0  0  0  0  0  0  0
  -31.2031   62.5366   61.3782 H   0  0  0  0  0  0  0  0  0  0  0  0
  -32.8994   60.1697   62.8324 C   0  0  0  0  0  0  0  0  0  0  0  0
  -32.4371   59.0103   62.4078 C   0  0  0  0  0  0  0  0  0  0  0  0
  -33.1838   57.7226   62.5296 C   0  0  0  0  0  0  0  0  0  0  0  0
  -34.4340   57.8912   63.3954 C   0  0  0  0  0  0  0  0  0  0  0  0
  -35.7053   57.3432   62.7676 C   0  0  0  0  0  0  0  0  0  0  0  0
  -36.3357   58.2590   61.7325 C   0  0  0  0  0  0  0  0  0  0  0  0
  -37.7919   57.9386   61.4279 C   0  0  0  0  0  0  0  0  0  0  0  0
  -38.3466   58.6963   60.2315 C   0  0  0  0  0  0  0  0  0  0  0  0
  -39.2390   59.8660   60.6081 C   0  0  0  0  0  0  0  0  0  0  0  0
  -40.7231   59.5772   60.4813 C   0  0  0  0  0  0  0  0  0  0  0  0
  -41.3564   59.0398   61.7532 C   0  0  0  0  0  0  0  0  0  0  0  0
  -42.3314   60.0138   62.3882 C   0  0  0  0  0  0  0  0  0  0  0  0
  -41.6820   61.0692   63.2626 C   0  0  0  0  0  0  0  0  0  0  0  0
  -42.3341   62.4299   63.1152 C   0  0  0  0  0  0  0  0  0  0  0  0
  -43.1769   62.5368   61.8610 C   0  0  0  0  0  0  0  0  0  0  0  0
  -32.3210   63.7252   63.8859 C   0  0  0  0  0  0  0  0  0  0  0  0
  -31.0046   63.8283   63.3316 O   0  0  0  0  0  0  0  0  0  0  0  0
  -30.1891   64.1398   60.6709 O   0  0  0  0  0  0  0  0  0  0  0  0
  -32.9069   67.3994   61.3857 O   0  0  0  0  0  0  0  0  0  0  0  0
  -31.4487   66.0881   63.4907 O   0  0  0  0  0  0  0  0  0  0  0  0
  -30.6895   65.0939   62.8283 C   0  0  0  0  0  0  0  0  0  0  0  0
  -31.0001   65.0992   61.3372 C   0  0  0  0  0  0  0  0  0  0  0  0
  -30.7539   66.4883   60.7619 C   0  0  0  0  0  0  0  0  0  0  0  0
  -31.5012   67.5492   61.5564 C   0  0  0  0  0  0  0  0  0  0  0  0
  -31.1550   67.4193   63.0376 C   0  0  0  0  0  0  0  0  0  0  0  0
  -30.3546   63.2605   61.0456 H   0  0  0  0  0  0  0  0  0  0  0  0
  -33.1290   67.4816   60.4450 H   0  0  0  0  0  0  0  0  0  0  0  0
  -32.5021   69.4335   63.1653 O   0  0  0  0  0  0  0  0  0  0  0  0
  -31.9403   68.3640   63.9169 C   0  0  0  0  0  0  0  0  0  0  0  0
  -32.9983   70.0196   63.7579 H   0  0  0  0  0  0  0  0  0  0  0  0
  -31.2924   66.4264   59.4034 O   0  0  0  0  0  0  0  0  0  0  0  0
  -29.5385   67.8672   58.5939 O   0  0  0  0  0  0  0  0  0  0  0  0
  -31.0687   66.6888   56.9859 O   0  0  0  0  0  0  0  0  0  0  0  0
  -29.4251   65.5184   58.2369 O   0  0  0  0  0  0  0  0  0  0  0  0
  -30.3265   66.7629   58.1879 S   0  0  0  0  0  0  0  0  0  0  0  0
  -30.0775   68.6734   58.5749 H   0  0  0  0  0  0  0  0  0  0  0  0
  -28.8976   65.5330   59.0509 H   0  0  0  0  0  0  0  0  0  0  0  0
  2  1  1  0  0  0
  2  4  1  0  0  0
  2  5  1  0  0  0
 47 48  1  0  0  0
 47  1  1  0  0  0
 48 52  1  0  0  0
  1 30  1  0  0  0
 29 30  1  0  0  0
 29 31  1  0  0  0
 30 32  1  0  0  0
  3  4  2  0  0  0
 32 33  2  0  0  0
 49 53  1  0  0  0
 49 57  1  0  0  0
 33 34  1  0  0  0
 62 54  1  0  0  0
 62 66  1  0  0  0
 34 35  1  0  0  0
 50 55  1  0  0  0
 50 58  1  0  0  0
 35 36  1  0  0  0
 51 52  1  0  0  0
 51 56  1  0  0  0
 36 37  1  0  0  0
 59 60  1  0  0  0
 59 61  1  0  0  0
 37 38  1  0  0  0
 63 66  1  0  0  0
 63 67  1  0  0  0
 38 39  1  0  0  0
 64 66  1  0  0  0
 39 40  1  0  0  0
 65 66  1  0  0  0
 65 68  1  0  0  0
 40 41  1  0  0  0
 41 42  1  0  0  0
 42 43  1  0  0  0
 43 44  1  0  0  0
 44 45  1  0  0  0
 45 46  1  0  0  0
  4  6  1  0  0  0
  6  7  1  0  0  0
  7  8  1  0  0  0
  8  9  1  0  0  0
  9 10  1  0  0  0
 10 11  1  0  0  0
 11 12  1  0  0  0
 12 13  1  0  0  0
 13 14  1  0  0  0
 14 15  1  0  0  0
 15 16  1  0  0  0
 16 17  1  0  0  0
 17 18  1  0  0  0
 18 19  1  0  0  0
 19 20  2  0  0  0
 20 21  1  0  0  0
 21 22  1  0  0  0
 22 23  1  0  0  0
 23 24  1  0  0  0
 24 25  1  0  0  0
 25 26  1  0  0  0
 26 27  1  0  0  0
 27 28  1  0  0  0
 52 53  1  0  0  0
 53 54  1  0  0  0
 54 55  1  0  0  0
 55 56  1  0  0  0
 56 60  1  0  0  0
M  CHG 1  64  -1
M  END
> <minimizedAffinity>
-9.15211

> <CNNscore>
0.4413618743

> <CNNaffinity>
7.0862798691

> <CNN_VS>
3.1276137829

> <CNNaffinity_variance>
1.1030786037

$$$$
/media/chris/experiments/cd1a-new-docking/inputs/ligands/7ryn_ligand.pdb


 68 68  0  0  0  0  0  0  0  0999 V2000
  -31.5373   63.5544   63.5132 C   0  0  0  0  0  0  0  0  0  0  0  0
  -32.3454   62.9898   64.5900 N   0  0  0  0  0  0  0  0  0  0  0  0
  -33.7016   64.7713   64.8240 O   0  0  0  0  0  0  0  0  0  0  0  0
  -33.3628   63.6405   65.1607 C   0  0  0  0  0  0  0  0  0  0  0  0
  -32.1298   62.0846   64.9115 H   0  0  0  0  0  0  0  0  0  0  0  0
  -34.0855   62.8919   66.2528 C   0  0  0  0  0  0  0  0  0  0  0  0
  -34.7396   61.6113   65.7499 C   0  0  0  0  0  0  0  0  0  0  0  0
  -36.0672   61.8650   65.0542 C   0  0  0  0  0  0  0  0  0  0  0  0
  -37.2652   61.2734   65.7782 C   0  0  0  0  0  0  0  0  0  0  0  0
  -37.9959   60.2010   64.9841 C   0  0  0  0  0  0  0  0  0  0  0  0
  -39.0267   59.4247   65.7938 C   0  0  0  0  0  0  0  0  0  0  0  0
  -39.8434   58.4383   64.9690 C   0  0  0  0  0  0  0  0  0  0  0  0
  -41.3389   58.4414   65.2756 C   0  0  0  0  0  0  0  0  0  0  0  0
  -42.1370   57.4009   64.4916 C   0  0  0  0  0  0  0  0  0  0  0  0
  -43.5107   57.0768   65.0785 C   0  0  0  0  0  0  0  0  0  0  0  0
  -44.2306   58.2970   65.6529 C   0  0  0  0  0  0  0  0  0  0  0  0
  -45.6710   58.4826   65.1758 C   0  0  0  0  0  0  0  0  0  0  0  0
  -46.7431   58.0178   66.1650 C   0  0  0  0  0  0  0  0  0  0  0  0
  -47.5849   59.1465   66.6860 C   0  0  0  0  0  0  0  0  0  0  0  0
  -48.7199   59.5765   66.1639 C   0  0  0  0  0  0  0  0  0  0  0  0
  -49.3973   59.0216   64.9478 C   0  0  0  0  0  0  0  0  0  0  0  0
  -50.6252   59.8221   64.5089 C   0  0  0  0  0  0  0  0  0  0  0  0
  -51.2503   59.3070   63.2192 C   0  0  0  0  0  0  0  0  0  0  0  0
  -50.3246   58.3970   62.4197 C   0  0  0  0  0  0  0  0  0  0  0  0
  -49.7488   59.0325   61.1593 C   0  0  0  0  0  0  0  0  0  0  0  0
  -50.0034   58.2248   59.8944 C   0  0  0  0  0  0  0  0  0  0  0  0
  -49.2565   56.9015   59.8402 C   0  0  0  0  0  0  0  0  0  0  0  0
  -47.7959   57.0640   59.4711 C   0  0  0  0  0  0  0  0  0  0  0  0
  -31.3315   62.8933   61.1991 O   0  0  0  0  0  0  0  0  0  0  0  0
  -31.1324   62.4358   62.5397 C   0  0  0  0  0  0  0  0  0  0  0  0
  -30.8222   63.7064   61.0559 H   0  0  0  0  0  0  0  0  0  0  0  0
  -31.9058   61.1791   62.7974 C   0  0  0  0  0  0  0  0  0  0  0  0
  -32.0809   60.2047   61.9267 C   0  0  0  0  0  0  0  0  0  0  0  0
  -32.8458   58.9557   62.2191 C   0  0  0  0  0  0  0  0  0  0  0  0
  -32.7072   58.5573   63.6899 C   0  0  0  0  0  0  0  0  0  0  0  0
  -34.0314   58.3420   64.4046 C   0  0  0  0  0  0  0  0  0  0  0  0
  -35.2542   58.5206   63.5212 C   0  0  0  0  0  0  0  0  0  0  0  0
  -36.1485   57.2916   63.4466 C   0  0  0  0  0  0  0  0  0  0  0  0
  -37.2831   57.4218   62.4421 C   0  0  0  0  0  0  0  0  0  0  0  0
  -36.9201   58.2330   61.2107 C   0  0  0  0  0  0  0  0  0  0  0  0
  -38.1120   58.8512   60.5041 C   0  0  0  0  0  0  0  0  0  0  0  0
  -39.4017   58.7897   61.3043 C   0  0  0  0  0  0  0  0  0  0  0  0
  -40.3348   59.9512   61.0165 C   0  0  0  0  0  0  0  0  0  0  0  0
  -41.6969   59.8378   61.6739 C   0  0  0  0  0  0  0  0  0  0  0  0
  -41.9761   60.9760   62.6356 C   0  0  0  0  0  0  0  0  0  0  0  0
  -42.9106   62.0145   62.0503 C   0  0  0  0  0  0  0  0  0  0  0  0
  -30.3332   64.2711   64.0884 C   0  0  0  0  0  0  0  0  0  0  0  0
  -29.3891   64.4840   63.0329 O   0  0  0  0  0  0  0  0  0  0  0  0
  -29.2207   65.1592   60.3205 O   0  0  0  0  0  0  0  0  0  0  0  0
  -31.8500   68.1041   62.0343 O   0  0  0  0  0  0  0  0  0  0  0  0
  -29.8889   66.6712   63.5765 O   0  0  0  0  0  0  0  0  0  0  0  0
  -29.2566   65.8189   62.6397 C   0  0  0  0  0  0  0  0  0  0  0  0
  -29.9008   65.9727   61.2680 C   0  0  0  0  0  0  0  0  0  0  0  0
  -29.8575   67.4332   60.8365 C   0  0  0  0  0  0  0  0  0  0  0  0
  -30.4511   68.3372   61.9068 C   0  0  0  0  0  0  0  0  0  0  0  0
  -29.7688   68.0638   63.2450 C   0  0  0  0  0  0  0  0  0  0  0  0
  -29.2550   64.2328   60.6061 H   0  0  0  0  0  0  0  0  0  0  0  0
  -32.2854   68.2772   61.1850 H   0  0  0  0  0  0  0  0  0  0  0  0
  -29.5421   69.9242   64.7863 O   0  0  0  0  0  0  0  0  0  0  0  0
  -30.3745   68.8401   64.3908 C   0  0  0  0  0  0  0  0  0  0  0  0
  -29.9589   70.4004   65.5215 H   0  0  0  0  0  0  0  0  0  0  0  0
  -30.6897   67.4882   59.6349 O   0  0  0  0  0  0  0  0  0  0  0  0
  -28.9002   68.7129   58.5837 O   0  0  0  0  0  0  0  0  0  0  0  0
  -31.0252   68.2288   57.3322 O   0  0  0  0  0  0  0  0  0  0  0  0
  -29.4552   66.5223   57.8418 O   0  0  0  0  0  0  0  0  0  0  0  0
  -30.0092   67.8947   58.2582 S   0  0  0  0  0  0  0  0  0  0  0  0
  -29.2139   69.5907   58.8521 H   0  0  0  0  0  0  0  0  0  0  0  0
  -28.7526   66.2574   58.4559 H   0  0  0  0  0  0  0  0  0  0  0  0
  2  1  1  0  0  0
  2  4  1  0  0  0
  2  5  1  0  0  0
 47 48  1  0  0  0
 47  1  1  0  0  0
 48 52  1  0  0  0
  1 30  1  0  0  0
 29 30  1  0  0  0
 29 31  1  0  0  0
 30 32  1  0  0  0
  3  4  2  0  0  0
 32 33  2  0  0  0
 49 53  1  0  0  0
 49 57  1  0  0  0
 33 34  1  0  0  0
 62 54  1  0  0  0
 62 66  1  0  0  0
 34 35  1  0  0  0
 50 55  1  0  0  0
 50 58  1  0  0  0
 35 36  1  0  0  0
 51 52  1  0  0  0
 51 56  1  0  0  0
 36 37  1  0  0  0
 59 60  1  0  0  0
 59 61  1  0  0  0
 37 38  1  0  0  0
 63 66  1  0  0  0
 63 67  1  0  0  0
 38 39  1  0  0  0
 64 66  1  0  0  0
 39 40  1  0  0  0
 65 66  1  0  0  0
 65 68  1  0  0  0
 40 41  1  0  0  0
 41 42  1  0  0  0
 42 43  1  0  0  0
 43 44  1  0  0  0
 44 45  1  0  0  0
 45 46  1  0  0  0
  4  6  1  0  0  0
  6  7  1  0  0  0
  7  8  1  0  0  0
  8  9  1  0  0  0
  9 10  1  0  0  0
 10 11  1  0  0  0
 11 12  1  0  0  0
 12 13  1  0  0  0
 13 14  1  0  0  0
 14 15  1  0  0  0
 15 16  1  0  0  0
 16 17  1  0  0  0
 17 18  1  0  0  0
 18 19  1  0  0  0
 19 20  2  0  0  0
 20 21  1  0  0  0
 21 22  1  0  0  0
 22 23  1  0  0  0
 23 24  1  0  0  0
 24 25  1  0  0  0
 25 26  1  0  0  0
 26 27  1  0  0  0
 27 28  1  0  0  0
 52 53  1  0  0  0
 53 54  1  0  0  0
 54 55  1  0  0  0
 55 56  1  0  0  0
 56 60  1  0  0  0
M  CHG 1  64  -1
M  END
> <minimizedAffinity>
-8.74170

> <CNNscore>
0.4166636467

> <CNNaffinity>
6.9805397987

> <CNN_VS>
2.9085371494

> <CNNaffinity_variance>
1.0246478319

$$$$
/media/chris/experiments/cd1a-new-docking/inputs/ligands/7ryn_ligand.pdb


 68 68  0  0  0  0  0  0  0  0999 V2000
  -40.3100   59.0671   65.4151 C   0  0  0  0  0  0  0  0  0  0  0  0
  -40.2695   58.3389   64.1505 N   0  0  0  0  0  0  0  0  0  0  0  0
  -41.3975   56.5337   64.8832 O   0  0  0  0  0  0  0  0  0  0  0  0
  -40.8152   57.1313   63.9828 C   0  0  0  0  0  0  0  0  0  0  0  0
  -39.8176   58.7587   63.3832 H   0  0  0  0  0  0  0  0  0  0  0  0
  -40.6789   56.5398   62.6019 C   0  0  0  0  0  0  0  0  0  0  0  0
  -41.8502   56.8954   61.6951 C   0  0  0  0  0  0  0  0  0  0  0  0
  -41.7043   58.2689   61.0599 C   0  0  0  0  0  0  0  0  0  0  0  0
  -40.5302   58.3833   60.1021 C   0  0  0  0  0  0  0  0  0  0  0  0
  -39.3594   59.1812   60.6564 C   0  0  0  0  0  0  0  0  0  0  0  0
  -38.0208   58.8474   60.0104 C   0  0  0  0  0  0  0  0  0  0  0  0
  -36.9951   58.2719   60.9784 C   0  0  0  0  0  0  0  0  0  0  0  0
  -37.5831   57.3783   62.0675 C   0  0  0  0  0  0  0  0  0  0  0  0
  -36.9026   57.5251   63.4275 C   0  0  0  0  0  0  0  0  0  0  0  0
  -35.3748   57.5106   63.3803 C   0  0  0  0  0  0  0  0  0  0  0  0
  -34.7280   58.5714   64.2710 C   0  0  0  0  0  0  0  0  0  0  0  0
  -33.2020   58.5144   64.3416 C   0  0  0  0  0  0  0  0  0  0  0  0
  -32.5049   58.2276   63.0091 C   0  0  0  0  0  0  0  0  0  0  0  0
  -32.6228   59.3621   62.0330 C   0  0  0  0  0  0  0  0  0  0  0  0
  -31.7116   60.2917   61.8059 C   0  0  0  0  0  0  0  0  0  0  0  0
  -30.3752   60.3985   62.4755 C   0  0  0  0  0  0  0  0  0  0  0  0
  -29.3954   61.3219   61.7482 C   0  0  0  0  0  0  0  0  0  0  0  0
  -29.8043   62.7883   61.7924 C   0  0  0  0  0  0  0  0  0  0  0  0
  -29.3997   63.4904   63.0838 C   0  0  0  0  0  0  0  0  0  0  0  0
  -29.3644   65.0116   62.9910 C   0  0  0  0  0  0  0  0  0  0  0  0
  -30.5212   65.6043   62.1988 C   0  0  0  0  0  0  0  0  0  0  0  0
  -30.0935   66.4243   60.9920 C   0  0  0  0  0  0  0  0  0  0  0  0
  -30.9386   66.1511   59.7644 C   0  0  0  0  0  0  0  0  0  0  0  0
  -40.9780   61.2316   66.2537 O   0  0  0  0  0  0  0  0  0  0  0  0
  -41.3270   60.2149   65.3098 C   0  0  0  0  0  0  0  0  0  0  0  0
  -40.0699   61.5295   66.0871 H   0  0  0  0  0  0  0  0  0  0  0  0
  -42.7258   59.7299   65.5375 C   0  0  0  0  0  0  0  0  0  0  0  0
  -43.0952   58.9040   66.4964 C   0  0  0  0  0  0  0  0  0  0  0  0
  -44.5024   58.4501   66.7066 C   0  0  0  0  0  0  0  0  0  0  0  0
  -45.1314   57.9813   65.3930 C   0  0  0  0  0  0  0  0  0  0  0  0
  -46.4229   58.6964   65.0305 C   0  0  0  0  0  0  0  0  0  0  0  0
  -47.6433   58.2050   65.7897 C   0  0  0  0  0  0  0  0  0  0  0  0
  -48.7868   59.2080   65.8388 C   0  0  0  0  0  0  0  0  0  0  0  0
  -50.0854   58.6832   65.2461 C   0  0  0  0  0  0  0  0  0  0  0  0
  -50.9623   59.7645   64.6394 C   0  0  0  0  0  0  0  0  0  0  0  0
  -51.3504   59.5077   63.1953 C   0  0  0  0  0  0  0  0  0  0  0  0
  -50.5350   58.4162   62.5235 C   0  0  0  0  0  0  0  0  0  0  0  0
  -49.7381   58.9177   61.3336 C   0  0  0  0  0  0  0  0  0  0  0  0
  -49.8946   58.0816   60.0779 C   0  0  0  0  0  0  0  0  0  0  0  0
  -48.6410   58.0704   59.2254 C   0  0  0  0  0  0  0  0  0  0  0  0
  -47.8529   56.7849   59.3689 C   0  0  0  0  0  0  0  0  0  0  0  0
  -38.9249   59.5653   65.7723 C   0  0  0  0  0  0  0  0  0  0  0  0
  -38.6118   60.6738   64.9215 O   0  0  0  0  0  0  0  0  0  0  0  0
  -36.8640   60.8956   62.7449 O   0  0  0  0  0  0  0  0  0  0  0  0
  -36.3580   64.5569   64.9499 O   0  0  0  0  0  0  0  0  0  0  0  0
  -37.3053   62.1226   66.1557 O   0  0  0  0  0  0  0  0  0  0  0  0
  -37.3226   61.1860   65.0945 C   0  0  0  0  0  0  0  0  0  0  0  0
  -36.9028   61.8562   63.7927 C   0  0  0  0  0  0  0  0  0  0  0  0
  -35.5356   62.5066   63.9626 C   0  0  0  0  0  0  0  0  0  0  0  0
  -35.5161   63.4301   65.1717 C   0  0  0  0  0  0  0  0  0  0  0  0
  -36.0012   62.6712   66.4044 C   0  0  0  0  0  0  0  0  0  0  0  0
  -37.7392   60.4890   62.6466 H   0  0  0  0  0  0  0  0  0  0  0  0
  -36.0514   65.0404   64.1669 H   0  0  0  0  0  0  0  0  0  0  0  0
  -36.5401   62.7969   68.7670 O   0  0  0  0  0  0  0  0  0  0  0  0
  -36.1206   63.5445   67.6314 C   0  0  0  0  0  0  0  0  0  0  0  0
  -36.6065   63.3856   69.5352 H   0  0  0  0  0  0  0  0  0  0  0  0
  -35.3469   63.2936   62.7443 O   0  0  0  0  0  0  0  0  0  0  0  0
  -33.8152   63.9640   61.0088 O   0  0  0  0  0  0  0  0  0  0  0  0
  -32.9579   63.1799   63.2372 O   0  0  0  0  0  0  0  0  0  0  0  0
  -34.0458   65.2744   62.9804 O   0  0  0  0  0  0  0  0  0  0  0  0
  -33.8956   63.8513   62.4181 S   0  0  0  0  0  0  0  0  0  0  0  0
  -33.7194   63.0811   60.6188 H   0  0  0  0  0  0  0  0  0  0  0  0
  -34.6839   65.7689   62.4427 H   0  0  0  0  0  0  0  0  0  0  0  0
  2  1  1  0  0  0
  2  4  1  0  0  0
  2  5  1  0  0  0
 47 48  1  0  0  0
 47  1  1  0  0  0
 48 52  1  0  0  0
  1 30  1  0  0  0
 29 30  1  0  0  0
 29 31  1  0  0  0
 30 32  1  0  0  0
  3  4  2  0  0  0
 32 33  2  0  0  0
 49 53  1  0  0  0
 49 57  1  0  0  0
 33 34  1  0  0  0
 62 54  1  0  0  0
 62 66  1  0  0  0
 34 35  1  0  0  0
 50 55  1  0  0  0
 50 58  1  0  0  0
 35 36  1  0  0  0
 51 52  1  0  0  0
 51 56  1  0  0  0
 36 37  1  0  0  0
 59 60  1  0  0  0
 59 61  1  0  0  0
 37 38  1  0  0  0
 63 66  1  0  0  0
 63 67  1  0  0  0
 38 39  1  0  0  0
 64 66  1  0  0  0
 39 40  1  0  0  0
 65 66  1  0  0  0
 65 68  1  0  0  0
 40 41  1  0  0  0
 41 42  1  0  0  0
 42 43  1  0  0  0
 43 44  1  0  0  0
 44 45  1  0  0  0
 45 46  1  0  0  0
  4  6  1  0  0  0
  6  7  1  0  0  0
  7  8  1  0  0  0
  8  9  1  0  0  0
  9 10  1  0  0  0
 10 11  1  0  0  0
 11 12  1  0  0  0
 12 13  1  0  0  0
 13 14  1  0  0  0
 14 15  1  0  0  0
 15 16  1  0  0  0
 16 17  1  0  0  0
 17 18  1  0  0  0
 18 19  1  0  0  0
 19 20  2  0  0  0
 20 21  1  0  0  0
 21 22  1  0  0  0
 22 23  1  0  0  0
 23 24  1  0  0  0
 24 25  1  0  0  0
 25 26  1  0  0  0
 26 27  1  0  0  0
 27 28  1  0  0  0
 52 53  1  0  0  0
 53 54  1  0  0  0
 54 55  1  0  0  0
 55 56  1  0  0  0
 56 60  1  0  0  0
M  CHG 1  64  -1
M  END
> <minimizedAffinity>
-9.72583

> <CNNscore>
0.3543162644

> <CNNaffinity>
7.3680238724

> <CNN_VS>
2.6106107235

> <CNNaffinity_variance>
1.9770663977

$$$$
/media/chris/experiments/cd1a-new-docking/inputs/ligands/7ryn_ligand.pdb


 68 68  0  0  0  0  0  0  0  0999 V2000
  -33.5185   61.3952   63.2768 C   0  0  0  0  0  0  0  0  0  0  0  0
  -34.4218   61.7496   64.3676 N   0  0  0  0  0  0  0  0  0  0  0  0
  -36.1240   62.4178   63.0547 O   0  0  0  0  0  0  0  0  0  0  0  0
  -35.6518   62.2323   64.1726 C   0  0  0  0  0  0  0  0  0  0  0  0
  -34.1087   61.6267   65.2929 H   0  0  0  0  0  0  0  0  0  0  0  0
  -36.4403   62.5334   65.4228 C   0  0  0  0  0  0  0  0  0  0  0  0
  -37.0006   61.2773   66.0776 C   0  0  0  0  0  0  0  0  0  0  0  0
  -37.9116   60.4890   65.1504 C   0  0  0  0  0  0  0  0  0  0  0  0
  -38.4356   59.1965   65.7537 C   0  0  0  0  0  0  0  0  0  0  0  0
  -39.8875   58.9006   65.4085 C   0  0  0  0  0  0  0  0  0  0  0  0
  -40.8498   60.0289   65.7572 C   0  0  0  0  0  0  0  0  0  0  0  0
  -42.2996   59.5825   65.8954 C   0  0  0  0  0  0  0  0  0  0  0  0
  -42.4874   58.2570   66.6290 C   0  0  0  0  0  0  0  0  0  0  0  0
  -43.8770   57.6444   66.4612 C   0  0  0  0  0  0  0  0  0  0  0  0
  -44.7035   58.2422   65.3228 C   0  0  0  0  0  0  0  0  0  0  0  0
  -46.2039   57.9817   65.4577 C   0  0  0  0  0  0  0  0  0  0  0  0
  -46.9373   58.9094   66.4262 C   0  0  0  0  0  0  0  0  0  0  0  0
  -48.1901   59.5786   65.8547 C   0  0  0  0  0  0  0  0  0  0  0  0
  -48.0767   59.8717   64.3866 C   0  0  0  0  0  0  0  0  0  0  0  0
  -48.9139   59.4718   63.4459 C   0  0  0  0  0  0  0  0  0  0  0  0
  -50.1474   58.6471   63.6558 C   0  0  0  0  0  0  0  0  0  0  0  0
  -51.0428   58.5544   62.4184 C   0  0  0  0  0  0  0  0  0  0  0  0
  -50.2624   58.3775   61.1225 C   0  0  0  0  0  0  0  0  0  0  0  0
  -49.6727   56.9814   60.9573 C   0  0  0  0  0  0  0  0  0  0  0  0
  -48.9115   56.7678   59.6539 C   0  0  0  0  0  0  0  0  0  0  0  0
  -48.5089   58.0615   58.9602 C   0  0  0  0  0  0  0  0  0  0  0  0
  -47.4217   57.8926   57.9108 C   0  0  0  0  0  0  0  0  0  0  0  0
  -47.4958   56.5593   57.1948 C   0  0  0  0  0  0  0  0  0  0  0  0
  -31.8597   59.7703   62.6116 O   0  0  0  0  0  0  0  0  0  0  0  0
  -32.9218   60.0035   63.5411 C   0  0  0  0  0  0  0  0  0  0  0  0
  -31.1979   60.4748   62.6935 H   0  0  0  0  0  0  0  0  0  0  0  0
  -33.9647   58.9327   63.4426 C   0  0  0  0  0  0  0  0  0  0  0  0
  -34.5976   58.3945   64.4663 C   0  0  0  0  0  0  0  0  0  0  0  0
  -35.6447   57.3378   64.3343 C   0  0  0  0  0  0  0  0  0  0  0  0
  -36.1608   57.2513   62.8965 C   0  0  0  0  0  0  0  0  0  0  0  0
  -37.6754   57.2945   62.7746 C   0  0  0  0  0  0  0  0  0  0  0  0
  -38.2092   58.5200   62.0528 C   0  0  0  0  0  0  0  0  0  0  0  0
  -38.0130   58.4840   60.5441 C   0  0  0  0  0  0  0  0  0  0  0  0
  -39.0982   59.2156   59.7694 C   0  0  0  0  0  0  0  0  0  0  0  0
  -40.0023   60.0695   60.6409 C   0  0  0  0  0  0  0  0  0  0  0  0
  -41.4396   59.5872   60.6998 C   0  0  0  0  0  0  0  0  0  0  0  0
  -41.9877   59.4567   62.1104 C   0  0  0  0  0  0  0  0  0  0  0  0
  -42.3215   58.0253   62.4875 C   0  0  0  0  0  0  0  0  0  0  0  0
  -41.4901   56.9788   61.7706 C   0  0  0  0  0  0  0  0  0  0  0  0
  -41.3374   55.7037   62.5764 C   0  0  0  0  0  0  0  0  0  0  0  0
  -41.5701   55.9215   64.0572 C   0  0  0  0  0  0  0  0  0  0  0  0
  -32.4463   62.4543   63.1253 C   0  0  0  0  0  0  0  0  0  0  0  0
  -32.4261   63.2485   64.3168 O   0  0  0  0  0  0  0  0  0  0  0  0
  -30.5825   65.2676   64.9213 O   0  0  0  0  0  0  0  0  0  0  0  0
  -32.3322   66.4510   61.1715 O   0  0  0  0  0  0  0  0  0  0  0  0
  -33.6665   64.7215   63.0439 O   0  0  0  0  0  0  0  0  0  0  0  0
  -32.7539   64.5928   64.1182 C   0  0  0  0  0  0  0  0  0  0  0  0
  -31.4689   65.3513   63.8125 C   0  0  0  0  0  0  0  0  0  0  0  0
  -31.7890   66.8082   63.5022 C   0  0  0  0  0  0  0  0  0  0  0  0
  -32.8479   66.9155   62.4148 C   0  0  0  0  0  0  0  0  0  0  0  0
  -34.0659   66.0799   62.8010 C   0  0  0  0  0  0  0  0  0  0  0  0
  -30.3866   64.3364   65.1089 H   0  0  0  0  0  0  0  0  0  0  0  0
  -31.5581   66.9807   60.9243 H   0  0  0  0  0  0  0  0  0  0  0  0
  -35.9763   67.1768   61.7835 O   0  0  0  0  0  0  0  0  0  0  0  0
  -35.1245   66.0387   61.7239 C   0  0  0  0  0  0  0  0  0  0  0  0
  -36.6425   67.1194   61.0807 H   0  0  0  0  0  0  0  0  0  0  0  0
  -30.5290   67.3672   63.0131 O   0  0  0  0  0  0  0  0  0  0  0  0
  -30.8682   69.3806   61.7330 O   0  0  0  0  0  0  0  0  0  0  0  0
  -29.0882   69.2768   63.5041 O   0  0  0  0  0  0  0  0  0  0  0  0
  -31.3979   69.3267   64.0512 O   0  0  0  0  0  0  0  0  0  0  0  0
  -30.3607   68.9466   62.9818 S   0  0  0  0  0  0  0  0  0  0  0  0
  -30.2368   69.1562   61.0318 H   0  0  0  0  0  0  0  0  0  0  0  0
  -32.2877   69.1144   63.7286 H   0  0  0  0  0  0  0  0  0  0  0  0
  2  1  1  0  0  0
  2  4  1  0  0  0
  2  5  1  0  0  0
 47 48  1  0  0  0
 47  1  1  0  0  0
 48 52  1  0  0  0
  1 30  1  0  0  0
 29 30  1  0  0  0
 29 31  1  0  0  0
 30 32  1  0  0  0
  3  4  2  0  0  0
 32 33  2  0  0  0
 49 53  1  0  0  0
 49 57  1  0  0  0
 33 34  1  0  0  0
 62 54  1  0  0  0
 62 66  1  0  0  0
 34 35  1  0  0  0
 50 55  1  0  0  0
 50 58  1  0  0  0
 35 36  1  0  0  0
 51 52  1  0  0  0
 51 56  1  0  0  0
 36 37  1  0  0  0
 59 60  1  0  0  0
 59 61  1  0  0  0
 37 38  1  0  0  0
 63 66  1  0  0  0
 63 67  1  0  0  0
 38 39  1  0  0  0
 64 66  1  0  0  0
 39 40  1  0  0  0
 65 66  1  0  0  0
 65 68  1  0  0  0
 40 41  1  0  0  0
 41 42  1  0  0  0
 42 43  1  0  0  0
 43 44  1  0  0  0
 44 45  1  0  0  0
 45 46  1  0  0  0
  4  6  1  0  0  0
  6  7  1  0  0  0
  7  8  1  0  0  0
  8  9  1  0  0  0
  9 10  1  0  0  0
 10 11  1  0  0  0
 11 12  1  0  0  0
 12 13  1  0  0  0
 13 14  1  0  0  0
 14 15  1  0  0  0
 15 16  1  0  0  0
 16 17  1  0  0  0
 17 18  1  0  0  0
 18 19  1  0  0  0
 19 20  2  0  0  0
 20 21  1  0  0  0
 21 22  1  0  0  0
 22 23  1  0  0  0
 23 24  1  0  0  0
 24 25  1  0  0  0
 25 26  1  0  0  0
 26 27  1  0  0  0
 27 28  1  0  0  0
 52 53  1  0  0  0
 53 54  1  0  0  0
 54 55  1  0  0  0
 55 56  1  0  0  0
 56 60  1  0  0  0
M  CHG 1  64  -1
M  END
> <minimizedAffinity>
-8.89823

> <CNNscore>
0.3217544556

> <CNNaffinity>
7.3585495949

> <CNN_VS>
2.3676462173

> <CNNaffinity_variance>
1.3399064541

$$$$
/media/chris/experiments/cd1a-new-docking/inputs/ligands/7ryn_ligand.pdb


 68 68  0  0  0  0  0  0  0  0999 V2000
  -34.6596   61.9655   64.8841 C   0  0  0  0  0  0  0  0  0  0  0  0
  -35.7656   61.2636   65.5285 N   0  0  0  0  0  0  0  0  0  0  0  0
  -37.3512   61.9496   64.0853 O   0  0  0  0  0  0  0  0  0  0  0  0
  -37.0230   61.3098   65.0802 C   0  0  0  0  0  0  0  0  0  0  0  0
  -35.5752   60.7296   66.3335 H   0  0  0  0  0  0  0  0  0  0  0  0
  -38.0283   60.5134   65.8742 C   0  0  0  0  0  0  0  0  0  0  0  0
  -39.0863   59.8622   64.9925 C   0  0  0  0  0  0  0  0  0  0  0  0
  -40.1671   59.1576   65.7964 C   0  0  0  0  0  0  0  0  0  0  0  0
  -41.3176   60.0615   66.2070 C   0  0  0  0  0  0  0  0  0  0  0  0
  -42.3523   59.3783   67.0886 C   0  0  0  0  0  0  0  0  0  0  0  0
  -42.5165   57.8894   66.8115 C   0  0  0  0  0  0  0  0  0  0  0  0
  -43.5570   57.5713   65.7455 C   0  0  0  0  0  0  0  0  0  0  0  0
  -44.8363   58.3986   65.8418 C   0  0  0  0  0  0  0  0  0  0  0  0
  -45.6422   58.4516   64.5448 C   0  0  0  0  0  0  0  0  0  0  0  0
  -47.0139   59.1136   64.6736 C   0  0  0  0  0  0  0  0  0  0  0  0
  -48.1039   58.1641   65.1712 C   0  0  0  0  0  0  0  0  0  0  0  0
  -49.0853   58.7733   66.1723 C   0  0  0  0  0  0  0  0  0  0  0  0
  -50.5633   58.6104   65.8075 C   0  0  0  0  0  0  0  0  0  0  0  0
  -51.1870   59.8850   65.3172 C   0  0  0  0  0  0  0  0  0  0  0  0
  -51.5146   60.1609   64.0673 C   0  0  0  0  0  0  0  0  0  0  0  0
  -51.3319   59.2551   62.8874 C   0  0  0  0  0  0  0  0  0  0  0  0
  -50.0234   59.4894   62.1294 C   0  0  0  0  0  0  0  0  0  0  0  0
  -49.2840   58.2013   61.7923 C   0  0  0  0  0  0  0  0  0  0  0  0
  -50.0335   57.3145   60.8042 C   0  0  0  0  0  0  0  0  0  0  0  0
  -49.1495   56.3399   60.0344 C   0  0  0  0  0  0  0  0  0  0  0  0
  -47.8725   56.9672   59.4930 C   0  0  0  0  0  0  0  0  0  0  0  0
  -48.1023   58.0164   58.4169 C   0  0  0  0  0  0  0  0  0  0  0  0
  -47.2102   57.8250   57.2072 C   0  0  0  0  0  0  0  0  0  0  0  0
  -33.5893   61.4698   62.7761 O   0  0  0  0  0  0  0  0  0  0  0  0
  -33.8082   60.9586   64.0941 C   0  0  0  0  0  0  0  0  0  0  0  0
  -33.1675   62.3415   62.8334 H   0  0  0  0  0  0  0  0  0  0  0  0
  -34.4597   59.6106   64.0446 C   0  0  0  0  0  0  0  0  0  0  0  0
  -34.5406   58.8467   62.9731 C   0  0  0  0  0  0  0  0  0  0  0  0
  -35.1843   57.4991   62.9594 C   0  0  0  0  0  0  0  0  0  0  0  0
  -36.5658   57.5426   63.6156 C   0  0  0  0  0  0  0  0  0  0  0  0
  -37.7208   57.3262   62.6513 C   0  0  0  0  0  0  0  0  0  0  0  0
  -37.6017   58.1012   61.3502 C   0  0  0  0  0  0  0  0  0  0  0  0
  -38.2905   59.4580   61.3729 C   0  0  0  0  0  0  0  0  0  0  0  0
  -39.1887   59.7073   60.1712 C   0  0  0  0  0  0  0  0  0  0  0  0
  -39.9252   58.4694   59.6904 C   0  0  0  0  0  0  0  0  0  0  0  0
  -41.3725   58.3974   60.1402 C   0  0  0  0  0  0  0  0  0  0  0  0
  -41.5884   57.5576   61.3874 C   0  0  0  0  0  0  0  0  0  0  0  0
  -41.6045   58.3810   62.6619 C   0  0  0  0  0  0  0  0  0  0  0  0
  -42.6285   59.4997   62.6717 C   0  0  0  0  0  0  0  0  0  0  0  0
  -41.9894   60.8745   62.6717 C   0  0  0  0  0  0  0  0  0  0  0  0
  -42.8496   61.9145   61.9841 C   0  0  0  0  0  0  0  0  0  0  0  0
  -33.8435   62.7111   65.9198 C   0  0  0  0  0  0  0  0  0  0  0  0
  -32.6106   63.1169   65.3149 O   0  0  0  0  0  0  0  0  0  0  0  0
  -30.3894   64.8182   65.2003 O   0  0  0  0  0  0  0  0  0  0  0  0
  -32.0230   64.8590   61.2188 O   0  0  0  0  0  0  0  0  0  0  0  0
  -33.5919   64.2309   63.5472 O   0  0  0  0  0  0  0  0  0  0  0  0
  -32.6800   64.3308   64.6252 C   0  0  0  0  0  0  0  0  0  0  0  0
  -31.2856   64.6596   64.1077 C   0  0  0  0  0  0  0  0  0  0  0  0
  -31.3301   65.9334   63.2731 C   0  0  0  0  0  0  0  0  0  0  0  0
  -32.3901   65.8376   62.1857 C   0  0  0  0  0  0  0  0  0  0  0  0
  -33.7305   65.4552   62.8086 C   0  0  0  0  0  0  0  0  0  0  0  0
  -30.3699   64.0016   65.7235 H   0  0  0  0  0  0  0  0  0  0  0  0
  -31.1714   65.1001   60.8218 H   0  0  0  0  0  0  0  0  0  0  0  0
  -34.6121   64.0208   61.0611 O   0  0  0  0  0  0  0  0  0  0  0  0
  -34.8185   65.2281   61.7853 C   0  0  0  0  0  0  0  0  0  0  0  0
  -35.3259   63.9055   60.4145 H   0  0  0  0  0  0  0  0  0  0  0  0
  -30.0060   66.0183   62.6577 O   0  0  0  0  0  0  0  0  0  0  0  0
  -27.9427   67.1593   62.1594 O   0  0  0  0  0  0  0  0  0  0  0  0
  -29.2397   67.7136   64.2395 O   0  0  0  0  0  0  0  0  0  0  0  0
  -30.0123   68.3289   62.0806 O   0  0  0  0  0  0  0  0  0  0  0  0
  -29.1494   67.3378   62.8786 S   0  0  0  0  0  0  0  0  0  0  0  0
  -27.3713   66.5371   62.6361 H   0  0  0  0  0  0  0  0  0  0  0  0
  -29.9758   68.1032   61.1379 H   0  0  0  0  0  0  0  0  0  0  0  0
  2  1  1  0  0  0
  2  4  1  0  0  0
  2  5  1  0  0  0
 47 48  1  0  0  0
 47  1  1  0  0  0
 48 52  1  0  0  0
  1 30  1  0  0  0
 29 30  1  0  0  0
 29 31  1  0  0  0
 30 32  1  0  0  0
  3  4  2  0  0  0
 32 33  2  0  0  0
 49 53  1  0  0  0
 49 57  1  0  0  0
 33 34  1  0  0  0
 62 54  1  0  0  0
 62 66  1  0  0  0
 34 35  1  0  0  0
 50 55  1  0  0  0
 50 58  1  0  0  0
 35 36  1  0  0  0
 51 52  1  0  0  0
 51 56  1  0  0  0
 36 37  1  0  0  0
 59 60  1  0  0  0
 59 61  1  0  0  0
 37 38  1  0  0  0
 63 66  1  0  0  0
 63 67  1  0  0  0
 38 39  1  0  0  0
 64 66  1  0  0  0
 39 40  1  0  0  0
 65 66  1  0  0  0
 65 68  1  0  0  0
 40 41  1  0  0  0
 41 42  1  0  0  0
 42 43  1  0  0  0
 43 44  1  0  0  0
 44 45  1  0  0  0
 45 46  1  0  0  0
  4  6  1  0  0  0
  6  7  1  0  0  0
  7  8  1  0  0  0
  8  9  1  0  0  0
  9 10  1  0  0  0
 10 11  1  0  0  0
 11 12  1  0  0  0
 12 13  1  0  0  0
 13 14  1  0  0  0
 14 15  1  0  0  0
 15 16  1  0  0  0
 16 17  1  0  0  0
 17 18  1  0  0  0
 18 19  1  0  0  0
 19 20  2  0  0  0
 20 21  1  0  0  0
 21 22  1  0  0  0
 22 23  1  0  0  0
 23 24  1  0  0  0
 24 25  1  0  0  0
 25 26  1  0  0  0
 26 27  1  0  0  0
 27 28  1  0  0  0
 52 53  1  0  0  0
 53 54  1  0  0  0
 54 55  1  0  0  0
 55 56  1  0  0  0
 56 60  1  0  0  0
M  CHG 1  64  -1
M  END
> <minimizedAffinity>
-9.59795

> <CNNscore>
0.2277695090

> <CNNaffinity>
7.0517487526

> <CNN_VS>
1.6061733961

> <CNNaffinity_variance>
1.7566341162

$$$$
/media/chris/experiments/cd1a-new-docking/inputs/ligands/7ryn_ligand.pdb


 68 68  0  0  0  0  0  0  0  0999 V2000
  -33.4427   61.6671   63.3468 C   0  0  0  0  0  0  0  0  0  0  0  0
  -34.3664   61.9632   64.4378 N   0  0  0  0  0  0  0  0  0  0  0  0
  -36.0884   62.5809   63.1258 O   0  0  0  0  0  0  0  0  0  0  0  0
  -35.6150   62.3962   64.2432 C   0  0  0  0  0  0  0  0  0  0  0  0
  -34.0536   61.8375   65.3628 H   0  0  0  0  0  0  0  0  0  0  0  0
  -36.4227   62.6411   65.4934 C   0  0  0  0  0  0  0  0  0  0  0  0
  -36.9152   61.3496   66.1339 C   0  0  0  0  0  0  0  0  0  0  0  0
  -37.9791   60.6511   65.3025 C   0  0  0  0  0  0  0  0  0  0  0  0
  -39.0087   59.8967   66.1271 C   0  0  0  0  0  0  0  0  0  0  0  0
  -40.3559   59.7421   65.4373 C   0  0  0  0  0  0  0  0  0  0  0  0
  -41.5083   60.4175   66.1697 C   0  0  0  0  0  0  0  0  0  0  0  0
  -42.5328   59.4443   66.7385 C   0  0  0  0  0  0  0  0  0  0  0  0
  -42.2096   57.9718   66.4983 C   0  0  0  0  0  0  0  0  0  0  0  0
  -43.1305   57.2894   65.4881 C   0  0  0  0  0  0  0  0  0  0  0  0
  -44.3115   58.1423   65.0251 C   0  0  0  0  0  0  0  0  0  0  0  0
  -45.6509   57.6985   65.6135 C   0  0  0  0  0  0  0  0  0  0  0  0
  -46.3471   58.7366   66.4934 C   0  0  0  0  0  0  0  0  0  0  0  0
  -47.8259   58.9676   66.1715 C   0  0  0  0  0  0  0  0  0  0  0  0
  -48.0327   59.9296   65.0376 C   0  0  0  0  0  0  0  0  0  0  0  0
  -49.1435   60.0816   64.3384 C   0  0  0  0  0  0  0  0  0  0  0  0
  -50.4219   59.3257   64.5387 C   0  0  0  0  0  0  0  0  0  0  0  0
  -51.3235   59.3043   63.3025 C   0  0  0  0  0  0  0  0  0  0  0  0
  -50.5584   59.4722   61.9964 C   0  0  0  0  0  0  0  0  0  0  0  0
  -50.2867   58.1538   61.2807 C   0  0  0  0  0  0  0  0  0  0  0  0
  -48.9665   58.1090   60.5197 C   0  0  0  0  0  0  0  0  0  0  0  0
  -49.1173   57.7321   59.0527 C   0  0  0  0  0  0  0  0  0  0  0  0
  -47.8083   57.7037   58.2798 C   0  0  0  0  0  0  0  0  0  0  0  0
  -47.8148   56.6980   57.1464 C   0  0  0  0  0  0  0  0  0  0  0  0
  -32.0767   59.9222   62.3856 O   0  0  0  0  0  0  0  0  0  0  0  0
  -33.0566   60.1801   63.3953 C   0  0  0  0  0  0  0  0  0  0  0  0
  -31.3125   60.5042   62.5205 H   0  0  0  0  0  0  0  0  0  0  0  0
  -34.2539   59.2974   63.2180 C   0  0  0  0  0  0  0  0  0  0  0  0
  -34.8558   58.6332   64.1848 C   0  0  0  0  0  0  0  0  0  0  0  0
  -36.0583   57.7719   63.9782 C   0  0  0  0  0  0  0  0  0  0  0  0
  -36.6292   57.9526   62.5701 C   0  0  0  0  0  0  0  0  0  0  0  0
  -38.1283   58.2014   62.5328 C   0  0  0  0  0  0  0  0  0  0  0  0
  -38.9631   56.9534   62.3021 C   0  0  0  0  0  0  0  0  0  0  0  0
  -40.2517   56.9127   63.1107 C   0  0  0  0  0  0  0  0  0  0  0  0
  -41.4467   56.3887   62.3295 C   0  0  0  0  0  0  0  0  0  0  0  0
  -41.3817   56.6832   60.8411 C   0  0  0  0  0  0  0  0  0  0  0  0
  -42.0679   57.9743   60.4358 C   0  0  0  0  0  0  0  0  0  0  0  0
  -41.1127   59.1324   60.2036 C   0  0  0  0  0  0  0  0  0  0  0  0
  -41.4358   60.3477   61.0528 C   0  0  0  0  0  0  0  0  0  0  0  0
  -42.2006   60.0371   62.3252 C   0  0  0  0  0  0  0  0  0  0  0  0
  -42.9554   61.2385   62.8593 C   0  0  0  0  0  0  0  0  0  0  0  0
  -42.9889   62.3881   61.8735 C   0  0  0  0  0  0  0  0  0  0  0  0
  -32.2311   62.5723   63.4318 C   0  0  0  0  0  0  0  0  0  0  0  0
  -32.6419   63.8229   63.9959 O   0  0  0  0  0  0  0  0  0  0  0  0
  -32.0597   66.2377   65.2884 O   0  0  0  0  0  0  0  0  0  0  0  0
  -28.9708   65.7946   62.3244 O   0  0  0  0  0  0  0  0  0  0  0  0
  -31.5518   64.5445   62.0933 O   0  0  0  0  0  0  0  0  0  0  0  0
  -32.2437   64.9439   63.2618 C   0  0  0  0  0  0  0  0  0  0  0  0
  -31.3386   65.7904   64.1474 C   0  0  0  0  0  0  0  0  0  0  0  0
  -30.8088   66.9811   63.3583 C   0  0  0  0  0  0  0  0  0  0  0  0
  -30.1605   66.5301   62.0577 C   0  0  0  0  0  0  0  0  0  0  0  0
  -31.1345   65.6507   61.2773 C   0  0  0  0  0  0  0  0  0  0  0  0
  -32.3916   65.4714   65.7819 H   0  0  0  0  0  0  0  0  0  0  0  0
  -28.3506   66.3516   62.8203 H   0  0  0  0  0  0  0  0  0  0  0  0
  -29.4020   65.8123   59.5860 O   0  0  0  0  0  0  0  0  0  0  0  0
  -30.5320   65.0654   60.0216 C   0  0  0  0  0  0  0  0  0  0  0  0
  -29.0402   65.4111   58.7803 H   0  0  0  0  0  0  0  0  0  0  0  0
  -29.7952   67.5786   64.2271 O   0  0  0  0  0  0  0  0  0  0  0  0
  -29.0022   69.4270   65.5545 O   0  0  0  0  0  0  0  0  0  0  0  0
  -31.0866   69.6503   64.1686 O   0  0  0  0  0  0  0  0  0  0  0  0
  -28.9314   69.5353   63.1795 O   0  0  0  0  0  0  0  0  0  0  0  0
  -29.7817   69.1573   64.4035 S   0  0  0  0  0  0  0  0  0  0  0  0
  -29.5096   69.1993   66.3492 H   0  0  0  0  0  0  0  0  0  0  0  0
  -28.0250   69.2128   63.3035 H   0  0  0  0  0  0  0  0  0  0  0  0
  2  1  1  0  0  0
  2  4  1  0  0  0
  2  5  1  0  0  0
 47 48  1  0  0  0
 47  1  1  0  0  0
 48 52  1  0  0  0
  1 30  1  0  0  0
 29 30  1  0  0  0
 29 31  1  0  0  0
 30 32  1  0  0  0
  3  4  2  0  0  0
 32 33  2  0  0  0
 49 53  1  0  0  0
 49 57  1  0  0  0
 33 34  1  0  0  0
 62 54  1  0  0  0
 62 66  1  0  0  0
 34 35  1  0  0  0
 50 55  1  0  0  0
 50 58  1  0  0  0
 35 36  1  0  0  0
 51 52  1  0  0  0
 51 56  1  0  0  0
 36 37  1  0  0  0
 59 60  1  0  0  0
 59 61  1  0  0  0
 37 38  1  0  0  0
 63 66  1  0  0  0
 63 67  1  0  0  0
 38 39  1  0  0  0
 64 66  1  0  0  0
 39 40  1  0  0  0
 65 66  1  0  0  0
 65 68  1  0  0  0
 40 41  1  0  0  0
 41 42  1  0  0  0
 42 43  1  0  0  0
 43 44  1  0  0  0
 44 45  1  0  0  0
 45 46  1  0  0  0
  4  6  1  0  0  0
  6  7  1  0  0  0
  7  8  1  0  0  0
  8  9  1  0  0  0
  9 10  1  0  0  0
 10 11  1  0  0  0
 11 12  1  0  0  0
 12 13  1  0  0  0
 13 14  1  0  0  0
 14 15  1  0  0  0
 15 16  1  0  0  0
 16 17  1  0  0  0
 17 18  1  0  0  0
 18 19  1  0  0  0
 19 20  2  0  0  0
 20 21  1  0  0  0
 21 22  1  0  0  0
 22 23  1  0  0  0
 23 24  1  0  0  0
 24 25  1  0  0  0
 25 26  1  0  0  0
 26 27  1  0  0  0
 27 28  1  0  0  0
 52 53  1  0  0  0
 53 54  1  0  0  0
 54 55  1  0  0  0
 55 56  1  0  0  0
 56 60  1  0  0  0
M  CHG 1  64  -1
M  END
> <minimizedAffinity>
-8.88698

> <CNNscore>
0.2171389312

> <CNNaffinity>
6.9927229881

> <CNN_VS>
1.5183924437

> <CNNaffinity_variance>
1.3060464859

$$$$
/media/chris/experiments/cd1a-new-docking/inputs/ligands/7ryn_ligand.pdb


 68 68  0  0  0  0  0  0  0  0999 V2000
  -33.4147   61.4748   62.8675 C   0  0  0  0  0  0  0  0  0  0  0  0
  -34.1824   61.9013   64.0338 N   0  0  0  0  0  0  0  0  0  0  0  0
  -36.0939   62.3130   62.9183 O   0  0  0  0  0  0  0  0  0  0  0  0
  -35.4597   62.2865   63.9690 C   0  0  0  0  0  0  0  0  0  0  0  0
  -33.7364   61.9053   64.9115 H   0  0  0  0  0  0  0  0  0  0  0  0
  -36.0881   62.6853   65.2810 C   0  0  0  0  0  0  0  0  0  0  0  0
  -36.6077   61.4890   66.0682 C   0  0  0  0  0  0  0  0  0  0  0  0
  -37.7698   60.7929   65.3784 C   0  0  0  0  0  0  0  0  0  0  0  0
  -38.7757   60.1770   66.3365 C   0  0  0  0  0  0  0  0  0  0  0  0
  -40.0314   59.6521   65.6566 C   0  0  0  0  0  0  0  0  0  0  0  0
  -41.2991   60.4128   66.0241 C   0  0  0  0  0  0  0  0  0  0  0  0
  -42.3796   59.5433   66.6539 C   0  0  0  0  0  0  0  0  0  0  0  0
  -42.2198   58.0473   66.3956 C   0  0  0  0  0  0  0  0  0  0  0  0
  -43.1242   57.5068   65.2891 C   0  0  0  0  0  0  0  0  0  0  0  0
  -44.1613   58.5029   64.7706 C   0  0  0  0  0  0  0  0  0  0  0  0
  -45.6033   58.0247   64.9410 C   0  0  0  0  0  0  0  0  0  0  0  0
  -46.4335   58.8187   65.9495 C   0  0  0  0  0  0  0  0  0  0  0  0
  -47.9186   58.9497   65.6015 C   0  0  0  0  0  0  0  0  0  0  0  0
  -48.2043   60.1082   64.6903 C   0  0  0  0  0  0  0  0  0  0  0  0
  -49.3038   60.2870   63.9797 C   0  0  0  0  0  0  0  0  0  0  0  0
  -50.4887   59.3703   63.9428 C   0  0  0  0  0  0  0  0  0  0  0  0
  -50.8270   58.8592   62.5407 C   0  0  0  0  0  0  0  0  0  0  0  0
  -49.6484   58.1947   61.8415 C   0  0  0  0  0  0  0  0  0  0  0  0
  -49.3151   58.8199   60.4916 C   0  0  0  0  0  0  0  0  0  0  0  0
  -49.2628   57.8303   59.3332 C   0  0  0  0  0  0  0  0  0  0  0  0
  -48.1341   56.8152   59.4448 C   0  0  0  0  0  0  0  0  0  0  0  0
  -47.2247   56.7594   58.2276 C   0  0  0  0  0  0  0  0  0  0  0  0
  -47.1922   58.0631   57.4560 C   0  0  0  0  0  0  0  0  0  0  0  0
  -31.6340   59.9538   62.2756 O   0  0  0  0  0  0  0  0  0  0  0  0
  -32.7392   60.1270   63.1672 C   0  0  0  0  0  0  0  0  0  0  0  0
  -31.0217   60.7002   62.3708 H   0  0  0  0  0  0  0  0  0  0  0  0
  -33.7075   58.9904   63.0473 C   0  0  0  0  0  0  0  0  0  0  0  0
  -34.4531   58.5230   64.0291 C   0  0  0  0  0  0  0  0  0  0  0  0
  -35.4215   57.3966   63.8740 C   0  0  0  0  0  0  0  0  0  0  0  0
  -36.3311   57.6158   62.6633 C   0  0  0  0  0  0  0  0  0  0  0  0
  -37.7638   57.9791   63.0181 C   0  0  0  0  0  0  0  0  0  0  0  0
  -38.8136   57.1182   62.3366 C   0  0  0  0  0  0  0  0  0  0  0  0
  -40.1689   57.1311   63.0286 C   0  0  0  0  0  0  0  0  0  0  0  0
  -41.2088   56.2518   62.3514 C   0  0  0  0  0  0  0  0  0  0  0  0
  -41.4775   56.6256   60.9042 C   0  0  0  0  0  0  0  0  0  0  0  0
  -42.1866   57.9556   60.7306 C   0  0  0  0  0  0  0  0  0  0  0  0
  -41.3369   59.0238   60.0640 C   0  0  0  0  0  0  0  0  0  0  0  0
  -41.4245   60.3705   60.7576 C   0  0  0  0  0  0  0  0  0  0  0  0
  -41.6925   60.2907   62.2483 C   0  0  0  0  0  0  0  0  0  0  0  0
  -42.8997   61.1064   62.6676 C   0  0  0  0  0  0  0  0  0  0  0  0
  -42.9954   62.4243   61.9271 C   0  0  0  0  0  0  0  0  0  0  0  0
  -32.4097   62.5428   62.4882 C   0  0  0  0  0  0  0  0  0  0  0  0
  -31.2738   62.4193   63.3515 O   0  0  0  0  0  0  0  0  0  0  0  0
  -29.4416   64.2460   62.2805 O   0  0  0  0  0  0  0  0  0  0  0  0
  -32.6176   66.6706   63.8796 O   0  0  0  0  0  0  0  0  0  0  0  0
  -32.0462   64.0156   64.8293 O   0  0  0  0  0  0  0  0  0  0  0  0
  -30.9480   63.5885   64.0449 C   0  0  0  0  0  0  0  0  0  0  0  0
  -30.5828   64.6569   63.0226 C   0  0  0  0  0  0  0  0  0  0  0  0
  -30.3042   65.9771   63.7303 C   0  0  0  0  0  0  0  0  0  0  0  0
  -31.4578   66.3607   64.6453 C   0  0  0  0  0  0  0  0  0  0  0  0
  -31.7700   65.2026   65.5899 C   0  0  0  0  0  0  0  0  0  0  0  0
  -29.6311   63.4054   61.8351 H   0  0  0  0  0  0  0  0  0  0  0  0
  -32.4212   67.4062   63.2786 H   0  0  0  0  0  0  0  0  0  0  0  0
  -32.6297   66.1565   67.6489 O   0  0  0  0  0  0  0  0  0  0  0  0
  -32.9782   65.4550   66.4611 C   0  0  0  0  0  0  0  0  0  0  0  0
  -33.4256   66.3020   68.1839 H   0  0  0  0  0  0  0  0  0  0  0  0
  -30.1903   66.9579   62.6513 O   0  0  0  0  0  0  0  0  0  0  0  0
  -28.9024   68.7502   63.6188 O   0  0  0  0  0  0  0  0  0  0  0  0
  -28.6402   68.1537   61.1917 O   0  0  0  0  0  0  0  0  0  0  0  0
  -27.8340   66.7426   62.9223 O   0  0  0  0  0  0  0  0  0  0  0  0
  -28.8620   67.8232   62.5492 S   0  0  0  0  0  0  0  0  0  0  0  0
  -29.5437   69.4493   63.4167 H   0  0  0  0  0  0  0  0  0  0  0  0
  -27.9546   66.4884   63.8507 H   0  0  0  0  0  0  0  0  0  0  0  0
  2  1  1  0  0  0
  2  4  1  0  0  0
  2  5  1  0  0  0
 47 48  1  0  0  0
 47  1  1  0  0  0
 48 52  1  0  0  0
  1 30  1  0  0  0
 29 30  1  0  0  0
 29 31  1  0  0  0
 30 32  1  0  0  0
  3  4  2  0  0  0
 32 33  2  0  0  0
 49 53  1  0  0  0
 49 57  1  0  0  0
 33 34  1  0  0  0
 62 54  1  0  0  0
 62 66  1  0  0  0
 34 35  1  0  0  0
 50 55  1  0  0  0
 50 58  1  0  0  0
 35 36  1  0  0  0
 51 52  1  0  0  0
 51 56  1  0  0  0
 36 37  1  0  0  0
 59 60  1  0  0  0
 59 61  1  0  0  0
 37 38  1  0  0  0
 63 66  1  0  0  0
 63 67  1  0  0  0
 38 39  1  0  0  0
 64 66  1  0  0  0
 39 40  1  0  0  0
 65 66  1  0  0  0
 65 68  1  0  0  0
 40 41  1  0  0  0
 41 42  1  0  0  0
 42 43  1  0  0  0
 43 44  1  0  0  0
 44 45  1  0  0  0
 45 46  1  0  0  0
  4  6  1  0  0  0
  6  7  1  0  0  0
  7  8  1  0  0  0
  8  9  1  0  0  0
  9 10  1  0  0  0
 10 11  1  0  0  0
 11 12  1  0  0  0
 12 13  1  0  0  0
 13 14  1  0  0  0
 14 15  1  0  0  0
 15 16  1  0  0  0
 16 17  1  0  0  0
 17 18  1  0  0  0
 18 19  1  0  0  0
 19 20  2  0  0  0
 20 21  1  0  0  0
 21 22  1  0  0  0
 22 23  1  0  0  0
 23 24  1  0  0  0
 24 25  1  0  0  0
 25 26  1  0  0  0
 26 27  1  0  0  0
 27 28  1  0  0  0
 52 53  1  0  0  0
 53 54  1  0  0  0
 54 55  1  0  0  0
 55 56  1  0  0  0
 56 60  1  0  0  0
M  CHG 1  64  -1
M  END
> <minimizedAffinity>
-9.34102

> <CNNscore>
0.1927682161

> <CNNaffinity>
7.0394182205

> <CNN_VS>
1.3569761515

> <CNNaffinity_variance>
1.6496689320

$$$$
/media/chris/experiments/cd1a-new-docking/inputs/ligands/7ryn_ligand.pdb


 68 68  0  0  0  0  0  0  0  0999 V2000
  -37.5298   59.8856   63.3057 C   0  0  0  0  0  0  0  0  0  0  0  0
  -38.7287   59.8763   62.4727 N   0  0  0  0  0  0  0  0  0  0  0  0
  -37.6738   59.3702   60.5494 O   0  0  0  0  0  0  0  0  0  0  0  0
  -38.7079   59.6198   61.1620 C   0  0  0  0  0  0  0  0  0  0  0  0
  -39.5955   60.0685   62.8981 H   0  0  0  0  0  0  0  0  0  0  0  0
  -40.0481   59.6480   60.4704 C   0  0  0  0  0  0  0  0  0  0  0  0
  -40.5528   58.2550   60.1161 C   0  0  0  0  0  0  0  0  0  0  0  0
  -41.9764   58.0090   60.5895 C   0  0  0  0  0  0  0  0  0  0  0  0
  -42.1551   58.1293   62.0937 C   0  0  0  0  0  0  0  0  0  0  0  0
  -41.8465   56.8484   62.8544 C   0  0  0  0  0  0  0  0  0  0  0  0
  -40.7602   57.0017   63.9113 C   0  0  0  0  0  0  0  0  0  0  0  0
  -41.1275   57.9569   65.0395 C   0  0  0  0  0  0  0  0  0  0  0  0
  -42.4505   57.6404   65.7323 C   0  0  0  0  0  0  0  0  0  0  0  0
  -43.4947   58.7497   65.6163 C   0  0  0  0  0  0  0  0  0  0  0  0
  -44.8030   58.3258   64.9491 C   0  0  0  0  0  0  0  0  0  0  0  0
  -46.0285   58.5008   65.8460 C   0  0  0  0  0  0  0  0  0  0  0  0
  -47.2374   59.1486   65.1710 C   0  0  0  0  0  0  0  0  0  0  0  0
  -48.3979   59.4849   66.1113 C   0  0  0  0  0  0  0  0  0  0  0  0
  -49.5855   58.5875   65.9165 C   0  0  0  0  0  0  0  0  0  0  0  0
  -50.5756   58.7806   65.0630 C   0  0  0  0  0  0  0  0  0  0  0  0
  -50.7104   59.9336   64.1152 C   0  0  0  0  0  0  0  0  0  0  0  0
  -49.9501   59.7413   62.8013 C   0  0  0  0  0  0  0  0  0  0  0  0
  -49.8210   58.2811   62.3886 C   0  0  0  0  0  0  0  0  0  0  0  0
  -50.5806   57.9443   61.1103 C   0  0  0  0  0  0  0  0  0  0  0  0
  -49.7567   57.2043   60.0627 C   0  0  0  0  0  0  0  0  0  0  0  0
  -48.6371   58.0412   59.4602 C   0  0  0  0  0  0  0  0  0  0  0  0
  -47.6709   57.2536   58.5896 C   0  0  0  0  0  0  0  0  0  0  0  0
  -47.2936   57.9852   57.3174 C   0  0  0  0  0  0  0  0  0  0  0  0
  -37.6979   58.9880   65.5420 O   0  0  0  0  0  0  0  0  0  0  0  0
  -37.5029   58.6175   64.1741 C   0  0  0  0  0  0  0  0  0  0  0  0
  -38.5324   59.4748   65.6293 H   0  0  0  0  0  0  0  0  0  0  0  0
  -36.2208   57.8623   64.0010 C   0  0  0  0  0  0  0  0  0  0  0  0
  -35.4995   57.8361   62.8978 C   0  0  0  0  0  0  0  0  0  0  0  0
  -34.2161   57.0847   62.7612 C   0  0  0  0  0  0  0  0  0  0  0  0
  -33.1881   57.8915   61.9653 C   0  0  0  0  0  0  0  0  0  0  0  0
  -33.0705   59.3453   62.3932 C   0  0  0  0  0  0  0  0  0  0  0  0
  -31.6669   59.7674   62.7922 C   0  0  0  0  0  0  0  0  0  0  0  0
  -30.9850   60.6804   61.7835 C   0  0  0  0  0  0  0  0  0  0  0  0
  -29.4735   60.7425   61.9400 C   0  0  0  0  0  0  0  0  0  0  0  0
  -29.0021   61.8118   62.9099 C   0  0  0  0  0  0  0  0  0  0  0  0
  -29.9858   62.9512   63.0999 C   0  0  0  0  0  0  0  0  0  0  0  0
  -29.3305   64.3163   63.2206 C   0  0  0  0  0  0  0  0  0  0  0  0
  -29.7993   65.2956   62.1605 C   0  0  0  0  0  0  0  0  0  0  0  0
  -30.2111   64.6509   60.8509 C   0  0  0  0  0  0  0  0  0  0  0  0
  -30.2963   65.6481   59.7121 C   0  0  0  0  0  0  0  0  0  0  0  0
  -31.2623   66.7784   60.0013 C   0  0  0  0  0  0  0  0  0  0  0  0
  -37.4877   61.1482   64.1415 C   0  0  0  0  0  0  0  0  0  0  0  0
  -36.1193   61.4431   64.4432 O   0  0  0  0  0  0  0  0  0  0  0  0
  -34.6222   62.5007   66.5602 O   0  0  0  0  0  0  0  0  0  0  0  0
  -33.0625   64.4150   63.0353 O   0  0  0  0  0  0  0  0  0  0  0  0
  -35.7252   63.3352   63.1807 O   0  0  0  0  0  0  0  0  0  0  0  0
  -35.8217   62.8082   64.4910 C   0  0  0  0  0  0  0  0  0  0  0  0
  -34.4984   62.9769   65.2261 C   0  0  0  0  0  0  0  0  0  0  0  0
  -34.0895   64.4446   65.2260 C   0  0  0  0  0  0  0  0  0  0  0  0
  -34.0934   65.0129   63.8145 C   0  0  0  0  0  0  0  0  0  0  0  0
  -35.4448   64.7439   63.1572 C   0  0  0  0  0  0  0  0  0  0  0  0
  -34.8827   61.5664   66.5471 H   0  0  0  0  0  0  0  0  0  0  0  0
  -32.2029   64.5848   63.4513 H   0  0  0  0  0  0  0  0  0  0  0  0
  -35.3038   64.0780   60.8280 O   0  0  0  0  0  0  0  0  0  0  0  0
  -35.4992   65.1767   61.7107 C   0  0  0  0  0  0  0  0  0  0  0  0
  -35.3445   64.3893   59.9102 H   0  0  0  0  0  0  0  0  0  0  0  0
  -32.7238   64.4477   65.7495 O   0  0  0  0  0  0  0  0  0  0  0  0
  -32.5623   66.1602   67.4373 O   0  0  0  0  0  0  0  0  0  0  0  0
  -32.1010   66.6952   65.0255 O   0  0  0  0  0  0  0  0  0  0  0  0
  -30.6097   65.3816   66.3243 O   0  0  0  0  0  0  0  0  0  0  0  0
  -32.0676   65.8378   66.1502 S   0  0  0  0  0  0  0  0  0  0  0  0
  -33.4841   66.4533   67.3652 H   0  0  0  0  0  0  0  0  0  0  0  0
  -30.5455   64.7891   67.0897 H   0  0  0  0  0  0  0  0  0  0  0  0
  2  1  1  0  0  0
  2  4  1  0  0  0
  2  5  1  0  0  0
 47 48  1  0  0  0
 47  1  1  0  0  0
 48 52  1  0  0  0
  1 30  1  0  0  0
 29 30  1  0  0  0
 29 31  1  0  0  0
 30 32  1  0  0  0
  3  4  2  0  0  0
 32 33  2  0  0  0
 49 53  1  0  0  0
 49 57  1  0  0  0
 33 34  1  0  0  0
 62 54  1  0  0  0
 62 66  1  0  0  0
 34 35  1  0  0  0
 50 55  1  0  0  0
 50 58  1  0  0  0
 35 36  1  0  0  0
 51 52  1  0  0  0
 51 56  1  0  0  0
 36 37  1  0  0  0
 59 60  1  0  0  0
 59 61  1  0  0  0
 37 38  1  0  0  0
 63 66  1  0  0  0
 63 67  1  0  0  0
 38 39  1  0  0  0
 64 66  1  0  0  0
 39 40  1  0  0  0
 65 66  1  0  0  0
 65 68  1  0  0  0
 40 41  1  0  0  0
 41 42  1  0  0  0
 42 43  1  0  0  0
 43 44  1  0  0  0
 44 45  1  0  0  0
 45 46  1  0  0  0
  4  6  1  0  0  0
  6  7  1  0  0  0
  7  8  1  0  0  0
  8  9  1  0  0  0
  9 10  1  0  0  0
 10 11  1  0  0  0
 11 12  1  0  0  0
 12 13  1  0  0  0
 13 14  1  0  0  0
 14 15  1  0  0  0
 15 16  1  0  0  0
 16 17  1  0  0  0
 17 18  1  0  0  0
 18 19  1  0  0  0
 19 20  2  0  0  0
 20 21  1  0  0  0
 21 22  1  0  0  0
 22 23  1  0  0  0
 23 24  1  0  0  0
 24 25  1  0  0  0
 25 26  1  0  0  0
 26 27  1  0  0  0
 27 28  1  0  0  0
 52 53  1  0  0  0
 53 54  1  0  0  0
 54 55  1  0  0  0
 55 56  1  0  0  0
 56 60  1  0  0  0
M  CHG 1  64  -1
M  END
> <minimizedAffinity>
-9.40833

> <CNNscore>
0.1190059185

> <CNNaffinity>
6.7531328201

> <CNN_VS>
0.8036627769

> <CNNaffinity_variance>
1.2263989449

$$$$
