/media/chris/experiments/cd1a-new-docking/inputs/ligands/7ryn_ligand.pdb


 68 68  0  0  0  0  0  0  0  0999 V2000
  -35.8016   62.1603   65.2936 C   0  0  0  0  0  0  0  0  0  0  0  0
  -37.0795   61.7771   65.8864 N   0  0  0  0  0  0  0  0  0  0  0  0
  -37.5230   60.1158   64.4334 O   0  0  0  0  0  0  0  0  0  0  0  0
  -37.8396   60.7867   65.4115 C   0  0  0  0  0  0  0  0  0  0  0  0
  -37.3968   62.2732   66.6753 H   0  0  0  0  0  0  0  0  0  0  0  0
  -39.1233   60.5323   66.1616 C   0  0  0  0  0  0  0  0  0  0  0  0
  -40.0991   59.6671   65.3743 C   0  0  0  0  0  0  0  0  0  0  0  0
  -41.2829   59.2085   66.2107 C   0  0  0  0  0  0  0  0  0  0  0  0
  -42.0084   58.0007   65.6414 C   0  0  0  0  0  0  0  0  0  0  0  0
  -43.3795   57.7609   66.2552 C   0  0  0  0  0  0  0  0  0  0  0  0
  -44.0659   59.0266   66.7528 C   0  0  0  0  0  0  0  0  0  0  0  0
  -45.5134   58.8168   67.1785 C   0  0  0  0  0  0  0  0  0  0  0  0
  -46.1800   57.5848   66.5719 C   0  0  0  0  0  0  0  0  0  0  0  0
  -47.2324   57.9055   65.5117 C   0  0  0  0  0  0  0  0  0  0  0  0
  -48.6766   57.6816   65.9594 C   0  0  0  0  0  0  0  0  0  0  0  0
  -49.4620   58.9788   66.1539 C   0  0  0  0  0  0  0  0  0  0  0  0
  -50.8715   58.9769   65.5623 C   0  0  0  0  0  0  0  0  0  0  0  0
  -51.0973   59.9827   64.4302 C   0  0  0  0  0  0  0  0  0  0  0  0
  -49.8165   60.5499   63.8900 C   0  0  0  0  0  0  0  0  0  0  0  0
  -49.0614   60.0097   62.9499 C   0  0  0  0  0  0  0  0  0  0  0  0
  -49.3332   58.7228   62.2315 C   0  0  0  0  0  0  0  0  0  0  0  0
  -49.6993   58.9072   60.7573 C   0  0  0  0  0  0  0  0  0  0  0  0
  -50.1665   57.6218   60.0875 C   0  0  0  0  0  0  0  0  0  0  0  0
  -49.1623   56.4804   60.2023 C   0  0  0  0  0  0  0  0  0  0  0  0
  -47.8635   56.7029   59.4361 C   0  0  0  0  0  0  0  0  0  0  0  0
  -47.8124   55.9852   58.0946 C   0  0  0  0  0  0  0  0  0  0  0  0
  -47.2089   56.8109   56.9696 C   0  0  0  0  0  0  0  0  0  0  0  0
  -47.0732   58.2781   57.3228 C   0  0  0  0  0  0  0  0  0  0  0  0
  -33.7975   62.3175   66.6328 O   0  0  0  0  0  0  0  0  0  0  0  0
  -34.6672   61.3857   65.9834 C   0  0  0  0  0  0  0  0  0  0  0  0
  -34.3083   62.8545   67.2586 H   0  0  0  0  0  0  0  0  0  0  0  0
  -33.9109   60.5373   65.0074 C   0  0  0  0  0  0  0  0  0  0  0  0
  -34.0166   59.2276   64.9006 C   0  0  0  0  0  0  0  0  0  0  0  0
  -33.2590   58.4108   63.9058 C   0  0  0  0  0  0  0  0  0  0  0  0
  -34.1779   57.9142   62.7877 C   0  0  0  0  0  0  0  0  0  0  0  0
  -35.6536   57.9035   63.1526 C   0  0  0  0  0  0  0  0  0  0  0  0
  -36.5923   57.8934   61.9582 C   0  0  0  0  0  0  0  0  0  0  0  0
  -37.7718   56.9432   62.1063 C   0  0  0  0  0  0  0  0  0  0  0  0
  -39.0058   57.5917   62.7145 C   0  0  0  0  0  0  0  0  0  0  0  0
  -40.3132   56.9750   62.2494 C   0  0  0  0  0  0  0  0  0  0  0  0
  -40.7489   57.4201   60.8657 C   0  0  0  0  0  0  0  0  0  0  0  0
  -40.4777   58.8867   60.5772 C   0  0  0  0  0  0  0  0  0  0  0  0
  -41.6485   59.7866   60.9265 C   0  0  0  0  0  0  0  0  0  0  0  0
  -41.5834   60.3876   62.3174 C   0  0  0  0  0  0  0  0  0  0  0  0
  -42.8387   61.1572   62.6788 C   0  0  0  0  0  0  0  0  0  0  0  0
  -42.9746   62.4466   61.8953 C   0  0  0  0  0  0  0  0  0  0  0  0
  -35.6105   63.6595   65.3955 C   0  0  0  0  0  0  0  0  0  0  0  0
  -34.2078   63.9288   65.4987 O   0  0  0  0  0  0  0  0  0  0  0  0
  -31.5863   63.5614   64.5858 O   0  0  0  0  0  0  0  0  0  0  0  0
  -33.9346   64.1087   61.0209 O   0  0  0  0  0  0  0  0  0  0  0  0
  -34.7361   65.1191   63.5928 O   0  0  0  0  0  0  0  0  0  0  0  0
  -33.6966   64.7223   64.4678 C   0  0  0  0  0  0  0  0  0  0  0  0
  -32.6563   63.9038   63.7140 C   0  0  0  0  0  0  0  0  0  0  0  0
  -32.1335   64.6997   62.5248 C   0  0  0  0  0  0  0  0  0  0  0  0
  -33.2783   65.2008   61.6567 C   0  0  0  0  0  0  0  0  0  0  0  0
  -34.2822   65.9605   62.5204 C   0  0  0  0  0  0  0  0  0  0  0  0
  -31.9314   63.0557   65.3381 H   0  0  0  0  0  0  0  0  0  0  0  0
  -33.2984   63.6247   60.4716 H   0  0  0  0  0  0  0  0  0  0  0  0
  -36.3189   65.2885   61.3851 O   0  0  0  0  0  0  0  0  0  0  0  0
  -35.5107   66.3987   61.7581 C   0  0  0  0  0  0  0  0  0  0  0  0
  -37.0968   65.6037   60.8991 H   0  0  0  0  0  0  0  0  0  0  0  0
  -31.3279   63.7434   61.7658 O   0  0  0  0  0  0  0  0  0  0  0  0
  -32.9469   62.0108   62.1940 O   0  0  0  0  0  0  0  0  0  0  0  0
  -30.5534   61.7274   62.9055 O   0  0  0  0  0  0  0  0  0  0  0  0
  -31.1975   61.6588   60.6214 O   0  0  0  0  0  0  0  0  0  0  0  0
  -31.5535   62.1915   62.0191 S   0  0  0  0  0  0  0  0  0  0  0  0
  -33.2080   62.3373   63.0692 H   0  0  0  0  0  0  0  0  0  0  0  0
  -31.8633   61.9574   59.9823 H   0  0  0  0  0  0  0  0  0  0  0  0
  2  1  1  0  0  0
  2  4  1  0  0  0
  2  5  1  0  0  0
 47 48  1  0  0  0
 47  1  1  0  0  0
 48 52  1  0  0  0
  1 30  1  0  0  0
 29 30  1  0  0  0
 29 31  1  0  0  0
 30 32  1  0  0  0
  3  4  2  0  0  0
 32 33  2  0  0  0
 49 53  1  0  0  0
 49 57  1  0  0  0
 33 34  1  0  0  0
 62 54  1  0  0  0
 62 66  1  0  0  0
 34 35  1  0  0  0
 50 55  1  0  0  0
 50 58  1  0  0  0
 35 36  1  0  0  0
 51 52  1  0  0  0
 51 56  1  0  0  0
 36 37  1  0  0  0
 59 60  1  0  0  0
 59 61  1  0  0  0
 37 38  1  0  0  0
 63 66  1  0  0  0
 63 67  1  0  0  0
 38 39  1  0  0  0
 64 66  1  0  0  0
 39 40  1  0  0  0
 65 66  1  0  0  0
 65 68  1  0  0  0
 40 41  1  0  0  0
 41 42  1  0  0  0
 42 43  1  0  0  0
 43 44  1  0  0  0
 44 45  1  0  0  0
 45 46  1  0  0  0
  4  6  1  0  0  0
  6  7  1  0  0  0
  7  8  1  0  0  0
  8  9  1  0  0  0
  9 10  1  0  0  0
 10 11  1  0  0  0
 11 12  1  0  0  0
 12 13  1  0  0  0
 13 14  1  0  0  0
 14 15  1  0  0  0
 15 16  1  0  0  0
 16 17  1  0  0  0
 17 18  1  0  0  0
 18 19  1  0  0  0
 19 20  2  0  0  0
 20 21  1  0  0  0
 21 22  1  0  0  0
 22 23  1  0  0  0
 23 24  1  0  0  0
 24 25  1  0  0  0
 25 26  1  0  0  0
 26 27  1  0  0  0
 27 28  1  0  0  0
 52 53  1  0  0  0
 53 54  1  0  0  0
 54 55  1  0  0  0
 55 56  1  0  0  0
 56 60  1  0  0  0
M  CHG 1  64  -1
M  END
> <minimizedAffinity>
-9.22845

> <CNNscore>
0.2398361117

> <CNNaffinity>
7.2878942490

> <CNN_VS>
1.7479002476

> <CNNaffinity_variance>
1.1429698467

$$$$
/media/chris/experiments/cd1a-new-docking/inputs/ligands/7ryn_ligand.pdb


 68 68  0  0  0  0  0  0  0  0999 V2000
  -38.3795   59.6814   61.6143 C   0  0  0  0  0  0  0  0  0  0  0  0
  -39.7087   59.2138   61.2322 N   0  0  0  0  0  0  0  0  0  0  0  0
  -39.1898   58.7585   59.0895 O   0  0  0  0  0  0  0  0  0  0  0  0
  -40.0103   58.7894   60.0021 C   0  0  0  0  0  0  0  0  0  0  0  0
  -40.4179   59.2111   61.9150 H   0  0  0  0  0  0  0  0  0  0  0  0
  -41.4349   58.3374   59.7989 C   0  0  0  0  0  0  0  0  0  0  0  0
  -42.0305   57.7010   61.0483 C   0  0  0  0  0  0  0  0  0  0  0  0
  -41.5582   56.2717   61.2605 C   0  0  0  0  0  0  0  0  0  0  0  0
  -41.5169   55.8466   62.7189 C   0  0  0  0  0  0  0  0  0  0  0  0
  -40.4426   56.5500   63.5347 C   0  0  0  0  0  0  0  0  0  0  0  0
  -40.9903   57.4705   64.6179 C   0  0  0  0  0  0  0  0  0  0  0  0
  -42.4168   57.1445   65.0414 C   0  0  0  0  0  0  0  0  0  0  0  0
  -43.4533   58.1878   64.6324 C   0  0  0  0  0  0  0  0  0  0  0  0
  -44.8769   57.8586   65.0790 C   0  0  0  0  0  0  0  0  0  0  0  0
  -45.1230   58.0030   66.5806 C   0  0  0  0  0  0  0  0  0  0  0  0
  -46.4033   58.7678   66.9172 C   0  0  0  0  0  0  0  0  0  0  0  0
  -47.4353   58.8294   65.7912 C   0  0  0  0  0  0  0  0  0  0  0  0
  -48.6607   59.6987   66.0863 C   0  0  0  0  0  0  0  0  0  0  0  0
  -49.9551   58.9543   65.9299 C   0  0  0  0  0  0  0  0  0  0  0  0
  -50.6967   58.9035   64.8375 C   0  0  0  0  0  0  0  0  0  0  0  0
  -50.3932   59.5767   63.5335 C   0  0  0  0  0  0  0  0  0  0  0  0
  -50.1905   58.6024   62.3712 C   0  0  0  0  0  0  0  0  0  0  0  0
  -49.8656   59.2951   61.0544 C   0  0  0  0  0  0  0  0  0  0  0  0
  -49.8728   58.3519   59.8568 C   0  0  0  0  0  0  0  0  0  0  0  0
  -48.5226   58.1983   59.1661 C   0  0  0  0  0  0  0  0  0  0  0  0
  -47.7341   56.9799   59.6256 C   0  0  0  0  0  0  0  0  0  0  0  0
  -47.5926   55.8955   58.5692 C   0  0  0  0  0  0  0  0  0  0  0  0
  -47.6003   56.4442   57.1569 C   0  0  0  0  0  0  0  0  0  0  0  0
  -37.6619   58.7553   63.7267 O   0  0  0  0  0  0  0  0  0  0  0  0
  -37.6199   58.5422   62.3128 C   0  0  0  0  0  0  0  0  0  0  0  0
  -38.5855   58.8129   64.0177 H   0  0  0  0  0  0  0  0  0  0  0  0
  -36.2059   58.4481   61.8269 C   0  0  0  0  0  0  0  0  0  0  0  0
  -35.2321   57.8116   62.4471 C   0  0  0  0  0  0  0  0  0  0  0  0
  -33.8343   57.7231   61.9286 C   0  0  0  0  0  0  0  0  0  0  0  0
  -32.8226   57.6955   63.0761 C   0  0  0  0  0  0  0  0  0  0  0  0
  -32.1299   59.0250   63.3282 C   0  0  0  0  0  0  0  0  0  0  0  0
  -32.1731   59.9849   62.1515 C   0  0  0  0  0  0  0  0  0  0  0  0
  -31.4077   61.2800   62.3811 C   0  0  0  0  0  0  0  0  0  0  0  0
  -30.7425   61.8267   61.1273 C   0  0  0  0  0  0  0  0  0  0  0  0
  -30.7883   63.3408   61.0210 C   0  0  0  0  0  0  0  0  0  0  0  0
  -31.5578   64.0162   62.1410 C   0  0  0  0  0  0  0  0  0  0  0  0
  -30.9319   65.3139   62.6223 C   0  0  0  0  0  0  0  0  0  0  0  0
  -31.3875   66.5233   61.8272 C   0  0  0  0  0  0  0  0  0  0  0  0
  -32.7991   66.4193   61.2825 C   0  0  0  0  0  0  0  0  0  0  0  0
  -33.8512   66.7406   62.3258 C   0  0  0  0  0  0  0  0  0  0  0  0
  -35.2533   66.4105   61.8569 C   0  0  0  0  0  0  0  0  0  0  0  0
  -38.4937   60.9107   62.4919 C   0  0  0  0  0  0  0  0  0  0  0  0
  -37.2610   61.6353   62.4149 O   0  0  0  0  0  0  0  0  0  0  0  0
  -34.8792   63.0954   62.6050 O   0  0  0  0  0  0  0  0  0  0  0  0
  -36.8690   63.7263   66.3686 O   0  0  0  0  0  0  0  0  0  0  0  0
  -37.3490   61.4236   64.7118 O   0  0  0  0  0  0  0  0  0  0  0  0
  -36.5057   61.6129   63.5909 C   0  0  0  0  0  0  0  0  0  0  0  0
  -35.7689   62.9413   63.7036 C   0  0  0  0  0  0  0  0  0  0  0  0
  -34.9992   62.9968   65.0172 C   0  0  0  0  0  0  0  0  0  0  0  0
  -35.9091   62.6887   66.1972 C   0  0  0  0  0  0  0  0  0  0  0  0
  -36.6320   61.3659   65.9555 C   0  0  0  0  0  0  0  0  0  0  0  0
  -35.3804   63.0583   61.7754 H   0  0  0  0  0  0  0  0  0  0  0  0
  -36.4117   64.5677   66.5223 H   0  0  0  0  0  0  0  0  0  0  0  0
  -38.9631   60.9701   66.5012 O   0  0  0  0  0  0  0  0  0  0  0  0
  -37.6431   61.0361   67.0285 C   0  0  0  0  0  0  0  0  0  0  0  0
  -39.5857   60.7572   67.2139 H   0  0  0  0  0  0  0  0  0  0  0  0
  -34.5287   64.3786   65.1115 O   0  0  0  0  0  0  0  0  0  0  0  0
  -33.8760   64.5902   67.4215 O   0  0  0  0  0  0  0  0  0  0  0  0
  -32.6329   65.8302   65.6235 O   0  0  0  0  0  0  0  0  0  0  0  0
  -32.4596   63.4752   65.8697 O   0  0  0  0  0  0  0  0  0  0  0  0
  -33.3427   64.7097   66.1152 S   0  0  0  0  0  0  0  0  0  0  0  0
  -34.4410   65.3555   67.6113 H   0  0  0  0  0  0  0  0  0  0  0  0
  -32.9142   62.6825   66.1951 H   0  0  0  0  0  0  0  0  0  0  0  0
  2  1  1  0  0  0
  2  4  1  0  0  0
  2  5  1  0  0  0
 47 48  1  0  0  0
 47  1  1  0  0  0
 48 52  1  0  0  0
  1 30  1  0  0  0
 29 30  1  0  0  0
 29 31  1  0  0  0
 30 32  1  0  0  0
  3  4  2  0  0  0
 32 33  2  0  0  0
 49 53  1  0  0  0
 49 57  1  0  0  0
 33 34  1  0  0  0
 62 54  1  0  0  0
 62 66  1  0  0  0
 34 35  1  0  0  0
 50 55  1  0  0  0
 50 58  1  0  0  0
 35 36  1  0  0  0
 51 52  1  0  0  0
 51 56  1  0  0  0
 36 37  1  0  0  0
 59 60  1  0  0  0
 59 61  1  0  0  0
 37 38  1  0  0  0
 63 66  1  0  0  0
 63 67  1  0  0  0
 38 39  1  0  0  0
 64 66  1  0  0  0
 39 40  1  0  0  0
 65 66  1  0  0  0
 65 68  1  0  0  0
 40 41  1  0  0  0
 41 42  1  0  0  0
 42 43  1  0  0  0
 43 44  1  0  0  0
 44 45  1  0  0  0
 45 46  1  0  0  0
  4  6  1  0  0  0
  6  7  1  0  0  0
  7  8  1  0  0  0
  8  9  1  0  0  0
  9 10  1  0  0  0
 10 11  1  0  0  0
 11 12  1  0  0  0
 12 13  1  0  0  0
 13 14  1  0  0  0
 14 15  1  0  0  0
 15 16  1  0  0  0
 16 17  1  0  0  0
 17 18  1  0  0  0
 18 19  1  0  0  0
 19 20  2  0  0  0
 20 21  1  0  0  0
 21 22  1  0  0  0
 22 23  1  0  0  0
 23 24  1  0  0  0
 24 25  1  0  0  0
 25 26  1  0  0  0
 26 27  1  0  0  0
 27 28  1  0  0  0
 52 53  1  0  0  0
 53 54  1  0  0  0
 54 55  1  0  0  0
 55 56  1  0  0  0
 56 60  1  0  0  0
M  CHG 1  64  -1
M  END
> <minimizedAffinity>
-8.87659

> <CNNscore>
0.1488056779

> <CNNaffinity>
7.0840940475

> <CNN_VS>
1.0541534424

> <CNNaffinity_variance>
0.6785488725

$$$$
/media/chris/experiments/cd1a-new-docking/inputs/ligands/7ryn_ligand.pdb


 68 68  0  0  0  0  0  0  0  0999 V2000
  -35.8131   59.1708   63.0235 C   0  0  0  0  0  0  0  0  0  0  0  0
  -36.6628   59.0938   64.2081 N   0  0  0  0  0  0  0  0  0  0  0  0
  -37.6993   61.0652   63.8816 O   0  0  0  0  0  0  0  0  0  0  0  0
  -37.5382   60.0448   64.5447 C   0  0  0  0  0  0  0  0  0  0  0  0
  -36.5868   58.3016   64.7877 H   0  0  0  0  0  0  0  0  0  0  0  0
  -38.3333   59.7850   65.8000 C   0  0  0  0  0  0  0  0  0  0  0  0
  -39.6783   60.5001   65.7988 C   0  0  0  0  0  0  0  0  0  0  0  0
  -40.8044   59.6323   66.3373 C   0  0  0  0  0  0  0  0  0  0  0  0
  -41.6714   59.0076   65.2569 C   0  0  0  0  0  0  0  0  0  0  0  0
  -42.7358   58.0617   65.7925 C   0  0  0  0  0  0  0  0  0  0  0  0
  -43.8373   57.7375   64.7914 C   0  0  0  0  0  0  0  0  0  0  0  0
  -45.2454   57.9236   65.3418 C   0  0  0  0  0  0  0  0  0  0  0  0
  -45.3440   57.8623   66.8639 C   0  0  0  0  0  0  0  0  0  0  0  0
  -46.4127   58.7801   67.4555 C   0  0  0  0  0  0  0  0  0  0  0  0
  -47.5007   59.2083   66.4711 C   0  0  0  0  0  0  0  0  0  0  0  0
  -48.6368   58.1936   66.3397 C   0  0  0  0  0  0  0  0  0  0  0  0
  -49.4434   58.2892   65.0447 C   0  0  0  0  0  0  0  0  0  0  0  0
  -48.6291   58.6656   63.8040 C   0  0  0  0  0  0  0  0  0  0  0  0
  -49.2752   59.7481   62.9887 C   0  0  0  0  0  0  0  0  0  0  0  0
  -50.3477   59.6151   62.2286 C   0  0  0  0  0  0  0  0  0  0  0  0
  -51.1369   58.3568   62.0295 C   0  0  0  0  0  0  0  0  0  0  0  0
  -50.8029   57.6207   60.7303 C   0  0  0  0  0  0  0  0  0  0  0  0
  -49.8663   56.4370   60.9325 C   0  0  0  0  0  0  0  0  0  0  0  0
  -48.9951   56.1404   59.7172 C   0  0  0  0  0  0  0  0  0  0  0  0
  -47.8151   57.0890   59.5397 C   0  0  0  0  0  0  0  0  0  0  0  0
  -46.7095   56.5330   58.6533 C   0  0  0  0  0  0  0  0  0  0  0  0
  -47.0923   56.4049   57.1874 C   0  0  0  0  0  0  0  0  0  0  0  0
  -47.7810   57.6421   56.6480 C   0  0  0  0  0  0  0  0  0  0  0  0
  -36.7425   58.7226   60.8394 O   0  0  0  0  0  0  0  0  0  0  0  0
  -36.2400   58.0883   62.0190 C   0  0  0  0  0  0  0  0  0  0  0  0
  -36.0642   59.3133   60.4760 H   0  0  0  0  0  0  0  0  0  0  0  0
  -37.2630   57.1666   62.6090 C   0  0  0  0  0  0  0  0  0  0  0  0
  -38.5605   57.2312   62.3846 C   0  0  0  0  0  0  0  0  0  0  0  0
  -39.5547   56.2868   62.9767 C   0  0  0  0  0  0  0  0  0  0  0  0
  -40.9858   56.7195   62.6517 C   0  0  0  0  0  0  0  0  0  0  0  0
  -41.7301   55.7679   61.7291 C   0  0  0  0  0  0  0  0  0  0  0  0
  -41.6867   56.1586   60.2617 C   0  0  0  0  0  0  0  0  0  0  0  0
  -41.6230   57.6602   60.0229 C   0  0  0  0  0  0  0  0  0  0  0  0
  -40.2319   58.1642   59.6709 C   0  0  0  0  0  0  0  0  0  0  0  0
  -40.0325   59.6459   59.9369 C   0  0  0  0  0  0  0  0  0  0  0  0
  -40.1716   60.0362   61.3966 C   0  0  0  0  0  0  0  0  0  0  0  0
  -41.6110   60.1603   61.8660 C   0  0  0  0  0  0  0  0  0  0  0  0
  -41.8551   61.3964   62.7115 C   0  0  0  0  0  0  0  0  0  0  0  0
  -43.0232   62.2481   62.2530 C   0  0  0  0  0  0  0  0  0  0  0  0
  -43.3281   63.3830   63.2110 C   0  0  0  0  0  0  0  0  0  0  0  0
  -42.4872   63.3217   64.4696 C   0  0  0  0  0  0  0  0  0  0  0  0
  -34.3571   59.0372   63.4189 C   0  0  0  0  0  0  0  0  0  0  0  0
  -34.0340   60.1057   64.3160 O   0  0  0  0  0  0  0  0  0  0  0  0
  -34.7095   62.6258   65.3327 O   0  0  0  0  0  0  0  0  0  0  0  0
  -30.5528   62.9404   64.2626 O   0  0  0  0  0  0  0  0  0  0  0  0
  -32.3395   61.0362   63.0546 O   0  0  0  0  0  0  0  0  0  0  0  0
  -33.5844   61.2698   63.6863 C   0  0  0  0  0  0  0  0  0  0  0  0
  -33.4428   62.3547   64.7461 C   0  0  0  0  0  0  0  0  0  0  0  0
  -32.8707   63.6198   64.1189 C   0  0  0  0  0  0  0  0  0  0  0  0
  -31.5862   63.3208   63.3599 C   0  0  0  0  0  0  0  0  0  0  0  0
  -31.8302   62.1890   62.3648 C   0  0  0  0  0  0  0  0  0  0  0  0
  -35.0631   61.8136   65.7281 H   0  0  0  0  0  0  0  0  0  0  0  0
  -30.3961   63.6583   64.8958 H   0  0  0  0  0  0  0  0  0  0  0  0
  -30.8737   60.8681   60.5679 O   0  0  0  0  0  0  0  0  0  0  0  0
  -30.5769   61.7497   61.6448 C   0  0  0  0  0  0  0  0  0  0  0  0
  -30.0499   60.6060   60.1282 H   0  0  0  0  0  0  0  0  0  0  0  0
  -32.5746   64.4935   65.2540 O   0  0  0  0  0  0  0  0  0  0  0  0
  -32.8037   66.5294   63.9855 O   0  0  0  0  0  0  0  0  0  0  0  0
  -30.5640   65.8293   64.8848 O   0  0  0  0  0  0  0  0  0  0  0  0
  -32.2962   66.6111   66.3078 O   0  0  0  0  0  0  0  0  0  0  0  0
  -31.9724   65.9349   64.9655 S   0  0  0  0  0  0  0  0  0  0  0  0
  -32.6256   66.1252   63.1219 H   0  0  0  0  0  0  0  0  0  0  0  0
  -33.2575   66.7018   66.4006 H   0  0  0  0  0  0  0  0  0  0  0  0
  2  1  1  0  0  0
  2  4  1  0  0  0
  2  5  1  0  0  0
 47 48  1  0  0  0
 47  1  1  0  0  0
 48 52  1  0  0  0
  1 30  1  0  0  0
 29 30  1  0  0  0
 29 31  1  0  0  0
 30 32  1  0  0  0
  3  4  2  0  0  0
 32 33  2  0  0  0
 49 53  1  0  0  0
 49 57  1  0  0  0
 33 34  1  0  0  0
 62 54  1  0  0  0
 62 66  1  0  0  0
 34 35  1  0  0  0
 50 55  1  0  0  0
 50 58  1  0  0  0
 35 36  1  0  0  0
 51 52  1  0  0  0
 51 56  1  0  0  0
 36 37  1  0  0  0
 59 60  1  0  0  0
 59 61  1  0  0  0
 37 38  1  0  0  0
 63 66  1  0  0  0
 63 67  1  0  0  0
 38 39  1  0  0  0
 64 66  1  0  0  0
 39 40  1  0  0  0
 65 66  1  0  0  0
 65 68  1  0  0  0
 40 41  1  0  0  0
 41 42  1  0  0  0
 42 43  1  0  0  0
 43 44  1  0  0  0
 44 45  1  0  0  0
 45 46  1  0  0  0
  4  6  1  0  0  0
  6  7  1  0  0  0
  7  8  1  0  0  0
  8  9  1  0  0  0
  9 10  1  0  0  0
 10 11  1  0  0  0
 11 12  1  0  0  0
 12 13  1  0  0  0
 13 14  1  0  0  0
 14 15  1  0  0  0
 15 16  1  0  0  0
 16 17  1  0  0  0
 17 18  1  0  0  0
 18 19  1  0  0  0
 19 20  2  0  0  0
 20 21  1  0  0  0
 21 22  1  0  0  0
 22 23  1  0  0  0
 23 24  1  0  0  0
 24 25  1  0  0  0
 25 26  1  0  0  0
 26 27  1  0  0  0
 27 28  1  0  0  0
 52 53  1  0  0  0
 53 54  1  0  0  0
 54 55  1  0  0  0
 55 56  1  0  0  0
 56 60  1  0  0  0
M  CHG 1  64  -1
M  END
> <minimizedAffinity>
-7.78436

> <CNNscore>
0.1268810034

> <CNNaffinity>
7.0890417099

> <CNN_VS>
0.8994647264

> <CNNaffinity_variance>
1.1004518270

$$$$
/media/chris/experiments/cd1a-new-docking/inputs/ligands/7ryn_ligand.pdb


 68 68  0  0  0  0  0  0  0  0999 V2000
  -37.9676   61.1602   64.3695 C   0  0  0  0  0  0  0  0  0  0  0  0
  -38.7644   60.0212   64.8157 N   0  0  0  0  0  0  0  0  0  0  0  0
  -40.1538   61.2080   66.1305 O   0  0  0  0  0  0  0  0  0  0  0  0
  -39.7935   60.1330   65.6598 C   0  0  0  0  0  0  0  0  0  0  0  0
  -38.5316   59.1263   64.4778 H   0  0  0  0  0  0  0  0  0  0  0  0
  -40.5015   58.8451   65.9996 C   0  0  0  0  0  0  0  0  0  0  0  0
  -41.9940   59.0420   66.2325 C   0  0  0  0  0  0  0  0  0  0  0  0
  -42.7289   57.7319   66.4663 C   0  0  0  0  0  0  0  0  0  0  0  0
  -43.6361   57.3210   65.3184 C   0  0  0  0  0  0  0  0  0  0  0  0
  -45.1007   57.6694   65.5366 C   0  0  0  0  0  0  0  0  0  0  0  0
  -45.4592   57.9598   66.9885 C   0  0  0  0  0  0  0  0  0  0  0  0
  -46.8556   57.4967   67.3836 C   0  0  0  0  0  0  0  0  0  0  0  0
  -47.7233   57.0330   66.2165 C   0  0  0  0  0  0  0  0  0  0  0  0
  -48.9945   57.8577   66.0204 C   0  0  0  0  0  0  0  0  0  0  0  0
  -48.7854   59.3711   66.0653 C   0  0  0  0  0  0  0  0  0  0  0  0
  -47.9668   59.9079   64.8909 C   0  0  0  0  0  0  0  0  0  0  0  0
  -48.5666   61.1248   64.1865 C   0  0  0  0  0  0  0  0  0  0  0  0
  -49.4920   60.7985   63.0112 C   0  0  0  0  0  0  0  0  0  0  0  0
  -50.7897   60.1804   63.4447 C   0  0  0  0  0  0  0  0  0  0  0  0
  -51.2065   58.9608   63.1537 C   0  0  0  0  0  0  0  0  0  0  0  0
  -50.4661   57.9479   62.3342 C   0  0  0  0  0  0  0  0  0  0  0  0
  -51.1431   57.6220   61.0012 C   0  0  0  0  0  0  0  0  0  0  0  0
  -50.2273   57.8098   59.7990 C   0  0  0  0  0  0  0  0  0  0  0  0
  -48.7727   57.4545   60.0853 C   0  0  0  0  0  0  0  0  0  0  0  0
  -48.2802   56.1951   59.3815 C   0  0  0  0  0  0  0  0  0  0  0  0
  -46.9738   56.3872   58.6242 C   0  0  0  0  0  0  0  0  0  0  0  0
  -46.8957   57.6857   57.8372 C   0  0  0  0  0  0  0  0  0  0  0  0
  -47.6281   57.6169   56.5125 C   0  0  0  0  0  0  0  0  0  0  0  0
  -37.1193   62.2531   62.3894 O   0  0  0  0  0  0  0  0  0  0  0  0
  -37.6937   61.0314   62.8625 C   0  0  0  0  0  0  0  0  0  0  0  0
  -36.3136   62.4480   62.8933 H   0  0  0  0  0  0  0  0  0  0  0  0
  -38.9427   60.6980   62.1054 C   0  0  0  0  0  0  0  0  0  0  0  0
  -38.9813   60.2562   60.8639 C   0  0  0  0  0  0  0  0  0  0  0  0
  -40.2436   59.9180   60.1407 C   0  0  0  0  0  0  0  0  0  0  0  0
  -41.3856   59.6502   61.1231 C   0  0  0  0  0  0  0  0  0  0  0  0
  -41.8202   58.1951   61.1916 C   0  0  0  0  0  0  0  0  0  0  0  0
  -41.7877   57.5985   62.5883 C   0  0  0  0  0  0  0  0  0  0  0  0
  -40.3967   57.1982   63.0580 C   0  0  0  0  0  0  0  0  0  0  0  0
  -39.4776   56.7495   61.9323 C   0  0  0  0  0  0  0  0  0  0  0  0
  -38.0144   57.0798   62.1686 C   0  0  0  0  0  0  0  0  0  0  0  0
  -37.6566   57.2929   63.6277 C   0  0  0  0  0  0  0  0  0  0  0  0
  -36.2174   57.7243   63.8517 C   0  0  0  0  0  0  0  0  0  0  0  0
  -35.4767   58.0144   62.5595 C   0  0  0  0  0  0  0  0  0  0  0  0
  -34.1666   57.2658   62.4068 C   0  0  0  0  0  0  0  0  0  0  0  0
  -32.9583   58.1585   62.6113 C   0  0  0  0  0  0  0  0  0  0  0  0
  -32.6826   58.4357   64.0748 C   0  0  0  0  0  0  0  0  0  0  0  0
  -36.6875   61.2461   65.1748 C   0  0  0  0  0  0  0  0  0  0  0  0
  -36.5415   62.5903   65.6467 O   0  0  0  0  0  0  0  0  0  0  0  0
  -34.0275   61.3661   65.4976 O   0  0  0  0  0  0  0  0  0  0  0  0
  -34.4976   63.3941   61.7309 O   0  0  0  0  0  0  0  0  0  0  0  0
  -35.8839   64.1936   64.1217 O   0  0  0  0  0  0  0  0  0  0  0  0
  -35.4489   63.2745   65.1064 C   0  0  0  0  0  0  0  0  0  0  0  0
  -34.5072   62.2479   64.4903 C   0  0  0  0  0  0  0  0  0  0  0  0
  -33.3418   62.9561   63.8111 C   0  0  0  0  0  0  0  0  0  0  0  0
  -33.8384   64.0101   62.8325 C   0  0  0  0  0  0  0  0  0  0  0  0
  -34.8098   64.9507   63.5412 C   0  0  0  0  0  0  0  0  0  0  0  0
  -34.7779   60.9217   65.9224 H   0  0  0  0  0  0  0  0  0  0  0  0
  -33.8820   62.7959   61.2790 H   0  0  0  0  0  0  0  0  0  0  0  0
  -34.5134   66.4277   61.6387 O   0  0  0  0  0  0  0  0  0  0  0  0
  -35.4397   65.9638   62.6143 C   0  0  0  0  0  0  0  0  0  0  0  0
  -34.9485   67.0746   61.0616 H   0  0  0  0  0  0  0  0  0  0  0  0
  -32.6442   61.8998   63.0782 O   0  0  0  0  0  0  0  0  0  0  0  0
  -30.5555   63.0278   63.4919 O   0  0  0  0  0  0  0  0  0  0  0  0
  -31.2577   62.4583   61.1471 O   0  0  0  0  0  0  0  0  0  0  0  0
  -30.5738   60.7886   62.6902 O   0  0  0  0  0  0  0  0  0  0  0  0
  -31.1806   62.1926   62.5345 S   0  0  0  0  0  0  0  0  0  0  0  0
  -30.9156   63.9257   63.4220 H   0  0  0  0  0  0  0  0  0  0  0  0
  -30.5044   60.5690   63.6325 H   0  0  0  0  0  0  0  0  0  0  0  0
  2  1  1  0  0  0
  2  4  1  0  0  0
  2  5  1  0  0  0
 47 48  1  0  0  0
 47  1  1  0  0  0
 48 52  1  0  0  0
  1 30  1  0  0  0
 29 30  1  0  0  0
 29 31  1  0  0  0
 30 32  1  0  0  0
  3  4  2  0  0  0
 32 33  2  0  0  0
 49 53  1  0  0  0
 49 57  1  0  0  0
 33 34  1  0  0  0
 62 54  1  0  0  0
 62 66  1  0  0  0
 34 35  1  0  0  0
 50 55  1  0  0  0
 50 58  1  0  0  0
 35 36  1  0  0  0
 51 52  1  0  0  0
 51 56  1  0  0  0
 36 37  1  0  0  0
 59 60  1  0  0  0
 59 61  1  0  0  0
 37 38  1  0  0  0
 63 66  1  0  0  0
 63 67  1  0  0  0
 38 39  1  0  0  0
 64 66  1  0  0  0
 39 40  1  0  0  0
 65 66  1  0  0  0
 65 68  1  0  0  0
 40 41  1  0  0  0
 41 42  1  0  0  0
 42 43  1  0  0  0
 43 44  1  0  0  0
 44 45  1  0  0  0
 45 46  1  0  0  0
  4  6  1  0  0  0
  6  7  1  0  0  0
  7  8  1  0  0  0
  8  9  1  0  0  0
  9 10  1  0  0  0
 10 11  1  0  0  0
 11 12  1  0  0  0
 12 13  1  0  0  0
 13 14  1  0  0  0
 14 15  1  0  0  0
 15 16  1  0  0  0
 16 17  1  0  0  0
 17 18  1  0  0  0
 18 19  1  0  0  0
 19 20  2  0  0  0
 20 21  1  0  0  0
 21 22  1  0  0  0
 22 23  1  0  0  0
 23 24  1  0  0  0
 24 25  1  0  0  0
 25 26  1  0  0  0
 26 27  1  0  0  0
 27 28  1  0  0  0
 52 53  1  0  0  0
 53 54  1  0  0  0
 54 55  1  0  0  0
 55 56  1  0  0  0
 56 60  1  0  0  0
M  CHG 1  64  -1
M  END
> <minimizedAffinity>
-8.93589

> <CNNscore>
0.1251963079

> <CNNaffinity>
7.3715171814

> <CNN_VS>
0.9228867292

> <CNNaffinity_variance>
1.2764573097

$$$$
/media/chris/experiments/cd1a-new-docking/inputs/ligands/7ryn_ligand.pdb


 68 68  0  0  0  0  0  0  0  0999 V2000
  -37.5365   58.6710   60.9522 C   0  0  0  0  0  0  0  0  0  0  0  0
  -38.8254   58.0979   60.5762 N   0  0  0  0  0  0  0  0  0  0  0  0
  -39.6787   59.9908   59.7065 O   0  0  0  0  0  0  0  0  0  0  0  0
  -39.7947   58.8005   59.9838 C   0  0  0  0  0  0  0  0  0  0  0  0
  -38.9885   57.1463   60.7690 H   0  0  0  0  0  0  0  0  0  0  0  0
  -41.0540   58.0342   59.6642 C   0  0  0  0  0  0  0  0  0  0  0  0
  -41.8504   57.6718   60.9112 C   0  0  0  0  0  0  0  0  0  0  0  0
  -41.4594   56.3191   61.4843 C   0  0  0  0  0  0  0  0  0  0  0  0
  -41.6077   56.2233   62.9936 C   0  0  0  0  0  0  0  0  0  0  0  0
  -42.5800   57.2346   63.5818 C   0  0  0  0  0  0  0  0  0  0  0  0
  -43.2757   56.7599   64.8512 C   0  0  0  0  0  0  0  0  0  0  0  0
  -44.5092   57.5740   65.2200 C   0  0  0  0  0  0  0  0  0  0  0  0
  -44.2733   58.6283   66.2985 C   0  0  0  0  0  0  0  0  0  0  0  0
  -45.4405   58.7962   67.2701 C   0  0  0  0  0  0  0  0  0  0  0  0
  -46.6801   57.9712   66.9254 C   0  0  0  0  0  0  0  0  0  0  0  0
  -47.9352   58.8178   66.7118 C   0  0  0  0  0  0  0  0  0  0  0  0
  -48.8510   58.3442   65.5832 C   0  0  0  0  0  0  0  0  0  0  0  0
  -48.3370   58.6348   64.1706 C   0  0  0  0  0  0  0  0  0  0  0  0
  -48.9907   59.8341   63.5474 C   0  0  0  0  0  0  0  0  0  0  0  0
  -50.1737   59.8582   62.9594 C   0  0  0  0  0  0  0  0  0  0  0  0
  -51.1026   58.6931   62.7988 C   0  0  0  0  0  0  0  0  0  0  0  0
  -50.8459   57.8723   61.5332 C   0  0  0  0  0  0  0  0  0  0  0  0
  -49.8736   58.5396   60.5696 C   0  0  0  0  0  0  0  0  0  0  0  0
  -49.5449   57.6832   59.3520 C   0  0  0  0  0  0  0  0  0  0  0  0
  -48.7479   56.4218   59.6641 C   0  0  0  0  0  0  0  0  0  0  0  0
  -47.4042   56.3538   58.9519 C   0  0  0  0  0  0  0  0  0  0  0  0
  -47.4901   56.5241   57.4435 C   0  0  0  0  0  0  0  0  0  0  0  0
  -46.9111   57.8401   56.9651 C   0  0  0  0  0  0  0  0  0  0  0  0
  -37.3441   57.1395   62.8102 O   0  0  0  0  0  0  0  0  0  0  0  0
  -36.6765   57.5912   61.6284 C   0  0  0  0  0  0  0  0  0  0  0  0
  -38.2273   56.8127   62.5778 H   0  0  0  0  0  0  0  0  0  0  0  0
  -35.3062   58.1041   61.9498 C   0  0  0  0  0  0  0  0  0  0  0  0
  -34.3615   57.4136   62.5571 C   0  0  0  0  0  0  0  0  0  0  0  0
  -32.9984   57.9490   62.8504 C   0  0  0  0  0  0  0  0  0  0  0  0
  -32.8232   59.3545   62.2718 C   0  0  0  0  0  0  0  0  0  0  0  0
  -31.4105   59.9040   62.3868 C   0  0  0  0  0  0  0  0  0  0  0  0
  -31.0394   60.9044   61.3055 C   0  0  0  0  0  0  0  0  0  0  0  0
  -30.5991   62.2592   61.8407 C   0  0  0  0  0  0  0  0  0  0  0  0
  -30.9585   62.4851   63.3012 C   0  0  0  0  0  0  0  0  0  0  0  0
  -30.6847   63.8973   63.7874 C   0  0  0  0  0  0  0  0  0  0  0  0
  -31.3866   64.2514   65.0852 C   0  0  0  0  0  0  0  0  0  0  0  0
  -32.4888   65.2846   64.9267 C   0  0  0  0  0  0  0  0  0  0  0  0
  -32.6972   65.7139   63.4863 C   0  0  0  0  0  0  0  0  0  0  0  0
  -34.1444   65.9713   63.1127 C   0  0  0  0  0  0  0  0  0  0  0  0
  -34.7272   64.8710   62.2475 C   0  0  0  0  0  0  0  0  0  0  0  0
  -33.6715   64.1538   61.4316 C   0  0  0  0  0  0  0  0  0  0  0  0
  -37.7445   59.8752   61.8471 C   0  0  0  0  0  0  0  0  0  0  0  0
  -36.5520   60.0784   62.6135 O   0  0  0  0  0  0  0  0  0  0  0  0
  -35.3301   61.9273   64.3251 O   0  0  0  0  0  0  0  0  0  0  0  0
  -39.3188   61.4544   65.8706 O   0  0  0  0  0  0  0  0  0  0  0  0
  -38.0043   59.4411   64.2907 O   0  0  0  0  0  0  0  0  0  0  0  0
  -36.7355   59.9954   63.9967 C   0  0  0  0  0  0  0  0  0  0  0  0
  -36.6282   61.4017   64.5720 C   0  0  0  0  0  0  0  0  0  0  0  0
  -36.9087   61.3715   66.0691 C   0  0  0  0  0  0  0  0  0  0  0  0
  -38.2311   60.6788   66.3635 C   0  0  0  0  0  0  0  0  0  0  0  0
  -38.2487   59.3041   65.6998 C   0  0  0  0  0  0  0  0  0  0  0  0
  -35.1633   61.9413   63.3696 H   0  0  0  0  0  0  0  0  0  0  0  0
  -39.3095   62.3284   66.2911 H   0  0  0  0  0  0  0  0  0  0  0  0
  -40.5905   59.2096   65.0706 O   0  0  0  0  0  0  0  0  0  0  0  0
  -39.5717   58.5896   65.8469 C   0  0  0  0  0  0  0  0  0  0  0  0
  -41.4242   58.7277   65.1872 H   0  0  0  0  0  0  0  0  0  0  0  0
  -36.9984   62.7792   66.4566 O   0  0  0  0  0  0  0  0  0  0  0  0
  -36.3450   63.1865   68.7399 O   0  0  0  0  0  0  0  0  0  0  0  0
  -35.4295   64.6027   66.8767 O   0  0  0  0  0  0  0  0  0  0  0  0
  -34.7692   62.3414   67.1715 O   0  0  0  0  0  0  0  0  0  0  0  0
  -35.8809   63.3751   67.4156 S   0  0  0  0  0  0  0  0  0  0  0  0
  -37.0503   63.8248   68.9294 H   0  0  0  0  0  0  0  0  0  0  0  0
  -35.0426   61.4820   67.5287 H   0  0  0  0  0  0  0  0  0  0  0  0
  2  1  1  0  0  0
  2  4  1  0  0  0
  2  5  1  0  0  0
 47 48  1  0  0  0
 47  1  1  0  0  0
 48 52  1  0  0  0
  1 30  1  0  0  0
 29 30  1  0  0  0
 29 31  1  0  0  0
 30 32  1  0  0  0
  3  4  2  0  0  0
 32 33  2  0  0  0
 49 53  1  0  0  0
 49 57  1  0  0  0
 33 34  1  0  0  0
 62 54  1  0  0  0
 62 66  1  0  0  0
 34 35  1  0  0  0
 50 55  1  0  0  0
 50 58  1  0  0  0
 35 36  1  0  0  0
 51 52  1  0  0  0
 51 56  1  0  0  0
 36 37  1  0  0  0
 59 60  1  0  0  0
 59 61  1  0  0  0
 37 38  1  0  0  0
 63 66  1  0  0  0
 63 67  1  0  0  0
 38 39  1  0  0  0
 64 66  1  0  0  0
 39 40  1  0  0  0
 65 66  1  0  0  0
 65 68  1  0  0  0
 40 41  1  0  0  0
 41 42  1  0  0  0
 42 43  1  0  0  0
 43 44  1  0  0  0
 44 45  1  0  0  0
 45 46  1  0  0  0
  4  6  1  0  0  0
  6  7  1  0  0  0
  7  8  1  0  0  0
  8  9  1  0  0  0
  9 10  1  0  0  0
 10 11  1  0  0  0
 11 12  1  0  0  0
 12 13  1  0  0  0
 13 14  1  0  0  0
 14 15  1  0  0  0
 15 16  1  0  0  0
 16 17  1  0  0  0
 17 18  1  0  0  0
 18 19  1  0  0  0
 19 20  2  0  0  0
 20 21  1  0  0  0
 21 22  1  0  0  0
 22 23  1  0  0  0
 23 24  1  0  0  0
 24 25  1  0  0  0
 25 26  1  0  0  0
 26 27  1  0  0  0
 27 28  1  0  0  0
 52 53  1  0  0  0
 53 54  1  0  0  0
 54 55  1  0  0  0
 55 56  1  0  0  0
 56 60  1  0  0  0
M  CHG 1  64  -1
M  END
> <minimizedAffinity>
-8.88427

> <CNNscore>
0.1235874891

> <CNNaffinity>
7.0315141678

> <CNN_VS>
0.8690071702

> <CNNaffinity_variance>
0.9996324778

$$$$
/media/chris/experiments/cd1a-new-docking/inputs/ligands/7ryn_ligand.pdb


 68 68  0  0  0  0  0  0  0  0999 V2000
  -36.6568   60.6473   64.5315 C   0  0  0  0  0  0  0  0  0  0  0  0
  -37.7085   59.7311   64.9625 N   0  0  0  0  0  0  0  0  0  0  0  0
  -38.7461   61.1905   66.3267 O   0  0  0  0  0  0  0  0  0  0  0  0
  -38.6696   60.0728   65.8248 C   0  0  0  0  0  0  0  0  0  0  0  0
  -37.7094   58.8159   64.5996 H   0  0  0  0  0  0  0  0  0  0  0  0
  -39.6734   58.9932   66.1445 C   0  0  0  0  0  0  0  0  0  0  0  0
  -41.0806   59.3471   65.6807 C   0  0  0  0  0  0  0  0  0  0  0  0
  -41.9866   59.7699   66.8260 C   0  0  0  0  0  0  0  0  0  0  0  0
  -43.2667   58.9578   66.9310 C   0  0  0  0  0  0  0  0  0  0  0  0
  -43.1474   57.5466   66.3755 C   0  0  0  0  0  0  0  0  0  0  0  0
  -44.0947   57.2536   65.2191 C   0  0  0  0  0  0  0  0  0  0  0  0
  -44.6918   58.5006   64.5796 C   0  0  0  0  0  0  0  0  0  0  0  0
  -46.2020   58.6401   64.7523 C   0  0  0  0  0  0  0  0  0  0  0  0
  -46.6621   58.6623   66.2092 C   0  0  0  0  0  0  0  0  0  0  0  0
  -47.8136   57.7092   66.5282 C   0  0  0  0  0  0  0  0  0  0  0  0
  -49.0684   57.9695   65.6945 C   0  0  0  0  0  0  0  0  0  0  0  0
  -49.7161   59.3373   65.9096 C   0  0  0  0  0  0  0  0  0  0  0  0
  -49.9283   60.1580   64.6346 C   0  0  0  0  0  0  0  0  0  0  0  0
  -51.2619   59.9048   63.9933 C   0  0  0  0  0  0  0  0  0  0  0  0
  -51.4943   59.0981   62.9730 C   0  0  0  0  0  0  0  0  0  0  0  0
  -50.4733   58.2711   62.2522 C   0  0  0  0  0  0  0  0  0  0  0  0
  -50.9928   57.6455   60.9560 C   0  0  0  0  0  0  0  0  0  0  0  0
  -50.0664   57.8660   59.7675 C   0  0  0  0  0  0  0  0  0  0  0  0
  -48.6164   57.4921   60.0533 C   0  0  0  0  0  0  0  0  0  0  0  0
  -48.2182   56.0995   59.5782 C   0  0  0  0  0  0  0  0  0  0  0  0
  -47.1375   56.1032   58.5061 C   0  0  0  0  0  0  0  0  0  0  0  0
  -47.6317   56.5049   57.1256 C   0  0  0  0  0  0  0  0  0  0  0  0
  -47.2465   57.9216   56.7509 C   0  0  0  0  0  0  0  0  0  0  0  0
  -36.3636   62.3994   62.8947 O   0  0  0  0  0  0  0  0  0  0  0  0
  -36.9376   61.1039   63.0908 C   0  0  0  0  0  0  0  0  0  0  0  0
  -35.4141   62.3653   63.0902 H   0  0  0  0  0  0  0  0  0  0  0  0
  -38.4066   61.1187   62.7975 C   0  0  0  0  0  0  0  0  0  0  0  0
  -38.9905   60.4582   61.8173 C   0  0  0  0  0  0  0  0  0  0  0  0
  -40.4615   60.4815   61.5597 C   0  0  0  0  0  0  0  0  0  0  0  0
  -40.7806   59.9860   60.1477 C   0  0  0  0  0  0  0  0  0  0  0  0
  -40.2175   58.6107   59.8278 C   0  0  0  0  0  0  0  0  0  0  0  0
  -41.1849   57.4662   60.0767 C   0  0  0  0  0  0  0  0  0  0  0  0
  -42.2258   57.7577   61.1478 C   0  0  0  0  0  0  0  0  0  0  0  0
  -41.7994   57.3346   62.5451 C   0  0  0  0  0  0  0  0  0  0  0  0
  -40.5768   56.4342   62.5654 C   0  0  0  0  0  0  0  0  0  0  0  0
  -39.3305   57.0965   63.1227 C   0  0  0  0  0  0  0  0  0  0  0  0
  -38.1631   57.1271   62.1512 C   0  0  0  0  0  0  0  0  0  0  0  0
  -36.8150   57.1879   62.8451 C   0  0  0  0  0  0  0  0  0  0  0  0
  -35.7077   57.8014   62.0098 C   0  0  0  0  0  0  0  0  0  0  0  0
  -34.3260   57.4137   62.4989 C   0  0  0  0  0  0  0  0  0  0  0  0
  -33.2221   58.1183   61.7377 C   0  0  0  0  0  0  0  0  0  0  0  0
  -35.3023   59.9824   64.6635 C   0  0  0  0  0  0  0  0  0  0  0  0
  -34.3927   60.6311   63.7677 O   0  0  0  0  0  0  0  0  0  0  0  0
  -32.1700   61.6422   62.3972 O   0  0  0  0  0  0  0  0  0  0  0  0
  -33.8682   65.0428   64.4157 O   0  0  0  0  0  0  0  0  0  0  0  0
  -34.2509   62.3372   65.3161 O   0  0  0  0  0  0  0  0  0  0  0  0
  -33.5365   61.5496   64.3819 C   0  0  0  0  0  0  0  0  0  0  0  0
  -32.9361   62.4337   63.2966 C   0  0  0  0  0  0  0  0  0  0  0  0
  -32.0614   63.5086   63.9293 C   0  0  0  0  0  0  0  0  0  0  0  0
  -32.8240   64.2724   65.0019 C   0  0  0  0  0  0  0  0  0  0  0  0
  -33.4228   63.2886   66.0040 C   0  0  0  0  0  0  0  0  0  0  0  0
  -32.7372   60.9622   62.0013 H   0  0  0  0  0  0  0  0  0  0  0  0
  -33.4898   65.6686   63.7786 H   0  0  0  0  0  0  0  0  0  0  0  0
  -33.6706   65.1163   67.5810 O   0  0  0  0  0  0  0  0  0  0  0  0
  -34.2930   63.9547   67.0439 C   0  0  0  0  0  0  0  0  0  0  0  0
  -34.2538   65.5186   68.2434 H   0  0  0  0  0  0  0  0  0  0  0  0
  -31.7320   64.4126   62.8275 O   0  0  0  0  0  0  0  0  0  0  0  0
  -33.0025   66.0801   61.6392 O   0  0  0  0  0  0  0  0  0  0  0  0
  -33.8703   63.7324   61.8641 O   0  0  0  0  0  0  0  0  0  0  0  0
  -32.0222   64.2562   60.4689 O   0  0  0  0  0  0  0  0  0  0  0  0
  -32.8284   64.6766   61.7087 S   0  0  0  0  0  0  0  0  0  0  0  0
  -33.5094   66.3816   62.4093 H   0  0  0  0  0  0  0  0  0  0  0  0
  -31.2949   64.8825   60.3284 H   0  0  0  0  0  0  0  0  0  0  0  0
  2  1  1  0  0  0
  2  4  1  0  0  0
  2  5  1  0  0  0
 47 48  1  0  0  0
 47  1  1  0  0  0
 48 52  1  0  0  0
  1 30  1  0  0  0
 29 30  1  0  0  0
 29 31  1  0  0  0
 30 32  1  0  0  0
  3  4  2  0  0  0
 32 33  2  0  0  0
 49 53  1  0  0  0
 49 57  1  0  0  0
 33 34  1  0  0  0
 62 54  1  0  0  0
 62 66  1  0  0  0
 34 35  1  0  0  0
 50 55  1  0  0  0
 50 58  1  0  0  0
 35 36  1  0  0  0
 51 52  1  0  0  0
 51 56  1  0  0  0
 36 37  1  0  0  0
 59 60  1  0  0  0
 59 61  1  0  0  0
 37 38  1  0  0  0
 63 66  1  0  0  0
 63 67  1  0  0  0
 38 39  1  0  0  0
 64 66  1  0  0  0
 39 40  1  0  0  0
 65 66  1  0  0  0
 65 68  1  0  0  0
 40 41  1  0  0  0
 41 42  1  0  0  0
 42 43  1  0  0  0
 43 44  1  0  0  0
 44 45  1  0  0  0
 45 46  1  0  0  0
  4  6  1  0  0  0
  6  7  1  0  0  0
  7  8  1  0  0  0
  8  9  1  0  0  0
  9 10  1  0  0  0
 10 11  1  0  0  0
 11 12  1  0  0  0
 12 13  1  0  0  0
 13 14  1  0  0  0
 14 15  1  0  0  0
 15 16  1  0  0  0
 16 17  1  0  0  0
 17 18  1  0  0  0
 18 19  1  0  0  0
 19 20  2  0  0  0
 20 21  1  0  0  0
 21 22  1  0  0  0
 22 23  1  0  0  0
 23 24  1  0  0  0
 24 25  1  0  0  0
 25 26  1  0  0  0
 26 27  1  0  0  0
 27 28  1  0  0  0
 52 53  1  0  0  0
 53 54  1  0  0  0
 54 55  1  0  0  0
 55 56  1  0  0  0
 56 60  1  0  0  0
M  CHG 1  64  -1
M  END
> <minimizedAffinity>
-9.55143

> <CNNscore>
0.1016907319

> <CNNaffinity>
7.2005195618

> <CNN_VS>
0.7322261333

> <CNNaffinity_variance>
1.5175409317

$$$$
/media/chris/experiments/cd1a-new-docking/inputs/ligands/7ryn_ligand.pdb


 68 68  0  0  0  0  0  0  0  0999 V2000
  -34.6387   59.3623   63.3130 C   0  0  0  0  0  0  0  0  0  0  0  0
  -35.6385   59.6528   64.3363 N   0  0  0  0  0  0  0  0  0  0  0  0
  -36.6397   61.3293   63.2162 O   0  0  0  0  0  0  0  0  0  0  0  0
  -36.5596   60.6117   64.2090 C   0  0  0  0  0  0  0  0  0  0  0  0
  -35.6337   59.1154   65.1611 H   0  0  0  0  0  0  0  0  0  0  0  0
  -37.5132   60.7585   65.3685 C   0  0  0  0  0  0  0  0  0  0  0  0
  -38.6401   59.7340   65.3323 C   0  0  0  0  0  0  0  0  0  0  0  0
  -39.8147   60.1228   66.2156 C   0  0  0  0  0  0  0  0  0  0  0  0
  -41.1724   59.8228   65.6024 C   0  0  0  0  0  0  0  0  0  0  0  0
  -42.0463   58.9161   66.4560 C   0  0  0  0  0  0  0  0  0  0  0  0
  -42.8723   57.9179   65.6547 C   0  0  0  0  0  0  0  0  0  0  0  0
  -43.6406   58.5418   64.4967 C   0  0  0  0  0  0  0  0  0  0  0  0
  -45.1585   58.5187   64.6579 C   0  0  0  0  0  0  0  0  0  0  0  0
  -45.6377   57.8379   65.9390 C   0  0  0  0  0  0  0  0  0  0  0  0
  -46.2395   58.7849   66.9769 C   0  0  0  0  0  0  0  0  0  0  0  0
  -47.7167   59.0950   66.7343 C   0  0  0  0  0  0  0  0  0  0  0  0
  -48.5173   57.9653   66.0865 C   0  0  0  0  0  0  0  0  0  0  0  0
  -49.0184   58.2599   64.6701 C   0  0  0  0  0  0  0  0  0  0  0  0
  -48.7362   59.6681   64.2327 C   0  0  0  0  0  0  0  0  0  0  0  0
  -49.2826   60.2871   63.2012 C   0  0  0  0  0  0  0  0  0  0  0  0
  -50.2966   59.7084   62.2615 C   0  0  0  0  0  0  0  0  0  0  0  0
  -49.6808   58.9987   61.0538 C   0  0  0  0  0  0  0  0  0  0  0  0
  -50.3493   57.6689   60.7315 C   0  0  0  0  0  0  0  0  0  0  0  0
  -49.3924   56.6370   60.1453 C   0  0  0  0  0  0  0  0  0  0  0  0
  -48.0917   57.2185   59.6034 C   0  0  0  0  0  0  0  0  0  0  0  0
  -47.2401   56.2118   58.8427 C   0  0  0  0  0  0  0  0  0  0  0  0
  -47.4688   56.2132   57.3395 C   0  0  0  0  0  0  0  0  0  0  0  0
  -47.4601   57.6062   56.7435 C   0  0  0  0  0  0  0  0  0  0  0  0
  -34.0006   57.7534   61.6280 O   0  0  0  0  0  0  0  0  0  0  0  0
  -34.9436   57.9971   62.6758 C   0  0  0  0  0  0  0  0  0  0  0  0
  -33.1003   57.7980   61.9864 H   0  0  0  0  0  0  0  0  0  0  0  0
  -36.3479   57.9359   62.1577 C   0  0  0  0  0  0  0  0  0  0  0  0
  -37.3078   57.1825   62.6569 C   0  0  0  0  0  0  0  0  0  0  0  0
  -38.7038   57.1550   62.1266 C   0  0  0  0  0  0  0  0  0  0  0  0
  -39.7252   57.1598   63.2658 C   0  0  0  0  0  0  0  0  0  0  0  0
  -40.9790   56.3485   62.9819 C   0  0  0  0  0  0  0  0  0  0  0  0
  -41.3628   56.2850   61.5134 C   0  0  0  0  0  0  0  0  0  0  0  0
  -42.0941   57.5214   61.0110 C   0  0  0  0  0  0  0  0  0  0  0  0
  -41.5075   58.1007   59.7329 C   0  0  0  0  0  0  0  0  0  0  0  0
  -40.1336   58.7207   59.9164 C   0  0  0  0  0  0  0  0  0  0  0  0
  -40.1642   60.1832   60.3195 C   0  0  0  0  0  0  0  0  0  0  0  0
  -39.9754   60.4151   61.8089 C   0  0  0  0  0  0  0  0  0  0  0  0
  -41.2715   60.7404   62.5279 C   0  0  0  0  0  0  0  0  0  0  0  0
  -42.3846   61.2302   61.6216 C   0  0  0  0  0  0  0  0  0  0  0  0
  -43.1873   62.3571   62.2417 C   0  0  0  0  0  0  0  0  0  0  0  0
  -42.4815   62.9907   63.4228 C   0  0  0  0  0  0  0  0  0  0  0  0
  -33.2497   59.4113   63.9152 C   0  0  0  0  0  0  0  0  0  0  0  0
  -32.4464   60.2939   63.1237 O   0  0  0  0  0  0  0  0  0  0  0  0
  -31.4638   62.3619   61.5117 O   0  0  0  0  0  0  0  0  0  0  0  0
  -34.9117   64.0298   63.4745 O   0  0  0  0  0  0  0  0  0  0  0  0
  -33.4087   61.8275   64.5556 O   0  0  0  0  0  0  0  0  0  0  0  0
  -32.3805   61.6031   63.6091 C   0  0  0  0  0  0  0  0  0  0  0  0
  -32.5346   62.5524   62.4278 C   0  0  0  0  0  0  0  0  0  0  0  0
  -32.5564   63.9936   62.9211 C   0  0  0  0  0  0  0  0  0  0  0  0
  -33.6014   64.1825   64.0108 C   0  0  0  0  0  0  0  0  0  0  0  0
  -33.3835   63.1507   65.1147 C   0  0  0  0  0  0  0  0  0  0  0  0
  -31.4604   61.4416   61.2052 H   0  0  0  0  0  0  0  0  0  0  0  0
  -35.0522   64.6846   62.7729 H   0  0  0  0  0  0  0  0  0  0  0  0
  -33.9065   62.9092   67.4720 O   0  0  0  0  0  0  0  0  0  0  0  0
  -34.4472   63.1930   66.1866 C   0  0  0  0  0  0  0  0  0  0  0  0
  -34.6135   62.9445   68.1351 H   0  0  0  0  0  0  0  0  0  0  0  0
  -32.9290   64.7807   61.7459 O   0  0  0  0  0  0  0  0  0  0  0  0
  -31.4652   65.1006   59.8587 O   0  0  0  0  0  0  0  0  0  0  0  0
  -30.9281   66.1393   62.0831 O   0  0  0  0  0  0  0  0  0  0  0  0
  -32.7156   66.9254   60.7326 O   0  0  0  0  0  0  0  0  0  0  0  0
  -31.8315   65.7164   61.0799 S   0  0  0  0  0  0  0  0  0  0  0  0
  -30.9043   64.3303   60.0404 H   0  0  0  0  0  0  0  0  0  0  0  0
  -33.3515   66.6740   60.0446 H   0  0  0  0  0  0  0  0  0  0  0  0
  2  1  1  0  0  0
  2  4  1  0  0  0
  2  5  1  0  0  0
 47 48  1  0  0  0
 47  1  1  0  0  0
 48 52  1  0  0  0
  1 30  1  0  0  0
 29 30  1  0  0  0
 29 31  1  0  0  0
 30 32  1  0  0  0
  3  4  2  0  0  0
 32 33  2  0  0  0
 49 53  1  0  0  0
 49 57  1  0  0  0
 33 34  1  0  0  0
 62 54  1  0  0  0
 62 66  1  0  0  0
 34 35  1  0  0  0
 50 55  1  0  0  0
 50 58  1  0  0  0
 35 36  1  0  0  0
 51 52  1  0  0  0
 51 56  1  0  0  0
 36 37  1  0  0  0
 59 60  1  0  0  0
 59 61  1  0  0  0
 37 38  1  0  0  0
 63 66  1  0  0  0
 63 67  1  0  0  0
 38 39  1  0  0  0
 64 66  1  0  0  0
 39 40  1  0  0  0
 65 66  1  0  0  0
 65 68  1  0  0  0
 40 41  1  0  0  0
 41 42  1  0  0  0
 42 43  1  0  0  0
 43 44  1  0  0  0
 44 45  1  0  0  0
 45 46  1  0  0  0
  4  6  1  0  0  0
  6  7  1  0  0  0
  7  8  1  0  0  0
  8  9  1  0  0  0
  9 10  1  0  0  0
 10 11  1  0  0  0
 11 12  1  0  0  0
 12 13  1  0  0  0
 13 14  1  0  0  0
 14 15  1  0  0  0
 15 16  1  0  0  0
 16 17  1  0  0  0
 17 18  1  0  0  0
 18 19  1  0  0  0
 19 20  2  0  0  0
 20 21  1  0  0  0
 21 22  1  0  0  0
 22 23  1  0  0  0
 23 24  1  0  0  0
 24 25  1  0  0  0
 25 26  1  0  0  0
 26 27  1  0  0  0
 27 28  1  0  0  0
 52 53  1  0  0  0
 53 54  1  0  0  0
 54 55  1  0  0  0
 55 56  1  0  0  0
 56 60  1  0  0  0
M  CHG 1  64  -1
M  END
> <minimizedAffinity>
-9.33596

> <CNNscore>
0.0953047723

> <CNNaffinity>
7.1615090370

> <CNN_VS>
0.6825259924

> <CNNaffinity_variance>
2.0943801403

$$$$
/media/chris/experiments/cd1a-new-docking/inputs/ligands/7ryn_ligand.pdb


 68 68  0  0  0  0  0  0  0  0999 V2000
  -35.4142   61.9602   63.9316 C   0  0  0  0  0  0  0  0  0  0  0  0
  -36.6718   61.8933   63.1931 N   0  0  0  0  0  0  0  0  0  0  0  0
  -36.3662   59.8094   62.3984 O   0  0  0  0  0  0  0  0  0  0  0  0
  -37.0497   60.8254   62.4853 C   0  0  0  0  0  0  0  0  0  0  0  0
  -37.2711   62.6740   63.2181 H   0  0  0  0  0  0  0  0  0  0  0  0
  -38.3864   60.9394   61.7958 C   0  0  0  0  0  0  0  0  0  0  0  0
  -38.6562   59.7781   60.8475 C   0  0  0  0  0  0  0  0  0  0  0  0
  -40.0297   59.8563   60.2004 C   0  0  0  0  0  0  0  0  0  0  0  0
  -41.1786   59.5951   61.1600 C   0  0  0  0  0  0  0  0  0  0  0  0
  -41.8467   58.2422   60.9662 C   0  0  0  0  0  0  0  0  0  0  0  0
  -41.0256   57.0662   61.4798 C   0  0  0  0  0  0  0  0  0  0  0  0
  -41.5598   56.4575   62.7699 C   0  0  0  0  0  0  0  0  0  0  0  0
  -42.6816   57.2551   63.4299 C   0  0  0  0  0  0  0  0  0  0  0  0
  -42.9737   56.8418   64.8716 C   0  0  0  0  0  0  0  0  0  0  0  0
  -43.4780   57.9719   65.7686 C   0  0  0  0  0  0  0  0  0  0  0  0
  -44.9637   57.8604   66.1116 C   0  0  0  0  0  0  0  0  0  0  0  0
  -45.9127   58.4854   65.0891 C   0  0  0  0  0  0  0  0  0  0  0  0
  -47.2324   59.0038   65.6667 C   0  0  0  0  0  0  0  0  0  0  0  0
  -48.4138   58.1710   65.2610 C   0  0  0  0  0  0  0  0  0  0  0  0
  -49.3464   58.5148   64.3905 C   0  0  0  0  0  0  0  0  0  0  0  0
  -49.4110   59.8050   63.6307 C   0  0  0  0  0  0  0  0  0  0  0  0
  -50.0327   59.6685   62.2392 C   0  0  0  0  0  0  0  0  0  0  0  0
  -50.8229   58.3795   62.0567 C   0  0  0  0  0  0  0  0  0  0  0  0
  -50.5149   57.6614   60.7476 C   0  0  0  0  0  0  0  0  0  0  0  0
  -49.2785   58.1771   60.0205 C   0  0  0  0  0  0  0  0  0  0  0  0
  -48.8462   57.3038   58.8510 C   0  0  0  0  0  0  0  0  0  0  0  0
  -47.4977   57.6802   58.2581 C   0  0  0  0  0  0  0  0  0  0  0  0
  -47.5056   57.7021   56.7430 C   0  0  0  0  0  0  0  0  0  0  0  0
  -34.4304   62.6575   66.0246 O   0  0  0  0  0  0  0  0  0  0  0  0
  -35.6509   62.6620   65.2785 C   0  0  0  0  0  0  0  0  0  0  0  0
  -33.7323   63.0864   65.5052 H   0  0  0  0  0  0  0  0  0  0  0  0
  -36.7539   62.0061   66.0514 C   0  0  0  0  0  0  0  0  0  0  0  0
  -37.3191   60.8569   65.7387 C   0  0  0  0  0  0  0  0  0  0  0  0
  -38.4079   60.2209   66.5392 C   0  0  0  0  0  0  0  0  0  0  0  0
  -39.7459   60.2893   65.8001 C   0  0  0  0  0  0  0  0  0  0  0  0
  -39.8929   59.2699   64.6820 C   0  0  0  0  0  0  0  0  0  0  0  0
  -39.2480   57.9257   64.9734 C   0  0  0  0  0  0  0  0  0  0  0  0
  -38.0075   57.6407   64.1392 C   0  0  0  0  0  0  0  0  0  0  0  0
  -36.7922   57.2498   64.9659 C   0  0  0  0  0  0  0  0  0  0  0  0
  -35.4810   57.3367   64.2050 C   0  0  0  0  0  0  0  0  0  0  0  0
  -34.6077   58.5097   64.6100 C   0  0  0  0  0  0  0  0  0  0  0  0
  -33.1178   58.2288   64.5165 C   0  0  0  0  0  0  0  0  0  0  0  0
  -32.6133   58.1711   63.0866 C   0  0  0  0  0  0  0  0  0  0  0  0
  -32.5610   59.5152   62.3862 C   0  0  0  0  0  0  0  0  0  0  0  0
  -31.1834   60.1463   62.4386 C   0  0  0  0  0  0  0  0  0  0  0  0
  -30.9228   61.0691   61.2659 C   0  0  0  0  0  0  0  0  0  0  0  0
  -34.3609   62.6639   63.1010 C   0  0  0  0  0  0  0  0  0  0  0  0
  -35.0074   63.6672   62.3097 O   0  0  0  0  0  0  0  0  0  0  0  0
  -34.8479   65.4216   64.4864 O   0  0  0  0  0  0  0  0  0  0  0  0
  -30.8760   65.3457   62.8310 O   0  0  0  0  0  0  0  0  0  0  0  0
  -33.2249   64.7223   61.2910 O   0  0  0  0  0  0  0  0  0  0  0  0
  -34.2954   64.8656   62.2058 C   0  0  0  0  0  0  0  0  0  0  0  0
  -33.7637   65.2198   63.5886 C   0  0  0  0  0  0  0  0  0  0  0  0
  -32.9057   66.4761   63.5074 C   0  0  0  0  0  0  0  0  0  0  0  0
  -31.8264   66.3330   62.4444 C   0  0  0  0  0  0  0  0  0  0  0  0
  -32.4641   65.9286   61.1175 C   0  0  0  0  0  0  0  0  0  0  0  0
  -35.3863   64.6158   64.5294 H   0  0  0  0  0  0  0  0  0  0  0  0
  -30.4696   65.6007   63.6740 H   0  0  0  0  0  0  0  0  0  0  0  0
  -30.9629   64.3198   60.0943 O   0  0  0  0  0  0  0  0  0  0  0  0
  -31.4516   65.6548   60.0302 C   0  0  0  0  0  0  0  0  0  0  0  0
  -30.3171   64.1776   59.3848 H   0  0  0  0  0  0  0  0  0  0  0  0
  -32.2810   66.5826   64.8258 O   0  0  0  0  0  0  0  0  0  0  0  0
  -32.0272   64.1872   64.8901 O   0  0  0  0  0  0  0  0  0  0  0  0
  -33.2657   65.3905   66.7159 O   0  0  0  0  0  0  0  0  0  0  0  0
  -30.9091   65.5573   66.4807 O   0  0  0  0  0  0  0  0  0  0  0  0
  -32.2360   65.2919   65.7508 S   0  0  0  0  0  0  0  0  0  0  0  0
  -32.8475   63.9907   64.4113 H   0  0  0  0  0  0  0  0  0  0  0  0
  -30.1752   65.4982   65.8491 H   0  0  0  0  0  0  0  0  0  0  0  0
  2  1  1  0  0  0
  2  4  1  0  0  0
  2  5  1  0  0  0
 47 48  1  0  0  0
 47  1  1  0  0  0
 48 52  1  0  0  0
  1 30  1  0  0  0
 29 30  1  0  0  0
 29 31  1  0  0  0
 30 32  1  0  0  0
  3  4  2  0  0  0
 32 33  2  0  0  0
 49 53  1  0  0  0
 49 57  1  0  0  0
 33 34  1  0  0  0
 62 54  1  0  0  0
 62 66  1  0  0  0
 34 35  1  0  0  0
 50 55  1  0  0  0
 50 58  1  0  0  0
 35 36  1  0  0  0
 51 52  1  0  0  0
 51 56  1  0  0  0
 36 37  1  0  0  0
 59 60  1  0  0  0
 59 61  1  0  0  0
 37 38  1  0  0  0
 63 66  1  0  0  0
 63 67  1  0  0  0
 38 39  1  0  0  0
 64 66  1  0  0  0
 39 40  1  0  0  0
 65 66  1  0  0  0
 65 68  1  0  0  0
 40 41  1  0  0  0
 41 42  1  0  0  0
 42 43  1  0  0  0
 43 44  1  0  0  0
 44 45  1  0  0  0
 45 46  1  0  0  0
  4  6  1  0  0  0
  6  7  1  0  0  0
  7  8  1  0  0  0
  8  9  1  0  0  0
  9 10  1  0  0  0
 10 11  1  0  0  0
 11 12  1  0  0  0
 12 13  1  0  0  0
 13 14  1  0  0  0
 14 15  1  0  0  0
 15 16  1  0  0  0
 16 17  1  0  0  0
 17 18  1  0  0  0
 18 19  1  0  0  0
 19 20  2  0  0  0
 20 21  1  0  0  0
 21 22  1  0  0  0
 22 23  1  0  0  0
 23 24  1  0  0  0
 24 25  1  0  0  0
 25 26  1  0  0  0
 26 27  1  0  0  0
 27 28  1  0  0  0
 52 53  1  0  0  0
 53 54  1  0  0  0
 54 55  1  0  0  0
 55 56  1  0  0  0
 56 60  1  0  0  0
M  CHG 1  64  -1
M  END
> <minimizedAffinity>
-8.54904

> <CNNscore>
0.0948025212

> <CNNaffinity>
7.1206040382

> <CNN_VS>
0.6750512123

> <CNNaffinity_variance>
0.8490993381

$$$$
/media/chris/experiments/cd1a-new-docking/inputs/ligands/7ryn_ligand.pdb


 68 68  0  0  0  0  0  0  0  0999 V2000
  -33.3160   60.4224   63.4496 C   0  0  0  0  0  0  0  0  0  0  0  0
  -33.9856   61.2085   64.4815 N   0  0  0  0  0  0  0  0  0  0  0  0
  -35.5163   62.1340   63.1146 O   0  0  0  0  0  0  0  0  0  0  0  0
  -35.0316   62.0016   64.2347 C   0  0  0  0  0  0  0  0  0  0  0  0
  -33.6496   61.1512   65.4051 H   0  0  0  0  0  0  0  0  0  0  0  0
  -35.5950   62.7293   65.4299 C   0  0  0  0  0  0  0  0  0  0  0  0
  -36.5339   61.8590   66.2554 C   0  0  0  0  0  0  0  0  0  0  0  0
  -37.4382   60.9915   65.3946 C   0  0  0  0  0  0  0  0  0  0  0  0
  -38.4607   60.1928   66.1855 C   0  0  0  0  0  0  0  0  0  0  0  0
  -39.8349   60.1372   65.5352 C   0  0  0  0  0  0  0  0  0  0  0  0
  -40.6125   58.8626   65.8372 C   0  0  0  0  0  0  0  0  0  0  0  0
  -41.9529   59.1047   66.5192 C   0  0  0  0  0  0  0  0  0  0  0  0
  -42.9440   57.9501   66.3965 C   0  0  0  0  0  0  0  0  0  0  0  0
  -44.4041   58.3908   66.3053 C   0  0  0  0  0  0  0  0  0  0  0  0
  -45.1207   57.9609   65.0255 C   0  0  0  0  0  0  0  0  0  0  0  0
  -46.4254   58.7172   64.7745 C   0  0  0  0  0  0  0  0  0  0  0  0
  -47.4525   58.6281   65.9032 C   0  0  0  0  0  0  0  0  0  0  0  0
  -48.3938   59.8305   66.0150 C   0  0  0  0  0  0  0  0  0  0  0  0
  -48.5717   60.5550   64.7121 C   0  0  0  0  0  0  0  0  0  0  0  0
  -49.5900   60.4226   63.8806 C   0  0  0  0  0  0  0  0  0  0  0  0
  -50.7741   59.5242   64.0724 C   0  0  0  0  0  0  0  0  0  0  0  0
  -51.1712   58.7530   62.8118 C   0  0  0  0  0  0  0  0  0  0  0  0
  -49.9848   58.3936   61.9272 C   0  0  0  0  0  0  0  0  0  0  0  0
  -50.3517   57.4754   60.7669 C   0  0  0  0  0  0  0  0  0  0  0  0
  -49.7643   57.8909   59.4230 C   0  0  0  0  0  0  0  0  0  0  0  0
  -48.3390   57.4048   59.2003 C   0  0  0  0  0  0  0  0  0  0  0  0
  -47.6526   58.0219   57.9920 C   0  0  0  0  0  0  0  0  0  0  0  0
  -47.1644   56.9867   56.9992 C   0  0  0  0  0  0  0  0  0  0  0  0
  -32.4930   58.2134   62.9222 O   0  0  0  0  0  0  0  0  0  0  0  0
  -33.1237   58.9820   63.9507 C   0  0  0  0  0  0  0  0  0  0  0  0
  -31.6530   58.6311   62.6754 H   0  0  0  0  0  0  0  0  0  0  0  0
  -34.4268   58.3652   64.3579 C   0  0  0  0  0  0  0  0  0  0  0  0
  -35.4464   58.1462   63.5515 C   0  0  0  0  0  0  0  0  0  0  0  0
  -36.7286   57.5148   63.9851 C   0  0  0  0  0  0  0  0  0  0  0  0
  -37.8234   57.7156   62.9353 C   0  0  0  0  0  0  0  0  0  0  0  0
  -37.3467   58.3899   61.6590 C   0  0  0  0  0  0  0  0  0  0  0  0
  -38.3308   58.3088   60.5046 C   0  0  0  0  0  0  0  0  0  0  0  0
  -39.0612   59.6135   60.2214 C   0  0  0  0  0  0  0  0  0  0  0  0
  -40.5296   59.4279   59.8716 C   0  0  0  0  0  0  0  0  0  0  0  0
  -41.0088   57.9915   59.9852 C   0  0  0  0  0  0  0  0  0  0  0  0
  -42.1627   57.7993   60.9516 C   0  0  0  0  0  0  0  0  0  0  0  0
  -41.8321   58.1718   62.3867 C   0  0  0  0  0  0  0  0  0  0  0  0
  -42.5414   59.4300   62.8518 C   0  0  0  0  0  0  0  0  0  0  0  0
  -41.8175   60.7188   62.5127 C   0  0  0  0  0  0  0  0  0  0  0  0
  -42.5014   61.9412   63.0931 C   0  0  0  0  0  0  0  0  0  0  0  0
  -43.2382   62.7472   62.0433 C   0  0  0  0  0  0  0  0  0  0  0  0
  -32.0014   61.0733   63.0718 C   0  0  0  0  0  0  0  0  0  0  0  0
  -32.2525   62.0247   62.0314 O   0  0  0  0  0  0  0  0  0  0  0  0
  -33.1043   64.1494   60.4186 O   0  0  0  0  0  0  0  0  0  0  0  0
  -33.7822   65.4809   64.4546 O   0  0  0  0  0  0  0  0  0  0  0  0
  -31.8319   63.4780   63.7747 O   0  0  0  0  0  0  0  0  0  0  0  0
  -31.9381   63.3440   62.3696 C   0  0  0  0  0  0  0  0  0  0  0  0
  -33.0450   64.2443   61.8362 C   0  0  0  0  0  0  0  0  0  0  0  0
  -32.7886   65.6856   62.2578 C   0  0  0  0  0  0  0  0  0  0  0  0
  -32.5764   65.7857   63.7612 C   0  0  0  0  0  0  0  0  0  0  0  0
  -31.4851   64.8086   64.1912 C   0  0  0  0  0  0  0  0  0  0  0  0
  -33.2677   63.2281   60.1628 H   0  0  0  0  0  0  0  0  0  0  0  0
  -34.4770   66.1008   64.1828 H   0  0  0  0  0  0  0  0  0  0  0  0
  -32.3375   64.0517   66.3334 O   0  0  0  0  0  0  0  0  0  0  0  0
  -31.2859   64.7606   65.6879 C   0  0  0  0  0  0  0  0  0  0  0  0
  -32.1794   64.0395   67.2903 H   0  0  0  0  0  0  0  0  0  0  0  0
  -34.0098   66.4013   61.8887 O   0  0  0  0  0  0  0  0  0  0  0  0
  -35.7086   65.4016   63.2747 O   0  0  0  0  0  0  0  0  0  0  0  0
  -35.3506   64.6060   60.9179 O   0  0  0  0  0  0  0  0  0  0  0  0
  -36.3168   66.7221   61.3923 O   0  0  0  0  0  0  0  0  0  0  0  0
  -35.3883   65.6122   61.9116 S   0  0  0  0  0  0  0  0  0  0  0  0
  -35.1394   64.7045   63.6366 H   0  0  0  0  0  0  0  0  0  0  0  0
  -36.3688   67.4340   62.0492 H   0  0  0  0  0  0  0  0  0  0  0  0
  2  1  1  0  0  0
  2  4  1  0  0  0
  2  5  1  0  0  0
 47 48  1  0  0  0
 47  1  1  0  0  0
 48 52  1  0  0  0
  1 30  1  0  0  0
 29 30  1  0  0  0
 29 31  1  0  0  0
 30 32  1  0  0  0
  3  4  2  0  0  0
 32 33  2  0  0  0
 49 53  1  0  0  0
 49 57  1  0  0  0
 33 34  1  0  0  0
 62 54  1  0  0  0
 62 66  1  0  0  0
 34 35  1  0  0  0
 50 55  1  0  0  0
 50 58  1  0  0  0
 35 36  1  0  0  0
 51 52  1  0  0  0
 51 56  1  0  0  0
 36 37  1  0  0  0
 59 60  1  0  0  0
 59 61  1  0  0  0
 37 38  1  0  0  0
 63 66  1  0  0  0
 63 67  1  0  0  0
 38 39  1  0  0  0
 64 66  1  0  0  0
 39 40  1  0  0  0
 65 66  1  0  0  0
 65 68  1  0  0  0
 40 41  1  0  0  0
 41 42  1  0  0  0
 42 43  1  0  0  0
 43 44  1  0  0  0
 44 45  1  0  0  0
 45 46  1  0  0  0
  4  6  1  0  0  0
  6  7  1  0  0  0
  7  8  1  0  0  0
  8  9  1  0  0  0
  9 10  1  0  0  0
 10 11  1  0  0  0
 11 12  1  0  0  0
 12 13  1  0  0  0
 13 14  1  0  0  0
 14 15  1  0  0  0
 15 16  1  0  0  0
 16 17  1  0  0  0
 17 18  1  0  0  0
 18 19  1  0  0  0
 19 20  2  0  0  0
 20 21  1  0  0  0
 21 22  1  0  0  0
 22 23  1  0  0  0
 23 24  1  0  0  0
 24 25  1  0  0  0
 25 26  1  0  0  0
 26 27  1  0  0  0
 27 28  1  0  0  0
 52 53  1  0  0  0
 53 54  1  0  0  0
 54 55  1  0  0  0
 55 56  1  0  0  0
 56 60  1  0  0  0
M  CHG 1  64  -1
M  END
> <minimizedAffinity>
-9.33970

> <CNNscore>
0.0906303227

> <CNNaffinity>
7.1097388268

> <CNN_VS>
0.6443579197

> <CNNaffinity_variance>
1.9912815094

$$$$
