/media/chris/experiments/cd1a-new-docking/inputs/ligands/7ryn_ligand.pdb


 68 68  0  0  0  0  0  0  0  0999 V2000
  -37.4503   61.2123   63.5312 C   0  0  0  0  0  0  0  0  0  0  0  0
  -38.8481   61.1866   63.1105 N   0  0  0  0  0  0  0  0  0  0  0  0
  -40.8805   60.2186   63.1208 O   0  0  0  0  0  0  0  0  0  0  0  0
  -39.7098   60.2392   63.4897 C   0  0  0  0  0  0  0  0  0  0  0  0
  -39.1715   61.9032   62.5180 H   0  0  0  0  0  0  0  0  0  0  0  0
  -39.1512   59.1773   64.4040 C   0  0  0  0  0  0  0  0  0  0  0  0
  -40.0143   58.9563   65.6396 C   0  0  0  0  0  0  0  0  0  0  0  0
  -41.0576   57.8688   65.4395 C   0  0  0  0  0  0  0  0  0  0  0  0
  -42.2034   57.9232   66.4363 C   0  0  0  0  0  0  0  0  0  0  0  0
  -43.2193   59.0180   66.1467 C   0  0  0  0  0  0  0  0  0  0  0  0
  -43.5944   59.1421   64.6755 C   0  0  0  0  0  0  0  0  0  0  0  0
  -44.7279   58.2187   64.2479 C   0  0  0  0  0  0  0  0  0  0  0  0
  -46.0640   58.4966   64.9323 C   0  0  0  0  0  0  0  0  0  0  0  0
  -46.1916   57.8758   66.3225 C   0  0  0  0  0  0  0  0  0  0  0  0
  -47.5406   57.2141   66.6034 C   0  0  0  0  0  0  0  0  0  0  0  0
  -48.6030   57.5259   65.5492 C   0  0  0  0  0  0  0  0  0  0  0  0
  -49.8292   58.2767   66.0683 C   0  0  0  0  0  0  0  0  0  0  0  0
  -50.1955   59.5369   65.2799 C   0  0  0  0  0  0  0  0  0  0  0  0
  -51.1760   59.2692   64.1750 C   0  0  0  0  0  0  0  0  0  0  0  0
  -51.0011   59.5462   62.8949 C   0  0  0  0  0  0  0  0  0  0  0  0
  -49.7868   60.1812   62.2881 C   0  0  0  0  0  0  0  0  0  0  0  0
  -49.6892   59.9964   60.7723 C   0  0  0  0  0  0  0  0  0  0  0  0
  -49.9618   58.5677   60.3211 C   0  0  0  0  0  0  0  0  0  0  0  0
  -48.7947   57.6201   60.5745 C   0  0  0  0  0  0  0  0  0  0  0  0
  -48.1836   57.0199   59.3135 C   0  0  0  0  0  0  0  0  0  0  0  0
  -47.8038   58.0549   58.2639 C   0  0  0  0  0  0  0  0  0  0  0  0
  -47.2954   57.4612   56.9598 C   0  0  0  0  0  0  0  0  0  0  0  0
  -47.1237   55.9571   57.0243 C   0  0  0  0  0  0  0  0  0  0  0  0
  -37.2591   61.7294   65.8830 O   0  0  0  0  0  0  0  0  0  0  0  0
  -37.3362   60.6437   64.9547 C   0  0  0  0  0  0  0  0  0  0  0  0
  -38.0358   62.3008   65.7774 H   0  0  0  0  0  0  0  0  0  0  0  0
  -36.1503   59.7383   65.0895 C   0  0  0  0  0  0  0  0  0  0  0  0
  -35.0321   59.8461   64.3995 C   0  0  0  0  0  0  0  0  0  0  0  0
  -33.8603   58.9354   64.5677 C   0  0  0  0  0  0  0  0  0  0  0  0
  -33.3091   58.4917   63.2112 C   0  0  0  0  0  0  0  0  0  0  0  0
  -34.3744   58.0580   62.2174 C   0  0  0  0  0  0  0  0  0  0  0  0
  -35.4265   57.1273   62.7957 C   0  0  0  0  0  0  0  0  0  0  0  0
  -36.8381   57.4047   62.2996 C   0  0  0  0  0  0  0  0  0  0  0  0
  -36.9341   58.6046   61.3699 C   0  0  0  0  0  0  0  0  0  0  0  0
  -37.9632   58.4418   60.2651 C   0  0  0  0  0  0  0  0  0  0  0  0
  -38.7581   59.7003   59.9704 C   0  0  0  0  0  0  0  0  0  0  0  0
  -40.2634   59.4990   60.0024 C   0  0  0  0  0  0  0  0  0  0  0  0
  -40.6669   58.0363   59.9914 C   0  0  0  0  0  0  0  0  0  0  0  0
  -41.4121   57.5829   61.2321 C   0  0  0  0  0  0  0  0  0  0  0  0
  -40.6246   56.5782   62.0500 C   0  0  0  0  0  0  0  0  0  0  0  0
  -41.5129   55.7203   62.9271 C   0  0  0  0  0  0  0  0  0  0  0  0
  -36.9052   62.6223   63.4366 C   0  0  0  0  0  0  0  0  0  0  0  0
  -35.8153   62.6225   62.5076 O   0  0  0  0  0  0  0  0  0  0  0  0
  -36.0940   64.4005   64.6529 O   0  0  0  0  0  0  0  0  0  0  0  0
  -32.0351   62.9915   64.9016 O   0  0  0  0  0  0  0  0  0  0  0  0
  -33.5394   63.0037   62.4492 O   0  0  0  0  0  0  0  0  0  0  0  0
  -34.8005   63.5348   62.8110 C   0  0  0  0  0  0  0  0  0  0  0  0
  -34.8467   63.8109   64.3082 C   0  0  0  0  0  0  0  0  0  0  0  0
  -33.7005   64.7350   64.6999 C   0  0  0  0  0  0  0  0  0  0  0  0
  -32.3673   64.1905   64.2091 C   0  0  0  0  0  0  0  0  0  0  0  0
  -32.4505   63.9032   62.7120 C   0  0  0  0  0  0  0  0  0  0  0  0
  -36.8150   63.8034   64.3989 H   0  0  0  0  0  0  0  0  0  0  0  0
  -31.9815   63.1718   65.8531 H   0  0  0  0  0  0  0  0  0  0  0  0
  -31.1350   63.3687   60.7443 O   0  0  0  0  0  0  0  0  0  0  0  0
  -31.2032   63.2531   62.1609 C   0  0  0  0  0  0  0  0  0  0  0  0
  -30.3248   62.9422   60.4237 H   0  0  0  0  0  0  0  0  0  0  0  0
  -33.7158   64.7431   66.1625 O   0  0  0  0  0  0  0  0  0  0  0  0
  -33.5226   63.3585   68.1252 O   0  0  0  0  0  0  0  0  0  0  0  0
  -34.4409   62.4182   65.9832 O   0  0  0  0  0  0  0  0  0  0  0  0
  -35.6648   63.9737   67.2945 O   0  0  0  0  0  0  0  0  0  0  0  0
  -34.2638   63.4606   66.9230 S   0  0  0  0  0  0  0  0  0  0  0  0
  -32.6292   63.0361   67.9279 H   0  0  0  0  0  0  0  0  0  0  0  0
  -35.5849   64.6929   67.9404 H   0  0  0  0  0  0  0  0  0  0  0  0
  2  1  1  0  0  0
  2  4  1  0  0  0
  2  5  1  0  0  0
 47 48  1  0  0  0
 47  1  1  0  0  0
 48 52  1  0  0  0
  1 30  1  0  0  0
 29 30  1  0  0  0
 29 31  1  0  0  0
 30 32  1  0  0  0
  3  4  2  0  0  0
 32 33  2  0  0  0
 49 53  1  0  0  0
 49 57  1  0  0  0
 33 34  1  0  0  0
 62 54  1  0  0  0
 62 66  1  0  0  0
 34 35  1  0  0  0
 50 55  1  0  0  0
 50 58  1  0  0  0
 35 36  1  0  0  0
 51 52  1  0  0  0
 51 56  1  0  0  0
 36 37  1  0  0  0
 59 60  1  0  0  0
 59 61  1  0  0  0
 37 38  1  0  0  0
 63 66  1  0  0  0
 63 67  1  0  0  0
 38 39  1  0  0  0
 64 66  1  0  0  0
 39 40  1  0  0  0
 65 66  1  0  0  0
 65 68  1  0  0  0
 40 41  1  0  0  0
 41 42  1  0  0  0
 42 43  1  0  0  0
 43 44  1  0  0  0
 44 45  1  0  0  0
 45 46  1  0  0  0
  4  6  1  0  0  0
  6  7  1  0  0  0
  7  8  1  0  0  0
  8  9  1  0  0  0
  9 10  1  0  0  0
 10 11  1  0  0  0
 11 12  1  0  0  0
 12 13  1  0  0  0
 13 14  1  0  0  0
 14 15  1  0  0  0
 15 16  1  0  0  0
 16 17  1  0  0  0
 17 18  1  0  0  0
 18 19  1  0  0  0
 19 20  2  0  0  0
 20 21  1  0  0  0
 21 22  1  0  0  0
 22 23  1  0  0  0
 23 24  1  0  0  0
 24 25  1  0  0  0
 25 26  1  0  0  0
 26 27  1  0  0  0
 27 28  1  0  0  0
 52 53  1  0  0  0
 53 54  1  0  0  0
 54 55  1  0  0  0
 55 56  1  0  0  0
 56 60  1  0  0  0
M  CHG 1  64  -1
M  END
> <minimizedAffinity>
-8.74797

> <CNNscore>
0.1593784392

> <CNNaffinity>
7.3389649391

> <CNN_VS>
1.1696727276

> <CNNaffinity_variance>
1.0995590687

$$$$
/media/chris/experiments/cd1a-new-docking/inputs/ligands/7ryn_ligand.pdb


 68 68  0  0  0  0  0  0  0  0999 V2000
  -35.3915   61.5084   63.4981 C   0  0  0  0  0  0  0  0  0  0  0  0
  -36.7307   61.8576   63.0333 N   0  0  0  0  0  0  0  0  0  0  0  0
  -38.9506   61.4859   62.9940 O   0  0  0  0  0  0  0  0  0  0  0  0
  -37.8297   61.1929   63.3999 C   0  0  0  0  0  0  0  0  0  0  0  0
  -36.8285   62.6208   62.4192 H   0  0  0  0  0  0  0  0  0  0  0  0
  -37.6095   60.0410   64.3486 C   0  0  0  0  0  0  0  0  0  0  0  0
  -38.7386   59.8925   65.3603 C   0  0  0  0  0  0  0  0  0  0  0  0
  -39.4254   58.5386   65.2781 C   0  0  0  0  0  0  0  0  0  0  0  0
  -40.9096   58.5801   65.6020 C   0  0  0  0  0  0  0  0  0  0  0  0
  -41.5877   59.8856   65.2143 C   0  0  0  0  0  0  0  0  0  0  0  0
  -42.2776   59.8463   63.8567 C   0  0  0  0  0  0  0  0  0  0  0  0
  -43.0781   58.5744   63.6081 C   0  0  0  0  0  0  0  0  0  0  0  0
  -44.4791   58.5786   64.2146 C   0  0  0  0  0  0  0  0  0  0  0  0
  -44.6658   57.5803   65.3560 C   0  0  0  0  0  0  0  0  0  0  0  0
  -45.7256   57.9780   66.3833 C   0  0  0  0  0  0  0  0  0  0  0  0
  -47.0132   57.1607   66.2773 C   0  0  0  0  0  0  0  0  0  0  0  0
  -48.3004   57.9839   66.2305 C   0  0  0  0  0  0  0  0  0  0  0  0
  -48.5410   58.7307   64.9158 C   0  0  0  0  0  0  0  0  0  0  0  0
  -49.6966   59.6861   64.9908 C   0  0  0  0  0  0  0  0  0  0  0  0
  -50.4937   60.0235   63.9924 C   0  0  0  0  0  0  0  0  0  0  0  0
  -50.4058   59.5179   62.5843 C   0  0  0  0  0  0  0  0  0  0  0  0
  -51.1776   58.2178   62.3489 C   0  0  0  0  0  0  0  0  0  0  0  0
  -50.6241   57.3891   61.1974 C   0  0  0  0  0  0  0  0  0  0  0  0
  -50.3282   58.2112   59.9479 C   0  0  0  0  0  0  0  0  0  0  0  0
  -48.8448   58.3815   59.6410 C   0  0  0  0  0  0  0  0  0  0  0  0
  -48.2169   57.1732   58.9609 C   0  0  0  0  0  0  0  0  0  0  0  0
  -47.0142   57.5036   58.0914 C   0  0  0  0  0  0  0  0  0  0  0  0
  -47.3392   57.5044   56.6115 C   0  0  0  0  0  0  0  0  0  0  0  0
  -34.8456   62.8757   65.4132 O   0  0  0  0  0  0  0  0  0  0  0  0
  -35.3470   61.5911   65.0324 C   0  0  0  0  0  0  0  0  0  0  0  0
  -35.4024   63.5683   65.0245 H   0  0  0  0  0  0  0  0  0  0  0  0
  -34.5098   60.4946   65.6160 C   0  0  0  0  0  0  0  0  0  0  0  0
  -34.2452   59.3464   65.0246 C   0  0  0  0  0  0  0  0  0  0  0  0
  -33.3935   58.2776   65.6273 C   0  0  0  0  0  0  0  0  0  0  0  0
  -32.4481   57.6750   64.5861 C   0  0  0  0  0  0  0  0  0  0  0  0
  -32.6248   58.2368   63.1848 C   0  0  0  0  0  0  0  0  0  0  0  0
  -33.3332   57.3004   62.2210 C   0  0  0  0  0  0  0  0  0  0  0  0
  -34.8473   57.2859   62.3726 C   0  0  0  0  0  0  0  0  0  0  0  0
  -35.5497   58.3880   61.5947 C   0  0  0  0  0  0  0  0  0  0  0  0
  -37.0455   58.1732   61.4446 C   0  0  0  0  0  0  0  0  0  0  0  0
  -37.6395   57.2244   62.4690 C   0  0  0  0  0  0  0  0  0  0  0  0
  -39.0288   56.7245   62.1118 C   0  0  0  0  0  0  0  0  0  0  0  0
  -39.9750   57.8397   61.7074 C   0  0  0  0  0  0  0  0  0  0  0  0
  -41.0230   57.4333   60.6891 C   0  0  0  0  0  0  0  0  0  0  0  0
  -41.6306   58.6229   59.9721 C   0  0  0  0  0  0  0  0  0  0  0  0
  -40.8995   59.9156   60.2701 C   0  0  0  0  0  0  0  0  0  0  0  0
  -34.3642   62.4132   62.8498 C   0  0  0  0  0  0  0  0  0  0  0  0
  -35.0528   63.5058   62.2310 O   0  0  0  0  0  0  0  0  0  0  0  0
  -35.0165   65.3453   64.3419 O   0  0  0  0  0  0  0  0  0  0  0  0
  -30.9299   65.1012   63.0145 O   0  0  0  0  0  0  0  0  0  0  0  0
  -33.1663   64.4726   61.3172 O   0  0  0  0  0  0  0  0  0  0  0  0
  -34.3013   64.6807   62.1369 C   0  0  0  0  0  0  0  0  0  0  0  0
  -33.8709   65.0791   63.5427 C   0  0  0  0  0  0  0  0  0  0  0  0
  -32.9740   66.3090   63.4805 C   0  0  0  0  0  0  0  0  0  0  0  0
  -31.8186   66.0947   62.5139 C   0  0  0  0  0  0  0  0  0  0  0  0
  -32.3606   65.6512   61.1573 C   0  0  0  0  0  0  0  0  0  0  0  0
  -35.5790   64.5557   64.3738 H   0  0  0  0  0  0  0  0  0  0  0  0
  -30.5843   65.3811   63.8764 H   0  0  0  0  0  0  0  0  0  0  0  0
  -31.3746   66.0928   58.9845 O   0  0  0  0  0  0  0  0  0  0  0  0
  -31.2735   65.3068   60.1664 C   0  0  0  0  0  0  0  0  0  0  0  0
  -30.6642   65.8474   58.3712 H   0  0  0  0  0  0  0  0  0  0  0  0
  -32.4528   66.4552   64.8393 O   0  0  0  0  0  0  0  0  0  0  0  0
  -32.1702   64.0626   64.8891 O   0  0  0  0  0  0  0  0  0  0  0  0
  -33.3524   65.2491   66.7626 O   0  0  0  0  0  0  0  0  0  0  0  0
  -31.0083   65.4426   66.4393 O   0  0  0  0  0  0  0  0  0  0  0  0
  -32.3588   65.1636   65.7594 S   0  0  0  0  0  0  0  0  0  0  0  0
  -33.0058   63.8577   64.4411 H   0  0  0  0  0  0  0  0  0  0  0  0
  -30.2982   65.3926   65.7805 H   0  0  0  0  0  0  0  0  0  0  0  0
  2  1  1  0  0  0
  2  4  1  0  0  0
  2  5  1  0  0  0
 47 48  1  0  0  0
 47  1  1  0  0  0
 48 52  1  0  0  0
  1 30  1  0  0  0
 29 30  1  0  0  0
 29 31  1  0  0  0
 30 32  1  0  0  0
  3  4  2  0  0  0
 32 33  2  0  0  0
 49 53  1  0  0  0
 49 57  1  0  0  0
 33 34  1  0  0  0
 62 54  1  0  0  0
 62 66  1  0  0  0
 34 35  1  0  0  0
 50 55  1  0  0  0
 50 58  1  0  0  0
 35 36  1  0  0  0
 51 52  1  0  0  0
 51 56  1  0  0  0
 36 37  1  0  0  0
 59 60  1  0  0  0
 59 61  1  0  0  0
 37 38  1  0  0  0
 63 66  1  0  0  0
 63 67  1  0  0  0
 38 39  1  0  0  0
 64 66  1  0  0  0
 39 40  1  0  0  0
 65 66  1  0  0  0
 65 68  1  0  0  0
 40 41  1  0  0  0
 41 42  1  0  0  0
 42 43  1  0  0  0
 43 44  1  0  0  0
 44 45  1  0  0  0
 45 46  1  0  0  0
  4  6  1  0  0  0
  6  7  1  0  0  0
  7  8  1  0  0  0
  8  9  1  0  0  0
  9 10  1  0  0  0
 10 11  1  0  0  0
 11 12  1  0  0  0
 12 13  1  0  0  0
 13 14  1  0  0  0
 14 15  1  0  0  0
 15 16  1  0  0  0
 16 17  1  0  0  0
 17 18  1  0  0  0
 18 19  1  0  0  0
 19 20  2  0  0  0
 20 21  1  0  0  0
 21 22  1  0  0  0
 22 23  1  0  0  0
 23 24  1  0  0  0
 24 25  1  0  0  0
 25 26  1  0  0  0
 26 27  1  0  0  0
 27 28  1  0  0  0
 52 53  1  0  0  0
 53 54  1  0  0  0
 54 55  1  0  0  0
 55 56  1  0  0  0
 56 60  1  0  0  0
M  CHG 1  64  -1
M  END
> <minimizedAffinity>
-8.33086

> <CNNscore>
0.1546784639

> <CNNaffinity>
7.0331788063

> <CNN_VS>
1.0878813267

> <CNNaffinity_variance>
0.9850038290

$$$$
/media/chris/experiments/cd1a-new-docking/inputs/ligands/7ryn_ligand.pdb


 68 68  0  0  0  0  0  0  0  0999 V2000
  -40.6628   60.2216   65.9765 C   0  0  0  0  0  0  0  0  0  0  0  0
  -41.2421   61.4447   66.5240 N   0  0  0  0  0  0  0  0  0  0  0  0
  -42.2262   63.4484   66.2328 O   0  0  0  0  0  0  0  0  0  0  0  0
  -41.7523   62.4174   65.7640 C   0  0  0  0  0  0  0  0  0  0  0  0
  -41.2575   61.5581   67.5018 H   0  0  0  0  0  0  0  0  0  0  0  0
  -41.7050   62.1755   64.2759 C   0  0  0  0  0  0  0  0  0  0  0  0
  -42.6574   63.0810   63.5055 C   0  0  0  0  0  0  0  0  0  0  0  0
  -43.0941   62.4799   62.1791 C   0  0  0  0  0  0  0  0  0  0  0  0
  -42.5351   61.0911   61.9183 C   0  0  0  0  0  0  0  0  0  0  0  0
  -43.1250   60.0122   62.8141 C   0  0  0  0  0  0  0  0  0  0  0  0
  -42.1721   58.8603   63.1069 C   0  0  0  0  0  0  0  0  0  0  0  0
  -42.8062   57.4830   62.9616 C   0  0  0  0  0  0  0  0  0  0  0  0
  -41.8084   56.3419   62.7803 C   0  0  0  0  0  0  0  0  0  0  0  0
  -40.8108   56.5625   61.6443 C   0  0  0  0  0  0  0  0  0  0  0  0
  -41.4321   57.0556   60.3376 C   0  0  0  0  0  0  0  0  0  0  0  0
  -40.9809   58.4615   59.9414 C   0  0  0  0  0  0  0  0  0  0  0  0
  -39.5066   58.5837   59.5565 C   0  0  0  0  0  0  0  0  0  0  0  0
  -38.5936   59.1198   60.6624 C   0  0  0  0  0  0  0  0  0  0  0  0
  -37.3739   58.2704   60.8747 C   0  0  0  0  0  0  0  0  0  0  0  0
  -37.0508   57.6368   61.9882 C   0  0  0  0  0  0  0  0  0  0  0  0
  -37.8388   57.6365   63.2630 C   0  0  0  0  0  0  0  0  0  0  0  0
  -36.9699   57.6306   64.5226 C   0  0  0  0  0  0  0  0  0  0  0  0
  -35.4847   57.4669   64.2288 C   0  0  0  0  0  0  0  0  0  0  0  0
  -34.6614   58.7051   64.5657 C   0  0  0  0  0  0  0  0  0  0  0  0
  -33.1554   58.5217   64.4163 C   0  0  0  0  0  0  0  0  0  0  0  0
  -32.7391   57.9407   63.0724 C   0  0  0  0  0  0  0  0  0  0  0  0
  -32.9896   58.8640   61.8907 C   0  0  0  0  0  0  0  0  0  0  0  0
  -32.0445   60.0478   61.8568 C   0  0  0  0  0  0  0  0  0  0  0  0
  -41.0156   57.8341   65.8762 O   0  0  0  0  0  0  0  0  0  0  0  0
  -41.3233   59.0031   66.6412 C   0  0  0  0  0  0  0  0  0  0  0  0
  -40.0531   57.7372   65.8068 H   0  0  0  0  0  0  0  0  0  0  0  0
  -42.8046   59.1850   66.7695 C   0  0  0  0  0  0  0  0  0  0  0  0
  -43.7094   58.2775   66.4602 C   0  0  0  0  0  0  0  0  0  0  0  0
  -45.1806   58.4841   66.6136 C   0  0  0  0  0  0  0  0  0  0  0  0
  -45.8676   58.5827   65.2501 C   0  0  0  0  0  0  0  0  0  0  0  0
  -47.2944   59.1038   65.3074 C   0  0  0  0  0  0  0  0  0  0  0  0
  -48.0551   58.9878   63.9976 C   0  0  0  0  0  0  0  0  0  0  0  0
  -49.4148   58.3174   64.1291 C   0  0  0  0  0  0  0  0  0  0  0  0
  -50.3599   58.6217   62.9768 C   0  0  0  0  0  0  0  0  0  0  0  0
  -49.8680   59.7257   62.0574 C   0  0  0  0  0  0  0  0  0  0  0  0
  -49.6392   59.2809   60.6248 C   0  0  0  0  0  0  0  0  0  0  0  0
  -49.0187   57.8999   60.5008 C   0  0  0  0  0  0  0  0  0  0  0  0
  -48.1887   57.7332   59.2415 C   0  0  0  0  0  0  0  0  0  0  0  0
  -47.9809   56.2928   58.8146 C   0  0  0  0  0  0  0  0  0  0  0  0
  -47.3997   56.1768   57.4192 C   0  0  0  0  0  0  0  0  0  0  0  0
  -47.4276   57.4917   56.6677 C   0  0  0  0  0  0  0  0  0  0  0  0
  -39.1601   60.2282   66.1666 C   0  0  0  0  0  0  0  0  0  0  0  0
  -38.5553   60.7047   64.9591 O   0  0  0  0  0  0  0  0  0  0  0  0
  -36.8183   60.9569   62.7774 O   0  0  0  0  0  0  0  0  0  0  0  0
  -36.3678   64.6254   64.9823 O   0  0  0  0  0  0  0  0  0  0  0  0
  -37.2701   62.1749   66.1900 O   0  0  0  0  0  0  0  0  0  0  0  0
  -37.2746   61.2387   65.1285 C   0  0  0  0  0  0  0  0  0  0  0  0
  -36.8702   61.9163   63.8257 C   0  0  0  0  0  0  0  0  0  0  0  0
  -35.5137   62.5898   63.9918 C   0  0  0  0  0  0  0  0  0  0  0  0
  -35.5062   63.5130   65.2012 C   0  0  0  0  0  0  0  0  0  0  0  0
  -35.9747   62.7456   66.4350 C   0  0  0  0  0  0  0  0  0  0  0  0
  -37.6866   60.5355   62.6815 H   0  0  0  0  0  0  0  0  0  0  0  0
  -36.0719   65.1145   64.1988 H   0  0  0  0  0  0  0  0  0  0  0  0
  -36.4888   62.8575   68.8039 O   0  0  0  0  0  0  0  0  0  0  0  0
  -36.1053   63.6162   67.6628 C   0  0  0  0  0  0  0  0  0  0  0  0
  -36.5635   63.4447   69.5724 H   0  0  0  0  0  0  0  0  0  0  0  0
  -35.3421   63.3803   62.7732 O   0  0  0  0  0  0  0  0  0  0  0  0
  -32.9524   63.2053   63.0290 O   0  0  0  0  0  0  0  0  0  0  0  0
  -34.0546   65.4546   62.8254 O   0  0  0  0  0  0  0  0  0  0  0  0
  -33.8891   63.9694   60.9805 O   0  0  0  0  0  0  0  0  0  0  0  0
  -33.9396   64.0796   62.5132 S   0  0  0  0  0  0  0  0  0  0  0  0
  -32.9559   63.2492   63.9980 H   0  0  0  0  0  0  0  0  0  0  0  0
  -33.8098   63.0368   60.7258 H   0  0  0  0  0  0  0  0  0  0  0  0
  2  1  1  0  0  0
  2  4  1  0  0  0
  2  5  1  0  0  0
 47 48  1  0  0  0
 47  1  1  0  0  0
 48 52  1  0  0  0
  1 30  1  0  0  0
 29 30  1  0  0  0
 29 31  1  0  0  0
 30 32  1  0  0  0
  3  4  2  0  0  0
 32 33  2  0  0  0
 49 53  1  0  0  0
 49 57  1  0  0  0
 33 34  1  0  0  0
 62 54  1  0  0  0
 62 66  1  0  0  0
 34 35  1  0  0  0
 50 55  1  0  0  0
 50 58  1  0  0  0
 35 36  1  0  0  0
 51 52  1  0  0  0
 51 56  1  0  0  0
 36 37  1  0  0  0
 59 60  1  0  0  0
 59 61  1  0  0  0
 37 38  1  0  0  0
 63 66  1  0  0  0
 63 67  1  0  0  0
 38 39  1  0  0  0
 64 66  1  0  0  0
 39 40  1  0  0  0
 65 66  1  0  0  0
 65 68  1  0  0  0
 40 41  1  0  0  0
 41 42  1  0  0  0
 42 43  1  0  0  0
 43 44  1  0  0  0
 44 45  1  0  0  0
 45 46  1  0  0  0
  4  6  1  0  0  0
  6  7  1  0  0  0
  7  8  1  0  0  0
  8  9  1  0  0  0
  9 10  1  0  0  0
 10 11  1  0  0  0
 11 12  1  0  0  0
 12 13  1  0  0  0
 13 14  1  0  0  0
 14 15  1  0  0  0
 15 16  1  0  0  0
 16 17  1  0  0  0
 17 18  1  0  0  0
 18 19  1  0  0  0
 19 20  2  0  0  0
 20 21  1  0  0  0
 21 22  1  0  0  0
 22 23  1  0  0  0
 23 24  1  0  0  0
 24 25  1  0  0  0
 25 26  1  0  0  0
 26 27  1  0  0  0
 27 28  1  0  0  0
 52 53  1  0  0  0
 53 54  1  0  0  0
 54 55  1  0  0  0
 55 56  1  0  0  0
 56 60  1  0  0  0
M  CHG 1  64  -1
M  END
> <minimizedAffinity>
-9.06292

> <CNNscore>
0.1295415163

> <CNNaffinity>
7.4801855087

> <CNN_VS>
0.9689945579

> <CNNaffinity_variance>
2.4015297890

$$$$
/media/chris/experiments/cd1a-new-docking/inputs/ligands/7ryn_ligand.pdb


 68 68  0  0  0  0  0  0  0  0999 V2000
  -39.5982   59.7058   64.5363 C   0  0  0  0  0  0  0  0  0  0  0  0
  -39.9721   60.8030   65.4237 N   0  0  0  0  0  0  0  0  0  0  0  0
  -41.4978   61.8617   66.6962 O   0  0  0  0  0  0  0  0  0  0  0  0
  -41.1885   60.9285   65.9608 C   0  0  0  0  0  0  0  0  0  0  0  0
  -39.2940   61.4842   65.6367 H   0  0  0  0  0  0  0  0  0  0  0  0
  -42.1757   59.8464   65.6004 C   0  0  0  0  0  0  0  0  0  0  0  0
  -42.8244   59.2149   66.8255 C   0  0  0  0  0  0  0  0  0  0  0  0
  -43.1494   57.7434   66.6241 C   0  0  0  0  0  0  0  0  0  0  0  0
  -44.5679   57.4858   66.1437 C   0  0  0  0  0  0  0  0  0  0  0  0
  -44.7528   57.6697   64.6449 C   0  0  0  0  0  0  0  0  0  0  0  0
  -45.6244   58.8612   64.2694 C   0  0  0  0  0  0  0  0  0  0  0  0
  -46.8292   59.0558   65.1810 C   0  0  0  0  0  0  0  0  0  0  0  0
  -47.9393   58.0248   64.9929 C   0  0  0  0  0  0  0  0  0  0  0  0
  -48.9820   58.0228   66.1096 C   0  0  0  0  0  0  0  0  0  0  0  0
  -50.4188   58.2506   65.6402 C   0  0  0  0  0  0  0  0  0  0  0  0
  -50.8423   59.7193   65.6667 C   0  0  0  0  0  0  0  0  0  0  0  0
  -51.1765   60.3213   64.3020 C   0  0  0  0  0  0  0  0  0  0  0  0
  -50.9191   59.3971   63.1088 C   0  0  0  0  0  0  0  0  0  0  0  0
  -49.7285   59.8138   62.2945 C   0  0  0  0  0  0  0  0  0  0  0  0
  -49.4957   59.4909   61.0346 C   0  0  0  0  0  0  0  0  0  0  0  0
  -50.3751   58.6456   60.1639 C   0  0  0  0  0  0  0  0  0  0  0  0
  -50.5076   57.1989   60.6444 C   0  0  0  0  0  0  0  0  0  0  0  0
  -49.1667   56.5039   60.8391 C   0  0  0  0  0  0  0  0  0  0  0  0
  -48.7033   55.7283   59.6110 C   0  0  0  0  0  0  0  0  0  0  0  0
  -47.3480   56.1622   59.0646 C   0  0  0  0  0  0  0  0  0  0  0  0
  -47.2235   56.0240   57.5538 C   0  0  0  0  0  0  0  0  0  0  0  0
  -47.6953   57.2425   56.7765 C   0  0  0  0  0  0  0  0  0  0  0  0
  -46.9305   58.5012   57.1325 C   0  0  0  0  0  0  0  0  0  0  0  0
  -38.1485   58.1877   65.7316 O   0  0  0  0  0  0  0  0  0  0  0  0
  -39.5094   58.4026   65.3467 C   0  0  0  0  0  0  0  0  0  0  0  0
  -37.8296   58.9541   66.2333 H   0  0  0  0  0  0  0  0  0  0  0  0
  -40.0367   57.2365   64.5682 C   0  0  0  0  0  0  0  0  0  0  0  0
  -41.0361   57.2876   63.7099 C   0  0  0  0  0  0  0  0  0  0  0  0
  -41.5294   56.1086   62.9370 C   0  0  0  0  0  0  0  0  0  0  0  0
  -41.4022   56.3456   61.4308 C   0  0  0  0  0  0  0  0  0  0  0  0
  -42.2152   57.5215   60.9143 C   0  0  0  0  0  0  0  0  0  0  0  0
  -41.5180   58.3397   59.8409 C   0  0  0  0  0  0  0  0  0  0  0  0
  -41.1447   59.7478   60.2809 C   0  0  0  0  0  0  0  0  0  0  0  0
  -39.6460   59.9677   60.4180 C   0  0  0  0  0  0  0  0  0  0  0  0
  -38.8094   58.7896   59.9507 C   0  0  0  0  0  0  0  0  0  0  0  0
  -38.2417   57.9485   61.0788 C   0  0  0  0  0  0  0  0  0  0  0  0
  -36.7586   58.1677   61.3236 C   0  0  0  0  0  0  0  0  0  0  0  0
  -36.2134   57.3221   62.4595 C   0  0  0  0  0  0  0  0  0  0  0  0
  -34.8714   57.7831   62.9951 C   0  0  0  0  0  0  0  0  0  0  0  0
  -34.9458   58.2379   64.4395 C   0  0  0  0  0  0  0  0  0  0  0  0
  -33.6074   58.7097   64.9690 C   0  0  0  0  0  0  0  0  0  0  0  0
  -38.2961   60.0275   63.8324 C   0  0  0  0  0  0  0  0  0  0  0  0
  -37.9869   61.4063   64.0652 O   0  0  0  0  0  0  0  0  0  0  0  0
  -35.5450   61.2228   62.7072 O   0  0  0  0  0  0  0  0  0  0  0  0
  -35.1547   64.6912   65.2250 O   0  0  0  0  0  0  0  0  0  0  0  0
  -36.9693   62.5347   65.8029 O   0  0  0  0  0  0  0  0  0  0  0  0
  -36.7811   61.6201   64.7393 C   0  0  0  0  0  0  0  0  0  0  0  0
  -35.7737   62.1734   63.7397 C   0  0  0  0  0  0  0  0  0  0  0  0
  -34.4675   62.5044   64.4504 C   0  0  0  0  0  0  0  0  0  0  0  0
  -34.7118   63.4067   65.6510 C   0  0  0  0  0  0  0  0  0  0  0  0
  -35.7707   62.7811   66.5555 C   0  0  0  0  0  0  0  0  0  0  0  0
  -36.3830   61.0204   62.2626 H   0  0  0  0  0  0  0  0  0  0  0  0
  -34.4832   65.0906   64.6501 H   0  0  0  0  0  0  0  0  0  0  0  0
  -36.4641   62.9005   68.8779 O   0  0  0  0  0  0  0  0  0  0  0  0
  -36.1578   63.6654   67.7176 C   0  0  0  0  0  0  0  0  0  0  0  0
  -36.7079   63.4968   69.6031 H   0  0  0  0  0  0  0  0  0  0  0  0
  -33.6759   63.2235   63.4526 O   0  0  0  0  0  0  0  0  0  0  0  0
  -31.5650   63.9118   62.5160 O   0  0  0  0  0  0  0  0  0  0  0  0
  -31.9548   61.5153   63.1644 O   0  0  0  0  0  0  0  0  0  0  0  0
  -31.7051   63.2278   64.7898 O   0  0  0  0  0  0  0  0  0  0  0  0
  -32.1226   62.9082   63.3449 S   0  0  0  0  0  0  0  0  0  0  0  0
  -31.8091   63.7412   61.5929 H   0  0  0  0  0  0  0  0  0  0  0  0
  -31.8066   64.1785   64.9529 H   0  0  0  0  0  0  0  0  0  0  0  0
  2  1  1  0  0  0
  2  4  1  0  0  0
  2  5  1  0  0  0
 47 48  1  0  0  0
 47  1  1  0  0  0
 48 52  1  0  0  0
  1 30  1  0  0  0
 29 30  1  0  0  0
 29 31  1  0  0  0
 30 32  1  0  0  0
  3  4  2  0  0  0
 32 33  2  0  0  0
 49 53  1  0  0  0
 49 57  1  0  0  0
 33 34  1  0  0  0
 62 54  1  0  0  0
 62 66  1  0  0  0
 34 35  1  0  0  0
 50 55  1  0  0  0
 50 58  1  0  0  0
 35 36  1  0  0  0
 51 52  1  0  0  0
 51 56  1  0  0  0
 36 37  1  0  0  0
 59 60  1  0  0  0
 59 61  1  0  0  0
 37 38  1  0  0  0
 63 66  1  0  0  0
 63 67  1  0  0  0
 38 39  1  0  0  0
 64 66  1  0  0  0
 39 40  1  0  0  0
 65 66  1  0  0  0
 65 68  1  0  0  0
 40 41  1  0  0  0
 41 42  1  0  0  0
 42 43  1  0  0  0
 43 44  1  0  0  0
 44 45  1  0  0  0
 45 46  1  0  0  0
  4  6  1  0  0  0
  6  7  1  0  0  0
  7  8  1  0  0  0
  8  9  1  0  0  0
  9 10  1  0  0  0
 10 11  1  0  0  0
 11 12  1  0  0  0
 12 13  1  0  0  0
 13 14  1  0  0  0
 14 15  1  0  0  0
 15 16  1  0  0  0
 16 17  1  0  0  0
 17 18  1  0  0  0
 18 19  1  0  0  0
 19 20  2  0  0  0
 20 21  1  0  0  0
 21 22  1  0  0  0
 22 23  1  0  0  0
 23 24  1  0  0  0
 24 25  1  0  0  0
 25 26  1  0  0  0
 26 27  1  0  0  0
 27 28  1  0  0  0
 52 53  1  0  0  0
 53 54  1  0  0  0
 54 55  1  0  0  0
 55 56  1  0  0  0
 56 60  1  0  0  0
M  CHG 1  64  -1
M  END
> <minimizedAffinity>
-8.85294

> <CNNscore>
0.1181364432

> <CNNaffinity>
7.4981737137

> <CNN_VS>
0.8858075738

> <CNNaffinity_variance>
1.7669925690

$$$$
/media/chris/experiments/cd1a-new-docking/inputs/ligands/7ryn_ligand.pdb


 68 68  0  0  0  0  0  0  0  0999 V2000
  -36.6433   59.0153   63.1712 C   0  0  0  0  0  0  0  0  0  0  0  0
  -36.7419   58.1308   64.3284 N   0  0  0  0  0  0  0  0  0  0  0  0
  -37.9090   57.2944   66.0623 O   0  0  0  0  0  0  0  0  0  0  0  0
  -37.8394   58.0318   65.0832 C   0  0  0  0  0  0  0  0  0  0  0  0
  -35.9608   57.5799   64.5641 H   0  0  0  0  0  0  0  0  0  0  0  0
  -39.0014   58.8962   64.6615 C   0  0  0  0  0  0  0  0  0  0  0  0
  -40.0614   59.0222   65.7482 C   0  0  0  0  0  0  0  0  0  0  0  0
  -40.4263   60.4675   66.0470 C   0  0  0  0  0  0  0  0  0  0  0  0
  -41.8077   60.6410   66.6560 C   0  0  0  0  0  0  0  0  0  0  0  0
  -42.4351   59.3416   67.1383 C   0  0  0  0  0  0  0  0  0  0  0  0
  -43.9501   59.4018   67.2848 C   0  0  0  0  0  0  0  0  0  0  0  0
  -44.6722   58.1784   66.7352 C   0  0  0  0  0  0  0  0  0  0  0  0
  -46.1777   58.1646   66.9874 C   0  0  0  0  0  0  0  0  0  0  0  0
  -47.0175   57.9563   65.7281 C   0  0  0  0  0  0  0  0  0  0  0  0
  -47.1237   59.1834   64.8229 C   0  0  0  0  0  0  0  0  0  0  0  0
  -48.3700   60.0286   65.0867 C   0  0  0  0  0  0  0  0  0  0  0  0
  -49.3327   59.4551   66.1264 C   0  0  0  0  0  0  0  0  0  0  0  0
  -50.7348   59.1364   65.6007 C   0  0  0  0  0  0  0  0  0  0  0  0
  -51.1598   60.0458   64.4842 C   0  0  0  0  0  0  0  0  0  0  0  0
  -51.1778   59.7435   63.1980 C   0  0  0  0  0  0  0  0  0  0  0  0
  -50.7800   58.4304   62.5952 C   0  0  0  0  0  0  0  0  0  0  0  0
  -49.3056   58.3609   62.1916 C   0  0  0  0  0  0  0  0  0  0  0  0
  -49.0981   58.2394   60.6878 C   0  0  0  0  0  0  0  0  0  0  0  0
  -49.6838   56.9616   60.0976 C   0  0  0  0  0  0  0  0  0  0  0  0
  -48.6453   55.9501   59.6263 C   0  0  0  0  0  0  0  0  0  0  0  0
  -47.3740   56.5856   59.0813 C   0  0  0  0  0  0  0  0  0  0  0  0
  -47.3428   56.7147   57.5667 C   0  0  0  0  0  0  0  0  0  0  0  0
  -46.9733   58.1086   57.1014 C   0  0  0  0  0  0  0  0  0  0  0  0
  -35.3299   58.3611   61.2524 O   0  0  0  0  0  0  0  0  0  0  0  0
  -36.5977   58.1715   61.8872 C   0  0  0  0  0  0  0  0  0  0  0  0
  -34.6204   58.1267   61.8708 H   0  0  0  0  0  0  0  0  0  0  0  0
  -37.7197   58.5247   60.9596 C   0  0  0  0  0  0  0  0  0  0  0  0
  -38.4735   59.6018   61.0574 C   0  0  0  0  0  0  0  0  0  0  0  0
  -39.5764   59.9339   60.1066 C   0  0  0  0  0  0  0  0  0  0  0  0
  -40.2000   58.6647   59.5223 C   0  0  0  0  0  0  0  0  0  0  0  0
  -41.6172   58.3907   59.9985 C   0  0  0  0  0  0  0  0  0  0  0  0
  -41.8461   56.9738   60.4962 C   0  0  0  0  0  0  0  0  0  0  0  0
  -40.6832   56.4030   61.2946 C   0  0  0  0  0  0  0  0  0  0  0  0
  -40.7079   56.7834   62.7670 C   0  0  0  0  0  0  0  0  0  0  0  0
  -41.8358   56.1326   63.5482 C   0  0  0  0  0  0  0  0  0  0  0  0
  -42.7661   57.1194   64.2288 C   0  0  0  0  0  0  0  0  0  0  0  0
  -43.5181   58.0213   63.2651 C   0  0  0  0  0  0  0  0  0  0  0  0
  -43.3670   59.4954   63.5915 C   0  0  0  0  0  0  0  0  0  0  0  0
  -42.3176   60.2151   62.7661 C   0  0  0  0  0  0  0  0  0  0  0  0
  -42.3044   61.7104   63.0163 C   0  0  0  0  0  0  0  0  0  0  0  0
  -43.0494   62.4841   61.9483 C   0  0  0  0  0  0  0  0  0  0  0  0
  -35.4304   59.9128   63.3053 C   0  0  0  0  0  0  0  0  0  0  0  0
  -34.8304   59.6714   64.5830 O   0  0  0  0  0  0  0  0  0  0  0  0
  -32.4935   60.9183   63.6745 O   0  0  0  0  0  0  0  0  0  0  0  0
  -35.2165   64.1440   64.5125 O   0  0  0  0  0  0  0  0  0  0  0  0
  -35.4137   61.5636   65.7695 O   0  0  0  0  0  0  0  0  0  0  0  0
  -34.3446   60.8188   65.2168 C   0  0  0  0  0  0  0  0  0  0  0  0
  -33.6019   61.6516   64.1801 C   0  0  0  0  0  0  0  0  0  0  0  0
  -33.1287   62.9570   64.8070 C   0  0  0  0  0  0  0  0  0  0  0  0
  -34.2796   63.6876   65.4829 C   0  0  0  0  0  0  0  0  0  0  0  0
  -34.9810   62.7470   66.4596 C   0  0  0  0  0  0  0  0  0  0  0  0
  -32.8072   60.0903   63.2783 H   0  0  0  0  0  0  0  0  0  0  0  0
  -34.7728   64.7419   63.8908 H   0  0  0  0  0  0  0  0  0  0  0  0
  -36.2786   63.0643   68.4855 O   0  0  0  0  0  0  0  0  0  0  0  0
  -36.2088   63.3567   67.0946 C   0  0  0  0  0  0  0  0  0  0  0  0
  -37.0760   63.4690   68.8614 H   0  0  0  0  0  0  0  0  0  0  0  0
  -32.6402   63.7520   63.6807 O   0  0  0  0  0  0  0  0  0  0  0  0
  -30.9702   65.2249   62.7594 O   0  0  0  0  0  0  0  0  0  0  0  0
  -31.0148   64.7248   65.2218 O   0  0  0  0  0  0  0  0  0  0  0  0
  -32.6690   66.0787   64.1886 O   0  0  0  0  0  0  0  0  0  0  0  0
  -31.6433   64.9533   63.9753 S   0  0  0  0  0  0  0  0  0  0  0  0
  -30.3125   64.5318   62.5921 H   0  0  0  0  0  0  0  0  0  0  0  0
  -33.1230   66.2653   63.3520 H   0  0  0  0  0  0  0  0  0  0  0  0
  2  1  1  0  0  0
  2  4  1  0  0  0
  2  5  1  0  0  0
 47 48  1  0  0  0
 47  1  1  0  0  0
 48 52  1  0  0  0
  1 30  1  0  0  0
 29 30  1  0  0  0
 29 31  1  0  0  0
 30 32  1  0  0  0
  3  4  2  0  0  0
 32 33  2  0  0  0
 49 53  1  0  0  0
 49 57  1  0  0  0
 33 34  1  0  0  0
 62 54  1  0  0  0
 62 66  1  0  0  0
 34 35  1  0  0  0
 50 55  1  0  0  0
 50 58  1  0  0  0
 35 36  1  0  0  0
 51 52  1  0  0  0
 51 56  1  0  0  0
 36 37  1  0  0  0
 59 60  1  0  0  0
 59 61  1  0  0  0
 37 38  1  0  0  0
 63 66  1  0  0  0
 63 67  1  0  0  0
 38 39  1  0  0  0
 64 66  1  0  0  0
 39 40  1  0  0  0
 65 66  1  0  0  0
 65 68  1  0  0  0
 40 41  1  0  0  0
 41 42  1  0  0  0
 42 43  1  0  0  0
 43 44  1  0  0  0
 44 45  1  0  0  0
 45 46  1  0  0  0
  4  6  1  0  0  0
  6  7  1  0  0  0
  7  8  1  0  0  0
  8  9  1  0  0  0
  9 10  1  0  0  0
 10 11  1  0  0  0
 11 12  1  0  0  0
 12 13  1  0  0  0
 13 14  1  0  0  0
 14 15  1  0  0  0
 15 16  1  0  0  0
 16 17  1  0  0  0
 17 18  1  0  0  0
 18 19  1  0  0  0
 19 20  2  0  0  0
 20 21  1  0  0  0
 21 22  1  0  0  0
 22 23  1  0  0  0
 23 24  1  0  0  0
 24 25  1  0  0  0
 25 26  1  0  0  0
 26 27  1  0  0  0
 27 28  1  0  0  0
 52 53  1  0  0  0
 53 54  1  0  0  0
 54 55  1  0  0  0
 55 56  1  0  0  0
 56 60  1  0  0  0
M  CHG 1  64  -1
M  END
> <minimizedAffinity>
-9.13876

> <CNNscore>
0.1139118224

> <CNNaffinity>
7.3006286621

> <CNN_VS>
0.8316279054

> <CNNaffinity_variance>
2.0294377804

$$$$
/media/chris/experiments/cd1a-new-docking/inputs/ligands/7ryn_ligand.pdb


 68 68  0  0  0  0  0  0  0  0999 V2000
  -39.6389   59.1752   65.1071 C   0  0  0  0  0  0  0  0  0  0  0  0
  -40.5846   59.5199   66.1645 N   0  0  0  0  0  0  0  0  0  0  0  0
  -42.4045   60.6359   66.8789 O   0  0  0  0  0  0  0  0  0  0  0  0
  -41.6214   60.3417   65.9804 C   0  0  0  0  0  0  0  0  0  0  0  0
  -40.4517   59.1271   67.0574 H   0  0  0  0  0  0  0  0  0  0  0  0
  -41.7715   60.9008   64.5875 C   0  0  0  0  0  0  0  0  0  0  0  0
  -42.4399   59.9201   63.6325 C   0  0  0  0  0  0  0  0  0  0  0  0
  -43.9002   59.6714   63.9745 C   0  0  0  0  0  0  0  0  0  0  0  0
  -44.2885   58.2022   63.9871 C   0  0  0  0  0  0  0  0  0  0  0  0
  -43.5868   57.3897   65.0651 C   0  0  0  0  0  0  0  0  0  0  0  0
  -44.0955   57.6607   66.4752 C   0  0  0  0  0  0  0  0  0  0  0  0
  -45.4438   58.3682   66.5192 C   0  0  0  0  0  0  0  0  0  0  0  0
  -46.5168   57.6375   67.3225 C   0  0  0  0  0  0  0  0  0  0  0  0
  -47.4462   56.7705   66.4745 C   0  0  0  0  0  0  0  0  0  0  0  0
  -48.3288   57.5484   65.4986 C   0  0  0  0  0  0  0  0  0  0  0  0
  -49.1422   58.6581   66.1651 C   0  0  0  0  0  0  0  0  0  0  0  0
  -50.6107   58.7250   65.7460 C   0  0  0  0  0  0  0  0  0  0  0  0
  -50.9559   59.8658   64.7850 C   0  0  0  0  0  0  0  0  0  0  0  0
  -49.7396   60.5353   64.2137 C   0  0  0  0  0  0  0  0  0  0  0  0
  -49.3268   60.4617   62.9607 C   0  0  0  0  0  0  0  0  0  0  0  0
  -49.9918   59.6969   61.8567 C   0  0  0  0  0  0  0  0  0  0  0  0
  -49.8127   58.1811   61.9646 C   0  0  0  0  0  0  0  0  0  0  0  0
  -50.4845   57.4134   60.8339 C   0  0  0  0  0  0  0  0  0  0  0  0
  -49.6652   57.3898   59.5483 C   0  0  0  0  0  0  0  0  0  0  0  0
  -48.1653   57.2173   59.7587 C   0  0  0  0  0  0  0  0  0  0  0  0
  -47.5145   56.2575   58.7728 C   0  0  0  0  0  0  0  0  0  0  0  0
  -47.8076   56.5703   57.3140 C   0  0  0  0  0  0  0  0  0  0  0  0
  -47.0620   57.7898   56.8114 C   0  0  0  0  0  0  0  0  0  0  0  0
  -38.4254   57.0957   64.9121 O   0  0  0  0  0  0  0  0  0  0  0  0
  -39.7318   57.6697   64.8113 C   0  0  0  0  0  0  0  0  0  0  0  0
  -38.0608   57.2746   65.7929 H   0  0  0  0  0  0  0  0  0  0  0  0
  -40.3273   57.4126   63.4610 C   0  0  0  0  0  0  0  0  0  0  0  0
  -40.7422   56.2391   63.0265 C   0  0  0  0  0  0  0  0  0  0  0  0
  -41.3460   56.0176   61.6785 C   0  0  0  0  0  0  0  0  0  0  0  0
  -42.0511   57.2797   61.1773 C   0  0  0  0  0  0  0  0  0  0  0  0
  -41.3407   57.9753   60.0275 C   0  0  0  0  0  0  0  0  0  0  0  0
  -41.2570   59.4856   60.1671 C   0  0  0  0  0  0  0  0  0  0  0  0
  -39.8457   60.0412   60.0431 C   0  0  0  0  0  0  0  0  0  0  0  0
  -38.8951   59.5397   61.1193 C   0  0  0  0  0  0  0  0  0  0  0  0
  -37.9054   58.4994   60.6250 C   0  0  0  0  0  0  0  0  0  0  0  0
  -37.2438   57.7004   61.7324 C   0  0  0  0  0  0  0  0  0  0  0  0
  -35.8069   58.1071   62.0106 C   0  0  0  0  0  0  0  0  0  0  0  0
  -35.1590   57.2836   63.1081 C   0  0  0  0  0  0  0  0  0  0  0  0
  -35.0058   58.0117   64.4298 C   0  0  0  0  0  0  0  0  0  0  0  0
  -33.8474   58.9898   64.4252 C   0  0  0  0  0  0  0  0  0  0  0  0
  -32.6369   58.4522   63.6903 C   0  0  0  0  0  0  0  0  0  0  0  0
  -38.2383   59.5907   65.5072 C   0  0  0  0  0  0  0  0  0  0  0  0
  -38.0477   60.9579   65.1259 O   0  0  0  0  0  0  0  0  0  0  0  0
  -36.3040   60.9529   62.9350 O   0  0  0  0  0  0  0  0  0  0  0  0
  -35.6057   64.7185   64.8984 O   0  0  0  0  0  0  0  0  0  0  0  0
  -36.6646   62.4164   66.2609 O   0  0  0  0  0  0  0  0  0  0  0  0
  -36.7340   61.4158   65.2622 C   0  0  0  0  0  0  0  0  0  0  0  0
  -36.2893   61.9795   63.9188 C   0  0  0  0  0  0  0  0  0  0  0  0
  -34.8909   62.5710   64.0429 C   0  0  0  0  0  0  0  0  0  0  0  0
  -34.8189   63.5680   65.1900 C   0  0  0  0  0  0  0  0  0  0  0  0
  -35.3335   62.9147   66.4703 C   0  0  0  0  0  0  0  0  0  0  0  0
  -37.1986   60.5846   62.8653 H   0  0  0  0  0  0  0  0  0  0  0  0
  -35.2803   65.1352   64.0852 H   0  0  0  0  0  0  0  0  0  0  0  0
  -36.4803   63.5509   68.5120 O   0  0  0  0  0  0  0  0  0  0  0  0
  -35.4028   63.8697   67.6389 C   0  0  0  0  0  0  0  0  0  0  0  0
  -36.4964   64.1812   69.2492 H   0  0  0  0  0  0  0  0  0  0  0  0
  -34.6708   63.2680   62.7760 O   0  0  0  0  0  0  0  0  0  0  0  0
  -32.7567   62.0275   61.9986 O   0  0  0  0  0  0  0  0  0  0  0  0
  -32.4838   64.3418   62.9393 O   0  0  0  0  0  0  0  0  0  0  0  0
  -33.4939   63.9604   60.8248 O   0  0  0  0  0  0  0  0  0  0  0  0
  -33.1905   63.3592   62.2070 S   0  0  0  0  0  0  0  0  0  0  0  0
  -32.5555   61.6154   62.8533 H   0  0  0  0  0  0  0  0  0  0  0  0
  -33.9801   63.3133   60.2904 H   0  0  0  0  0  0  0  0  0  0  0  0
  2  1  1  0  0  0
  2  4  1  0  0  0
  2  5  1  0  0  0
 47 48  1  0  0  0
 47  1  1  0  0  0
 48 52  1  0  0  0
  1 30  1  0  0  0
 29 30  1  0  0  0
 29 31  1  0  0  0
 30 32  1  0  0  0
  3  4  2  0  0  0
 32 33  2  0  0  0
 49 53  1  0  0  0
 49 57  1  0  0  0
 33 34  1  0  0  0
 62 54  1  0  0  0
 62 66  1  0  0  0
 34 35  1  0  0  0
 50 55  1  0  0  0
 50 58  1  0  0  0
 35 36  1  0  0  0
 51 52  1  0  0  0
 51 56  1  0  0  0
 36 37  1  0  0  0
 59 60  1  0  0  0
 59 61  1  0  0  0
 37 38  1  0  0  0
 63 66  1  0  0  0
 63 67  1  0  0  0
 38 39  1  0  0  0
 64 66  1  0  0  0
 39 40  1  0  0  0
 65 66  1  0  0  0
 65 68  1  0  0  0
 40 41  1  0  0  0
 41 42  1  0  0  0
 42 43  1  0  0  0
 43 44  1  0  0  0
 44 45  1  0  0  0
 45 46  1  0  0  0
  4  6  1  0  0  0
  6  7  1  0  0  0
  7  8  1  0  0  0
  8  9  1  0  0  0
  9 10  1  0  0  0
 10 11  1  0  0  0
 11 12  1  0  0  0
 12 13  1  0  0  0
 13 14  1  0  0  0
 14 15  1  0  0  0
 15 16  1  0  0  0
 16 17  1  0  0  0
 17 18  1  0  0  0
 18 19  1  0  0  0
 19 20  2  0  0  0
 20 21  1  0  0  0
 21 22  1  0  0  0
 22 23  1  0  0  0
 23 24  1  0  0  0
 24 25  1  0  0  0
 25 26  1  0  0  0
 26 27  1  0  0  0
 27 28  1  0  0  0
 52 53  1  0  0  0
 53 54  1  0  0  0
 54 55  1  0  0  0
 55 56  1  0  0  0
 56 60  1  0  0  0
M  CHG 1  64  -1
M  END
> <minimizedAffinity>
-9.41178

> <CNNscore>
0.1076476648

> <CNNaffinity>
7.4679031372

> <CNN_VS>
0.8039023280

> <CNNaffinity_variance>
2.2929124832

$$$$
/media/chris/experiments/cd1a-new-docking/inputs/ligands/7ryn_ligand.pdb


 68 68  0  0  0  0  0  0  0  0999 V2000
  -39.1873   60.3586   62.3176 C   0  0  0  0  0  0  0  0  0  0  0  0
  -38.5432   60.5011   61.0153 N   0  0  0  0  0  0  0  0  0  0  0  0
  -37.9441   59.6459   59.0209 O   0  0  0  0  0  0  0  0  0  0  0  0
  -38.4991   59.5212   60.1088 C   0  0  0  0  0  0  0  0  0  0  0  0
  -38.1203   61.3623   60.7944 H   0  0  0  0  0  0  0  0  0  0  0  0
  -39.1736   58.2323   60.5080 C   0  0  0  0  0  0  0  0  0  0  0  0
  -40.2380   57.7955   59.5096 C   0  0  0  0  0  0  0  0  0  0  0  0
  -41.6409   58.2001   59.9334 C   0  0  0  0  0  0  0  0  0  0  0  0
  -42.3103   57.2105   60.8726 C   0  0  0  0  0  0  0  0  0  0  0  0
  -41.7308   55.8056   60.8007 C   0  0  0  0  0  0  0  0  0  0  0  0
  -41.1924   55.2887   62.1287 C   0  0  0  0  0  0  0  0  0  0  0  0
  -41.2715   56.3022   63.2630 C   0  0  0  0  0  0  0  0  0  0  0  0
  -41.7278   55.7229   64.5997 C   0  0  0  0  0  0  0  0  0  0  0  0
  -42.8954   56.4744   65.2372 C   0  0  0  0  0  0  0  0  0  0  0  0
  -42.5435   57.2292   66.5190 C   0  0  0  0  0  0  0  0  0  0  0  0
  -43.7316   57.9661   67.1374 C   0  0  0  0  0  0  0  0  0  0  0  0
  -43.5862   59.4863   67.2053 C   0  0  0  0  0  0  0  0  0  0  0  0
  -42.1908   59.9841   67.5911 C   0  0  0  0  0  0  0  0  0  0  0  0
  -41.4974   60.7030   66.4702 C   0  0  0  0  0  0  0  0  0  0  0  0
  -40.3212   60.3911   65.9551 C   0  0  0  0  0  0  0  0  0  0  0  0
  -39.4439   59.2546   66.3848 C   0  0  0  0  0  0  0  0  0  0  0  0
  -39.1866   58.2258   65.2817 C   0  0  0  0  0  0  0  0  0  0  0  0
  -37.7095   57.9132   65.0825 C   0  0  0  0  0  0  0  0  0  0  0  0
  -37.3576   57.5444   63.6456 C   0  0  0  0  0  0  0  0  0  0  0  0
  -35.8643   57.5522   63.3395 C   0  0  0  0  0  0  0  0  0  0  0  0
  -35.0133   58.1445   64.4539 C   0  0  0  0  0  0  0  0  0  0  0  0
  -33.9868   59.1611   63.9798 C   0  0  0  0  0  0  0  0  0  0  0  0
  -32.6427   58.5376   63.6631 C   0  0  0  0  0  0  0  0  0  0  0  0
  -40.7563   62.0409   63.0546 O   0  0  0  0  0  0  0  0  0  0  0  0
  -40.6316   60.8777   62.2313 C   0  0  0  0  0  0  0  0  0  0  0  0
  -40.1097   62.7069   62.7733 H   0  0  0  0  0  0  0  0  0  0  0  0
  -41.6171   59.8253   62.6378 C   0  0  0  0  0  0  0  0  0  0  0  0
  -42.7970   60.0596   63.1773 C   0  0  0  0  0  0  0  0  0  0  0  0
  -43.7646   58.9876   63.5585 C   0  0  0  0  0  0  0  0  0  0  0  0
  -45.0538   59.5860   64.1247 C   0  0  0  0  0  0  0  0  0  0  0  0
  -46.0850   58.5539   64.5512 C   0  0  0  0  0  0  0  0  0  0  0  0
  -47.4359   59.1385   64.9268 C   0  0  0  0  0  0  0  0  0  0  0  0
  -48.5645   58.7433   63.9857 C   0  0  0  0  0  0  0  0  0  0  0  0
  -49.2766   59.9294   63.3538 C   0  0  0  0  0  0  0  0  0  0  0  0
  -50.1860   59.5520   62.1976 C   0  0  0  0  0  0  0  0  0  0  0  0
  -50.5522   58.0801   62.1541 C   0  0  0  0  0  0  0  0  0  0  0  0
  -50.5195   57.4787   60.7595 C   0  0  0  0  0  0  0  0  0  0  0  0
  -49.9304   58.4168   59.7225 C   0  0  0  0  0  0  0  0  0  0  0  0
  -48.5220   58.0621   59.2854 C   0  0  0  0  0  0  0  0  0  0  0  0
  -48.2003   56.5949   59.4913 C   0  0  0  0  0  0  0  0  0  0  0  0
  -47.4790   55.9870   58.3061 C   0  0  0  0  0  0  0  0  0  0  0  0
  -38.3843   61.0850   63.3767 C   0  0  0  0  0  0  0  0  0  0  0  0
  -37.1015   61.4070   62.8276 O   0  0  0  0  0  0  0  0  0  0  0  0
  -36.6649   61.9515   65.5393 O   0  0  0  0  0  0  0  0  0  0  0  0
  -33.2198   63.5546   63.5186 O   0  0  0  0  0  0  0  0  0  0  0  0
  -35.7629   63.1882   62.2242 O   0  0  0  0  0  0  0  0  0  0  0  0
  -36.5971   62.6466   63.2312 C   0  0  0  0  0  0  0  0  0  0  0  0
  -35.8059   62.4381   64.5160 C   0  0  0  0  0  0  0  0  0  0  0  0
  -35.1630   63.7504   64.9469 C   0  0  0  0  0  0  0  0  0  0  0  0
  -34.3554   64.3621   63.8117 C   0  0  0  0  0  0  0  0  0  0  0  0
  -35.2291   64.4776   62.5651 C   0  0  0  0  0  0  0  0  0  0  0  0
  -37.0677   61.1166   65.2535 H   0  0  0  0  0  0  0  0  0  0  0  0
  -32.6632   63.4800   64.3095 H   0  0  0  0  0  0  0  0  0  0  0  0
  -33.5690   63.9904   60.8636 O   0  0  0  0  0  0  0  0  0  0  0  0
  -34.4743   64.9728   61.3537 C   0  0  0  0  0  0  0  0  0  0  0  0
  -33.1020   64.3393   60.0882 H   0  0  0  0  0  0  0  0  0  0  0  0
  -34.2650   63.3802   66.0405 O   0  0  0  0  0  0  0  0  0  0  0  0
  -33.9370   62.8603   68.3705 O   0  0  0  0  0  0  0  0  0  0  0  0
  -36.1247   63.8002   67.5664 O   0  0  0  0  0  0  0  0  0  0  0  0
  -34.1539   65.1206   67.6624 O   0  0  0  0  0  0  0  0  0  0  0  0
  -34.7144   63.6949   67.5313 S   0  0  0  0  0  0  0  0  0  0  0  0
  -34.2641   61.9489   68.3126 H   0  0  0  0  0  0  0  0  0  0  0  0
  -33.1846   65.0901   67.6425 H   0  0  0  0  0  0  0  0  0  0  0  0
  2  1  1  0  0  0
  2  4  1  0  0  0
  2  5  1  0  0  0
 47 48  1  0  0  0
 47  1  1  0  0  0
 48 52  1  0  0  0
  1 30  1  0  0  0
 29 30  1  0  0  0
 29 31  1  0  0  0
 30 32  1  0  0  0
  3  4  2  0  0  0
 32 33  2  0  0  0
 49 53  1  0  0  0
 49 57  1  0  0  0
 33 34  1  0  0  0
 62 54  1  0  0  0
 62 66  1  0  0  0
 34 35  1  0  0  0
 50 55  1  0  0  0
 50 58  1  0  0  0
 35 36  1  0  0  0
 51 52  1  0  0  0
 51 56  1  0  0  0
 36 37  1  0  0  0
 59 60  1  0  0  0
 59 61  1  0  0  0
 37 38  1  0  0  0
 63 66  1  0  0  0
 63 67  1  0  0  0
 38 39  1  0  0  0
 64 66  1  0  0  0
 39 40  1  0  0  0
 65 66  1  0  0  0
 65 68  1  0  0  0
 40 41  1  0  0  0
 41 42  1  0  0  0
 42 43  1  0  0  0
 43 44  1  0  0  0
 44 45  1  0  0  0
 45 46  1  0  0  0
  4  6  1  0  0  0
  6  7  1  0  0  0
  7  8  1  0  0  0
  8  9  1  0  0  0
  9 10  1  0  0  0
 10 11  1  0  0  0
 11 12  1  0  0  0
 12 13  1  0  0  0
 13 14  1  0  0  0
 14 15  1  0  0  0
 15 16  1  0  0  0
 16 17  1  0  0  0
 17 18  1  0  0  0
 18 19  1  0  0  0
 19 20  2  0  0  0
 20 21  1  0  0  0
 21 22  1  0  0  0
 22 23  1  0  0  0
 23 24  1  0  0  0
 24 25  1  0  0  0
 25 26  1  0  0  0
 26 27  1  0  0  0
 27 28  1  0  0  0
 52 53  1  0  0  0
 53 54  1  0  0  0
 54 55  1  0  0  0
 55 56  1  0  0  0
 56 60  1  0  0  0
M  CHG 1  64  -1
M  END
> <minimizedAffinity>
-7.58869

> <CNNscore>
0.1054227799

> <CNNaffinity>
7.3908782005

> <CNN_VS>
0.7791669369

> <CNNaffinity_variance>
1.4573379755

$$$$
/media/chris/experiments/cd1a-new-docking/inputs/ligands/7ryn_ligand.pdb


 68 68  0  0  0  0  0  0  0  0999 V2000
  -39.4315   60.4174   62.2700 C   0  0  0  0  0  0  0  0  0  0  0  0
  -38.8595   60.4673   60.9278 N   0  0  0  0  0  0  0  0  0  0  0  0
  -38.3107   59.4570   58.9923 O   0  0  0  0  0  0  0  0  0  0  0  0
  -38.8051   59.4088   60.1150 C   0  0  0  0  0  0  0  0  0  0  0  0
  -38.4959   61.3236   60.6058 H   0  0  0  0  0  0  0  0  0  0  0  0
  -39.3875   58.1316   60.6671 C   0  0  0  0  0  0  0  0  0  0  0  0
  -40.7272   57.7780   60.0341 C   0  0  0  0  0  0  0  0  0  0  0  0
  -41.5160   56.7703   60.8548 C   0  0  0  0  0  0  0  0  0  0  0  0
  -40.8444   56.3787   62.1606 C   0  0  0  0  0  0  0  0  0  0  0  0
  -41.7950   55.7780   63.1854 C   0  0  0  0  0  0  0  0  0  0  0  0
  -41.5236   56.2214   64.6172 C   0  0  0  0  0  0  0  0  0  0  0  0
  -42.7780   56.5992   65.3944 C   0  0  0  0  0  0  0  0  0  0  0  0
  -42.5121   57.2744   66.7375 C   0  0  0  0  0  0  0  0  0  0  0  0
  -43.1970   58.6307   66.8982 C   0  0  0  0  0  0  0  0  0  0  0  0
  -42.2751   59.7593   67.3596 C   0  0  0  0  0  0  0  0  0  0  0  0
  -41.5246   60.4392   66.2142 C   0  0  0  0  0  0  0  0  0  0  0  0
  -40.0218   60.1629   66.1709 C   0  0  0  0  0  0  0  0  0  0  0  0
  -39.6215   58.8894   65.4214 C   0  0  0  0  0  0  0  0  0  0  0  0
  -38.2188   58.4496   65.7265 C   0  0  0  0  0  0  0  0  0  0  0  0
  -37.3807   57.8779   64.8799 C   0  0  0  0  0  0  0  0  0  0  0  0
  -37.6612   57.5561   63.4434 C   0  0  0  0  0  0  0  0  0  0  0  0
  -36.4297   57.6519   62.5403 C   0  0  0  0  0  0  0  0  0  0  0  0
  -35.1231   57.7672   63.3140 C   0  0  0  0  0  0  0  0  0  0  0  0
  -33.9168   57.2379   62.5465 C   0  0  0  0  0  0  0  0  0  0  0  0
  -32.7688   58.2317   62.4115 C   0  0  0  0  0  0  0  0  0  0  0  0
  -32.8168   59.3653   63.4263 C   0  0  0  0  0  0  0  0  0  0  0  0
  -32.4946   60.7335   62.8467 C   0  0  0  0  0  0  0  0  0  0  0  0
  -31.5770   60.6625   61.6431 C   0  0  0  0  0  0  0  0  0  0  0  0
  -41.0673   62.0205   63.0375 O   0  0  0  0  0  0  0  0  0  0  0  0
  -40.9018   60.8624   62.2141 C   0  0  0  0  0  0  0  0  0  0  0  0
  -40.4616   62.7174   62.7406 H   0  0  0  0  0  0  0  0  0  0  0  0
  -41.8236   59.7628   62.6444 C   0  0  0  0  0  0  0  0  0  0  0  0
  -43.0644   59.9316   63.0567 C   0  0  0  0  0  0  0  0  0  0  0  0
  -43.9643   58.8119   63.4654 C   0  0  0  0  0  0  0  0  0  0  0  0
  -45.0015   59.2842   64.4863 C   0  0  0  0  0  0  0  0  0  0  0  0
  -46.2171   58.3791   64.6038 C   0  0  0  0  0  0  0  0  0  0  0  0
  -47.4322   59.0430   65.2287 C   0  0  0  0  0  0  0  0  0  0  0  0
  -48.7188   58.8464   64.4402 C   0  0  0  0  0  0  0  0  0  0  0  0
  -49.0230   59.9815   63.4747 C   0  0  0  0  0  0  0  0  0  0  0  0
  -49.6512   59.5234   62.1702 C   0  0  0  0  0  0  0  0  0  0  0  0
  -49.5161   58.0349   61.9083 C   0  0  0  0  0  0  0  0  0  0  0  0
  -49.8338   57.6303   60.4789 C   0  0  0  0  0  0  0  0  0  0  0  0
  -49.1617   56.3341   60.0659 C   0  0  0  0  0  0  0  0  0  0  0  0
  -48.0241   56.5058   59.0776 C   0  0  0  0  0  0  0  0  0  0  0  0
  -48.0555   57.8523   58.3815 C   0  0  0  0  0  0  0  0  0  0  0  0
  -47.0508   57.9451   57.2516 C   0  0  0  0  0  0  0  0  0  0  0  0
  -38.6138   61.2730   63.2153 C   0  0  0  0  0  0  0  0  0  0  0  0
  -37.2419   61.2072   62.8101 O   0  0  0  0  0  0  0  0  0  0  0  0
  -35.2032   62.9882   62.0942 O   0  0  0  0  0  0  0  0  0  0  0  0
  -36.7142   64.4804   65.8375 O   0  0  0  0  0  0  0  0  0  0  0  0
  -36.9522   61.7262   65.0406 O   0  0  0  0  0  0  0  0  0  0  0  0
  -36.3359   61.6722   63.7676 C   0  0  0  0  0  0  0  0  0  0  0  0
  -35.8749   63.0612   63.3454 C   0  0  0  0  0  0  0  0  0  0  0  0
  -34.9509   63.6450   64.4066 C   0  0  0  0  0  0  0  0  0  0  0  0
  -35.5991   63.5966   65.7824 C   0  0  0  0  0  0  0  0  0  0  0  0
  -36.0664   62.1738   66.0792 C   0  0  0  0  0  0  0  0  0  0  0  0
  -35.8011   62.6154   61.4275 H   0  0  0  0  0  0  0  0  0  0  0  0
  -36.4194   65.3851   65.6492 H   0  0  0  0  0  0  0  0  0  0  0  0
  -36.3221   62.9570   68.3617 O   0  0  0  0  0  0  0  0  0  0  0  0
  -36.8238   62.0561   67.3811 C   0  0  0  0  0  0  0  0  0  0  0  0
  -36.8286   62.8560   69.1828 H   0  0  0  0  0  0  0  0  0  0  0  0
  -34.7612   65.0387   64.0052 O   0  0  0  0  0  0  0  0  0  0  0  0
  -33.6640   66.4273   62.3698 O   0  0  0  0  0  0  0  0  0  0  0  0
  -32.5921   64.2973   63.1636 O   0  0  0  0  0  0  0  0  0  0  0  0
  -32.7631   66.2096   64.5604 O   0  0  0  0  0  0  0  0  0  0  0  0
  -33.3712   65.4612   63.3629 S   0  0  0  0  0  0  0  0  0  0  0  0
  -34.0509   65.9886   61.5960 H   0  0  0  0  0  0  0  0  0  0  0  0
  -33.2723   67.0177   64.7291 H   0  0  0  0  0  0  0  0  0  0  0  0
  2  1  1  0  0  0
  2  4  1  0  0  0
  2  5  1  0  0  0
 47 48  1  0  0  0
 47  1  1  0  0  0
 48 52  1  0  0  0
  1 30  1  0  0  0
 29 30  1  0  0  0
 29 31  1  0  0  0
 30 32  1  0  0  0
  3  4  2  0  0  0
 32 33  2  0  0  0
 49 53  1  0  0  0
 49 57  1  0  0  0
 33 34  1  0  0  0
 62 54  1  0  0  0
 62 66  1  0  0  0
 34 35  1  0  0  0
 50 55  1  0  0  0
 50 58  1  0  0  0
 35 36  1  0  0  0
 51 52  1  0  0  0
 51 56  1  0  0  0
 36 37  1  0  0  0
 59 60  1  0  0  0
 59 61  1  0  0  0
 37 38  1  0  0  0
 63 66  1  0  0  0
 63 67  1  0  0  0
 38 39  1  0  0  0
 64 66  1  0  0  0
 39 40  1  0  0  0
 65 66  1  0  0  0
 65 68  1  0  0  0
 40 41  1  0  0  0
 41 42  1  0  0  0
 42 43  1  0  0  0
 43 44  1  0  0  0
 44 45  1  0  0  0
 45 46  1  0  0  0
  4  6  1  0  0  0
  6  7  1  0  0  0
  7  8  1  0  0  0
  8  9  1  0  0  0
  9 10  1  0  0  0
 10 11  1  0  0  0
 11 12  1  0  0  0
 12 13  1  0  0  0
 13 14  1  0  0  0
 14 15  1  0  0  0
 15 16  1  0  0  0
 16 17  1  0  0  0
 17 18  1  0  0  0
 18 19  1  0  0  0
 19 20  2  0  0  0
 20 21  1  0  0  0
 21 22  1  0  0  0
 22 23  1  0  0  0
 23 24  1  0  0  0
 24 25  1  0  0  0
 25 26  1  0  0  0
 26 27  1  0  0  0
 27 28  1  0  0  0
 52 53  1  0  0  0
 53 54  1  0  0  0
 54 55  1  0  0  0
 55 56  1  0  0  0
 56 60  1  0  0  0
M  CHG 1  64  -1
M  END
> <minimizedAffinity>
-8.54063

> <CNNscore>
0.1052471474

> <CNNaffinity>
7.5457792282

> <CNN_VS>
0.7941717505

> <CNNaffinity_variance>
1.9312298298

$$$$
/media/chris/experiments/cd1a-new-docking/inputs/ligands/7ryn_ligand.pdb


 68 68  0  0  0  0  0  0  0  0999 V2000
  -39.0112   60.3371   62.3318 C   0  0  0  0  0  0  0  0  0  0  0  0
  -38.4531   60.3567   60.9829 N   0  0  0  0  0  0  0  0  0  0  0  0
  -38.0909   59.3602   58.9970 O   0  0  0  0  0  0  0  0  0  0  0  0
  -38.5744   59.3400   60.1253 C   0  0  0  0  0  0  0  0  0  0  0  0
  -37.9632   61.1592   60.6910 H   0  0  0  0  0  0  0  0  0  0  0  0
  -39.3440   58.1462   60.6333 C   0  0  0  0  0  0  0  0  0  0  0  0
  -40.6474   57.9253   59.8764 C   0  0  0  0  0  0  0  0  0  0  0  0
  -41.7378   57.3245   60.7491 C   0  0  0  0  0  0  0  0  0  0  0  0
  -41.7056   55.8068   60.8177 C   0  0  0  0  0  0  0  0  0  0  0  0
  -41.2431   55.2612   62.1604 C   0  0  0  0  0  0  0  0  0  0  0  0
  -41.1743   56.3086   63.2645 C   0  0  0  0  0  0  0  0  0  0  0  0
  -42.1425   56.0582   64.4135 C   0  0  0  0  0  0  0  0  0  0  0  0
  -41.7016   56.6437   65.7527 C   0  0  0  0  0  0  0  0  0  0  0  0
  -42.8141   57.3634   66.5134 C   0  0  0  0  0  0  0  0  0  0  0  0
  -42.3259   58.3838   67.5415 C   0  0  0  0  0  0  0  0  0  0  0  0
  -42.8020   59.8087   67.2587 C   0  0  0  0  0  0  0  0  0  0  0  0
  -41.7052   60.7852   66.8339 C   0  0  0  0  0  0  0  0  0  0  0  0
  -40.6842   60.2177   65.8443 C   0  0  0  0  0  0  0  0  0  0  0  0
  -39.2881   60.1936   66.3961 C   0  0  0  0  0  0  0  0  0  0  0  0
  -38.3661   59.2821   66.1416 C   0  0  0  0  0  0  0  0  0  0  0  0
  -38.5278   58.0898   65.2481 C   0  0  0  0  0  0  0  0  0  0  0  0
  -37.2188   57.6154   64.6133 C   0  0  0  0  0  0  0  0  0  0  0  0
  -37.3550   57.2753   63.1352 C   0  0  0  0  0  0  0  0  0  0  0  0
  -36.1256   57.6462   62.3133 C   0  0  0  0  0  0  0  0  0  0  0  0
  -34.7962   57.3088   62.9787 C   0  0  0  0  0  0  0  0  0  0  0  0
  -33.5808   57.6560   62.1306 C   0  0  0  0  0  0  0  0  0  0  0  0
  -32.4851   58.3921   62.8852 C   0  0  0  0  0  0  0  0  0  0  0  0
  -32.7935   58.5573   64.3594 C   0  0  0  0  0  0  0  0  0  0  0  0
  -40.5686   62.0503   63.0205 O   0  0  0  0  0  0  0  0  0  0  0  0
  -40.4679   60.8258   62.2877 C   0  0  0  0  0  0  0  0  0  0  0  0
  -39.9521   62.7007   62.6495 H   0  0  0  0  0  0  0  0  0  0  0  0
  -41.4081   59.7955   62.8340 C   0  0  0  0  0  0  0  0  0  0  0  0
  -42.7128   59.9452   62.9494 C   0  0  0  0  0  0  0  0  0  0  0  0
  -43.6263   58.8919   63.4850 C   0  0  0  0  0  0  0  0  0  0  0  0
  -44.7133   59.5047   64.3705 C   0  0  0  0  0  0  0  0  0  0  0  0
  -45.8820   58.5755   64.6555 C   0  0  0  0  0  0  0  0  0  0  0  0
  -46.0739   58.2460   66.1260 C   0  0  0  0  0  0  0  0  0  0  0  0
  -47.2959   58.9015   66.7527 C   0  0  0  0  0  0  0  0  0  0  0  0
  -48.2706   59.4750   65.7356 C   0  0  0  0  0  0  0  0  0  0  0  0
  -49.7035   59.0124   65.9330 C   0  0  0  0  0  0  0  0  0  0  0  0
  -50.4994   58.8997   64.6460 C   0  0  0  0  0  0  0  0  0  0  0  0
  -50.3136   60.0756   63.7024 C   0  0  0  0  0  0  0  0  0  0  0  0
  -49.7234   59.6743   62.3634 C   0  0  0  0  0  0  0  0  0  0  0  0
  -49.5085   58.1823   62.1956 C   0  0  0  0  0  0  0  0  0  0  0  0
  -50.2309   57.6221   60.9861 C   0  0  0  0  0  0  0  0  0  0  0  0
  -49.5313   56.4128   60.4009 C   0  0  0  0  0  0  0  0  0  0  0  0
  -38.1575   61.1768   63.2594 C   0  0  0  0  0  0  0  0  0  0  0  0
  -36.7936   60.7661   63.1116 O   0  0  0  0  0  0  0  0  0  0  0  0
  -34.1030   61.2404   62.4976 O   0  0  0  0  0  0  0  0  0  0  0  0
  -35.3462   64.6825   64.7622 O   0  0  0  0  0  0  0  0  0  0  0  0
  -36.6376   62.1204   64.9744 O   0  0  0  0  0  0  0  0  0  0  0  0
  -35.9267   61.2909   64.0745 C   0  0  0  0  0  0  0  0  0  0  0  0
  -34.8517   62.0939   63.3538 C   0  0  0  0  0  0  0  0  0  0  0  0
  -33.9324   62.7583   64.3710 C   0  0  0  0  0  0  0  0  0  0  0  0
  -34.7312   63.5607   65.3874 C   0  0  0  0  0  0  0  0  0  0  0  0
  -35.8082   62.6745   66.0083 C   0  0  0  0  0  0  0  0  0  0  0  0
  -34.6986   60.8238   61.8552 H   0  0  0  0  0  0  0  0  0  0  0  0
  -34.6636   65.2471   64.3671 H   0  0  0  0  0  0  0  0  0  0  0  0
  -36.3232   63.2608   68.3060 O   0  0  0  0  0  0  0  0  0  0  0  0
  -36.7233   63.4217   66.9499 C   0  0  0  0  0  0  0  0  0  0  0  0
  -36.9298   63.7515   68.8824 H   0  0  0  0  0  0  0  0  0  0  0  0
  -33.0995   63.6639   63.5801 O   0  0  0  0  0  0  0  0  0  0  0  0
  -30.9606   64.5615   62.9272 O   0  0  0  0  0  0  0  0  0  0  0  0
  -31.2720   62.0849   63.2192 O   0  0  0  0  0  0  0  0  0  0  0  0
  -31.2446   63.5707   65.0709 O   0  0  0  0  0  0  0  0  0  0  0  0
  -31.5280   63.4322   63.5660 S   0  0  0  0  0  0  0  0  0  0  0  0
  -31.1210   64.5072   61.9721 H   0  0  0  0  0  0  0  0  0  0  0  0
  -31.4094   64.4854   65.3482 H   0  0  0  0  0  0  0  0  0  0  0  0
  2  1  1  0  0  0
  2  4  1  0  0  0
  2  5  1  0  0  0
 47 48  1  0  0  0
 47  1  1  0  0  0
 48 52  1  0  0  0
  1 30  1  0  0  0
 29 30  1  0  0  0
 29 31  1  0  0  0
 30 32  1  0  0  0
  3  4  2  0  0  0
 32 33  2  0  0  0
 49 53  1  0  0  0
 49 57  1  0  0  0
 33 34  1  0  0  0
 62 54  1  0  0  0
 62 66  1  0  0  0
 34 35  1  0  0  0
 50 55  1  0  0  0
 50 58  1  0  0  0
 35 36  1  0  0  0
 51 52  1  0  0  0
 51 56  1  0  0  0
 36 37  1  0  0  0
 59 60  1  0  0  0
 59 61  1  0  0  0
 37 38  1  0  0  0
 63 66  1  0  0  0
 63 67  1  0  0  0
 38 39  1  0  0  0
 64 66  1  0  0  0
 39 40  1  0  0  0
 65 66  1  0  0  0
 65 68  1  0  0  0
 40 41  1  0  0  0
 41 42  1  0  0  0
 42 43  1  0  0  0
 43 44  1  0  0  0
 44 45  1  0  0  0
 45 46  1  0  0  0
  4  6  1  0  0  0
  6  7  1  0  0  0
  7  8  1  0  0  0
  8  9  1  0  0  0
  9 10  1  0  0  0
 10 11  1  0  0  0
 11 12  1  0  0  0
 12 13  1  0  0  0
 13 14  1  0  0  0
 14 15  1  0  0  0
 15 16  1  0  0  0
 16 17  1  0  0  0
 17 18  1  0  0  0
 18 19  1  0  0  0
 19 20  2  0  0  0
 20 21  1  0  0  0
 21 22  1  0  0  0
 22 23  1  0  0  0
 23 24  1  0  0  0
 24 25  1  0  0  0
 25 26  1  0  0  0
 26 27  1  0  0  0
 27 28  1  0  0  0
 52 53  1  0  0  0
 53 54  1  0  0  0
 54 55  1  0  0  0
 55 56  1  0  0  0
 56 60  1  0  0  0
M  CHG 1  64  -1
M  END
> <minimizedAffinity>
-8.06623

> <CNNscore>
0.1030156165

> <CNNaffinity>
7.3769760132

> <CNN_VS>
0.7599437237

> <CNNaffinity_variance>
1.8417589664

$$$$
