/media/chris/experiments/cd1a-new-docking/inputs/ligands/7ryn_ligand.pdb


 68 68  0  0  0  0  0  0  0  0999 V2000
  -37.3924   60.2906   63.0276 C   0  0  0  0  0  0  0  0  0  0  0  0
  -38.6257   60.3197   62.2470 N   0  0  0  0  0  0  0  0  0  0  0  0
  -37.7763   59.2994   60.4289 O   0  0  0  0  0  0  0  0  0  0  0  0
  -38.7220   59.8230   61.0108 C   0  0  0  0  0  0  0  0  0  0  0  0
  -39.4261   60.7256   62.6518 H   0  0  0  0  0  0  0  0  0  0  0  0
  -40.0807   59.9376   60.3657 C   0  0  0  0  0  0  0  0  0  0  0  0
  -41.2179   59.7018   61.3515 C   0  0  0  0  0  0  0  0  0  0  0  0
  -41.6426   58.2437   61.4191 C   0  0  0  0  0  0  0  0  0  0  0  0
  -42.3316   57.8624   62.7189 C   0  0  0  0  0  0  0  0  0  0  0  0
  -41.9286   56.4952   63.2508 C   0  0  0  0  0  0  0  0  0  0  0  0
  -42.1814   56.3111   64.7418 C   0  0  0  0  0  0  0  0  0  0  0  0
  -41.9389   57.5674   65.5684 C   0  0  0  0  0  0  0  0  0  0  0  0
  -43.1343   58.0158   66.4053 C   0  0  0  0  0  0  0  0  0  0  0  0
  -44.4874   57.7656   65.7414 C   0  0  0  0  0  0  0  0  0  0  0  0
  -45.6508   58.5466   66.3522 C   0  0  0  0  0  0  0  0  0  0  0  0
  -46.7775   57.6536   66.8719 C   0  0  0  0  0  0  0  0  0  0  0  0
  -48.1278   57.8478   66.1822 C   0  0  0  0  0  0  0  0  0  0  0  0
  -48.7180   59.2552   66.3045 C   0  0  0  0  0  0  0  0  0  0  0  0
  -48.4669   60.1005   65.0893 C   0  0  0  0  0  0  0  0  0  0  0  0
  -49.3547   60.4144   64.1625 C   0  0  0  0  0  0  0  0  0  0  0  0
  -50.7924   59.9920   64.1394 C   0  0  0  0  0  0  0  0  0  0  0  0
  -51.1064   58.9387   63.0747 C   0  0  0  0  0  0  0  0  0  0  0  0
  -49.8609   58.3238   62.4504 C   0  0  0  0  0  0  0  0  0  0  0  0
  -50.0920   57.7873   61.0421 C   0  0  0  0  0  0  0  0  0  0  0  0
  -49.1209   58.3218   59.9958 C   0  0  0  0  0  0  0  0  0  0  0  0
  -48.9543   57.4075   58.7902 C   0  0  0  0  0  0  0  0  0  0  0  0
  -47.5082   57.1644   58.3886 C   0  0  0  0  0  0  0  0  0  0  0  0
  -47.0807   57.9939   57.1948 C   0  0  0  0  0  0  0  0  0  0  0  0
  -37.6846   59.2298   65.1780 O   0  0  0  0  0  0  0  0  0  0  0  0
  -37.3208   58.9744   63.8183 C   0  0  0  0  0  0  0  0  0  0  0  0
  -38.5690   59.6275   65.2068 H   0  0  0  0  0  0  0  0  0  0  0  0
  -35.9576   58.3589   63.7350 C   0  0  0  0  0  0  0  0  0  0  0  0
  -35.2720   58.1830   62.6227 C   0  0  0  0  0  0  0  0  0  0  0  0
  -33.9069   57.5791   62.5741 C   0  0  0  0  0  0  0  0  0  0  0  0
  -32.9789   58.2335   63.5997 C   0  0  0  0  0  0  0  0  0  0  0  0
  -31.8225   59.0081   62.9887 C   0  0  0  0  0  0  0  0  0  0  0  0
  -32.2432   60.2198   62.1748 C   0  0  0  0  0  0  0  0  0  0  0  0
  -31.5253   61.5047   62.5619 C   0  0  0  0  0  0  0  0  0  0  0  0
  -30.2095   61.7139   61.8283 C   0  0  0  0  0  0  0  0  0  0  0  0
  -29.7212   63.1518   61.8456 C   0  0  0  0  0  0  0  0  0  0  0  0
  -30.1800   63.9747   60.6562 C   0  0  0  0  0  0  0  0  0  0  0  0
  -30.1909   65.4722   60.9114 C   0  0  0  0  0  0  0  0  0  0  0  0
  -31.2470   66.2040   60.1041 C   0  0  0  0  0  0  0  0  0  0  0  0
  -30.8750   67.6257   59.7291 C   0  0  0  0  0  0  0  0  0  0  0  0
  -30.9150   67.8627   58.2321 C   0  0  0  0  0  0  0  0  0  0  0  0
  -30.7870   66.5793   57.4377 C   0  0  0  0  0  0  0  0  0  0  0  0
  -37.3221   61.5027   63.9333 C   0  0  0  0  0  0  0  0  0  0  0  0
  -35.9546   61.7084   64.3053 O   0  0  0  0  0  0  0  0  0  0  0  0
  -34.3243   62.5306   66.4283 O   0  0  0  0  0  0  0  0  0  0  0  0
  -32.8216   64.6448   62.9940 O   0  0  0  0  0  0  0  0  0  0  0  0
  -35.5240   63.6744   63.1747 O   0  0  0  0  0  0  0  0  0  0  0  0
  -35.5915   63.0512   64.4438 C   0  0  0  0  0  0  0  0  0  0  0  0
  -34.2327   63.1039   65.1302 C   0  0  0  0  0  0  0  0  0  0  0  0
  -33.7557   64.5477   65.2240 C   0  0  0  0  0  0  0  0  0  0  0  0
  -33.7905   65.2245   63.8616 C   0  0  0  0  0  0  0  0  0  0  0  0
  -35.1788   65.0670   63.2463 C   0  0  0  0  0  0  0  0  0  0  0  0
  -34.6286   61.6124   66.3555 H   0  0  0  0  0  0  0  0  0  0  0  0
  -31.9387   64.7439   63.3833 H   0  0  0  0  0  0  0  0  0  0  0  0
  -34.4044   66.7260   61.6536 O   0  0  0  0  0  0  0  0  0  0  0  0
  -35.2718   65.6137   61.8410 C   0  0  0  0  0  0  0  0  0  0  0  0
  -34.4884   67.0519   60.7439 H   0  0  0  0  0  0  0  0  0  0  0  0
  -32.3711   64.4501   65.6851 O   0  0  0  0  0  0  0  0  0  0  0  0
  -32.2673   66.8269   65.3017 O   0  0  0  0  0  0  0  0  0  0  0  0
  -30.3373   65.3454   64.6725 O   0  0  0  0  0  0  0  0  0  0  0  0
  -30.8716   65.8115   66.9383 O   0  0  0  0  0  0  0  0  0  0  0  0
  -31.4206   65.7103   65.5057 S   0  0  0  0  0  0  0  0  0  0  0  0
  -32.6330   66.7955   64.4039 H   0  0  0  0  0  0  0  0  0  0  0  0
  -31.5883   66.0610   67.5423 H   0  0  0  0  0  0  0  0  0  0  0  0
  2  1  1  0  0  0
  2  4  1  0  0  0
  2  5  1  0  0  0
 47 48  1  0  0  0
 47  1  1  0  0  0
 48 52  1  0  0  0
  1 30  1  0  0  0
 29 30  1  0  0  0
 29 31  1  0  0  0
 30 32  1  0  0  0
  3  4  2  0  0  0
 32 33  2  0  0  0
 49 53  1  0  0  0
 49 57  1  0  0  0
 33 34  1  0  0  0
 62 54  1  0  0  0
 62 66  1  0  0  0
 34 35  1  0  0  0
 50 55  1  0  0  0
 50 58  1  0  0  0
 35 36  1  0  0  0
 51 52  1  0  0  0
 51 56  1  0  0  0
 36 37  1  0  0  0
 59 60  1  0  0  0
 59 61  1  0  0  0
 37 38  1  0  0  0
 63 66  1  0  0  0
 63 67  1  0  0  0
 38 39  1  0  0  0
 64 66  1  0  0  0
 39 40  1  0  0  0
 65 66  1  0  0  0
 65 68  1  0  0  0
 40 41  1  0  0  0
 41 42  1  0  0  0
 42 43  1  0  0  0
 43 44  1  0  0  0
 44 45  1  0  0  0
 45 46  1  0  0  0
  4  6  1  0  0  0
  6  7  1  0  0  0
  7  8  1  0  0  0
  8  9  1  0  0  0
  9 10  1  0  0  0
 10 11  1  0  0  0
 11 12  1  0  0  0
 12 13  1  0  0  0
 13 14  1  0  0  0
 14 15  1  0  0  0
 15 16  1  0  0  0
 16 17  1  0  0  0
 17 18  1  0  0  0
 18 19  1  0  0  0
 19 20  2  0  0  0
 20 21  1  0  0  0
 21 22  1  0  0  0
 22 23  1  0  0  0
 23 24  1  0  0  0
 24 25  1  0  0  0
 25 26  1  0  0  0
 26 27  1  0  0  0
 27 28  1  0  0  0
 52 53  1  0  0  0
 53 54  1  0  0  0
 54 55  1  0  0  0
 55 56  1  0  0  0
 56 60  1  0  0  0
M  CHG 1  64  -1
M  END
> <minimizedAffinity>
-8.95723

> <CNNscore>
0.2443920672

> <CNNaffinity>
6.9305830002

> <CNN_VS>
1.6937794685

> <CNNaffinity_variance>
0.7915554047

$$$$
/media/chris/experiments/cd1a-new-docking/inputs/ligands/7ryn_ligand.pdb


 68 68  0  0  0  0  0  0  0  0999 V2000
  -38.2811   59.5241   62.8155 C   0  0  0  0  0  0  0  0  0  0  0  0
  -39.5768   59.0864   62.3048 N   0  0  0  0  0  0  0  0  0  0  0  0
  -38.7645   57.9900   60.5142 O   0  0  0  0  0  0  0  0  0  0  0  0
  -39.7179   58.3549   61.1961 C   0  0  0  0  0  0  0  0  0  0  0  0
  -40.3866   59.3431   62.8021 H   0  0  0  0  0  0  0  0  0  0  0  0
  -41.1355   57.9919   60.8301 C   0  0  0  0  0  0  0  0  0  0  0  0
  -42.0036   57.7198   62.0519 C   0  0  0  0  0  0  0  0  0  0  0  0
  -41.8225   56.3128   62.5985 C   0  0  0  0  0  0  0  0  0  0  0  0
  -41.8728   56.2299   64.1150 C   0  0  0  0  0  0  0  0  0  0  0  0
  -40.7656   57.0072   64.8108 C   0  0  0  0  0  0  0  0  0  0  0  0
  -41.2518   58.2392   65.5635 C   0  0  0  0  0  0  0  0  0  0  0  0
  -42.3433   57.9471   66.5852 C   0  0  0  0  0  0  0  0  0  0  0  0
  -43.6190   58.7649   66.4008 C   0  0  0  0  0  0  0  0  0  0  0  0
  -44.1864   58.7215   64.9829 C   0  0  0  0  0  0  0  0  0  0  0  0
  -45.5822   58.1082   64.8737 C   0  0  0  0  0  0  0  0  0  0  0  0
  -46.3134   58.0161   66.2130 C   0  0  0  0  0  0  0  0  0  0  0  0
  -47.3254   59.1313   66.4760 C   0  0  0  0  0  0  0  0  0  0  0  0
  -48.6286   59.0205   65.6802 C   0  0  0  0  0  0  0  0  0  0  0  0
  -48.7522   60.0709   64.6144 C   0  0  0  0  0  0  0  0  0  0  0  0
  -49.8042   60.2757   63.8417 C   0  0  0  0  0  0  0  0  0  0  0  0
  -51.0874   59.5023   63.8757 C   0  0  0  0  0  0  0  0  0  0  0  0
  -51.4170   58.8001   62.5567 C   0  0  0  0  0  0  0  0  0  0  0  0
  -50.2234   58.0800   61.9434 C   0  0  0  0  0  0  0  0  0  0  0  0
  -50.2162   58.1110   60.4191 C   0  0  0  0  0  0  0  0  0  0  0  0
  -49.2492   57.1260   59.7723 C   0  0  0  0  0  0  0  0  0  0  0  0
  -48.1129   57.7932   59.0103 C   0  0  0  0  0  0  0  0  0  0  0  0
  -48.0194   57.3846   57.5488 C   0  0  0  0  0  0  0  0  0  0  0  0
  -47.2751   56.0801   57.3481 C   0  0  0  0  0  0  0  0  0  0  0  0
  -37.7555   59.5022   65.1731 O   0  0  0  0  0  0  0  0  0  0  0  0
  -37.8918   58.6594   64.0253 C   0  0  0  0  0  0  0  0  0  0  0  0
  -38.5836   59.9859   65.3192 H   0  0  0  0  0  0  0  0  0  0  0  0
  -36.6291   57.8953   63.7687 C   0  0  0  0  0  0  0  0  0  0  0  0
  -35.8069   58.1067   62.7600 C   0  0  0  0  0  0  0  0  0  0  0  0
  -34.5462   57.3368   62.5395 C   0  0  0  0  0  0  0  0  0  0  0  0
  -33.4001   58.2637   62.1290 C   0  0  0  0  0  0  0  0  0  0  0  0
  -32.6249   58.8511   63.2972 C   0  0  0  0  0  0  0  0  0  0  0  0
  -31.4472   59.7205   62.8914 C   0  0  0  0  0  0  0  0  0  0  0  0
  -31.8275   60.9122   62.0247 C   0  0  0  0  0  0  0  0  0  0  0  0
  -30.7057   61.3885   61.1148 C   0  0  0  0  0  0  0  0  0  0  0  0
  -29.7861   62.4100   61.7606 C   0  0  0  0  0  0  0  0  0  0  0  0
  -29.9715   63.8238   61.2419 C   0  0  0  0  0  0  0  0  0  0  0  0
  -29.6156   64.9015   62.2517 C   0  0  0  0  0  0  0  0  0  0  0  0
  -29.6762   64.4130   63.6871 C   0  0  0  0  0  0  0  0  0  0  0  0
  -30.0401   65.4835   64.6980 C   0  0  0  0  0  0  0  0  0  0  0  0
  -31.3034   65.1522   65.4679 C   0  0  0  0  0  0  0  0  0  0  0  0
  -31.7364   63.7127   65.2808 C   0  0  0  0  0  0  0  0  0  0  0  0
  -38.3302   60.9978   63.1621 C   0  0  0  0  0  0  0  0  0  0  0  0
  -37.2090   61.6427   62.5475 O   0  0  0  0  0  0  0  0  0  0  0  0
  -35.3848   63.6135   61.7544 O   0  0  0  0  0  0  0  0  0  0  0  0
  -36.6962   64.8286   65.6692 O   0  0  0  0  0  0  0  0  0  0  0  0
  -36.7787   62.0970   64.7695 O   0  0  0  0  0  0  0  0  0  0  0  0
  -36.2671   62.1440   63.4506 C   0  0  0  0  0  0  0  0  0  0  0  0
  -35.9547   63.5819   63.0568 C   0  0  0  0  0  0  0  0  0  0  0  0
  -34.9958   64.1988   64.0671 C   0  0  0  0  0  0  0  0  0  0  0  0
  -35.5226   64.0434   65.4862 C   0  0  0  0  0  0  0  0  0  0  0  0
  -35.8489   62.5763   65.7540 C   0  0  0  0  0  0  0  0  0  0  0  0
  -36.0039   63.2184   61.1208 H   0  0  0  0  0  0  0  0  0  0  0  0
  -36.4910   65.7613   65.4994 H   0  0  0  0  0  0  0  0  0  0  0  0
  -35.9725   63.2421   68.0843 O   0  0  0  0  0  0  0  0  0  0  0  0
  -36.4845   62.3456   67.1050 C   0  0  0  0  0  0  0  0  0  0  0  0
  -36.4000   63.0677   68.9374 H   0  0  0  0  0  0  0  0  0  0  0  0
  -34.9517   65.6179   63.7157 O   0  0  0  0  0  0  0  0  0  0  0  0
  -33.0376   64.9835   62.3963 O   0  0  0  0  0  0  0  0  0  0  0  0
  -33.3211   67.3546   63.1790 O   0  0  0  0  0  0  0  0  0  0  0  0
  -34.7007   66.4207   61.4875 O   0  0  0  0  0  0  0  0  0  0  0  0
  -33.8244   66.1172   62.7139 S   0  0  0  0  0  0  0  0  0  0  0  0
  -32.4697   64.7625   63.1510 H   0  0  0  0  0  0  0  0  0  0  0  0
  -35.0658   65.5928   61.1382 H   0  0  0  0  0  0  0  0  0  0  0  0
  2  1  1  0  0  0
  2  4  1  0  0  0
  2  5  1  0  0  0
 47 48  1  0  0  0
 47  1  1  0  0  0
 48 52  1  0  0  0
  1 30  1  0  0  0
 29 30  1  0  0  0
 29 31  1  0  0  0
 30 32  1  0  0  0
  3  4  2  0  0  0
 32 33  2  0  0  0
 49 53  1  0  0  0
 49 57  1  0  0  0
 33 34  1  0  0  0
 62 54  1  0  0  0
 62 66  1  0  0  0
 34 35  1  0  0  0
 50 55  1  0  0  0
 50 58  1  0  0  0
 35 36  1  0  0  0
 51 52  1  0  0  0
 51 56  1  0  0  0
 36 37  1  0  0  0
 59 60  1  0  0  0
 59 61  1  0  0  0
 37 38  1  0  0  0
 63 66  1  0  0  0
 63 67  1  0  0  0
 38 39  1  0  0  0
 64 66  1  0  0  0
 39 40  1  0  0  0
 65 66  1  0  0  0
 65 68  1  0  0  0
 40 41  1  0  0  0
 41 42  1  0  0  0
 42 43  1  0  0  0
 43 44  1  0  0  0
 44 45  1  0  0  0
 45 46  1  0  0  0
  4  6  1  0  0  0
  6  7  1  0  0  0
  7  8  1  0  0  0
  8  9  1  0  0  0
  9 10  1  0  0  0
 10 11  1  0  0  0
 11 12  1  0  0  0
 12 13  1  0  0  0
 13 14  1  0  0  0
 14 15  1  0  0  0
 15 16  1  0  0  0
 16 17  1  0  0  0
 17 18  1  0  0  0
 18 19  1  0  0  0
 19 20  2  0  0  0
 20 21  1  0  0  0
 21 22  1  0  0  0
 22 23  1  0  0  0
 23 24  1  0  0  0
 24 25  1  0  0  0
 25 26  1  0  0  0
 26 27  1  0  0  0
 27 28  1  0  0  0
 52 53  1  0  0  0
 53 54  1  0  0  0
 54 55  1  0  0  0
 55 56  1  0  0  0
 56 60  1  0  0  0
M  CHG 1  64  -1
M  END
> <minimizedAffinity>
-8.73000

> <CNNscore>
0.1847878993

> <CNNaffinity>
7.1442170143

> <CNN_VS>
1.3201647997

> <CNNaffinity_variance>
0.8666229248

$$$$
/media/chris/experiments/cd1a-new-docking/inputs/ligands/7ryn_ligand.pdb


 68 68  0  0  0  0  0  0  0  0999 V2000
  -38.4173   59.6621   62.0704 C   0  0  0  0  0  0  0  0  0  0  0  0
  -39.6991   59.3169   61.4630 N   0  0  0  0  0  0  0  0  0  0  0  0
  -38.8635   58.7776   59.4434 O   0  0  0  0  0  0  0  0  0  0  0  0
  -39.8228   58.9023   60.1992 C   0  0  0  0  0  0  0  0  0  0  0  0
  -40.5127   59.3936   62.0120 H   0  0  0  0  0  0  0  0  0  0  0  0
  -41.2277   58.5847   59.7514 C   0  0  0  0  0  0  0  0  0  0  0  0
  -42.0150   57.8103   60.8006 C   0  0  0  0  0  0  0  0  0  0  0  0
  -41.5141   56.3859   60.9767 C   0  0  0  0  0  0  0  0  0  0  0  0
  -41.6971   55.8378   62.3823 C   0  0  0  0  0  0  0  0  0  0  0  0
  -40.8710   56.5594   63.4365 C   0  0  0  0  0  0  0  0  0  0  0  0
  -41.7001   57.3603   64.4325 C   0  0  0  0  0  0  0  0  0  0  0  0
  -42.9005   56.6029   64.9858 C   0  0  0  0  0  0  0  0  0  0  0  0
  -44.0069   57.4922   65.5472 C   0  0  0  0  0  0  0  0  0  0  0  0
  -44.6251   58.4395   64.5201 C   0  0  0  0  0  0  0  0  0  0  0  0
  -46.1300   58.6559   64.6778 C   0  0  0  0  0  0  0  0  0  0  0  0
  -46.7138   57.9901   65.9239 C   0  0  0  0  0  0  0  0  0  0  0  0
  -47.5579   58.9049   66.8113 C   0  0  0  0  0  0  0  0  0  0  0  0
  -48.5273   59.8193   66.0576 C   0  0  0  0  0  0  0  0  0  0  0  0
  -49.8862   59.2067   65.8776 C   0  0  0  0  0  0  0  0  0  0  0  0
  -50.3829   58.7323   64.7489 C   0  0  0  0  0  0  0  0  0  0  0  0
  -49.6882   58.7078   63.4212 C   0  0  0  0  0  0  0  0  0  0  0  0
  -50.6309   58.8964   62.2307 C   0  0  0  0  0  0  0  0  0  0  0  0
  -50.7527   57.6552   61.3567 C   0  0  0  0  0  0  0  0  0  0  0  0
  -50.1978   57.8492   59.9500 C   0  0  0  0  0  0  0  0  0  0  0  0
  -48.6847   57.6987   59.8420 C   0  0  0  0  0  0  0  0  0  0  0  0
  -48.1188   58.1417   58.5001 C   0  0  0  0  0  0  0  0  0  0  0  0
  -47.0644   57.2063   57.9301 C   0  0  0  0  0  0  0  0  0  0  0  0
  -47.6474   55.9078   57.4105 C   0  0  0  0  0  0  0  0  0  0  0  0
  -38.5360   59.0748   64.4105 O   0  0  0  0  0  0  0  0  0  0  0  0
  -38.0627   58.6171   63.1405 C   0  0  0  0  0  0  0  0  0  0  0  0
  -39.4908   59.2386   64.3598 H   0  0  0  0  0  0  0  0  0  0  0  0
  -36.5886   58.3535   63.1813 C   0  0  0  0  0  0  0  0  0  0  0  0
  -35.8283   58.1341   62.1268 C   0  0  0  0  0  0  0  0  0  0  0  0
  -34.3569   57.8889   62.1993 C   0  0  0  0  0  0  0  0  0  0  0  0
  -33.6403   59.0444   62.9011 C   0  0  0  0  0  0  0  0  0  0  0  0
  -32.1468   58.8306   63.0865 C   0  0  0  0  0  0  0  0  0  0  0  0
  -31.2821   59.9510   62.5345 C   0  0  0  0  0  0  0  0  0  0  0  0
  -31.9659   61.3104   62.5200 C   0  0  0  0  0  0  0  0  0  0  0  0
  -31.0390   62.4641   62.8712 C   0  0  0  0  0  0  0  0  0  0  0  0
  -29.8637   62.6156   61.9216 C   0  0  0  0  0  0  0  0  0  0  0  0
  -29.7127   64.0098   61.3423 C   0  0  0  0  0  0  0  0  0  0  0  0
  -30.0573   65.1222   62.3178 C   0  0  0  0  0  0  0  0  0  0  0  0
  -31.3829   65.7930   62.0086 C   0  0  0  0  0  0  0  0  0  0  0  0
  -31.8217   65.6756   60.5616 C   0  0  0  0  0  0  0  0  0  0  0  0
  -31.3959   66.8664   59.7253 C   0  0  0  0  0  0  0  0  0  0  0  0
  -30.4354   66.4842   58.6180 C   0  0  0  0  0  0  0  0  0  0  0  0
  -38.4737   61.0640   62.6413 C   0  0  0  0  0  0  0  0  0  0  0  0
  -37.1816   61.6633   62.4924 O   0  0  0  0  0  0  0  0  0  0  0  0
  -34.8032   63.1360   62.6164 O   0  0  0  0  0  0  0  0  0  0  0  0
  -36.7668   63.8842   66.3722 O   0  0  0  0  0  0  0  0  0  0  0  0
  -37.2516   61.5269   64.7957 O   0  0  0  0  0  0  0  0  0  0  0  0
  -36.4174   61.6819   63.6628 C   0  0  0  0  0  0  0  0  0  0  0  0
  -35.6841   63.0155   63.7261 C   0  0  0  0  0  0  0  0  0  0  0  0
  -34.9048   63.1164   65.0312 C   0  0  0  0  0  0  0  0  0  0  0  0
  -35.8048   62.8444   66.2277 C   0  0  0  0  0  0  0  0  0  0  0  0
  -36.5251   61.5123   66.0349 C   0  0  0  0  0  0  0  0  0  0  0  0
  -35.3105   63.0702   61.7922 H   0  0  0  0  0  0  0  0  0  0  0  0
  -36.3110   64.7316   66.4948 H   0  0  0  0  0  0  0  0  0  0  0  0
  -38.7738   60.7878   66.5894 O   0  0  0  0  0  0  0  0  0  0  0  0
  -37.5270   61.2148   67.1259 C   0  0  0  0  0  0  0  0  0  0  0  0
  -39.3924   60.6058   67.3141 H   0  0  0  0  0  0  0  0  0  0  0  0
  -34.4381   64.5019   65.0767 O   0  0  0  0  0  0  0  0  0  0  0  0
  -33.7678   64.8806   67.3601 O   0  0  0  0  0  0  0  0  0  0  0  0
  -32.4807   65.9098   65.4630 O   0  0  0  0  0  0  0  0  0  0  0  0
  -32.4060   63.5789   65.9080 O   0  0  0  0  0  0  0  0  0  0  0  0
  -33.2351   64.8662   66.0482 S   0  0  0  0  0  0  0  0  0  0  0  0
  -34.2991   65.6826   67.4845 H   0  0  0  0  0  0  0  0  0  0  0  0
  -32.8924   62.8368   66.2997 H   0  0  0  0  0  0  0  0  0  0  0  0
  2  1  1  0  0  0
  2  4  1  0  0  0
  2  5  1  0  0  0
 47 48  1  0  0  0
 47  1  1  0  0  0
 48 52  1  0  0  0
  1 30  1  0  0  0
 29 30  1  0  0  0
 29 31  1  0  0  0
 30 32  1  0  0  0
  3  4  2  0  0  0
 32 33  2  0  0  0
 49 53  1  0  0  0
 49 57  1  0  0  0
 33 34  1  0  0  0
 62 54  1  0  0  0
 62 66  1  0  0  0
 34 35  1  0  0  0
 50 55  1  0  0  0
 50 58  1  0  0  0
 35 36  1  0  0  0
 51 52  1  0  0  0
 51 56  1  0  0  0
 36 37  1  0  0  0
 59 60  1  0  0  0
 59 61  1  0  0  0
 37 38  1  0  0  0
 63 66  1  0  0  0
 63 67  1  0  0  0
 38 39  1  0  0  0
 64 66  1  0  0  0
 39 40  1  0  0  0
 65 66  1  0  0  0
 65 68  1  0  0  0
 40 41  1  0  0  0
 41 42  1  0  0  0
 42 43  1  0  0  0
 43 44  1  0  0  0
 44 45  1  0  0  0
 45 46  1  0  0  0
  4  6  1  0  0  0
  6  7  1  0  0  0
  7  8  1  0  0  0
  8  9  1  0  0  0
  9 10  1  0  0  0
 10 11  1  0  0  0
 11 12  1  0  0  0
 12 13  1  0  0  0
 13 14  1  0  0  0
 14 15  1  0  0  0
 15 16  1  0  0  0
 16 17  1  0  0  0
 17 18  1  0  0  0
 18 19  1  0  0  0
 19 20  2  0  0  0
 20 21  1  0  0  0
 21 22  1  0  0  0
 22 23  1  0  0  0
 23 24  1  0  0  0
 24 25  1  0  0  0
 25 26  1  0  0  0
 26 27  1  0  0  0
 27 28  1  0  0  0
 52 53  1  0  0  0
 53 54  1  0  0  0
 54 55  1  0  0  0
 55 56  1  0  0  0
 56 60  1  0  0  0
M  CHG 1  64  -1
M  END
> <minimizedAffinity>
-8.97121

> <CNNscore>
0.1434203982

> <CNNaffinity>
6.9622993469

> <CNN_VS>
0.9985357523

> <CNNaffinity_variance>
0.5467938185

$$$$
/media/chris/experiments/cd1a-new-docking/inputs/ligands/7ryn_ligand.pdb


 68 68  0  0  0  0  0  0  0  0999 V2000
  -40.1307   59.8270   66.0284 C   0  0  0  0  0  0  0  0  0  0  0  0
  -40.4759   58.6355   65.2586 N   0  0  0  0  0  0  0  0  0  0  0  0
  -42.0477   57.8833   66.6839 O   0  0  0  0  0  0  0  0  0  0  0  0
  -41.4056   57.7578   65.6451 C   0  0  0  0  0  0  0  0  0  0  0  0
  -39.9999   58.4709   64.4128 H   0  0  0  0  0  0  0  0  0  0  0  0
  -41.6289   56.5918   64.7145 C   0  0  0  0  0  0  0  0  0  0  0  0
  -43.0419   56.5593   64.1463 C   0  0  0  0  0  0  0  0  0  0  0  0
  -43.4604   57.8884   63.5383 C   0  0  0  0  0  0  0  0  0  0  0  0
  -44.5618   58.5983   64.3079 C   0  0  0  0  0  0  0  0  0  0  0  0
  -45.3129   57.6986   65.2780 C   0  0  0  0  0  0  0  0  0  0  0  0
  -45.4814   58.2927   66.6706 C   0  0  0  0  0  0  0  0  0  0  0  0
  -46.6917   57.7595   67.4265 C   0  0  0  0  0  0  0  0  0  0  0  0
  -47.6230   56.8825   66.5935 C   0  0  0  0  0  0  0  0  0  0  0  0
  -48.6152   57.6671   65.7365 C   0  0  0  0  0  0  0  0  0  0  0  0
  -49.1372   58.9512   66.3806 C   0  0  0  0  0  0  0  0  0  0  0  0
  -48.6115   60.2233   65.7155 C   0  0  0  0  0  0  0  0  0  0  0  0
  -48.2100   60.0684   64.2487 C   0  0  0  0  0  0  0  0  0  0  0  0
  -49.2127   60.6384   63.2419 C   0  0  0  0  0  0  0  0  0  0  0  0
  -50.6098   60.1335   63.4605 C   0  0  0  0  0  0  0  0  0  0  0  0
  -51.0935   58.9768   63.0439 C   0  0  0  0  0  0  0  0  0  0  0  0
  -50.3436   57.9341   62.2715 C   0  0  0  0  0  0  0  0  0  0  0  0
  -50.9694   57.6062   60.9142 C   0  0  0  0  0  0  0  0  0  0  0  0
  -50.1075   58.0357   59.7344 C   0  0  0  0  0  0  0  0  0  0  0  0
  -48.6325   57.6898   59.9051 C   0  0  0  0  0  0  0  0  0  0  0  0
  -48.2806   56.2444   59.5728 C   0  0  0  0  0  0  0  0  0  0  0  0
  -47.2487   56.1044   58.4625 C   0  0  0  0  0  0  0  0  0  0  0  0
  -47.6445   56.7753   57.1568 C   0  0  0  0  0  0  0  0  0  0  0  0
  -46.8794   58.0571   56.8972 C   0  0  0  0  0  0  0  0  0  0  0  0
  -41.6080   61.7132   66.3358 O   0  0  0  0  0  0  0  0  0  0  0  0
  -40.7741   61.0603   65.3742 C   0  0  0  0  0  0  0  0  0  0  0  0
  -41.0810   61.9450   67.1165 H   0  0  0  0  0  0  0  0  0  0  0  0
  -41.5562   60.6869   64.1524 C   0  0  0  0  0  0  0  0  0  0  0  0
  -41.5315   61.3402   63.0075 C   0  0  0  0  0  0  0  0  0  0  0  0
  -42.3123   60.9335   61.8012 C   0  0  0  0  0  0  0  0  0  0  0  0
  -41.3978   60.3380   60.7287 C   0  0  0  0  0  0  0  0  0  0  0  0
  -41.6331   58.8606   60.4595 C   0  0  0  0  0  0  0  0  0  0  0  0
  -40.3949   57.9934   60.6094 C   0  0  0  0  0  0  0  0  0  0  0  0
  -39.5060   58.3815   61.7821 C   0  0  0  0  0  0  0  0  0  0  0  0
  -38.8543   57.1940   62.4739 C   0  0  0  0  0  0  0  0  0  0  0  0
  -37.3376   57.2615   62.5063 C   0  0  0  0  0  0  0  0  0  0  0  0
  -36.7631   57.6062   63.8677 C   0  0  0  0  0  0  0  0  0  0  0  0
  -35.2472   57.7025   63.8896 C   0  0  0  0  0  0  0  0  0  0  0  0
  -34.6008   57.1767   62.6214 C   0  0  0  0  0  0  0  0  0  0  0  0
  -33.3967   57.9727   62.1558 C   0  0  0  0  0  0  0  0  0  0  0  0
  -32.9321   58.9827   63.1868 C   0  0  0  0  0  0  0  0  0  0  0  0
  -31.6679   59.7028   62.7650 C   0  0  0  0  0  0  0  0  0  0  0  0
  -38.6255   59.9593   66.1337 C   0  0  0  0  0  0  0  0  0  0  0  0
  -38.1523   60.6555   64.9752 O   0  0  0  0  0  0  0  0  0  0  0  0
  -36.3779   60.8389   62.8167 O   0  0  0  0  0  0  0  0  0  0  0  0
  -36.1275   64.6582   64.7846 O   0  0  0  0  0  0  0  0  0  0  0  0
  -36.9562   62.2552   66.1323 O   0  0  0  0  0  0  0  0  0  0  0  0
  -36.8985   61.2528   65.1346 C   0  0  0  0  0  0  0  0  0  0  0  0
  -36.4926   61.8612   63.7985 C   0  0  0  0  0  0  0  0  0  0  0  0
  -35.1688   62.6004   63.9470 C   0  0  0  0  0  0  0  0  0  0  0  0
  -35.2264   63.5997   65.0931 C   0  0  0  0  0  0  0  0  0  0  0  0
  -35.6910   62.8946   66.3650 C   0  0  0  0  0  0  0  0  0  0  0  0
  -37.2260   60.3759   62.7314 H   0  0  0  0  0  0  0  0  0  0  0  0
  -35.8340   65.1075   63.9766 H   0  0  0  0  0  0  0  0  0  0  0  0
  -36.3916   63.1580   68.6734 O   0  0  0  0  0  0  0  0  0  0  0  0
  -35.8847   63.8367   67.5301 C   0  0  0  0  0  0  0  0  0  0  0  0
  -36.5041   63.7896   69.4009 H   0  0  0  0  0  0  0  0  0  0  0  0
  -35.0020   63.3170   62.6828 O   0  0  0  0  0  0  0  0  0  0  0  0
  -33.5148   65.1892   62.9826 O   0  0  0  0  0  0  0  0  0  0  0  0
  -33.3022   63.6974   60.9714 O   0  0  0  0  0  0  0  0  0  0  0  0
  -32.6927   62.9632   63.1454 O   0  0  0  0  0  0  0  0  0  0  0  0
  -33.5768   63.9291   62.3395 S   0  0  0  0  0  0  0  0  0  0  0  0
  -34.0635   65.8263   62.4990 H   0  0  0  0  0  0  0  0  0  0  0  0
  -32.8531   63.0924   64.0932 H   0  0  0  0  0  0  0  0  0  0  0  0
  2  1  1  0  0  0
  2  4  1  0  0  0
  2  5  1  0  0  0
 47 48  1  0  0  0
 47  1  1  0  0  0
 48 52  1  0  0  0
  1 30  1  0  0  0
 29 30  1  0  0  0
 29 31  1  0  0  0
 30 32  1  0  0  0
  3  4  2  0  0  0
 32 33  2  0  0  0
 49 53  1  0  0  0
 49 57  1  0  0  0
 33 34  1  0  0  0
 62 54  1  0  0  0
 62 66  1  0  0  0
 34 35  1  0  0  0
 50 55  1  0  0  0
 50 58  1  0  0  0
 35 36  1  0  0  0
 51 52  1  0  0  0
 51 56  1  0  0  0
 36 37  1  0  0  0
 59 60  1  0  0  0
 59 61  1  0  0  0
 37 38  1  0  0  0
 63 66  1  0  0  0
 63 67  1  0  0  0
 38 39  1  0  0  0
 64 66  1  0  0  0
 39 40  1  0  0  0
 65 66  1  0  0  0
 65 68  1  0  0  0
 40 41  1  0  0  0
 41 42  1  0  0  0
 42 43  1  0  0  0
 43 44  1  0  0  0
 44 45  1  0  0  0
 45 46  1  0  0  0
  4  6  1  0  0  0
  6  7  1  0  0  0
  7  8  1  0  0  0
  8  9  1  0  0  0
  9 10  1  0  0  0
 10 11  1  0  0  0
 11 12  1  0  0  0
 12 13  1  0  0  0
 13 14  1  0  0  0
 14 15  1  0  0  0
 15 16  1  0  0  0
 16 17  1  0  0  0
 17 18  1  0  0  0
 18 19  1  0  0  0
 19 20  2  0  0  0
 20 21  1  0  0  0
 21 22  1  0  0  0
 22 23  1  0  0  0
 23 24  1  0  0  0
 24 25  1  0  0  0
 25 26  1  0  0  0
 26 27  1  0  0  0
 27 28  1  0  0  0
 52 53  1  0  0  0
 53 54  1  0  0  0
 54 55  1  0  0  0
 55 56  1  0  0  0
 56 60  1  0  0  0
M  CHG 1  64  -1
M  END
> <minimizedAffinity>
-9.87076

> <CNNscore>
0.1183601692

> <CNNaffinity>
7.4017057419

> <CNN_VS>
0.8760671616

> <CNNaffinity_variance>
2.4869136810

$$$$
/media/chris/experiments/cd1a-new-docking/inputs/ligands/7ryn_ligand.pdb


 68 68  0  0  0  0  0  0  0  0999 V2000
  -34.8862   58.6249   62.6083 C   0  0  0  0  0  0  0  0  0  0  0  0
  -36.0314   58.1769   61.8214 N   0  0  0  0  0  0  0  0  0  0  0  0
  -37.2625   60.0379   62.1190 O   0  0  0  0  0  0  0  0  0  0  0  0
  -37.1285   58.9164   61.6381 C   0  0  0  0  0  0  0  0  0  0  0  0
  -35.9930   57.2855   61.4053 H   0  0  0  0  0  0  0  0  0  0  0  0
  -38.2043   58.2878   60.7880 C   0  0  0  0  0  0  0  0  0  0  0  0
  -39.4142   57.8511   61.6041 C   0  0  0  0  0  0  0  0  0  0  0  0
  -40.5700   57.3825   60.7348 C   0  0  0  0  0  0  0  0  0  0  0  0
  -41.7193   58.3732   60.6515 C   0  0  0  0  0  0  0  0  0  0  0  0
  -41.5785   59.5595   61.5935 C   0  0  0  0  0  0  0  0  0  0  0  0
  -42.3979   59.4366   62.8718 C   0  0  0  0  0  0  0  0  0  0  0  0
  -43.2200   58.1570   62.9571 C   0  0  0  0  0  0  0  0  0  0  0  0
  -44.2422   58.1348   64.0905 C   0  0  0  0  0  0  0  0  0  0  0  0
  -43.7802   58.8501   65.3591 C   0  0  0  0  0  0  0  0  0  0  0  0
  -44.2682   58.2161   66.6615 C   0  0  0  0  0  0  0  0  0  0  0  0
  -45.7440   57.8189   66.6300 C   0  0  0  0  0  0  0  0  0  0  0  0
  -46.6904   58.7881   67.3383 C   0  0  0  0  0  0  0  0  0  0  0  0
  -47.8774   59.2623   66.4956 C   0  0  0  0  0  0  0  0  0  0  0  0
  -47.5652   59.3190   65.0281 C   0  0  0  0  0  0  0  0  0  0  0  0
  -48.4425   59.4617   64.0506 C   0  0  0  0  0  0  0  0  0  0  0  0
  -49.9263   59.5985   64.2103 C   0  0  0  0  0  0  0  0  0  0  0  0
  -50.7084   59.3592   62.9170 C   0  0  0  0  0  0  0  0  0  0  0  0
  -49.8190   59.0073   61.7319 C   0  0  0  0  0  0  0  0  0  0  0  0
  -50.2121   57.7033   61.0467 C   0  0  0  0  0  0  0  0  0  0  0  0
  -49.9740   57.6847   59.5412 C   0  0  0  0  0  0  0  0  0  0  0  0
  -48.5792   57.2195   59.1469 C   0  0  0  0  0  0  0  0  0  0  0  0
  -47.8152   58.2081   58.2805 C   0  0  0  0  0  0  0  0  0  0  0  0
  -47.1350   57.5512   57.0966 C   0  0  0  0  0  0  0  0  0  0  0  0
  -33.0155   57.1881   62.0881 O   0  0  0  0  0  0  0  0  0  0  0  0
  -33.6019   58.4562   61.7807 C   0  0  0  0  0  0  0  0  0  0  0  0
  -33.6592   56.4835   61.9142 H   0  0  0  0  0  0  0  0  0  0  0  0
  -32.6343   59.5704   62.0379 C   0  0  0  0  0  0  0  0  0  0  0  0
  -31.4902   59.4475   62.6814 C   0  0  0  0  0  0  0  0  0  0  0  0
  -30.5388   60.5760   62.9089 C   0  0  0  0  0  0  0  0  0  0  0  0
  -29.9438   61.0689   61.5882 C   0  0  0  0  0  0  0  0  0  0  0  0
  -29.8956   62.5822   61.4529 C   0  0  0  0  0  0  0  0  0  0  0  0
  -31.1854   63.2055   60.9471 C   0  0  0  0  0  0  0  0  0  0  0  0
  -31.6494   64.4088   61.7548 C   0  0  0  0  0  0  0  0  0  0  0  0
  -30.5227   65.3520   62.1476 C   0  0  0  0  0  0  0  0  0  0  0  0
  -29.9253   66.1127   60.9768 C   0  0  0  0  0  0  0  0  0  0  0  0
  -30.5944   65.8237   59.6460 C   0  0  0  0  0  0  0  0  0  0  0  0
  -31.0813   67.0658   58.9194 C   0  0  0  0  0  0  0  0  0  0  0  0
  -29.9641   67.8250   58.2279 C   0  0  0  0  0  0  0  0  0  0  0  0
  -30.0728   67.8592   56.7155 C   0  0  0  0  0  0  0  0  0  0  0  0
  -31.0545   66.8359   56.1789 C   0  0  0  0  0  0  0  0  0  0  0  0
  -32.0475   67.4386   55.2066 C   0  0  0  0  0  0  0  0  0  0  0  0
  -34.8244   57.8629   63.9160 C   0  0  0  0  0  0  0  0  0  0  0  0
  -34.5831   58.7995   64.9721 O   0  0  0  0  0  0  0  0  0  0  0  0
  -37.3791   58.8466   64.8281 O   0  0  0  0  0  0  0  0  0  0  0  0
  -36.3477   62.1247   67.4189 O   0  0  0  0  0  0  0  0  0  0  0  0
  -34.5404   61.0572   65.4512 O   0  0  0  0  0  0  0  0  0  0  0  0
  -35.2673   60.0107   64.8348 C   0  0  0  0  0  0  0  0  0  0  0  0
  -36.6327   59.8582   65.4925 C   0  0  0  0  0  0  0  0  0  0  0  0
  -37.3818   61.1839   65.4439 C   0  0  0  0  0  0  0  0  0  0  0  0
  -36.5367   62.3107   66.0199 C   0  0  0  0  0  0  0  0  0  0  0  0
  -35.1775   62.3386   65.3253 C   0  0  0  0  0  0  0  0  0  0  0  0
  -36.8925   58.0084   64.8657 H   0  0  0  0  0  0  0  0  0  0  0  0
  -37.2102   62.1066   67.8622 H   0  0  0  0  0  0  0  0  0  0  0  0
  -33.6584   62.8988   67.1329 O   0  0  0  0  0  0  0  0  0  0  0  0
  -34.2301   63.3579   65.9134 C   0  0  0  0  0  0  0  0  0  0  0  0
  -33.0572   63.5748   67.4828 H   0  0  0  0  0  0  0  0  0  0  0  0
  -38.5575   60.9751   66.2886 O   0  0  0  0  0  0  0  0  0  0  0  0
  -40.9192   61.3871   66.0451 O   0  0  0  0  0  0  0  0  0  0  0  0
  -39.9781   59.0871   65.6719 O   0  0  0  0  0  0  0  0  0  0  0  0
  -39.5886   60.8625   64.1446 O   0  0  0  0  0  0  0  0  0  0  0  0
  -39.9092   60.4982   65.6036 S   0  0  0  0  0  0  0  0  0  0  0  0
  -41.1475   61.1854   66.9660 H   0  0  0  0  0  0  0  0  0  0  0  0
  -39.5329   61.8269   64.0569 H   0  0  0  0  0  0  0  0  0  0  0  0
  2  1  1  0  0  0
  2  4  1  0  0  0
  2  5  1  0  0  0
 47 48  1  0  0  0
 47  1  1  0  0  0
 48 52  1  0  0  0
  1 30  1  0  0  0
 29 30  1  0  0  0
 29 31  1  0  0  0
 30 32  1  0  0  0
  3  4  2  0  0  0
 32 33  2  0  0  0
 49 53  1  0  0  0
 49 57  1  0  0  0
 33 34  1  0  0  0
 62 54  1  0  0  0
 62 66  1  0  0  0
 34 35  1  0  0  0
 50 55  1  0  0  0
 50 58  1  0  0  0
 35 36  1  0  0  0
 51 52  1  0  0  0
 51 56  1  0  0  0
 36 37  1  0  0  0
 59 60  1  0  0  0
 59 61  1  0  0  0
 37 38  1  0  0  0
 63 66  1  0  0  0
 63 67  1  0  0  0
 38 39  1  0  0  0
 64 66  1  0  0  0
 39 40  1  0  0  0
 65 66  1  0  0  0
 65 68  1  0  0  0
 40 41  1  0  0  0
 41 42  1  0  0  0
 42 43  1  0  0  0
 43 44  1  0  0  0
 44 45  1  0  0  0
 45 46  1  0  0  0
  4  6  1  0  0  0
  6  7  1  0  0  0
  7  8  1  0  0  0
  8  9  1  0  0  0
  9 10  1  0  0  0
 10 11  1  0  0  0
 11 12  1  0  0  0
 12 13  1  0  0  0
 13 14  1  0  0  0
 14 15  1  0  0  0
 15 16  1  0  0  0
 16 17  1  0  0  0
 17 18  1  0  0  0
 18 19  1  0  0  0
 19 20  2  0  0  0
 20 21  1  0  0  0
 21 22  1  0  0  0
 22 23  1  0  0  0
 23 24  1  0  0  0
 24 25  1  0  0  0
 25 26  1  0  0  0
 26 27  1  0  0  0
 27 28  1  0  0  0
 52 53  1  0  0  0
 53 54  1  0  0  0
 54 55  1  0  0  0
 55 56  1  0  0  0
 56 60  1  0  0  0
M  CHG 1  64  -1
M  END
> <minimizedAffinity>
-8.59381

> <CNNscore>
0.1099966019

> <CNNaffinity>
6.8149247169

> <CNN_VS>
0.7496185899

> <CNNaffinity_variance>
0.5732110739

$$$$
/media/chris/experiments/cd1a-new-docking/inputs/ligands/7ryn_ligand.pdb


 68 68  0  0  0  0  0  0  0  0999 V2000
  -30.8512   62.6040   61.5975 C   0  0  0  0  0  0  0  0  0  0  0  0
  -32.2530   63.0020   61.6857 N   0  0  0  0  0  0  0  0  0  0  0  0
  -32.0210   64.9306   60.5479 O   0  0  0  0  0  0  0  0  0  0  0  0
  -32.7284   64.1320   61.1553 C   0  0  0  0  0  0  0  0  0  0  0  0
  -32.8790   62.4080   62.1596 H   0  0  0  0  0  0  0  0  0  0  0  0
  -34.2063   64.3690   61.3420 C   0  0  0  0  0  0  0  0  0  0  0  0
  -34.7298   63.7950   62.6523 C   0  0  0  0  0  0  0  0  0  0  0  0
  -36.0701   63.0957   62.4924 C   0  0  0  0  0  0  0  0  0  0  0  0
  -36.3381   62.0300   63.5422 C   0  0  0  0  0  0  0  0  0  0  0  0
  -37.5690   61.1823   63.2581 C   0  0  0  0  0  0  0  0  0  0  0  0
  -38.0862   60.4153   64.4685 C   0  0  0  0  0  0  0  0  0  0  0  0
  -39.6054   60.3852   64.5766 C   0  0  0  0  0  0  0  0  0  0  0  0
  -40.1376   59.7049   65.8353 C   0  0  0  0  0  0  0  0  0  0  0  0
  -41.4159   60.3327   66.3886 C   0  0  0  0  0  0  0  0  0  0  0  0
  -42.4328   59.3310   66.9354 C   0  0  0  0  0  0  0  0  0  0  0  0
  -43.1999   58.5847   65.8438 C   0  0  0  0  0  0  0  0  0  0  0  0
  -44.4069   57.7842   66.3328 C   0  0  0  0  0  0  0  0  0  0  0  0
  -45.6574   58.6173   66.6264 C   0  0  0  0  0  0  0  0  0  0  0  0
  -46.9318   57.8779   66.3375 C   0  0  0  0  0  0  0  0  0  0  0  0
  -47.9033   58.2837   65.5392 C   0  0  0  0  0  0  0  0  0  0  0  0
  -47.9272   59.5629   64.7589 C   0  0  0  0  0  0  0  0  0  0  0  0
  -49.3380   60.0760   64.4628 C   0  0  0  0  0  0  0  0  0  0  0  0
  -50.3612   58.9607   64.2938 C   0  0  0  0  0  0  0  0  0  0  0  0
  -51.2412   59.1291   63.0602 C   0  0  0  0  0  0  0  0  0  0  0  0
  -50.8212   58.2815   61.8648 C   0  0  0  0  0  0  0  0  0  0  0  0
  -49.7430   58.9261   61.0050 C   0  0  0  0  0  0  0  0  0  0  0  0
  -49.1747   58.0123   59.9309 C   0  0  0  0  0  0  0  0  0  0  0  0
  -49.2787   56.5441   60.2906 C   0  0  0  0  0  0  0  0  0  0  0  0
  -30.5037   60.4272   60.6099 O   0  0  0  0  0  0  0  0  0  0  0  0
  -30.7333   61.0932   61.8549 C   0  0  0  0  0  0  0  0  0  0  0  0
  -29.7083   60.7910   60.1904 H   0  0  0  0  0  0  0  0  0  0  0  0
  -31.9565   60.5560   62.5324 C   0  0  0  0  0  0  0  0  0  0  0  0
  -32.1029   59.3184   62.9628 C   0  0  0  0  0  0  0  0  0  0  0  0
  -33.3309   58.8165   63.6488 C   0  0  0  0  0  0  0  0  0  0  0  0
  -34.5916   59.2013   62.8717 C   0  0  0  0  0  0  0  0  0  0  0  0
  -35.2639   58.0385   62.1600 C   0  0  0  0  0  0  0  0  0  0  0  0
  -36.5536   57.5690   62.8111 C   0  0  0  0  0  0  0  0  0  0  0  0
  -37.7450   57.5277   61.8651 C   0  0  0  0  0  0  0  0  0  0  0  0
  -38.0248   58.8549   61.1769 C   0  0  0  0  0  0  0  0  0  0  0  0
  -38.7482   58.7150   59.8491 C   0  0  0  0  0  0  0  0  0  0  0  0
  -40.2085   58.3236   59.9789 C   0  0  0  0  0  0  0  0  0  0  0  0
  -41.0901   59.4181   60.5555 C   0  0  0  0  0  0  0  0  0  0  0  0
  -41.5167   59.1446   61.9859 C   0  0  0  0  0  0  0  0  0  0  0  0
  -42.4826   60.1648   62.5572 C   0  0  0  0  0  0  0  0  0  0  0  0
  -42.5710   61.4204   61.7120 C   0  0  0  0  0  0  0  0  0  0  0  0
  -43.1484   62.5944   62.4754 C   0  0  0  0  0  0  0  0  0  0  0  0
  -30.0192   63.4134   62.5706 C   0  0  0  0  0  0  0  0  0  0  0  0
  -30.5749   63.2526   63.8806 O   0  0  0  0  0  0  0  0  0  0  0  0
  -33.0691   62.5421   64.9365 O   0  0  0  0  0  0  0  0  0  0  0  0
  -31.7571   65.8664   67.3343 O   0  0  0  0  0  0  0  0  0  0  0  0
  -30.8334   65.4146   64.6472 O   0  0  0  0  0  0  0  0  0  0  0  0
  -31.5019   64.2362   64.2374 C   0  0  0  0  0  0  0  0  0  0  0  0
  -32.3543   63.6902   65.3756 C   0  0  0  0  0  0  0  0  0  0  0  0
  -33.3235   64.7625   65.8570 C   0  0  0  0  0  0  0  0  0  0  0  0
  -32.5890   66.0519   66.1937 C   0  0  0  0  0  0  0  0  0  0  0  0
  -31.7303   66.4780   65.0054 C   0  0  0  0  0  0  0  0  0  0  0  0
  -32.4419   61.8673   64.6328 H   0  0  0  0  0  0  0  0  0  0  0  0
  -32.3009   65.5956   68.0905 H   0  0  0  0  0  0  0  0  0  0  0  0
  -29.6185   67.6143   64.6345 O   0  0  0  0  0  0  0  0  0  0  0  0
  -30.8776   67.6915   65.2929 C   0  0  0  0  0  0  0  0  0  0  0  0
  -29.0974   68.4063   64.8395 H   0  0  0  0  0  0  0  0  0  0  0  0
  -33.9155   64.2063   67.0734 O   0  0  0  0  0  0  0  0  0  0  0  0
  -36.0715   63.9573   68.1205 O   0  0  0  0  0  0  0  0  0  0  0  0
  -35.1913   62.1857   66.5706 O   0  0  0  0  0  0  0  0  0  0  0  0
  -35.9084   64.3038   65.7730 O   0  0  0  0  0  0  0  0  0  0  0  0
  -35.3501   63.5306   66.9791 S   0  0  0  0  0  0  0  0  0  0  0  0
  -35.7443   63.4879   68.9037 H   0  0  0  0  0  0  0  0  0  0  0  0
  -36.0317   65.2350   66.0148 H   0  0  0  0  0  0  0  0  0  0  0  0
  2  1  1  0  0  0
  2  4  1  0  0  0
  2  5  1  0  0  0
 47 48  1  0  0  0
 47  1  1  0  0  0
 48 52  1  0  0  0
  1 30  1  0  0  0
 29 30  1  0  0  0
 29 31  1  0  0  0
 30 32  1  0  0  0
  3  4  2  0  0  0
 32 33  2  0  0  0
 49 53  1  0  0  0
 49 57  1  0  0  0
 33 34  1  0  0  0
 62 54  1  0  0  0
 62 66  1  0  0  0
 34 35  1  0  0  0
 50 55  1  0  0  0
 50 58  1  0  0  0
 35 36  1  0  0  0
 51 52  1  0  0  0
 51 56  1  0  0  0
 36 37  1  0  0  0
 59 60  1  0  0  0
 59 61  1  0  0  0
 37 38  1  0  0  0
 63 66  1  0  0  0
 63 67  1  0  0  0
 38 39  1  0  0  0
 64 66  1  0  0  0
 39 40  1  0  0  0
 65 66  1  0  0  0
 65 68  1  0  0  0
 40 41  1  0  0  0
 41 42  1  0  0  0
 42 43  1  0  0  0
 43 44  1  0  0  0
 44 45  1  0  0  0
 45 46  1  0  0  0
  4  6  1  0  0  0
  6  7  1  0  0  0
  7  8  1  0  0  0
  8  9  1  0  0  0
  9 10  1  0  0  0
 10 11  1  0  0  0
 11 12  1  0  0  0
 12 13  1  0  0  0
 13 14  1  0  0  0
 14 15  1  0  0  0
 15 16  1  0  0  0
 16 17  1  0  0  0
 17 18  1  0  0  0
 18 19  1  0  0  0
 19 20  2  0  0  0
 20 21  1  0  0  0
 21 22  1  0  0  0
 22 23  1  0  0  0
 23 24  1  0  0  0
 24 25  1  0  0  0
 25 26  1  0  0  0
 26 27  1  0  0  0
 27 28  1  0  0  0
 52 53  1  0  0  0
 53 54  1  0  0  0
 54 55  1  0  0  0
 55 56  1  0  0  0
 56 60  1  0  0  0
M  CHG 1  64  -1
M  END
> <minimizedAffinity>
-8.69956

> <CNNscore>
0.1085795984

> <CNNaffinity>
7.0210647583

> <CNN_VS>
0.7623444200

> <CNNaffinity_variance>
1.6348683834

$$$$
/media/chris/experiments/cd1a-new-docking/inputs/ligands/7ryn_ligand.pdb


 68 68  0  0  0  0  0  0  0  0999 V2000
  -36.2086   57.8117   63.1259 C   0  0  0  0  0  0  0  0  0  0  0  0
  -36.9058   58.5278   64.1900 N   0  0  0  0  0  0  0  0  0  0  0  0
  -36.6527   60.5787   63.2970 O   0  0  0  0  0  0  0  0  0  0  0  0
  -37.0734   59.8529   64.1933 C   0  0  0  0  0  0  0  0  0  0  0  0
  -37.2703   58.0082   64.9426 H   0  0  0  0  0  0  0  0  0  0  0  0
  -37.8267   60.4123   65.3744 C   0  0  0  0  0  0  0  0  0  0  0  0
  -38.9033   59.4628   65.8844 C   0  0  0  0  0  0  0  0  0  0  0  0
  -40.2291   60.1618   66.1390 C   0  0  0  0  0  0  0  0  0  0  0  0
  -41.4449   59.3371   65.7502 C   0  0  0  0  0  0  0  0  0  0  0  0
  -42.3496   58.9849   66.9215 C   0  0  0  0  0  0  0  0  0  0  0  0
  -43.2352   57.7697   66.6772 C   0  0  0  0  0  0  0  0  0  0  0  0
  -44.5844   58.1048   66.0545 C   0  0  0  0  0  0  0  0  0  0  0  0
  -45.5247   58.8907   66.9647 C   0  0  0  0  0  0  0  0  0  0  0  0
  -46.7105   58.0791   67.4839 C   0  0  0  0  0  0  0  0  0  0  0  0
  -47.1901   56.9767   66.5400 C   0  0  0  0  0  0  0  0  0  0  0  0
  -48.1767   57.4684   65.4808 C   0  0  0  0  0  0  0  0  0  0  0  0
  -49.4384   58.1337   66.0306 C   0  0  0  0  0  0  0  0  0  0  0  0
  -49.4584   59.6612   65.9295 C   0  0  0  0  0  0  0  0  0  0  0  0
  -48.8116   60.1712   64.6741 C   0  0  0  0  0  0  0  0  0  0  0  0
  -49.3919   60.2925   63.4934 C   0  0  0  0  0  0  0  0  0  0  0  0
  -50.8142   59.9481   63.1703 C   0  0  0  0  0  0  0  0  0  0  0  0
  -51.0104   58.4952   62.7319 C   0  0  0  0  0  0  0  0  0  0  0  0
  -49.7906   57.9065   62.0356 C   0  0  0  0  0  0  0  0  0  0  0  0
  -50.0432   57.5441   60.5764 C   0  0  0  0  0  0  0  0  0  0  0  0
  -49.0908   56.4960   60.0124 C   0  0  0  0  0  0  0  0  0  0  0  0
  -47.8297   57.0832   59.3943 C   0  0  0  0  0  0  0  0  0  0  0  0
  -48.0634   57.8212   58.0857 C   0  0  0  0  0  0  0  0  0  0  0  0
  -46.8396   57.8390   57.1924 C   0  0  0  0  0  0  0  0  0  0  0  0
  -34.5060   58.1240   64.8106 O   0  0  0  0  0  0  0  0  0  0  0  0
  -34.7039   57.7746   63.4376 C   0  0  0  0  0  0  0  0  0  0  0  0
  -35.0125   57.5187   65.3745 H   0  0  0  0  0  0  0  0  0  0  0  0
  -33.9350   58.6904   62.5354 C   0  0  0  0  0  0  0  0  0  0  0  0
  -32.6967   59.0935   62.7413 C   0  0  0  0  0  0  0  0  0  0  0  0
  -31.9511   59.9962   61.8141 C   0  0  0  0  0  0  0  0  0  0  0  0
  -30.8641   60.7739   62.5589 C   0  0  0  0  0  0  0  0  0  0  0  0
  -30.1342   61.7976   61.7046 C   0  0  0  0  0  0  0  0  0  0  0  0
  -30.5546   63.2355   61.9570 C   0  0  0  0  0  0  0  0  0  0  0  0
  -31.7745   63.6726   61.1591 C   0  0  0  0  0  0  0  0  0  0  0  0
  -31.9166   65.1821   61.0385 C   0  0  0  0  0  0  0  0  0  0  0  0
  -32.8480   65.7934   62.0705 C   0  0  0  0  0  0  0  0  0  0  0  0
  -32.1380   66.5917   63.1480 C   0  0  0  0  0  0  0  0  0  0  0  0
  -32.0927   65.8980   64.4987 C   0  0  0  0  0  0  0  0  0  0  0  0
  -33.2098   64.8880   64.6850 C   0  0  0  0  0  0  0  0  0  0  0  0
  -32.7891   63.6115   65.3875 C   0  0  0  0  0  0  0  0  0  0  0  0
  -33.3691   62.3706   64.7375 C   0  0  0  0  0  0  0  0  0  0  0  0
  -34.2124   61.5541   65.6949 C   0  0  0  0  0  0  0  0  0  0  0  0
  -36.4964   58.4608   61.7879 C   0  0  0  0  0  0  0  0  0  0  0  0
  -37.6852   57.8723   61.2481 O   0  0  0  0  0  0  0  0  0  0  0  0
  -38.9674   60.3405   61.5719 O   0  0  0  0  0  0  0  0  0  0  0  0
  -42.1568   57.4822   61.1486 O   0  0  0  0  0  0  0  0  0  0  0  0
  -39.5319   56.7698   62.0866 O   0  0  0  0  0  0  0  0  0  0  0  0
  -38.8091   57.9867   62.0715 C   0  0  0  0  0  0  0  0  0  0  0  0
  -39.6804   59.1111   61.5266 C   0  0  0  0  0  0  0  0  0  0  0  0
  -40.9624   59.2147   62.3431 C   0  0  0  0  0  0  0  0  0  0  0  0
  -41.6664   57.8684   62.4284 C   0  0  0  0  0  0  0  0  0  0  0  0
  -40.6897   56.8105   62.9360 C   0  0  0  0  0  0  0  0  0  0  0  0
  -38.1541   60.2621   61.0491 H   0  0  0  0  0  0  0  0  0  0  0  0
  -42.7777   58.1532   60.8243 H   0  0  0  0  0  0  0  0  0  0  0  0
  -41.9906   55.1588   64.1478 O   0  0  0  0  0  0  0  0  0  0  0  0
  -41.2743   55.4175   62.9458 C   0  0  0  0  0  0  0  0  0  0  0  0
  -42.3517   54.2590   64.1217 H   0  0  0  0  0  0  0  0  0  0  0  0
  -41.7988   60.1564   61.5994 O   0  0  0  0  0  0  0  0  0  0  0  0
  -42.9312   62.2697   61.3572 O   0  0  0  0  0  0  0  0  0  0  0  0
  -41.3408   61.8832   63.2642 O   0  0  0  0  0  0  0  0  0  0  0  0
  -43.4626   60.8222   63.1682 O   0  0  0  0  0  0  0  0  0  0  0  0
  -42.3279   61.4551   62.3460 S   0  0  0  0  0  0  0  0  0  0  0  0
  -42.2417   62.6868   60.8173 H   0  0  0  0  0  0  0  0  0  0  0  0
  -44.1621   60.5148   62.5708 H   0  0  0  0  0  0  0  0  0  0  0  0
  2  1  1  0  0  0
  2  4  1  0  0  0
  2  5  1  0  0  0
 47 48  1  0  0  0
 47  1  1  0  0  0
 48 52  1  0  0  0
  1 30  1  0  0  0
 29 30  1  0  0  0
 29 31  1  0  0  0
 30 32  1  0  0  0
  3  4  2  0  0  0
 32 33  2  0  0  0
 49 53  1  0  0  0
 49 57  1  0  0  0
 33 34  1  0  0  0
 62 54  1  0  0  0
 62 66  1  0  0  0
 34 35  1  0  0  0
 50 55  1  0  0  0
 50 58  1  0  0  0
 35 36  1  0  0  0
 51 52  1  0  0  0
 51 56  1  0  0  0
 36 37  1  0  0  0
 59 60  1  0  0  0
 59 61  1  0  0  0
 37 38  1  0  0  0
 63 66  1  0  0  0
 63 67  1  0  0  0
 38 39  1  0  0  0
 64 66  1  0  0  0
 39 40  1  0  0  0
 65 66  1  0  0  0
 65 68  1  0  0  0
 40 41  1  0  0  0
 41 42  1  0  0  0
 42 43  1  0  0  0
 43 44  1  0  0  0
 44 45  1  0  0  0
 45 46  1  0  0  0
  4  6  1  0  0  0
  6  7  1  0  0  0
  7  8  1  0  0  0
  8  9  1  0  0  0
  9 10  1  0  0  0
 10 11  1  0  0  0
 11 12  1  0  0  0
 12 13  1  0  0  0
 13 14  1  0  0  0
 14 15  1  0  0  0
 15 16  1  0  0  0
 16 17  1  0  0  0
 17 18  1  0  0  0
 18 19  1  0  0  0
 19 20  2  0  0  0
 20 21  1  0  0  0
 21 22  1  0  0  0
 22 23  1  0  0  0
 23 24  1  0  0  0
 24 25  1  0  0  0
 25 26  1  0  0  0
 26 27  1  0  0  0
 27 28  1  0  0  0
 52 53  1  0  0  0
 53 54  1  0  0  0
 54 55  1  0  0  0
 55 56  1  0  0  0
 56 60  1  0  0  0
M  CHG 1  64  -1
M  END
> <minimizedAffinity>
-9.03268

> <CNNscore>
0.1058083549

> <CNNaffinity>
6.8670868874

> <CNN_VS>
0.7265951633

> <CNNaffinity_variance>
1.8192965984

$$$$
/media/chris/experiments/cd1a-new-docking/inputs/ligands/7ryn_ligand.pdb


 68 68  0  0  0  0  0  0  0  0999 V2000
  -35.4492   61.6426   65.9480 C   0  0  0  0  0  0  0  0  0  0  0  0
  -35.8139   60.8952   64.7482 N   0  0  0  0  0  0  0  0  0  0  0  0
  -36.7452   62.6339   63.6632 O   0  0  0  0  0  0  0  0  0  0  0  0
  -36.4324   61.4475   63.7010 C   0  0  0  0  0  0  0  0  0  0  0  0
  -35.5931   59.9366   64.7090 H   0  0  0  0  0  0  0  0  0  0  0  0
  -36.7209   60.5175   62.5489 C   0  0  0  0  0  0  0  0  0  0  0  0
  -38.2084   60.4173   62.2365 C   0  0  0  0  0  0  0  0  0  0  0  0
  -38.4792   59.9819   60.8053 C   0  0  0  0  0  0  0  0  0  0  0  0
  -38.5316   58.4745   60.6194 C   0  0  0  0  0  0  0  0  0  0  0  0
  -39.9205   57.8803   60.7998 C   0  0  0  0  0  0  0  0  0  0  0  0
  -40.0639   57.0044   62.0380 C   0  0  0  0  0  0  0  0  0  0  0  0
  -41.5042   56.8157   62.4967 C   0  0  0  0  0  0  0  0  0  0  0  0
  -41.6633   55.9551   63.7474 C   0  0  0  0  0  0  0  0  0  0  0  0
  -42.6117   56.5433   64.7909 C   0  0  0  0  0  0  0  0  0  0  0  0
  -43.4678   57.7063   64.2901 C   0  0  0  0  0  0  0  0  0  0  0  0
  -44.6134   58.0701   65.2347 C   0  0  0  0  0  0  0  0  0  0  0  0
  -45.8397   58.6835   64.5588 C   0  0  0  0  0  0  0  0  0  0  0  0
  -47.1144   58.6768   65.4068 C   0  0  0  0  0  0  0  0  0  0  0  0
  -48.0244   59.8312   65.1009 C   0  0  0  0  0  0  0  0  0  0  0  0
  -49.1910   59.7607   64.4847 C   0  0  0  0  0  0  0  0  0  0  0  0
  -49.8422   58.5132   63.9695 C   0  0  0  0  0  0  0  0  0  0  0  0
  -49.4389   58.1558   62.5373 C   0  0  0  0  0  0  0  0  0  0  0  0
  -50.5370   58.4262   61.5173 C   0  0  0  0  0  0  0  0  0  0  0  0
  -50.1490   58.0408   60.0942 C   0  0  0  0  0  0  0  0  0  0  0  0
  -49.1741   56.8727   60.0002 C   0  0  0  0  0  0  0  0  0  0  0  0
  -47.8447   57.2343   59.3530 C   0  0  0  0  0  0  0  0  0  0  0  0
  -47.8739   57.2409   57.8328 C   0  0  0  0  0  0  0  0  0  0  0  0
  -47.3719   55.9454   57.2281 C   0  0  0  0  0  0  0  0  0  0  0  0
  -36.3715   62.6352   67.9477 O   0  0  0  0  0  0  0  0  0  0  0  0
  -36.7261   62.1088   66.6657 C   0  0  0  0  0  0  0  0  0  0  0  0
  -35.7302   63.3543   67.8359 H   0  0  0  0  0  0  0  0  0  0  0  0
  -37.7172   60.9937   66.7997 C   0  0  0  0  0  0  0  0  0  0  0  0
  -38.6571   60.7052   65.9213 C   0  0  0  0  0  0  0  0  0  0  0  0
  -39.6220   59.5759   66.0767 C   0  0  0  0  0  0  0  0  0  0  0  0
  -39.2729   58.4204   65.1364 C   0  0  0  0  0  0  0  0  0  0  0  0
  -37.9176   57.7865   65.4047 C   0  0  0  0  0  0  0  0  0  0  0  0
  -37.1464   57.4072   64.1520 C   0  0  0  0  0  0  0  0  0  0  0  0
  -35.6373   57.3651   64.3435 C   0  0  0  0  0  0  0  0  0  0  0  0
  -34.8527   57.5405   63.0523 C   0  0  0  0  0  0  0  0  0  0  0  0
  -33.6488   58.4563   63.1874 C   0  0  0  0  0  0  0  0  0  0  0  0
  -32.9612   58.7714   61.8721 C   0  0  0  0  0  0  0  0  0  0  0  0
  -32.1758   60.0716   61.8842 C   0  0  0  0  0  0  0  0  0  0  0  0
  -30.8775   59.9735   62.6636 C   0  0  0  0  0  0  0  0  0  0  0  0
  -29.7231   60.7483   62.0575 C   0  0  0  0  0  0  0  0  0  0  0  0
  -29.6166   62.1581   62.6051 C   0  0  0  0  0  0  0  0  0  0  0  0
  -29.8788   63.2122   61.5493 C   0  0  0  0  0  0  0  0  0  0  0  0
  -34.5462   62.8026   65.5830 C   0  0  0  0  0  0  0  0  0  0  0  0
  -33.3759   62.2790   64.9450 O   0  0  0  0  0  0  0  0  0  0  0  0
  -33.8544   62.9724   62.2745 O   0  0  0  0  0  0  0  0  0  0  0  0
  -33.1169   66.7109   64.2749 O   0  0  0  0  0  0  0  0  0  0  0  0
  -32.1214   64.1929   65.2478 O   0  0  0  0  0  0  0  0  0  0  0  0
  -32.5875   63.2421   64.3086 C   0  0  0  0  0  0  0  0  0  0  0  0
  -33.4411   63.9239   63.2470 C   0  0  0  0  0  0  0  0  0  0  0  0
  -32.6477   65.0436   62.5853 C   0  0  0  0  0  0  0  0  0  0  0  0
  -32.0723   65.9940   63.6250 C   0  0  0  0  0  0  0  0  0  0  0  0
  -31.2817   65.2009   64.6626 C   0  0  0  0  0  0  0  0  0  0  0  0
  -34.3578   62.2653   62.7075 H   0  0  0  0  0  0  0  0  0  0  0  0
  -33.6205   67.2155   63.6172 H   0  0  0  0  0  0  0  0  0  0  0  0
  -31.6488   66.0282   66.9142 O   0  0  0  0  0  0  0  0  0  0  0  0
  -30.7670   66.0547   65.7978 C   0  0  0  0  0  0  0  0  0  0  0  0
  -31.2900   66.5848   67.6230 H   0  0  0  0  0  0  0  0  0  0  0  0
  -33.6269   65.7543   61.7634 O   0  0  0  0  0  0  0  0  0  0  0  0
  -35.3205   65.3374   63.4261 O   0  0  0  0  0  0  0  0  0  0  0  0
  -35.6503   64.5879   61.0503 O   0  0  0  0  0  0  0  0  0  0  0  0
  -35.7228   66.8809   61.6616 O   0  0  0  0  0  0  0  0  0  0  0  0
  -35.1716   65.4927   62.0265 S   0  0  0  0  0  0  0  0  0  0  0  0
  -34.9816   64.4686   63.6929 H   0  0  0  0  0  0  0  0  0  0  0  0
  -35.4148   67.5320   62.3113 H   0  0  0  0  0  0  0  0  0  0  0  0
  2  1  1  0  0  0
  2  4  1  0  0  0
  2  5  1  0  0  0
 47 48  1  0  0  0
 47  1  1  0  0  0
 48 52  1  0  0  0
  1 30  1  0  0  0
 29 30  1  0  0  0
 29 31  1  0  0  0
 30 32  1  0  0  0
  3  4  2  0  0  0
 32 33  2  0  0  0
 49 53  1  0  0  0
 49 57  1  0  0  0
 33 34  1  0  0  0
 62 54  1  0  0  0
 62 66  1  0  0  0
 34 35  1  0  0  0
 50 55  1  0  0  0
 50 58  1  0  0  0
 35 36  1  0  0  0
 51 52  1  0  0  0
 51 56  1  0  0  0
 36 37  1  0  0  0
 59 60  1  0  0  0
 59 61  1  0  0  0
 37 38  1  0  0  0
 63 66  1  0  0  0
 63 67  1  0  0  0
 38 39  1  0  0  0
 64 66  1  0  0  0
 39 40  1  0  0  0
 65 66  1  0  0  0
 65 68  1  0  0  0
 40 41  1  0  0  0
 41 42  1  0  0  0
 42 43  1  0  0  0
 43 44  1  0  0  0
 44 45  1  0  0  0
 45 46  1  0  0  0
  4  6  1  0  0  0
  6  7  1  0  0  0
  7  8  1  0  0  0
  8  9  1  0  0  0
  9 10  1  0  0  0
 10 11  1  0  0  0
 11 12  1  0  0  0
 12 13  1  0  0  0
 13 14  1  0  0  0
 14 15  1  0  0  0
 15 16  1  0  0  0
 16 17  1  0  0  0
 17 18  1  0  0  0
 18 19  1  0  0  0
 19 20  2  0  0  0
 20 21  1  0  0  0
 21 22  1  0  0  0
 22 23  1  0  0  0
 23 24  1  0  0  0
 24 25  1  0  0  0
 25 26  1  0  0  0
 26 27  1  0  0  0
 27 28  1  0  0  0
 52 53  1  0  0  0
 53 54  1  0  0  0
 54 55  1  0  0  0
 55 56  1  0  0  0
 56 60  1  0  0  0
M  CHG 1  64  -1
M  END
> <minimizedAffinity>
-8.72924

> <CNNscore>
0.1019041762

> <CNNaffinity>
7.1350221634

> <CNN_VS>
0.7270885706

> <CNNaffinity_variance>
0.9205327034

$$$$
/media/chris/experiments/cd1a-new-docking/inputs/ligands/7ryn_ligand.pdb


 68 68  0  0  0  0  0  0  0  0999 V2000
  -34.5843   58.7433   62.7838 C   0  0  0  0  0  0  0  0  0  0  0  0
  -35.6720   58.1520   62.0100 N   0  0  0  0  0  0  0  0  0  0  0  0
  -37.0898   59.8859   62.2362 O   0  0  0  0  0  0  0  0  0  0  0  0
  -36.8380   58.7677   61.7966 C   0  0  0  0  0  0  0  0  0  0  0  0
  -35.5394   57.2551   61.6265 H   0  0  0  0  0  0  0  0  0  0  0  0
  -37.8377   58.0018   60.9664 C   0  0  0  0  0  0  0  0  0  0  0  0
  -39.2066   57.9182   61.6293 C   0  0  0  0  0  0  0  0  0  0  0  0
  -40.3489   58.0564   60.6357 C   0  0  0  0  0  0  0  0  0  0  0  0
  -41.6167   57.3275   61.0492 C   0  0  0  0  0  0  0  0  0  0  0  0
  -41.4953   56.5831   62.3704 C   0  0  0  0  0  0  0  0  0  0  0  0
  -42.1053   57.3206   63.5557 C   0  0  0  0  0  0  0  0  0  0  0  0
  -42.9901   58.4964   63.1617 C   0  0  0  0  0  0  0  0  0  0  0  0
  -44.0987   58.8177   64.1607 C   0  0  0  0  0  0  0  0  0  0  0  0
  -44.5714   57.6139   64.9742 C   0  0  0  0  0  0  0  0  0  0  0  0
  -44.7093   57.8732   66.4742 C   0  0  0  0  0  0  0  0  0  0  0  0
  -46.1357   57.6950   66.9944 C   0  0  0  0  0  0  0  0  0  0  0  0
  -46.9673   58.9762   67.0550 C   0  0  0  0  0  0  0  0  0  0  0  0
  -48.1884   58.9968   66.1318 C   0  0  0  0  0  0  0  0  0  0  0  0
  -47.8674   59.4917   64.7511 C   0  0  0  0  0  0  0  0  0  0  0  0
  -48.7385   59.9277   63.8584 C   0  0  0  0  0  0  0  0  0  0  0  0
  -50.2226   60.0186   64.0457 C   0  0  0  0  0  0  0  0  0  0  0  0
  -51.0249   59.5820   62.8181 C   0  0  0  0  0  0  0  0  0  0  0  0
  -50.8195   58.1176   62.4542 C   0  0  0  0  0  0  0  0  0  0  0  0
  -50.6131   57.8885   60.9611 C   0  0  0  0  0  0  0  0  0  0  0  0
  -49.1996   57.4667   60.5767 C   0  0  0  0  0  0  0  0  0  0  0  0
  -48.6525   58.1956   59.3575 C   0  0  0  0  0  0  0  0  0  0  0  0
  -47.9584   57.2915   58.3513 C   0  0  0  0  0  0  0  0  0  0  0  0
  -47.1733   58.0624   57.3096 C   0  0  0  0  0  0  0  0  0  0  0  0
  -32.8462   57.3042   61.9219 O   0  0  0  0  0  0  0  0  0  0  0  0
  -33.2811   58.6661   61.9723 C   0  0  0  0  0  0  0  0  0  0  0  0
  -33.5487   56.7543   61.5410 H   0  0  0  0  0  0  0  0  0  0  0  0
  -32.2192   59.5464   62.5565 C   0  0  0  0  0  0  0  0  0  0  0  0
  -31.4754   60.3931   61.8723 C   0  0  0  0  0  0  0  0  0  0  0  0
  -30.4336   61.2691   62.4869 C   0  0  0  0  0  0  0  0  0  0  0  0
  -30.1419   62.4820   61.6009 C   0  0  0  0  0  0  0  0  0  0  0  0
  -30.5176   63.8154   62.2266 C   0  0  0  0  0  0  0  0  0  0  0  0
  -29.9751   64.0216   63.6305 C   0  0  0  0  0  0  0  0  0  0  0  0
  -31.0525   64.2049   64.6895 C   0  0  0  0  0  0  0  0  0  0  0  0
  -30.7810   65.3577   65.6439 C   0  0  0  0  0  0  0  0  0  0  0  0
  -29.9871   66.4930   65.0219 C   0  0  0  0  0  0  0  0  0  0  0  0
  -30.8375   67.6623   64.5616 C   0  0  0  0  0  0  0  0  0  0  0  0
  -31.2415   67.5914   63.0989 C   0  0  0  0  0  0  0  0  0  0  0  0
  -32.7449   67.5357   62.9005 C   0  0  0  0  0  0  0  0  0  0  0  0
  -33.2243   66.3569   62.0754 C   0  0  0  0  0  0  0  0  0  0  0  0
  -34.4594   65.7004   62.6604 C   0  0  0  0  0  0  0  0  0  0  0  0
  -34.9994   64.5920   61.7804 C   0  0  0  0  0  0  0  0  0  0  0  0
  -34.4620   58.0475   64.1237 C   0  0  0  0  0  0  0  0  0  0  0  0
  -34.2868   59.0459   65.1353 O   0  0  0  0  0  0  0  0  0  0  0  0
  -37.0673   58.8715   64.8535 O   0  0  0  0  0  0  0  0  0  0  0  0
  -36.4256   62.2495   67.4419 O   0  0  0  0  0  0  0  0  0  0  0  0
  -34.4443   61.3053   65.5817 O   0  0  0  0  0  0  0  0  0  0  0  0
  -35.0556   60.1980   64.9462 C   0  0  0  0  0  0  0  0  0  0  0  0
  -36.4362   59.9461   65.5384 C   0  0  0  0  0  0  0  0  0  0  0  0
  -37.2830   61.2082   65.4330 C   0  0  0  0  0  0  0  0  0  0  0  0
  -36.5582   62.4043   66.0326 C   0  0  0  0  0  0  0  0  0  0  0  0
  -35.1722   62.5311   65.4052 C   0  0  0  0  0  0  0  0  0  0  0  0
  -36.5194   58.0746   64.9276 H   0  0  0  0  0  0  0  0  0  0  0  0
  -37.3053   62.1687   67.8425 H   0  0  0  0  0  0  0  0  0  0  0  0
  -33.7387   63.2061   67.2433 O   0  0  0  0  0  0  0  0  0  0  0  0
  -34.3378   63.6283   66.0236 C   0  0  0  0  0  0  0  0  0  0  0  0
  -33.2118   63.9317   67.6129 H   0  0  0  0  0  0  0  0  0  0  0  0
  -38.4797   60.9172   66.2220 O   0  0  0  0  0  0  0  0  0  0  0  0
  -39.5425   60.6745   64.0729 O   0  0  0  0  0  0  0  0  0  0  0  0
  -40.8963   61.2500   66.1104 O   0  0  0  0  0  0  0  0  0  0  0  0
  -39.9527   59.0934   65.8019 O   0  0  0  0  0  0  0  0  0  0  0  0
  -39.8319   60.5867   65.4563 S   0  0  0  0  0  0  0  0  0  0  0  0
  -39.4592   61.6068   63.8186 H   0  0  0  0  0  0  0  0  0  0  0  0
  -39.2365   58.6025   65.3695 H   0  0  0  0  0  0  0  0  0  0  0  0
  2  1  1  0  0  0
  2  4  1  0  0  0
  2  5  1  0  0  0
 47 48  1  0  0  0
 47  1  1  0  0  0
 48 52  1  0  0  0
  1 30  1  0  0  0
 29 30  1  0  0  0
 29 31  1  0  0  0
 30 32  1  0  0  0
  3  4  2  0  0  0
 32 33  2  0  0  0
 49 53  1  0  0  0
 49 57  1  0  0  0
 33 34  1  0  0  0
 62 54  1  0  0  0
 62 66  1  0  0  0
 34 35  1  0  0  0
 50 55  1  0  0  0
 50 58  1  0  0  0
 35 36  1  0  0  0
 51 52  1  0  0  0
 51 56  1  0  0  0
 36 37  1  0  0  0
 59 60  1  0  0  0
 59 61  1  0  0  0
 37 38  1  0  0  0
 63 66  1  0  0  0
 63 67  1  0  0  0
 38 39  1  0  0  0
 64 66  1  0  0  0
 39 40  1  0  0  0
 65 66  1  0  0  0
 65 68  1  0  0  0
 40 41  1  0  0  0
 41 42  1  0  0  0
 42 43  1  0  0  0
 43 44  1  0  0  0
 44 45  1  0  0  0
 45 46  1  0  0  0
  4  6  1  0  0  0
  6  7  1  0  0  0
  7  8  1  0  0  0
  8  9  1  0  0  0
  9 10  1  0  0  0
 10 11  1  0  0  0
 11 12  1  0  0  0
 12 13  1  0  0  0
 13 14  1  0  0  0
 14 15  1  0  0  0
 15 16  1  0  0  0
 16 17  1  0  0  0
 17 18  1  0  0  0
 18 19  1  0  0  0
 19 20  2  0  0  0
 20 21  1  0  0  0
 21 22  1  0  0  0
 22 23  1  0  0  0
 23 24  1  0  0  0
 24 25  1  0  0  0
 25 26  1  0  0  0
 26 27  1  0  0  0
 27 28  1  0  0  0
 52 53  1  0  0  0
 53 54  1  0  0  0
 54 55  1  0  0  0
 55 56  1  0  0  0
 56 60  1  0  0  0
M  CHG 1  64  -1
M  END
> <minimizedAffinity>
-8.85351

> <CNNscore>
0.1013295799

> <CNNaffinity>
6.7724699974

> <CNN_VS>
0.6862515211

> <CNNaffinity_variance>
1.1393115520

$$$$
