/media/chris/experiments/cd1a-new-docking/inputs/ligands/7ryn_ligand.pdb


 68 68  0  0  0  0  0  0  0  0999 V2000
  -36.4188   57.9537   63.0060 C   0  0  0  0  0  0  0  0  0  0  0  0
  -36.9170   59.0993   63.7615 N   0  0  0  0  0  0  0  0  0  0  0  0
  -38.0863   57.8983   65.2642 O   0  0  0  0  0  0  0  0  0  0  0  0
  -37.7103   58.9832   64.8298 C   0  0  0  0  0  0  0  0  0  0  0  0
  -36.6551   60.0022   63.4691 H   0  0  0  0  0  0  0  0  0  0  0  0
  -38.1168   60.2799   65.4845 C   0  0  0  0  0  0  0  0  0  0  0  0
  -39.1778   60.0845   66.5601 C   0  0  0  0  0  0  0  0  0  0  0  0
  -40.5901   60.2831   66.0338 C   0  0  0  0  0  0  0  0  0  0  0  0
  -41.3443   58.9868   65.7888 C   0  0  0  0  0  0  0  0  0  0  0  0
  -42.5873   58.8257   66.6510 C   0  0  0  0  0  0  0  0  0  0  0  0
  -43.2987   57.4909   66.4693 C   0  0  0  0  0  0  0  0  0  0  0  0
  -44.0262   57.3558   65.1379 C   0  0  0  0  0  0  0  0  0  0  0  0
  -44.9428   58.5275   64.7950 C   0  0  0  0  0  0  0  0  0  0  0  0
  -46.4311   58.1833   64.8274 C   0  0  0  0  0  0  0  0  0  0  0  0
  -46.9665   57.8002   66.2068 C   0  0  0  0  0  0  0  0  0  0  0  0
  -47.5762   58.9755   66.9713 C   0  0  0  0  0  0  0  0  0  0  0  0
  -48.6794   59.7286   66.2281 C   0  0  0  0  0  0  0  0  0  0  0  0
  -49.9517   58.9175   65.9680 C   0  0  0  0  0  0  0  0  0  0  0  0
  -50.9674   59.6696   65.1575 C   0  0  0  0  0  0  0  0  0  0  0  0
  -51.1121   59.6140   63.8453 C   0  0  0  0  0  0  0  0  0  0  0  0
  -50.2928   58.7862   62.9021 C   0  0  0  0  0  0  0  0  0  0  0  0
  -49.7188   59.5807   61.7271 C   0  0  0  0  0  0  0  0  0  0  0  0
  -49.7477   58.8148   60.4111 C   0  0  0  0  0  0  0  0  0  0  0  0
  -49.2267   57.3871   60.5305 C   0  0  0  0  0  0  0  0  0  0  0  0
  -48.1993   56.9994   59.4732 C   0  0  0  0  0  0  0  0  0  0  0  0
  -47.9448   58.0862   58.4383 C   0  0  0  0  0  0  0  0  0  0  0  0
  -47.1547   57.6187   57.2263 C   0  0  0  0  0  0  0  0  0  0  0  0
  -47.1171   56.1098   57.0934 C   0  0  0  0  0  0  0  0  0  0  0  0
  -34.8777   58.0243   64.8646 O   0  0  0  0  0  0  0  0  0  0  0  0
  -35.0159   57.5809   63.5116 C   0  0  0  0  0  0  0  0  0  0  0  0
  -35.5794   57.6315   65.4070 H   0  0  0  0  0  0  0  0  0  0  0  0
  -33.9465   58.1691   62.6430 C   0  0  0  0  0  0  0  0  0  0  0  0
  -33.3700   59.3386   62.8376 C   0  0  0  0  0  0  0  0  0  0  0  0
  -32.2946   59.8914   61.9609 C   0  0  0  0  0  0  0  0  0  0  0  0
  -32.1835   61.4094   62.1167 C   0  0  0  0  0  0  0  0  0  0  0  0
  -32.4249   61.9099   63.5316 C   0  0  0  0  0  0  0  0  0  0  0  0
  -31.8417   63.2834   63.8164 C   0  0  0  0  0  0  0  0  0  0  0  0
  -31.5895   64.1191   62.5700 C   0  0  0  0  0  0  0  0  0  0  0  0
  -32.4819   65.3463   62.4666 C   0  0  0  0  0  0  0  0  0  0  0  0
  -33.6979   65.1455   61.5794 C   0  0  0  0  0  0  0  0  0  0  0  0
  -35.0180   65.4552   62.2605 C   0  0  0  0  0  0  0  0  0  0  0  0
  -35.1428   64.8691   63.6564 C   0  0  0  0  0  0  0  0  0  0  0  0
  -35.8299   63.5163   63.6727 C   0  0  0  0  0  0  0  0  0  0  0  0
  -35.5853   62.7048   64.9305 C   0  0  0  0  0  0  0  0  0  0  0  0
  -35.0626   63.5492   66.0761 C   0  0  0  0  0  0  0  0  0  0  0  0
  -33.9923   62.8393   66.8790 C   0  0  0  0  0  0  0  0  0  0  0  0
  -36.4247   58.2666   61.5239 C   0  0  0  0  0  0  0  0  0  0  0  0
  -37.6685   57.8184   60.9738 O   0  0  0  0  0  0  0  0  0  0  0  0
  -38.7632   60.3669   61.3583 O   0  0  0  0  0  0  0  0  0  0  0  0
  -42.1577   57.7548   60.9377 O   0  0  0  0  0  0  0  0  0  0  0  0
  -39.5781   56.8379   61.8225 O   0  0  0  0  0  0  0  0  0  0  0  0
  -38.7691   57.9993   61.8163 C   0  0  0  0  0  0  0  0  0  0  0  0
  -39.5642   59.1932   61.3038 C   0  0  0  0  0  0  0  0  0  0  0  0
  -40.8235   59.3750   62.1417 C   0  0  0  0  0  0  0  0  0  0  0  0
  -41.6221   58.0819   62.2159 C   0  0  0  0  0  0  0  0  0  0  0  0
  -40.7176   56.9472   62.6905 C   0  0  0  0  0  0  0  0  0  0  0  0
  -37.9654   60.2391   60.8216 H   0  0  0  0  0  0  0  0  0  0  0  0
  -42.7327   58.4746   60.6342 H   0  0  0  0  0  0  0  0  0  0  0  0
  -41.6167   55.1182   64.0078 O   0  0  0  0  0  0  0  0  0  0  0  0
  -41.4017   55.6002   62.6864 C   0  0  0  0  0  0  0  0  0  0  0  0
  -42.0561   54.2544   63.9695 H   0  0  0  0  0  0  0  0  0  0  0  0
  -41.5999   60.3877   61.4270 O   0  0  0  0  0  0  0  0  0  0  0  0
  -43.3161   60.6226   63.1024 O   0  0  0  0  0  0  0  0  0  0  0  0
  -42.9193   62.4425   61.4153 O   0  0  0  0  0  0  0  0  0  0  0  0
  -41.3778   61.9999   63.1658 O   0  0  0  0  0  0  0  0  0  0  0  0
  -42.4788   61.4063   62.2717 S   0  0  0  0  0  0  0  0  0  0  0  0
  -44.0253   60.2309   62.5691 H   0  0  0  0  0  0  0  0  0  0  0  0
  -41.0486   61.3163   63.7702 H   0  0  0  0  0  0  0  0  0  0  0  0
  2  1  1  0  0  0
  2  4  1  0  0  0
  2  5  1  0  0  0
 47 48  1  0  0  0
 47  1  1  0  0  0
 48 52  1  0  0  0
  1 30  1  0  0  0
 29 30  1  0  0  0
 29 31  1  0  0  0
 30 32  1  0  0  0
  3  4  2  0  0  0
 32 33  2  0  0  0
 49 53  1  0  0  0
 49 57  1  0  0  0
 33 34  1  0  0  0
 62 54  1  0  0  0
 62 66  1  0  0  0
 34 35  1  0  0  0
 50 55  1  0  0  0
 50 58  1  0  0  0
 35 36  1  0  0  0
 51 52  1  0  0  0
 51 56  1  0  0  0
 36 37  1  0  0  0
 59 60  1  0  0  0
 59 61  1  0  0  0
 37 38  1  0  0  0
 63 66  1  0  0  0
 63 67  1  0  0  0
 38 39  1  0  0  0
 64 66  1  0  0  0
 39 40  1  0  0  0
 65 66  1  0  0  0
 65 68  1  0  0  0
 40 41  1  0  0  0
 41 42  1  0  0  0
 42 43  1  0  0  0
 43 44  1  0  0  0
 44 45  1  0  0  0
 45 46  1  0  0  0
  4  6  1  0  0  0
  6  7  1  0  0  0
  7  8  1  0  0  0
  8  9  1  0  0  0
  9 10  1  0  0  0
 10 11  1  0  0  0
 11 12  1  0  0  0
 12 13  1  0  0  0
 13 14  1  0  0  0
 14 15  1  0  0  0
 15 16  1  0  0  0
 16 17  1  0  0  0
 17 18  1  0  0  0
 18 19  1  0  0  0
 19 20  2  0  0  0
 20 21  1  0  0  0
 21 22  1  0  0  0
 22 23  1  0  0  0
 23 24  1  0  0  0
 24 25  1  0  0  0
 25 26  1  0  0  0
 26 27  1  0  0  0
 27 28  1  0  0  0
 52 53  1  0  0  0
 53 54  1  0  0  0
 54 55  1  0  0  0
 55 56  1  0  0  0
 56 60  1  0  0  0
M  CHG 1  64  -1
M  END
> <minimizedAffinity>
-8.97672

> <CNNscore>
0.1194361001

> <CNNaffinity>
7.1924576759

> <CNN_VS>
0.8590390682

> <CNNaffinity_variance>
2.1219122410

$$$$
/media/chris/experiments/cd1a-new-docking/inputs/ligands/7ryn_ligand.pdb


 68 68  0  0  0  0  0  0  0  0999 V2000
  -38.6375   61.0744   62.5739 C   0  0  0  0  0  0  0  0  0  0  0  0
  -38.8366   60.4138   63.8605 N   0  0  0  0  0  0  0  0  0  0  0  0
  -40.9421   61.1453   64.1761 O   0  0  0  0  0  0  0  0  0  0  0  0
  -39.9710   60.5002   64.5604 C   0  0  0  0  0  0  0  0  0  0  0  0
  -38.0982   59.8782   64.2306 H   0  0  0  0  0  0  0  0  0  0  0  0
  -39.9922   59.7426   65.8646 C   0  0  0  0  0  0  0  0  0  0  0  0
  -41.0634   58.6599   65.8947 C   0  0  0  0  0  0  0  0  0  0  0  0
  -42.1858   58.9723   66.8713 C   0  0  0  0  0  0  0  0  0  0  0  0
  -43.4354   58.1332   66.6627 C   0  0  0  0  0  0  0  0  0  0  0  0
  -43.4090   57.2952   65.3932 C   0  0  0  0  0  0  0  0  0  0  0  0
  -44.0647   57.9671   64.1934 C   0  0  0  0  0  0  0  0  0  0  0  0
  -45.3711   58.6781   64.5222 C   0  0  0  0  0  0  0  0  0  0  0  0
  -46.4906   57.7572   65.0010 C   0  0  0  0  0  0  0  0  0  0  0  0
  -47.1631   58.2158   66.2940 C   0  0  0  0  0  0  0  0  0  0  0  0
  -48.6836   58.0607   66.3109 C   0  0  0  0  0  0  0  0  0  0  0  0
  -49.4325   59.3854   66.1630 C   0  0  0  0  0  0  0  0  0  0  0  0
  -48.7350   60.4293   65.2911 C   0  0  0  0  0  0  0  0  0  0  0  0
  -49.3448   60.6189   63.8995 C   0  0  0  0  0  0  0  0  0  0  0  0
  -50.7224   60.0336   63.7817 C   0  0  0  0  0  0  0  0  0  0  0  0
  -51.0746   59.0214   63.0088 C   0  0  0  0  0  0  0  0  0  0  0  0
  -50.1686   58.2521   62.0959 C   0  0  0  0  0  0  0  0  0  0  0  0
  -49.9350   58.9324   60.7454 C   0  0  0  0  0  0  0  0  0  0  0  0
  -49.5114   57.9644   59.6488 C   0  0  0  0  0  0  0  0  0  0  0  0
  -49.2365   56.5544   60.1595 C   0  0  0  0  0  0  0  0  0  0  0  0
  -48.1601   55.8015   59.3861 C   0  0  0  0  0  0  0  0  0  0  0  0
  -47.1022   56.7060   58.7699 C   0  0  0  0  0  0  0  0  0  0  0  0
  -47.0389   56.6452   57.2520 C   0  0  0  0  0  0  0  0  0  0  0  0
  -47.4337   57.9513   56.5929 C   0  0  0  0  0  0  0  0  0  0  0  0
  -38.0149   60.5641   60.2965 O   0  0  0  0  0  0  0  0  0  0  0  0
  -38.6613   60.0234   61.4525 C   0  0  0  0  0  0  0  0  0  0  0  0
  -37.1122   60.8338   60.5273 H   0  0  0  0  0  0  0  0  0  0  0  0
  -40.0608   59.5952   61.1328 C   0  0  0  0  0  0  0  0  0  0  0  0
  -40.4056   58.8290   60.1169 C   0  0  0  0  0  0  0  0  0  0  0  0
  -41.8098   58.4068   59.8332 C   0  0  0  0  0  0  0  0  0  0  0  0
  -42.3092   57.4139   60.8847 C   0  0  0  0  0  0  0  0  0  0  0  0
  -41.2959   56.3463   61.2645 C   0  0  0  0  0  0  0  0  0  0  0  0
  -41.0371   56.2334   62.7572 C   0  0  0  0  0  0  0  0  0  0  0  0
  -39.8023   56.9868   63.2298 C   0  0  0  0  0  0  0  0  0  0  0  0
  -38.5199   56.5537   62.5363 C   0  0  0  0  0  0  0  0  0  0  0  0
  -37.3814   57.5487   62.6785 C   0  0  0  0  0  0  0  0  0  0  0  0
  -36.7219   57.5423   64.0450 C   0  0  0  0  0  0  0  0  0  0  0  0
  -35.2133   57.3705   63.9996 C   0  0  0  0  0  0  0  0  0  0  0  0
  -34.6288   57.6208   62.6218 C   0  0  0  0  0  0  0  0  0  0  0  0
  -33.1266   57.8297   62.6073 C   0  0  0  0  0  0  0  0  0  0  0  0
  -32.7098   59.1101   63.3041 C   0  0  0  0  0  0  0  0  0  0  0  0
  -31.4399   59.6988   62.7253 C   0  0  0  0  0  0  0  0  0  0  0  0
  -37.3432   61.8611   62.5887 C   0  0  0  0  0  0  0  0  0  0  0  0
  -36.2841   60.9788   62.9769 O   0  0  0  0  0  0  0  0  0  0  0  0
  -33.8674   62.3045   62.4840 O   0  0  0  0  0  0  0  0  0  0  0  0
  -35.7555   64.5711   65.6176 O   0  0  0  0  0  0  0  0  0  0  0  0
  -36.3236   61.7919   65.1369 O   0  0  0  0  0  0  0  0  0  0  0  0
  -35.5025   61.4487   64.0362 C   0  0  0  0  0  0  0  0  0  0  0  0
  -34.7346   62.6710   63.5497 C   0  0  0  0  0  0  0  0  0  0  0  0
  -33.9337   63.2705   64.6987 C   0  0  0  0  0  0  0  0  0  0  0  0
  -34.8225   63.5345   65.9052 C   0  0  0  0  0  0  0  0  0  0  0  0
  -35.5795   62.2607   66.2728 C   0  0  0  0  0  0  0  0  0  0  0  0
  -34.3883   61.9245   61.7593 H   0  0  0  0  0  0  0  0  0  0  0  0
  -35.2765   65.3815   65.3837 H   0  0  0  0  0  0  0  0  0  0  0  0
  -36.1982   63.5454   68.2365 O   0  0  0  0  0  0  0  0  0  0  0  0
  -36.5723   62.4616   67.3936 C   0  0  0  0  0  0  0  0  0  0  0  0
  -36.8545   63.6468   68.9434 H   0  0  0  0  0  0  0  0  0  0  0  0
  -33.4312   64.5406   64.1756 O   0  0  0  0  0  0  0  0  0  0  0  0
  -32.4241   66.0776   65.7347 O   0  0  0  0  0  0  0  0  0  0  0  0
  -31.1753   65.3357   63.6839 O   0  0  0  0  0  0  0  0  0  0  0  0
  -31.5745   63.8677   65.5065 O   0  0  0  0  0  0  0  0  0  0  0  0
  -32.0696   65.1158   64.7577 S   0  0  0  0  0  0  0  0  0  0  0  0
  -32.7424   66.8820   65.2959 H   0  0  0  0  0  0  0  0  0  0  0  0
  -32.1650   63.6834   66.2537 H   0  0  0  0  0  0  0  0  0  0  0  0
  2  1  1  0  0  0
  2  4  1  0  0  0
  2  5  1  0  0  0
 47 48  1  0  0  0
 47  1  1  0  0  0
 48 52  1  0  0  0
  1 30  1  0  0  0
 29 30  1  0  0  0
 29 31  1  0  0  0
 30 32  1  0  0  0
  3  4  2  0  0  0
 32 33  2  0  0  0
 49 53  1  0  0  0
 49 57  1  0  0  0
 33 34  1  0  0  0
 62 54  1  0  0  0
 62 66  1  0  0  0
 34 35  1  0  0  0
 50 55  1  0  0  0
 50 58  1  0  0  0
 35 36  1  0  0  0
 51 52  1  0  0  0
 51 56  1  0  0  0
 36 37  1  0  0  0
 59 60  1  0  0  0
 59 61  1  0  0  0
 37 38  1  0  0  0
 63 66  1  0  0  0
 63 67  1  0  0  0
 38 39  1  0  0  0
 64 66  1  0  0  0
 39 40  1  0  0  0
 65 66  1  0  0  0
 65 68  1  0  0  0
 40 41  1  0  0  0
 41 42  1  0  0  0
 42 43  1  0  0  0
 43 44  1  0  0  0
 44 45  1  0  0  0
 45 46  1  0  0  0
  4  6  1  0  0  0
  6  7  1  0  0  0
  7  8  1  0  0  0
  8  9  1  0  0  0
  9 10  1  0  0  0
 10 11  1  0  0  0
 11 12  1  0  0  0
 12 13  1  0  0  0
 13 14  1  0  0  0
 14 15  1  0  0  0
 15 16  1  0  0  0
 16 17  1  0  0  0
 17 18  1  0  0  0
 18 19  1  0  0  0
 19 20  2  0  0  0
 20 21  1  0  0  0
 21 22  1  0  0  0
 22 23  1  0  0  0
 23 24  1  0  0  0
 24 25  1  0  0  0
 25 26  1  0  0  0
 26 27  1  0  0  0
 27 28  1  0  0  0
 52 53  1  0  0  0
 53 54  1  0  0  0
 54 55  1  0  0  0
 55 56  1  0  0  0
 56 60  1  0  0  0
M  CHG 1  64  -1
M  END
> <minimizedAffinity>
-8.71168

> <CNNscore>
0.1162626222

> <CNNaffinity>
7.4042978287

> <CNN_VS>
0.8608430624

> <CNNaffinity_variance>
1.4417700768

$$$$
/media/chris/experiments/cd1a-new-docking/inputs/ligands/7ryn_ligand.pdb


 68 68  0  0  0  0  0  0  0  0999 V2000
  -39.2733   59.4115   60.5958 C   0  0  0  0  0  0  0  0  0  0  0  0
  -40.3642   59.9564   61.3986 N   0  0  0  0  0  0  0  0  0  0  0  0
  -41.6498   60.5755   59.6574 O   0  0  0  0  0  0  0  0  0  0  0  0
  -41.4656   60.4950   60.8685 C   0  0  0  0  0  0  0  0  0  0  0  0
  -40.2841   59.9253   62.3793 H   0  0  0  0  0  0  0  0  0  0  0  0
  -42.4868   60.9985   61.8578 C   0  0  0  0  0  0  0  0  0  0  0  0
  -42.5193   60.1716   63.1368 C   0  0  0  0  0  0  0  0  0  0  0  0
  -43.0929   58.7804   62.9214 C   0  0  0  0  0  0  0  0  0  0  0  0
  -44.0873   58.3521   63.9877 C   0  0  0  0  0  0  0  0  0  0  0  0
  -43.5052   57.4067   65.0278 C   0  0  0  0  0  0  0  0  0  0  0  0
  -43.9061   57.7380   66.4597 C   0  0  0  0  0  0  0  0  0  0  0  0
  -45.4033   57.6350   66.7206 C   0  0  0  0  0  0  0  0  0  0  0  0
  -46.0572   58.9354   67.1810 C   0  0  0  0  0  0  0  0  0  0  0  0
  -47.5388   59.0469   66.8247 C   0  0  0  0  0  0  0  0  0  0  0  0
  -48.2017   57.7258   66.4358 C   0  0  0  0  0  0  0  0  0  0  0  0
  -49.3825   57.8953   65.4795 C   0  0  0  0  0  0  0  0  0  0  0  0
  -50.4706   58.8560   65.9585 C   0  0  0  0  0  0  0  0  0  0  0  0
  -50.7363   60.0442   65.0302 C   0  0  0  0  0  0  0  0  0  0  0  0
  -49.5929   60.3230   64.0979 C   0  0  0  0  0  0  0  0  0  0  0  0
  -49.5533   60.0392   62.8081 C   0  0  0  0  0  0  0  0  0  0  0  0
  -50.6436   59.3842   62.0154 C   0  0  0  0  0  0  0  0  0  0  0  0
  -50.4571   57.8751   61.8440 C   0  0  0  0  0  0  0  0  0  0  0  0
  -50.2892   57.4504   60.3912 C   0  0  0  0  0  0  0  0  0  0  0  0
  -49.1553   56.4535   60.1795 C   0  0  0  0  0  0  0  0  0  0  0  0
  -47.8953   57.0517   59.5646 C   0  0  0  0  0  0  0  0  0  0  0  0
  -47.1830   56.1179   58.5963 C   0  0  0  0  0  0  0  0  0  0  0  0
  -47.5453   56.3408   57.1365 C   0  0  0  0  0  0  0  0  0  0  0  0
  -47.3433   57.7750   56.6914 C   0  0  0  0  0  0  0  0  0  0  0  0
  -39.9027   57.6067   62.0727 O   0  0  0  0  0  0  0  0  0  0  0  0
  -39.0485   57.9388   60.9743 C   0  0  0  0  0  0  0  0  0  0  0  0
  -40.8248   57.7867   61.8311 H   0  0  0  0  0  0  0  0  0  0  0  0
  -37.6134   57.6730   61.3121 C   0  0  0  0  0  0  0  0  0  0  0  0
  -37.1687   57.3115   62.4993 C   0  0  0  0  0  0  0  0  0  0  0  0
  -35.7315   57.0390   62.8010 C   0  0  0  0  0  0  0  0  0  0  0  0
  -34.8285   58.1160   62.1966 C   0  0  0  0  0  0  0  0  0  0  0  0
  -33.3438   57.7985   62.2717 C   0  0  0  0  0  0  0  0  0  0  0  0
  -32.5623   58.6874   63.2240 C   0  0  0  0  0  0  0  0  0  0  0  0
  -33.2319   60.0228   63.5143 C   0  0  0  0  0  0  0  0  0  0  0  0
  -32.8157   61.1343   62.5632 C   0  0  0  0  0  0  0  0  0  0  0  0
  -32.7667   62.5071   63.2107 C   0  0  0  0  0  0  0  0  0  0  0  0
  -31.7100   63.4276   62.6290 C   0  0  0  0  0  0  0  0  0  0  0  0
  -32.0197   63.9084   61.2217 C   0  0  0  0  0  0  0  0  0  0  0  0
  -32.2417   65.4073   61.1422 C   0  0  0  0  0  0  0  0  0  0  0  0
  -32.7483   66.0344   62.4269 C   0  0  0  0  0  0  0  0  0  0  0  0
  -34.1704   66.5454   62.3044 C   0  0  0  0  0  0  0  0  0  0  0  0
  -35.1425   65.4618   61.8857 C   0  0  0  0  0  0  0  0  0  0  0  0
  -38.0226   60.2447   60.7852 C   0  0  0  0  0  0  0  0  0  0  0  0
  -38.2268   61.1162   61.9030 O   0  0  0  0  0  0  0  0  0  0  0  0
  -36.2260   62.2881   63.4730 O   0  0  0  0  0  0  0  0  0  0  0  0
  -39.3451   61.2461   66.2494 O   0  0  0  0  0  0  0  0  0  0  0  0
  -38.9930   59.9183   63.7214 O   0  0  0  0  0  0  0  0  0  0  0  0
  -37.8756   60.5615   63.1371 C   0  0  0  0  0  0  0  0  0  0  0  0
  -37.3847   61.6875   64.0378 C   0  0  0  0  0  0  0  0  0  0  0  0
  -37.0724   61.1418   65.4255 C   0  0  0  0  0  0  0  0  0  0  0  0
  -38.2556   60.3675   65.9873 C   0  0  0  0  0  0  0  0  0  0  0  0
  -38.6944   59.3030   64.9847 C   0  0  0  0  0  0  0  0  0  0  0  0
  -36.4373   62.6313   62.5907 H   0  0  0  0  0  0  0  0  0  0  0  0
  -39.0684   61.9234   66.8862 H   0  0  0  0  0  0  0  0  0  0  0  0
  -39.9950   57.2598   64.8353 O   0  0  0  0  0  0  0  0  0  0  0  0
  -39.9371   58.5587   65.4135 C   0  0  0  0  0  0  0  0  0  0  0  0
  -40.8025   56.8103   65.1299 H   0  0  0  0  0  0  0  0  0  0  0  0
  -36.8335   62.3299   66.2445 O   0  0  0  0  0  0  0  0  0  0  0  0
  -35.2846   64.0679   65.6220 O   0  0  0  0  0  0  0  0  0  0  0  0
  -34.4538   61.7824   66.2560 O   0  0  0  0  0  0  0  0  0  0  0  0
  -35.3637   63.2744   67.8630 O   0  0  0  0  0  0  0  0  0  0  0  0
  -35.3466   62.8727   66.3790 S   0  0  0  0  0  0  0  0  0  0  0  0
  -35.2722   63.8515   64.6766 H   0  0  0  0  0  0  0  0  0  0  0  0
  -35.9678   64.0229   67.9884 H   0  0  0  0  0  0  0  0  0  0  0  0
  2  1  1  0  0  0
  2  4  1  0  0  0
  2  5  1  0  0  0
 47 48  1  0  0  0
 47  1  1  0  0  0
 48 52  1  0  0  0
  1 30  1  0  0  0
 29 30  1  0  0  0
 29 31  1  0  0  0
 30 32  1  0  0  0
  3  4  2  0  0  0
 32 33  2  0  0  0
 49 53  1  0  0  0
 49 57  1  0  0  0
 33 34  1  0  0  0
 62 54  1  0  0  0
 62 66  1  0  0  0
 34 35  1  0  0  0
 50 55  1  0  0  0
 50 58  1  0  0  0
 35 36  1  0  0  0
 51 52  1  0  0  0
 51 56  1  0  0  0
 36 37  1  0  0  0
 59 60  1  0  0  0
 59 61  1  0  0  0
 37 38  1  0  0  0
 63 66  1  0  0  0
 63 67  1  0  0  0
 38 39  1  0  0  0
 64 66  1  0  0  0
 39 40  1  0  0  0
 65 66  1  0  0  0
 65 68  1  0  0  0
 40 41  1  0  0  0
 41 42  1  0  0  0
 42 43  1  0  0  0
 43 44  1  0  0  0
 44 45  1  0  0  0
 45 46  1  0  0  0
  4  6  1  0  0  0
  6  7  1  0  0  0
  7  8  1  0  0  0
  8  9  1  0  0  0
  9 10  1  0  0  0
 10 11  1  0  0  0
 11 12  1  0  0  0
 12 13  1  0  0  0
 13 14  1  0  0  0
 14 15  1  0  0  0
 15 16  1  0  0  0
 16 17  1  0  0  0
 17 18  1  0  0  0
 18 19  1  0  0  0
 19 20  2  0  0  0
 20 21  1  0  0  0
 21 22  1  0  0  0
 22 23  1  0  0  0
 23 24  1  0  0  0
 24 25  1  0  0  0
 25 26  1  0  0  0
 26 27  1  0  0  0
 27 28  1  0  0  0
 52 53  1  0  0  0
 53 54  1  0  0  0
 54 55  1  0  0  0
 55 56  1  0  0  0
 56 60  1  0  0  0
M  CHG 1  64  -1
M  END
> <minimizedAffinity>
-9.05157

> <CNNscore>
0.1011826769

> <CNNaffinity>
6.9239487648

> <CNN_VS>
0.7005836964

> <CNNaffinity_variance>
1.8204265833

$$$$
/media/chris/experiments/cd1a-new-docking/inputs/ligands/7ryn_ligand.pdb


 68 68  0  0  0  0  0  0  0  0999 V2000
  -37.9696   57.9779   61.1629 C   0  0  0  0  0  0  0  0  0  0  0  0
  -39.2565   57.5630   61.7134 N   0  0  0  0  0  0  0  0  0  0  0  0
  -40.4362   57.8912   59.8243 O   0  0  0  0  0  0  0  0  0  0  0  0
  -40.3876   57.5518   61.0031 C   0  0  0  0  0  0  0  0  0  0  0  0
  -39.2924   57.2774   62.6548 H   0  0  0  0  0  0  0  0  0  0  0  0
  -41.6171   57.0843   61.7415 C   0  0  0  0  0  0  0  0  0  0  0  0
  -41.3797   55.7930   62.5140 C   0  0  0  0  0  0  0  0  0  0  0  0
  -41.4632   55.9864   64.0196 C   0  0  0  0  0  0  0  0  0  0  0  0
  -42.8829   56.0005   64.5611 C   0  0  0  0  0  0  0  0  0  0  0  0
  -43.3099   57.3438   65.1335 C   0  0  0  0  0  0  0  0  0  0  0  0
  -44.3511   58.0726   64.2936 C   0  0  0  0  0  0  0  0  0  0  0  0
  -45.6313   58.4043   65.0495 C   0  0  0  0  0  0  0  0  0  0  0  0
  -45.6475   57.9384   66.5032 C   0  0  0  0  0  0  0  0  0  0  0  0
  -46.9634   57.2930   66.9349 C   0  0  0  0  0  0  0  0  0  0  0  0
  -48.0179   57.1972   65.8326 C   0  0  0  0  0  0  0  0  0  0  0  0
  -49.1583   58.2030   65.9918 C   0  0  0  0  0  0  0  0  0  0  0  0
  -48.7391   59.5813   66.5026 C   0  0  0  0  0  0  0  0  0  0  0  0
  -48.9847   60.7337   65.5248 C   0  0  0  0  0  0  0  0  0  0  0  0
  -48.5319   60.4200   64.1281 C   0  0  0  0  0  0  0  0  0  0  0  0
  -49.2927   59.9701   63.1459 C   0  0  0  0  0  0  0  0  0  0  0  0
  -50.7617   59.6850   63.2279 C   0  0  0  0  0  0  0  0  0  0  0  0
  -51.1752   58.3853   62.5343 C   0  0  0  0  0  0  0  0  0  0  0  0
  -50.0703   57.7825   61.6769 C   0  0  0  0  0  0  0  0  0  0  0  0
  -50.3154   57.9344   60.1798 C   0  0  0  0  0  0  0  0  0  0  0  0
  -49.3250   57.1821   59.2984 C   0  0  0  0  0  0  0  0  0  0  0  0
  -48.1727   58.0422   58.7989 C   0  0  0  0  0  0  0  0  0  0  0  0
  -46.9815   57.2493   58.2850 C   0  0  0  0  0  0  0  0  0  0  0  0
  -47.0200   57.0331   56.7857 C   0  0  0  0  0  0  0  0  0  0  0  0
  -37.1257   57.6964   63.4086 O   0  0  0  0  0  0  0  0  0  0  0  0
  -36.8366   57.4153   62.0361 C   0  0  0  0  0  0  0  0  0  0  0  0
  -37.9892   57.3202   63.6408 H   0  0  0  0  0  0  0  0  0  0  0  0
  -35.5075   57.9826   61.6414 C   0  0  0  0  0  0  0  0  0  0  0  0
  -34.4047   57.8993   62.3588 C   0  0  0  0  0  0  0  0  0  0  0  0
  -33.0897   58.4631   61.9303 C   0  0  0  0  0  0  0  0  0  0  0  0
  -32.8517   59.8399   62.5537 C   0  0  0  0  0  0  0  0  0  0  0  0
  -31.4446   60.3794   62.3544 C   0  0  0  0  0  0  0  0  0  0  0  0
  -31.2411   61.7965   62.8626 C   0  0  0  0  0  0  0  0  0  0  0  0
  -32.0397   62.8466   62.1041 C   0  0  0  0  0  0  0  0  0  0  0  0
  -31.1807   63.7747   61.2592 C   0  0  0  0  0  0  0  0  0  0  0  0
  -31.9579   64.9078   60.6124 C   0  0  0  0  0  0  0  0  0  0  0  0
  -32.0146   66.1737   61.4470 C   0  0  0  0  0  0  0  0  0  0  0  0
  -33.3953   66.4866   61.9977 C   0  0  0  0  0  0  0  0  0  0  0  0
  -33.4527   66.4461   63.5135 C   0  0  0  0  0  0  0  0  0  0  0  0
  -32.1073   66.2521   64.1862 C   0  0  0  0  0  0  0  0  0  0  0  0
  -32.2307   65.6537   65.5738 C   0  0  0  0  0  0  0  0  0  0  0  0
  -31.9565   64.1641   65.5899 C   0  0  0  0  0  0  0  0  0  0  0  0
  -37.9114   59.4880   61.0593 C   0  0  0  0  0  0  0  0  0  0  0  0
  -38.8188   60.0407   62.0195 O   0  0  0  0  0  0  0  0  0  0  0  0
  -36.7426   61.5521   63.1359 O   0  0  0  0  0  0  0  0  0  0  0  0
  -39.7838   61.4290   66.1787 O   0  0  0  0  0  0  0  0  0  0  0  0
  -39.5449   59.4296   64.1236 O   0  0  0  0  0  0  0  0  0  0  0  0
  -38.4361   59.8488   63.3501 C   0  0  0  0  0  0  0  0  0  0  0  0
  -37.8926   61.1695   63.8798 C   0  0  0  0  0  0  0  0  0  0  0  0
  -37.5433   61.0309   65.3562 C   0  0  0  0  0  0  0  0  0  0  0  0
  -38.7213   60.4815   66.1473 C   0  0  0  0  0  0  0  0  0  0  0  0
  -39.2150   59.1895   65.5011 C   0  0  0  0  0  0  0  0  0  0  0  0
  -36.9774   61.6370   62.1986 H   0  0  0  0  0  0  0  0  0  0  0  0
  -39.4721   62.2509   66.5889 H   0  0  0  0  0  0  0  0  0  0  0  0
  -41.4601   59.6300   66.3099 O   0  0  0  0  0  0  0  0  0  0  0  0
  -40.4565   58.6328   66.1578 C   0  0  0  0  0  0  0  0  0  0  0  0
  -42.2411   59.2408   66.7334 H   0  0  0  0  0  0  0  0  0  0  0  0
  -37.2532   62.3950   65.7969 O   0  0  0  0  0  0  0  0  0  0  0  0
  -35.0424   61.5538   66.2570 O   0  0  0  0  0  0  0  0  0  0  0  0
  -36.1025   63.2568   67.7707 O   0  0  0  0  0  0  0  0  0  0  0  0
  -35.3529   63.8152   65.5884 O   0  0  0  0  0  0  0  0  0  0  0  0
  -35.8586   62.6852   66.5000 S   0  0  0  0  0  0  0  0  0  0  0  0
  -35.3343   60.8181   66.8179 H   0  0  0  0  0  0  0  0  0  0  0  0
  -35.1736   63.4609   64.7034 H   0  0  0  0  0  0  0  0  0  0  0  0
  2  1  1  0  0  0
  2  4  1  0  0  0
  2  5  1  0  0  0
 47 48  1  0  0  0
 47  1  1  0  0  0
 48 52  1  0  0  0
  1 30  1  0  0  0
 29 30  1  0  0  0
 29 31  1  0  0  0
 30 32  1  0  0  0
  3  4  2  0  0  0
 32 33  2  0  0  0
 49 53  1  0  0  0
 49 57  1  0  0  0
 33 34  1  0  0  0
 62 54  1  0  0  0
 62 66  1  0  0  0
 34 35  1  0  0  0
 50 55  1  0  0  0
 50 58  1  0  0  0
 35 36  1  0  0  0
 51 52  1  0  0  0
 51 56  1  0  0  0
 36 37  1  0  0  0
 59 60  1  0  0  0
 59 61  1  0  0  0
 37 38  1  0  0  0
 63 66  1  0  0  0
 63 67  1  0  0  0
 38 39  1  0  0  0
 64 66  1  0  0  0
 39 40  1  0  0  0
 65 66  1  0  0  0
 65 68  1  0  0  0
 40 41  1  0  0  0
 41 42  1  0  0  0
 42 43  1  0  0  0
 43 44  1  0  0  0
 44 45  1  0  0  0
 45 46  1  0  0  0
  4  6  1  0  0  0
  6  7  1  0  0  0
  7  8  1  0  0  0
  8  9  1  0  0  0
  9 10  1  0  0  0
 10 11  1  0  0  0
 11 12  1  0  0  0
 12 13  1  0  0  0
 13 14  1  0  0  0
 14 15  1  0  0  0
 15 16  1  0  0  0
 16 17  1  0  0  0
 17 18  1  0  0  0
 18 19  1  0  0  0
 19 20  2  0  0  0
 20 21  1  0  0  0
 21 22  1  0  0  0
 22 23  1  0  0  0
 23 24  1  0  0  0
 24 25  1  0  0  0
 25 26  1  0  0  0
 26 27  1  0  0  0
 27 28  1  0  0  0
 52 53  1  0  0  0
 53 54  1  0  0  0
 54 55  1  0  0  0
 55 56  1  0  0  0
 56 60  1  0  0  0
M  CHG 1  64  -1
M  END
> <minimizedAffinity>
-8.49042

> <CNNscore>
0.0972684696

> <CNNaffinity>
6.8779687881

> <CNN_VS>
0.6690095067

> <CNNaffinity_variance>
0.8214848638

$$$$
/media/chris/experiments/cd1a-new-docking/inputs/ligands/7ryn_ligand.pdb


 68 68  0  0  0  0  0  0  0  0999 V2000
  -34.8912   59.8535   63.3172 C   0  0  0  0  0  0  0  0  0  0  0  0
  -35.7795   60.0140   64.4645 N   0  0  0  0  0  0  0  0  0  0  0  0
  -37.3286   61.2453   63.3911 O   0  0  0  0  0  0  0  0  0  0  0  0
  -36.9269   60.6959   64.4128 C   0  0  0  0  0  0  0  0  0  0  0  0
  -35.5200   59.5991   65.3188 H   0  0  0  0  0  0  0  0  0  0  0  0
  -37.7146   60.7460   65.6983 C   0  0  0  0  0  0  0  0  0  0  0  0
  -38.4596   59.4472   65.9787 C   0  0  0  0  0  0  0  0  0  0  0  0
  -39.9053   59.4874   65.5101 C   0  0  0  0  0  0  0  0  0  0  0  0
  -40.7608   60.5106   66.2383 C   0  0  0  0  0  0  0  0  0  0  0  0
  -42.0769   59.9530   66.7595 C   0  0  0  0  0  0  0  0  0  0  0  0
  -42.0177   58.4794   67.1413 C   0  0  0  0  0  0  0  0  0  0  0  0
  -43.1768   57.6542   66.5974 C   0  0  0  0  0  0  0  0  0  0  0  0
  -44.4632   58.4434   66.3670 C   0  0  0  0  0  0  0  0  0  0  0  0
  -45.5479   57.6625   65.6267 C   0  0  0  0  0  0  0  0  0  0  0  0
  -46.9031   57.6290   66.3327 C   0  0  0  0  0  0  0  0  0  0  0  0
  -47.2282   58.9178   67.0882 C   0  0  0  0  0  0  0  0  0  0  0  0
  -48.5223   59.6099   66.6604 C   0  0  0  0  0  0  0  0  0  0  0  0
  -49.5415   58.7009   65.9683 C   0  0  0  0  0  0  0  0  0  0  0  0
  -50.8186   59.4119   65.6250 C   0  0  0  0  0  0  0  0  0  0  0  0
  -51.1329   59.9227   64.4476 C   0  0  0  0  0  0  0  0  0  0  0  0
  -50.2784   59.8923   63.2167 C   0  0  0  0  0  0  0  0  0  0  0  0
  -50.7525   58.8881   62.1641 C   0  0  0  0  0  0  0  0  0  0  0  0
  -49.6265   58.3610   61.2846 C   0  0  0  0  0  0  0  0  0  0  0  0
  -49.7042   56.8585   61.0380 C   0  0  0  0  0  0  0  0  0  0  0  0
  -48.8485   56.3641   59.8774 C   0  0  0  0  0  0  0  0  0  0  0  0
  -48.2339   57.4833   59.0487 C   0  0  0  0  0  0  0  0  0  0  0  0
  -47.2279   57.0095   58.0118 C   0  0  0  0  0  0  0  0  0  0  0  0
  -47.1908   57.8919   56.7805 C   0  0  0  0  0  0  0  0  0  0  0  0
  -33.4204   58.0760   62.6017 O   0  0  0  0  0  0  0  0  0  0  0  0
  -34.7733   58.3610   62.9689 C   0  0  0  0  0  0  0  0  0  0  0  0
  -32.8281   58.3315   63.3261 H   0  0  0  0  0  0  0  0  0  0  0  0
  -35.7185   57.9783   61.8715 C   0  0  0  0  0  0  0  0  0  0  0  0
  -37.0054   58.2629   61.8460 C   0  0  0  0  0  0  0  0  0  0  0  0
  -37.9196   57.8798   60.7288 C   0  0  0  0  0  0  0  0  0  0  0  0
  -38.1014   59.0373   59.7449 C   0  0  0  0  0  0  0  0  0  0  0  0
  -39.0248   60.1380   60.2415 C   0  0  0  0  0  0  0  0  0  0  0  0
  -40.2931   59.6351   60.9098 C   0  0  0  0  0  0  0  0  0  0  0  0
  -41.3211   59.0703   59.9404 C   0  0  0  0  0  0  0  0  0  0  0  0
  -41.4664   57.5582   60.0167 C   0  0  0  0  0  0  0  0  0  0  0  0
  -40.9548   56.9592   61.3150 C   0  0  0  0  0  0  0  0  0  0  0  0
  -42.0268   56.7655   62.3711 C   0  0  0  0  0  0  0  0  0  0  0  0
  -42.1426   57.9213   63.3499 C   0  0  0  0  0  0  0  0  0  0  0  0
  -43.2548   58.8905   62.9947 C   0  0  0  0  0  0  0  0  0  0  0  0
  -43.0024   60.3208   63.4317 C   0  0  0  0  0  0  0  0  0  0  0  0
  -42.8872   61.2761   62.2600 C   0  0  0  0  0  0  0  0  0  0  0  0
  -42.8728   62.7273   62.6937 C   0  0  0  0  0  0  0  0  0  0  0  0
  -33.5428   60.4767   63.6130 C   0  0  0  0  0  0  0  0  0  0  0  0
  -33.5214   60.8722   64.9892 O   0  0  0  0  0  0  0  0  0  0  0  0
  -31.4505   62.4313   63.9300 O   0  0  0  0  0  0  0  0  0  0  0  0
  -35.0330   64.6999   63.1942 O   0  0  0  0  0  0  0  0  0  0  0  0
  -34.8179   62.7558   65.3043 O   0  0  0  0  0  0  0  0  0  0  0  0
  -33.4988   62.2553   65.1903 C   0  0  0  0  0  0  0  0  0  0  0  0
  -32.7934   62.8935   64.0007 C   0  0  0  0  0  0  0  0  0  0  0  0
  -32.8223   64.4108   64.1345 C   0  0  0  0  0  0  0  0  0  0  0  0
  -34.2412   64.9129   64.3584 C   0  0  0  0  0  0  0  0  0  0  0  0
  -34.8669   64.1725   65.5378 C   0  0  0  0  0  0  0  0  0  0  0  0
  -31.4452   61.4650   63.8451 H   0  0  0  0  0  0  0  0  0  0  0  0
  -34.6371   65.1695   62.4435 H   0  0  0  0  0  0  0  0  0  0  0  0
  -36.8697   63.8121   66.8599 O   0  0  0  0  0  0  0  0  0  0  0  0
  -36.3178   64.5291   65.7617 C   0  0  0  0  0  0  0  0  0  0  0  0
  -37.7993   64.0636   66.9759 H   0  0  0  0  0  0  0  0  0  0  0  0
  -32.3270   64.9046   62.8499 O   0  0  0  0  0  0  0  0  0  0  0  0
  -33.7511   65.4113   60.9731 O   0  0  0  0  0  0  0  0  0  0  0  0
  -33.4707   63.0417   61.7615 O   0  0  0  0  0  0  0  0  0  0  0  0
  -31.7245   64.2078   60.6537 O   0  0  0  0  0  0  0  0  0  0  0  0
  -32.9889   64.3490   61.5170 S   0  0  0  0  0  0  0  0  0  0  0  0
  -34.5600   65.5292   61.4953 H   0  0  0  0  0  0  0  0  0  0  0  0
  -31.3628   65.0876   60.4638 H   0  0  0  0  0  0  0  0  0  0  0  0
  2  1  1  0  0  0
  2  4  1  0  0  0
  2  5  1  0  0  0
 47 48  1  0  0  0
 47  1  1  0  0  0
 48 52  1  0  0  0
  1 30  1  0  0  0
 29 30  1  0  0  0
 29 31  1  0  0  0
 30 32  1  0  0  0
  3  4  2  0  0  0
 32 33  2  0  0  0
 49 53  1  0  0  0
 49 57  1  0  0  0
 33 34  1  0  0  0
 62 54  1  0  0  0
 62 66  1  0  0  0
 34 35  1  0  0  0
 50 55  1  0  0  0
 50 58  1  0  0  0
 35 36  1  0  0  0
 51 52  1  0  0  0
 51 56  1  0  0  0
 36 37  1  0  0  0
 59 60  1  0  0  0
 59 61  1  0  0  0
 37 38  1  0  0  0
 63 66  1  0  0  0
 63 67  1  0  0  0
 38 39  1  0  0  0
 64 66  1  0  0  0
 39 40  1  0  0  0
 65 66  1  0  0  0
 65 68  1  0  0  0
 40 41  1  0  0  0
 41 42  1  0  0  0
 42 43  1  0  0  0
 43 44  1  0  0  0
 44 45  1  0  0  0
 45 46  1  0  0  0
  4  6  1  0  0  0
  6  7  1  0  0  0
  7  8  1  0  0  0
  8  9  1  0  0  0
  9 10  1  0  0  0
 10 11  1  0  0  0
 11 12  1  0  0  0
 12 13  1  0  0  0
 13 14  1  0  0  0
 14 15  1  0  0  0
 15 16  1  0  0  0
 16 17  1  0  0  0
 17 18  1  0  0  0
 18 19  1  0  0  0
 19 20  2  0  0  0
 20 21  1  0  0  0
 21 22  1  0  0  0
 22 23  1  0  0  0
 23 24  1  0  0  0
 24 25  1  0  0  0
 25 26  1  0  0  0
 26 27  1  0  0  0
 27 28  1  0  0  0
 52 53  1  0  0  0
 53 54  1  0  0  0
 54 55  1  0  0  0
 55 56  1  0  0  0
 56 60  1  0  0  0
M  CHG 1  64  -1
M  END
> <minimizedAffinity>
-8.69897

> <CNNscore>
0.0883403569

> <CNNaffinity>
7.1523694992

> <CNN_VS>
0.6318428516

> <CNNaffinity_variance>
1.8571517467

$$$$
/media/chris/experiments/cd1a-new-docking/inputs/ligands/7ryn_ligand.pdb


 68 68  0  0  0  0  0  0  0  0999 V2000
  -37.5554   61.0753   63.6500 C   0  0  0  0  0  0  0  0  0  0  0  0
  -38.2561   60.2480   64.6277 N   0  0  0  0  0  0  0  0  0  0  0  0
  -37.8270   61.5668   66.4010 O   0  0  0  0  0  0  0  0  0  0  0  0
  -38.3376   60.5571   65.9246 C   0  0  0  0  0  0  0  0  0  0  0  0
  -38.6902   59.4213   64.3156 H   0  0  0  0  0  0  0  0  0  0  0  0
  -39.1101   59.5840   66.7799 C   0  0  0  0  0  0  0  0  0  0  0  0
  -40.3635   59.0640   66.0877 C   0  0  0  0  0  0  0  0  0  0  0  0
  -41.5619   59.9795   66.2789 C   0  0  0  0  0  0  0  0  0  0  0  0
  -42.5937   59.4472   67.2593 C   0  0  0  0  0  0  0  0  0  0  0  0
  -43.3662   58.2415   66.7455 C   0  0  0  0  0  0  0  0  0  0  0  0
  -44.4225   58.5812   65.7016 C   0  0  0  0  0  0  0  0  0  0  0  0
  -45.8422   58.6236   66.2519 C   0  0  0  0  0  0  0  0  0  0  0  0
  -46.5974   57.3001   66.1592 C   0  0  0  0  0  0  0  0  0  0  0  0
  -48.0102   57.4284   65.5916 C   0  0  0  0  0  0  0  0  0  0  0  0
  -48.9404   58.3352   66.3968 C   0  0  0  0  0  0  0  0  0  0  0  0
  -50.3795   58.3439   65.8805 C   0  0  0  0  0  0  0  0  0  0  0  0
  -50.9420   59.7274   65.5550 C   0  0  0  0  0  0  0  0  0  0  0  0
  -51.1518   60.0039   64.0638 C   0  0  0  0  0  0  0  0  0  0  0  0
  -49.8613   60.1584   63.3120 C   0  0  0  0  0  0  0  0  0  0  0  0
  -49.3079   59.2554   62.5220 C   0  0  0  0  0  0  0  0  0  0  0  0
  -49.8588   57.8959   62.2150 C   0  0  0  0  0  0  0  0  0  0  0  0
  -50.7116   57.8508   60.9453 C   0  0  0  0  0  0  0  0  0  0  0  0
  -49.9209   57.4650   59.7023 C   0  0  0  0  0  0  0  0  0  0  0  0
  -48.8313   56.4340   59.9742 C   0  0  0  0  0  0  0  0  0  0  0  0
  -48.0905   55.9555   58.7308 C   0  0  0  0  0  0  0  0  0  0  0  0
  -46.7496   56.6424   58.5139 C   0  0  0  0  0  0  0  0  0  0  0  0
  -46.8111   57.8509   57.5934 C   0  0  0  0  0  0  0  0  0  0  0  0
  -47.7821   57.6681   56.4446 C   0  0  0  0  0  0  0  0  0  0  0  0
  -37.6983   61.8859   61.3791 O   0  0  0  0  0  0  0  0  0  0  0  0
  -38.1925   60.8775   62.2652 C   0  0  0  0  0  0  0  0  0  0  0  0
  -36.7298   61.8418   61.3470 H   0  0  0  0  0  0  0  0  0  0  0  0
  -39.6882   60.9159   62.3398 C   0  0  0  0  0  0  0  0  0  0  0  0
  -40.5052   60.3754   61.4577 C   0  0  0  0  0  0  0  0  0  0  0  0
  -41.9941   60.4180   61.5682 C   0  0  0  0  0  0  0  0  0  0  0  0
  -42.4767   59.6485   62.7994 C   0  0  0  0  0  0  0  0  0  0  0  0
  -42.5629   58.1440   62.5997 C   0  0  0  0  0  0  0  0  0  0  0  0
  -41.7788   57.3329   63.6172 C   0  0  0  0  0  0  0  0  0  0  0  0
  -40.9293   56.2283   63.0059 C   0  0  0  0  0  0  0  0  0  0  0  0
  -40.3918   56.5651   61.6236 C   0  0  0  0  0  0  0  0  0  0  0  0
  -39.2064   57.5141   61.6427 C   0  0  0  0  0  0  0  0  0  0  0  0
  -38.0685   57.0638   62.5398 C   0  0  0  0  0  0  0  0  0  0  0  0
  -36.7334   57.7101   62.2119 C   0  0  0  0  0  0  0  0  0  0  0  0
  -35.5614   57.0303   62.8951 C   0  0  0  0  0  0  0  0  0  0  0  0
  -35.4751   57.2819   64.3883 C   0  0  0  0  0  0  0  0  0  0  0  0
  -34.5938   58.4676   64.7292 C   0  0  0  0  0  0  0  0  0  0  0  0
  -33.1535   58.2602   64.3087 C   0  0  0  0  0  0  0  0  0  0  0  0
  -36.0782   60.7402   63.6496 C   0  0  0  0  0  0  0  0  0  0  0  0
  -35.3530   61.9013   63.2293 O   0  0  0  0  0  0  0  0  0  0  0  0
  -32.8106   61.8643   62.0563 O   0  0  0  0  0  0  0  0  0  0  0  0
  -32.8027   65.3291   64.6093 O   0  0  0  0  0  0  0  0  0  0  0  0
  -34.5318   63.0706   65.0422 O   0  0  0  0  0  0  0  0  0  0  0  0
  -34.2144   62.1762   63.9921 C   0  0  0  0  0  0  0  0  0  0  0  0
  -33.1681   62.7926   63.0725 C   0  0  0  0  0  0  0  0  0  0  0  0
  -31.9387   63.1899   63.8798 C   0  0  0  0  0  0  0  0  0  0  0  0
  -32.3216   64.0677   65.0623 C   0  0  0  0  0  0  0  0  0  0  0  0
  -33.4080   63.3771   65.8829 C   0  0  0  0  0  0  0  0  0  0  0  0
  -33.6007   61.6193   61.5498 H   0  0  0  0  0  0  0  0  0  0  0  0
  -32.1139   65.7696   64.0875 H   0  0  0  0  0  0  0  0  0  0  0  0
  -34.8925   63.5308   67.7965 O   0  0  0  0  0  0  0  0  0  0  0  0
  -33.9290   64.2294   67.0163 C   0  0  0  0  0  0  0  0  0  0  0  0
  -35.2057   64.1044   68.5132 H   0  0  0  0  0  0  0  0  0  0  0  0
  -31.1168   63.9597   62.9465 O   0  0  0  0  0  0  0  0  0  0  0  0
  -33.2313   64.5671   61.9632 O   0  0  0  0  0  0  0  0  0  0  0  0
  -31.1202   64.6423   60.6019 O   0  0  0  0  0  0  0  0  0  0  0  0
  -31.5560   66.2163   62.3249 O   0  0  0  0  0  0  0  0  0  0  0  0
  -31.8426   64.7969   61.8082 S   0  0  0  0  0  0  0  0  0  0  0  0
  -33.4490   63.6767   61.6458 H   0  0  0  0  0  0  0  0  0  0  0  0
  -32.0363   66.3613   63.1551 H   0  0  0  0  0  0  0  0  0  0  0  0
  2  1  1  0  0  0
  2  4  1  0  0  0
  2  5  1  0  0  0
 47 48  1  0  0  0
 47  1  1  0  0  0
 48 52  1  0  0  0
  1 30  1  0  0  0
 29 30  1  0  0  0
 29 31  1  0  0  0
 30 32  1  0  0  0
  3  4  2  0  0  0
 32 33  2  0  0  0
 49 53  1  0  0  0
 49 57  1  0  0  0
 33 34  1  0  0  0
 62 54  1  0  0  0
 62 66  1  0  0  0
 34 35  1  0  0  0
 50 55  1  0  0  0
 50 58  1  0  0  0
 35 36  1  0  0  0
 51 52  1  0  0  0
 51 56  1  0  0  0
 36 37  1  0  0  0
 59 60  1  0  0  0
 59 61  1  0  0  0
 37 38  1  0  0  0
 63 66  1  0  0  0
 63 67  1  0  0  0
 38 39  1  0  0  0
 64 66  1  0  0  0
 39 40  1  0  0  0
 65 66  1  0  0  0
 65 68  1  0  0  0
 40 41  1  0  0  0
 41 42  1  0  0  0
 42 43  1  0  0  0
 43 44  1  0  0  0
 44 45  1  0  0  0
 45 46  1  0  0  0
  4  6  1  0  0  0
  6  7  1  0  0  0
  7  8  1  0  0  0
  8  9  1  0  0  0
  9 10  1  0  0  0
 10 11  1  0  0  0
 11 12  1  0  0  0
 12 13  1  0  0  0
 13 14  1  0  0  0
 14 15  1  0  0  0
 15 16  1  0  0  0
 16 17  1  0  0  0
 17 18  1  0  0  0
 18 19  1  0  0  0
 19 20  2  0  0  0
 20 21  1  0  0  0
 21 22  1  0  0  0
 22 23  1  0  0  0
 23 24  1  0  0  0
 24 25  1  0  0  0
 25 26  1  0  0  0
 26 27  1  0  0  0
 27 28  1  0  0  0
 52 53  1  0  0  0
 53 54  1  0  0  0
 54 55  1  0  0  0
 55 56  1  0  0  0
 56 60  1  0  0  0
M  CHG 1  64  -1
M  END
> <minimizedAffinity>
-8.61207

> <CNNscore>
0.0850734487

> <CNNaffinity>
7.1184701920

> <CNN_VS>
0.6055927873

> <CNNaffinity_variance>
1.1064850092

$$$$
/media/chris/experiments/cd1a-new-docking/inputs/ligands/7ryn_ligand.pdb


 68 68  0  0  0  0  0  0  0  0999 V2000
  -40.8844   57.0780   63.9628 C   0  0  0  0  0  0  0  0  0  0  0  0
  -39.6376   57.4883   64.6019 N   0  0  0  0  0  0  0  0  0  0  0  0
  -40.2316   59.6368   64.9167 O   0  0  0  0  0  0  0  0  0  0  0  0
  -39.4082   58.7331   65.0284 C   0  0  0  0  0  0  0  0  0  0  0  0
  -38.9308   56.8140   64.7245 H   0  0  0  0  0  0  0  0  0  0  0  0
  -38.0633   58.9652   65.6708 C   0  0  0  0  0  0  0  0  0  0  0  0
  -36.9322   59.0306   64.6525 C   0  0  0  0  0  0  0  0  0  0  0  0
  -36.1208   57.7463   64.5938 C   0  0  0  0  0  0  0  0  0  0  0  0
  -35.7223   57.3330   63.1868 C   0  0  0  0  0  0  0  0  0  0  0  0
  -34.7975   58.3223   62.4936 C   0  0  0  0  0  0  0  0  0  0  0  0
  -33.4970   57.7078   61.9917 C   0  0  0  0  0  0  0  0  0  0  0  0
  -32.3112   57.9282   62.9221 C   0  0  0  0  0  0  0  0  0  0  0  0
  -32.0987   59.3796   63.3447 C   0  0  0  0  0  0  0  0  0  0  0  0
  -31.2839   60.2044   62.3496 C   0  0  0  0  0  0  0  0  0  0  0  0
  -32.0002   61.4427   61.8113 C   0  0  0  0  0  0  0  0  0  0  0  0
  -31.0774   62.6476   61.6262 C   0  0  0  0  0  0  0  0  0  0  0  0
  -31.7703   63.9279   61.1600 C   0  0  0  0  0  0  0  0  0  0  0  0
  -33.2324   64.0646   61.5934 C   0  0  0  0  0  0  0  0  0  0  0  0
  -33.5989   65.4699   61.9739 C   0  0  0  0  0  0  0  0  0  0  0  0
  -33.1669   66.1267   63.0360 C   0  0  0  0  0  0  0  0  0  0  0  0
  -32.2213   65.6014   64.0732 C   0  0  0  0  0  0  0  0  0  0  0  0
  -32.8965   65.2575   65.4026 C   0  0  0  0  0  0  0  0  0  0  0  0
  -32.8592   63.7706   65.7299 C   0  0  0  0  0  0  0  0  0  0  0  0
  -33.9363   63.3419   66.7200 C   0  0  0  0  0  0  0  0  0  0  0  0
  -34.7735   62.1517   66.2661 C   0  0  0  0  0  0  0  0  0  0  0  0
  -34.2311   61.4590   65.0239 C   0  0  0  0  0  0  0  0  0  0  0  0
  -34.9784   61.8006   63.7445 C   0  0  0  0  0  0  0  0  0  0  0  0
  -36.1821   62.6890   63.9844 C   0  0  0  0  0  0  0  0  0  0  0  0
  -41.8637   54.9266   64.4596 O   0  0  0  0  0  0  0  0  0  0  0  0
  -41.7221   56.2598   64.9585 C   0  0  0  0  0  0  0  0  0  0  0  0
  -40.9856   54.5405   64.3149 H   0  0  0  0  0  0  0  0  0  0  0  0
  -43.0612   56.8887   65.1943 C   0  0  0  0  0  0  0  0  0  0  0  0
  -43.3173   57.8074   66.1044 C   0  0  0  0  0  0  0  0  0  0  0  0
  -44.6615   58.4267   66.3051 C   0  0  0  0  0  0  0  0  0  0  0  0
  -45.5898   58.1205   65.1281 C   0  0  0  0  0  0  0  0  0  0  0  0
  -47.0372   58.5261   65.3541 C   0  0  0  0  0  0  0  0  0  0  0  0
  -47.4737   59.7489   64.5655 C   0  0  0  0  0  0  0  0  0  0  0  0
  -48.9796   59.8574   64.3751 C   0  0  0  0  0  0  0  0  0  0  0  0
  -49.5956   58.6534   63.6792 C   0  0  0  0  0  0  0  0  0  0  0  0
  -49.0797   58.4323   62.2682 C   0  0  0  0  0  0  0  0  0  0  0  0
  -50.0259   58.9093   61.1822 C   0  0  0  0  0  0  0  0  0  0  0  0
  -50.1046   57.9806   59.9827 C   0  0  0  0  0  0  0  0  0  0  0  0
  -49.2207   56.7552   60.1221 C   0  0  0  0  0  0  0  0  0  0  0  0
  -48.1010   56.6713   59.1024 C   0  0  0  0  0  0  0  0  0  0  0  0
  -47.9487   57.9475   58.2982 C   0  0  0  0  0  0  0  0  0  0  0  0
  -46.9529   57.8046   57.1659 C   0  0  0  0  0  0  0  0  0  0  0  0
  -40.5881   56.3019   62.6963 C   0  0  0  0  0  0  0  0  0  0  0  0
  -41.5857   56.6303   61.7228 O   0  0  0  0  0  0  0  0  0  0  0  0
  -43.0899   58.8913   62.4060 O   0  0  0  0  0  0  0  0  0  0  0  0
  -39.0616   60.3363   61.9504 O   0  0  0  0  0  0  0  0  0  0  0  0
  -40.0252   57.9546   60.6555 O   0  0  0  0  0  0  0  0  0  0  0  0
  -41.3744   57.8482   61.0703 C   0  0  0  0  0  0  0  0  0  0  0  0
  -41.7175   58.9698   62.0421 C   0  0  0  0  0  0  0  0  0  0  0  0
  -41.4182   60.3194   61.4018 C   0  0  0  0  0  0  0  0  0  0  0  0
  -39.9923   60.3695   60.8731 C   0  0  0  0  0  0  0  0  0  0  0  0
  -39.7442   59.1762   59.9537 C   0  0  0  0  0  0  0  0  0  0  0  0
  -43.2678   58.0285   62.8121 H   0  0  0  0  0  0  0  0  0  0  0  0
  -39.2176   61.0938   62.5359 H   0  0  0  0  0  0  0  0  0  0  0  0
  -37.4568   58.5549   60.4741 O   0  0  0  0  0  0  0  0  0  0  0  0
  -38.3156   59.0847   59.4708 C   0  0  0  0  0  0  0  0  0  0  0  0
  -36.5500   58.5097   60.1327 H   0  0  0  0  0  0  0  0  0  0  0  0
  -41.5698   61.2860   62.4890 O   0  0  0  0  0  0  0  0  0  0  0  0
  -43.8778   61.4300   63.1670 O   0  0  0  0  0  0  0  0  0  0  0  0
  -43.0139   62.8305   61.2676 O   0  0  0  0  0  0  0  0  0  0  0  0
  -42.4044   63.2634   63.5209 O   0  0  0  0  0  0  0  0  0  0  0  0
  -42.8737   62.1927   62.5224 S   0  0  0  0  0  0  0  0  0  0  0  0
  -44.1984   60.7416   62.5634 H   0  0  0  0  0  0  0  0  0  0  0  0
  -42.2963   62.8627   64.3977 H   0  0  0  0  0  0  0  0  0  0  0  0
  2  1  1  0  0  0
  2  4  1  0  0  0
  2  5  1  0  0  0
 47 48  1  0  0  0
 47  1  1  0  0  0
 48 52  1  0  0  0
  1 30  1  0  0  0
 29 30  1  0  0  0
 29 31  1  0  0  0
 30 32  1  0  0  0
  3  4  2  0  0  0
 32 33  2  0  0  0
 49 53  1  0  0  0
 49 57  1  0  0  0
 33 34  1  0  0  0
 62 54  1  0  0  0
 62 66  1  0  0  0
 34 35  1  0  0  0
 50 55  1  0  0  0
 50 58  1  0  0  0
 35 36  1  0  0  0
 51 52  1  0  0  0
 51 56  1  0  0  0
 36 37  1  0  0  0
 59 60  1  0  0  0
 59 61  1  0  0  0
 37 38  1  0  0  0
 63 66  1  0  0  0
 63 67  1  0  0  0
 38 39  1  0  0  0
 64 66  1  0  0  0
 39 40  1  0  0  0
 65 66  1  0  0  0
 65 68  1  0  0  0
 40 41  1  0  0  0
 41 42  1  0  0  0
 42 43  1  0  0  0
 43 44  1  0  0  0
 44 45  1  0  0  0
 45 46  1  0  0  0
  4  6  1  0  0  0
  6  7  1  0  0  0
  7  8  1  0  0  0
  8  9  1  0  0  0
  9 10  1  0  0  0
 10 11  1  0  0  0
 11 12  1  0  0  0
 12 13  1  0  0  0
 13 14  1  0  0  0
 14 15  1  0  0  0
 15 16  1  0  0  0
 16 17  1  0  0  0
 17 18  1  0  0  0
 18 19  1  0  0  0
 19 20  2  0  0  0
 20 21  1  0  0  0
 21 22  1  0  0  0
 22 23  1  0  0  0
 23 24  1  0  0  0
 24 25  1  0  0  0
 25 26  1  0  0  0
 26 27  1  0  0  0
 27 28  1  0  0  0
 52 53  1  0  0  0
 53 54  1  0  0  0
 54 55  1  0  0  0
 55 56  1  0  0  0
 56 60  1  0  0  0
M  CHG 1  64  -1
M  END
> <minimizedAffinity>
-8.51942

> <CNNscore>
0.0836243406

> <CNNaffinity>
6.8628644943

> <CNN_VS>
0.5739025474

> <CNNaffinity_variance>
2.1930148602

$$$$
/media/chris/experiments/cd1a-new-docking/inputs/ligands/7ryn_ligand.pdb


 68 68  0  0  0  0  0  0  0  0999 V2000
  -41.4786   57.3404   64.3879 C   0  0  0  0  0  0  0  0  0  0  0  0
  -40.3694   57.9260   65.1349 N   0  0  0  0  0  0  0  0  0  0  0  0
  -41.3456   59.9260   65.4744 O   0  0  0  0  0  0  0  0  0  0  0  0
  -40.3887   59.1707   65.6193 C   0  0  0  0  0  0  0  0  0  0  0  0
  -39.5675   57.3763   65.2893 H   0  0  0  0  0  0  0  0  0  0  0  0
  -39.1527   59.5973   66.3713 C   0  0  0  0  0  0  0  0  0  0  0  0
  -37.9296   59.7096   65.4702 C   0  0  0  0  0  0  0  0  0  0  0  0
  -37.3497   61.1146   65.4408 C   0  0  0  0  0  0  0  0  0  0  0  0
  -36.9685   61.6526   66.8099 C   0  0  0  0  0  0  0  0  0  0  0  0
  -35.6908   62.4783   66.8127 C   0  0  0  0  0  0  0  0  0  0  0  0
  -35.7330   63.6884   65.8882 C   0  0  0  0  0  0  0  0  0  0  0  0
  -34.6006   63.7267   64.8700 C   0  0  0  0  0  0  0  0  0  0  0  0
  -34.8680   62.9310   63.5949 C   0  0  0  0  0  0  0  0  0  0  0  0
  -35.5823   63.7266   62.5035 C   0  0  0  0  0  0  0  0  0  0  0  0
  -34.6607   64.3045   61.4297 C   0  0  0  0  0  0  0  0  0  0  0  0
  -34.6953   65.8311   61.3548 C   0  0  0  0  0  0  0  0  0  0  0  0
  -34.3984   66.5506   62.6704 C   0  0  0  0  0  0  0  0  0  0  0  0
  -33.1180   66.0989   63.3779 C   0  0  0  0  0  0  0  0  0  0  0  0
  -31.8723   66.5036   62.6439 C   0  0  0  0  0  0  0  0  0  0  0  0
  -30.9347   65.6887   62.1935 C   0  0  0  0  0  0  0  0  0  0  0  0
  -30.9278   64.1955   62.3224 C   0  0  0  0  0  0  0  0  0  0  0  0
  -31.5213   63.4715   61.1121 C   0  0  0  0  0  0  0  0  0  0  0  0
  -31.3019   61.9648   61.1447 C   0  0  0  0  0  0  0  0  0  0  0  0
  -31.1654   61.4038   62.5556 C   0  0  0  0  0  0  0  0  0  0  0  0
  -31.1791   59.8814   62.6338 C   0  0  0  0  0  0  0  0  0  0  0  0
  -32.5751   59.2864   62.7535 C   0  0  0  0  0  0  0  0  0  0  0  0
  -33.3108   59.6762   64.0258 C   0  0  0  0  0  0  0  0  0  0  0  0
  -34.6978   59.0725   64.1131 C   0  0  0  0  0  0  0  0  0  0  0  0
  -42.5948   55.2403   64.8101 O   0  0  0  0  0  0  0  0  0  0  0  0
  -42.3782   56.5474   65.3495 C   0  0  0  0  0  0  0  0  0  0  0  0
  -41.7403   54.8050   64.6643 H   0  0  0  0  0  0  0  0  0  0  0  0
  -43.6791   57.2509   65.5882 C   0  0  0  0  0  0  0  0  0  0  0  0
  -43.9840   57.9323   66.6748 C   0  0  0  0  0  0  0  0  0  0  0  0
  -45.2858   58.6361   66.8767 C   0  0  0  0  0  0  0  0  0  0  0  0
  -46.2881   58.2640   65.7823 C   0  0  0  0  0  0  0  0  0  0  0  0
  -47.7231   58.6590   66.0912 C   0  0  0  0  0  0  0  0  0  0  0  0
  -48.1566   59.9751   65.4684 C   0  0  0  0  0  0  0  0  0  0  0  0
  -49.4030   59.8689   64.6019 C   0  0  0  0  0  0  0  0  0  0  0  0
  -49.1417   59.2754   63.2261 C   0  0  0  0  0  0  0  0  0  0  0  0
  -50.1930   59.6403   62.1928 C   0  0  0  0  0  0  0  0  0  0  0  0
  -50.1381   58.7988   60.9313 C   0  0  0  0  0  0  0  0  0  0  0  0
  -49.5076   57.4312   61.1307 C   0  0  0  0  0  0  0  0  0  0  0  0
  -49.0421   56.7975   59.8330 C   0  0  0  0  0  0  0  0  0  0  0  0
  -48.2904   57.7384   58.9110 C   0  0  0  0  0  0  0  0  0  0  0  0
  -47.6061   57.0122   57.7695 C   0  0  0  0  0  0  0  0  0  0  0  0
  -46.7538   57.9346   56.9228 C   0  0  0  0  0  0  0  0  0  0  0  0
  -40.9482   56.4764   63.2624 C   0  0  0  0  0  0  0  0  0  0  0  0
  -41.7286   56.7350   62.0899 O   0  0  0  0  0  0  0  0  0  0  0  0
  -43.1566   59.0930   62.5817 O   0  0  0  0  0  0  0  0  0  0  0  0
  -39.0300   60.3065   62.4364 O   0  0  0  0  0  0  0  0  0  0  0  0
  -40.0122   57.9407   61.1263 O   0  0  0  0  0  0  0  0  0  0  0  0
  -41.3953   57.9192   61.4262 C   0  0  0  0  0  0  0  0  0  0  0  0
  -41.7561   59.0870   62.3352 C   0  0  0  0  0  0  0  0  0  0  0  0
  -41.3292   60.3983   61.6878 C   0  0  0  0  0  0  0  0  0  0  0  0
  -39.8631   60.3559   61.2826 C   0  0  0  0  0  0  0  0  0  0  0  0
  -39.6052   59.1233   60.4195 C   0  0  0  0  0  0  0  0  0  0  0  0
  -43.4160   58.2539   62.9936 H   0  0  0  0  0  0  0  0  0  0  0  0
  -39.1924   61.0889   62.9862 H   0  0  0  0  0  0  0  0  0  0  0  0
  -37.9328   59.0600   58.6623 O   0  0  0  0  0  0  0  0  0  0  0  0
  -38.1483   58.9409   60.0638 C   0  0  0  0  0  0  0  0  0  0  0  0
  -36.9903   58.9379   58.4685 H   0  0  0  0  0  0  0  0  0  0  0  0
  -41.5178   61.4046   62.7323 O   0  0  0  0  0  0  0  0  0  0  0  0
  -42.3811   63.5921   63.2586 O   0  0  0  0  0  0  0  0  0  0  0  0
  -43.9405   61.6523   62.9112 O   0  0  0  0  0  0  0  0  0  0  0  0
  -42.7493   62.6395   61.1105 O   0  0  0  0  0  0  0  0  0  0  0  0
  -42.7639   62.3842   62.6265 S   0  0  0  0  0  0  0  0  0  0  0  0
  -42.3794   63.4673   64.2205 H   0  0  0  0  0  0  0  0  0  0  0  0
  -41.9534   63.1415   60.8748 H   0  0  0  0  0  0  0  0  0  0  0  0
  2  1  1  0  0  0
  2  4  1  0  0  0
  2  5  1  0  0  0
 47 48  1  0  0  0
 47  1  1  0  0  0
 48 52  1  0  0  0
  1 30  1  0  0  0
 29 30  1  0  0  0
 29 31  1  0  0  0
 30 32  1  0  0  0
  3  4  2  0  0  0
 32 33  2  0  0  0
 49 53  1  0  0  0
 49 57  1  0  0  0
 33 34  1  0  0  0
 62 54  1  0  0  0
 62 66  1  0  0  0
 34 35  1  0  0  0
 50 55  1  0  0  0
 50 58  1  0  0  0
 35 36  1  0  0  0
 51 52  1  0  0  0
 51 56  1  0  0  0
 36 37  1  0  0  0
 59 60  1  0  0  0
 59 61  1  0  0  0
 37 38  1  0  0  0
 63 66  1  0  0  0
 63 67  1  0  0  0
 38 39  1  0  0  0
 64 66  1  0  0  0
 39 40  1  0  0  0
 65 66  1  0  0  0
 65 68  1  0  0  0
 40 41  1  0  0  0
 41 42  1  0  0  0
 42 43  1  0  0  0
 43 44  1  0  0  0
 44 45  1  0  0  0
 45 46  1  0  0  0
  4  6  1  0  0  0
  6  7  1  0  0  0
  7  8  1  0  0  0
  8  9  1  0  0  0
  9 10  1  0  0  0
 10 11  1  0  0  0
 11 12  1  0  0  0
 12 13  1  0  0  0
 13 14  1  0  0  0
 14 15  1  0  0  0
 15 16  1  0  0  0
 16 17  1  0  0  0
 17 18  1  0  0  0
 18 19  1  0  0  0
 19 20  2  0  0  0
 20 21  1  0  0  0
 21 22  1  0  0  0
 22 23  1  0  0  0
 23 24  1  0  0  0
 24 25  1  0  0  0
 25 26  1  0  0  0
 26 27  1  0  0  0
 27 28  1  0  0  0
 52 53  1  0  0  0
 53 54  1  0  0  0
 54 55  1  0  0  0
 55 56  1  0  0  0
 56 60  1  0  0  0
M  CHG 1  64  -1
M  END
> <minimizedAffinity>
-7.28054

> <CNNscore>
0.0734975263

> <CNNaffinity>
7.1902832985

> <CNN_VS>
0.5284680128

> <CNNaffinity_variance>
1.2166682482

$$$$
/media/chris/experiments/cd1a-new-docking/inputs/ligands/7ryn_ligand.pdb


 68 68  0  0  0  0  0  0  0  0999 V2000
  -43.4709   57.9169   64.4089 C   0  0  0  0  0  0  0  0  0  0  0  0
  -43.0300   58.4703   63.1319 N   0  0  0  0  0  0  0  0  0  0  0  0
  -41.8291   56.6739   62.5004 O   0  0  0  0  0  0  0  0  0  0  0  0
  -42.2450   57.8074   62.2784 C   0  0  0  0  0  0  0  0  0  0  0  0
  -43.3259   59.3769   62.8878 H   0  0  0  0  0  0  0  0  0  0  0  0
  -41.9007   58.5397   61.0054 C   0  0  0  0  0  0  0  0  0  0  0  0
  -40.9880   59.7352   61.2469 C   0  0  0  0  0  0  0  0  0  0  0  0
  -39.9397   59.9022   60.1587 C   0  0  0  0  0  0  0  0  0  0  0  0
  -38.5249   60.0718   60.6868 C   0  0  0  0  0  0  0  0  0  0  0  0
  -38.4224   61.0069   61.8823 C   0  0  0  0  0  0  0  0  0  0  0  0
  -36.9933   61.2846   62.3311 C   0  0  0  0  0  0  0  0  0  0  0  0
  -36.8086   62.6421   62.9969 C   0  0  0  0  0  0  0  0  0  0  0  0
  -35.4099   63.2355   62.8486 C   0  0  0  0  0  0  0  0  0  0  0  0
  -35.2616   64.1908   61.6654 C   0  0  0  0  0  0  0  0  0  0  0  0
  -35.0089   65.6481   62.0510 C   0  0  0  0  0  0  0  0  0  0  0  0
  -33.9156   65.8181   63.1060 C   0  0  0  0  0  0  0  0  0  0  0  0
  -32.5250   66.1290   62.5528 C   0  0  0  0  0  0  0  0  0  0  0  0
  -31.3635   65.7386   63.4708 C   0  0  0  0  0  0  0  0  0  0  0  0
  -31.7344   64.6704   64.4585 C   0  0  0  0  0  0  0  0  0  0  0  0
  -31.5906   63.3681   64.2874 C   0  0  0  0  0  0  0  0  0  0  0  0
  -31.0254   62.6953   63.0733 C   0  0  0  0  0  0  0  0  0  0  0  0
  -32.0851   62.0424   62.1832 C   0  0  0  0  0  0  0  0  0  0  0  0
  -31.7358   60.6164   61.7784 C   0  0  0  0  0  0  0  0  0  0  0  0
  -32.0326   59.5892   62.8651 C   0  0  0  0  0  0  0  0  0  0  0  0
  -33.1996   59.9529   63.7759 C   0  0  0  0  0  0  0  0  0  0  0  0
  -34.2014   58.8232   63.9692 C   0  0  0  0  0  0  0  0  0  0  0  0
  -34.2421   57.8246   62.8233 C   0  0  0  0  0  0  0  0  0  0  0  0
  -35.3150   58.1430   61.8019 C   0  0  0  0  0  0  0  0  0  0  0  0
  -44.4008   58.9077   66.4060 O   0  0  0  0  0  0  0  0  0  0  0  0
  -44.5838   58.8031   64.9911 C   0  0  0  0  0  0  0  0  0  0  0  0
  -43.5164   59.2596   66.5925 H   0  0  0  0  0  0  0  0  0  0  0  0
  -45.9420   58.2617   64.6650 C   0  0  0  0  0  0  0  0  0  0  0  0
  -47.0766   58.7097   65.1651 C   0  0  0  0  0  0  0  0  0  0  0  0
  -48.4177   58.1578   64.8082 C   0  0  0  0  0  0  0  0  0  0  0  0
  -49.4207   58.3712   65.9437 C   0  0  0  0  0  0  0  0  0  0  0  0
  -50.8265   58.7130   65.4773 C   0  0  0  0  0  0  0  0  0  0  0  0
  -50.9010   59.9063   64.5401 C   0  0  0  0  0  0  0  0  0  0  0  0
  -51.0329   59.5320   63.0710 C   0  0  0  0  0  0  0  0  0  0  0  0
  -49.9163   60.0830   62.1977 C   0  0  0  0  0  0  0  0  0  0  0  0
  -49.6900   59.2910   60.9219 C   0  0  0  0  0  0  0  0  0  0  0  0
  -49.9292   57.7999   61.0694 C   0  0  0  0  0  0  0  0  0  0  0  0
  -49.4324   56.9774   59.8928 C   0  0  0  0  0  0  0  0  0  0  0  0
  -47.9913   57.2782   59.5250 C   0  0  0  0  0  0  0  0  0  0  0  0
  -47.8259   58.0948   58.2576 C   0  0  0  0  0  0  0  0  0  0  0  0
  -47.0519   57.3544   57.1845 C   0  0  0  0  0  0  0  0  0  0  0  0
  -47.3443   55.8682   57.1791 C   0  0  0  0  0  0  0  0  0  0  0  0
  -42.2938   57.7881   65.3535 C   0  0  0  0  0  0  0  0  0  0  0  0
  -41.8384   59.1040   65.6878 O   0  0  0  0  0  0  0  0  0  0  0  0
  -40.4295   61.3532   66.5807 O   0  0  0  0  0  0  0  0  0  0  0  0
  -37.4314   58.3155   66.0266 O   0  0  0  0  0  0  0  0  0  0  0  0
  -39.9483   58.3024   64.6327 O   0  0  0  0  0  0  0  0  0  0  0  0
  -40.6188   59.4568   65.1031 C   0  0  0  0  0  0  0  0  0  0  0  0
  -39.7767   60.1627   66.1581 C   0  0  0  0  0  0  0  0  0  0  0  0
  -38.4013   60.4888   65.5898 C   0  0  0  0  0  0  0  0  0  0  0  0
  -37.7461   59.2493   64.9986 C   0  0  0  0  0  0  0  0  0  0  0  0
  -38.6946   58.5968   63.9960 C   0  0  0  0  0  0  0  0  0  0  0  0
  -41.3030   61.1327   66.9402 H   0  0  0  0  0  0  0  0  0  0  0  0
  -36.8288   58.7282   66.6649 H   0  0  0  0  0  0  0  0  0  0  0  0
  -38.8094   56.9486   62.2185 O   0  0  0  0  0  0  0  0  0  0  0  0
  -38.1689   57.2935   63.4415 C   0  0  0  0  0  0  0  0  0  0  0  0
  -38.4499   56.1095   61.8906 H   0  0  0  0  0  0  0  0  0  0  0  0
  -37.6254   60.9489   66.7411 O   0  0  0  0  0  0  0  0  0  0  0  0
  -37.2610   63.1827   65.9138 O   0  0  0  0  0  0  0  0  0  0  0  0
  -35.3604   61.5442   66.0494 O   0  0  0  0  0  0  0  0  0  0  0  0
  -36.3274   62.5041   67.9935 O   0  0  0  0  0  0  0  0  0  0  0  0
  -36.5651   62.1121   66.5260 S   0  0  0  0  0  0  0  0  0  0  0  0
  -37.4286   62.9689   64.9826 H   0  0  0  0  0  0  0  0  0  0  0  0
  -37.1351   62.8992   68.3576 H   0  0  0  0  0  0  0  0  0  0  0  0
  2  1  1  0  0  0
  2  4  1  0  0  0
  2  5  1  0  0  0
 47 48  1  0  0  0
 47  1  1  0  0  0
 48 52  1  0  0  0
  1 30  1  0  0  0
 29 30  1  0  0  0
 29 31  1  0  0  0
 30 32  1  0  0  0
  3  4  2  0  0  0
 32 33  2  0  0  0
 49 53  1  0  0  0
 49 57  1  0  0  0
 33 34  1  0  0  0
 62 54  1  0  0  0
 62 66  1  0  0  0
 34 35  1  0  0  0
 50 55  1  0  0  0
 50 58  1  0  0  0
 35 36  1  0  0  0
 51 52  1  0  0  0
 51 56  1  0  0  0
 36 37  1  0  0  0
 59 60  1  0  0  0
 59 61  1  0  0  0
 37 38  1  0  0  0
 63 66  1  0  0  0
 63 67  1  0  0  0
 38 39  1  0  0  0
 64 66  1  0  0  0
 39 40  1  0  0  0
 65 66  1  0  0  0
 65 68  1  0  0  0
 40 41  1  0  0  0
 41 42  1  0  0  0
 42 43  1  0  0  0
 43 44  1  0  0  0
 44 45  1  0  0  0
 45 46  1  0  0  0
  4  6  1  0  0  0
  6  7  1  0  0  0
  7  8  1  0  0  0
  8  9  1  0  0  0
  9 10  1  0  0  0
 10 11  1  0  0  0
 11 12  1  0  0  0
 12 13  1  0  0  0
 13 14  1  0  0  0
 14 15  1  0  0  0
 15 16  1  0  0  0
 16 17  1  0  0  0
 17 18  1  0  0  0
 18 19  1  0  0  0
 19 20  2  0  0  0
 20 21  1  0  0  0
 21 22  1  0  0  0
 22 23  1  0  0  0
 23 24  1  0  0  0
 24 25  1  0  0  0
 25 26  1  0  0  0
 26 27  1  0  0  0
 27 28  1  0  0  0
 52 53  1  0  0  0
 53 54  1  0  0  0
 54 55  1  0  0  0
 55 56  1  0  0  0
 56 60  1  0  0  0
M  CHG 1  64  -1
M  END
> <minimizedAffinity>
-7.39881

> <CNNscore>
0.0730923638

> <CNNaffinity>
7.2423262596

> <CNN_VS>
0.5293587446

> <CNNaffinity_variance>
1.1801694632

$$$$
