/media/chris/experiments/cd1a-new-docking/inputs/ligands/7ryn_ligand.pdb


 68 68  0  0  0  0  0  0  0  0999 V2000
  -40.2048   59.5634   66.1359 C   0  0  0  0  0  0  0  0  0  0  0  0
  -40.0704   58.8398   64.8751 N   0  0  0  0  0  0  0  0  0  0  0  0
  -38.4416   57.4519   65.5740 O   0  0  0  0  0  0  0  0  0  0  0  0
  -39.2011   57.8423   64.6921 C   0  0  0  0  0  0  0  0  0  0  0  0
  -40.6493   59.0999   64.1225 H   0  0  0  0  0  0  0  0  0  0  0  0
  -39.2127   57.2098   63.3227 C   0  0  0  0  0  0  0  0  0  0  0  0
  -40.6188   57.0764   62.7521 C   0  0  0  0  0  0  0  0  0  0  0  0
  -41.2417   55.7195   63.0385 C   0  0  0  0  0  0  0  0  0  0  0  0
  -41.6875   55.5382   64.4799 C   0  0  0  0  0  0  0  0  0  0  0  0
  -42.4944   56.7066   65.0260 C   0  0  0  0  0  0  0  0  0  0  0  0
  -43.8887   56.8317   64.4250 C   0  0  0  0  0  0  0  0  0  0  0  0
  -44.2315   58.2376   63.9495 C   0  0  0  0  0  0  0  0  0  0  0  0
  -43.1781   58.8761   63.0478 C   0  0  0  0  0  0  0  0  0  0  0  0
  -43.1119   60.3990   63.1504 C   0  0  0  0  0  0  0  0  0  0  0  0
  -42.1610   61.0639   62.1553 C   0  0  0  0  0  0  0  0  0  0  0  0
  -41.6708   60.1197   61.0575 C   0  0  0  0  0  0  0  0  0  0  0  0
  -40.1586   60.1170   60.8337 C   0  0  0  0  0  0  0  0  0  0  0  0
  -39.6244   58.9138   60.0520 C   0  0  0  0  0  0  0  0  0  0  0  0
  -38.2247   59.1195   59.5495 C   0  0  0  0  0  0  0  0  0  0  0  0
  -37.1141   58.7687   60.1735 C   0  0  0  0  0  0  0  0  0  0  0  0
  -37.0285   58.0919   61.5078 C   0  0  0  0  0  0  0  0  0  0  0  0
  -35.5946   57.8229   61.9697 C   0  0  0  0  0  0  0  0  0  0  0  0
  -35.5051   57.3619   63.4184 C   0  0  0  0  0  0  0  0  0  0  0  0
  -35.2361   58.4977   64.3992 C   0  0  0  0  0  0  0  0  0  0  0  0
  -33.7985   58.5717   64.9006 C   0  0  0  0  0  0  0  0  0  0  0  0
  -32.7603   58.2507   63.8346 C   0  0  0  0  0  0  0  0  0  0  0  0
  -32.0741   59.4732   63.2461 C   0  0  0  0  0  0  0  0  0  0  0  0
  -32.4091   59.6905   61.7843 C   0  0  0  0  0  0  0  0  0  0  0  0
  -41.1395   61.7780   66.3740 O   0  0  0  0  0  0  0  0  0  0  0  0
  -41.4829   60.4166   66.1000 C   0  0  0  0  0  0  0  0  0  0  0  0
  -40.4786   62.0803   65.7317 H   0  0  0  0  0  0  0  0  0  0  0  0
  -42.5038   59.9149   67.0747 C   0  0  0  0  0  0  0  0  0  0  0  0
  -43.7251   59.5293   66.7620 C   0  0  0  0  0  0  0  0  0  0  0  0
  -44.7161   59.0192   67.7561 C   0  0  0  0  0  0  0  0  0  0  0  0
  -46.1146   58.9282   67.1421 C   0  0  0  0  0  0  0  0  0  0  0  0
  -46.5727   57.5101   66.8427 C   0  0  0  0  0  0  0  0  0  0  0  0
  -47.6513   57.4138   65.7773 C   0  0  0  0  0  0  0  0  0  0  0  0
  -48.4316   58.7035   65.5684 C   0  0  0  0  0  0  0  0  0  0  0  0
  -48.3776   59.2258   64.1410 C   0  0  0  0  0  0  0  0  0  0  0  0
  -49.7227   59.2205   63.4363 C   0  0  0  0  0  0  0  0  0  0  0  0
  -49.8330   58.1959   62.3226 C   0  0  0  0  0  0  0  0  0  0  0  0
  -49.3920   58.7135   60.9641 C   0  0  0  0  0  0  0  0  0  0  0  0
  -49.5549   57.6887   59.8571 C   0  0  0  0  0  0  0  0  0  0  0  0
  -48.2501   57.2081   59.2516 C   0  0  0  0  0  0  0  0  0  0  0  0
  -47.7692   58.0983   58.1224 C   0  0  0  0  0  0  0  0  0  0  0  0
  -47.4349   57.3162   56.8690 C   0  0  0  0  0  0  0  0  0  0  0  0
  -38.9685   60.4015   66.3881 C   0  0  0  0  0  0  0  0  0  0  0  0
  -38.4660   60.8543   65.1258 O   0  0  0  0  0  0  0  0  0  0  0  0
  -36.9381   61.0761   62.7897 O   0  0  0  0  0  0  0  0  0  0  0  0
  -36.2107   64.7321   64.9407 O   0  0  0  0  0  0  0  0  0  0  0  0
  -37.0421   62.2977   66.2292 O   0  0  0  0  0  0  0  0  0  0  0  0
  -37.1650   61.3632   65.1732 C   0  0  0  0  0  0  0  0  0  0  0  0
  -36.8722   62.0349   63.8378 C   0  0  0  0  0  0  0  0  0  0  0  0
  -35.4934   62.6817   63.8747 C   0  0  0  0  0  0  0  0  0  0  0  0
  -35.3539   63.6030   65.0777 C   0  0  0  0  0  0  0  0  0  0  0  0
  -35.7186   62.8430   66.3505 C   0  0  0  0  0  0  0  0  0  0  0  0
  -37.8197   60.6717   62.7764 H   0  0  0  0  0  0  0  0  0  0  0  0
  -35.9807   65.2165   64.1325 H   0  0  0  0  0  0  0  0  0  0  0  0
  -36.3715   63.0785   68.6758 O   0  0  0  0  0  0  0  0  0  0  0  0
  -35.7157   63.7143   67.5847 C   0  0  0  0  0  0  0  0  0  0  0  0
  -36.3519   63.6628   69.4497 H   0  0  0  0  0  0  0  0  0  0  0  0
  -35.4223   63.4706   62.6451 O   0  0  0  0  0  0  0  0  0  0  0  0
  -33.0199   63.2831   62.6189 O   0  0  0  0  0  0  0  0  0  0  0  0
  -34.1250   65.5385   62.7089 O   0  0  0  0  0  0  0  0  0  0  0  0
  -34.1746   64.1968   60.7509 O   0  0  0  0  0  0  0  0  0  0  0  0
  -34.0534   64.1913   62.2837 S   0  0  0  0  0  0  0  0  0  0  0  0
  -32.9153   63.2540   63.5828 H   0  0  0  0  0  0  0  0  0  0  0  0
  -34.1298   63.2862   60.4197 H   0  0  0  0  0  0  0  0  0  0  0  0
  2  1  1  0  0  0
  2  4  1  0  0  0
  2  5  1  0  0  0
 47 48  1  0  0  0
 47  1  1  0  0  0
 48 52  1  0  0  0
  1 30  1  0  0  0
 29 30  1  0  0  0
 29 31  1  0  0  0
 30 32  1  0  0  0
  3  4  2  0  0  0
 32 33  2  0  0  0
 49 53  1  0  0  0
 49 57  1  0  0  0
 33 34  1  0  0  0
 62 54  1  0  0  0
 62 66  1  0  0  0
 34 35  1  0  0  0
 50 55  1  0  0  0
 50 58  1  0  0  0
 35 36  1  0  0  0
 51 52  1  0  0  0
 51 56  1  0  0  0
 36 37  1  0  0  0
 59 60  1  0  0  0
 59 61  1  0  0  0
 37 38  1  0  0  0
 63 66  1  0  0  0
 63 67  1  0  0  0
 38 39  1  0  0  0
 64 66  1  0  0  0
 39 40  1  0  0  0
 65 66  1  0  0  0
 65 68  1  0  0  0
 40 41  1  0  0  0
 41 42  1  0  0  0
 42 43  1  0  0  0
 43 44  1  0  0  0
 44 45  1  0  0  0
 45 46  1  0  0  0
  4  6  1  0  0  0
  6  7  1  0  0  0
  7  8  1  0  0  0
  8  9  1  0  0  0
  9 10  1  0  0  0
 10 11  1  0  0  0
 11 12  1  0  0  0
 12 13  1  0  0  0
 13 14  1  0  0  0
 14 15  1  0  0  0
 15 16  1  0  0  0
 16 17  1  0  0  0
 17 18  1  0  0  0
 18 19  1  0  0  0
 19 20  2  0  0  0
 20 21  1  0  0  0
 21 22  1  0  0  0
 22 23  1  0  0  0
 23 24  1  0  0  0
 24 25  1  0  0  0
 25 26  1  0  0  0
 26 27  1  0  0  0
 27 28  1  0  0  0
 52 53  1  0  0  0
 53 54  1  0  0  0
 54 55  1  0  0  0
 55 56  1  0  0  0
 56 60  1  0  0  0
M  CHG 1  64  -1
M  END
> <minimizedAffinity>
-8.93141

> <CNNscore>
0.1219619066

> <CNNaffinity>
7.5685896873

> <CNN_VS>
0.9230796099

> <CNNaffinity_variance>
1.8103030920

$$$$
/media/chris/experiments/cd1a-new-docking/inputs/ligands/7ryn_ligand.pdb


 68 68  0  0  0  0  0  0  0  0999 V2000
  -36.4075   59.0739   63.8433 C   0  0  0  0  0  0  0  0  0  0  0  0
  -37.3630   59.2000   64.9398 N   0  0  0  0  0  0  0  0  0  0  0  0
  -37.8408   61.3712   64.5857 O   0  0  0  0  0  0  0  0  0  0  0  0
  -38.0043   60.3364   65.2255 C   0  0  0  0  0  0  0  0  0  0  0  0
  -37.5437   58.4082   65.4962 H   0  0  0  0  0  0  0  0  0  0  0  0
  -38.9595   60.2710   66.3911 C   0  0  0  0  0  0  0  0  0  0  0  0
  -40.3315   59.7414   65.9939 C   0  0  0  0  0  0  0  0  0  0  0  0
  -41.4680   60.6005   66.5245 C   0  0  0  0  0  0  0  0  0  0  0  0
  -42.5492   59.8142   67.2469 C   0  0  0  0  0  0  0  0  0  0  0  0
  -42.4961   58.3157   66.9897 C   0  0  0  0  0  0  0  0  0  0  0  0
  -43.8647   57.6639   66.8386 C   0  0  0  0  0  0  0  0  0  0  0  0
  -44.9020   58.5557   66.1685 C   0  0  0  0  0  0  0  0  0  0  0  0
  -46.2278   58.6594   66.9184 C   0  0  0  0  0  0  0  0  0  0  0  0
  -47.0682   57.3842   66.8753 C   0  0  0  0  0  0  0  0  0  0  0  0
  -48.3352   57.4845   66.0261 C   0  0  0  0  0  0  0  0  0  0  0  0
  -48.9415   58.8877   66.0005 C   0  0  0  0  0  0  0  0  0  0  0  0
  -50.4630   58.9329   65.8603 C   0  0  0  0  0  0  0  0  0  0  0  0
  -50.9738   59.6263   64.5944 C   0  0  0  0  0  0  0  0  0  0  0  0
  -49.9133   59.7744   63.5422 C   0  0  0  0  0  0  0  0  0  0  0  0
  -49.8810   59.1531   62.3765 C   0  0  0  0  0  0  0  0  0  0  0  0
  -50.8988   58.1772   61.8689 C   0  0  0  0  0  0  0  0  0  0  0  0
  -50.4914   57.4864   60.5657 C   0  0  0  0  0  0  0  0  0  0  0  0
  -48.9879   57.4961   60.3235 C   0  0  0  0  0  0  0  0  0  0  0  0
  -48.4225   56.1238   59.9750 C   0  0  0  0  0  0  0  0  0  0  0  0
  -47.2985   56.1470   58.9455 C   0  0  0  0  0  0  0  0  0  0  0  0
  -47.7806   56.0068   57.5085 C   0  0  0  0  0  0  0  0  0  0  0  0
  -47.9075   57.3259   56.7631 C   0  0  0  0  0  0  0  0  0  0  0  0
  -46.7969   58.3010   57.0975 C   0  0  0  0  0  0  0  0  0  0  0  0
  -35.2681   57.1879   62.8536 O   0  0  0  0  0  0  0  0  0  0  0  0
  -36.5644   57.6928   63.1870 C   0  0  0  0  0  0  0  0  0  0  0  0
  -34.7190   57.1542   63.6523 H   0  0  0  0  0  0  0  0  0  0  0  0
  -37.4418   57.7589   61.9747 C   0  0  0  0  0  0  0  0  0  0  0  0
  -37.6317   58.8328   61.2340 C   0  0  0  0  0  0  0  0  0  0  0  0
  -38.5023   58.8628   60.0208 C   0  0  0  0  0  0  0  0  0  0  0  0
  -39.6663   59.8390   60.2030 C   0  0  0  0  0  0  0  0  0  0  0  0
  -41.0403   59.2004   60.0803 C   0  0  0  0  0  0  0  0  0  0  0  0
  -41.0259   57.7921   59.5107 C   0  0  0  0  0  0  0  0  0  0  0  0
  -41.5777   56.7361   60.4573 C   0  0  0  0  0  0  0  0  0  0  0  0
  -40.6342   56.3848   61.5973 C   0  0  0  0  0  0  0  0  0  0  0  0
  -41.3325   55.7925   62.8088 C   0  0  0  0  0  0  0  0  0  0  0  0
  -41.4722   56.7548   63.9736 C   0  0  0  0  0  0  0  0  0  0  0  0
  -41.6412   58.2057   63.5564 C   0  0  0  0  0  0  0  0  0  0  0  0
  -43.0891   58.5881   63.3118 C   0  0  0  0  0  0  0  0  0  0  0  0
  -43.2978   60.0424   62.9354 C   0  0  0  0  0  0  0  0  0  0  0  0
  -42.0029   60.8307   62.9161 C   0  0  0  0  0  0  0  0  0  0  0  0
  -42.1939   62.2710   63.3444 C   0  0  0  0  0  0  0  0  0  0  0  0
  -34.9996   59.3053   64.3518 C   0  0  0  0  0  0  0  0  0  0  0  0
  -34.3233   60.1667   63.4292 O   0  0  0  0  0  0  0  0  0  0  0  0
  -32.6381   61.8233   61.9268 O   0  0  0  0  0  0  0  0  0  0  0  0
  -34.9691   64.5145   64.3447 O   0  0  0  0  0  0  0  0  0  0  0  0
  -34.4834   61.7749   65.0774 O   0  0  0  0  0  0  0  0  0  0  0  0
  -33.6902   61.2625   64.0229 C   0  0  0  0  0  0  0  0  0  0  0  0
  -33.4856   62.3262   62.9520 C   0  0  0  0  0  0  0  0  0  0  0  0
  -32.8762   63.5764   63.5737 C   0  0  0  0  0  0  0  0  0  0  0  0
  -33.6928   64.0464   64.7685 C   0  0  0  0  0  0  0  0  0  0  0  0
  -33.8780   62.8912   65.7492 C   0  0  0  0  0  0  0  0  0  0  0  0
  -33.0363   61.0283   61.5391 H   0  0  0  0  0  0  0  0  0  0  0  0
  -34.8537   65.2486   63.7213 H   0  0  0  0  0  0  0  0  0  0  0  0
  -34.1893   64.2348   67.7459 O   0  0  0  0  0  0  0  0  0  0  0  0
  -34.7741   63.2387   66.9148 C   0  0  0  0  0  0  0  0  0  0  0  0
  -34.7883   64.4340   68.4822 H   0  0  0  0  0  0  0  0  0  0  0  0
  -32.9374   64.5832   62.5144 O   0  0  0  0  0  0  0  0  0  0  0  0
  -30.7481   64.1327   61.6137 O   0  0  0  0  0  0  0  0  0  0  0  0
  -31.2032   66.2677   62.8590 O   0  0  0  0  0  0  0  0  0  0  0  0
  -32.0924   65.8663   60.6945 O   0  0  0  0  0  0  0  0  0  0  0  0
  -31.5781   65.2165   61.9897 S   0  0  0  0  0  0  0  0  0  0  0  0
  -30.4044   63.6975   62.4096 H   0  0  0  0  0  0  0  0  0  0  0  0
  -32.3606   65.1742   60.0700 H   0  0  0  0  0  0  0  0  0  0  0  0
  2  1  1  0  0  0
  2  4  1  0  0  0
  2  5  1  0  0  0
 47 48  1  0  0  0
 47  1  1  0  0  0
 48 52  1  0  0  0
  1 30  1  0  0  0
 29 30  1  0  0  0
 29 31  1  0  0  0
 30 32  1  0  0  0
  3  4  2  0  0  0
 32 33  2  0  0  0
 49 53  1  0  0  0
 49 57  1  0  0  0
 33 34  1  0  0  0
 62 54  1  0  0  0
 62 66  1  0  0  0
 34 35  1  0  0  0
 50 55  1  0  0  0
 50 58  1  0  0  0
 35 36  1  0  0  0
 51 52  1  0  0  0
 51 56  1  0  0  0
 36 37  1  0  0  0
 59 60  1  0  0  0
 59 61  1  0  0  0
 37 38  1  0  0  0
 63 66  1  0  0  0
 63 67  1  0  0  0
 38 39  1  0  0  0
 64 66  1  0  0  0
 39 40  1  0  0  0
 65 66  1  0  0  0
 65 68  1  0  0  0
 40 41  1  0  0  0
 41 42  1  0  0  0
 42 43  1  0  0  0
 43 44  1  0  0  0
 44 45  1  0  0  0
 45 46  1  0  0  0
  4  6  1  0  0  0
  6  7  1  0  0  0
  7  8  1  0  0  0
  8  9  1  0  0  0
  9 10  1  0  0  0
 10 11  1  0  0  0
 11 12  1  0  0  0
 12 13  1  0  0  0
 13 14  1  0  0  0
 14 15  1  0  0  0
 15 16  1  0  0  0
 16 17  1  0  0  0
 17 18  1  0  0  0
 18 19  1  0  0  0
 19 20  2  0  0  0
 20 21  1  0  0  0
 21 22  1  0  0  0
 22 23  1  0  0  0
 23 24  1  0  0  0
 24 25  1  0  0  0
 25 26  1  0  0  0
 26 27  1  0  0  0
 27 28  1  0  0  0
 52 53  1  0  0  0
 53 54  1  0  0  0
 54 55  1  0  0  0
 55 56  1  0  0  0
 56 60  1  0  0  0
M  CHG 1  64  -1
M  END
> <minimizedAffinity>
-9.22232

> <CNNscore>
0.1144138575

> <CNNaffinity>
7.3112401962

> <CNN_VS>
0.8365072012

> <CNNaffinity_variance>
1.8912175894

$$$$
/media/chris/experiments/cd1a-new-docking/inputs/ligands/7ryn_ligand.pdb


 68 68  0  0  0  0  0  0  0  0999 V2000
  -36.5928   57.9264   63.0948 C   0  0  0  0  0  0  0  0  0  0  0  0
  -37.0689   58.9642   64.0045 N   0  0  0  0  0  0  0  0  0  0  0  0
  -38.2252   57.5813   65.3529 O   0  0  0  0  0  0  0  0  0  0  0  0
  -37.8465   58.7119   65.0608 C   0  0  0  0  0  0  0  0  0  0  0  0
  -36.8035   59.8962   63.8308 H   0  0  0  0  0  0  0  0  0  0  0  0
  -38.2311   59.9124   65.8893 C   0  0  0  0  0  0  0  0  0  0  0  0
  -39.6302   60.4215   65.5671 C   0  0  0  0  0  0  0  0  0  0  0  0
  -40.7179   59.4327   65.9549 C   0  0  0  0  0  0  0  0  0  0  0  0
  -41.9362   60.0767   66.5954 C   0  0  0  0  0  0  0  0  0  0  0  0
  -43.0076   59.0823   67.0171 C   0  0  0  0  0  0  0  0  0  0  0  0
  -42.7997   57.6768   66.4672 C   0  0  0  0  0  0  0  0  0  0  0  0
  -43.7813   57.2933   65.3674 C   0  0  0  0  0  0  0  0  0  0  0  0
  -45.0019   58.2041   65.2615 C   0  0  0  0  0  0  0  0  0  0  0  0
  -46.2132   57.7155   66.0542 C   0  0  0  0  0  0  0  0  0  0  0  0
  -46.8078   58.7489   67.0107 C   0  0  0  0  0  0  0  0  0  0  0  0
  -48.1801   59.2630   66.5753 C   0  0  0  0  0  0  0  0  0  0  0  0
  -48.1983   60.0098   65.2416 C   0  0  0  0  0  0  0  0  0  0  0  0
  -49.5210   59.9285   64.4748 C   0  0  0  0  0  0  0  0  0  0  0  0
  -49.3641   60.2141   63.0093 C   0  0  0  0  0  0  0  0  0  0  0  0
  -49.9645   59.5725   62.0225 C   0  0  0  0  0  0  0  0  0  0  0  0
  -50.9258   58.4320   62.1682 C   0  0  0  0  0  0  0  0  0  0  0  0
  -50.9337   57.4782   60.9715 C   0  0  0  0  0  0  0  0  0  0  0  0
  -49.6688   57.5607   60.1274 C   0  0  0  0  0  0  0  0  0  0  0  0
  -48.9255   56.2340   60.0200 C   0  0  0  0  0  0  0  0  0  0  0  0
  -47.6197   56.3034   59.2366 C   0  0  0  0  0  0  0  0  0  0  0  0
  -47.7847   56.0430   57.7460 C   0  0  0  0  0  0  0  0  0  0  0  0
  -47.8479   57.3030   56.8973 C   0  0  0  0  0  0  0  0  0  0  0  0
  -46.6440   58.2031   57.0881 C   0  0  0  0  0  0  0  0  0  0  0  0
  -35.2983   57.0146   64.9190 O   0  0  0  0  0  0  0  0  0  0  0  0
  -35.2096   57.4398   63.5560 C   0  0  0  0  0  0  0  0  0  0  0  0
  -35.9753   56.3246   64.9990 H   0  0  0  0  0  0  0  0  0  0  0  0
  -34.1714   58.5076   63.3943 C   0  0  0  0  0  0  0  0  0  0  0  0
  -32.8945   58.2921   63.1474 C   0  0  0  0  0  0  0  0  0  0  0  0
  -31.8856   59.3800   62.9764 C   0  0  0  0  0  0  0  0  0  0  0  0
  -32.5168   60.6211   62.3421 C   0  0  0  0  0  0  0  0  0  0  0  0
  -31.5115   61.6543   61.8601 C   0  0  0  0  0  0  0  0  0  0  0  0
  -32.1370   62.9123   61.2823 C   0  0  0  0  0  0  0  0  0  0  0  0
  -31.3825   64.1899   61.6203 C   0  0  0  0  0  0  0  0  0  0  0  0
  -32.2891   65.3766   61.9087 C   0  0  0  0  0  0  0  0  0  0  0  0
  -33.7626   65.0912   61.6774 C   0  0  0  0  0  0  0  0  0  0  0  0
  -34.6714   65.6006   62.7806 C   0  0  0  0  0  0  0  0  0  0  0  0
  -35.1185   64.5248   63.7556 C   0  0  0  0  0  0  0  0  0  0  0  0
  -34.1821   64.3706   64.9395 C   0  0  0  0  0  0  0  0  0  0  0  0
  -33.3710   63.0890   64.9337 C   0  0  0  0  0  0  0  0  0  0  0  0
  -34.1994   61.8737   65.3019 C   0  0  0  0  0  0  0  0  0  0  0  0
  -35.1953   62.1631   66.4059 C   0  0  0  0  0  0  0  0  0  0  0  0
  -36.5662   58.4526   61.6747 C   0  0  0  0  0  0  0  0  0  0  0  0
  -37.7973   58.0929   61.0378 O   0  0  0  0  0  0  0  0  0  0  0  0
  -39.1289   60.5063   61.5315 O   0  0  0  0  0  0  0  0  0  0  0  0
  -42.2603   57.6089   60.9638 O   0  0  0  0  0  0  0  0  0  0  0  0
  -39.6087   56.8984   61.8253 O   0  0  0  0  0  0  0  0  0  0  0  0
  -38.9129   58.1298   61.8792 C   0  0  0  0  0  0  0  0  0  0  0  0
  -39.8154   59.2663   61.4164 C   0  0  0  0  0  0  0  0  0  0  0  0
  -41.0890   59.2892   62.2520 C   0  0  0  0  0  0  0  0  0  0  0  0
  -41.7623   57.9247   62.2599 C   0  0  0  0  0  0  0  0  0  0  0  0
  -40.7564   56.8592   62.6885 C   0  0  0  0  0  0  0  0  0  0  0  0
  -38.3208   60.4794   60.9957 H   0  0  0  0  0  0  0  0  0  0  0  0
  -42.8996   58.2848   60.6895 H   0  0  0  0  0  0  0  0  0  0  0  0
  -41.7012   54.9806   63.8997 O   0  0  0  0  0  0  0  0  0  0  0  0
  -41.3103   55.4555   62.6166 C   0  0  0  0  0  0  0  0  0  0  0  0
  -42.0512   54.0797   63.8182 H   0  0  0  0  0  0  0  0  0  0  0  0
  -41.9552   60.2567   61.5789 O   0  0  0  0  0  0  0  0  0  0  0  0
  -43.5097   60.7334   63.3576 O   0  0  0  0  0  0  0  0  0  0  0  0
  -43.0181   62.4552   61.5942 O   0  0  0  0  0  0  0  0  0  0  0  0
  -41.4217   61.8675   63.2502 O   0  0  0  0  0  0  0  0  0  0  0  0
  -42.6454   61.3922   62.4498 S   0  0  0  0  0  0  0  0  0  0  0  0
  -44.2961   60.4188   62.8848 H   0  0  0  0  0  0  0  0  0  0  0  0
  -41.1348   61.1624   63.8514 H   0  0  0  0  0  0  0  0  0  0  0  0
  2  1  1  0  0  0
  2  4  1  0  0  0
  2  5  1  0  0  0
 47 48  1  0  0  0
 47  1  1  0  0  0
 48 52  1  0  0  0
  1 30  1  0  0  0
 29 30  1  0  0  0
 29 31  1  0  0  0
 30 32  1  0  0  0
  3  4  2  0  0  0
 32 33  2  0  0  0
 49 53  1  0  0  0
 49 57  1  0  0  0
 33 34  1  0  0  0
 62 54  1  0  0  0
 62 66  1  0  0  0
 34 35  1  0  0  0
 50 55  1  0  0  0
 50 58  1  0  0  0
 35 36  1  0  0  0
 51 52  1  0  0  0
 51 56  1  0  0  0
 36 37  1  0  0  0
 59 60  1  0  0  0
 59 61  1  0  0  0
 37 38  1  0  0  0
 63 66  1  0  0  0
 63 67  1  0  0  0
 38 39  1  0  0  0
 64 66  1  0  0  0
 39 40  1  0  0  0
 65 66  1  0  0  0
 65 68  1  0  0  0
 40 41  1  0  0  0
 41 42  1  0  0  0
 42 43  1  0  0  0
 43 44  1  0  0  0
 44 45  1  0  0  0
 45 46  1  0  0  0
  4  6  1  0  0  0
  6  7  1  0  0  0
  7  8  1  0  0  0
  8  9  1  0  0  0
  9 10  1  0  0  0
 10 11  1  0  0  0
 11 12  1  0  0  0
 12 13  1  0  0  0
 13 14  1  0  0  0
 14 15  1  0  0  0
 15 16  1  0  0  0
 16 17  1  0  0  0
 17 18  1  0  0  0
 18 19  1  0  0  0
 19 20  2  0  0  0
 20 21  1  0  0  0
 21 22  1  0  0  0
 22 23  1  0  0  0
 23 24  1  0  0  0
 24 25  1  0  0  0
 25 26  1  0  0  0
 26 27  1  0  0  0
 27 28  1  0  0  0
 52 53  1  0  0  0
 53 54  1  0  0  0
 54 55  1  0  0  0
 55 56  1  0  0  0
 56 60  1  0  0  0
M  CHG 1  64  -1
M  END
> <minimizedAffinity>
-8.94491

> <CNNscore>
0.1070112735

> <CNNaffinity>
7.0249013901

> <CNN_VS>
0.7517436147

> <CNNaffinity_variance>
2.2422311306

$$$$
/media/chris/experiments/cd1a-new-docking/inputs/ligands/7ryn_ligand.pdb


 68 68  0  0  0  0  0  0  0  0999 V2000
  -38.5761   60.4054   61.1916 C   0  0  0  0  0  0  0  0  0  0  0  0
  -40.0291   60.4286   61.3311 N   0  0  0  0  0  0  0  0  0  0  0  0
  -40.0471   61.0737   63.4878 O   0  0  0  0  0  0  0  0  0  0  0  0
  -40.6508   60.7602   62.4659 C   0  0  0  0  0  0  0  0  0  0  0  0
  -40.5780   60.1880   60.5500 H   0  0  0  0  0  0  0  0  0  0  0  0
  -42.1582   60.7342   62.4156 C   0  0  0  0  0  0  0  0  0  0  0  0
  -42.7317   61.8119   61.5045 C   0  0  0  0  0  0  0  0  0  0  0  0
  -43.0915   63.0840   62.2551 C   0  0  0  0  0  0  0  0  0  0  0  0
  -43.3965   62.8652   63.7276 C   0  0  0  0  0  0  0  0  0  0  0  0
  -42.6239   63.7867   64.6595 C   0  0  0  0  0  0  0  0  0  0  0  0
  -42.3280   63.1805   66.0255 C   0  0  0  0  0  0  0  0  0  0  0  0
  -41.3100   62.0480   65.9903 C   0  0  0  0  0  0  0  0  0  0  0  0
  -41.8579   60.6898   66.4210 C   0  0  0  0  0  0  0  0  0  0  0  0
  -40.7835   59.6245   66.6335 C   0  0  0  0  0  0  0  0  0  0  0  0
  -40.8508   58.4486   65.6593 C   0  0  0  0  0  0  0  0  0  0  0  0
  -39.4831   58.0181   65.1289 C   0  0  0  0  0  0  0  0  0  0  0  0
  -38.3032   58.8507   65.6304 C   0  0  0  0  0  0  0  0  0  0  0  0
  -36.9669   58.5544   64.9443 C   0  0  0  0  0  0  0  0  0  0  0  0
  -37.0408   57.3873   64.0029 C   0  0  0  0  0  0  0  0  0  0  0  0
  -36.3166   57.2214   62.9102 C   0  0  0  0  0  0  0  0  0  0  0  0
  -35.2731   58.1642   62.3923 C   0  0  0  0  0  0  0  0  0  0  0  0
  -33.8435   57.6374   62.5352 C   0  0  0  0  0  0  0  0  0  0  0  0
  -33.0218   58.3982   63.5675 C   0  0  0  0  0  0  0  0  0  0  0  0
  -31.8246   59.1281   62.9690 C   0  0  0  0  0  0  0  0  0  0  0  0
  -32.1880   60.2729   62.0303 C   0  0  0  0  0  0  0  0  0  0  0  0
  -31.5256   61.5951   62.3913 C   0  0  0  0  0  0  0  0  0  0  0  0
  -30.8166   62.2734   61.2298 C   0  0  0  0  0  0  0  0  0  0  0  0
  -31.2681   63.7044   61.0184 C   0  0  0  0  0  0  0  0  0  0  0  0
  -37.5678   59.2859   59.3034 O   0  0  0  0  0  0  0  0  0  0  0  0
  -38.1432   59.0573   60.5931 C   0  0  0  0  0  0  0  0  0  0  0  0
  -36.8264   59.9058   59.3855 H   0  0  0  0  0  0  0  0  0  0  0  0
  -39.2940   58.1024   60.5047 C   0  0  0  0  0  0  0  0  0  0  0  0
  -39.8024   57.4321   61.5197 C   0  0  0  0  0  0  0  0  0  0  0  0
  -40.9614   56.4974   61.4018 C   0  0  0  0  0  0  0  0  0  0  0  0
  -41.6720   56.3298   62.7464 C   0  0  0  0  0  0  0  0  0  0  0  0
  -42.7240   57.3893   63.0315 C   0  0  0  0  0  0  0  0  0  0  0  0
  -43.4924   57.1746   64.3244 C   0  0  0  0  0  0  0  0  0  0  0  0
  -44.5840   58.2051   64.5738 C   0  0  0  0  0  0  0  0  0  0  0  0
  -45.4345   57.9095   65.7996 C   0  0  0  0  0  0  0  0  0  0  0  0
  -46.5855   58.8807   65.9943 C   0  0  0  0  0  0  0  0  0  0  0  0
  -47.5055   58.9976   64.7934 C   0  0  0  0  0  0  0  0  0  0  0  0
  -48.4273   60.2042   64.8394 C   0  0  0  0  0  0  0  0  0  0  0  0
  -49.3052   60.3276   63.6080 C   0  0  0  0  0  0  0  0  0  0  0  0
  -50.7555   59.9446   63.8318 C   0  0  0  0  0  0  0  0  0  0  0  0
  -51.2278   58.8671   62.8755 C   0  0  0  0  0  0  0  0  0  0  0  0
  -50.0850   58.2183   62.1221 C   0  0  0  0  0  0  0  0  0  0  0  0
  -37.9213   60.6691   62.5317 C   0  0  0  0  0  0  0  0  0  0  0  0
  -37.0974   61.8340   62.4090 O   0  0  0  0  0  0  0  0  0  0  0  0
  -34.7979   63.4024   62.1035 O   0  0  0  0  0  0  0  0  0  0  0  0
  -36.4445   64.5784   65.9019 O   0  0  0  0  0  0  0  0  0  0  0  0
  -36.9483   62.0106   64.7057 O   0  0  0  0  0  0  0  0  0  0  0  0
  -36.2309   62.0422   63.4859 C   0  0  0  0  0  0  0  0  0  0  0  0
  -35.5656   63.3999   63.3004 C   0  0  0  0  0  0  0  0  0  0  0  0
  -34.6761   63.7086   64.4980 C   0  0  0  0  0  0  0  0  0  0  0  0
  -35.4468   63.5672   65.8023 C   0  0  0  0  0  0  0  0  0  0  0  0
  -36.1113   62.1939   65.8588 C   0  0  0  0  0  0  0  0  0  0  0  0
  -35.3746   63.2049   61.3490 H   0  0  0  0  0  0  0  0  0  0  0  0
  -36.0243   65.4519   65.8661 H   0  0  0  0  0  0  0  0  0  0  0  0
  -36.4422   62.6462   68.2199 O   0  0  0  0  0  0  0  0  0  0  0  0
  -36.9918   62.0090   67.0725 C   0  0  0  0  0  0  0  0  0  0  0  0
  -37.0302   62.5086   68.9789 H   0  0  0  0  0  0  0  0  0  0  0  0
  -34.2802   65.1046   64.3140 O   0  0  0  0  0  0  0  0  0  0  0  0
  -32.6803   66.0269   65.8623 O   0  0  0  0  0  0  0  0  0  0  0  0
  -32.2708   66.1356   63.3851 O   0  0  0  0  0  0  0  0  0  0  0  0
  -32.1416   64.0925   64.5874 O   0  0  0  0  0  0  0  0  0  0  0  0
  -32.7597   65.4999   64.5504 S   0  0  0  0  0  0  0  0  0  0  0  0
  -33.0629   66.9182   65.8764 H   0  0  0  0  0  0  0  0  0  0  0  0
  -32.4546   63.6225   65.3761 H   0  0  0  0  0  0  0  0  0  0  0  0
  2  1  1  0  0  0
  2  4  1  0  0  0
  2  5  1  0  0  0
 47 48  1  0  0  0
 47  1  1  0  0  0
 48 52  1  0  0  0
  1 30  1  0  0  0
 29 30  1  0  0  0
 29 31  1  0  0  0
 30 32  1  0  0  0
  3  4  2  0  0  0
 32 33  2  0  0  0
 49 53  1  0  0  0
 49 57  1  0  0  0
 33 34  1  0  0  0
 62 54  1  0  0  0
 62 66  1  0  0  0
 34 35  1  0  0  0
 50 55  1  0  0  0
 50 58  1  0  0  0
 35 36  1  0  0  0
 51 52  1  0  0  0
 51 56  1  0  0  0
 36 37  1  0  0  0
 59 60  1  0  0  0
 59 61  1  0  0  0
 37 38  1  0  0  0
 63 66  1  0  0  0
 63 67  1  0  0  0
 38 39  1  0  0  0
 64 66  1  0  0  0
 39 40  1  0  0  0
 65 66  1  0  0  0
 65 68  1  0  0  0
 40 41  1  0  0  0
 41 42  1  0  0  0
 42 43  1  0  0  0
 43 44  1  0  0  0
 44 45  1  0  0  0
 45 46  1  0  0  0
  4  6  1  0  0  0
  6  7  1  0  0  0
  7  8  1  0  0  0
  8  9  1  0  0  0
  9 10  1  0  0  0
 10 11  1  0  0  0
 11 12  1  0  0  0
 12 13  1  0  0  0
 13 14  1  0  0  0
 14 15  1  0  0  0
 15 16  1  0  0  0
 16 17  1  0  0  0
 17 18  1  0  0  0
 18 19  1  0  0  0
 19 20  2  0  0  0
 20 21  1  0  0  0
 21 22  1  0  0  0
 22 23  1  0  0  0
 23 24  1  0  0  0
 24 25  1  0  0  0
 25 26  1  0  0  0
 26 27  1  0  0  0
 27 28  1  0  0  0
 52 53  1  0  0  0
 53 54  1  0  0  0
 54 55  1  0  0  0
 55 56  1  0  0  0
 56 60  1  0  0  0
M  CHG 1  64  -1
M  END
> <minimizedAffinity>
-7.26158

> <CNNscore>
0.1059627980

> <CNNaffinity>
7.2660856247

> <CNN_VS>
0.7699347734

> <CNNaffinity_variance>
1.4680927992

$$$$
/media/chris/experiments/cd1a-new-docking/inputs/ligands/7ryn_ligand.pdb


 68 68  0  0  0  0  0  0  0  0999 V2000
  -33.5979   60.7757   63.1999 C   0  0  0  0  0  0  0  0  0  0  0  0
  -34.9177   61.0533   63.7586 N   0  0  0  0  0  0  0  0  0  0  0  0
  -34.2104   61.4066   65.8663 O   0  0  0  0  0  0  0  0  0  0  0  0
  -35.1214   61.3466   65.0457 C   0  0  0  0  0  0  0  0  0  0  0  0
  -35.6963   61.0228   63.1568 H   0  0  0  0  0  0  0  0  0  0  0  0
  -36.5544   61.6109   65.4357 C   0  0  0  0  0  0  0  0  0  0  0  0
  -37.5369   60.7099   64.6985 C   0  0  0  0  0  0  0  0  0  0  0  0
  -38.2716   59.7582   65.6289 C   0  0  0  0  0  0  0  0  0  0  0  0
  -39.1820   58.7755   64.9115 C   0  0  0  0  0  0  0  0  0  0  0  0
  -40.4436   58.4268   65.6869 C   0  0  0  0  0  0  0  0  0  0  0  0
  -41.1813   59.6365   66.2468 C   0  0  0  0  0  0  0  0  0  0  0  0
  -42.5918   59.3285   66.7324 C   0  0  0  0  0  0  0  0  0  0  0  0
  -42.9691   57.8499   66.6862 C   0  0  0  0  0  0  0  0  0  0  0  0
  -43.9915   57.5023   65.6054 C   0  0  0  0  0  0  0  0  0  0  0  0
  -45.2492   58.3708   65.6150 C   0  0  0  0  0  0  0  0  0  0  0  0
  -46.1948   58.0603   66.7754 C   0  0  0  0  0  0  0  0  0  0  0  0
  -47.5838   58.6889   66.6646 C   0  0  0  0  0  0  0  0  0  0  0  0
  -48.6159   57.8442   65.9128 C   0  0  0  0  0  0  0  0  0  0  0  0
  -49.8318   58.6288   65.5129 C   0  0  0  0  0  0  0  0  0  0  0  0
  -50.0707   59.1391   64.3177 C   0  0  0  0  0  0  0  0  0  0  0  0
  -49.1766   59.0346   63.1195 C   0  0  0  0  0  0  0  0  0  0  0  0
  -49.7564   59.6848   61.8614 C   0  0  0  0  0  0  0  0  0  0  0  0
  -49.9332   58.7085   60.7060 C   0  0  0  0  0  0  0  0  0  0  0  0
  -49.0358   57.4804   60.8091 C   0  0  0  0  0  0  0  0  0  0  0  0
  -48.8822   56.6997   59.5088 C   0  0  0  0  0  0  0  0  0  0  0  0
  -47.4355   56.5115   59.0742 C   0  0  0  0  0  0  0  0  0  0  0  0
  -47.2366   56.4871   57.5670 C   0  0  0  0  0  0  0  0  0  0  0  0
  -47.1751   57.8734   56.9583 C   0  0  0  0  0  0  0  0  0  0  0  0
  -32.7649   58.8442   62.0123 O   0  0  0  0  0  0  0  0  0  0  0  0
  -33.3273   59.2637   63.2590 C   0  0  0  0  0  0  0  0  0  0  0  0
  -31.9596   59.3542   61.8331 H   0  0  0  0  0  0  0  0  0  0  0  0
  -34.5755   58.4956   63.5692 C   0  0  0  0  0  0  0  0  0  0  0  0
  -35.3186   57.8660   62.6808 C   0  0  0  0  0  0  0  0  0  0  0  0
  -36.5510   57.0953   63.0241 C   0  0  0  0  0  0  0  0  0  0  0  0
  -37.6653   57.3589   62.0092 C   0  0  0  0  0  0  0  0  0  0  0  0
  -37.4731   58.6228   61.1870 C   0  0  0  0  0  0  0  0  0  0  0  0
  -38.5785   59.6513   61.3547 C   0  0  0  0  0  0  0  0  0  0  0  0
  -39.4711   59.8055   60.1319 C   0  0  0  0  0  0  0  0  0  0  0  0
  -39.9335   58.4819   59.5424 C   0  0  0  0  0  0  0  0  0  0  0  0
  -41.3288   58.0717   59.9793 C   0  0  0  0  0  0  0  0  0  0  0  0
  -41.3500   57.0565   61.1068 C   0  0  0  0  0  0  0  0  0  0  0  0
  -41.6298   57.6596   62.4728 C   0  0  0  0  0  0  0  0  0  0  0  0
  -42.6710   58.7625   62.4326 C   0  0  0  0  0  0  0  0  0  0  0  0
  -42.1599   60.1225   62.8679 C   0  0  0  0  0  0  0  0  0  0  0  0
  -42.3348   61.1808   61.7965 C   0  0  0  0  0  0  0  0  0  0  0  0
  -43.0829   62.3980   62.2997 C   0  0  0  0  0  0  0  0  0  0  0  0
  -32.5427   61.5715   63.9399 C   0  0  0  0  0  0  0  0  0  0  0  0
  -31.5181   61.9367   63.0084 O   0  0  0  0  0  0  0  0  0  0  0  0
  -32.5429   63.2787   60.7745 O   0  0  0  0  0  0  0  0  0  0  0  0
  -33.4117   65.8556   64.1103 O   0  0  0  0  0  0  0  0  0  0  0  0
  -31.2675   63.9373   64.1321 O   0  0  0  0  0  0  0  0  0  0  0  0
  -31.3373   63.3150   62.8627 C   0  0  0  0  0  0  0  0  0  0  0  0
  -32.5164   63.8643   62.0701 C   0  0  0  0  0  0  0  0  0  0  0  0
  -32.4062   65.3799   61.9614 C   0  0  0  0  0  0  0  0  0  0  0  0
  -32.2293   66.0149   63.3329 C   0  0  0  0  0  0  0  0  0  0  0  0
  -31.0567   65.3563   64.0553 C   0  0  0  0  0  0  0  0  0  0  0  0
  -32.6131   62.3148   60.8568 H   0  0  0  0  0  0  0  0  0  0  0  0
  -34.1581   66.2734   63.6529 H   0  0  0  0  0  0  0  0  0  0  0  0
  -31.7911   65.2200   66.3641 O   0  0  0  0  0  0  0  0  0  0  0  0
  -30.8785   65.8495   65.4721 C   0  0  0  0  0  0  0  0  0  0  0  0
  -31.6504   65.5580   67.2623 H   0  0  0  0  0  0  0  0  0  0  0  0
  -33.6839   65.8031   61.3889 O   0  0  0  0  0  0  0  0  0  0  0  0
  -35.9101   66.1028   62.2618 O   0  0  0  0  0  0  0  0  0  0  0  0
  -34.6532   63.9657   62.6725 O   0  0  0  0  0  0  0  0  0  0  0  0
  -35.5012   64.5274   60.5273 O   0  0  0  0  0  0  0  0  0  0  0  0
  -35.0112   65.0788   61.8764 S   0  0  0  0  0  0  0  0  0  0  0  0
  -35.6304   66.4751   63.1127 H   0  0  0  0  0  0  0  0  0  0  0  0
  -35.7571   65.2642   59.9506 H   0  0  0  0  0  0  0  0  0  0  0  0
  2  1  1  0  0  0
  2  4  1  0  0  0
  2  5  1  0  0  0
 47 48  1  0  0  0
 47  1  1  0  0  0
 48 52  1  0  0  0
  1 30  1  0  0  0
 29 30  1  0  0  0
 29 31  1  0  0  0
 30 32  1  0  0  0
  3  4  2  0  0  0
 32 33  2  0  0  0
 49 53  1  0  0  0
 49 57  1  0  0  0
 33 34  1  0  0  0
 62 54  1  0  0  0
 62 66  1  0  0  0
 34 35  1  0  0  0
 50 55  1  0  0  0
 50 58  1  0  0  0
 35 36  1  0  0  0
 51 52  1  0  0  0
 51 56  1  0  0  0
 36 37  1  0  0  0
 59 60  1  0  0  0
 59 61  1  0  0  0
 37 38  1  0  0  0
 63 66  1  0  0  0
 63 67  1  0  0  0
 38 39  1  0  0  0
 64 66  1  0  0  0
 39 40  1  0  0  0
 65 66  1  0  0  0
 65 68  1  0  0  0
 40 41  1  0  0  0
 41 42  1  0  0  0
 42 43  1  0  0  0
 43 44  1  0  0  0
 44 45  1  0  0  0
 45 46  1  0  0  0
  4  6  1  0  0  0
  6  7  1  0  0  0
  7  8  1  0  0  0
  8  9  1  0  0  0
  9 10  1  0  0  0
 10 11  1  0  0  0
 11 12  1  0  0  0
 12 13  1  0  0  0
 13 14  1  0  0  0
 14 15  1  0  0  0
 15 16  1  0  0  0
 16 17  1  0  0  0
 17 18  1  0  0  0
 18 19  1  0  0  0
 19 20  2  0  0  0
 20 21  1  0  0  0
 21 22  1  0  0  0
 22 23  1  0  0  0
 23 24  1  0  0  0
 24 25  1  0  0  0
 25 26  1  0  0  0
 26 27  1  0  0  0
 27 28  1  0  0  0
 52 53  1  0  0  0
 53 54  1  0  0  0
 54 55  1  0  0  0
 55 56  1  0  0  0
 56 60  1  0  0  0
M  CHG 1  64  -1
M  END
> <minimizedAffinity>
-9.12691

> <CNNscore>
0.1001881808

> <CNNaffinity>
7.0506944656

> <CNN_VS>
0.7063962817

> <CNNaffinity_variance>
2.1630880833

$$$$
/media/chris/experiments/cd1a-new-docking/inputs/ligands/7ryn_ligand.pdb


 68 68  0  0  0  0  0  0  0  0999 V2000
  -36.1189   58.2799   62.2975 C   0  0  0  0  0  0  0  0  0  0  0  0
  -37.0173   58.3232   61.1476 N   0  0  0  0  0  0  0  0  0  0  0  0
  -37.9480   60.3099   61.6522 O   0  0  0  0  0  0  0  0  0  0  0  0
  -37.8605   59.3326   60.9145 C   0  0  0  0  0  0  0  0  0  0  0  0
  -37.0009   57.5711   60.5126 H   0  0  0  0  0  0  0  0  0  0  0  0
  -38.7048   59.2034   59.6712 C   0  0  0  0  0  0  0  0  0  0  0  0
  -40.0013   58.4436   59.9209 C   0  0  0  0  0  0  0  0  0  0  0  0
  -41.1700   59.3644   60.2327 C   0  0  0  0  0  0  0  0  0  0  0  0
  -41.2819   59.7427   61.7001 C   0  0  0  0  0  0  0  0  0  0  0  0
  -42.4786   59.1228   62.4059 C   0  0  0  0  0  0  0  0  0  0  0  0
  -42.4815   57.5994   62.3990 C   0  0  0  0  0  0  0  0  0  0  0  0
  -41.9445   56.9758   63.6808 C   0  0  0  0  0  0  0  0  0  0  0  0
  -43.0159   56.3936   64.5994 C   0  0  0  0  0  0  0  0  0  0  0  0
  -43.5961   57.3985   65.5933 C   0  0  0  0  0  0  0  0  0  0  0  0
  -44.9230   58.0247   65.1649 C   0  0  0  0  0  0  0  0  0  0  0  0
  -45.9703   58.0533   66.2783 C   0  0  0  0  0  0  0  0  0  0  0  0
  -47.4113   57.8344   65.8172 C   0  0  0  0  0  0  0  0  0  0  0  0
  -48.3628   59.0002   66.0990 C   0  0  0  0  0  0  0  0  0  0  0  0
  -49.8035   58.6456   65.8699 C   0  0  0  0  0  0  0  0  0  0  0  0
  -50.5576   59.0609   64.8675 C   0  0  0  0  0  0  0  0  0  0  0  0
  -50.1250   59.9676   63.7554 C   0  0  0  0  0  0  0  0  0  0  0  0
  -50.4494   59.4277   62.3608 C   0  0  0  0  0  0  0  0  0  0  0  0
  -49.6737   58.1654   62.0083 C   0  0  0  0  0  0  0  0  0  0  0  0
  -49.9497   57.6602   60.5966 C   0  0  0  0  0  0  0  0  0  0  0  0
  -48.8139   57.8975   59.6079 C   0  0  0  0  0  0  0  0  0  0  0  0
  -47.9606   56.6642   59.3473 C   0  0  0  0  0  0  0  0  0  0  0  0
  -47.0615   56.7763   58.1262 C   0  0  0  0  0  0  0  0  0  0  0  0
  -47.2511   58.0768   57.3721 C   0  0  0  0  0  0  0  0  0  0  0  0
  -34.3418   56.6648   62.5586 O   0  0  0  0  0  0  0  0  0  0  0  0
  -34.7206   57.8394   61.8353 C   0  0  0  0  0  0  0  0  0  0  0  0
  -35.0078   55.9728   62.4231 H   0  0  0  0  0  0  0  0  0  0  0  0
  -33.7127   58.9318   62.0216 C   0  0  0  0  0  0  0  0  0  0  0  0
  -32.4971   58.7673   62.5045 C   0  0  0  0  0  0  0  0  0  0  0  0
  -31.5089   59.8758   62.6643 C   0  0  0  0  0  0  0  0  0  0  0  0
  -31.8352   61.0428   61.7301 C   0  0  0  0  0  0  0  0  0  0  0  0
  -31.7864   62.4076   62.3975 C   0  0  0  0  0  0  0  0  0  0  0  0
  -32.5236   62.4813   63.7237 C   0  0  0  0  0  0  0  0  0  0  0  0
  -32.3331   63.7963   64.4654 C   0  0  0  0  0  0  0  0  0  0  0  0
  -30.8921   64.2827   64.4860 C   0  0  0  0  0  0  0  0  0  0  0  0
  -30.7415   65.7312   64.9162 C   0  0  0  0  0  0  0  0  0  0  0  0
  -31.1811   66.7363   63.8678 C   0  0  0  0  0  0  0  0  0  0  0  0
  -31.0773   66.2233   62.4417 C   0  0  0  0  0  0  0  0  0  0  0  0
  -32.3386   66.4607   61.6324 C   0  0  0  0  0  0  0  0  0  0  0  0
  -33.5796   66.7142   62.4666 C   0  0  0  0  0  0  0  0  0  0  0  0
  -34.8421   66.1988   61.8040 C   0  0  0  0  0  0  0  0  0  0  0  0
  -34.7563   64.7268   61.4575 C   0  0  0  0  0  0  0  0  0  0  0  0
  -36.6816   57.3612   63.3622 C   0  0  0  0  0  0  0  0  0  0  0  0
  -36.0566   57.6819   64.6101 O   0  0  0  0  0  0  0  0  0  0  0  0
  -34.8862   60.1843   65.0674 O   0  0  0  0  0  0  0  0  0  0  0  0
  -39.0037   61.0377   64.1507 O   0  0  0  0  0  0  0  0  0  0  0  0
  -38.1276   58.5087   65.2065 O   0  0  0  0  0  0  0  0  0  0  0  0
  -36.7277   58.6545   65.3568 C   0  0  0  0  0  0  0  0  0  0  0  0
  -36.2832   60.0230   64.8567 C   0  0  0  0  0  0  0  0  0  0  0  0
  -37.0558   61.1161   65.5840 C   0  0  0  0  0  0  0  0  0  0  0  0
  -38.5560   60.8782   65.4930 C   0  0  0  0  0  0  0  0  0  0  0  0
  -38.8808   59.4648   65.9698 C   0  0  0  0  0  0  0  0  0  0  0  0
  -34.4056   59.4833   64.5999 H   0  0  0  0  0  0  0  0  0  0  0  0
  -38.7982   61.9353   63.8457 H   0  0  0  0  0  0  0  0  0  0  0  0
  -41.1027   60.2069   65.3364 O   0  0  0  0  0  0  0  0  0  0  0  0
  -40.3386   59.1030   65.8079 C   0  0  0  0  0  0  0  0  0  0  0  0
  -42.0310   59.9416   65.2438 H   0  0  0  0  0  0  0  0  0  0  0  0
  -36.7129   62.3470   64.8722 O   0  0  0  0  0  0  0  0  0  0  0  0
  -37.0266   63.8819   66.7034 O   0  0  0  0  0  0  0  0  0  0  0  0
  -35.5071   64.4689   64.7896 O   0  0  0  0  0  0  0  0  0  0  0  0
  -34.9296   62.8060   66.3827 O   0  0  0  0  0  0  0  0  0  0  0  0
  -36.0865   63.5516   65.6972 S   0  0  0  0  0  0  0  0  0  0  0  0
  -37.7735   64.3555   66.3049 H   0  0  0  0  0  0  0  0  0  0  0  0
  -35.2884   62.1646   67.0158 H   0  0  0  0  0  0  0  0  0  0  0  0
  2  1  1  0  0  0
  2  4  1  0  0  0
  2  5  1  0  0  0
 47 48  1  0  0  0
 47  1  1  0  0  0
 48 52  1  0  0  0
  1 30  1  0  0  0
 29 30  1  0  0  0
 29 31  1  0  0  0
 30 32  1  0  0  0
  3  4  2  0  0  0
 32 33  2  0  0  0
 49 53  1  0  0  0
 49 57  1  0  0  0
 33 34  1  0  0  0
 62 54  1  0  0  0
 62 66  1  0  0  0
 34 35  1  0  0  0
 50 55  1  0  0  0
 50 58  1  0  0  0
 35 36  1  0  0  0
 51 52  1  0  0  0
 51 56  1  0  0  0
 36 37  1  0  0  0
 59 60  1  0  0  0
 59 61  1  0  0  0
 37 38  1  0  0  0
 63 66  1  0  0  0
 63 67  1  0  0  0
 38 39  1  0  0  0
 64 66  1  0  0  0
 39 40  1  0  0  0
 65 66  1  0  0  0
 65 68  1  0  0  0
 40 41  1  0  0  0
 41 42  1  0  0  0
 42 43  1  0  0  0
 43 44  1  0  0  0
 44 45  1  0  0  0
 45 46  1  0  0  0
  4  6  1  0  0  0
  6  7  1  0  0  0
  7  8  1  0  0  0
  8  9  1  0  0  0
  9 10  1  0  0  0
 10 11  1  0  0  0
 11 12  1  0  0  0
 12 13  1  0  0  0
 13 14  1  0  0  0
 14 15  1  0  0  0
 15 16  1  0  0  0
 16 17  1  0  0  0
 17 18  1  0  0  0
 18 19  1  0  0  0
 19 20  2  0  0  0
 20 21  1  0  0  0
 21 22  1  0  0  0
 22 23  1  0  0  0
 23 24  1  0  0  0
 24 25  1  0  0  0
 25 26  1  0  0  0
 26 27  1  0  0  0
 27 28  1  0  0  0
 52 53  1  0  0  0
 53 54  1  0  0  0
 54 55  1  0  0  0
 55 56  1  0  0  0
 56 60  1  0  0  0
M  CHG 1  64  -1
M  END
> <minimizedAffinity>
-8.29028

> <CNNscore>
0.0974722058

> <CNNaffinity>
7.0193929672

> <CNN_VS>
0.6841956973

> <CNNaffinity_variance>
1.0995137691

$$$$
/media/chris/experiments/cd1a-new-docking/inputs/ligands/7ryn_ligand.pdb


 68 68  0  0  0  0  0  0  0  0999 V2000
  -40.2303   59.3780   66.1798 C   0  0  0  0  0  0  0  0  0  0  0  0
  -40.1467   58.5591   64.9742 N   0  0  0  0  0  0  0  0  0  0  0  0
  -41.4805   56.9064   65.7206 O   0  0  0  0  0  0  0  0  0  0  0  0
  -40.7768   57.3893   64.8382 C   0  0  0  0  0  0  0  0  0  0  0  0
  -39.5986   58.8853   64.2242 H   0  0  0  0  0  0  0  0  0  0  0  0
  -40.5769   56.6904   63.5164 C   0  0  0  0  0  0  0  0  0  0  0  0
  -41.8911   56.2592   62.8782 C   0  0  0  0  0  0  0  0  0  0  0  0
  -42.6417   57.4177   62.2412 C   0  0  0  0  0  0  0  0  0  0  0  0
  -43.4818   58.2204   63.2205 C   0  0  0  0  0  0  0  0  0  0  0  0
  -43.2339   59.7202   63.1585 C   0  0  0  0  0  0  0  0  0  0  0  0
  -41.9151   60.1037   62.4992 C   0  0  0  0  0  0  0  0  0  0  0  0
  -42.0725   61.0156   61.2893 C   0  0  0  0  0  0  0  0  0  0  0  0
  -41.3744   60.5185   60.0260 C   0  0  0  0  0  0  0  0  0  0  0  0
  -41.6298   59.0451   59.7129 C   0  0  0  0  0  0  0  0  0  0  0  0
  -40.3687   58.1876   59.6097 C   0  0  0  0  0  0  0  0  0  0  0  0
  -39.3619   58.4480   60.7303 C   0  0  0  0  0  0  0  0  0  0  0  0
  -37.9466   58.7876   60.2629 C   0  0  0  0  0  0  0  0  0  0  0  0
  -36.8261   58.2599   61.1629 C   0  0  0  0  0  0  0  0  0  0  0  0
  -37.3110   57.2603   62.1727 C   0  0  0  0  0  0  0  0  0  0  0  0
  -37.0323   57.2607   63.4643 C   0  0  0  0  0  0  0  0  0  0  0  0
  -36.1779   58.2613   64.1817 C   0  0  0  0  0  0  0  0  0  0  0  0
  -34.8928   57.6677   64.7631 C   0  0  0  0  0  0  0  0  0  0  0  0
  -33.8940   58.7235   65.2182 C   0  0  0  0  0  0  0  0  0  0  0  0
  -33.6123   59.7853   64.1610 C   0  0  0  0  0  0  0  0  0  0  0  0
  -32.3411   59.5501   63.3532 C   0  0  0  0  0  0  0  0  0  0  0  0
  -32.5912   59.3249   61.8687 C   0  0  0  0  0  0  0  0  0  0  0  0
  -33.2664   58.0015   61.5451 C   0  0  0  0  0  0  0  0  0  0  0  0
  -32.5992   56.8193   62.2184 C   0  0  0  0  0  0  0  0  0  0  0  0
  -40.9495   61.6775   66.3529 O   0  0  0  0  0  0  0  0  0  0  0  0
  -41.4084   60.3568   66.0503 C   0  0  0  0  0  0  0  0  0  0  0  0
  -40.2149   61.9076   65.7628 H   0  0  0  0  0  0  0  0  0  0  0  0
  -42.5454   59.9667   66.9442 C   0  0  0  0  0  0  0  0  0  0  0  0
  -43.6382   59.3423   66.5519 C   0  0  0  0  0  0  0  0  0  0  0  0
  -44.7490   58.9533   67.4715 C   0  0  0  0  0  0  0  0  0  0  0  0
  -45.7601   58.0505   66.7617 C   0  0  0  0  0  0  0  0  0  0  0  0
  -47.1987   58.5329   66.8543 C   0  0  0  0  0  0  0  0  0  0  0  0
  -47.9819   58.4146   65.5580 C   0  0  0  0  0  0  0  0  0  0  0  0
  -47.6747   59.5099   64.5473 C   0  0  0  0  0  0  0  0  0  0  0  0
  -48.9013   60.0169   63.8044 C   0  0  0  0  0  0  0  0  0  0  0  0
  -50.1042   59.0961   63.9094 C   0  0  0  0  0  0  0  0  0  0  0  0
  -50.6699   58.6630   62.5697 C   0  0  0  0  0  0  0  0  0  0  0  0
  -49.8357   59.1019   61.3784 C   0  0  0  0  0  0  0  0  0  0  0  0
  -50.1248   58.2996   60.1235 C   0  0  0  0  0  0  0  0  0  0  0  0
  -49.3642   56.9910   60.0276 C   0  0  0  0  0  0  0  0  0  0  0  0
  -47.9388   57.1796   59.5467 C   0  0  0  0  0  0  0  0  0  0  0  0
  -47.8696   57.7831   58.1591 C   0  0  0  0  0  0  0  0  0  0  0  0
  -38.9171   60.0963   66.4121 C   0  0  0  0  0  0  0  0  0  0  0  0
  -38.5275   60.7297   65.1882 O   0  0  0  0  0  0  0  0  0  0  0  0
  -37.0585   60.9884   62.8183 O   0  0  0  0  0  0  0  0  0  0  0  0
  -36.3821   64.6664   64.9483 O   0  0  0  0  0  0  0  0  0  0  0  0
  -37.1187   62.2128   66.2579 O   0  0  0  0  0  0  0  0  0  0  0  0
  -37.2399   61.2734   65.2060 C   0  0  0  0  0  0  0  0  0  0  0  0
  -36.9952   61.9504   63.8635 C   0  0  0  0  0  0  0  0  0  0  0  0
  -35.6338   62.6342   63.8689 C   0  0  0  0  0  0  0  0  0  0  0  0
  -35.4923   63.5610   65.0674 C   0  0  0  0  0  0  0  0  0  0  0  0
  -35.8079   62.7937   66.3489 C   0  0  0  0  0  0  0  0  0  0  0  0
  -37.9290   60.5604   62.8251 H   0  0  0  0  0  0  0  0  0  0  0  0
  -36.1832   65.1553   64.1345 H   0  0  0  0  0  0  0  0  0  0  0  0
  -36.4330   63.0235   68.6824 O   0  0  0  0  0  0  0  0  0  0  0  0
  -35.8010   63.6669   67.5817 C   0  0  0  0  0  0  0  0  0  0  0  0
  -36.4115   63.6094   69.4552 H   0  0  0  0  0  0  0  0  0  0  0  0
  -35.6114   63.4225   62.6371 O   0  0  0  0  0  0  0  0  0  0  0  0
  -33.3159   62.9532   62.0736 O   0  0  0  0  0  0  0  0  0  0  0  0
  -33.9992   65.2446   62.8471 O   0  0  0  0  0  0  0  0  0  0  0  0
  -34.6143   64.4084   60.7119 O   0  0  0  0  0  0  0  0  0  0  0  0
  -34.2276   64.0338   62.1522 S   0  0  0  0  0  0  0  0  0  0  0  0
  -33.0493   62.6895   62.9682 H   0  0  0  0  0  0  0  0  0  0  0  0
  -34.7798   63.6006   60.2011 H   0  0  0  0  0  0  0  0  0  0  0  0
  2  1  1  0  0  0
  2  4  1  0  0  0
  2  5  1  0  0  0
 47 48  1  0  0  0
 47  1  1  0  0  0
 48 52  1  0  0  0
  1 30  1  0  0  0
 29 30  1  0  0  0
 29 31  1  0  0  0
 30 32  1  0  0  0
  3  4  2  0  0  0
 32 33  2  0  0  0
 49 53  1  0  0  0
 49 57  1  0  0  0
 33 34  1  0  0  0
 62 54  1  0  0  0
 62 66  1  0  0  0
 34 35  1  0  0  0
 50 55  1  0  0  0
 50 58  1  0  0  0
 35 36  1  0  0  0
 51 52  1  0  0  0
 51 56  1  0  0  0
 36 37  1  0  0  0
 59 60  1  0  0  0
 59 61  1  0  0  0
 37 38  1  0  0  0
 63 66  1  0  0  0
 63 67  1  0  0  0
 38 39  1  0  0  0
 64 66  1  0  0  0
 39 40  1  0  0  0
 65 66  1  0  0  0
 65 68  1  0  0  0
 40 41  1  0  0  0
 41 42  1  0  0  0
 42 43  1  0  0  0
 43 44  1  0  0  0
 44 45  1  0  0  0
 45 46  1  0  0  0
  4  6  1  0  0  0
  6  7  1  0  0  0
  7  8  1  0  0  0
  8  9  1  0  0  0
  9 10  1  0  0  0
 10 11  1  0  0  0
 11 12  1  0  0  0
 12 13  1  0  0  0
 13 14  1  0  0  0
 14 15  1  0  0  0
 15 16  1  0  0  0
 16 17  1  0  0  0
 17 18  1  0  0  0
 18 19  1  0  0  0
 19 20  2  0  0  0
 20 21  1  0  0  0
 21 22  1  0  0  0
 22 23  1  0  0  0
 23 24  1  0  0  0
 24 25  1  0  0  0
 25 26  1  0  0  0
 26 27  1  0  0  0
 27 28  1  0  0  0
 52 53  1  0  0  0
 53 54  1  0  0  0
 54 55  1  0  0  0
 55 56  1  0  0  0
 56 60  1  0  0  0
M  CHG 1  64  -1
M  END
> <minimizedAffinity>
-9.03199

> <CNNscore>
0.0967744440

> <CNNaffinity>
7.3530550003

> <CNN_VS>
0.7115877867

> <CNNaffinity_variance>
2.2726006508

$$$$
/media/chris/experiments/cd1a-new-docking/inputs/ligands/7ryn_ligand.pdb


 68 68  0  0  0  0  0  0  0  0999 V2000
  -39.8538   58.8764   65.4044 C   0  0  0  0  0  0  0  0  0  0  0  0
  -40.0914   57.9911   64.2682 N   0  0  0  0  0  0  0  0  0  0  0  0
  -41.3526   56.5023   65.3911 O   0  0  0  0  0  0  0  0  0  0  0  0
  -40.8208   56.8750   64.3493 C   0  0  0  0  0  0  0  0  0  0  0  0
  -39.6944   58.2284   63.3992 H   0  0  0  0  0  0  0  0  0  0  0  0
  -40.9611   56.0928   63.0672 C   0  0  0  0  0  0  0  0  0  0  0  0
  -40.7584   56.9574   61.8295 C   0  0  0  0  0  0  0  0  0  0  0  0
  -42.0667   57.4812   61.2592 C   0  0  0  0  0  0  0  0  0  0  0  0
  -42.6736   58.6227   62.0578 C   0  0  0  0  0  0  0  0  0  0  0  0
  -41.9832   59.9609   61.8405 C   0  0  0  0  0  0  0  0  0  0  0  0
  -41.4709   60.1708   60.4212 C   0  0  0  0  0  0  0  0  0  0  0  0
  -39.9540   60.2671   60.3209 C   0  0  0  0  0  0  0  0  0  0  0  0
  -39.3029   59.1665   59.4870 C   0  0  0  0  0  0  0  0  0  0  0  0
  -37.8865   58.8050   59.9313 C   0  0  0  0  0  0  0  0  0  0  0  0
  -37.7430   58.5085   61.4239 C   0  0  0  0  0  0  0  0  0  0  0  0
  -36.2960   58.2858   61.8641 C   0  0  0  0  0  0  0  0  0  0  0  0
  -36.1244   57.4078   63.1037 C   0  0  0  0  0  0  0  0  0  0  0  0
  -34.6911   57.3129   63.6335 C   0  0  0  0  0  0  0  0  0  0  0  0
  -34.3679   58.3827   64.6360 C   0  0  0  0  0  0  0  0  0  0  0  0
  -33.7288   59.5127   64.3900 C   0  0  0  0  0  0  0  0  0  0  0  0
  -33.2002   59.9551   63.0592 C   0  0  0  0  0  0  0  0  0  0  0  0
  -31.6977   59.7224   62.8865 C   0  0  0  0  0  0  0  0  0  0  0  0
  -30.9445   60.9646   62.4294 C   0  0  0  0  0  0  0  0  0  0  0  0
  -31.3396   62.2255   63.1899 C   0  0  0  0  0  0  0  0  0  0  0  0
  -30.7785   63.5169   62.6057 C   0  0  0  0  0  0  0  0  0  0  0  0
  -30.7403   64.6719   63.5965 C   0  0  0  0  0  0  0  0  0  0  0  0
  -32.0396   64.8823   64.3576 C   0  0  0  0  0  0  0  0  0  0  0  0
  -31.8307   65.5242   65.7142 C   0  0  0  0  0  0  0  0  0  0  0  0
  -40.4953   61.0002   66.3597 O   0  0  0  0  0  0  0  0  0  0  0  0
  -40.8547   60.0422   65.3601 C   0  0  0  0  0  0  0  0  0  0  0  0
  -39.5829   61.2944   66.2124 H   0  0  0  0  0  0  0  0  0  0  0  0
  -42.2609   59.5645   65.5566 C   0  0  0  0  0  0  0  0  0  0  0  0
  -42.7837   59.2014   66.7111 C   0  0  0  0  0  0  0  0  0  0  0  0
  -44.1956   58.7433   66.8770 C   0  0  0  0  0  0  0  0  0  0  0  0
  -44.7376   58.1486   65.5756 C   0  0  0  0  0  0  0  0  0  0  0  0
  -46.1807   58.5192   65.2747 C   0  0  0  0  0  0  0  0  0  0  0  0
  -47.0094   58.8526   66.5035 C   0  0  0  0  0  0  0  0  0  0  0  0
  -48.4969   59.0084   66.2232 C   0  0  0  0  0  0  0  0  0  0  0  0
  -48.8438   58.9975   64.7423 C   0  0  0  0  0  0  0  0  0  0  0  0
  -50.2675   58.5569   64.4508 C   0  0  0  0  0  0  0  0  0  0  0  0
  -50.6586   58.6583   62.9882 C   0  0  0  0  0  0  0  0  0  0  0  0
  -50.0065   59.8184   62.2556 C   0  0  0  0  0  0  0  0  0  0  0  0
  -49.4955   59.4386   60.8784 C   0  0  0  0  0  0  0  0  0  0  0  0
  -49.2561   57.9533   60.6868 C   0  0  0  0  0  0  0  0  0  0  0  0
  -49.3187   57.5362   59.2305 C   0  0  0  0  0  0  0  0  0  0  0  0
  -48.0553   57.8862   58.4718 C   0  0  0  0  0  0  0  0  0  0  0  0
  -38.4180   59.3590   65.3956 C   0  0  0  0  0  0  0  0  0  0  0  0
  -38.3695   60.6161   64.7115 O   0  0  0  0  0  0  0  0  0  0  0  0
  -37.2934   61.5893   62.3164 O   0  0  0  0  0  0  0  0  0  0  0  0
  -36.3603   64.5946   65.2523 O   0  0  0  0  0  0  0  0  0  0  0  0
  -36.8385   61.8398   65.9308 O   0  0  0  0  0  0  0  0  0  0  0  0
  -37.1051   61.2117   64.6907 C   0  0  0  0  0  0  0  0  0  0  0  0
  -37.0854   62.2375   63.5648 C   0  0  0  0  0  0  0  0  0  0  0  0
  -35.7526   62.9755   63.5600 C   0  0  0  0  0  0  0  0  0  0  0  0
  -35.4428   63.5535   64.9330 C   0  0  0  0  0  0  0  0  0  0  0  0
  -35.5404   62.4529   65.9865 C   0  0  0  0  0  0  0  0  0  0  0  0
  -38.1442   61.1235   62.3318 H   0  0  0  0  0  0  0  0  0  0  0  0
  -36.3000   65.2951   64.5840 H   0  0  0  0  0  0  0  0  0  0  0  0
  -36.5240   62.7536   68.1845 O   0  0  0  0  0  0  0  0  0  0  0  0
  -35.3572   62.9620   67.3970 C   0  0  0  0  0  0  0  0  0  0  0  0
  -36.3731   63.0907   69.0814 H   0  0  0  0  0  0  0  0  0  0  0  0
  -35.9372   64.0654   62.6021 O   0  0  0  0  0  0  0  0  0  0  0  0
  -33.8630   63.3151   61.6314 O   0  0  0  0  0  0  0  0  0  0  0  0
  -34.3543   65.7693   61.8577 O   0  0  0  0  0  0  0  0  0  0  0  0
  -35.4952   64.4034   60.2864 O   0  0  0  0  0  0  0  0  0  0  0  0
  -34.7385   64.4280   61.6246 S   0  0  0  0  0  0  0  0  0  0  0  0
  -33.3671   63.2990   62.4649 H   0  0  0  0  0  0  0  0  0  0  0  0
  -35.7766   63.4959   60.0907 H   0  0  0  0  0  0  0  0  0  0  0  0
  2  1  1  0  0  0
  2  4  1  0  0  0
  2  5  1  0  0  0
 47 48  1  0  0  0
 47  1  1  0  0  0
 48 52  1  0  0  0
  1 30  1  0  0  0
 29 30  1  0  0  0
 29 31  1  0  0  0
 30 32  1  0  0  0
  3  4  2  0  0  0
 32 33  2  0  0  0
 49 53  1  0  0  0
 49 57  1  0  0  0
 33 34  1  0  0  0
 62 54  1  0  0  0
 62 66  1  0  0  0
 34 35  1  0  0  0
 50 55  1  0  0  0
 50 58  1  0  0  0
 35 36  1  0  0  0
 51 52  1  0  0  0
 51 56  1  0  0  0
 36 37  1  0  0  0
 59 60  1  0  0  0
 59 61  1  0  0  0
 37 38  1  0  0  0
 63 66  1  0  0  0
 63 67  1  0  0  0
 38 39  1  0  0  0
 64 66  1  0  0  0
 39 40  1  0  0  0
 65 66  1  0  0  0
 65 68  1  0  0  0
 40 41  1  0  0  0
 41 42  1  0  0  0
 42 43  1  0  0  0
 43 44  1  0  0  0
 44 45  1  0  0  0
 45 46  1  0  0  0
  4  6  1  0  0  0
  6  7  1  0  0  0
  7  8  1  0  0  0
  8  9  1  0  0  0
  9 10  1  0  0  0
 10 11  1  0  0  0
 11 12  1  0  0  0
 12 13  1  0  0  0
 13 14  1  0  0  0
 14 15  1  0  0  0
 15 16  1  0  0  0
 16 17  1  0  0  0
 17 18  1  0  0  0
 18 19  1  0  0  0
 19 20  2  0  0  0
 20 21  1  0  0  0
 21 22  1  0  0  0
 22 23  1  0  0  0
 23 24  1  0  0  0
 24 25  1  0  0  0
 25 26  1  0  0  0
 26 27  1  0  0  0
 27 28  1  0  0  0
 52 53  1  0  0  0
 53 54  1  0  0  0
 54 55  1  0  0  0
 55 56  1  0  0  0
 56 60  1  0  0  0
M  CHG 1  64  -1
M  END
> <minimizedAffinity>
-8.49712

> <CNNscore>
0.0940299183

> <CNNaffinity>
7.2618737221

> <CNN_VS>
0.6828333735

> <CNNaffinity_variance>
2.2461051941

$$$$
/media/chris/experiments/cd1a-new-docking/inputs/ligands/7ryn_ligand.pdb


 68 68  0  0  0  0  0  0  0  0999 V2000
  -38.7897   59.8934   66.2232 C   0  0  0  0  0  0  0  0  0  0  0  0
  -38.0982   59.1424   65.1797 N   0  0  0  0  0  0  0  0  0  0  0  0
  -38.4127   57.1138   66.1035 O   0  0  0  0  0  0  0  0  0  0  0  0
  -37.9634   57.8137   65.2006 C   0  0  0  0  0  0  0  0  0  0  0  0
  -37.7120   59.6400   64.4231 H   0  0  0  0  0  0  0  0  0  0  0  0
  -37.2238   57.2145   64.0304 C   0  0  0  0  0  0  0  0  0  0  0  0
  -35.7686   57.6604   63.9678 C   0  0  0  0  0  0  0  0  0  0  0  0
  -34.9623   57.2014   65.1722 C   0  0  0  0  0  0  0  0  0  0  0  0
  -33.6762   57.9820   65.3863 C   0  0  0  0  0  0  0  0  0  0  0  0
  -33.7274   59.4086   64.8601 C   0  0  0  0  0  0  0  0  0  0  0  0
  -32.6872   59.7120   63.7893 C   0  0  0  0  0  0  0  0  0  0  0  0
  -32.3003   58.5044   62.9454 C   0  0  0  0  0  0  0  0  0  0  0  0
  -32.8983   58.4950   61.5409 C   0  0  0  0  0  0  0  0  0  0  0  0
  -34.2809   57.8502   61.4577 C   0  0  0  0  0  0  0  0  0  0  0  0
  -35.4171   58.8188   61.1302 C   0  0  0  0  0  0  0  0  0  0  0  0
  -36.7593   58.1257   60.8948 C   0  0  0  0  0  0  0  0  0  0  0  0
  -37.8059   58.9713   60.1693 C   0  0  0  0  0  0  0  0  0  0  0  0
  -39.2517   58.7248   60.6087 C   0  0  0  0  0  0  0  0  0  0  0  0
  -39.3602   57.7233   61.7218 C   0  0  0  0  0  0  0  0  0  0  0  0
  -40.3375   56.8502   61.8909 C   0  0  0  0  0  0  0  0  0  0  0  0
  -41.5332   56.6822   61.0033 C   0  0  0  0  0  0  0  0  0  0  0  0
  -42.7815   57.4081   61.5098 C   0  0  0  0  0  0  0  0  0  0  0  0
  -42.7407   57.7058   63.0028 C   0  0  0  0  0  0  0  0  0  0  0  0
  -43.8284   58.6729   63.4567 C   0  0  0  0  0  0  0  0  0  0  0  0
  -43.4316   60.1434   63.3947 C   0  0  0  0  0  0  0  0  0  0  0  0
  -42.1591   60.4019   62.6002 C   0  0  0  0  0  0  0  0  0  0  0  0
  -42.2921   61.4933   61.5499 C   0  0  0  0  0  0  0  0  0  0  0  0
  -43.2094   62.6190   61.9827 C   0  0  0  0  0  0  0  0  0  0  0  0
  -40.5708   61.5208   66.3424 O   0  0  0  0  0  0  0  0  0  0  0  0
  -40.1890   60.2884   65.7245 C   0  0  0  0  0  0  0  0  0  0  0  0
  -39.9065   62.1999   66.1468 H   0  0  0  0  0  0  0  0  0  0  0  0
  -41.1942   59.2139   66.0058 C   0  0  0  0  0  0  0  0  0  0  0  0
  -42.2843   59.3668   66.7314 C   0  0  0  0  0  0  0  0  0  0  0  0
  -43.2760   58.2784   66.9815 C   0  0  0  0  0  0  0  0  0  0  0  0
  -44.7030   58.8297   67.0075 C   0  0  0  0  0  0  0  0  0  0  0  0
  -45.7533   57.8653   66.4808 C   0  0  0  0  0  0  0  0  0  0  0  0
  -47.1796   58.2282   66.8575 C   0  0  0  0  0  0  0  0  0  0  0  0
  -48.0716   58.5487   65.6670 C   0  0  0  0  0  0  0  0  0  0  0  0
  -47.4513   59.5319   64.6862 C   0  0  0  0  0  0  0  0  0  0  0  0
  -48.4273   60.5700   64.1609 C   0  0  0  0  0  0  0  0  0  0  0  0
  -49.8342   60.0434   63.9475 C   0  0  0  0  0  0  0  0  0  0  0  0
  -50.1289   59.6386   62.5133 C   0  0  0  0  0  0  0  0  0  0  0  0
  -50.9031   58.3376   62.4109 C   0  0  0  0  0  0  0  0  0  0  0  0
  -50.8359   57.6743   61.0487 C   0  0  0  0  0  0  0  0  0  0  0  0
  -49.4294   57.2467   60.6777 C   0  0  0  0  0  0  0  0  0  0  0  0
  -48.8447   58.0833   59.5585 C   0  0  0  0  0  0  0  0  0  0  0  0
  -37.9679   61.1004   66.6259 C   0  0  0  0  0  0  0  0  0  0  0  0
  -37.5808   61.7988   65.4372 O   0  0  0  0  0  0  0  0  0  0  0  0
  -36.2592   61.3233   63.0147 O   0  0  0  0  0  0  0  0  0  0  0  0
  -34.6233   65.0324   64.4600 O   0  0  0  0  0  0  0  0  0  0  0  0
  -35.8027   63.0619   66.1932 O   0  0  0  0  0  0  0  0  0  0  0  0
  -36.2056   62.0213   65.3223 C   0  0  0  0  0  0  0  0  0  0  0  0
  -35.9079   62.3982   63.8768 C   0  0  0  0  0  0  0  0  0  0  0  0
  -34.4302   62.7357   63.7235 C   0  0  0  0  0  0  0  0  0  0  0  0
  -34.0003   63.7830   64.7402 C   0  0  0  0  0  0  0  0  0  0  0  0
  -34.3915   63.3263   66.1434 C   0  0  0  0  0  0  0  0  0  0  0  0
  -37.2012   61.1180   63.1213 H   0  0  0  0  0  0  0  0  0  0  0  0
  -34.3760   65.3245   63.5687 H   0  0  0  0  0  0  0  0  0  0  0  0
  -33.0420   65.2261   66.8204 O   0  0  0  0  0  0  0  0  0  0  0  0
  -34.1021   64.3592   67.2071 C   0  0  0  0  0  0  0  0  0  0  0  0
  -32.8823   65.8751   67.5233 H   0  0  0  0  0  0  0  0  0  0  0  0
  -34.3156   63.2893   62.3745 O   0  0  0  0  0  0  0  0  0  0  0  0
  -33.0062   64.3314   60.6405 O   0  0  0  0  0  0  0  0  0  0  0  0
  -32.2493   62.1794   61.6949 O   0  0  0  0  0  0  0  0  0  0  0  0
  -32.1895   64.2400   62.8725 O   0  0  0  0  0  0  0  0  0  0  0  0
  -32.8678   63.4508   61.7407 S   0  0  0  0  0  0  0  0  0  0  0  0
  -33.4325   63.8648   59.9046 H   0  0  0  0  0  0  0  0  0  0  0  0
  -32.5883   65.1219   62.9358 H   0  0  0  0  0  0  0  0  0  0  0  0
  2  1  1  0  0  0
  2  4  1  0  0  0
  2  5  1  0  0  0
 47 48  1  0  0  0
 47  1  1  0  0  0
 48 52  1  0  0  0
  1 30  1  0  0  0
 29 30  1  0  0  0
 29 31  1  0  0  0
 30 32  1  0  0  0
  3  4  2  0  0  0
 32 33  2  0  0  0
 49 53  1  0  0  0
 49 57  1  0  0  0
 33 34  1  0  0  0
 62 54  1  0  0  0
 62 66  1  0  0  0
 34 35  1  0  0  0
 50 55  1  0  0  0
 50 58  1  0  0  0
 35 36  1  0  0  0
 51 52  1  0  0  0
 51 56  1  0  0  0
 36 37  1  0  0  0
 59 60  1  0  0  0
 59 61  1  0  0  0
 37 38  1  0  0  0
 63 66  1  0  0  0
 63 67  1  0  0  0
 38 39  1  0  0  0
 64 66  1  0  0  0
 39 40  1  0  0  0
 65 66  1  0  0  0
 65 68  1  0  0  0
 40 41  1  0  0  0
 41 42  1  0  0  0
 42 43  1  0  0  0
 43 44  1  0  0  0
 44 45  1  0  0  0
 45 46  1  0  0  0
  4  6  1  0  0  0
  6  7  1  0  0  0
  7  8  1  0  0  0
  8  9  1  0  0  0
  9 10  1  0  0  0
 10 11  1  0  0  0
 11 12  1  0  0  0
 12 13  1  0  0  0
 13 14  1  0  0  0
 14 15  1  0  0  0
 15 16  1  0  0  0
 16 17  1  0  0  0
 17 18  1  0  0  0
 18 19  1  0  0  0
 19 20  2  0  0  0
 20 21  1  0  0  0
 21 22  1  0  0  0
 22 23  1  0  0  0
 23 24  1  0  0  0
 24 25  1  0  0  0
 25 26  1  0  0  0
 26 27  1  0  0  0
 27 28  1  0  0  0
 52 53  1  0  0  0
 53 54  1  0  0  0
 54 55  1  0  0  0
 55 56  1  0  0  0
 56 60  1  0  0  0
M  CHG 1  64  -1
M  END
> <minimizedAffinity>
-7.10705

> <CNNscore>
0.0879818574

> <CNNaffinity>
7.1389541626

> <CNN_VS>
0.6280984282

> <CNNaffinity_variance>
1.6309589148

$$$$
