/media/chris/experiments/cd1a-new-docking/inputs/ligands/7ryn_ligand.pdb


 68 68  0  0  0  0  0  0  0  0999 V2000
  -35.4220   61.2953   64.1090 C   0  0  0  0  0  0  0  0  0  0  0  0
  -36.3757   60.9283   65.1516 N   0  0  0  0  0  0  0  0  0  0  0  0
  -38.2133   61.1161   63.8648 O   0  0  0  0  0  0  0  0  0  0  0  0
  -37.6946   60.8673   64.9493 C   0  0  0  0  0  0  0  0  0  0  0  0
  -36.0297   60.7153   66.0483 H   0  0  0  0  0  0  0  0  0  0  0  0
  -38.5200   60.4620   66.1449 C   0  0  0  0  0  0  0  0  0  0  0  0
  -39.8400   59.8114   65.7510 C   0  0  0  0  0  0  0  0  0  0  0  0
  -41.0479   60.6285   66.1805 C   0  0  0  0  0  0  0  0  0  0  0  0
  -42.1323   59.8125   66.8642 C   0  0  0  0  0  0  0  0  0  0  0  0
  -42.0306   58.3164   66.6073 C   0  0  0  0  0  0  0  0  0  0  0  0
  -43.3776   57.6126   66.5030 C   0  0  0  0  0  0  0  0  0  0  0  0
  -44.5706   58.5596   66.5090 C   0  0  0  0  0  0  0  0  0  0  0  0
  -45.8894   57.9147   66.9279 C   0  0  0  0  0  0  0  0  0  0  0  0
  -46.9252   57.8327   65.8078 C   0  0  0  0  0  0  0  0  0  0  0  0
  -46.9001   59.0069   64.8295 C   0  0  0  0  0  0  0  0  0  0  0  0
  -48.0992   59.9443   64.9724 C   0  0  0  0  0  0  0  0  0  0  0  0
  -49.1260   59.5260   66.0247 C   0  0  0  0  0  0  0  0  0  0  0  0
  -50.4103   58.9096   65.4636 C   0  0  0  0  0  0  0  0  0  0  0  0
  -51.1008   59.8017   64.4729 C   0  0  0  0  0  0  0  0  0  0  0  0
  -51.2518   59.5617   63.1823 C   0  0  0  0  0  0  0  0  0  0  0  0
  -50.7664   58.3485   62.4482 C   0  0  0  0  0  0  0  0  0  0  0  0
  -49.4098   58.5439   61.7678 C   0  0  0  0  0  0  0  0  0  0  0  0
  -49.4469   58.2892   60.2668 C   0  0  0  0  0  0  0  0  0  0  0  0
  -49.2225   56.8276   59.8957 C   0  0  0  0  0  0  0  0  0  0  0  0
  -47.8313   56.5206   59.3530 C   0  0  0  0  0  0  0  0  0  0  0  0
  -47.8321   56.0046   57.9210 C   0  0  0  0  0  0  0  0  0  0  0  0
  -47.8387   57.0988   56.8653 C   0  0  0  0  0  0  0  0  0  0  0  0
  -46.8840   58.2313   57.1842 C   0  0  0  0  0  0  0  0  0  0  0  0
  -33.8503   60.3463   62.5393 O   0  0  0  0  0  0  0  0  0  0  0  0
  -34.5678   60.0701   63.7456 C   0  0  0  0  0  0  0  0  0  0  0  0
  -33.3135   61.1455   62.6582 H   0  0  0  0  0  0  0  0  0  0  0  0
  -35.4097   58.8397   63.5986 C   0  0  0  0  0  0  0  0  0  0  0  0
  -35.9757   58.4382   62.4777 C   0  0  0  0  0  0  0  0  0  0  0  0
  -36.7980   57.1970   62.3599 C   0  0  0  0  0  0  0  0  0  0  0  0
  -38.1873   57.5084   61.7993 C   0  0  0  0  0  0  0  0  0  0  0  0
  -38.4774   58.9923   61.6422 C   0  0  0  0  0  0  0  0  0  0  0  0
  -39.0539   59.3763   60.2903 C   0  0  0  0  0  0  0  0  0  0  0  0
  -39.9354   58.3042   59.6664 C   0  0  0  0  0  0  0  0  0  0  0  0
  -41.4157   58.4782   59.9690 C   0  0  0  0  0  0  0  0  0  0  0  0
  -42.0659   57.2457   60.5725 C   0  0  0  0  0  0  0  0  0  0  0  0
  -41.4600   56.8116   61.8942 C   0  0  0  0  0  0  0  0  0  0  0  0
  -41.7220   57.7765   63.0378 C   0  0  0  0  0  0  0  0  0  0  0  0
  -43.1132   58.3807   62.9976 C   0  0  0  0  0  0  0  0  0  0  0  0
  -43.1654   59.8564   63.3441 C   0  0  0  0  0  0  0  0  0  0  0  0
  -42.3593   60.7091   62.3839 C   0  0  0  0  0  0  0  0  0  0  0  0
  -42.9378   62.0989   62.2162 C   0  0  0  0  0  0  0  0  0  0  0  0
  -34.5743   62.4636   64.5683 C   0  0  0  0  0  0  0  0  0  0  0  0
  -33.1978   62.0736   64.5052 O   0  0  0  0  0  0  0  0  0  0  0  0
  -32.2449   62.6811   61.9431 O   0  0  0  0  0  0  0  0  0  0  0  0
  -33.1292   66.4954   63.7296 O   0  0  0  0  0  0  0  0  0  0  0  0
  -32.5304   64.1444   65.2764 O   0  0  0  0  0  0  0  0  0  0  0  0
  -32.3075   63.1336   64.3109 C   0  0  0  0  0  0  0  0  0  0  0  0
  -32.5299   63.6854   62.9086 C   0  0  0  0  0  0  0  0  0  0  0  0
  -31.6398   64.9011   62.6833 C   0  0  0  0  0  0  0  0  0  0  0  0
  -31.8250   65.9271   63.7916 C   0  0  0  0  0  0  0  0  0  0  0  0
  -31.6298   65.2563   65.1491 C   0  0  0  0  0  0  0  0  0  0  0  0
  -32.8172   61.9131   62.0968 H   0  0  0  0  0  0  0  0  0  0  0  0
  -33.2554   66.9221   62.8678 H   0  0  0  0  0  0  0  0  0  0  0  0
  -30.8477   66.1530   67.2641 O   0  0  0  0  0  0  0  0  0  0  0  0
  -31.9060   66.1787   66.3132 C   0  0  0  0  0  0  0  0  0  0  0  0
  -31.0561   66.7540   67.9963 H   0  0  0  0  0  0  0  0  0  0  0  0
  -32.0991   65.4652   61.4144 O   0  0  0  0  0  0  0  0  0  0  0  0
  -30.7368   65.0224   59.4765 O   0  0  0  0  0  0  0  0  0  0  0  0
  -30.0491   66.7656   61.1510 O   0  0  0  0  0  0  0  0  0  0  0  0
  -31.8899   67.0921   59.6878 O   0  0  0  0  0  0  0  0  0  0  0  0
  -31.0180   66.0508   60.4085 S   0  0  0  0  0  0  0  0  0  0  0  0
  -30.1859   64.3450   59.8991 H   0  0  0  0  0  0  0  0  0  0  0  0
  -32.5698   66.6385   59.1652 H   0  0  0  0  0  0  0  0  0  0  0  0
  2  1  1  0  0  0
  2  4  1  0  0  0
  2  5  1  0  0  0
 47 48  1  0  0  0
 47  1  1  0  0  0
 48 52  1  0  0  0
  1 30  1  0  0  0
 29 30  1  0  0  0
 29 31  1  0  0  0
 30 32  1  0  0  0
  3  4  2  0  0  0
 32 33  2  0  0  0
 49 53  1  0  0  0
 49 57  1  0  0  0
 33 34  1  0  0  0
 62 54  1  0  0  0
 62 66  1  0  0  0
 34 35  1  0  0  0
 50 55  1  0  0  0
 50 58  1  0  0  0
 35 36  1  0  0  0
 51 52  1  0  0  0
 51 56  1  0  0  0
 36 37  1  0  0  0
 59 60  1  0  0  0
 59 61  1  0  0  0
 37 38  1  0  0  0
 63 66  1  0  0  0
 63 67  1  0  0  0
 38 39  1  0  0  0
 64 66  1  0  0  0
 39 40  1  0  0  0
 65 66  1  0  0  0
 65 68  1  0  0  0
 40 41  1  0  0  0
 41 42  1  0  0  0
 42 43  1  0  0  0
 43 44  1  0  0  0
 44 45  1  0  0  0
 45 46  1  0  0  0
  4  6  1  0  0  0
  6  7  1  0  0  0
  7  8  1  0  0  0
  8  9  1  0  0  0
  9 10  1  0  0  0
 10 11  1  0  0  0
 11 12  1  0  0  0
 12 13  1  0  0  0
 13 14  1  0  0  0
 14 15  1  0  0  0
 15 16  1  0  0  0
 16 17  1  0  0  0
 17 18  1  0  0  0
 18 19  1  0  0  0
 19 20  2  0  0  0
 20 21  1  0  0  0
 21 22  1  0  0  0
 22 23  1  0  0  0
 23 24  1  0  0  0
 24 25  1  0  0  0
 25 26  1  0  0  0
 26 27  1  0  0  0
 27 28  1  0  0  0
 52 53  1  0  0  0
 53 54  1  0  0  0
 54 55  1  0  0  0
 55 56  1  0  0  0
 56 60  1  0  0  0
M  CHG 1  64  -1
M  END
> <minimizedAffinity>
-9.78275

> <CNNscore>
0.2221242189

> <CNNaffinity>
7.1492433548

> <CNN_VS>
1.5880200863

> <CNNaffinity_variance>
1.5112760067

$$$$
/media/chris/experiments/cd1a-new-docking/inputs/ligands/7ryn_ligand.pdb


 68 68  0  0  0  0  0  0  0  0999 V2000
  -37.3302   58.8986   62.3949 C   0  0  0  0  0  0  0  0  0  0  0  0
  -38.6284   58.5398   61.8315 N   0  0  0  0  0  0  0  0  0  0  0  0
  -38.1189   59.0802   59.7063 O   0  0  0  0  0  0  0  0  0  0  0  0
  -38.9216   58.6580   60.5338 C   0  0  0  0  0  0  0  0  0  0  0  0
  -39.3221   58.1934   62.4382 H   0  0  0  0  0  0  0  0  0  0  0  0
  -40.3125   58.2299   60.1375 C   0  0  0  0  0  0  0  0  0  0  0  0
  -41.0735   57.5790   61.2855 C   0  0  0  0  0  0  0  0  0  0  0  0
  -42.1563   58.4801   61.8571 C   0  0  0  0  0  0  0  0  0  0  0  0
  -42.9453   57.8508   62.9932 C   0  0  0  0  0  0  0  0  0  0  0  0
  -42.2344   56.6849   63.6641 C   0  0  0  0  0  0  0  0  0  0  0  0
  -42.1366   56.8077   65.1793 C   0  0  0  0  0  0  0  0  0  0  0  0
  -41.9888   58.2408   65.6739 C   0  0  0  0  0  0  0  0  0  0  0  0
  -43.1434   58.7336   66.5427 C   0  0  0  0  0  0  0  0  0  0  0  0
  -44.3834   57.8424   66.4932 C   0  0  0  0  0  0  0  0  0  0  0  0
  -45.7055   58.5773   66.7132 C   0  0  0  0  0  0  0  0  0  0  0  0
  -46.8107   58.1437   65.7500 C   0  0  0  0  0  0  0  0  0  0  0  0
  -47.2008   59.1854   64.7014 C   0  0  0  0  0  0  0  0  0  0  0  0
  -48.3017   60.1567   65.1355 C   0  0  0  0  0  0  0  0  0  0  0  0
  -49.4318   59.4752   65.8516 C   0  0  0  0  0  0  0  0  0  0  0  0
  -50.6693   59.3453   65.4072 C   0  0  0  0  0  0  0  0  0  0  0  0
  -51.1932   59.8500   64.0968 C   0  0  0  0  0  0  0  0  0  0  0  0
  -50.9991   58.8690   62.9386 C   0  0  0  0  0  0  0  0  0  0  0  0
  -49.9196   59.3034   61.9562 C   0  0  0  0  0  0  0  0  0  0  0  0
  -50.0493   58.6474   60.5860 C   0  0  0  0  0  0  0  0  0  0  0  0
  -48.9022   57.7111   60.2234 C   0  0  0  0  0  0  0  0  0  0  0  0
  -48.7535   57.4748   58.7271 C   0  0  0  0  0  0  0  0  0  0  0  0
  -47.3444   57.1045   58.2924 C   0  0  0  0  0  0  0  0  0  0  0  0
  -46.8412   57.9511   57.1409 C   0  0  0  0  0  0  0  0  0  0  0  0
  -37.3725   57.7685   64.5294 O   0  0  0  0  0  0  0  0  0  0  0  0
  -36.7912   57.7212   63.2231 C   0  0  0  0  0  0  0  0  0  0  0  0
  -38.3395   57.7515   64.4538 H   0  0  0  0  0  0  0  0  0  0  0  0
  -35.2954   57.7457   63.3011 C   0  0  0  0  0  0  0  0  0  0  0  0
  -34.4918   58.1243   62.3269 C   0  0  0  0  0  0  0  0  0  0  0  0
  -33.0029   58.1518   62.4409 C   0  0  0  0  0  0  0  0  0  0  0  0
  -32.4229   59.4003   61.7731 C   0  0  0  0  0  0  0  0  0  0  0  0
  -31.6169   60.2888   62.7066 C   0  0  0  0  0  0  0  0  0  0  0  0
  -30.1255   60.3077   62.4183 C   0  0  0  0  0  0  0  0  0  0  0  0
  -29.5048   61.6965   62.4603 C   0  0  0  0  0  0  0  0  0  0  0  0
  -30.4711   62.8090   62.0840 C   0  0  0  0  0  0  0  0  0  0  0  0
  -29.8214   64.1785   61.9913 C   0  0  0  0  0  0  0  0  0  0  0  0
  -30.5028   65.1213   61.0170 C   0  0  0  0  0  0  0  0  0  0  0  0
  -30.1155   66.5790   61.1983 C   0  0  0  0  0  0  0  0  0  0  0  0
  -30.7150   67.4882   60.1418 C   0  0  0  0  0  0  0  0  0  0  0  0
  -31.3166   66.7586   58.9559 C   0  0  0  0  0  0  0  0  0  0  0  0
  -30.6037   67.0736   57.6554 C   0  0  0  0  0  0  0  0  0  0  0  0
  -29.6423   65.9790   57.2408 C   0  0  0  0  0  0  0  0  0  0  0  0
  -37.4532   60.1640   63.2183 C   0  0  0  0  0  0  0  0  0  0  0  0
  -36.1675   60.7921   63.2736 O   0  0  0  0  0  0  0  0  0  0  0  0
  -35.8408   61.8339   65.8523 O   0  0  0  0  0  0  0  0  0  0  0  0
  -33.5198   64.4180   63.3110 O   0  0  0  0  0  0  0  0  0  0  0  0
  -35.7433   62.8650   62.3507 O   0  0  0  0  0  0  0  0  0  0  0  0
  -36.2099   62.1719   63.4933 C   0  0  0  0  0  0  0  0  0  0  0  0
  -35.3296   62.4853   64.6963 C   0  0  0  0  0  0  0  0  0  0  0  0
  -35.2757   63.9913   64.9203 C   0  0  0  0  0  0  0  0  0  0  0  0
  -34.8704   64.7191   63.6470 C   0  0  0  0  0  0  0  0  0  0  0  0
  -35.7837   64.2932   62.5001 C   0  0  0  0  0  0  0  0  0  0  0  0
  -35.8702   60.8767   65.6976 H   0  0  0  0  0  0  0  0  0  0  0  0
  -32.9378   64.6878   64.0385 H   0  0  0  0  0  0  0  0  0  0  0  0
  -34.1729   64.3098   60.6852 O   0  0  0  0  0  0  0  0  0  0  0  0
  -35.3817   64.8839   61.1691 C   0  0  0  0  0  0  0  0  0  0  0  0
  -33.9438   64.7098   59.8318 H   0  0  0  0  0  0  0  0  0  0  0  0
  -34.2421   64.1767   65.9383 O   0  0  0  0  0  0  0  0  0  0  0  0
  -33.8056   62.8527   67.9040 O   0  0  0  0  0  0  0  0  0  0  0  0
  -36.0279   63.9840   67.5927 O   0  0  0  0  0  0  0  0  0  0  0  0
  -34.0542   65.2121   68.0748 O   0  0  0  0  0  0  0  0  0  0  0  0
  -34.6209   63.9219   67.4599 S   0  0  0  0  0  0  0  0  0  0  0  0
  -34.1355   62.0191   67.5336 H   0  0  0  0  0  0  0  0  0  0  0  0
  -33.0868   65.2068   68.0026 H   0  0  0  0  0  0  0  0  0  0  0  0
  2  1  1  0  0  0
  2  4  1  0  0  0
  2  5  1  0  0  0
 47 48  1  0  0  0
 47  1  1  0  0  0
 48 52  1  0  0  0
  1 30  1  0  0  0
 29 30  1  0  0  0
 29 31  1  0  0  0
 30 32  1  0  0  0
  3  4  2  0  0  0
 32 33  2  0  0  0
 49 53  1  0  0  0
 49 57  1  0  0  0
 33 34  1  0  0  0
 62 54  1  0  0  0
 62 66  1  0  0  0
 34 35  1  0  0  0
 50 55  1  0  0  0
 50 58  1  0  0  0
 35 36  1  0  0  0
 51 52  1  0  0  0
 51 56  1  0  0  0
 36 37  1  0  0  0
 59 60  1  0  0  0
 59 61  1  0  0  0
 37 38  1  0  0  0
 63 66  1  0  0  0
 63 67  1  0  0  0
 38 39  1  0  0  0
 64 66  1  0  0  0
 39 40  1  0  0  0
 65 66  1  0  0  0
 65 68  1  0  0  0
 40 41  1  0  0  0
 41 42  1  0  0  0
 42 43  1  0  0  0
 43 44  1  0  0  0
 44 45  1  0  0  0
 45 46  1  0  0  0
  4  6  1  0  0  0
  6  7  1  0  0  0
  7  8  1  0  0  0
  8  9  1  0  0  0
  9 10  1  0  0  0
 10 11  1  0  0  0
 11 12  1  0  0  0
 12 13  1  0  0  0
 13 14  1  0  0  0
 14 15  1  0  0  0
 15 16  1  0  0  0
 16 17  1  0  0  0
 17 18  1  0  0  0
 18 19  1  0  0  0
 19 20  2  0  0  0
 20 21  1  0  0  0
 21 22  1  0  0  0
 22 23  1  0  0  0
 23 24  1  0  0  0
 24 25  1  0  0  0
 25 26  1  0  0  0
 26 27  1  0  0  0
 27 28  1  0  0  0
 52 53  1  0  0  0
 53 54  1  0  0  0
 54 55  1  0  0  0
 55 56  1  0  0  0
 56 60  1  0  0  0
M  CHG 1  64  -1
M  END
> <minimizedAffinity>
-8.82188

> <CNNscore>
0.2128217369

> <CNNaffinity>
6.8937287331

> <CNN_VS>
1.4671353102

> <CNNaffinity_variance>
0.6658915877

$$$$
/media/chris/experiments/cd1a-new-docking/inputs/ligands/7ryn_ligand.pdb


 68 68  0  0  0  0  0  0  0  0999 V2000
  -37.5588   59.3440   62.4141 C   0  0  0  0  0  0  0  0  0  0  0  0
  -38.7494   58.8065   61.7623 N   0  0  0  0  0  0  0  0  0  0  0  0
  -38.1293   59.3402   59.6650 O   0  0  0  0  0  0  0  0  0  0  0  0
  -38.9420   58.8461   60.4411 C   0  0  0  0  0  0  0  0  0  0  0  0
  -39.4447   58.3944   62.3243 H   0  0  0  0  0  0  0  0  0  0  0  0
  -40.2303   58.2334   59.9510 C   0  0  0  0  0  0  0  0  0  0  0  0
  -41.4307   58.6421   60.7952 C   0  0  0  0  0  0  0  0  0  0  0  0
  -41.7079   60.1358   60.7363 C   0  0  0  0  0  0  0  0  0  0  0  0
  -41.7515   60.8085   62.0982 C   0  0  0  0  0  0  0  0  0  0  0  0
  -42.6473   60.1024   63.1048 C   0  0  0  0  0  0  0  0  0  0  0  0
  -41.9618   59.7826   64.4271 C   0  0  0  0  0  0  0  0  0  0  0  0
  -41.2874   58.4172   64.4580 C   0  0  0  0  0  0  0  0  0  0  0  0
  -42.0176   57.3684   65.2932 C   0  0  0  0  0  0  0  0  0  0  0  0
  -43.2170   57.9139   66.0665 C   0  0  0  0  0  0  0  0  0  0  0  0
  -44.5710   57.6609   65.4039 C   0  0  0  0  0  0  0  0  0  0  0  0
  -45.6903   58.5493   65.9471 C   0  0  0  0  0  0  0  0  0  0  0  0
  -47.0848   58.2384   65.4037 C   0  0  0  0  0  0  0  0  0  0  0  0
  -48.1446   59.3029   65.6996 C   0  0  0  0  0  0  0  0  0  0  0  0
  -48.2635   60.3268   64.6080 C   0  0  0  0  0  0  0  0  0  0  0  0
  -49.3703   60.6537   63.9646 C   0  0  0  0  0  0  0  0  0  0  0  0
  -50.7309   60.0699   64.1975 C   0  0  0  0  0  0  0  0  0  0  0  0
  -51.3196   59.3740   62.9684 C   0  0  0  0  0  0  0  0  0  0  0  0
  -50.4808   58.1997   62.4820 C   0  0  0  0  0  0  0  0  0  0  0  0
  -50.5341   58.0031   60.9711 C   0  0  0  0  0  0  0  0  0  0  0  0
  -49.2104   58.2479   60.2556 C   0  0  0  0  0  0  0  0  0  0  0  0
  -49.1170   57.5765   58.8927 C   0  0  0  0  0  0  0  0  0  0  0  0
  -47.7115   57.1430   58.5075 C   0  0  0  0  0  0  0  0  0  0  0  0
  -47.1159   57.9901   57.4014 C   0  0  0  0  0  0  0  0  0  0  0  0
  -37.4049   58.8335   64.7701 O   0  0  0  0  0  0  0  0  0  0  0  0
  -37.0611   58.3443   63.4705 C   0  0  0  0  0  0  0  0  0  0  0  0
  -38.3635   58.9729   64.8200 H   0  0  0  0  0  0  0  0  0  0  0  0
  -35.5848   58.1170   63.3567 C   0  0  0  0  0  0  0  0  0  0  0  0
  -34.9044   58.1063   62.2276 C   0  0  0  0  0  0  0  0  0  0  0  0
  -33.4285   57.8914   62.1484 C   0  0  0  0  0  0  0  0  0  0  0  0
  -32.7278   58.4170   63.4030 C   0  0  0  0  0  0  0  0  0  0  0  0
  -31.9298   59.6920   63.1830 C   0  0  0  0  0  0  0  0  0  0  0  0
  -31.8371   60.1282   61.7309 C   0  0  0  0  0  0  0  0  0  0  0  0
  -30.5563   60.8760   61.3900 C   0  0  0  0  0  0  0  0  0  0  0  0
  -30.0473   61.7610   62.5174 C   0  0  0  0  0  0  0  0  0  0  0  0
  -30.0095   63.2380   62.1664 C   0  0  0  0  0  0  0  0  0  0  0  0
  -30.9556   63.6319   61.0474 C   0  0  0  0  0  0  0  0  0  0  0  0
  -31.0868   65.1326   60.8521 C   0  0  0  0  0  0  0  0  0  0  0  0
  -32.5164   65.6250   60.9796 C   0  0  0  0  0  0  0  0  0  0  0  0
  -32.6536   66.9876   61.6313 C   0  0  0  0  0  0  0  0  0  0  0  0
  -33.9694   67.1518   62.3665 C   0  0  0  0  0  0  0  0  0  0  0  0
  -35.0638   66.2701   61.8014 C   0  0  0  0  0  0  0  0  0  0  0  0
  -37.8630   60.7011   63.0142 C   0  0  0  0  0  0  0  0  0  0  0  0
  -36.7514   61.5666   62.7574 O   0  0  0  0  0  0  0  0  0  0  0  0
  -34.2059   62.6816   62.4136 O   0  0  0  0  0  0  0  0  0  0  0  0
  -35.7742   64.5694   65.9490 O   0  0  0  0  0  0  0  0  0  0  0  0
  -36.6651   61.9947   65.0240 O   0  0  0  0  0  0  0  0  0  0  0  0
  -35.9053   61.7576   63.8535 C   0  0  0  0  0  0  0  0  0  0  0  0
  -35.0093   62.9528   63.5551 C   0  0  0  0  0  0  0  0  0  0  0  0
  -34.1279   63.2530   64.7609 C   0  0  0  0  0  0  0  0  0  0  0  0
  -34.9625   63.4019   66.0245 C   0  0  0  0  0  0  0  0  0  0  0  0
  -35.8553   62.1755   66.1967 C   0  0  0  0  0  0  0  0  0  0  0  0
  -34.7777   62.4922   61.6533 H   0  0  0  0  0  0  0  0  0  0  0  0
  -35.2088   65.3499   65.8395 H   0  0  0  0  0  0  0  0  0  0  0  0
  -36.2822   63.1445   68.3803 O   0  0  0  0  0  0  0  0  0  0  0  0
  -36.8018   62.2890   67.3688 C   0  0  0  0  0  0  0  0  0  0  0  0
  -36.9123   63.1952   69.1159 H   0  0  0  0  0  0  0  0  0  0  0  0
  -33.4905   64.5307   64.4437 O   0  0  0  0  0  0  0  0  0  0  0  0
  -32.6836   65.3877   66.5465 O   0  0  0  0  0  0  0  0  0  0  0  0
  -31.3580   65.7203   64.4375 O   0  0  0  0  0  0  0  0  0  0  0  0
  -31.5570   63.5912   65.4689 O   0  0  0  0  0  0  0  0  0  0  0  0
  -32.2121   64.9691   65.2785 S   0  0  0  0  0  0  0  0  0  0  0  0
  -33.1048   66.2576   66.4637 H   0  0  0  0  0  0  0  0  0  0  0  0
  -32.1158   63.0441   66.0429 H   0  0  0  0  0  0  0  0  0  0  0  0
  2  1  1  0  0  0
  2  4  1  0  0  0
  2  5  1  0  0  0
 47 48  1  0  0  0
 47  1  1  0  0  0
 48 52  1  0  0  0
  1 30  1  0  0  0
 29 30  1  0  0  0
 29 31  1  0  0  0
 30 32  1  0  0  0
  3  4  2  0  0  0
 32 33  2  0  0  0
 49 53  1  0  0  0
 49 57  1  0  0  0
 33 34  1  0  0  0
 62 54  1  0  0  0
 62 66  1  0  0  0
 34 35  1  0  0  0
 50 55  1  0  0  0
 50 58  1  0  0  0
 35 36  1  0  0  0
 51 52  1  0  0  0
 51 56  1  0  0  0
 36 37  1  0  0  0
 59 60  1  0  0  0
 59 61  1  0  0  0
 37 38  1  0  0  0
 63 66  1  0  0  0
 63 67  1  0  0  0
 38 39  1  0  0  0
 64 66  1  0  0  0
 39 40  1  0  0  0
 65 66  1  0  0  0
 65 68  1  0  0  0
 40 41  1  0  0  0
 41 42  1  0  0  0
 42 43  1  0  0  0
 43 44  1  0  0  0
 44 45  1  0  0  0
 45 46  1  0  0  0
  4  6  1  0  0  0
  6  7  1  0  0  0
  7  8  1  0  0  0
  8  9  1  0  0  0
  9 10  1  0  0  0
 10 11  1  0  0  0
 11 12  1  0  0  0
 12 13  1  0  0  0
 13 14  1  0  0  0
 14 15  1  0  0  0
 15 16  1  0  0  0
 16 17  1  0  0  0
 17 18  1  0  0  0
 18 19  1  0  0  0
 19 20  2  0  0  0
 20 21  1  0  0  0
 21 22  1  0  0  0
 22 23  1  0  0  0
 23 24  1  0  0  0
 24 25  1  0  0  0
 25 26  1  0  0  0
 26 27  1  0  0  0
 27 28  1  0  0  0
 52 53  1  0  0  0
 53 54  1  0  0  0
 54 55  1  0  0  0
 55 56  1  0  0  0
 56 60  1  0  0  0
M  CHG 1  64  -1
M  END
> <minimizedAffinity>
-9.07002

> <CNNscore>
0.2055469900

> <CNNaffinity>
7.2559957504

> <CNN_VS>
1.4914480448

> <CNNaffinity_variance>
0.8372825384

$$$$
/media/chris/experiments/cd1a-new-docking/inputs/ligands/7ryn_ligand.pdb


 68 68  0  0  0  0  0  0  0  0999 V2000
  -37.4546   59.0689   62.0764 C   0  0  0  0  0  0  0  0  0  0  0  0
  -38.7717   58.6646   61.5935 N   0  0  0  0  0  0  0  0  0  0  0  0
  -38.7557   59.9629   59.7545 O   0  0  0  0  0  0  0  0  0  0  0  0
  -39.3190   59.1418   60.4724 C   0  0  0  0  0  0  0  0  0  0  0  0
  -39.2817   58.0077   62.1203 H   0  0  0  0  0  0  0  0  0  0  0  0
  -40.6849   58.6002   60.1314 C   0  0  0  0  0  0  0  0  0  0  0  0
  -41.0505   57.3735   60.9574 C   0  0  0  0  0  0  0  0  0  0  0  0
  -42.4324   57.4780   61.5827 C   0  0  0  0  0  0  0  0  0  0  0  0
  -42.4615   58.2590   62.8859 C   0  0  0  0  0  0  0  0  0  0  0  0
  -41.5758   57.6721   63.9748 C   0  0  0  0  0  0  0  0  0  0  0  0
  -41.1609   58.6750   65.0438 C   0  0  0  0  0  0  0  0  0  0  0  0
  -41.8330   58.4524   66.3925 C   0  0  0  0  0  0  0  0  0  0  0  0
  -43.2233   59.0706   66.5174 C   0  0  0  0  0  0  0  0  0  0  0  0
  -44.3631   58.0549   66.4600 C   0  0  0  0  0  0  0  0  0  0  0  0
  -45.3014   58.2169   65.2643 C   0  0  0  0  0  0  0  0  0  0  0  0
  -46.7705   57.9664   65.6048 C   0  0  0  0  0  0  0  0  0  0  0  0
  -47.3779   58.9447   66.6102 C   0  0  0  0  0  0  0  0  0  0  0  0
  -48.5373   59.7868   66.0711 C   0  0  0  0  0  0  0  0  0  0  0  0
  -48.3234   60.2347   64.6542 C   0  0  0  0  0  0  0  0  0  0  0  0
  -49.1074   59.9645   63.6255 C   0  0  0  0  0  0  0  0  0  0  0  0
  -50.3704   59.1586   63.6672 C   0  0  0  0  0  0  0  0  0  0  0  0
  -50.7473   58.5369   62.3208 C   0  0  0  0  0  0  0  0  0  0  0  0
  -49.9091   59.0584   61.1612 C   0  0  0  0  0  0  0  0  0  0  0  0
  -49.9399   58.1509   59.9364 C   0  0  0  0  0  0  0  0  0  0  0  0
  -49.0814   56.8970   60.0581 C   0  0  0  0  0  0  0  0  0  0  0  0
  -47.7946   56.9541   59.2471 C   0  0  0  0  0  0  0  0  0  0  0  0
  -47.7756   58.0428   58.1859 C   0  0  0  0  0  0  0  0  0  0  0  0
  -47.5059   57.5054   56.7950 C   0  0  0  0  0  0  0  0  0  0  0  0
  -36.9078   58.0749   64.2089 O   0  0  0  0  0  0  0  0  0  0  0  0
  -36.7900   57.8843   62.7961 C   0  0  0  0  0  0  0  0  0  0  0  0
  -37.8437   58.1696   64.4455 H   0  0  0  0  0  0  0  0  0  0  0  0
  -35.3550   57.7341   62.3934 C   0  0  0  0  0  0  0  0  0  0  0  0
  -34.3204   57.9379   63.1846 C   0  0  0  0  0  0  0  0  0  0  0  0
  -32.8999   57.7650   62.7569 C   0  0  0  0  0  0  0  0  0  0  0  0
  -32.0790   59.0216   63.0536 C   0  0  0  0  0  0  0  0  0  0  0  0
  -32.7655   60.3207   62.6641 C   0  0  0  0  0  0  0  0  0  0  0  0
  -31.8312   61.3752   62.0962 C   0  0  0  0  0  0  0  0  0  0  0  0
  -30.3667   60.9616   62.0827 C   0  0  0  0  0  0  0  0  0  0  0  0
  -29.4302   62.0116   62.6603 C   0  0  0  0  0  0  0  0  0  0  0  0
  -30.0197   63.4109   62.6837 C   0  0  0  0  0  0  0  0  0  0  0  0
  -29.7026   64.1943   63.9440 C   0  0  0  0  0  0  0  0  0  0  0  0
  -30.7559   64.0641   65.0309 C   0  0  0  0  0  0  0  0  0  0  0  0
  -31.0351   65.3727   65.7464 C   0  0  0  0  0  0  0  0  0  0  0  0
  -30.7027   66.6120   64.9378 C   0  0  0  0  0  0  0  0  0  0  0  0
  -31.9287   67.2411   64.3055 C   0  0  0  0  0  0  0  0  0  0  0  0
  -31.7223   67.5701   62.8413 C   0  0  0  0  0  0  0  0  0  0  0  0
  -37.5805   60.2820   62.9747 C   0  0  0  0  0  0  0  0  0  0  0  0
  -36.2778   60.8506   63.1490 O   0  0  0  0  0  0  0  0  0  0  0  0
  -35.8742   61.7649   65.7648 O   0  0  0  0  0  0  0  0  0  0  0  0
  -33.5373   64.4040   63.2957 O   0  0  0  0  0  0  0  0  0  0  0  0
  -35.8184   62.9523   62.3122 O   0  0  0  0  0  0  0  0  0  0  0  0
  -36.2803   62.2195   63.4317 C   0  0  0  0  0  0  0  0  0  0  0  0
  -35.3689   62.4556   64.6291 C   0  0  0  0  0  0  0  0  0  0  0  0
  -35.2719   63.9479   64.9198 C   0  0  0  0  0  0  0  0  0  0  0  0
  -34.8729   64.7230   63.6727 C   0  0  0  0  0  0  0  0  0  0  0  0
  -35.8191   64.3728   62.5269 C   0  0  0  0  0  0  0  0  0  0  0  0
  -35.9313   60.8168   65.5676 H   0  0  0  0  0  0  0  0  0  0  0  0
  -32.9344   64.6257   64.0224 H   0  0  0  0  0  0  0  0  0  0  0  0
  -34.8338   66.2913   61.4143 O   0  0  0  0  0  0  0  0  0  0  0  0
  -35.4279   65.0136   61.2158 C   0  0  0  0  0  0  0  0  0  0  0  0
  -34.5953   66.6739   60.5556 H   0  0  0  0  0  0  0  0  0  0  0  0
  -34.2142   64.0608   65.9237 O   0  0  0  0  0  0  0  0  0  0  0  0
  -36.0245   63.9709   67.5117 O   0  0  0  0  0  0  0  0  0  0  0  0
  -33.9640   65.3248   67.9980 O   0  0  0  0  0  0  0  0  0  0  0  0
  -33.9348   62.9510   68.0123 O   0  0  0  0  0  0  0  0  0  0  0  0
  -34.6289   64.2026   67.4506 S   0  0  0  0  0  0  0  0  0  0  0  0
  -36.4962   64.7438   67.1637 H   0  0  0  0  0  0  0  0  0  0  0  0
  -34.3646   62.1567   67.6582 H   0  0  0  0  0  0  0  0  0  0  0  0
  2  1  1  0  0  0
  2  4  1  0  0  0
  2  5  1  0  0  0
 47 48  1  0  0  0
 47  1  1  0  0  0
 48 52  1  0  0  0
  1 30  1  0  0  0
 29 30  1  0  0  0
 29 31  1  0  0  0
 30 32  1  0  0  0
  3  4  2  0  0  0
 32 33  2  0  0  0
 49 53  1  0  0  0
 49 57  1  0  0  0
 33 34  1  0  0  0
 62 54  1  0  0  0
 62 66  1  0  0  0
 34 35  1  0  0  0
 50 55  1  0  0  0
 50 58  1  0  0  0
 35 36  1  0  0  0
 51 52  1  0  0  0
 51 56  1  0  0  0
 36 37  1  0  0  0
 59 60  1  0  0  0
 59 61  1  0  0  0
 37 38  1  0  0  0
 63 66  1  0  0  0
 63 67  1  0  0  0
 38 39  1  0  0  0
 64 66  1  0  0  0
 39 40  1  0  0  0
 65 66  1  0  0  0
 65 68  1  0  0  0
 40 41  1  0  0  0
 41 42  1  0  0  0
 42 43  1  0  0  0
 43 44  1  0  0  0
 44 45  1  0  0  0
 45 46  1  0  0  0
  4  6  1  0  0  0
  6  7  1  0  0  0
  7  8  1  0  0  0
  8  9  1  0  0  0
  9 10  1  0  0  0
 10 11  1  0  0  0
 11 12  1  0  0  0
 12 13  1  0  0  0
 13 14  1  0  0  0
 14 15  1  0  0  0
 15 16  1  0  0  0
 16 17  1  0  0  0
 17 18  1  0  0  0
 18 19  1  0  0  0
 19 20  2  0  0  0
 20 21  1  0  0  0
 21 22  1  0  0  0
 22 23  1  0  0  0
 23 24  1  0  0  0
 24 25  1  0  0  0
 25 26  1  0  0  0
 26 27  1  0  0  0
 27 28  1  0  0  0
 52 53  1  0  0  0
 53 54  1  0  0  0
 54 55  1  0  0  0
 55 56  1  0  0  0
 56 60  1  0  0  0
M  CHG 1  64  -1
M  END
> <minimizedAffinity>
-8.53514

> <CNNscore>
0.1172338873

> <CNNaffinity>
6.8296852112

> <CNN_VS>
0.8006705642

> <CNNaffinity_variance>
1.0408570766

$$$$
/media/chris/experiments/cd1a-new-docking/inputs/ligands/7ryn_ligand.pdb


 68 68  0  0  0  0  0  0  0  0999 V2000
  -33.6840   61.4194   63.3512 C   0  0  0  0  0  0  0  0  0  0  0  0
  -34.1255   60.1419   62.7995 N   0  0  0  0  0  0  0  0  0  0  0  0
  -33.5650   58.9050   64.5951 O   0  0  0  0  0  0  0  0  0  0  0  0
  -34.0321   58.9862   63.4627 C   0  0  0  0  0  0  0  0  0  0  0  0
  -34.5113   60.1316   61.8938 H   0  0  0  0  0  0  0  0  0  0  0  0
  -34.5477   57.7713   62.7323 C   0  0  0  0  0  0  0  0  0  0  0  0
  -35.9518   57.9747   62.1774 C   0  0  0  0  0  0  0  0  0  0  0  0
  -37.0131   57.2444   62.9847 C   0  0  0  0  0  0  0  0  0  0  0  0
  -38.3004   56.9867   62.2195 C   0  0  0  0  0  0  0  0  0  0  0  0
  -39.5602   57.3159   63.0063 C   0  0  0  0  0  0  0  0  0  0  0  0
  -40.8348   56.7360   62.4065 C   0  0  0  0  0  0  0  0  0  0  0  0
  -41.3943   55.5475   63.1777 C   0  0  0  0  0  0  0  0  0  0  0  0
  -41.8863   55.8796   64.5842 C   0  0  0  0  0  0  0  0  0  0  0  0
  -42.8131   57.0925   64.6487 C   0  0  0  0  0  0  0  0  0  0  0  0
  -43.2311   57.5006   66.0612 C   0  0  0  0  0  0  0  0  0  0  0  0
  -44.4532   58.4185   66.0933 C   0  0  0  0  0  0  0  0  0  0  0  0
  -45.3991   58.2789   64.9006 C   0  0  0  0  0  0  0  0  0  0  0  0
  -46.8810   58.4859   65.2249 C   0  0  0  0  0  0  0  0  0  0  0  0
  -47.4552   59.7102   64.5726 C   0  0  0  0  0  0  0  0  0  0  0  0
  -48.6968   59.8542   64.1441 C   0  0  0  0  0  0  0  0  0  0  0  0
  -49.7829   58.8245   64.2258 C   0  0  0  0  0  0  0  0  0  0  0  0
  -50.5187   58.6012   62.9029 C   0  0  0  0  0  0  0  0  0  0  0  0
  -49.6573   57.9315   61.8405 C   0  0  0  0  0  0  0  0  0  0  0  0
  -49.5817   58.7199   60.5378 C   0  0  0  0  0  0  0  0  0  0  0  0
  -49.2736   57.8760   59.3062 C   0  0  0  0  0  0  0  0  0  0  0  0
  -47.9148   57.1918   59.3564 C   0  0  0  0  0  0  0  0  0  0  0  0
  -47.3678   56.7936   57.9948 C   0  0  0  0  0  0  0  0  0  0  0  0
  -47.0324   57.9863   57.1226 C   0  0  0  0  0  0  0  0  0  0  0  0
  -34.4348   63.6921   63.6764 O   0  0  0  0  0  0  0  0  0  0  0  0
  -34.8975   62.3473   63.5219 C   0  0  0  0  0  0  0  0  0  0  0  0
  -33.8906   63.9367   62.9115 H   0  0  0  0  0  0  0  0  0  0  0  0
  -35.7431   61.9344   64.6874 C   0  0  0  0  0  0  0  0  0  0  0  0
  -36.8391   61.2060   64.6082 C   0  0  0  0  0  0  0  0  0  0  0  0
  -37.6532   60.7977   65.7920 C   0  0  0  0  0  0  0  0  0  0  0  0
  -38.0800   59.3321   65.6873 C   0  0  0  0  0  0  0  0  0  0  0  0
  -39.5853   59.1212   65.6707 C   0  0  0  0  0  0  0  0  0  0  0  0
  -40.3878   60.3065   66.1792 C   0  0  0  0  0  0  0  0  0  0  0  0
  -41.5734   60.6743   65.2989 C   0  0  0  0  0  0  0  0  0  0  0  0
  -41.3136   60.4820   63.8128 C   0  0  0  0  0  0  0  0  0  0  0  0
  -42.5776   60.4230   62.9732 C   0  0  0  0  0  0  0  0  0  0  0  0
  -42.5765   61.3691   61.7869 C   0  0  0  0  0  0  0  0  0  0  0  0
  -41.6148   60.9687   60.6813 C   0  0  0  0  0  0  0  0  0  0  0  0
  -41.7342   59.5072   60.2912 C   0  0  0  0  0  0  0  0  0  0  0  0
  -40.4323   58.8695   59.8455 C   0  0  0  0  0  0  0  0  0  0  0  0
  -39.2294   59.7527   60.1135 C   0  0  0  0  0  0  0  0  0  0  0  0
  -37.9854   59.2727   59.3948 C   0  0  0  0  0  0  0  0  0  0  0  0
  -32.6217   62.0303   62.4609 C   0  0  0  0  0  0  0  0  0  0  0  0
  -31.3701   61.9828   63.1553 O   0  0  0  0  0  0  0  0  0  0  0  0
  -29.7617   63.5261   61.4604 O   0  0  0  0  0  0  0  0  0  0  0  0
  -32.5144   66.3238   63.2264 O   0  0  0  0  0  0  0  0  0  0  0  0
  -31.8055   63.8286   64.4713 O   0  0  0  0  0  0  0  0  0  0  0  0
  -30.8937   63.2301   63.5690 C   0  0  0  0  0  0  0  0  0  0  0  0
  -30.7244   64.1041   62.3329 C   0  0  0  0  0  0  0  0  0  0  0  0
  -30.2891   65.5047   62.7448 C   0  0  0  0  0  0  0  0  0  0  0  0
  -31.2295   66.0838   63.7914 C   0  0  0  0  0  0  0  0  0  0  0  0
  -31.3640   65.1066   64.9566 C   0  0  0  0  0  0  0  0  0  0  0  0
  -30.0498   62.6356   61.2055 H   0  0  0  0  0  0  0  0  0  0  0  0
  -32.4312   66.9445   62.4857 H   0  0  0  0  0  0  0  0  0  0  0  0
  -33.2414   64.4915   66.3659 O   0  0  0  0  0  0  0  0  0  0  0  0
  -32.3688   65.5519   65.9931 C   0  0  0  0  0  0  0  0  0  0  0  0
  -33.8720   64.8100   67.0304 H   0  0  0  0  0  0  0  0  0  0  0  0
  -30.3787   66.2953   61.5175 O   0  0  0  0  0  0  0  0  0  0  0  0
  -32.2117   67.3079   60.3250 O   0  0  0  0  0  0  0  0  0  0  0  0
  -32.2867   64.8773   60.9590 O   0  0  0  0  0  0  0  0  0  0  0  0
  -30.8365   65.6845   59.2615 O   0  0  0  0  0  0  0  0  0  0  0  0
  -31.6073   66.0458   60.5418 S   0  0  0  0  0  0  0  0  0  0  0  0
  -32.7087   67.5686   61.1161 H   0  0  0  0  0  0  0  0  0  0  0  0
  -30.3552   66.4641   58.9430 H   0  0  0  0  0  0  0  0  0  0  0  0
  2  1  1  0  0  0
  2  4  1  0  0  0
  2  5  1  0  0  0
 47 48  1  0  0  0
 47  1  1  0  0  0
 48 52  1  0  0  0
  1 30  1  0  0  0
 29 30  1  0  0  0
 29 31  1  0  0  0
 30 32  1  0  0  0
  3  4  2  0  0  0
 32 33  2  0  0  0
 49 53  1  0  0  0
 49 57  1  0  0  0
 33 34  1  0  0  0
 62 54  1  0  0  0
 62 66  1  0  0  0
 34 35  1  0  0  0
 50 55  1  0  0  0
 50 58  1  0  0  0
 35 36  1  0  0  0
 51 52  1  0  0  0
 51 56  1  0  0  0
 36 37  1  0  0  0
 59 60  1  0  0  0
 59 61  1  0  0  0
 37 38  1  0  0  0
 63 66  1  0  0  0
 63 67  1  0  0  0
 38 39  1  0  0  0
 64 66  1  0  0  0
 39 40  1  0  0  0
 65 66  1  0  0  0
 65 68  1  0  0  0
 40 41  1  0  0  0
 41 42  1  0  0  0
 42 43  1  0  0  0
 43 44  1  0  0  0
 44 45  1  0  0  0
 45 46  1  0  0  0
  4  6  1  0  0  0
  6  7  1  0  0  0
  7  8  1  0  0  0
  8  9  1  0  0  0
  9 10  1  0  0  0
 10 11  1  0  0  0
 11 12  1  0  0  0
 12 13  1  0  0  0
 13 14  1  0  0  0
 14 15  1  0  0  0
 15 16  1  0  0  0
 16 17  1  0  0  0
 17 18  1  0  0  0
 18 19  1  0  0  0
 19 20  2  0  0  0
 20 21  1  0  0  0
 21 22  1  0  0  0
 22 23  1  0  0  0
 23 24  1  0  0  0
 24 25  1  0  0  0
 25 26  1  0  0  0
 26 27  1  0  0  0
 27 28  1  0  0  0
 52 53  1  0  0  0
 53 54  1  0  0  0
 54 55  1  0  0  0
 55 56  1  0  0  0
 56 60  1  0  0  0
M  CHG 1  64  -1
M  END
> <minimizedAffinity>
-9.12116

> <CNNscore>
0.1100132018

> <CNNaffinity>
7.0803327560

> <CNN_VS>
0.7789300680

> <CNNaffinity_variance>
1.4396909475

$$$$
/media/chris/experiments/cd1a-new-docking/inputs/ligands/7ryn_ligand.pdb


 68 68  0  0  0  0  0  0  0  0999 V2000
  -43.7496   57.2888   65.5154 C   0  0  0  0  0  0  0  0  0  0  0  0
  -43.2321   57.2432   64.1511 N   0  0  0  0  0  0  0  0  0  0  0  0
  -43.8531   59.3343   63.5948 O   0  0  0  0  0  0  0  0  0  0  0  0
  -43.3236   58.2671   63.2983 C   0  0  0  0  0  0  0  0  0  0  0  0
  -42.7938   56.4167   63.8444 H   0  0  0  0  0  0  0  0  0  0  0  0
  -42.7239   58.0354   61.9339 C   0  0  0  0  0  0  0  0  0  0  0  0
  -41.8643   59.2032   61.4669 C   0  0  0  0  0  0  0  0  0  0  0  0
  -40.6367   58.7543   60.6904 C   0  0  0  0  0  0  0  0  0  0  0  0
  -39.5582   59.8185   60.5739 C   0  0  0  0  0  0  0  0  0  0  0  0
  -38.2426   59.3022   60.0108 C   0  0  0  0  0  0  0  0  0  0  0  0
  -37.6079   58.1914   60.8378 C   0  0  0  0  0  0  0  0  0  0  0  0
  -36.5004   58.6704   61.7675 C   0  0  0  0  0  0  0  0  0  0  0  0
  -35.8727   57.5730   62.6232 C   0  0  0  0  0  0  0  0  0  0  0  0
  -34.3450   57.5656   62.6027 C   0  0  0  0  0  0  0  0  0  0  0  0
  -33.6884   58.2921   63.7763 C   0  0  0  0  0  0  0  0  0  0  0  0
  -32.4389   59.0801   63.3825 C   0  0  0  0  0  0  0  0  0  0  0  0
  -32.4250   59.5945   61.9431 C   0  0  0  0  0  0  0  0  0  0  0  0
  -31.6289   60.8842   61.7266 C   0  0  0  0  0  0  0  0  0  0  0  0
  -30.1846   60.7499   62.1140 C   0  0  0  0  0  0  0  0  0  0  0  0
  -29.4282   61.6975   62.6393 C   0  0  0  0  0  0  0  0  0  0  0  0
  -29.8613   63.0967   62.9571 C   0  0  0  0  0  0  0  0  0  0  0  0
  -29.7510   64.0582   61.7719 C   0  0  0  0  0  0  0  0  0  0  0  0
  -30.8184   65.1444   61.7765 C   0  0  0  0  0  0  0  0  0  0  0  0
  -32.0078   64.8274   60.8769 C   0  0  0  0  0  0  0  0  0  0  0  0
  -33.1736   64.1494   61.5876 C   0  0  0  0  0  0  0  0  0  0  0  0
  -33.3615   64.6041   63.0280 C   0  0  0  0  0  0  0  0  0  0  0  0
  -33.8374   63.5091   63.9693 C   0  0  0  0  0  0  0  0  0  0  0  0
  -32.7984   63.1292   65.0047 C   0  0  0  0  0  0  0  0  0  0  0  0
  -44.7673   59.0307   66.8440 O   0  0  0  0  0  0  0  0  0  0  0  0
  -44.8737   58.3339   65.5992 C   0  0  0  0  0  0  0  0  0  0  0  0
  -43.8871   59.4321   66.9156 H   0  0  0  0  0  0  0  0  0  0  0  0
  -46.2231   57.6997   65.4538 C   0  0  0  0  0  0  0  0  0  0  0  0
  -47.2820   57.9956   66.1813 C   0  0  0  0  0  0  0  0  0  0  0  0
  -48.6193   57.3552   66.0017 C   0  0  0  0  0  0  0  0  0  0  0  0
  -49.7347   58.4025   65.9971 C   0  0  0  0  0  0  0  0  0  0  0  0
  -49.2806   59.7947   65.5892 C   0  0  0  0  0  0  0  0  0  0  0  0
  -49.7936   60.2467   64.2327 C   0  0  0  0  0  0  0  0  0  0  0  0
  -51.1600   59.6839   63.8690 C   0  0  0  0  0  0  0  0  0  0  0  0
  -51.1808   58.9403   62.5425 C   0  0  0  0  0  0  0  0  0  0  0  0
  -49.9565   58.0731   62.3079 C   0  0  0  0  0  0  0  0  0  0  0  0
  -50.0238   57.2378   61.0428 C   0  0  0  0  0  0  0  0  0  0  0  0
  -49.9901   58.0554   59.7630 C   0  0  0  0  0  0  0  0  0  0  0  0
  -48.6326   58.0412   59.0852 C   0  0  0  0  0  0  0  0  0  0  0  0
  -47.9730   56.6764   59.0331 C   0  0  0  0  0  0  0  0  0  0  0  0
  -47.2321   56.4369   57.7321 C   0  0  0  0  0  0  0  0  0  0  0  0
  -47.0595   57.7043   56.9208 C   0  0  0  0  0  0  0  0  0  0  0  0
  -42.6260   57.5830   66.4877 C   0  0  0  0  0  0  0  0  0  0  0  0
  -42.2834   58.9688   66.3744 O   0  0  0  0  0  0  0  0  0  0  0  0
  -40.8003   61.3379   66.5447 O   0  0  0  0  0  0  0  0  0  0  0  0
  -37.8989   58.2722   65.7046 O   0  0  0  0  0  0  0  0  0  0  0  0
  -40.6794   58.0283   65.0066 O   0  0  0  0  0  0  0  0  0  0  0  0
  -41.2639   59.2365   65.4564 C   0  0  0  0  0  0  0  0  0  0  0  0
  -40.2195   60.1013   66.1503 C   0  0  0  0  0  0  0  0  0  0  0  0
  -39.0440   60.3462   65.2127 C   0  0  0  0  0  0  0  0  0  0  0  0
  -38.5003   59.0354   64.6637 C   0  0  0  0  0  0  0  0  0  0  0  0
  -39.6371   58.2305   64.0388 C   0  0  0  0  0  0  0  0  0  0  0  0
  -41.5467   61.1690   67.1408 H   0  0  0  0  0  0  0  0  0  0  0  0
  -37.1762   58.7819   66.1031 H   0  0  0  0  0  0  0  0  0  0  0  0
  -40.3161   56.0873   63.1251 O   0  0  0  0  0  0  0  0  0  0  0  0
  -39.2068   56.8614   63.5668 C   0  0  0  0  0  0  0  0  0  0  0  0
  -40.0061   55.2170   62.8299 H   0  0  0  0  0  0  0  0  0  0  0  0
  -38.0286   60.9825   66.0514 O   0  0  0  0  0  0  0  0  0  0  0  0
  -37.2734   62.1019   64.0554 O   0  0  0  0  0  0  0  0  0  0  0  0
  -35.6267   61.0153   65.6121 O   0  0  0  0  0  0  0  0  0  0  0  0
  -36.7803   63.0053   66.1998 O   0  0  0  0  0  0  0  0  0  0  0  0
  -36.8182   61.7290   65.3435 S   0  0  0  0  0  0  0  0  0  0  0  0
  -37.3098   61.3177   63.4858 H   0  0  0  0  0  0  0  0  0  0  0  0
  -37.5848   63.5241   66.0426 H   0  0  0  0  0  0  0  0  0  0  0  0
  2  1  1  0  0  0
  2  4  1  0  0  0
  2  5  1  0  0  0
 47 48  1  0  0  0
 47  1  1  0  0  0
 48 52  1  0  0  0
  1 30  1  0  0  0
 29 30  1  0  0  0
 29 31  1  0  0  0
 30 32  1  0  0  0
  3  4  2  0  0  0
 32 33  2  0  0  0
 49 53  1  0  0  0
 49 57  1  0  0  0
 33 34  1  0  0  0
 62 54  1  0  0  0
 62 66  1  0  0  0
 34 35  1  0  0  0
 50 55  1  0  0  0
 50 58  1  0  0  0
 35 36  1  0  0  0
 51 52  1  0  0  0
 51 56  1  0  0  0
 36 37  1  0  0  0
 59 60  1  0  0  0
 59 61  1  0  0  0
 37 38  1  0  0  0
 63 66  1  0  0  0
 63 67  1  0  0  0
 38 39  1  0  0  0
 64 66  1  0  0  0
 39 40  1  0  0  0
 65 66  1  0  0  0
 65 68  1  0  0  0
 40 41  1  0  0  0
 41 42  1  0  0  0
 42 43  1  0  0  0
 43 44  1  0  0  0
 44 45  1  0  0  0
 45 46  1  0  0  0
  4  6  1  0  0  0
  6  7  1  0  0  0
  7  8  1  0  0  0
  8  9  1  0  0  0
  9 10  1  0  0  0
 10 11  1  0  0  0
 11 12  1  0  0  0
 12 13  1  0  0  0
 13 14  1  0  0  0
 14 15  1  0  0  0
 15 16  1  0  0  0
 16 17  1  0  0  0
 17 18  1  0  0  0
 18 19  1  0  0  0
 19 20  2  0  0  0
 20 21  1  0  0  0
 21 22  1  0  0  0
 22 23  1  0  0  0
 23 24  1  0  0  0
 24 25  1  0  0  0
 25 26  1  0  0  0
 26 27  1  0  0  0
 27 28  1  0  0  0
 52 53  1  0  0  0
 53 54  1  0  0  0
 54 55  1  0  0  0
 55 56  1  0  0  0
 56 60  1  0  0  0
M  CHG 1  64  -1
M  END
> <minimizedAffinity>
-8.90510

> <CNNscore>
0.1089269370

> <CNNaffinity>
7.0345735550

> <CNN_VS>
0.7662545443

> <CNNaffinity_variance>
1.4959630966

$$$$
/media/chris/experiments/cd1a-new-docking/inputs/ligands/7ryn_ligand.pdb


 68 68  0  0  0  0  0  0  0  0999 V2000
  -35.3154   58.3284   62.0688 C   0  0  0  0  0  0  0  0  0  0  0  0
  -36.6166   57.6899   62.2435 N   0  0  0  0  0  0  0  0  0  0  0  0
  -37.5964   58.6649   60.4666 O   0  0  0  0  0  0  0  0  0  0  0  0
  -37.6541   57.9071   61.4307 C   0  0  0  0  0  0  0  0  0  0  0  0
  -36.7353   57.0685   62.9978 H   0  0  0  0  0  0  0  0  0  0  0  0
  -38.9154   57.1511   61.7666 C   0  0  0  0  0  0  0  0  0  0  0  0
  -40.1148   57.6253   60.9559 C   0  0  0  0  0  0  0  0  0  0  0  0
  -41.4179   56.9854   61.4075 C   0  0  0  0  0  0  0  0  0  0  0  0
  -41.9475   57.5290   62.7240 C   0  0  0  0  0  0  0  0  0  0  0  0
  -42.0161   56.4919   63.8349 C   0  0  0  0  0  0  0  0  0  0  0  0
  -43.0750   56.7835   64.8905 C   0  0  0  0  0  0  0  0  0  0  0  0
  -44.0822   57.8485   64.4762 C   0  0  0  0  0  0  0  0  0  0  0  0
  -44.7461   58.5798   65.6403 C   0  0  0  0  0  0  0  0  0  0  0  0
  -45.7176   57.7170   66.4440 C   0  0  0  0  0  0  0  0  0  0  0  0
  -46.6368   58.4982   67.3827 C   0  0  0  0  0  0  0  0  0  0  0  0
  -47.7130   59.3013   66.6521 C   0  0  0  0  0  0  0  0  0  0  0  0
  -48.8710   58.4740   66.0940 C   0  0  0  0  0  0  0  0  0  0  0  0
  -48.7780   58.1610   64.5982 C   0  0  0  0  0  0  0  0  0  0  0  0
  -48.6596   59.3946   63.7506 C   0  0  0  0  0  0  0  0  0  0  0  0
  -49.5983   59.8925   62.9652 C   0  0  0  0  0  0  0  0  0  0  0  0
  -50.9719   59.3274   62.7651 C   0  0  0  0  0  0  0  0  0  0  0  0
  -50.9884   58.0190   61.9718 C   0  0  0  0  0  0  0  0  0  0  0  0
  -50.2444   58.1094   60.6460 C   0  0  0  0  0  0  0  0  0  0  0  0
  -49.4930   56.8326   60.2858 C   0  0  0  0  0  0  0  0  0  0  0  0
  -48.1047   57.0615   59.6992 C   0  0  0  0  0  0  0  0  0  0  0  0
  -48.0687   58.1172   58.6033 C   0  0  0  0  0  0  0  0  0  0  0  0
  -47.1746   57.7621   57.4260 C   0  0  0  0  0  0  0  0  0  0  0  0
  -47.2115   56.2869   57.0819 C   0  0  0  0  0  0  0  0  0  0  0  0
  -34.8067   56.8176   63.8837 O   0  0  0  0  0  0  0  0  0  0  0  0
  -34.2335   57.4748   62.7497 C   0  0  0  0  0  0  0  0  0  0  0  0
  -35.5676   56.2872   63.5995 H   0  0  0  0  0  0  0  0  0  0  0  0
  -33.0531   58.3051   63.1516 C   0  0  0  0  0  0  0  0  0  0  0  0
  -32.3041   59.0078   62.3250 C   0  0  0  0  0  0  0  0  0  0  0  0
  -31.1414   59.8387   62.7592 C   0  0  0  0  0  0  0  0  0  0  0  0
  -30.5407   60.6042   61.5784 C   0  0  0  0  0  0  0  0  0  0  0  0
  -31.2848   61.8802   61.2196 C   0  0  0  0  0  0  0  0  0  0  0  0
  -31.4602   62.8477   62.3775 C   0  0  0  0  0  0  0  0  0  0  0  0
  -30.2626   63.7572   62.6106 C   0  0  0  0  0  0  0  0  0  0  0  0
  -29.8733   63.8913   64.0747 C   0  0  0  0  0  0  0  0  0  0  0  0
  -30.0947   65.2825   64.6418 C   0  0  0  0  0  0  0  0  0  0  0  0
  -31.1380   65.3428   65.7420 C   0  0  0  0  0  0  0  0  0  0  0  0
  -32.5631   65.4727   65.2323 C   0  0  0  0  0  0  0  0  0  0  0  0
  -32.6972   66.4634   64.0909 C   0  0  0  0  0  0  0  0  0  0  0  0
  -33.3727   65.9050   62.8531 C   0  0  0  0  0  0  0  0  0  0  0  0
  -34.7775   65.4066   63.1308 C   0  0  0  0  0  0  0  0  0  0  0  0
  -34.9011   63.9047   62.9779 C   0  0  0  0  0  0  0  0  0  0  0  0
  -35.3524   59.7409   62.6145 C   0  0  0  0  0  0  0  0  0  0  0  0
  -35.5786   59.6724   64.0269 O   0  0  0  0  0  0  0  0  0  0  0  0
  -38.3525   59.3180   64.1727 O   0  0  0  0  0  0  0  0  0  0  0  0
  -37.2816   61.2179   67.8830 O   0  0  0  0  0  0  0  0  0  0  0  0
  -35.6995   61.4526   65.4914 O   0  0  0  0  0  0  0  0  0  0  0  0
  -36.3993   60.6868   64.5283 C   0  0  0  0  0  0  0  0  0  0  0  0
  -37.6224   60.0349   65.1602 C   0  0  0  0  0  0  0  0  0  0  0  0
  -38.5050   61.0999   65.7987 C   0  0  0  0  0  0  0  0  0  0  0  0
  -37.7040   61.9739   66.7526 C   0  0  0  0  0  0  0  0  0  0  0  0
  -36.4795   62.5315   66.0311 C   0  0  0  0  0  0  0  0  0  0  0  0
  -37.7805   58.6436   63.7739 H   0  0  0  0  0  0  0  0  0  0  0  0
  -38.0582   60.8625   68.3428 H   0  0  0  0  0  0  0  0  0  0  0  0
  -36.2750   63.8908   68.0310 O   0  0  0  0  0  0  0  0  0  0  0  0
  -35.5648   63.3223   66.9368 C   0  0  0  0  0  0  0  0  0  0  0  0
  -35.6604   64.3903   68.5910 H   0  0  0  0  0  0  0  0  0  0  0  0
  -39.5069   60.3464   66.5522 O   0  0  0  0  0  0  0  0  0  0  0  0
  -41.7842   59.7663   67.0858 O   0  0  0  0  0  0  0  0  0  0  0  0
  -41.0942   60.1762   64.7043 O   0  0  0  0  0  0  0  0  0  0  0  0
  -41.2545   61.9418   66.2833 O   0  0  0  0  0  0  0  0  0  0  0  0
  -41.0254   60.4334   66.0936 S   0  0  0  0  0  0  0  0  0  0  0  0
  -41.6630   58.8081   66.9957 H   0  0  0  0  0  0  0  0  0  0  0  0
  -41.2145   62.1587   67.2279 H   0  0  0  0  0  0  0  0  0  0  0  0
  2  1  1  0  0  0
  2  4  1  0  0  0
  2  5  1  0  0  0
 47 48  1  0  0  0
 47  1  1  0  0  0
 48 52  1  0  0  0
  1 30  1  0  0  0
 29 30  1  0  0  0
 29 31  1  0  0  0
 30 32  1  0  0  0
  3  4  2  0  0  0
 32 33  2  0  0  0
 49 53  1  0  0  0
 49 57  1  0  0  0
 33 34  1  0  0  0
 62 54  1  0  0  0
 62 66  1  0  0  0
 34 35  1  0  0  0
 50 55  1  0  0  0
 50 58  1  0  0  0
 35 36  1  0  0  0
 51 52  1  0  0  0
 51 56  1  0  0  0
 36 37  1  0  0  0
 59 60  1  0  0  0
 59 61  1  0  0  0
 37 38  1  0  0  0
 63 66  1  0  0  0
 63 67  1  0  0  0
 38 39  1  0  0  0
 64 66  1  0  0  0
 39 40  1  0  0  0
 65 66  1  0  0  0
 65 68  1  0  0  0
 40 41  1  0  0  0
 41 42  1  0  0  0
 42 43  1  0  0  0
 43 44  1  0  0  0
 44 45  1  0  0  0
 45 46  1  0  0  0
  4  6  1  0  0  0
  6  7  1  0  0  0
  7  8  1  0  0  0
  8  9  1  0  0  0
  9 10  1  0  0  0
 10 11  1  0  0  0
 11 12  1  0  0  0
 12 13  1  0  0  0
 13 14  1  0  0  0
 14 15  1  0  0  0
 15 16  1  0  0  0
 16 17  1  0  0  0
 17 18  1  0  0  0
 18 19  1  0  0  0
 19 20  2  0  0  0
 20 21  1  0  0  0
 21 22  1  0  0  0
 22 23  1  0  0  0
 23 24  1  0  0  0
 24 25  1  0  0  0
 25 26  1  0  0  0
 26 27  1  0  0  0
 27 28  1  0  0  0
 52 53  1  0  0  0
 53 54  1  0  0  0
 54 55  1  0  0  0
 55 56  1  0  0  0
 56 60  1  0  0  0
M  CHG 1  64  -1
M  END
> <minimizedAffinity>
-8.06361

> <CNNscore>
0.1063795388

> <CNNaffinity>
7.0854096413

> <CNN_VS>
0.7537426353

> <CNNaffinity_variance>
0.7081569433

$$$$
/media/chris/experiments/cd1a-new-docking/inputs/ligands/7ryn_ligand.pdb


 68 68  0  0  0  0  0  0  0  0999 V2000
  -36.0136   59.2085   64.0737 C   0  0  0  0  0  0  0  0  0  0  0  0
  -37.1004   59.2802   65.0459 N   0  0  0  0  0  0  0  0  0  0  0  0
  -37.7884   61.3466   64.4762 O   0  0  0  0  0  0  0  0  0  0  0  0
  -37.9019   60.3413   65.1716 C   0  0  0  0  0  0  0  0  0  0  0  0
  -37.2499   58.5082   65.6383 H   0  0  0  0  0  0  0  0  0  0  0  0
  -38.9737   60.2280   66.2269 C   0  0  0  0  0  0  0  0  0  0  0  0
  -40.3702   60.1039   65.6311 C   0  0  0  0  0  0  0  0  0  0  0  0
  -41.4231   60.8374   66.4465 C   0  0  0  0  0  0  0  0  0  0  0  0
  -42.3576   59.9183   67.2154 C   0  0  0  0  0  0  0  0  0  0  0  0
  -42.1772   58.4436   66.8877 C   0  0  0  0  0  0  0  0  0  0  0  0
  -43.4784   57.6519   66.8571 C   0  0  0  0  0  0  0  0  0  0  0  0
  -44.7270   58.5203   66.7724 C   0  0  0  0  0  0  0  0  0  0  0  0
  -46.0411   57.7557   66.9106 C   0  0  0  0  0  0  0  0  0  0  0  0
  -46.9234   57.8049   65.6643 C   0  0  0  0  0  0  0  0  0  0  0  0
  -46.8266   59.1048   64.8659 C   0  0  0  0  0  0  0  0  0  0  0  0
  -48.0930   59.9581   64.9358 C   0  0  0  0  0  0  0  0  0  0  0  0
  -49.0629   59.5863   66.0573 C   0  0  0  0  0  0  0  0  0  0  0  0
  -50.3673   58.9335   65.5920 C   0  0  0  0  0  0  0  0  0  0  0  0
  -51.2190   59.8551   64.7677 C   0  0  0  0  0  0  0  0  0  0  0  0
  -51.4900   59.7222   63.4813 C   0  0  0  0  0  0  0  0  0  0  0  0
  -51.0037   58.6224   62.5867 C   0  0  0  0  0  0  0  0  0  0  0  0
  -49.6157   58.8792   61.9961 C   0  0  0  0  0  0  0  0  0  0  0  0
  -49.6314   59.0795   60.4865 C   0  0  0  0  0  0  0  0  0  0  0  0
  -49.9498   57.8063   59.7107 C   0  0  0  0  0  0  0  0  0  0  0  0
  -48.9756   56.6591   59.9532 C   0  0  0  0  0  0  0  0  0  0  0  0
  -48.0487   56.3832   58.7777 C   0  0  0  0  0  0  0  0  0  0  0  0
  -47.4313   57.6307   58.1658 C   0  0  0  0  0  0  0  0  0  0  0  0
  -47.4201   57.6004   56.6510 C   0  0  0  0  0  0  0  0  0  0  0  0
  -34.6060   57.3231   63.5271 O   0  0  0  0  0  0  0  0  0  0  0  0
  -35.9563   57.7930   63.4772 C   0  0  0  0  0  0  0  0  0  0  0  0
  -34.2887   57.3481   64.4434 H   0  0  0  0  0  0  0  0  0  0  0  0
  -36.4807   57.7683   62.0741 C   0  0  0  0  0  0  0  0  0  0  0  0
  -37.1834   58.7309   61.5106 C   0  0  0  0  0  0  0  0  0  0  0  0
  -37.6798   58.6828   60.1028 C   0  0  0  0  0  0  0  0  0  0  0  0
  -39.0406   59.3707   59.9754 C   0  0  0  0  0  0  0  0  0  0  0  0
  -40.2141   58.4124   59.8522 C   0  0  0  0  0  0  0  0  0  0  0  0
  -41.5765   59.0767   59.9540 C   0  0  0  0  0  0  0  0  0  0  0  0
  -41.5530   60.4343   60.6411 C   0  0  0  0  0  0  0  0  0  0  0  0
  -41.5059   60.3499   62.1590 C   0  0  0  0  0  0  0  0  0  0  0  0
  -42.8452   60.6050   62.8278 C   0  0  0  0  0  0  0  0  0  0  0  0
  -43.3634   59.4332   63.6408 C   0  0  0  0  0  0  0  0  0  0  0  0
  -43.3249   58.1066   62.9018 C   0  0  0  0  0  0  0  0  0  0  0  0
  -42.4013   57.0924   63.5504 C   0  0  0  0  0  0  0  0  0  0  0  0
  -41.6369   56.2242   62.5694 C   0  0  0  0  0  0  0  0  0  0  0  0
  -40.1451   56.4935   62.5930 C   0  0  0  0  0  0  0  0  0  0  0  0
  -39.7369   57.3988   63.7367 C   0  0  0  0  0  0  0  0  0  0  0  0
  -34.7054   59.6038   64.7269 C   0  0  0  0  0  0  0  0  0  0  0  0
  -33.9741   60.4251   63.8096 O   0  0  0  0  0  0  0  0  0  0  0  0
  -32.6783   62.2950   62.1769 O   0  0  0  0  0  0  0  0  0  0  0  0
  -35.8024   64.5126   64.1378 O   0  0  0  0  0  0  0  0  0  0  0  0
  -34.6693   62.1049   65.2319 O   0  0  0  0  0  0  0  0  0  0  0  0
  -33.6954   61.7102   64.2837 C   0  0  0  0  0  0  0  0  0  0  0  0
  -33.6999   62.6628   63.0951 C   0  0  0  0  0  0  0  0  0  0  0  0
  -33.4865   64.0924   63.5764 C   0  0  0  0  0  0  0  0  0  0  0  0
  -34.4821   64.4559   64.6682 C   0  0  0  0  0  0  0  0  0  0  0  0
  -34.4282   63.4109   65.7798 C   0  0  0  0  0  0  0  0  0  0  0  0
  -32.8250   61.3839   61.8780 H   0  0  0  0  0  0  0  0  0  0  0  0
  -35.8388   65.1760   63.4311 H   0  0  0  0  0  0  0  0  0  0  0  0
  -36.7764   63.3346   66.3875 O   0  0  0  0  0  0  0  0  0  0  0  0
  -35.4659   63.6327   66.8551 C   0  0  0  0  0  0  0  0  0  0  0  0
  -37.4165   63.4870   67.1000 H   0  0  0  0  0  0  0  0  0  0  0  0
  -33.7329   64.9203   62.3960 O   0  0  0  0  0  0  0  0  0  0  0  0
  -32.1789   64.8998   60.5543 O   0  0  0  0  0  0  0  0  0  0  0  0
  -31.5818   66.0304   62.7178 O   0  0  0  0  0  0  0  0  0  0  0  0
  -33.2045   66.9337   61.2390 O   0  0  0  0  0  0  0  0  0  0  0  0
  -32.5001   65.6512   61.7108 S   0  0  0  0  0  0  0  0  0  0  0  0
  -31.7311   64.0799   60.8155 H   0  0  0  0  0  0  0  0  0  0  0  0
  -33.8454   66.7139   60.5448 H   0  0  0  0  0  0  0  0  0  0  0  0
  2  1  1  0  0  0
  2  4  1  0  0  0
  2  5  1  0  0  0
 47 48  1  0  0  0
 47  1  1  0  0  0
 48 52  1  0  0  0
  1 30  1  0  0  0
 29 30  1  0  0  0
 29 31  1  0  0  0
 30 32  1  0  0  0
  3  4  2  0  0  0
 32 33  2  0  0  0
 49 53  1  0  0  0
 49 57  1  0  0  0
 33 34  1  0  0  0
 62 54  1  0  0  0
 62 66  1  0  0  0
 34 35  1  0  0  0
 50 55  1  0  0  0
 50 58  1  0  0  0
 35 36  1  0  0  0
 51 52  1  0  0  0
 51 56  1  0  0  0
 36 37  1  0  0  0
 59 60  1  0  0  0
 59 61  1  0  0  0
 37 38  1  0  0  0
 63 66  1  0  0  0
 63 67  1  0  0  0
 38 39  1  0  0  0
 64 66  1  0  0  0
 39 40  1  0  0  0
 65 66  1  0  0  0
 65 68  1  0  0  0
 40 41  1  0  0  0
 41 42  1  0  0  0
 42 43  1  0  0  0
 43 44  1  0  0  0
 44 45  1  0  0  0
 45 46  1  0  0  0
  4  6  1  0  0  0
  6  7  1  0  0  0
  7  8  1  0  0  0
  8  9  1  0  0  0
  9 10  1  0  0  0
 10 11  1  0  0  0
 11 12  1  0  0  0
 12 13  1  0  0  0
 13 14  1  0  0  0
 14 15  1  0  0  0
 15 16  1  0  0  0
 16 17  1  0  0  0
 17 18  1  0  0  0
 18 19  1  0  0  0
 19 20  2  0  0  0
 20 21  1  0  0  0
 21 22  1  0  0  0
 22 23  1  0  0  0
 23 24  1  0  0  0
 24 25  1  0  0  0
 25 26  1  0  0  0
 26 27  1  0  0  0
 27 28  1  0  0  0
 52 53  1  0  0  0
 53 54  1  0  0  0
 54 55  1  0  0  0
 55 56  1  0  0  0
 56 60  1  0  0  0
M  CHG 1  64  -1
M  END
> <minimizedAffinity>
-9.64558

> <CNNscore>
0.1045725495

> <CNNaffinity>
7.3728704453

> <CNN_VS>
0.7709998488

> <CNNaffinity_variance>
2.0842883587

$$$$
/media/chris/experiments/cd1a-new-docking/inputs/ligands/7ryn_ligand.pdb


 68 68  0  0  0  0  0  0  0  0999 V2000
  -34.9619   61.5092   65.7074 C   0  0  0  0  0  0  0  0  0  0  0  0
  -34.7438   60.3165   64.8942 N   0  0  0  0  0  0  0  0  0  0  0  0
  -36.0312   60.9715   63.1675 O   0  0  0  0  0  0  0  0  0  0  0  0
  -35.2941   60.1403   63.6900 C   0  0  0  0  0  0  0  0  0  0  0  0
  -34.1623   59.6068   65.2512 H   0  0  0  0  0  0  0  0  0  0  0  0
  -34.9465   58.8466   62.9967 C   0  0  0  0  0  0  0  0  0  0  0  0
  -35.3615   57.6218   63.8017 C   0  0  0  0  0  0  0  0  0  0  0  0
  -36.8191   57.6687   64.2316 C   0  0  0  0  0  0  0  0  0  0  0  0
  -37.7963   57.2621   63.1413 C   0  0  0  0  0  0  0  0  0  0  0  0
  -39.2392   57.6455   63.4341 C   0  0  0  0  0  0  0  0  0  0  0  0
  -40.2520   56.5643   63.0791 C   0  0  0  0  0  0  0  0  0  0  0  0
  -41.3406   56.3709   64.1269 C   0  0  0  0  0  0  0  0  0  0  0  0
  -42.6743   57.0299   63.7840 C   0  0  0  0  0  0  0  0  0  0  0  0
  -43.4970   57.4406   65.0041 C   0  0  0  0  0  0  0  0  0  0  0  0
  -44.5801   58.4815   64.7213 C   0  0  0  0  0  0  0  0  0  0  0  0
  -45.9834   58.0238   65.1191 C   0  0  0  0  0  0  0  0  0  0  0  0
  -46.6637   58.8777   66.1890 C   0  0  0  0  0  0  0  0  0  0  0  0
  -48.0604   59.3838   65.8185 C   0  0  0  0  0  0  0  0  0  0  0  0
  -48.0450   60.3481   64.6678 C   0  0  0  0  0  0  0  0  0  0  0  0
  -48.9968   60.4960   63.7632 C   0  0  0  0  0  0  0  0  0  0  0  0
  -50.2852   59.7324   63.7060 C   0  0  0  0  0  0  0  0  0  0  0  0
  -50.1464   58.3381   63.0912 C   0  0  0  0  0  0  0  0  0  0  0  0
  -50.8377   58.2040   61.7409 C   0  0  0  0  0  0  0  0  0  0  0  0
  -49.9353   58.5514   60.5622 C   0  0  0  0  0  0  0  0  0  0  0  0
  -48.7665   57.5942   60.3585 C   0  0  0  0  0  0  0  0  0  0  0  0
  -48.5763   57.1579   58.9126 C   0  0  0  0  0  0  0  0  0  0  0  0
  -47.7517   58.1222   58.0749 C   0  0  0  0  0  0  0  0  0  0  0  0
  -47.3055   57.5242   56.7561 C   0  0  0  0  0  0  0  0  0  0  0  0
  -36.4998   63.3578   65.9359 O   0  0  0  0  0  0  0  0  0  0  0  0
  -36.4114   61.9890   65.5297 C   0  0  0  0  0  0  0  0  0  0  0  0
  -35.8720   63.8889   65.4215 H   0  0  0  0  0  0  0  0  0  0  0  0
  -37.3692   61.1370   66.3049 C   0  0  0  0  0  0  0  0  0  0  0  0
  -38.3513   60.4311   65.7802 C   0  0  0  0  0  0  0  0  0  0  0  0
  -39.2813   59.5785   66.5795 C   0  0  0  0  0  0  0  0  0  0  0  0
  -40.6882   59.5855   65.9781 C   0  0  0  0  0  0  0  0  0  0  0  0
  -41.3471   60.9551   65.9500 C   0  0  0  0  0  0  0  0  0  0  0  0
  -41.8314   61.3873   64.5766 C   0  0  0  0  0  0  0  0  0  0  0  0
  -41.4540   60.4279   63.4572 C   0  0  0  0  0  0  0  0  0  0  0  0
  -42.4823   60.3596   62.3387 C   0  0  0  0  0  0  0  0  0  0  0  0
  -42.1077   61.1735   61.1126 C   0  0  0  0  0  0  0  0  0  0  0  0
  -41.4934   60.3556   59.9917 C   0  0  0  0  0  0  0  0  0  0  0  0
  -41.5925   58.8542   60.1999 C   0  0  0  0  0  0  0  0  0  0  0  0
  -40.2769   58.1347   59.9675 C   0  0  0  0  0  0  0  0  0  0  0  0
  -39.1709   59.0143   59.4166 C   0  0  0  0  0  0  0  0  0  0  0  0
  -38.0758   59.2774   60.4316 C   0  0  0  0  0  0  0  0  0  0  0  0
  -38.3868   60.4583   61.3278 C   0  0  0  0  0  0  0  0  0  0  0  0
  -33.9584   62.5815   65.3364 C   0  0  0  0  0  0  0  0  0  0  0  0
  -34.4695   63.3074   64.2127 O   0  0  0  0  0  0  0  0  0  0  0  0
  -33.3375   65.7841   63.5604 O   0  0  0  0  0  0  0  0  0  0  0  0
  -30.0961   62.9694   63.2550 O   0  0  0  0  0  0  0  0  0  0  0  0
  -32.8577   62.2118   62.9759 O   0  0  0  0  0  0  0  0  0  0  0  0
  -33.5745   63.4205   63.1451 C   0  0  0  0  0  0  0  0  0  0  0  0
  -32.6158   64.5637   63.4523 C   0  0  0  0  0  0  0  0  0  0  0  0
  -31.5652   64.6679   62.3540 C   0  0  0  0  0  0  0  0  0  0  0  0
  -30.8814   63.3284   62.1227 C   0  0  0  0  0  0  0  0  0  0  0  0
  -31.9346   62.2511   61.8757 C   0  0  0  0  0  0  0  0  0  0  0  0
  -34.0026   65.7054   64.2621 H   0  0  0  0  0  0  0  0  0  0  0  0
  -29.4263   63.6527   63.4137 H   0  0  0  0  0  0  0  0  0  0  0  0
  -30.5008   60.7585   60.6087 O   0  0  0  0  0  0  0  0  0  0  0  0
  -31.3482   60.8648   61.7469 C   0  0  0  0  0  0  0  0  0  0  0  0
  -30.1420   59.8589   60.5555 H   0  0  0  0  0  0  0  0  0  0  0  0
  -30.5906   65.6314   62.8651 O   0  0  0  0  0  0  0  0  0  0  0  0
  -29.5345   67.7974   62.8628 O   0  0  0  0  0  0  0  0  0  0  0  0
  -31.5757   67.3694   61.4608 O   0  0  0  0  0  0  0  0  0  0  0  0
  -29.4655   66.4245   60.9217 O   0  0  0  0  0  0  0  0  0  0  0  0
  -30.3522   66.9744   62.0509 S   0  0  0  0  0  0  0  0  0  0  0  0
  -30.0636   68.1631   63.5889 H   0  0  0  0  0  0  0  0  0  0  0  0
  -28.6131   66.1419   61.2885 H   0  0  0  0  0  0  0  0  0  0  0  0
  2  1  1  0  0  0
  2  4  1  0  0  0
  2  5  1  0  0  0
 47 48  1  0  0  0
 47  1  1  0  0  0
 48 52  1  0  0  0
  1 30  1  0  0  0
 29 30  1  0  0  0
 29 31  1  0  0  0
 30 32  1  0  0  0
  3  4  2  0  0  0
 32 33  2  0  0  0
 49 53  1  0  0  0
 49 57  1  0  0  0
 33 34  1  0  0  0
 62 54  1  0  0  0
 62 66  1  0  0  0
 34 35  1  0  0  0
 50 55  1  0  0  0
 50 58  1  0  0  0
 35 36  1  0  0  0
 51 52  1  0  0  0
 51 56  1  0  0  0
 36 37  1  0  0  0
 59 60  1  0  0  0
 59 61  1  0  0  0
 37 38  1  0  0  0
 63 66  1  0  0  0
 63 67  1  0  0  0
 38 39  1  0  0  0
 64 66  1  0  0  0
 39 40  1  0  0  0
 65 66  1  0  0  0
 65 68  1  0  0  0
 40 41  1  0  0  0
 41 42  1  0  0  0
 42 43  1  0  0  0
 43 44  1  0  0  0
 44 45  1  0  0  0
 45 46  1  0  0  0
  4  6  1  0  0  0
  6  7  1  0  0  0
  7  8  1  0  0  0
  8  9  1  0  0  0
  9 10  1  0  0  0
 10 11  1  0  0  0
 11 12  1  0  0  0
 12 13  1  0  0  0
 13 14  1  0  0  0
 14 15  1  0  0  0
 15 16  1  0  0  0
 16 17  1  0  0  0
 17 18  1  0  0  0
 18 19  1  0  0  0
 19 20  2  0  0  0
 20 21  1  0  0  0
 21 22  1  0  0  0
 22 23  1  0  0  0
 23 24  1  0  0  0
 24 25  1  0  0  0
 25 26  1  0  0  0
 26 27  1  0  0  0
 27 28  1  0  0  0
 52 53  1  0  0  0
 53 54  1  0  0  0
 54 55  1  0  0  0
 55 56  1  0  0  0
 56 60  1  0  0  0
M  CHG 1  64  -1
M  END
> <minimizedAffinity>
-8.53041

> <CNNscore>
0.1035825536

> <CNNaffinity>
7.1283044815

> <CNN_VS>
0.7383679748

> <CNNaffinity_variance>
1.1616548300

$$$$
