/media/chris/experiments/cd1a-new-docking/inputs/ligands/7ryn_ligand.pdb


 68 68  0  0  0  0  0  0  0  0999 V2000
  -39.8414   59.8691   65.2165 C   0  0  0  0  0  0  0  0  0  0  0  0
  -39.6910   59.7009   63.7741 N   0  0  0  0  0  0  0  0  0  0  0  0
  -40.7714   61.5919   63.2038 O   0  0  0  0  0  0  0  0  0  0  0  0
  -40.1665   60.5734   62.8814 C   0  0  0  0  0  0  0  0  0  0  0  0
  -39.2156   58.9050   63.4430 H   0  0  0  0  0  0  0  0  0  0  0  0
  -39.9071   60.2335   61.4349 C   0  0  0  0  0  0  0  0  0  0  0  0
  -41.1904   59.9784   60.6548 C   0  0  0  0  0  0  0  0  0  0  0  0
  -41.1438   58.6861   59.8554 C   0  0  0  0  0  0  0  0  0  0  0  0
  -41.8557   57.5220   60.5242 C   0  0  0  0  0  0  0  0  0  0  0  0
  -42.4625   57.8665   61.8762 C   0  0  0  0  0  0  0  0  0  0  0  0
  -41.9775   56.9811   63.0169 C   0  0  0  0  0  0  0  0  0  0  0  0
  -40.7387   56.1618   62.6783 C   0  0  0  0  0  0  0  0  0  0  0  0
  -39.4169   56.8266   63.0543 C   0  0  0  0  0  0  0  0  0  0  0  0
  -38.4137   56.9101   61.9051 C   0  0  0  0  0  0  0  0  0  0  0  0
  -37.0970   57.6019   62.2579 C   0  0  0  0  0  0  0  0  0  0  0  0
  -36.6869   57.4214   63.7196 C   0  0  0  0  0  0  0  0  0  0  0  0
  -35.1824   57.4866   63.9824 C   0  0  0  0  0  0  0  0  0  0  0  0
  -34.3547   58.0918   62.8454 C   0  0  0  0  0  0  0  0  0  0  0  0
  -32.8787   58.0607   63.1180 C   0  0  0  0  0  0  0  0  0  0  0  0
  -32.0348   59.0636   62.9510 C   0  0  0  0  0  0  0  0  0  0  0  0
  -32.3823   60.4357   62.4581 C   0  0  0  0  0  0  0  0  0  0  0  0
  -31.2737   61.0909   61.6317 C   0  0  0  0  0  0  0  0  0  0  0  0
  -30.2650   61.8570   62.4772 C   0  0  0  0  0  0  0  0  0  0  0  0
  -30.1787   63.3372   62.1226 C   0  0  0  0  0  0  0  0  0  0  0  0
  -30.8389   64.2680   63.1333 C   0  0  0  0  0  0  0  0  0  0  0  0
  -31.1941   63.5908   64.4495 C   0  0  0  0  0  0  0  0  0  0  0  0
  -31.8119   64.5212   65.4812 C   0  0  0  0  0  0  0  0  0  0  0  0
  -30.9720   65.7558   65.7393 C   0  0  0  0  0  0  0  0  0  0  0  0
  -41.0094   61.6983   66.2770 O   0  0  0  0  0  0  0  0  0  0  0  0
  -41.2091   60.5038   65.5156 C   0  0  0  0  0  0  0  0  0  0  0  0
  -40.4251   62.2992   65.7887 H   0  0  0  0  0  0  0  0  0  0  0  0
  -42.1087   59.5503   66.2406 C   0  0  0  0  0  0  0  0  0  0  0  0
  -43.0793   58.8526   65.6848 C   0  0  0  0  0  0  0  0  0  0  0  0
  -43.9503   57.8974   66.4328 C   0  0  0  0  0  0  0  0  0  0  0  0
  -45.3325   58.5002   66.6918 C   0  0  0  0  0  0  0  0  0  0  0  0
  -46.4206   57.9856   65.7634 C   0  0  0  0  0  0  0  0  0  0  0  0
  -46.9895   59.0361   64.8250 C   0  0  0  0  0  0  0  0  0  0  0  0
  -48.3811   59.5188   65.2073 C   0  0  0  0  0  0  0  0  0  0  0  0
  -49.2916   59.7648   64.0140 C   0  0  0  0  0  0  0  0  0  0  0  0
  -49.3814   58.5868   63.0599 C   0  0  0  0  0  0  0  0  0  0  0  0
  -50.4465   58.7379   61.9898 C   0  0  0  0  0  0  0  0  0  0  0  0
  -50.4934   57.5857   61.0009 C   0  0  0  0  0  0  0  0  0  0  0  0
  -50.1009   57.9952   59.5935 C   0  0  0  0  0  0  0  0  0  0  0  0
  -48.6322   58.3350   59.4268 C   0  0  0  0  0  0  0  0  0  0  0  0
  -47.8761   57.2818   58.6410 C   0  0  0  0  0  0  0  0  0  0  0  0
  -47.3397   57.8116   57.3272 C   0  0  0  0  0  0  0  0  0  0  0  0
  -38.6979   60.6974   65.7649 C   0  0  0  0  0  0  0  0  0  0  0  0
  -37.4686   60.0374   65.4425 O   0  0  0  0  0  0  0  0  0  0  0  0
  -36.6749   60.6800   62.8351 O   0  0  0  0  0  0  0  0  0  0  0  0
  -36.5133   64.4011   64.9915 O   0  0  0  0  0  0  0  0  0  0  0  0
  -36.2880   61.8370   66.2768 O   0  0  0  0  0  0  0  0  0  0  0  0
  -36.3926   60.9015   65.2197 C   0  0  0  0  0  0  0  0  0  0  0  0
  -36.6319   61.6222   63.8994 C   0  0  0  0  0  0  0  0  0  0  0  0
  -35.5252   62.6408   63.6574 C   0  0  0  0  0  0  0  0  0  0  0  0
  -35.3660   63.5692   64.8523 C   0  0  0  0  0  0  0  0  0  0  0  0
  -35.1836   62.7428   66.1229 C   0  0  0  0  0  0  0  0  0  0  0  0
  -37.3825   60.0375   63.0005 H   0  0  0  0  0  0  0  0  0  0  0  0
  -36.6310   64.9271   64.1850 H   0  0  0  0  0  0  0  0  0  0  0  0
  -36.3892   63.6196   68.0377 O   0  0  0  0  0  0  0  0  0  0  0  0
  -35.1297   63.5840   67.3767 C   0  0  0  0  0  0  0  0  0  0  0  0
  -36.3202   64.1661   68.8361 H   0  0  0  0  0  0  0  0  0  0  0  0
  -35.9779   63.4101   62.4986 O   0  0  0  0  0  0  0  0  0  0  0  0
  -33.7510   63.6203   61.6019 O   0  0  0  0  0  0  0  0  0  0  0  0
  -35.0194   65.6519   62.3632 O   0  0  0  0  0  0  0  0  0  0  0  0
  -35.6176   64.4668   60.3949 O   0  0  0  0  0  0  0  0  0  0  0  0
  -34.9408   64.3692   61.7720 S   0  0  0  0  0  0  0  0  0  0  0  0
  -33.2960   63.5383   62.4547 H   0  0  0  0  0  0  0  0  0  0  0  0
  -35.5837   63.6025   59.9560 H   0  0  0  0  0  0  0  0  0  0  0  0
  2  1  1  0  0  0
  2  4  1  0  0  0
  2  5  1  0  0  0
 47 48  1  0  0  0
 47  1  1  0  0  0
 48 52  1  0  0  0
  1 30  1  0  0  0
 29 30  1  0  0  0
 29 31  1  0  0  0
 30 32  1  0  0  0
  3  4  2  0  0  0
 32 33  2  0  0  0
 49 53  1  0  0  0
 49 57  1  0  0  0
 33 34  1  0  0  0
 62 54  1  0  0  0
 62 66  1  0  0  0
 34 35  1  0  0  0
 50 55  1  0  0  0
 50 58  1  0  0  0
 35 36  1  0  0  0
 51 52  1  0  0  0
 51 56  1  0  0  0
 36 37  1  0  0  0
 59 60  1  0  0  0
 59 61  1  0  0  0
 37 38  1  0  0  0
 63 66  1  0  0  0
 63 67  1  0  0  0
 38 39  1  0  0  0
 64 66  1  0  0  0
 39 40  1  0  0  0
 65 66  1  0  0  0
 65 68  1  0  0  0
 40 41  1  0  0  0
 41 42  1  0  0  0
 42 43  1  0  0  0
 43 44  1  0  0  0
 44 45  1  0  0  0
 45 46  1  0  0  0
  4  6  1  0  0  0
  6  7  1  0  0  0
  7  8  1  0  0  0
  8  9  1  0  0  0
  9 10  1  0  0  0
 10 11  1  0  0  0
 11 12  1  0  0  0
 12 13  1  0  0  0
 13 14  1  0  0  0
 14 15  1  0  0  0
 15 16  1  0  0  0
 16 17  1  0  0  0
 17 18  1  0  0  0
 18 19  1  0  0  0
 19 20  2  0  0  0
 20 21  1  0  0  0
 21 22  1  0  0  0
 22 23  1  0  0  0
 23 24  1  0  0  0
 24 25  1  0  0  0
 25 26  1  0  0  0
 26 27  1  0  0  0
 27 28  1  0  0  0
 52 53  1  0  0  0
 53 54  1  0  0  0
 54 55  1  0  0  0
 55 56  1  0  0  0
 56 60  1  0  0  0
M  CHG 1  64  -1
M  END
> <minimizedAffinity>
-9.37535

> <CNNscore>
0.2013959289

> <CNNaffinity>
7.5427155495

> <CNN_VS>
1.5190721750

> <CNNaffinity_variance>
1.8012349606

$$$$
/media/chris/experiments/cd1a-new-docking/inputs/ligands/7ryn_ligand.pdb


 68 68  0  0  0  0  0  0  0  0999 V2000
  -37.4012   60.8935   64.2171 C   0  0  0  0  0  0  0  0  0  0  0  0
  -38.5773   60.1213   64.6068 N   0  0  0  0  0  0  0  0  0  0  0  0
  -38.5852   60.7774   66.7603 O   0  0  0  0  0  0  0  0  0  0  0  0
  -39.0772   60.1231   65.8455 C   0  0  0  0  0  0  0  0  0  0  0  0
  -39.0241   59.5721   63.9227 H   0  0  0  0  0  0  0  0  0  0  0  0
  -40.3023   59.2685   66.0557 C   0  0  0  0  0  0  0  0  0  0  0  0
  -41.4919   60.0685   66.5710 C   0  0  0  0  0  0  0  0  0  0  0  0
  -42.7467   59.2232   66.7200 C   0  0  0  0  0  0  0  0  0  0  0  0
  -42.5107   57.7329   66.5397 C   0  0  0  0  0  0  0  0  0  0  0  0
  -43.2150   57.1405   65.3282 C   0  0  0  0  0  0  0  0  0  0  0  0
  -44.0082   58.1553   64.5148 C   0  0  0  0  0  0  0  0  0  0  0  0
  -45.4669   58.2788   64.9360 C   0  0  0  0  0  0  0  0  0  0  0  0
  -45.9696   57.1409   65.8208 C   0  0  0  0  0  0  0  0  0  0  0  0
  -47.0111   57.5694   66.8533 C   0  0  0  0  0  0  0  0  0  0  0  0
  -47.0924   59.0776   67.0881 C   0  0  0  0  0  0  0  0  0  0  0  0
  -48.4380   59.6843   66.6894 C   0  0  0  0  0  0  0  0  0  0  0  0
  -49.1794   58.9407   65.5785 C   0  0  0  0  0  0  0  0  0  0  0  0
  -48.6318   59.1756   64.1682 C   0  0  0  0  0  0  0  0  0  0  0  0
  -49.4492   60.1590   63.3815 C   0  0  0  0  0  0  0  0  0  0  0  0
  -50.5962   59.9091   62.7751 C   0  0  0  0  0  0  0  0  0  0  0  0
  -51.3138   58.5935   62.7532 C   0  0  0  0  0  0  0  0  0  0  0  0
  -51.1452   57.8233   61.4418 C   0  0  0  0  0  0  0  0  0  0  0  0
  -49.7497   57.2408   61.2606 C   0  0  0  0  0  0  0  0  0  0  0  0
  -49.4091   56.9268   59.8082 C   0  0  0  0  0  0  0  0  0  0  0  0
  -47.9674   57.2315   59.4178 C   0  0  0  0  0  0  0  0  0  0  0  0
  -47.8403   58.1488   58.2097 C   0  0  0  0  0  0  0  0  0  0  0  0
  -47.0935   57.5333   57.0370 C   0  0  0  0  0  0  0  0  0  0  0  0
  -47.0758   56.0186   57.0792 C   0  0  0  0  0  0  0  0  0  0  0  0
  -37.0781   62.3940   62.3520 O   0  0  0  0  0  0  0  0  0  0  0  0
  -37.3679   61.0338   62.6868 C   0  0  0  0  0  0  0  0  0  0  0  0
  -36.2394   62.6565   62.7627 H   0  0  0  0  0  0  0  0  0  0  0  0
  -38.6591   60.5931   62.0681 C   0  0  0  0  0  0  0  0  0  0  0  0
  -38.8212   60.2714   60.8001 C   0  0  0  0  0  0  0  0  0  0  0  0
  -40.1198   59.8207   60.2160 C   0  0  0  0  0  0  0  0  0  0  0  0
  -41.2961   60.2430   61.0984 C   0  0  0  0  0  0  0  0  0  0  0  0
  -42.0286   59.0850   61.7566 C   0  0  0  0  0  0  0  0  0  0  0  0
  -41.7508   57.7310   61.1262 C   0  0  0  0  0  0  0  0  0  0  0  0
  -41.3621   56.6512   62.1256 C   0  0  0  0  0  0  0  0  0  0  0  0
  -40.1564   57.0141   62.9788 C   0  0  0  0  0  0  0  0  0  0  0  0
  -38.8402   56.9848   62.2220 C   0  0  0  0  0  0  0  0  0  0  0  0
  -37.6239   57.2602   63.0863 C   0  0  0  0  0  0  0  0  0  0  0  0
  -36.3505   57.5082   62.2960 C   0  0  0  0  0  0  0  0  0  0  0  0
  -35.0917   57.2267   63.0951 C   0  0  0  0  0  0  0  0  0  0  0  0
  -33.8394   57.0659   62.2549 C   0  0  0  0  0  0  0  0  0  0  0  0
  -33.1553   58.3885   61.9700 C   0  0  0  0  0  0  0  0  0  0  0  0
  -32.1164   58.7415   63.0143 C   0  0  0  0  0  0  0  0  0  0  0  0
  -36.1468   60.2368   64.7554 C   0  0  0  0  0  0  0  0  0  0  0  0
  -35.0525   60.5875   63.9009 O   0  0  0  0  0  0  0  0  0  0  0  0
  -33.1083   61.8139   62.3019 O   0  0  0  0  0  0  0  0  0  0  0  0
  -34.7132   64.9878   64.7253 O   0  0  0  0  0  0  0  0  0  0  0  0
  -34.8008   62.2216   65.5116 O   0  0  0  0  0  0  0  0  0  0  0  0
  -34.1767   61.5313   64.4451 C   0  0  0  0  0  0  0  0  0  0  0  0
  -33.7885   62.5062   63.3412 C   0  0  0  0  0  0  0  0  0  0  0  0
  -32.9015   63.6064   63.9102 C   0  0  0  0  0  0  0  0  0  0  0  0
  -33.5524   64.2629   65.1187 C   0  0  0  0  0  0  0  0  0  0  0  0
  -33.9446   63.1927   66.1343 C   0  0  0  0  0  0  0  0  0  0  0  0
  -33.6825   61.1167   61.9480 H   0  0  0  0  0  0  0  0  0  0  0  0
  -34.4660   65.6684   64.0799 H   0  0  0  0  0  0  0  0  0  0  0  0
  -36.1072   63.6140   67.1515 O   0  0  0  0  0  0  0  0  0  0  0  0
  -34.7004   63.7463   67.3195 C   0  0  0  0  0  0  0  0  0  0  0  0
  -36.5612   63.9779   67.9275 H   0  0  0  0  0  0  0  0  0  0  0  0
  -32.7845   64.5835   62.8280 O   0  0  0  0  0  0  0  0  0  0  0  0
  -30.5746   65.1790   63.5824 O   0  0  0  0  0  0  0  0  0  0  0  0
  -32.3805   66.9188   63.4160 O   0  0  0  0  0  0  0  0  0  0  0  0
  -31.3810   65.9627   61.4864 O   0  0  0  0  0  0  0  0  0  0  0  0
  -31.7170   65.7511   62.9717 S   0  0  0  0  0  0  0  0  0  0  0  0
  -30.7516   65.0310   64.5245 H   0  0  0  0  0  0  0  0  0  0  0  0
  -30.9229   65.1794   61.1437 H   0  0  0  0  0  0  0  0  0  0  0  0
  2  1  1  0  0  0
  2  4  1  0  0  0
  2  5  1  0  0  0
 47 48  1  0  0  0
 47  1  1  0  0  0
 48 52  1  0  0  0
  1 30  1  0  0  0
 29 30  1  0  0  0
 29 31  1  0  0  0
 30 32  1  0  0  0
  3  4  2  0  0  0
 32 33  2  0  0  0
 49 53  1  0  0  0
 49 57  1  0  0  0
 33 34  1  0  0  0
 62 54  1  0  0  0
 62 66  1  0  0  0
 34 35  1  0  0  0
 50 55  1  0  0  0
 50 58  1  0  0  0
 35 36  1  0  0  0
 51 52  1  0  0  0
 51 56  1  0  0  0
 36 37  1  0  0  0
 59 60  1  0  0  0
 59 61  1  0  0  0
 37 38  1  0  0  0
 63 66  1  0  0  0
 63 67  1  0  0  0
 38 39  1  0  0  0
 64 66  1  0  0  0
 39 40  1  0  0  0
 65 66  1  0  0  0
 65 68  1  0  0  0
 40 41  1  0  0  0
 41 42  1  0  0  0
 42 43  1  0  0  0
 43 44  1  0  0  0
 44 45  1  0  0  0
 45 46  1  0  0  0
  4  6  1  0  0  0
  6  7  1  0  0  0
  7  8  1  0  0  0
  8  9  1  0  0  0
  9 10  1  0  0  0
 10 11  1  0  0  0
 11 12  1  0  0  0
 12 13  1  0  0  0
 13 14  1  0  0  0
 14 15  1  0  0  0
 15 16  1  0  0  0
 16 17  1  0  0  0
 17 18  1  0  0  0
 18 19  1  0  0  0
 19 20  2  0  0  0
 20 21  1  0  0  0
 21 22  1  0  0  0
 22 23  1  0  0  0
 23 24  1  0  0  0
 24 25  1  0  0  0
 25 26  1  0  0  0
 26 27  1  0  0  0
 27 28  1  0  0  0
 52 53  1  0  0  0
 53 54  1  0  0  0
 54 55  1  0  0  0
 55 56  1  0  0  0
 56 60  1  0  0  0
M  CHG 1  64  -1
M  END
> <minimizedAffinity>
-9.04945

> <CNNscore>
0.1772868484

> <CNNaffinity>
7.3822646141

> <CNN_VS>
1.3087784052

> <CNNaffinity_variance>
1.4376275539

$$$$
/media/chris/experiments/cd1a-new-docking/inputs/ligands/7ryn_ligand.pdb


 68 68  0  0  0  0  0  0  0  0999 V2000
  -35.9977   59.3785   63.6018 C   0  0  0  0  0  0  0  0  0  0  0  0
  -36.8415   59.5086   64.7861 N   0  0  0  0  0  0  0  0  0  0  0  0
  -37.9984   61.2957   64.0543 O   0  0  0  0  0  0  0  0  0  0  0  0
  -37.7745   60.4550   64.9203 C   0  0  0  0  0  0  0  0  0  0  0  0
  -36.7166   58.8670   65.5222 H   0  0  0  0  0  0  0  0  0  0  0  0
  -38.5524   60.4255   66.2123 C   0  0  0  0  0  0  0  0  0  0  0  0
  -39.8769   59.6847   66.0807 C   0  0  0  0  0  0  0  0  0  0  0  0
  -41.0766   60.5717   66.3731 C   0  0  0  0  0  0  0  0  0  0  0  0
  -42.2460   59.8370   67.0070 C   0  0  0  0  0  0  0  0  0  0  0  0
  -42.1800   58.3250   66.8515 C   0  0  0  0  0  0  0  0  0  0  0  0
  -43.4985   57.6869   66.4334 C   0  0  0  0  0  0  0  0  0  0  0  0
  -44.6887   58.6359   66.4903 C   0  0  0  0  0  0  0  0  0  0  0  0
  -46.0082   57.9750   66.8810 C   0  0  0  0  0  0  0  0  0  0  0  0
  -47.0115   57.8635   65.7343 C   0  0  0  0  0  0  0  0  0  0  0  0
  -47.0198   59.0549   64.7768 C   0  0  0  0  0  0  0  0  0  0  0  0
  -48.1800   60.0212   65.0171 C   0  0  0  0  0  0  0  0  0  0  0  0
  -49.1600   59.5966   66.1107 C   0  0  0  0  0  0  0  0  0  0  0  0
  -50.4837   59.0195   65.6019 C   0  0  0  0  0  0  0  0  0  0  0  0
  -51.1771   59.9242   64.6248 C   0  0  0  0  0  0  0  0  0  0  0  0
  -51.4036   59.6649   63.3492 C   0  0  0  0  0  0  0  0  0  0  0  0
  -51.0161   58.4133   62.6214 C   0  0  0  0  0  0  0  0  0  0  0  0
  -49.6103   58.4629   62.0191 C   0  0  0  0  0  0  0  0  0  0  0  0
  -49.5830   59.0107   60.5983 C   0  0  0  0  0  0  0  0  0  0  0  0
  -49.7224   57.9311   59.5310 C   0  0  0  0  0  0  0  0  0  0  0  0
  -48.9092   56.6698   59.7990 C   0  0  0  0  0  0  0  0  0  0  0  0
  -47.5227   56.6895   59.1708 C   0  0  0  0  0  0  0  0  0  0  0  0
  -47.5272   56.6335   57.6514 C   0  0  0  0  0  0  0  0  0  0  0  0
  -46.9954   57.9009   57.0134 C   0  0  0  0  0  0  0  0  0  0  0  0
  -34.9702   57.3069   62.9038 O   0  0  0  0  0  0  0  0  0  0  0  0
  -36.2216   57.9971   62.9659 C   0  0  0  0  0  0  0  0  0  0  0  0
  -34.5912   57.2436   63.7945 H   0  0  0  0  0  0  0  0  0  0  0  0
  -36.8373   58.1138   61.6052 C   0  0  0  0  0  0  0  0  0  0  0  0
  -37.9050   58.8307   61.3153 C   0  0  0  0  0  0  0  0  0  0  0  0
  -38.4866   58.9389   59.9440 C   0  0  0  0  0  0  0  0  0  0  0  0
  -39.7585   59.7892   59.9512 C   0  0  0  0  0  0  0  0  0  0  0  0
  -41.0445   58.9879   59.8289 C   0  0  0  0  0  0  0  0  0  0  0  0
  -40.8433   57.4822   59.8142 C   0  0  0  0  0  0  0  0  0  0  0  0
  -41.9288   56.7058   60.5453 C   0  0  0  0  0  0  0  0  0  0  0  0
  -41.4035   55.8496   61.6874 C   0  0  0  0  0  0  0  0  0  0  0  0
  -40.2564   56.4865   62.4521 C   0  0  0  0  0  0  0  0  0  0  0  0
  -40.6934   57.3098   63.6494 C   0  0  0  0  0  0  0  0  0  0  0  0
  -41.0915   58.7346   63.3046 C   0  0  0  0  0  0  0  0  0  0  0  0
  -42.5863   58.9013   63.1045 C   0  0  0  0  0  0  0  0  0  0  0  0
  -43.0839   60.3256   63.2592 C   0  0  0  0  0  0  0  0  0  0  0  0
  -42.6165   61.2311   62.1366 C   0  0  0  0  0  0  0  0  0  0  0  0
  -43.1388   62.6461   62.2766 C   0  0  0  0  0  0  0  0  0  0  0  0
  -34.5463   59.6064   63.9705 C   0  0  0  0  0  0  0  0  0  0  0  0
  -34.0652   60.7339   63.2302 O   0  0  0  0  0  0  0  0  0  0  0  0
  -32.7117   62.9337   62.1485 O   0  0  0  0  0  0  0  0  0  0  0  0
  -35.9499   64.6317   64.4186 O   0  0  0  0  0  0  0  0  0  0  0  0
  -34.8458   62.0330   64.9712 O   0  0  0  0  0  0  0  0  0  0  0  0
  -33.8231   61.8712   64.0061 C   0  0  0  0  0  0  0  0  0  0  0  0
  -33.7803   63.0765   63.0759 C   0  0  0  0  0  0  0  0  0  0  0  0
  -33.6053   64.3526   63.8894 C   0  0  0  0  0  0  0  0  0  0  0  0
  -34.6562   64.4503   64.9855 C   0  0  0  0  0  0  0  0  0  0  0  0
  -34.6451   63.1732   65.8218 C   0  0  0  0  0  0  0  0  0  0  0  0
  -32.8341   62.1186   61.6371 H   0  0  0  0  0  0  0  0  0  0  0  0
  -35.9590   65.4429   63.8868 H   0  0  0  0  0  0  0  0  0  0  0  0
  -36.8577   63.9222   66.4794 O   0  0  0  0  0  0  0  0  0  0  0  0
  -35.7359   63.1371   66.8665 C   0  0  0  0  0  0  0  0  0  0  0  0
  -37.5374   63.8775   67.1698 H   0  0  0  0  0  0  0  0  0  0  0  0
  -33.8029   65.4352   62.9259 O   0  0  0  0  0  0  0  0  0  0  0  0
  -32.6047   67.2675   63.9328 O   0  0  0  0  0  0  0  0  0  0  0  0
  -32.7295   67.0420   61.4330 O   0  0  0  0  0  0  0  0  0  0  0  0
  -31.4305   65.5632   62.7605 O   0  0  0  0  0  0  0  0  0  0  0  0
  -32.6447   66.5062   62.7394 S   0  0  0  0  0  0  0  0  0  0  0  0
  -33.3596   67.8762   63.9535 H   0  0  0  0  0  0  0  0  0  0  0  0
  -31.3386   65.1741   63.6443 H   0  0  0  0  0  0  0  0  0  0  0  0
  2  1  1  0  0  0
  2  4  1  0  0  0
  2  5  1  0  0  0
 47 48  1  0  0  0
 47  1  1  0  0  0
 48 52  1  0  0  0
  1 30  1  0  0  0
 29 30  1  0  0  0
 29 31  1  0  0  0
 30 32  1  0  0  0
  3  4  2  0  0  0
 32 33  2  0  0  0
 49 53  1  0  0  0
 49 57  1  0  0  0
 33 34  1  0  0  0
 62 54  1  0  0  0
 62 66  1  0  0  0
 34 35  1  0  0  0
 50 55  1  0  0  0
 50 58  1  0  0  0
 35 36  1  0  0  0
 51 52  1  0  0  0
 51 56  1  0  0  0
 36 37  1  0  0  0
 59 60  1  0  0  0
 59 61  1  0  0  0
 37 38  1  0  0  0
 63 66  1  0  0  0
 63 67  1  0  0  0
 38 39  1  0  0  0
 64 66  1  0  0  0
 39 40  1  0  0  0
 65 66  1  0  0  0
 65 68  1  0  0  0
 40 41  1  0  0  0
 41 42  1  0  0  0
 42 43  1  0  0  0
 43 44  1  0  0  0
 44 45  1  0  0  0
 45 46  1  0  0  0
  4  6  1  0  0  0
  6  7  1  0  0  0
  7  8  1  0  0  0
  8  9  1  0  0  0
  9 10  1  0  0  0
 10 11  1  0  0  0
 11 12  1  0  0  0
 12 13  1  0  0  0
 13 14  1  0  0  0
 14 15  1  0  0  0
 15 16  1  0  0  0
 16 17  1  0  0  0
 17 18  1  0  0  0
 18 19  1  0  0  0
 19 20  2  0  0  0
 20 21  1  0  0  0
 21 22  1  0  0  0
 22 23  1  0  0  0
 23 24  1  0  0  0
 24 25  1  0  0  0
 25 26  1  0  0  0
 26 27  1  0  0  0
 27 28  1  0  0  0
 52 53  1  0  0  0
 53 54  1  0  0  0
 54 55  1  0  0  0
 55 56  1  0  0  0
 56 60  1  0  0  0
M  CHG 1  64  -1
M  END
> <minimizedAffinity>
-9.72432

> <CNNscore>
0.1738424450

> <CNNaffinity>
7.4231934547

> <CNN_VS>
1.2904660702

> <CNNaffinity_variance>
2.2962234020

$$$$
/media/chris/experiments/cd1a-new-docking/inputs/ligands/7ryn_ligand.pdb


 68 68  0  0  0  0  0  0  0  0999 V2000
  -33.6167   59.9101   62.7822 C   0  0  0  0  0  0  0  0  0  0  0  0
  -34.8554   60.4299   63.3538 N   0  0  0  0  0  0  0  0  0  0  0  0
  -34.2024   60.2807   65.5031 O   0  0  0  0  0  0  0  0  0  0  0  0
  -35.0519   60.5747   64.6670 C   0  0  0  0  0  0  0  0  0  0  0  0
  -35.5819   60.6865   62.7410 H   0  0  0  0  0  0  0  0  0  0  0  0
  -36.3938   61.1350   65.0681 C   0  0  0  0  0  0  0  0  0  0  0  0
  -37.4318   61.0169   63.9594 C   0  0  0  0  0  0  0  0  0  0  0  0
  -38.5578   60.0575   64.3102 C   0  0  0  0  0  0  0  0  0  0  0  0
  -39.0036   60.1347   65.7609 C   0  0  0  0  0  0  0  0  0  0  0  0
  -40.3574   59.4921   66.0236 C   0  0  0  0  0  0  0  0  0  0  0  0
  -41.3668   60.4218   66.6848 C   0  0  0  0  0  0  0  0  0  0  0  0
  -42.6856   59.7476   67.0408 C   0  0  0  0  0  0  0  0  0  0  0  0
  -42.6775   58.2273   66.9032 C   0  0  0  0  0  0  0  0  0  0  0  0
  -43.9833   57.6444   66.3654 C   0  0  0  0  0  0  0  0  0  0  0  0
  -45.2126   58.5261   66.5847 C   0  0  0  0  0  0  0  0  0  0  0  0
  -46.3585   57.8070   67.2970 C   0  0  0  0  0  0  0  0  0  0  0  0
  -47.4306   57.2262   66.3751 C   0  0  0  0  0  0  0  0  0  0  0  0
  -47.9382   58.1832   65.2932 C   0  0  0  0  0  0  0  0  0  0  0  0
  -49.2001   58.8941   65.6887 C   0  0  0  0  0  0  0  0  0  0  0  0
  -50.2609   59.0812   64.9236 C   0  0  0  0  0  0  0  0  0  0  0  0
  -50.4190   58.6184   63.5069 C   0  0  0  0  0  0  0  0  0  0  0  0
  -49.7585   59.5421   62.4813 C   0  0  0  0  0  0  0  0  0  0  0  0
  -49.7259   58.9560   61.0760 C   0  0  0  0  0  0  0  0  0  0  0  0
  -49.9959   57.4561   61.0398 C   0  0  0  0  0  0  0  0  0  0  0  0
  -49.3280   56.7222   59.8826 C   0  0  0  0  0  0  0  0  0  0  0  0
  -47.9528   57.2671   59.5233 C   0  0  0  0  0  0  0  0  0  0  0  0
  -47.9159   58.0548   58.2233 C   0  0  0  0  0  0  0  0  0  0  0  0
  -47.1813   57.3284   57.1148 C   0  0  0  0  0  0  0  0  0  0  0  0
  -33.2231   57.8771   61.5387 O   0  0  0  0  0  0  0  0  0  0  0  0
  -33.6475   58.3736   62.8114 C   0  0  0  0  0  0  0  0  0  0  0  0
  -32.3399   58.2224   61.3350 H   0  0  0  0  0  0  0  0  0  0  0  0
  -35.0109   57.8596   63.1596 C   0  0  0  0  0  0  0  0  0  0  0  0
  -35.9826   57.6427   62.2955 C   0  0  0  0  0  0  0  0  0  0  0  0
  -37.3279   57.1148   62.6725 C   0  0  0  0  0  0  0  0  0  0  0  0
  -38.4155   57.6726   61.7523 C   0  0  0  0  0  0  0  0  0  0  0  0
  -37.8973   58.6042   60.6685 C   0  0  0  0  0  0  0  0  0  0  0  0
  -38.9287   58.9725   59.6158 C   0  0  0  0  0  0  0  0  0  0  0  0
  -40.3308   58.4644   59.9187 C   0  0  0  0  0  0  0  0  0  0  0  0
  -41.3643   59.5712   60.0604 C   0  0  0  0  0  0  0  0  0  0  0  0
  -41.1032   60.5062   61.2282 C   0  0  0  0  0  0  0  0  0  0  0  0
  -42.3579   60.9509   61.9565 C   0  0  0  0  0  0  0  0  0  0  0  0
  -42.6363   60.1754   63.2328 C   0  0  0  0  0  0  0  0  0  0  0  0
  -41.9410   58.8273   63.2718 C   0  0  0  0  0  0  0  0  0  0  0  0
  -42.8451   57.6474   62.9707 C   0  0  0  0  0  0  0  0  0  0  0  0
  -42.3038   56.3431   63.5223 C   0  0  0  0  0  0  0  0  0  0  0  0
  -41.1733   55.7831   62.6839 C   0  0  0  0  0  0  0  0  0  0  0  0
  -32.4244   60.4693   63.5307 C   0  0  0  0  0  0  0  0  0  0  0  0
  -31.9383   61.6107   62.8153 O   0  0  0  0  0  0  0  0  0  0  0  0
  -30.2240   63.6656   61.9910 O   0  0  0  0  0  0  0  0  0  0  0  0
  -33.7116   65.6758   63.5136 O   0  0  0  0  0  0  0  0  0  0  0  0
  -32.9514   63.0246   64.3327 O   0  0  0  0  0  0  0  0  0  0  0  0
  -31.7700   62.7541   63.6016 C   0  0  0  0  0  0  0  0  0  0  0  0
  -31.4440   63.9191   62.6762 C   0  0  0  0  0  0  0  0  0  0  0  0
  -31.3379   65.2071   63.4828 C   0  0  0  0  0  0  0  0  0  0  0  0
  -32.5785   65.4205   64.3375 C   0  0  0  0  0  0  0  0  0  0  0  0
  -32.8384   64.1766   65.1835 C   0  0  0  0  0  0  0  0  0  0  0  0
  -30.3039   62.8439   61.4817 H   0  0  0  0  0  0  0  0  0  0  0  0
  -33.5484   66.4660   62.9752 H   0  0  0  0  0  0  0  0  0  0  0  0
  -33.8593   64.3250   67.3800 O   0  0  0  0  0  0  0  0  0  0  0  0
  -34.1181   64.2577   65.9825 C   0  0  0  0  0  0  0  0  0  0  0  0
  -34.6992   64.3760   67.8624 H   0  0  0  0  0  0  0  0  0  0  0  0
  -31.2495   66.2663   62.4778 O   0  0  0  0  0  0  0  0  0  0  0  0
  -32.7589   65.0314   61.0623 O   0  0  0  0  0  0  0  0  0  0  0  0
  -30.4949   65.7240   60.2197 O   0  0  0  0  0  0  0  0  0  0  0  0
  -32.2358   67.2993   60.5720 O   0  0  0  0  0  0  0  0  0  0  0  0
  -31.6680   65.9307   60.9826 S   0  0  0  0  0  0  0  0  0  0  0  0
  -32.4362   64.1537   61.3202 H   0  0  0  0  0  0  0  0  0  0  0  0
  -33.0450   67.4781   61.0761 H   0  0  0  0  0  0  0  0  0  0  0  0
  2  1  1  0  0  0
  2  4  1  0  0  0
  2  5  1  0  0  0
 47 48  1  0  0  0
 47  1  1  0  0  0
 48 52  1  0  0  0
  1 30  1  0  0  0
 29 30  1  0  0  0
 29 31  1  0  0  0
 30 32  1  0  0  0
  3  4  2  0  0  0
 32 33  2  0  0  0
 49 53  1  0  0  0
 49 57  1  0  0  0
 33 34  1  0  0  0
 62 54  1  0  0  0
 62 66  1  0  0  0
 34 35  1  0  0  0
 50 55  1  0  0  0
 50 58  1  0  0  0
 35 36  1  0  0  0
 51 52  1  0  0  0
 51 56  1  0  0  0
 36 37  1  0  0  0
 59 60  1  0  0  0
 59 61  1  0  0  0
 37 38  1  0  0  0
 63 66  1  0  0  0
 63 67  1  0  0  0
 38 39  1  0  0  0
 64 66  1  0  0  0
 39 40  1  0  0  0
 65 66  1  0  0  0
 65 68  1  0  0  0
 40 41  1  0  0  0
 41 42  1  0  0  0
 42 43  1  0  0  0
 43 44  1  0  0  0
 44 45  1  0  0  0
 45 46  1  0  0  0
  4  6  1  0  0  0
  6  7  1  0  0  0
  7  8  1  0  0  0
  8  9  1  0  0  0
  9 10  1  0  0  0
 10 11  1  0  0  0
 11 12  1  0  0  0
 12 13  1  0  0  0
 13 14  1  0  0  0
 14 15  1  0  0  0
 15 16  1  0  0  0
 16 17  1  0  0  0
 17 18  1  0  0  0
 18 19  1  0  0  0
 19 20  2  0  0  0
 20 21  1  0  0  0
 21 22  1  0  0  0
 22 23  1  0  0  0
 23 24  1  0  0  0
 24 25  1  0  0  0
 25 26  1  0  0  0
 26 27  1  0  0  0
 27 28  1  0  0  0
 52 53  1  0  0  0
 53 54  1  0  0  0
 54 55  1  0  0  0
 55 56  1  0  0  0
 56 60  1  0  0  0
M  CHG 1  64  -1
M  END
> <minimizedAffinity>
-9.04598

> <CNNscore>
0.1331230551

> <CNNaffinity>
7.2597937584

> <CNN_VS>
0.9664459229

> <CNNaffinity_variance>
1.2568089962

$$$$
/media/chris/experiments/cd1a-new-docking/inputs/ligands/7ryn_ligand.pdb


 68 68  0  0  0  0  0  0  0  0999 V2000
  -40.8820   57.1089   64.0095 C   0  0  0  0  0  0  0  0  0  0  0  0
  -39.6989   57.6158   64.6984 N   0  0  0  0  0  0  0  0  0  0  0  0
  -40.5339   59.6629   65.1228 O   0  0  0  0  0  0  0  0  0  0  0  0
  -39.6166   58.8508   65.2007 C   0  0  0  0  0  0  0  0  0  0  0  0
  -38.9232   57.0177   64.7977 H   0  0  0  0  0  0  0  0  0  0  0  0
  -38.3162   59.1915   65.8848 C   0  0  0  0  0  0  0  0  0  0  0  0
  -38.1290   60.6918   66.0713 C   0  0  0  0  0  0  0  0  0  0  0  0
  -36.8709   61.2143   65.3963 C   0  0  0  0  0  0  0  0  0  0  0  0
  -36.1177   62.2500   66.2143 C   0  0  0  0  0  0  0  0  0  0  0  0
  -34.7093   62.5268   65.7099 C   0  0  0  0  0  0  0  0  0  0  0  0
  -34.2368   63.9559   65.9441 C   0  0  0  0  0  0  0  0  0  0  0  0
  -32.7360   64.1466   65.7660 C   0  0  0  0  0  0  0  0  0  0  0  0
  -32.2870   65.6036   65.6889 C   0  0  0  0  0  0  0  0  0  0  0  0
  -31.7891   66.0288   64.3086 C   0  0  0  0  0  0  0  0  0  0  0  0
  -32.5781   67.1723   63.6712 C   0  0  0  0  0  0  0  0  0  0  0  0
  -33.4024   66.7413   62.4578 C   0  0  0  0  0  0  0  0  0  0  0  0
  -34.6128   65.8637   62.7764 C   0  0  0  0  0  0  0  0  0  0  0  0
  -34.4993   64.4120   62.3031 C   0  0  0  0  0  0  0  0  0  0  0  0
  -33.3778   64.2027   61.3272 C   0  0  0  0  0  0  0  0  0  0  0  0
  -32.3199   63.4327   61.5103 C   0  0  0  0  0  0  0  0  0  0  0  0
  -32.0280   62.6104   62.7289 C   0  0  0  0  0  0  0  0  0  0  0  0
  -32.8501   61.3226   62.8127 C   0  0  0  0  0  0  0  0  0  0  0  0
  -32.1196   60.1050   62.2619 C   0  0  0  0  0  0  0  0  0  0  0  0
  -32.2653   58.8652   63.1370 C   0  0  0  0  0  0  0  0  0  0  0  0
  -32.9433   57.6846   62.4511 C   0  0  0  0  0  0  0  0  0  0  0  0
  -34.4438   57.8622   62.2663 C   0  0  0  0  0  0  0  0  0  0  0  0
  -35.1595   58.4182   63.4871 C   0  0  0  0  0  0  0  0  0  0  0  0
  -35.6904   57.3343   64.4034 C   0  0  0  0  0  0  0  0  0  0  0  0
  -41.9047   54.9549   64.3958 O   0  0  0  0  0  0  0  0  0  0  0  0
  -41.7055   56.2459   64.9790 C   0  0  0  0  0  0  0  0  0  0  0  0
  -41.0444   54.5567   64.1904 H   0  0  0  0  0  0  0  0  0  0  0  0
  -43.0157   56.8924   65.3100 C   0  0  0  0  0  0  0  0  0  0  0  0
  -43.1817   57.8644   66.1849 C   0  0  0  0  0  0  0  0  0  0  0  0
  -44.5005   58.4993   66.4821 C   0  0  0  0  0  0  0  0  0  0  0  0
  -45.4870   58.2824   65.3330 C   0  0  0  0  0  0  0  0  0  0  0  0
  -46.7685   57.5718   65.7376 C   0  0  0  0  0  0  0  0  0  0  0  0
  -47.8907   58.5024   66.1647 C   0  0  0  0  0  0  0  0  0  0  0  0
  -48.5899   59.2005   65.0073 C   0  0  0  0  0  0  0  0  0  0  0  0
  -50.0241   58.7413   64.7937 C   0  0  0  0  0  0  0  0  0  0  0  0
  -50.4807   58.8137   63.3471 C   0  0  0  0  0  0  0  0  0  0  0  0
  -49.7298   59.8344   62.5124 C   0  0  0  0  0  0  0  0  0  0  0  0
  -49.6943   59.5100   61.0288 C   0  0  0  0  0  0  0  0  0  0  0  0
  -49.8540   58.0287   60.7411 C   0  0  0  0  0  0  0  0  0  0  0  0
  -49.5351   57.6301   59.3130 C   0  0  0  0  0  0  0  0  0  0  0  0
  -48.0612   57.3432   59.1036 C   0  0  0  0  0  0  0  0  0  0  0  0
  -47.5291   57.9464   57.8200 C   0  0  0  0  0  0  0  0  0  0  0  0
  -40.4721   56.3394   62.7709 C   0  0  0  0  0  0  0  0  0  0  0  0
  -41.4266   56.6074   61.7376 O   0  0  0  0  0  0  0  0  0  0  0  0
  -42.9657   58.8556   62.3840 O   0  0  0  0  0  0  0  0  0  0  0  0
  -38.9551   60.3505   61.9330 O   0  0  0  0  0  0  0  0  0  0  0  0
  -39.8784   57.9398   60.6626 O   0  0  0  0  0  0  0  0  0  0  0  0
  -41.2283   57.8200   61.0710 C   0  0  0  0  0  0  0  0  0  0  0  0
  -41.5924   58.9487   62.0268 C   0  0  0  0  0  0  0  0  0  0  0  0
  -41.3081   60.2942   61.3714 C   0  0  0  0  0  0  0  0  0  0  0  0
  -39.8800   60.3574   60.8502 C   0  0  0  0  0  0  0  0  0  0  0  0
  -39.6101   59.1564   59.9472 C   0  0  0  0  0  0  0  0  0  0  0  0
  -43.1341   57.9955   62.7998 H   0  0  0  0  0  0  0  0  0  0  0  0
  -39.1250   61.1130   62.5081 H   0  0  0  0  0  0  0  0  0  0  0  0
  -37.3028   58.6669   60.5173 O   0  0  0  0  0  0  0  0  0  0  0  0
  -38.1777   59.0787   59.4734 C   0  0  0  0  0  0  0  0  0  0  0  0
  -36.3939   58.6273   60.1807 H   0  0  0  0  0  0  0  0  0  0  0  0
  -41.4793   61.2720   62.4457 O   0  0  0  0  0  0  0  0  0  0  0  0
  -43.7797   61.3294   63.1610 O   0  0  0  0  0  0  0  0  0  0  0  0
  -43.0063   62.7393   61.2298 O   0  0  0  0  0  0  0  0  0  0  0  0
  -42.3783   63.2267   63.4669 O   0  0  0  0  0  0  0  0  0  0  0  0
  -42.8191   62.1244   62.4899 S   0  0  0  0  0  0  0  0  0  0  0  0
  -44.0813   60.6204   62.5716 H   0  0  0  0  0  0  0  0  0  0  0  0
  -42.2392   62.8425   64.3466 H   0  0  0  0  0  0  0  0  0  0  0  0
  2  1  1  0  0  0
  2  4  1  0  0  0
  2  5  1  0  0  0
 47 48  1  0  0  0
 47  1  1  0  0  0
 48 52  1  0  0  0
  1 30  1  0  0  0
 29 30  1  0  0  0
 29 31  1  0  0  0
 30 32  1  0  0  0
  3  4  2  0  0  0
 32 33  2  0  0  0
 49 53  1  0  0  0
 49 57  1  0  0  0
 33 34  1  0  0  0
 62 54  1  0  0  0
 62 66  1  0  0  0
 34 35  1  0  0  0
 50 55  1  0  0  0
 50 58  1  0  0  0
 35 36  1  0  0  0
 51 52  1  0  0  0
 51 56  1  0  0  0
 36 37  1  0  0  0
 59 60  1  0  0  0
 59 61  1  0  0  0
 37 38  1  0  0  0
 63 66  1  0  0  0
 63 67  1  0  0  0
 38 39  1  0  0  0
 64 66  1  0  0  0
 39 40  1  0  0  0
 65 66  1  0  0  0
 65 68  1  0  0  0
 40 41  1  0  0  0
 41 42  1  0  0  0
 42 43  1  0  0  0
 43 44  1  0  0  0
 44 45  1  0  0  0
 45 46  1  0  0  0
  4  6  1  0  0  0
  6  7  1  0  0  0
  7  8  1  0  0  0
  8  9  1  0  0  0
  9 10  1  0  0  0
 10 11  1  0  0  0
 11 12  1  0  0  0
 12 13  1  0  0  0
 13 14  1  0  0  0
 14 15  1  0  0  0
 15 16  1  0  0  0
 16 17  1  0  0  0
 17 18  1  0  0  0
 18 19  1  0  0  0
 19 20  2  0  0  0
 20 21  1  0  0  0
 21 22  1  0  0  0
 22 23  1  0  0  0
 23 24  1  0  0  0
 24 25  1  0  0  0
 25 26  1  0  0  0
 26 27  1  0  0  0
 27 28  1  0  0  0
 52 53  1  0  0  0
 53 54  1  0  0  0
 54 55  1  0  0  0
 55 56  1  0  0  0
 56 60  1  0  0  0
M  CHG 1  64  -1
M  END
> <minimizedAffinity>
-8.63356

> <CNNscore>
0.1233786717

> <CNNaffinity>
7.0737557411

> <CNN_VS>
0.8727505803

> <CNNaffinity_variance>
2.1635067463

$$$$
/media/chris/experiments/cd1a-new-docking/inputs/ligands/7ryn_ligand.pdb


 68 68  0  0  0  0  0  0  0  0999 V2000
  -38.7346   60.1327   65.4105 C   0  0  0  0  0  0  0  0  0  0  0  0
  -39.8988   60.2016   66.2886 N   0  0  0  0  0  0  0  0  0  0  0  0
  -41.2802   61.1316   64.7737 O   0  0  0  0  0  0  0  0  0  0  0  0
  -41.0789   60.6946   65.9032 C   0  0  0  0  0  0  0  0  0  0  0  0
  -39.8097   59.8682   67.2106 H   0  0  0  0  0  0  0  0  0  0  0  0
  -42.1665   60.6759   66.9482 C   0  0  0  0  0  0  0  0  0  0  0  0
  -42.8428   59.3159   67.0642 C   0  0  0  0  0  0  0  0  0  0  0  0
  -43.4476   58.8476   65.7503 C   0  0  0  0  0  0  0  0  0  0  0  0
  -44.8067   58.1846   65.8993 C   0  0  0  0  0  0  0  0  0  0  0  0
  -45.4409   58.3820   67.2681 C   0  0  0  0  0  0  0  0  0  0  0  0
  -46.7076   57.5650   67.4879 C   0  0  0  0  0  0  0  0  0  0  0  0
  -47.2134   56.8617   66.2349 C   0  0  0  0  0  0  0  0  0  0  0  0
  -48.4212   57.5260   65.5791 C   0  0  0  0  0  0  0  0  0  0  0  0
  -48.9332   58.7586   66.3227 C   0  0  0  0  0  0  0  0  0  0  0  0
  -48.2128   60.0599   65.9706 C   0  0  0  0  0  0  0  0  0  0  0  0
  -48.1446   60.3308   64.4675 C   0  0  0  0  0  0  0  0  0  0  0  0
  -49.4418   60.8446   63.8430 C   0  0  0  0  0  0  0  0  0  0  0  0
  -50.7203   60.4188   64.5696 C   0  0  0  0  0  0  0  0  0  0  0  0
  -51.8530   60.1200   63.6305 C   0  0  0  0  0  0  0  0  0  0  0  0
  -51.8524   59.2066   62.6758 C   0  0  0  0  0  0  0  0  0  0  0  0
  -50.7212   58.2826   62.3401 C   0  0  0  0  0  0  0  0  0  0  0  0
  -49.9548   58.6827   61.0776 C   0  0  0  0  0  0  0  0  0  0  0  0
  -48.7978   57.7469   60.7536 C   0  0  0  0  0  0  0  0  0  0  0  0
  -48.7881   57.2764   59.3035 C   0  0  0  0  0  0  0  0  0  0  0  0
  -47.8442   56.1126   59.0237 C   0  0  0  0  0  0  0  0  0  0  0  0
  -47.5645   55.8924   57.5437 C   0  0  0  0  0  0  0  0  0  0  0  0
  -47.6478   57.1547   56.7002 C   0  0  0  0  0  0  0  0  0  0  0  0
  -46.7479   58.2632   57.2080 C   0  0  0  0  0  0  0  0  0  0  0  0
  -38.2351   57.8823   66.1321 O   0  0  0  0  0  0  0  0  0  0  0  0
  -38.5109   58.6759   64.9743 C   0  0  0  0  0  0  0  0  0  0  0  0
  -38.9659   57.9678   66.7643 H   0  0  0  0  0  0  0  0  0  0  0  0
  -37.4010   58.5679   63.9739 C   0  0  0  0  0  0  0  0  0  0  0  0
  -37.1749   57.5232   63.2024 C   0  0  0  0  0  0  0  0  0  0  0  0
  -36.0675   57.4518   62.2028 C   0  0  0  0  0  0  0  0  0  0  0  0
  -36.2681   58.4774   61.0852 C   0  0  0  0  0  0  0  0  0  0  0  0
  -37.6696   58.4914   60.4966 C   0  0  0  0  0  0  0  0  0  0  0  0
  -38.2250   59.8817   60.2388 C   0  0  0  0  0  0  0  0  0  0  0  0
  -38.9970   60.4670   61.4124 C   0  0  0  0  0  0  0  0  0  0  0  0
  -40.4110   59.9226   61.5458 C   0  0  0  0  0  0  0  0  0  0  0  0
  -41.1967   59.9355   60.2463 C   0  0  0  0  0  0  0  0  0  0  0  0
  -41.5588   58.5558   59.7291 C   0  0  0  0  0  0  0  0  0  0  0  0
  -40.9318   57.4187   60.5175 C   0  0  0  0  0  0  0  0  0  0  0  0
  -41.9385   56.6496   61.3525 C   0  0  0  0  0  0  0  0  0  0  0  0
  -42.2508   57.2812   62.6956 C   0  0  0  0  0  0  0  0  0  0  0  0
  -41.2605   56.8814   63.7717 C   0  0  0  0  0  0  0  0  0  0  0  0
  -41.8167   55.8315   64.7112 C   0  0  0  0  0  0  0  0  0  0  0  0
  -37.5213   60.7096   66.1101 C   0  0  0  0  0  0  0  0  0  0  0  0
  -37.3661   62.0710   65.6938 O   0  0  0  0  0  0  0  0  0  0  0  0
  -36.6457   64.6598   64.9062 O   0  0  0  0  0  0  0  0  0  0  0  0
  -32.9168   62.5542   65.3359 O   0  0  0  0  0  0  0  0  0  0  0  0
  -35.4120   61.2246   64.8031 O   0  0  0  0  0  0  0  0  0  0  0  0
  -36.3634   62.2707   64.7405 C   0  0  0  0  0  0  0  0  0  0  0  0
  -35.6960   63.6087   65.0310 C   0  0  0  0  0  0  0  0  0  0  0  0
  -34.5364   63.8289   64.0680 C   0  0  0  0  0  0  0  0  0  0  0  0
  -33.5830   62.6430   64.0804 C   0  0  0  0  0  0  0  0  0  0  0  0
  -34.3634   61.3551   63.8299 C   0  0  0  0  0  0  0  0  0  0  0  0
  -37.3784   64.5086   65.5236 H   0  0  0  0  0  0  0  0  0  0  0  0
  -32.4203   63.3718   65.4969 H   0  0  0  0  0  0  0  0  0  0  0  0
  -34.0907   59.1529   64.8120 O   0  0  0  0  0  0  0  0  0  0  0  0
  -33.5104   60.1127   63.9365 C   0  0  0  0  0  0  0  0  0  0  0  0
  -33.5199   58.3701   64.8577 H   0  0  0  0  0  0  0  0  0  0  0  0
  -33.8489   65.0132   64.5821 O   0  0  0  0  0  0  0  0  0  0  0  0
  -33.6252   66.5218   62.7163 O   0  0  0  0  0  0  0  0  0  0  0  0
  -31.7954   64.8893   63.2665 O   0  0  0  0  0  0  0  0  0  0  0  0
  -32.2463   66.7741   64.6380 O   0  0  0  0  0  0  0  0  0  0  0  0
  -32.8359   65.7775   63.6265 S   0  0  0  0  0  0  0  0  0  0  0  0
  -34.0146   65.9223   62.0607 H   0  0  0  0  0  0  0  0  0  0  0  0
  -32.9329   67.4029   64.9101 H   0  0  0  0  0  0  0  0  0  0  0  0
  2  1  1  0  0  0
  2  4  1  0  0  0
  2  5  1  0  0  0
 47 48  1  0  0  0
 47  1  1  0  0  0
 48 52  1  0  0  0
  1 30  1  0  0  0
 29 30  1  0  0  0
 29 31  1  0  0  0
 30 32  1  0  0  0
  3  4  2  0  0  0
 32 33  2  0  0  0
 49 53  1  0  0  0
 49 57  1  0  0  0
 33 34  1  0  0  0
 62 54  1  0  0  0
 62 66  1  0  0  0
 34 35  1  0  0  0
 50 55  1  0  0  0
 50 58  1  0  0  0
 35 36  1  0  0  0
 51 52  1  0  0  0
 51 56  1  0  0  0
 36 37  1  0  0  0
 59 60  1  0  0  0
 59 61  1  0  0  0
 37 38  1  0  0  0
 63 66  1  0  0  0
 63 67  1  0  0  0
 38 39  1  0  0  0
 64 66  1  0  0  0
 39 40  1  0  0  0
 65 66  1  0  0  0
 65 68  1  0  0  0
 40 41  1  0  0  0
 41 42  1  0  0  0
 42 43  1  0  0  0
 43 44  1  0  0  0
 44 45  1  0  0  0
 45 46  1  0  0  0
  4  6  1  0  0  0
  6  7  1  0  0  0
  7  8  1  0  0  0
  8  9  1  0  0  0
  9 10  1  0  0  0
 10 11  1  0  0  0
 11 12  1  0  0  0
 12 13  1  0  0  0
 13 14  1  0  0  0
 14 15  1  0  0  0
 15 16  1  0  0  0
 16 17  1  0  0  0
 17 18  1  0  0  0
 18 19  1  0  0  0
 19 20  2  0  0  0
 20 21  1  0  0  0
 21 22  1  0  0  0
 22 23  1  0  0  0
 23 24  1  0  0  0
 24 25  1  0  0  0
 25 26  1  0  0  0
 26 27  1  0  0  0
 27 28  1  0  0  0
 52 53  1  0  0  0
 53 54  1  0  0  0
 54 55  1  0  0  0
 55 56  1  0  0  0
 56 60  1  0  0  0
M  CHG 1  64  -1
M  END
> <minimizedAffinity>
-8.68660

> <CNNscore>
0.1113021821

> <CNNaffinity>
7.3110466003

> <CNN_VS>
0.8137354255

> <CNNaffinity_variance>
1.6701867580

$$$$
/media/chris/experiments/cd1a-new-docking/inputs/ligands/7ryn_ligand.pdb


 68 68  0  0  0  0  0  0  0  0999 V2000
  -38.4046   61.0434   64.4702 C   0  0  0  0  0  0  0  0  0  0  0  0
  -39.2034   60.0043   65.1133 N   0  0  0  0  0  0  0  0  0  0  0  0
  -40.6544   61.4074   66.1101 O   0  0  0  0  0  0  0  0  0  0  0  0
  -40.2641   60.2661   65.8817 C   0  0  0  0  0  0  0  0  0  0  0  0
  -38.9475   59.0639   64.9736 H   0  0  0  0  0  0  0  0  0  0  0  0
  -40.9684   59.0613   66.4541 C   0  0  0  0  0  0  0  0  0  0  0  0
  -41.0385   57.9018   65.4685 C   0  0  0  0  0  0  0  0  0  0  0  0
  -42.3799   57.1870   65.4984 C   0  0  0  0  0  0  0  0  0  0  0  0
  -43.2698   57.5951   66.6606 C   0  0  0  0  0  0  0  0  0  0  0  0
  -44.6016   58.1948   66.2349 C   0  0  0  0  0  0  0  0  0  0  0  0
  -45.7989   57.6573   67.0083 C   0  0  0  0  0  0  0  0  0  0  0  0
  -46.7585   58.7382   67.4891 C   0  0  0  0  0  0  0  0  0  0  0  0
  -48.0944   58.7735   66.7511 C   0  0  0  0  0  0  0  0  0  0  0  0
  -48.1193   57.9422   65.4696 C   0  0  0  0  0  0  0  0  0  0  0  0
  -47.8593   58.7365   64.1898 C   0  0  0  0  0  0  0  0  0  0  0  0
  -47.9646   60.2498   64.3803 C   0  0  0  0  0  0  0  0  0  0  0  0
  -49.2684   60.8753   63.8846 C   0  0  0  0  0  0  0  0  0  0  0  0
  -50.5329   60.3712   64.5853 C   0  0  0  0  0  0  0  0  0  0  0  0
  -51.6818   60.1685   63.6404 C   0  0  0  0  0  0  0  0  0  0  0  0
  -51.7934   59.2019   62.7465 C   0  0  0  0  0  0  0  0  0  0  0  0
  -50.7960   58.1111   62.4981 C   0  0  0  0  0  0  0  0  0  0  0  0
  -50.8268   57.5639   61.0694 C   0  0  0  0  0  0  0  0  0  0  0  0
  -50.0786   58.4396   60.0730 C   0  0  0  0  0  0  0  0  0  0  0  0
  -48.6413   57.9912   59.8337 C   0  0  0  0  0  0  0  0  0  0  0  0
  -48.4714   56.4874   59.6507 C   0  0  0  0  0  0  0  0  0  0  0  0
  -47.4289   56.1108   58.6073 C   0  0  0  0  0  0  0  0  0  0  0  0
  -47.7871   56.5301   57.1904 C   0  0  0  0  0  0  0  0  0  0  0  0
  -47.0723   57.7918   56.7507 C   0  0  0  0  0  0  0  0  0  0  0  0
  -37.5067   61.7642   62.3468 O   0  0  0  0  0  0  0  0  0  0  0  0
  -38.3171   60.7588   62.9622 C   0  0  0  0  0  0  0  0  0  0  0  0
  -36.6333   61.7785   62.7687 H   0  0  0  0  0  0  0  0  0  0  0  0
  -39.6765   60.7079   62.3347 C   0  0  0  0  0  0  0  0  0  0  0  0
  -39.9566   60.1408   61.1781 C   0  0  0  0  0  0  0  0  0  0  0  0
  -41.3267   60.0935   60.5854 C   0  0  0  0  0  0  0  0  0  0  0  0
  -41.5530   58.7845   59.8264 C   0  0  0  0  0  0  0  0  0  0  0  0
  -40.7181   57.6190   60.3315 C   0  0  0  0  0  0  0  0  0  0  0  0
  -41.3058   56.9059   61.5374 C   0  0  0  0  0  0  0  0  0  0  0  0
  -40.2631   56.3290   62.4838 C   0  0  0  0  0  0  0  0  0  0  0  0
  -38.8909   56.9702   62.3451 C   0  0  0  0  0  0  0  0  0  0  0  0
  -38.1875   57.2028   63.6707 C   0  0  0  0  0  0  0  0  0  0  0  0
  -36.7562   57.6878   63.5343 C   0  0  0  0  0  0  0  0  0  0  0  0
  -36.1824   57.5272   62.1369 C   0  0  0  0  0  0  0  0  0  0  0  0
  -34.8557   58.2407   61.9545 C   0  0  0  0  0  0  0  0  0  0  0  0
  -33.6559   57.4759   62.4798 C   0  0  0  0  0  0  0  0  0  0  0  0
  -32.7974   58.3079   63.4121 C   0  0  0  0  0  0  0  0  0  0  0  0
  -33.4836   58.5949   64.7317 C   0  0  0  0  0  0  0  0  0  0  0  0
  -37.0361   61.1201   65.1148 C   0  0  0  0  0  0  0  0  0  0  0  0
  -36.5184   62.4406   64.9172 O   0  0  0  0  0  0  0  0  0  0  0  0
  -34.8375   61.2726   63.0063 O   0  0  0  0  0  0  0  0  0  0  0  0
  -33.0851   65.1181   63.8210 O   0  0  0  0  0  0  0  0  0  0  0  0
  -34.7777   63.7411   65.6963 O   0  0  0  0  0  0  0  0  0  0  0  0
  -35.1291   62.5384   65.0379 C   0  0  0  0  0  0  0  0  0  0  0  0
  -34.5307   62.5094   63.6376 C   0  0  0  0  0  0  0  0  0  0  0  0
  -33.0215   62.7015   63.7153 C   0  0  0  0  0  0  0  0  0  0  0  0
  -32.6696   63.9467   64.5159 C   0  0  0  0  0  0  0  0  0  0  0  0
  -33.3606   63.8938   65.8762 C   0  0  0  0  0  0  0  0  0  0  0  0
  -35.8002   61.1618   62.9628 H   0  0  0  0  0  0  0  0  0  0  0  0
  -32.6471   65.1535   62.9563 H   0  0  0  0  0  0  0  0  0  0  0  0
  -31.8715   65.7152   66.4710 O   0  0  0  0  0  0  0  0  0  0  0  0
  -33.1561   65.1462   66.6961 C   0  0  0  0  0  0  0  0  0  0  0  0
  -31.7730   66.5151   67.0107 H   0  0  0  0  0  0  0  0  0  0  0  0
  -32.5996   62.8792   62.3261 O   0  0  0  0  0  0  0  0  0  0  0  0
  -30.6568   61.5175   62.7488 O   0  0  0  0  0  0  0  0  0  0  0  0
  -30.4104   63.8547   61.8585 O   0  0  0  0  0  0  0  0  0  0  0  0
  -31.2628   62.0883   60.5207 O   0  0  0  0  0  0  0  0  0  0  0  0
  -31.0785   62.6115   61.9546 S   0  0  0  0  0  0  0  0  0  0  0  0
  -30.5301   61.8124   63.6641 H   0  0  0  0  0  0  0  0  0  0  0  0
  -31.7197   61.2330   60.5448 H   0  0  0  0  0  0  0  0  0  0  0  0
  2  1  1  0  0  0
  2  4  1  0  0  0
  2  5  1  0  0  0
 47 48  1  0  0  0
 47  1  1  0  0  0
 48 52  1  0  0  0
  1 30  1  0  0  0
 29 30  1  0  0  0
 29 31  1  0  0  0
 30 32  1  0  0  0
  3  4  2  0  0  0
 32 33  2  0  0  0
 49 53  1  0  0  0
 49 57  1  0  0  0
 33 34  1  0  0  0
 62 54  1  0  0  0
 62 66  1  0  0  0
 34 35  1  0  0  0
 50 55  1  0  0  0
 50 58  1  0  0  0
 35 36  1  0  0  0
 51 52  1  0  0  0
 51 56  1  0  0  0
 36 37  1  0  0  0
 59 60  1  0  0  0
 59 61  1  0  0  0
 37 38  1  0  0  0
 63 66  1  0  0  0
 63 67  1  0  0  0
 38 39  1  0  0  0
 64 66  1  0  0  0
 39 40  1  0  0  0
 65 66  1  0  0  0
 65 68  1  0  0  0
 40 41  1  0  0  0
 41 42  1  0  0  0
 42 43  1  0  0  0
 43 44  1  0  0  0
 44 45  1  0  0  0
 45 46  1  0  0  0
  4  6  1  0  0  0
  6  7  1  0  0  0
  7  8  1  0  0  0
  8  9  1  0  0  0
  9 10  1  0  0  0
 10 11  1  0  0  0
 11 12  1  0  0  0
 12 13  1  0  0  0
 13 14  1  0  0  0
 14 15  1  0  0  0
 15 16  1  0  0  0
 16 17  1  0  0  0
 17 18  1  0  0  0
 18 19  1  0  0  0
 19 20  2  0  0  0
 20 21  1  0  0  0
 21 22  1  0  0  0
 22 23  1  0  0  0
 23 24  1  0  0  0
 24 25  1  0  0  0
 25 26  1  0  0  0
 26 27  1  0  0  0
 27 28  1  0  0  0
 52 53  1  0  0  0
 53 54  1  0  0  0
 54 55  1  0  0  0
 55 56  1  0  0  0
 56 60  1  0  0  0
M  CHG 1  64  -1
M  END
> <minimizedAffinity>
-9.10893

> <CNNscore>
0.1102240607

> <CNNaffinity>
7.3238210678

> <CNN_VS>
0.8072612882

> <CNNaffinity_variance>
1.0529403687

$$$$
/media/chris/experiments/cd1a-new-docking/inputs/ligands/7ryn_ligand.pdb


 68 68  0  0  0  0  0  0  0  0999 V2000
  -39.0229   60.9238   62.4470 C   0  0  0  0  0  0  0  0  0  0  0  0
  -40.0715   60.3069   63.2539 N   0  0  0  0  0  0  0  0  0  0  0  0
  -41.5427   61.9999   63.0601 O   0  0  0  0  0  0  0  0  0  0  0  0
  -41.2477   60.8913   63.4974 C   0  0  0  0  0  0  0  0  0  0  0  0
  -39.9035   59.4160   63.6375 H   0  0  0  0  0  0  0  0  0  0  0  0
  -42.2080   60.0961   64.3462 C   0  0  0  0  0  0  0  0  0  0  0  0
  -43.2021   59.2976   63.5127 C   0  0  0  0  0  0  0  0  0  0  0  0
  -44.2609   58.6114   64.3610 C   0  0  0  0  0  0  0  0  0  0  0  0
  -43.7146   57.5143   65.2594 C   0  0  0  0  0  0  0  0  0  0  0  0
  -44.0370   57.7086   66.7335 C   0  0  0  0  0  0  0  0  0  0  0  0
  -45.5098   57.5234   67.0755 C   0  0  0  0  0  0  0  0  0  0  0  0
  -46.2112   58.8077   67.4987 C   0  0  0  0  0  0  0  0  0  0  0  0
  -47.5925   59.0087   66.8807 C   0  0  0  0  0  0  0  0  0  0  0  0
  -47.9594   57.9666   65.8255 C   0  0  0  0  0  0  0  0  0  0  0  0
  -48.1129   58.5206   64.4092 C   0  0  0  0  0  0  0  0  0  0  0  0
  -47.7931   60.0117   64.3006 C   0  0  0  0  0  0  0  0  0  0  0  0
  -49.0091   60.9248   64.1445 C   0  0  0  0  0  0  0  0  0  0  0  0
  -50.2875   60.4170   64.8169 C   0  0  0  0  0  0  0  0  0  0  0  0
  -51.4848   60.4759   63.9130 C   0  0  0  0  0  0  0  0  0  0  0  0
  -51.8577   59.5447   63.0530 C   0  0  0  0  0  0  0  0  0  0  0  0
  -51.1614   58.2401   62.8090 C   0  0  0  0  0  0  0  0  0  0  0  0
  -50.7280   58.0372   61.3556 C   0  0  0  0  0  0  0  0  0  0  0  0
  -49.6170   58.9837   60.9208 C   0  0  0  0  0  0  0  0  0  0  0  0
  -48.8436   58.4899   59.7034 C   0  0  0  0  0  0  0  0  0  0  0  0
  -48.7232   56.9734   59.6045 C   0  0  0  0  0  0  0  0  0  0  0  0
  -47.4868   56.5046   58.8505 C   0  0  0  0  0  0  0  0  0  0  0  0
  -46.9169   57.5348   57.8883 C   0  0  0  0  0  0  0  0  0  0  0  0
  -47.6080   57.5273   56.5398 C   0  0  0  0  0  0  0  0  0  0  0  0
  -38.1049   60.8309   60.2147 O   0  0  0  0  0  0  0  0  0  0  0  0
  -38.7307   60.0364   61.2264 C   0  0  0  0  0  0  0  0  0  0  0  0
  -37.3005   61.2370   60.5739 H   0  0  0  0  0  0  0  0  0  0  0  0
  -39.9791   59.3923   60.7061 C   0  0  0  0  0  0  0  0  0  0  0  0
  -40.0485   58.1818   60.1888 C   0  0  0  0  0  0  0  0  0  0  0  0
  -41.3128   57.5611   59.6918 C   0  0  0  0  0  0  0  0  0  0  0  0
  -42.0955   56.9147   60.8365 C   0  0  0  0  0  0  0  0  0  0  0  0
  -41.2874   55.9296   61.6656 C   0  0  0  0  0  0  0  0  0  0  0  0
  -41.3127   56.2024   63.1598 C   0  0  0  0  0  0  0  0  0  0  0  0
  -40.1364   57.0297   63.6578 C   0  0  0  0  0  0  0  0  0  0  0  0
  -38.8725   56.8544   62.8299 C   0  0  0  0  0  0  0  0  0  0  0  0
  -37.6327   57.4514   63.4723 C   0  0  0  0  0  0  0  0  0  0  0  0
  -36.4055   57.4352   62.5802 C   0  0  0  0  0  0  0  0  0  0  0  0
  -35.4002   58.5293   62.8962 C   0  0  0  0  0  0  0  0  0  0  0  0
  -34.9969   58.5604   64.3587 C   0  0  0  0  0  0  0  0  0  0  0  0
  -33.5068   58.7163   64.5941 C   0  0  0  0  0  0  0  0  0  0  0  0
  -32.6796   58.2789   63.4012 C   0  0  0  0  0  0  0  0  0  0  0  0
  -31.8838   59.4179   62.7978 C   0  0  0  0  0  0  0  0  0  0  0  0
  -37.7865   61.1552   63.2909 C   0  0  0  0  0  0  0  0  0  0  0  0
  -37.1178   62.3224   62.7998 O   0  0  0  0  0  0  0  0  0  0  0  0
  -35.3404   63.9619   61.3877 O   0  0  0  0  0  0  0  0  0  0  0  0
  -34.4572   64.6857   65.5372 O   0  0  0  0  0  0  0  0  0  0  0  0
  -35.6714   62.2526   64.5974 O   0  0  0  0  0  0  0  0  0  0  0  0
  -35.7821   62.4309   63.1976 C   0  0  0  0  0  0  0  0  0  0  0  0
  -35.2826   63.8140   62.8009 C   0  0  0  0  0  0  0  0  0  0  0  0
  -33.8543   64.0097   63.2934 C   0  0  0  0  0  0  0  0  0  0  0  0
  -33.7439   63.7122   64.7816 C   0  0  0  0  0  0  0  0  0  0  0  0
  -34.3173   62.3274   65.0715 C   0  0  0  0  0  0  0  0  0  0  0  0
  -36.2537   63.8351   61.0864 H   0  0  0  0  0  0  0  0  0  0  0  0
  -34.0942   65.5665   65.3544 H   0  0  0  0  0  0  0  0  0  0  0  0
  -33.5134   62.8643   67.2972 O   0  0  0  0  0  0  0  0  0  0  0  0
  -34.3505   61.9940   66.5446 C   0  0  0  0  0  0  0  0  0  0  0  0
  -33.5576   62.6239   68.2359 H   0  0  0  0  0  0  0  0  0  0  0  0
  -33.5725   65.4253   63.0566 O   0  0  0  0  0  0  0  0  0  0  0  0
  -31.2759   66.1524   63.1201 O   0  0  0  0  0  0  0  0  0  0  0  0
  -32.7066   66.6113   61.1056 O   0  0  0  0  0  0  0  0  0  0  0  0
  -31.9486   64.4237   61.6312 O   0  0  0  0  0  0  0  0  0  0  0  0
  -32.2938   65.8112   62.1966 S   0  0  0  0  0  0  0  0  0  0  0  0
  -31.4621   67.0260   63.4983 H   0  0  0  0  0  0  0  0  0  0  0  0
  -31.6597   63.8433   62.3527 H   0  0  0  0  0  0  0  0  0  0  0  0
  2  1  1  0  0  0
  2  4  1  0  0  0
  2  5  1  0  0  0
 47 48  1  0  0  0
 47  1  1  0  0  0
 48 52  1  0  0  0
  1 30  1  0  0  0
 29 30  1  0  0  0
 29 31  1  0  0  0
 30 32  1  0  0  0
  3  4  2  0  0  0
 32 33  2  0  0  0
 49 53  1  0  0  0
 49 57  1  0  0  0
 33 34  1  0  0  0
 62 54  1  0  0  0
 62 66  1  0  0  0
 34 35  1  0  0  0
 50 55  1  0  0  0
 50 58  1  0  0  0
 35 36  1  0  0  0
 51 52  1  0  0  0
 51 56  1  0  0  0
 36 37  1  0  0  0
 59 60  1  0  0  0
 59 61  1  0  0  0
 37 38  1  0  0  0
 63 66  1  0  0  0
 63 67  1  0  0  0
 38 39  1  0  0  0
 64 66  1  0  0  0
 39 40  1  0  0  0
 65 66  1  0  0  0
 65 68  1  0  0  0
 40 41  1  0  0  0
 41 42  1  0  0  0
 42 43  1  0  0  0
 43 44  1  0  0  0
 44 45  1  0  0  0
 45 46  1  0  0  0
  4  6  1  0  0  0
  6  7  1  0  0  0
  7  8  1  0  0  0
  8  9  1  0  0  0
  9 10  1  0  0  0
 10 11  1  0  0  0
 11 12  1  0  0  0
 12 13  1  0  0  0
 13 14  1  0  0  0
 14 15  1  0  0  0
 15 16  1  0  0  0
 16 17  1  0  0  0
 17 18  1  0  0  0
 18 19  1  0  0  0
 19 20  2  0  0  0
 20 21  1  0  0  0
 21 22  1  0  0  0
 22 23  1  0  0  0
 23 24  1  0  0  0
 24 25  1  0  0  0
 25 26  1  0  0  0
 26 27  1  0  0  0
 27 28  1  0  0  0
 52 53  1  0  0  0
 53 54  1  0  0  0
 54 55  1  0  0  0
 55 56  1  0  0  0
 56 60  1  0  0  0
M  CHG 1  64  -1
M  END
> <minimizedAffinity>
-8.61537

> <CNNscore>
0.1094545349

> <CNNaffinity>
7.2044153214

> <CNN_VS>
0.7885559201

> <CNNaffinity_variance>
1.2351233959

$$$$
/media/chris/experiments/cd1a-new-docking/inputs/ligands/7ryn_ligand.pdb


 68 68  0  0  0  0  0  0  0  0999 V2000
  -33.2243   60.6960   63.0024 C   0  0  0  0  0  0  0  0  0  0  0  0
  -34.4413   60.8656   63.7907 N   0  0  0  0  0  0  0  0  0  0  0  0
  -33.5008   62.1189   65.4070 O   0  0  0  0  0  0  0  0  0  0  0  0
  -34.4853   61.5624   64.9294 C   0  0  0  0  0  0  0  0  0  0  0  0
  -35.2708   60.4455   63.4670 H   0  0  0  0  0  0  0  0  0  0  0  0
  -35.8348   61.6328   65.5995 C   0  0  0  0  0  0  0  0  0  0  0  0
  -36.9679   61.1957   64.6800 C   0  0  0  0  0  0  0  0  0  0  0  0
  -37.7038   59.9702   65.1976 C   0  0  0  0  0  0  0  0  0  0  0  0
  -38.7896   60.2866   66.2126 C   0  0  0  0  0  0  0  0  0  0  0  0
  -40.1309   59.6399   65.9005 C   0  0  0  0  0  0  0  0  0  0  0  0
  -41.3330   60.4456   66.3760 C   0  0  0  0  0  0  0  0  0  0  0  0
  -42.4258   59.6018   67.0196 C   0  0  0  0  0  0  0  0  0  0  0  0
  -42.4064   58.1284   66.6207 C   0  0  0  0  0  0  0  0  0  0  0  0
  -43.7846   57.5531   66.2983 C   0  0  0  0  0  0  0  0  0  0  0  0
  -44.8698   58.6003   66.0495 C   0  0  0  0  0  0  0  0  0  0  0  0
  -46.0525   58.4923   67.0124 C   0  0  0  0  0  0  0  0  0  0  0  0
  -47.3790   59.0247   66.4704 C   0  0  0  0  0  0  0  0  0  0  0  0
  -47.3732   59.3732   64.9796 C   0  0  0  0  0  0  0  0  0  0  0  0
  -48.3628   60.4460   64.6276 C   0  0  0  0  0  0  0  0  0  0  0  0
  -49.2479   60.3976   63.6478 C   0  0  0  0  0  0  0  0  0  0  0  0
  -49.4439   59.2600   62.6919 C   0  0  0  0  0  0  0  0  0  0  0  0
  -50.8760   58.7219   62.6623 C   0  0  0  0  0  0  0  0  0  0  0  0
  -51.1542   57.8155   61.4705 C   0  0  0  0  0  0  0  0  0  0  0  0
  -49.9011   57.1536   60.9085 C   0  0  0  0  0  0  0  0  0  0  0  0
  -49.5573   57.5627   59.4809 C   0  0  0  0  0  0  0  0  0  0  0  0
  -48.1106   57.2870   59.0958 C   0  0  0  0  0  0  0  0  0  0  0  0
  -47.8998   57.0300   57.6121 C   0  0  0  0  0  0  0  0  0  0  0  0
  -46.9486   58.0207   56.9717 C   0  0  0  0  0  0  0  0  0  0  0  0
  -32.7976   58.9780   61.3589 O   0  0  0  0  0  0  0  0  0  0  0  0
  -32.9784   59.1980   62.7608 C   0  0  0  0  0  0  0  0  0  0  0  0
  -32.0651   59.5266   61.0373 H   0  0  0  0  0  0  0  0  0  0  0  0
  -34.1041   58.3653   63.2931 C   0  0  0  0  0  0  0  0  0  0  0  0
  -35.1705   58.0047   62.6071 C   0  0  0  0  0  0  0  0  0  0  0  0
  -36.2701   57.1602   63.1624 C   0  0  0  0  0  0  0  0  0  0  0  0
  -37.5177   57.2311   62.2796 C   0  0  0  0  0  0  0  0  0  0  0  0
  -37.5021   58.3663   61.2687 C   0  0  0  0  0  0  0  0  0  0  0  0
  -38.3850   59.5455   61.6399 C   0  0  0  0  0  0  0  0  0  0  0  0
  -39.3872   59.9315   60.5619 C   0  0  0  0  0  0  0  0  0  0  0  0
  -39.7026   58.8052   59.5895 C   0  0  0  0  0  0  0  0  0  0  0  0
  -41.0983   58.2292   59.7524 C   0  0  0  0  0  0  0  0  0  0  0  0
  -41.2688   57.3613   60.9853 C   0  0  0  0  0  0  0  0  0  0  0  0
  -42.4151   57.7892   61.8856 C   0  0  0  0  0  0  0  0  0  0  0  0
  -41.9784   58.7230   62.9990 C   0  0  0  0  0  0  0  0  0  0  0  0
  -42.8196   59.9782   63.1296 C   0  0  0  0  0  0  0  0  0  0  0  0
  -42.0779   61.2250   62.6893 C   0  0  0  0  0  0  0  0  0  0  0  0
  -42.9850   62.2311   62.0115 C   0  0  0  0  0  0  0  0  0  0  0  0
  -32.0557   61.3586   63.7021 C   0  0  0  0  0  0  0  0  0  0  0  0
  -31.3676   62.1790   62.7511 O   0  0  0  0  0  0  0  0  0  0  0  0
  -33.2751   63.7284   61.4087 O   0  0  0  0  0  0  0  0  0  0  0  0
  -33.3902   65.1133   65.4819 O   0  0  0  0  0  0  0  0  0  0  0  0
  -31.0823   63.8421   64.3262 O   0  0  0  0  0  0  0  0  0  0  0  0
  -31.4682   63.5517   62.9957 C   0  0  0  0  0  0  0  0  0  0  0  0
  -32.9149   63.9675   62.7634 C   0  0  0  0  0  0  0  0  0  0  0  0
  -33.0909   65.4420   63.1034 C   0  0  0  0  0  0  0  0  0  0  0  0
  -32.5737   65.7460   64.5017 C   0  0  0  0  0  0  0  0  0  0  0  0
  -31.1386   65.2434   64.6380 C   0  0  0  0  0  0  0  0  0  0  0  0
  -33.1589   62.7873   61.2044 H   0  0  0  0  0  0  0  0  0  0  0  0
  -34.3026   65.4314   65.3969 H   0  0  0  0  0  0  0  0  0  0  0  0
  -31.3631   66.3072   66.8075 O   0  0  0  0  0  0  0  0  0  0  0  0
  -30.5825   65.4037   66.0336 C   0  0  0  0  0  0  0  0  0  0  0  0
  -30.9801   66.3872   67.6951 H   0  0  0  0  0  0  0  0  0  0  0  0
  -34.5364   65.6614   63.0593 O   0  0  0  0  0  0  0  0  0  0  0  0
  -35.9501   67.2900   61.9840 O   0  0  0  0  0  0  0  0  0  0  0  0
  -35.6755   64.9914   61.0060 O   0  0  0  0  0  0  0  0  0  0  0  0
  -33.9227   66.5918   60.9546 O   0  0  0  0  0  0  0  0  0  0  0  0
  -35.1915   66.1308   61.6904 S   0  0  0  0  0  0  0  0  0  0  0  0
  -36.7617   67.0357   62.4505 H   0  0  0  0  0  0  0  0  0  0  0  0
  -33.5593   67.3752   61.3964 H   0  0  0  0  0  0  0  0  0  0  0  0
  2  1  1  0  0  0
  2  4  1  0  0  0
  2  5  1  0  0  0
 47 48  1  0  0  0
 47  1  1  0  0  0
 48 52  1  0  0  0
  1 30  1  0  0  0
 29 30  1  0  0  0
 29 31  1  0  0  0
 30 32  1  0  0  0
  3  4  2  0  0  0
 32 33  2  0  0  0
 49 53  1  0  0  0
 49 57  1  0  0  0
 33 34  1  0  0  0
 62 54  1  0  0  0
 62 66  1  0  0  0
 34 35  1  0  0  0
 50 55  1  0  0  0
 50 58  1  0  0  0
 35 36  1  0  0  0
 51 52  1  0  0  0
 51 56  1  0  0  0
 36 37  1  0  0  0
 59 60  1  0  0  0
 59 61  1  0  0  0
 37 38  1  0  0  0
 63 66  1  0  0  0
 63 67  1  0  0  0
 38 39  1  0  0  0
 64 66  1  0  0  0
 39 40  1  0  0  0
 65 66  1  0  0  0
 65 68  1  0  0  0
 40 41  1  0  0  0
 41 42  1  0  0  0
 42 43  1  0  0  0
 43 44  1  0  0  0
 44 45  1  0  0  0
 45 46  1  0  0  0
  4  6  1  0  0  0
  6  7  1  0  0  0
  7  8  1  0  0  0
  8  9  1  0  0  0
  9 10  1  0  0  0
 10 11  1  0  0  0
 11 12  1  0  0  0
 12 13  1  0  0  0
 13 14  1  0  0  0
 14 15  1  0  0  0
 15 16  1  0  0  0
 16 17  1  0  0  0
 17 18  1  0  0  0
 18 19  1  0  0  0
 19 20  2  0  0  0
 20 21  1  0  0  0
 21 22  1  0  0  0
 22 23  1  0  0  0
 23 24  1  0  0  0
 24 25  1  0  0  0
 25 26  1  0  0  0
 26 27  1  0  0  0
 27 28  1  0  0  0
 52 53  1  0  0  0
 53 54  1  0  0  0
 54 55  1  0  0  0
 55 56  1  0  0  0
 56 60  1  0  0  0
M  CHG 1  64  -1
M  END
> <minimizedAffinity>
-9.14705

> <CNNscore>
0.1062323824

> <CNNaffinity>
7.1356315613

> <CNN_VS>
0.7580351233

> <CNNaffinity_variance>
1.9371473789

$$$$
