/media/chris/experiments/cd1a-new-docking/inputs/ligands/7ryn_ligand.pdb


 68 68  0  0  0  0  0  0  0  0999 V2000
  -38.3375   60.5731   64.7990 C   0  0  0  0  0  0  0  0  0  0  0  0
  -39.4224   59.6548   65.1324 N   0  0  0  0  0  0  0  0  0  0  0  0
  -40.6779   61.1651   66.2327 O   0  0  0  0  0  0  0  0  0  0  0  0
  -40.5062   60.0211   65.8219 C   0  0  0  0  0  0  0  0  0  0  0  0
  -39.3516   58.7192   64.8343 H   0  0  0  0  0  0  0  0  0  0  0  0
  -41.5240   58.9343   66.0631 C   0  0  0  0  0  0  0  0  0  0  0  0
  -41.3192   57.7291   65.1542 C   0  0  0  0  0  0  0  0  0  0  0  0
  -42.5486   57.4086   64.3192 C   0  0  0  0  0  0  0  0  0  0  0  0
  -43.3386   58.6338   63.8902 C   0  0  0  0  0  0  0  0  0  0  0  0
  -44.7985   58.6049   64.3168 C   0  0  0  0  0  0  0  0  0  0  0  0
  -45.1264   57.5170   65.3315 C   0  0  0  0  0  0  0  0  0  0  0  0
  -45.3268   58.0361   66.7495 C   0  0  0  0  0  0  0  0  0  0  0  0
  -46.6956   57.7263   67.3502 C   0  0  0  0  0  0  0  0  0  0  0  0
  -47.6615   57.0477   66.3803 C   0  0  0  0  0  0  0  0  0  0  0  0
  -48.9329   57.8435   66.0860 C   0  0  0  0  0  0  0  0  0  0  0  0
  -48.7396   59.3570   66.1813 C   0  0  0  0  0  0  0  0  0  0  0  0
  -48.2881   60.0347   64.8877 C   0  0  0  0  0  0  0  0  0  0  0  0
  -49.3582   60.8845   64.1972 C   0  0  0  0  0  0  0  0  0  0  0  0
  -50.6969   60.2068   64.1444 C   0  0  0  0  0  0  0  0  0  0  0  0
  -51.0339   59.2103   63.3450 C   0  0  0  0  0  0  0  0  0  0  0  0
  -50.1462   58.5539   62.3316 C   0  0  0  0  0  0  0  0  0  0  0  0
  -49.7238   59.4826   61.1911 C   0  0  0  0  0  0  0  0  0  0  0  0
  -49.3638   58.7395   59.9114 C   0  0  0  0  0  0  0  0  0  0  0  0
  -49.8907   57.3094   59.8737 C   0  0  0  0  0  0  0  0  0  0  0  0
  -48.8086   56.2404   59.7745 C   0  0  0  0  0  0  0  0  0  0  0  0
  -47.4604   56.7739   59.3109 C   0  0  0  0  0  0  0  0  0  0  0  0
  -47.1128   56.4219   57.8732 C   0  0  0  0  0  0  0  0  0  0  0  0
  -47.7245   57.3768   56.8682 C   0  0  0  0  0  0  0  0  0  0  0  0
  -37.8916   62.0566   62.9456 O   0  0  0  0  0  0  0  0  0  0  0  0
  -38.2342   60.7064   63.2712 C   0  0  0  0  0  0  0  0  0  0  0  0
  -37.0644   62.2969   63.3916 H   0  0  0  0  0  0  0  0  0  0  0  0
  -39.5094   60.3000   62.5985 C   0  0  0  0  0  0  0  0  0  0  0  0
  -40.5403   61.0937   62.3853 C   0  0  0  0  0  0  0  0  0  0  0  0
  -41.7937   60.6620   61.6974 C   0  0  0  0  0  0  0  0  0  0  0  0
  -41.4862   60.0337   60.3367 C   0  0  0  0  0  0  0  0  0  0  0  0
  -41.8769   58.5690   60.2241 C   0  0  0  0  0  0  0  0  0  0  0  0
  -40.7035   57.6049   60.2592 C   0  0  0  0  0  0  0  0  0  0  0  0
  -40.3812   57.0727   61.6479 C   0  0  0  0  0  0  0  0  0  0  0  0
  -38.8947   57.0666   61.9700 C   0  0  0  0  0  0  0  0  0  0  0  0
  -38.0579   57.8966   61.0124 C   0  0  0  0  0  0  0  0  0  0  0  0
  -36.6253   58.1069   61.4663 C   0  0  0  0  0  0  0  0  0  0  0  0
  -36.3171   57.5085   62.8281 C   0  0  0  0  0  0  0  0  0  0  0  0
  -34.8660   57.0909   62.9781 C   0  0  0  0  0  0  0  0  0  0  0  0
  -33.8740   58.0206   62.3059 C   0  0  0  0  0  0  0  0  0  0  0  0
  -32.5389   58.0648   63.0231 C   0  0  0  0  0  0  0  0  0  0  0  0
  -31.7916   59.3595   62.7789 C   0  0  0  0  0  0  0  0  0  0  0  0
  -37.0410   60.0917   65.4169 C   0  0  0  0  0  0  0  0  0  0  0  0
  -35.9756   60.3678   64.5008 O   0  0  0  0  0  0  0  0  0  0  0  0
  -34.0942   61.4461   62.7291 O   0  0  0  0  0  0  0  0  0  0  0  0
  -35.7069   64.8372   64.8320 O   0  0  0  0  0  0  0  0  0  0  0  0
  -35.7200   62.1725   65.9170 O   0  0  0  0  0  0  0  0  0  0  0  0
  -35.1068   61.3808   64.9167 C   0  0  0  0  0  0  0  0  0  0  0  0
  -34.7642   62.2358   63.7035 C   0  0  0  0  0  0  0  0  0  0  0  0
  -33.8868   63.4072   64.1267 C   0  0  0  0  0  0  0  0  0  0  0  0
  -34.5228   64.1804   65.2726 C   0  0  0  0  0  0  0  0  0  0  0  0
  -34.8696   63.2210   66.4084 C   0  0  0  0  0  0  0  0  0  0  0  0
  -34.6622   60.7044   62.4679 H   0  0  0  0  0  0  0  0  0  0  0  0
  -35.4887   65.4474   64.1102 H   0  0  0  0  0  0  0  0  0  0  0  0
  -36.2964   62.9374   68.3507 O   0  0  0  0  0  0  0  0  0  0  0  0
  -35.6088   63.8875   67.5449 C   0  0  0  0  0  0  0  0  0  0  0  0
  -36.7591   63.3968   69.0687 H   0  0  0  0  0  0  0  0  0  0  0  0
  -33.8149   64.2619   62.9420 O   0  0  0  0  0  0  0  0  0  0  0  0
  -31.4432   64.4093   63.3433 O   0  0  0  0  0  0  0  0  0  0  0  0
  -32.4992   65.6732   61.4451 O   0  0  0  0  0  0  0  0  0  0  0  0
  -32.2676   63.3108   61.4013 O   0  0  0  0  0  0  0  0  0  0  0  0
  -32.3906   64.5519   62.3006 S   0  0  0  0  0  0  0  0  0  0  0  0
  -31.4931   65.1781   63.9328 H   0  0  0  0  0  0  0  0  0  0  0  0
  -32.1907   62.5174   61.9540 H   0  0  0  0  0  0  0  0  0  0  0  0
  2  1  1  0  0  0
  2  4  1  0  0  0
  2  5  1  0  0  0
 47 48  1  0  0  0
 47  1  1  0  0  0
 48 52  1  0  0  0
  1 30  1  0  0  0
 29 30  1  0  0  0
 29 31  1  0  0  0
 30 32  1  0  0  0
  3  4  2  0  0  0
 32 33  2  0  0  0
 49 53  1  0  0  0
 49 57  1  0  0  0
 33 34  1  0  0  0
 62 54  1  0  0  0
 62 66  1  0  0  0
 34 35  1  0  0  0
 50 55  1  0  0  0
 50 58  1  0  0  0
 35 36  1  0  0  0
 51 52  1  0  0  0
 51 56  1  0  0  0
 36 37  1  0  0  0
 59 60  1  0  0  0
 59 61  1  0  0  0
 37 38  1  0  0  0
 63 66  1  0  0  0
 63 67  1  0  0  0
 38 39  1  0  0  0
 64 66  1  0  0  0
 39 40  1  0  0  0
 65 66  1  0  0  0
 65 68  1  0  0  0
 40 41  1  0  0  0
 41 42  1  0  0  0
 42 43  1  0  0  0
 43 44  1  0  0  0
 44 45  1  0  0  0
 45 46  1  0  0  0
  4  6  1  0  0  0
  6  7  1  0  0  0
  7  8  1  0  0  0
  8  9  1  0  0  0
  9 10  1  0  0  0
 10 11  1  0  0  0
 11 12  1  0  0  0
 12 13  1  0  0  0
 13 14  1  0  0  0
 14 15  1  0  0  0
 15 16  1  0  0  0
 16 17  1  0  0  0
 17 18  1  0  0  0
 18 19  1  0  0  0
 19 20  2  0  0  0
 20 21  1  0  0  0
 21 22  1  0  0  0
 22 23  1  0  0  0
 23 24  1  0  0  0
 24 25  1  0  0  0
 25 26  1  0  0  0
 26 27  1  0  0  0
 27 28  1  0  0  0
 52 53  1  0  0  0
 53 54  1  0  0  0
 54 55  1  0  0  0
 55 56  1  0  0  0
 56 60  1  0  0  0
M  CHG 1  64  -1
M  END
> <minimizedAffinity>
-9.29319

> <CNNscore>
0.1784076095

> <CNNaffinity>
7.5455436707

> <CNN_VS>
1.3461824656

> <CNNaffinity_variance>
1.8207023144

$$$$
/media/chris/experiments/cd1a-new-docking/inputs/ligands/7ryn_ligand.pdb


 68 68  0  0  0  0  0  0  0  0999 V2000
  -37.4587   61.3974   63.9100 C   0  0  0  0  0  0  0  0  0  0  0  0
  -37.7083   60.1969   64.7024 N   0  0  0  0  0  0  0  0  0  0  0  0
  -39.2621   61.1207   66.0441 O   0  0  0  0  0  0  0  0  0  0  0  0
  -38.5887   60.1516   65.7058 C   0  0  0  0  0  0  0  0  0  0  0  0
  -37.2025   59.3803   64.4865 H   0  0  0  0  0  0  0  0  0  0  0  0
  -38.7144   58.8203   66.4038 C   0  0  0  0  0  0  0  0  0  0  0  0
  -39.1975   57.7154   65.4730 C   0  0  0  0  0  0  0  0  0  0  0  0
  -40.6895   57.7959   65.1919 C   0  0  0  0  0  0  0  0  0  0  0  0
  -41.3538   56.4429   64.9983 C   0  0  0  0  0  0  0  0  0  0  0  0
  -42.8723   56.4860   65.0795 C   0  0  0  0  0  0  0  0  0  0  0  0
  -43.4125   57.5486   66.0280 C   0  0  0  0  0  0  0  0  0  0  0  0
  -44.8367   57.9888   65.7145 C   0  0  0  0  0  0  0  0  0  0  0  0
  -45.5315   58.7403   66.8471 C   0  0  0  0  0  0  0  0  0  0  0  0
  -46.6889   57.9733   67.4845 C   0  0  0  0  0  0  0  0  0  0  0  0
  -47.4316   57.0347   66.5337 C   0  0  0  0  0  0  0  0  0  0  0  0
  -48.6998   57.6481   65.9399 C   0  0  0  0  0  0  0  0  0  0  0  0
  -48.9641   59.1002   66.3376 C   0  0  0  0  0  0  0  0  0  0  0  0
  -50.0897   59.7873   65.5598 C   0  0  0  0  0  0  0  0  0  0  0  0
  -50.7566   58.8753   64.5710 C   0  0  0  0  0  0  0  0  0  0  0  0
  -50.6425   58.9359   63.2561 C   0  0  0  0  0  0  0  0  0  0  0  0
  -49.8214   59.9260   62.4870 C   0  0  0  0  0  0  0  0  0  0  0  0
  -49.7773   59.6509   60.9824 C   0  0  0  0  0  0  0  0  0  0  0  0
  -50.2170   58.2399   60.6150 C   0  0  0  0  0  0  0  0  0  0  0  0
  -49.0751   57.3604   60.1185 C   0  0  0  0  0  0  0  0  0  0  0  0
  -48.9171   57.3267   58.6028 C   0  0  0  0  0  0  0  0  0  0  0  0
  -47.8275   58.2519   58.0793 C   0  0  0  0  0  0  0  0  0  0  0  0
  -46.7276   57.5426   57.3054 C   0  0  0  0  0  0  0  0  0  0  0  0
  -47.0479   56.0883   57.0253 C   0  0  0  0  0  0  0  0  0  0  0  0
  -37.3159   62.1656   61.6243 O   0  0  0  0  0  0  0  0  0  0  0  0
  -37.8739   61.1412   62.4523 C   0  0  0  0  0  0  0  0  0  0  0  0
  -36.3522   62.1808   61.7340 H   0  0  0  0  0  0  0  0  0  0  0  0
  -39.3640   61.0885   62.3086 C   0  0  0  0  0  0  0  0  0  0  0  0
  -40.0079   60.6661   61.2384 C   0  0  0  0  0  0  0  0  0  0  0  0
  -41.4965   60.6115   61.1313 C   0  0  0  0  0  0  0  0  0  0  0  0
  -42.1152   59.9783   62.3793 C   0  0  0  0  0  0  0  0  0  0  0  0
  -42.4771   58.5107   62.2190 C   0  0  0  0  0  0  0  0  0  0  0  0
  -41.8269   57.8336   61.0246 C   0  0  0  0  0  0  0  0  0  0  0  0
  -41.0807   56.5531   61.3696 C   0  0  0  0  0  0  0  0  0  0  0  0
  -39.6980   56.7912   61.9568 C   0  0  0  0  0  0  0  0  0  0  0  0
  -38.8459   57.7514   61.1455 C   0  0  0  0  0  0  0  0  0  0  0  0
  -37.3785   57.7535   61.5320 C   0  0  0  0  0  0  0  0  0  0  0  0
  -37.1130   57.2567   62.9428 C   0  0  0  0  0  0  0  0  0  0  0  0
  -35.7247   57.6085   63.4444 C   0  0  0  0  0  0  0  0  0  0  0  0
  -34.6049   57.2642   62.4811 C   0  0  0  0  0  0  0  0  0  0  0  0
  -33.4495   58.2429   62.5576 C   0  0  0  0  0  0  0  0  0  0  0  0
  -32.9579   58.4507   63.9752 C   0  0  0  0  0  0  0  0  0  0  0  0
  -36.0034   61.8019   64.0241 C   0  0  0  0  0  0  0  0  0  0  0  0
  -35.9212   62.9548   64.8695 O   0  0  0  0  0  0  0  0  0  0  0  0
  -33.1988   62.5041   65.3452 O   0  0  0  0  0  0  0  0  0  0  0  0
  -33.3777   64.0891   61.3479 O   0  0  0  0  0  0  0  0  0  0  0  0
  -35.4103   64.5893   63.3217 O   0  0  0  0  0  0  0  0  0  0  0  0
  -34.9653   63.8936   64.4713 C   0  0  0  0  0  0  0  0  0  0  0  0
  -33.6707   63.1498   64.1694 C   0  0  0  0  0  0  0  0  0  0  0  0
  -32.6232   64.1246   63.6467 C   0  0  0  0  0  0  0  0  0  0  0  0
  -33.1638   64.9319   62.4756 C   0  0  0  0  0  0  0  0  0  0  0  0
  -34.4829   65.5902   62.8722 C   0  0  0  0  0  0  0  0  0  0  0  0
  -33.8737   61.8867   65.6681 H   0  0  0  0  0  0  0  0  0  0  0  0
  -32.5407   63.6697   61.0942 H   0  0  0  0  0  0  0  0  0  0  0  0
  -36.5338   66.5327   61.9807 O   0  0  0  0  0  0  0  0  0  0  0  0
  -35.1488   66.3225   61.7309 C   0  0  0  0  0  0  0  0  0  0  0  0
  -36.9298   67.0037   61.2310 H   0  0  0  0  0  0  0  0  0  0  0  0
  -31.5244   63.2752   63.1879 O   0  0  0  0  0  0  0  0  0  0  0  0
  -31.3130   62.4132   60.9474 O   0  0  0  0  0  0  0  0  0  0  0  0
  -33.1881   61.6526   62.4378 O   0  0  0  0  0  0  0  0  0  0  0  0
  -30.9389   60.9960   62.8208 O   0  0  0  0  0  0  0  0  0  0  0  0
  -31.8555   62.0684   62.2092 S   0  0  0  0  0  0  0  0  0  0  0  0
  -31.8684   63.0907   60.5310 H   0  0  0  0  0  0  0  0  0  0  0  0
  -30.0119   61.2465   62.6836 H   0  0  0  0  0  0  0  0  0  0  0  0
  2  1  1  0  0  0
  2  4  1  0  0  0
  2  5  1  0  0  0
 47 48  1  0  0  0
 47  1  1  0  0  0
 48 52  1  0  0  0
  1 30  1  0  0  0
 29 30  1  0  0  0
 29 31  1  0  0  0
 30 32  1  0  0  0
  3  4  2  0  0  0
 32 33  2  0  0  0
 49 53  1  0  0  0
 49 57  1  0  0  0
 33 34  1  0  0  0
 62 54  1  0  0  0
 62 66  1  0  0  0
 34 35  1  0  0  0
 50 55  1  0  0  0
 50 58  1  0  0  0
 35 36  1  0  0  0
 51 52  1  0  0  0
 51 56  1  0  0  0
 36 37  1  0  0  0
 59 60  1  0  0  0
 59 61  1  0  0  0
 37 38  1  0  0  0
 63 66  1  0  0  0
 63 67  1  0  0  0
 38 39  1  0  0  0
 64 66  1  0  0  0
 39 40  1  0  0  0
 65 66  1  0  0  0
 65 68  1  0  0  0
 40 41  1  0  0  0
 41 42  1  0  0  0
 42 43  1  0  0  0
 43 44  1  0  0  0
 44 45  1  0  0  0
 45 46  1  0  0  0
  4  6  1  0  0  0
  6  7  1  0  0  0
  7  8  1  0  0  0
  8  9  1  0  0  0
  9 10  1  0  0  0
 10 11  1  0  0  0
 11 12  1  0  0  0
 12 13  1  0  0  0
 13 14  1  0  0  0
 14 15  1  0  0  0
 15 16  1  0  0  0
 16 17  1  0  0  0
 17 18  1  0  0  0
 18 19  1  0  0  0
 19 20  2  0  0  0
 20 21  1  0  0  0
 21 22  1  0  0  0
 22 23  1  0  0  0
 23 24  1  0  0  0
 24 25  1  0  0  0
 25 26  1  0  0  0
 26 27  1  0  0  0
 27 28  1  0  0  0
 52 53  1  0  0  0
 53 54  1  0  0  0
 54 55  1  0  0  0
 55 56  1  0  0  0
 56 60  1  0  0  0
M  CHG 1  64  -1
M  END
> <minimizedAffinity>
-8.36721

> <CNNscore>
0.1741394401

> <CNNaffinity>
7.3123426437

> <CNN_VS>
1.2733672857

> <CNNaffinity_variance>
0.9773602486

$$$$
/media/chris/experiments/cd1a-new-docking/inputs/ligands/7ryn_ligand.pdb


 68 68  0  0  0  0  0  0  0  0999 V2000
  -36.8475   60.9212   63.8956 C   0  0  0  0  0  0  0  0  0  0  0  0
  -38.2878   60.6974   63.9775 N   0  0  0  0  0  0  0  0  0  0  0  0
  -38.1591   58.7533   65.1053 O   0  0  0  0  0  0  0  0  0  0  0  0
  -38.8309   59.6332   64.5747 C   0  0  0  0  0  0  0  0  0  0  0  0
  -38.8886   61.3639   63.5725 H   0  0  0  0  0  0  0  0  0  0  0  0
  -40.3383   59.5785   64.5655 C   0  0  0  0  0  0  0  0  0  0  0  0
  -40.8757   58.2007   64.9305 C   0  0  0  0  0  0  0  0  0  0  0  0
  -42.2696   58.2560   65.5351 C   0  0  0  0  0  0  0  0  0  0  0  0
  -43.3494   58.6852   64.5558 C   0  0  0  0  0  0  0  0  0  0  0  0
  -44.7645   58.4068   65.0395 C   0  0  0  0  0  0  0  0  0  0  0  0
  -44.9519   58.5814   66.5412 C   0  0  0  0  0  0  0  0  0  0  0  0
  -46.1229   57.7924   67.1126 C   0  0  0  0  0  0  0  0  0  0  0  0
  -47.1122   57.2811   66.0685 C   0  0  0  0  0  0  0  0  0  0  0  0
  -48.5144   57.8741   66.1973 C   0  0  0  0  0  0  0  0  0  0  0  0
  -48.5708   59.3995   66.1188 C   0  0  0  0  0  0  0  0  0  0  0  0
  -48.1380   59.9559   64.7622 C   0  0  0  0  0  0  0  0  0  0  0  0
  -49.2020   60.7715   64.0279 C   0  0  0  0  0  0  0  0  0  0  0  0
  -50.6444   60.3223   64.2762 C   0  0  0  0  0  0  0  0  0  0  0  0
  -50.9671   59.0094   63.6232 C   0  0  0  0  0  0  0  0  0  0  0  0
  -50.6689   58.6624   62.3837 C   0  0  0  0  0  0  0  0  0  0  0  0
  -49.9456   59.5091   61.3807 C   0  0  0  0  0  0  0  0  0  0  0  0
  -49.2888   58.7047   60.2569 C   0  0  0  0  0  0  0  0  0  0  0  0
  -49.9374   57.3454   60.0309 C   0  0  0  0  0  0  0  0  0  0  0  0
  -48.9356   56.1973   59.9845 C   0  0  0  0  0  0  0  0  0  0  0  0
  -47.5989   56.5512   59.3430 C   0  0  0  0  0  0  0  0  0  0  0  0
  -47.4450   56.0315   57.9205 C   0  0  0  0  0  0  0  0  0  0  0  0
  -47.6592   57.0858   56.8462 C   0  0  0  0  0  0  0  0  0  0  0  0
  -46.9023   58.3695   57.1209 C   0  0  0  0  0  0  0  0  0  0  0  0
  -35.6173   61.4485   65.9064 O   0  0  0  0  0  0  0  0  0  0  0  0
  -36.1724   60.3627   65.1585 C   0  0  0  0  0  0  0  0  0  0  0  0
  -36.3164   62.0874   66.1161 H   0  0  0  0  0  0  0  0  0  0  0  0
  -35.1191   59.3542   64.8161 C   0  0  0  0  0  0  0  0  0  0  0  0
  -33.8191   59.5592   64.8949 C   0  0  0  0  0  0  0  0  0  0  0  0
  -32.7928   58.5271   64.5602 C   0  0  0  0  0  0  0  0  0  0  0  0
  -32.3089   58.6802   63.1168 C   0  0  0  0  0  0  0  0  0  0  0  0
  -32.9512   57.7106   62.1381 C   0  0  0  0  0  0  0  0  0  0  0  0
  -34.4145   57.9957   61.8457 C   0  0  0  0  0  0  0  0  0  0  0  0
  -35.3825   57.0862   62.5882 C   0  0  0  0  0  0  0  0  0  0  0  0
  -36.8455   57.4278   62.3511 C   0  0  0  0  0  0  0  0  0  0  0  0
  -37.0679   58.4110   61.2154 C   0  0  0  0  0  0  0  0  0  0  0  0
  -38.4755   58.3932   60.6490 C   0  0  0  0  0  0  0  0  0  0  0  0
  -39.0613   59.7747   60.4126 C   0  0  0  0  0  0  0  0  0  0  0  0
  -40.5783   59.7897   60.4457 C   0  0  0  0  0  0  0  0  0  0  0  0
  -41.2248   58.4536   60.1342 C   0  0  0  0  0  0  0  0  0  0  0  0
  -41.9684   57.8752   61.3221 C   0  0  0  0  0  0  0  0  0  0  0  0
  -41.5418   56.4567   61.6390 C   0  0  0  0  0  0  0  0  0  0  0  0
  -36.5611   62.3960   63.7025 C   0  0  0  0  0  0  0  0  0  0  0  0
  -35.3594   62.5247   62.9343 O   0  0  0  0  0  0  0  0  0  0  0  0
  -32.8276   62.2025   61.7822 O   0  0  0  0  0  0  0  0  0  0  0  0
  -32.4808   65.7060   64.2576 O   0  0  0  0  0  0  0  0  0  0  0  0
  -34.4333   63.6456   64.7271 O   0  0  0  0  0  0  0  0  0  0  0  0
  -34.2029   62.6998   63.6996 C   0  0  0  0  0  0  0  0  0  0  0  0
  -33.0942   63.1853   62.7747 C   0  0  0  0  0  0  0  0  0  0  0  0
  -31.8352   63.4739   63.5825 C   0  0  0  0  0  0  0  0  0  0  0  0
  -32.1331   64.4129   64.7421 C   0  0  0  0  0  0  0  0  0  0  0  0
  -33.2887   63.8554   65.5695 C   0  0  0  0  0  0  0  0  0  0  0  0
  -33.6358   62.0275   61.2751 H   0  0  0  0  0  0  0  0  0  0  0  0
  -31.7478   66.0620   63.7315 H   0  0  0  0  0  0  0  0  0  0  0  0
  -32.6725   65.6481   67.0847 O   0  0  0  0  0  0  0  0  0  0  0  0
  -33.7263   64.7819   66.6796 C   0  0  0  0  0  0  0  0  0  0  0  0
  -32.9858   66.2277   67.7964 H   0  0  0  0  0  0  0  0  0  0  0  0
  -30.9340   64.1345   62.6387 O   0  0  0  0  0  0  0  0  0  0  0  0
  -31.3210   64.4313   60.2788 O   0  0  0  0  0  0  0  0  0  0  0  0
  -31.2378   66.4149   61.8197 O   0  0  0  0  0  0  0  0  0  0  0  0
  -33.0516   64.8833   61.8466 O   0  0  0  0  0  0  0  0  0  0  0  0
  -31.5611   65.0710   61.5191 S   0  0  0  0  0  0  0  0  0  0  0  0
  -30.3860   64.5302   60.0397 H   0  0  0  0  0  0  0  0  0  0  0  0
  -33.3127   63.9694   61.6528 H   0  0  0  0  0  0  0  0  0  0  0  0
  2  1  1  0  0  0
  2  4  1  0  0  0
  2  5  1  0  0  0
 47 48  1  0  0  0
 47  1  1  0  0  0
 48 52  1  0  0  0
  1 30  1  0  0  0
 29 30  1  0  0  0
 29 31  1  0  0  0
 30 32  1  0  0  0
  3  4  2  0  0  0
 32 33  2  0  0  0
 49 53  1  0  0  0
 49 57  1  0  0  0
 33 34  1  0  0  0
 62 54  1  0  0  0
 62 66  1  0  0  0
 34 35  1  0  0  0
 50 55  1  0  0  0
 50 58  1  0  0  0
 35 36  1  0  0  0
 51 52  1  0  0  0
 51 56  1  0  0  0
 36 37  1  0  0  0
 59 60  1  0  0  0
 59 61  1  0  0  0
 37 38  1  0  0  0
 63 66  1  0  0  0
 63 67  1  0  0  0
 38 39  1  0  0  0
 64 66  1  0  0  0
 39 40  1  0  0  0
 65 66  1  0  0  0
 65 68  1  0  0  0
 40 41  1  0  0  0
 41 42  1  0  0  0
 42 43  1  0  0  0
 43 44  1  0  0  0
 44 45  1  0  0  0
 45 46  1  0  0  0
  4  6  1  0  0  0
  6  7  1  0  0  0
  7  8  1  0  0  0
  8  9  1  0  0  0
  9 10  1  0  0  0
 10 11  1  0  0  0
 11 12  1  0  0  0
 12 13  1  0  0  0
 13 14  1  0  0  0
 14 15  1  0  0  0
 15 16  1  0  0  0
 16 17  1  0  0  0
 17 18  1  0  0  0
 18 19  1  0  0  0
 19 20  2  0  0  0
 20 21  1  0  0  0
 21 22  1  0  0  0
 22 23  1  0  0  0
 23 24  1  0  0  0
 24 25  1  0  0  0
 25 26  1  0  0  0
 26 27  1  0  0  0
 27 28  1  0  0  0
 52 53  1  0  0  0
 53 54  1  0  0  0
 54 55  1  0  0  0
 55 56  1  0  0  0
 56 60  1  0  0  0
M  CHG 1  64  -1
M  END
> <minimizedAffinity>
-9.14191

> <CNNscore>
0.1705898196

> <CNNaffinity>
7.0399932861

> <CNN_VS>
1.2009512186

> <CNNaffinity_variance>
1.0688607693

$$$$
/media/chris/experiments/cd1a-new-docking/inputs/ligands/7ryn_ligand.pdb


 68 68  0  0  0  0  0  0  0  0999 V2000
  -38.4961   58.9426   64.0110 C   0  0  0  0  0  0  0  0  0  0  0  0
  -39.8845   58.5710   63.7550 N   0  0  0  0  0  0  0  0  0  0  0  0
  -39.4187   56.6388   62.6977 O   0  0  0  0  0  0  0  0  0  0  0  0
  -40.2375   57.4503   63.1196 C   0  0  0  0  0  0  0  0  0  0  0  0
  -40.5958   59.1764   64.0660 H   0  0  0  0  0  0  0  0  0  0  0  0
  -41.7212   57.2335   62.9549 C   0  0  0  0  0  0  0  0  0  0  0  0
  -42.2898   56.2709   63.9895 C   0  0  0  0  0  0  0  0  0  0  0  0
  -43.1498   56.9696   65.0306 C   0  0  0  0  0  0  0  0  0  0  0  0
  -43.9291   58.1568   64.4898 C   0  0  0  0  0  0  0  0  0  0  0  0
  -45.2757   58.3680   65.1653 C   0  0  0  0  0  0  0  0  0  0  0  0
  -45.2358   58.2354   66.6824 C   0  0  0  0  0  0  0  0  0  0  0  0
  -46.5553   57.7871   67.2974 C   0  0  0  0  0  0  0  0  0  0  0  0
  -47.5054   57.0945   66.3236 C   0  0  0  0  0  0  0  0  0  0  0  0
  -48.8359   57.8202   66.1305 C   0  0  0  0  0  0  0  0  0  0  0  0
  -48.7339   59.3453   66.1176 C   0  0  0  0  0  0  0  0  0  0  0  0
  -48.2982   59.9150   64.7675 C   0  0  0  0  0  0  0  0  0  0  0  0
  -49.3240   60.8199   64.0853 C   0  0  0  0  0  0  0  0  0  0  0  0
  -50.7853   60.4219   64.3097 C   0  0  0  0  0  0  0  0  0  0  0  0
  -51.1490   59.1318   63.6333 C   0  0  0  0  0  0  0  0  0  0  0  0
  -50.8442   58.7896   62.3941 C   0  0  0  0  0  0  0  0  0  0  0  0
  -50.0712   59.6200   61.4148 C   0  0  0  0  0  0  0  0  0  0  0  0
  -49.3742   58.7988   60.3280 C   0  0  0  0  0  0  0  0  0  0  0  0
  -50.0607   57.4692   60.0445 C   0  0  0  0  0  0  0  0  0  0  0  0
  -49.0843   56.3237   59.8026 C   0  0  0  0  0  0  0  0  0  0  0  0
  -47.6731   56.7647   59.4315 C   0  0  0  0  0  0  0  0  0  0  0  0
  -47.0703   55.9807   58.2743 C   0  0  0  0  0  0  0  0  0  0  0  0
  -47.1250   56.7033   56.9377 C   0  0  0  0  0  0  0  0  0  0  0  0
  -47.1460   58.2114   57.0835 C   0  0  0  0  0  0  0  0  0  0  0  0
  -37.9821   59.3927   66.3279 O   0  0  0  0  0  0  0  0  0  0  0  0
  -38.0485   58.3460   65.3550 C   0  0  0  0  0  0  0  0  0  0  0  0
  -38.8451   59.8312   66.3904 H   0  0  0  0  0  0  0  0  0  0  0  0
  -36.7303   57.6452   65.2313 C   0  0  0  0  0  0  0  0  0  0  0  0
  -35.5820   58.2328   64.9589 C   0  0  0  0  0  0  0  0  0  0  0  0
  -34.2805   57.5074   64.8569 C   0  0  0  0  0  0  0  0  0  0  0  0
  -33.3442   58.1947   63.8608 C   0  0  0  0  0  0  0  0  0  0  0  0
  -33.4109   57.6295   62.4512 C   0  0  0  0  0  0  0  0  0  0  0  0
  -34.3520   58.3773   61.5222 C   0  0  0  0  0  0  0  0  0  0  0  0
  -35.8045   57.9357   61.6263 C   0  0  0  0  0  0  0  0  0  0  0  0
  -36.7915   58.9431   61.0571 C   0  0  0  0  0  0  0  0  0  0  0  0
  -38.0190   58.3084   60.4273 C   0  0  0  0  0  0  0  0  0  0  0  0
  -39.0476   59.3086   59.9333 C   0  0  0  0  0  0  0  0  0  0  0  0
  -40.4649   58.7635   59.8905 C   0  0  0  0  0  0  0  0  0  0  0  0
  -41.5173   59.8260   60.1476 C   0  0  0  0  0  0  0  0  0  0  0  0
  -41.3089   60.6180   61.4242 C   0  0  0  0  0  0  0  0  0  0  0  0
  -42.6018   60.8562   62.1794 C   0  0  0  0  0  0  0  0  0  0  0  0
  -42.9920   62.3194   62.2149 C   0  0  0  0  0  0  0  0  0  0  0  0
  -38.3475   60.4497   63.9801 C   0  0  0  0  0  0  0  0  0  0  0  0
  -37.0643   60.7647   63.4279 O   0  0  0  0  0  0  0  0  0  0  0  0
  -34.4364   61.3494   62.6576 O   0  0  0  0  0  0  0  0  0  0  0  0
  -35.6286   64.6622   65.1327 O   0  0  0  0  0  0  0  0  0  0  0  0
  -36.8251   62.0529   65.3283 O   0  0  0  0  0  0  0  0  0  0  0  0
  -36.1512   61.2811   64.3517 C   0  0  0  0  0  0  0  0  0  0  0  0
  -35.1515   62.1454   63.5941 C   0  0  0  0  0  0  0  0  0  0  0  0
  -34.1867   62.8011   64.5740 C   0  0  0  0  0  0  0  0  0  0  0  0
  -34.9396   63.5386   65.6716 C   0  0  0  0  0  0  0  0  0  0  0  0
  -35.9454   62.5950   66.3264 C   0  0  0  0  0  0  0  0  0  0  0  0
  -35.0607   60.9377   62.0398 H   0  0  0  0  0  0  0  0  0  0  0  0
  -34.9913   65.2630   64.7161 H   0  0  0  0  0  0  0  0  0  0  0  0
  -36.3699   63.0108   68.6792 O   0  0  0  0  0  0  0  0  0  0  0  0
  -36.8174   63.2763   67.3548 C   0  0  0  0  0  0  0  0  0  0  0  0
  -36.9497   63.4614   69.3129 H   0  0  0  0  0  0  0  0  0  0  0  0
  -33.4364   63.7624   63.7664 O   0  0  0  0  0  0  0  0  0  0  0  0
  -31.4947   63.7184   65.1931 O   0  0  0  0  0  0  0  0  0  0  0  0
  -31.3409   64.6214   62.8528 O   0  0  0  0  0  0  0  0  0  0  0  0
  -31.6165   62.3033   63.2851 O   0  0  0  0  0  0  0  0  0  0  0  0
  -31.8491   63.7252   63.8221 S   0  0  0  0  0  0  0  0  0  0  0  0
  -31.6295   64.6036   65.5662 H   0  0  0  0  0  0  0  0  0  0  0  0
  -31.9534   61.6569   63.9251 H   0  0  0  0  0  0  0  0  0  0  0  0
  2  1  1  0  0  0
  2  4  1  0  0  0
  2  5  1  0  0  0
 47 48  1  0  0  0
 47  1  1  0  0  0
 48 52  1  0  0  0
  1 30  1  0  0  0
 29 30  1  0  0  0
 29 31  1  0  0  0
 30 32  1  0  0  0
  3  4  2  0  0  0
 32 33  2  0  0  0
 49 53  1  0  0  0
 49 57  1  0  0  0
 33 34  1  0  0  0
 62 54  1  0  0  0
 62 66  1  0  0  0
 34 35  1  0  0  0
 50 55  1  0  0  0
 50 58  1  0  0  0
 35 36  1  0  0  0
 51 52  1  0  0  0
 51 56  1  0  0  0
 36 37  1  0  0  0
 59 60  1  0  0  0
 59 61  1  0  0  0
 37 38  1  0  0  0
 63 66  1  0  0  0
 63 67  1  0  0  0
 38 39  1  0  0  0
 64 66  1  0  0  0
 39 40  1  0  0  0
 65 66  1  0  0  0
 65 68  1  0  0  0
 40 41  1  0  0  0
 41 42  1  0  0  0
 42 43  1  0  0  0
 43 44  1  0  0  0
 44 45  1  0  0  0
 45 46  1  0  0  0
  4  6  1  0  0  0
  6  7  1  0  0  0
  7  8  1  0  0  0
  8  9  1  0  0  0
  9 10  1  0  0  0
 10 11  1  0  0  0
 11 12  1  0  0  0
 12 13  1  0  0  0
 13 14  1  0  0  0
 14 15  1  0  0  0
 15 16  1  0  0  0
 16 17  1  0  0  0
 17 18  1  0  0  0
 18 19  1  0  0  0
 19 20  2  0  0  0
 20 21  1  0  0  0
 21 22  1  0  0  0
 22 23  1  0  0  0
 23 24  1  0  0  0
 24 25  1  0  0  0
 25 26  1  0  0  0
 26 27  1  0  0  0
 27 28  1  0  0  0
 52 53  1  0  0  0
 53 54  1  0  0  0
 54 55  1  0  0  0
 55 56  1  0  0  0
 56 60  1  0  0  0
M  CHG 1  64  -1
M  END
> <minimizedAffinity>
-8.39548

> <CNNscore>
0.1672055274

> <CNNaffinity>
7.5393762589

> <CNN_VS>
1.2606253624

> <CNNaffinity_variance>
1.1151115894

$$$$
/media/chris/experiments/cd1a-new-docking/inputs/ligands/7ryn_ligand.pdb


 68 68  0  0  0  0  0  0  0  0999 V2000
  -36.2150   61.2988   64.3421 C   0  0  0  0  0  0  0  0  0  0  0  0
  -37.5667   61.1905   64.8828 N   0  0  0  0  0  0  0  0  0  0  0  0
  -37.6336   58.9403   64.8973 O   0  0  0  0  0  0  0  0  0  0  0  0
  -38.1700   60.0222   65.1181 C   0  0  0  0  0  0  0  0  0  0  0  0
  -38.0580   62.0196   65.0841 H   0  0  0  0  0  0  0  0  0  0  0  0
  -39.5649   60.1109   65.6855 C   0  0  0  0  0  0  0  0  0  0  0  0
  -40.3745   58.8426   65.4481 C   0  0  0  0  0  0  0  0  0  0  0  0
  -41.7879   58.9370   66.0002 C   0  0  0  0  0  0  0  0  0  0  0  0
  -42.8724   58.7388   64.9543 C   0  0  0  0  0  0  0  0  0  0  0  0
  -44.0859   57.9757   65.4635 C   0  0  0  0  0  0  0  0  0  0  0  0
  -44.8481   58.6913   66.5715 C   0  0  0  0  0  0  0  0  0  0  0  0
  -46.0564   57.9199   67.0866 C   0  0  0  0  0  0  0  0  0  0  0  0
  -46.8472   57.1859   66.0066 C   0  0  0  0  0  0  0  0  0  0  0  0
  -48.3069   57.6239   65.8986 C   0  0  0  0  0  0  0  0  0  0  0  0
  -48.5386   59.1222   66.0923 C   0  0  0  0  0  0  0  0  0  0  0  0
  -48.1499   59.9610   64.8747 C   0  0  0  0  0  0  0  0  0  0  0  0
  -49.2945   60.7513   64.2409 C   0  0  0  0  0  0  0  0  0  0  0  0
  -50.6923   60.1836   64.5019 C   0  0  0  0  0  0  0  0  0  0  0  0
  -51.0012   58.9822   63.6561 C   0  0  0  0  0  0  0  0  0  0  0  0
  -50.6530   58.8088   62.3934 C   0  0  0  0  0  0  0  0  0  0  0  0
  -49.8767   59.7760   61.5520 C   0  0  0  0  0  0  0  0  0  0  0  0
  -49.3738   59.1795   60.2356 C   0  0  0  0  0  0  0  0  0  0  0  0
  -50.2600   58.0609   59.7039 C   0  0  0  0  0  0  0  0  0  0  0  0
  -49.4761   56.9188   59.0673 C   0  0  0  0  0  0  0  0  0  0  0  0
  -48.1728   56.5740   59.7787 C   0  0  0  0  0  0  0  0  0  0  0  0
  -46.9592   56.5556   58.8600 C   0  0  0  0  0  0  0  0  0  0  0  0
  -47.2902   56.7435   57.3879 C   0  0  0  0  0  0  0  0  0  0  0  0
  -46.9394   58.1262   56.8768 C   0  0  0  0  0  0  0  0  0  0  0  0
  -34.4666   62.0470   65.8313 O   0  0  0  0  0  0  0  0  0  0  0  0
  -35.2001   60.8893   65.4214 C   0  0  0  0  0  0  0  0  0  0  0  0
  -35.0837   62.7258   66.1467 H   0  0  0  0  0  0  0  0  0  0  0  0
  -34.2774   59.8177   64.9271 C   0  0  0  0  0  0  0  0  0  0  0  0
  -33.4602   59.9358   63.8993 C   0  0  0  0  0  0  0  0  0  0  0  0
  -32.5404   58.8526   63.4397 C   0  0  0  0  0  0  0  0  0  0  0  0
  -33.1390   58.0871   62.2579 C   0  0  0  0  0  0  0  0  0  0  0  0
  -33.9764   56.8825   62.6557 C   0  0  0  0  0  0  0  0  0  0  0  0
  -35.4678   57.1589   62.7405 C   0  0  0  0  0  0  0  0  0  0  0  0
  -35.9551   58.2273   61.7727 C   0  0  0  0  0  0  0  0  0  0  0  0
  -37.4435   58.1448   61.4707 C   0  0  0  0  0  0  0  0  0  0  0  0
  -38.1775   57.0997   62.2923 C   0  0  0  0  0  0  0  0  0  0  0  0
  -39.6647   57.0183   62.0028 C   0  0  0  0  0  0  0  0  0  0  0  0
  -40.1252   57.9375   60.8845 C   0  0  0  0  0  0  0  0  0  0  0  0
  -41.4054   58.6813   61.2169 C   0  0  0  0  0  0  0  0  0  0  0  0
  -41.1950   60.0002   61.9355 C   0  0  0  0  0  0  0  0  0  0  0  0
  -42.1763   61.0678   61.4927 C   0  0  0  0  0  0  0  0  0  0  0  0
  -42.6705   61.9160   62.6463 C   0  0  0  0  0  0  0  0  0  0  0  0
  -35.9696   62.7048   63.8348 C   0  0  0  0  0  0  0  0  0  0  0  0
  -34.8108   62.6844   62.9937 O   0  0  0  0  0  0  0  0  0  0  0  0
  -34.9621   64.7770   64.8483 O   0  0  0  0  0  0  0  0  0  0  0  0
  -31.0157   65.0777   63.1579 O   0  0  0  0  0  0  0  0  0  0  0  0
  -33.2157   63.8331   61.7835 O   0  0  0  0  0  0  0  0  0  0  0  0
  -34.3040   63.9491   62.6811 C   0  0  0  0  0  0  0  0  0  0  0  0
  -33.8509   64.6091   63.9770 C   0  0  0  0  0  0  0  0  0  0  0  0
  -33.2097   65.9576   63.6746 C   0  0  0  0  0  0  0  0  0  0  0  0
  -32.1114   65.8188   62.6307 C   0  0  0  0  0  0  0  0  0  0  0  0
  -32.6613   65.1018   61.4002 C   0  0  0  0  0  0  0  0  0  0  0  0
  -35.3615   63.9125   65.0332 H   0  0  0  0  0  0  0  0  0  0  0  0
  -30.6647   65.5316   63.9399 H   0  0  0  0  0  0  0  0  0  0  0  0
  -31.1248   63.4850   60.4439 O   0  0  0  0  0  0  0  0  0  0  0  0
  -31.6072   64.8208   60.3551 C   0  0  0  0  0  0  0  0  0  0  0  0
  -30.4516   63.3382   59.7613 H   0  0  0  0  0  0  0  0  0  0  0  0
  -32.6237   66.3814   64.9459 O   0  0  0  0  0  0  0  0  0  0  0  0
  -31.4665   64.3269   65.4431 O   0  0  0  0  0  0  0  0  0  0  0  0
  -33.5274   64.9759   66.7266 O   0  0  0  0  0  0  0  0  0  0  0  0
  -31.4647   66.1167   67.0097 O   0  0  0  0  0  0  0  0  0  0  0  0
  -32.3232   65.2780   66.0486 S   0  0  0  0  0  0  0  0  0  0  0  0
  -31.9770   63.7777   64.8276 H   0  0  0  0  0  0  0  0  0  0  0  0
  -30.6262   66.3449   66.5787 H   0  0  0  0  0  0  0  0  0  0  0  0
  2  1  1  0  0  0
  2  4  1  0  0  0
  2  5  1  0  0  0
 47 48  1  0  0  0
 47  1  1  0  0  0
 48 52  1  0  0  0
  1 30  1  0  0  0
 29 30  1  0  0  0
 29 31  1  0  0  0
 30 32  1  0  0  0
  3  4  2  0  0  0
 32 33  2  0  0  0
 49 53  1  0  0  0
 49 57  1  0  0  0
 33 34  1  0  0  0
 62 54  1  0  0  0
 62 66  1  0  0  0
 34 35  1  0  0  0
 50 55  1  0  0  0
 50 58  1  0  0  0
 35 36  1  0  0  0
 51 52  1  0  0  0
 51 56  1  0  0  0
 36 37  1  0  0  0
 59 60  1  0  0  0
 59 61  1  0  0  0
 37 38  1  0  0  0
 63 66  1  0  0  0
 63 67  1  0  0  0
 38 39  1  0  0  0
 64 66  1  0  0  0
 39 40  1  0  0  0
 65 66  1  0  0  0
 65 68  1  0  0  0
 40 41  1  0  0  0
 41 42  1  0  0  0
 42 43  1  0  0  0
 43 44  1  0  0  0
 44 45  1  0  0  0
 45 46  1  0  0  0
  4  6  1  0  0  0
  6  7  1  0  0  0
  7  8  1  0  0  0
  8  9  1  0  0  0
  9 10  1  0  0  0
 10 11  1  0  0  0
 11 12  1  0  0  0
 12 13  1  0  0  0
 13 14  1  0  0  0
 14 15  1  0  0  0
 15 16  1  0  0  0
 16 17  1  0  0  0
 17 18  1  0  0  0
 18 19  1  0  0  0
 19 20  2  0  0  0
 20 21  1  0  0  0
 21 22  1  0  0  0
 22 23  1  0  0  0
 23 24  1  0  0  0
 24 25  1  0  0  0
 25 26  1  0  0  0
 26 27  1  0  0  0
 27 28  1  0  0  0
 52 53  1  0  0  0
 53 54  1  0  0  0
 54 55  1  0  0  0
 55 56  1  0  0  0
 56 60  1  0  0  0
M  CHG 1  64  -1
M  END
> <minimizedAffinity>
-9.15598

> <CNNscore>
0.1666168720

> <CNNaffinity>
7.0626592636

> <CNN_VS>
1.1767581701

> <CNNaffinity_variance>
1.1856143475

$$$$
/media/chris/experiments/cd1a-new-docking/inputs/ligands/7ryn_ligand.pdb


 68 68  0  0  0  0  0  0  0  0999 V2000
  -40.3913   59.3314   64.7198 C   0  0  0  0  0  0  0  0  0  0  0  0
  -41.1636   60.4623   65.2255 N   0  0  0  0  0  0  0  0  0  0  0  0
  -41.2169   59.7709   67.3672 O   0  0  0  0  0  0  0  0  0  0  0  0
  -41.5158   60.5943   66.5072 C   0  0  0  0  0  0  0  0  0  0  0  0
  -41.4385   61.1625   64.5903 H   0  0  0  0  0  0  0  0  0  0  0  0
  -42.3066   61.8344   66.8421 C   0  0  0  0  0  0  0  0  0  0  0  0
  -41.7741   63.0755   66.1374 C   0  0  0  0  0  0  0  0  0  0  0  0
  -42.8814   63.9417   65.5585 C   0  0  0  0  0  0  0  0  0  0  0  0
  -42.9201   63.9583   64.0394 C   0  0  0  0  0  0  0  0  0  0  0  0
  -42.1828   62.7955   63.3925 C   0  0  0  0  0  0  0  0  0  0  0  0
  -42.9876   62.0700   62.3217 C   0  0  0  0  0  0  0  0  0  0  0  0
  -42.5831   60.6146   62.1261 C   0  0  0  0  0  0  0  0  0  0  0  0
  -41.1461   60.4145   61.6511 C   0  0  0  0  0  0  0  0  0  0  0  0
  -41.0199   60.1229   60.1567 C   0  0  0  0  0  0  0  0  0  0  0  0
  -41.8055   58.9026   59.6770 C   0  0  0  0  0  0  0  0  0  0  0  0
  -41.0756   57.5793   59.9079 C   0  0  0  0  0  0  0  0  0  0  0  0
  -41.1166   57.0595   61.3448 C   0  0  0  0  0  0  0  0  0  0  0  0
  -39.7513   56.9428   62.0277 C   0  0  0  0  0  0  0  0  0  0  0  0
  -38.6931   57.7741   61.3619 C   0  0  0  0  0  0  0  0  0  0  0  0
  -37.4346   57.8874   61.7480 C   0  0  0  0  0  0  0  0  0  0  0  0
  -36.8094   57.2060   62.9273 C   0  0  0  0  0  0  0  0  0  0  0  0
  -35.3230   57.5238   63.1039 C   0  0  0  0  0  0  0  0  0  0  0  0
  -35.0377   58.4253   64.2977 C   0  0  0  0  0  0  0  0  0  0  0  0
  -33.5734   58.4217   64.7222 C   0  0  0  0  0  0  0  0  0  0  0  0
  -32.5818   58.3310   63.5681 C   0  0  0  0  0  0  0  0  0  0  0  0
  -31.8756   59.6444   63.2621 C   0  0  0  0  0  0  0  0  0  0  0  0
  -32.1496   60.1884   61.8690 C   0  0  0  0  0  0  0  0  0  0  0  0
  -30.9278   60.8186   61.2316 C   0  0  0  0  0  0  0  0  0  0  0  0
  -40.0084   56.9701   65.0556 O   0  0  0  0  0  0  0  0  0  0  0  0
  -40.9234   58.0313   65.3439 C   0  0  0  0  0  0  0  0  0  0  0  0
  -39.1277   57.2032   65.3886 H   0  0  0  0  0  0  0  0  0  0  0  0
  -42.2970   57.7054   64.8427 C   0  0  0  0  0  0  0  0  0  0  0  0
  -43.4130   57.8794   65.5227 C   0  0  0  0  0  0  0  0  0  0  0  0
  -44.7704   57.5582   64.9890 C   0  0  0  0  0  0  0  0  0  0  0  0
  -45.8209   57.5918   66.1009 C   0  0  0  0  0  0  0  0  0  0  0  0
  -46.6925   58.8372   66.0972 C   0  0  0  0  0  0  0  0  0  0  0  0
  -47.3636   59.1261   64.7653 C   0  0  0  0  0  0  0  0  0  0  0  0
  -48.5832   60.0302   64.8702 C   0  0  0  0  0  0  0  0  0  0  0  0
  -49.1122   60.5009   63.5242 C   0  0  0  0  0  0  0  0  0  0  0  0
  -50.0119   59.4912   62.8334 C   0  0  0  0  0  0  0  0  0  0  0  0
  -49.7347   59.3290   61.3504 C   0  0  0  0  0  0  0  0  0  0  0  0
  -50.3918   58.1072   60.7315 C   0  0  0  0  0  0  0  0  0  0  0  0
  -49.7230   57.6616   59.4444 C   0  0  0  0  0  0  0  0  0  0  0  0
  -48.2073   57.6531   59.4966 C   0  0  0  0  0  0  0  0  0  0  0  0
  -47.5863   56.9960   58.2795 C   0  0  0  0  0  0  0  0  0  0  0  0
  -47.1470   58.0033   57.2370 C   0  0  0  0  0  0  0  0  0  0  0  0
  -38.9184   59.5385   65.0064 C   0  0  0  0  0  0  0  0  0  0  0  0
  -38.6295   60.9364   64.8923 O   0  0  0  0  0  0  0  0  0  0  0  0
  -36.8803   60.9012   62.7058 O   0  0  0  0  0  0  0  0  0  0  0  0
  -35.8465   64.4596   64.8948 O   0  0  0  0  0  0  0  0  0  0  0  0
  -37.1236   62.1881   66.1144 O   0  0  0  0  0  0  0  0  0  0  0  0
  -37.2798   61.2606   65.0567 C   0  0  0  0  0  0  0  0  0  0  0  0
  -36.7762   61.8606   63.7503 C   0  0  0  0  0  0  0  0  0  0  0  0
  -35.3296   62.3104   63.9107 C   0  0  0  0  0  0  0  0  0  0  0  0
  -35.1721   63.2252   65.1163 C   0  0  0  0  0  0  0  0  0  0  0  0
  -35.7533   62.5466   66.3542 C   0  0  0  0  0  0  0  0  0  0  0  0
  -37.8050   60.6229   62.6135 H   0  0  0  0  0  0  0  0  0  0  0  0
  -35.4788   64.8925   64.1085 H   0  0  0  0  0  0  0  0  0  0  0  0
  -36.4879   62.8595   68.6458 O   0  0  0  0  0  0  0  0  0  0  0  0
  -35.7403   63.4315   67.5787 C   0  0  0  0  0  0  0  0  0  0  0  0
  -36.4594   63.4510   69.4140 H   0  0  0  0  0  0  0  0  0  0  0  0
  -35.0378   63.0591   62.6886 O   0  0  0  0  0  0  0  0  0  0  0  0
  -33.2940   63.5779   61.1083 O   0  0  0  0  0  0  0  0  0  0  0  0
  -32.7457   63.1599   63.5250 O   0  0  0  0  0  0  0  0  0  0  0  0
  -33.8672   65.1293   62.8177 O   0  0  0  0  0  0  0  0  0  0  0  0
  -33.5778   63.6544   62.4935 S   0  0  0  0  0  0  0  0  0  0  0  0
  -33.1057   62.6574   60.8672 H   0  0  0  0  0  0  0  0  0  0  0  0
  -34.4380   65.5056   62.1297 H   0  0  0  0  0  0  0  0  0  0  0  0
  2  1  1  0  0  0
  2  4  1  0  0  0
  2  5  1  0  0  0
 47 48  1  0  0  0
 47  1  1  0  0  0
 48 52  1  0  0  0
  1 30  1  0  0  0
 29 30  1  0  0  0
 29 31  1  0  0  0
 30 32  1  0  0  0
  3  4  2  0  0  0
 32 33  2  0  0  0
 49 53  1  0  0  0
 49 57  1  0  0  0
 33 34  1  0  0  0
 62 54  1  0  0  0
 62 66  1  0  0  0
 34 35  1  0  0  0
 50 55  1  0  0  0
 50 58  1  0  0  0
 35 36  1  0  0  0
 51 52  1  0  0  0
 51 56  1  0  0  0
 36 37  1  0  0  0
 59 60  1  0  0  0
 59 61  1  0  0  0
 37 38  1  0  0  0
 63 66  1  0  0  0
 63 67  1  0  0  0
 38 39  1  0  0  0
 64 66  1  0  0  0
 39 40  1  0  0  0
 65 66  1  0  0  0
 65 68  1  0  0  0
 40 41  1  0  0  0
 41 42  1  0  0  0
 42 43  1  0  0  0
 43 44  1  0  0  0
 44 45  1  0  0  0
 45 46  1  0  0  0
  4  6  1  0  0  0
  6  7  1  0  0  0
  7  8  1  0  0  0
  8  9  1  0  0  0
  9 10  1  0  0  0
 10 11  1  0  0  0
 11 12  1  0  0  0
 12 13  1  0  0  0
 13 14  1  0  0  0
 14 15  1  0  0  0
 15 16  1  0  0  0
 16 17  1  0  0  0
 17 18  1  0  0  0
 18 19  1  0  0  0
 19 20  2  0  0  0
 20 21  1  0  0  0
 21 22  1  0  0  0
 22 23  1  0  0  0
 23 24  1  0  0  0
 24 25  1  0  0  0
 25 26  1  0  0  0
 26 27  1  0  0  0
 27 28  1  0  0  0
 52 53  1  0  0  0
 53 54  1  0  0  0
 54 55  1  0  0  0
 55 56  1  0  0  0
 56 60  1  0  0  0
M  CHG 1  64  -1
M  END
> <minimizedAffinity>
-7.82880

> <CNNscore>
0.1648628563

> <CNNaffinity>
7.3200683594

> <CNN_VS>
1.2068073750

> <CNNaffinity_variance>
2.1127660275

$$$$
/media/chris/experiments/cd1a-new-docking/inputs/ligands/7ryn_ligand.pdb


 68 68  0  0  0  0  0  0  0  0999 V2000
  -37.6920   59.3739   61.2432 C   0  0  0  0  0  0  0  0  0  0  0  0
  -39.0624   58.9010   61.4154 N   0  0  0  0  0  0  0  0  0  0  0  0
  -39.9435   60.1213   59.7414 O   0  0  0  0  0  0  0  0  0  0  0  0
  -40.0798   59.3104   60.6528 C   0  0  0  0  0  0  0  0  0  0  0  0
  -39.2458   58.2480   62.1290 H   0  0  0  0  0  0  0  0  0  0  0  0
  -41.4227   58.7044   60.9765 C   0  0  0  0  0  0  0  0  0  0  0  0
  -41.4032   57.1819   60.9325 C   0  0  0  0  0  0  0  0  0  0  0  0
  -41.3290   56.5561   62.3161 C   0  0  0  0  0  0  0  0  0  0  0  0
  -42.4433   56.9950   63.2514 C   0  0  0  0  0  0  0  0  0  0  0  0
  -42.4900   56.2195   64.5593 C   0  0  0  0  0  0  0  0  0  0  0  0
  -42.9995   57.0312   65.7435 C   0  0  0  0  0  0  0  0  0  0  0  0
  -44.4110   57.5732   65.5583 C   0  0  0  0  0  0  0  0  0  0  0  0
  -44.8231   58.6298   66.5802 C   0  0  0  0  0  0  0  0  0  0  0  0
  -46.3316   58.7239   66.8037 C   0  0  0  0  0  0  0  0  0  0  0  0
  -47.0795   57.3977   66.6698 C   0  0  0  0  0  0  0  0  0  0  0  0
  -48.1941   57.4301   65.6239 C   0  0  0  0  0  0  0  0  0  0  0  0
  -49.5005   58.0724   66.0899 C   0  0  0  0  0  0  0  0  0  0  0  0
  -49.7503   59.4859   65.5570 C   0  0  0  0  0  0  0  0  0  0  0  0
  -50.9697   59.5737   64.6855 C   0  0  0  0  0  0  0  0  0  0  0  0
  -51.0321   59.2707   63.4010 C   0  0  0  0  0  0  0  0  0  0  0  0
  -49.8979   58.7753   62.5559 C   0  0  0  0  0  0  0  0  0  0  0  0
  -49.7822   59.4850   61.2052 C   0  0  0  0  0  0  0  0  0  0  0  0
  -49.6524   58.5253   60.0298 C   0  0  0  0  0  0  0  0  0  0  0  0
  -49.8406   57.0633   60.4189 C   0  0  0  0  0  0  0  0  0  0  0  0
  -48.7711   56.1227   59.8759 C   0  0  0  0  0  0  0  0  0  0  0  0
  -47.5951   56.8403   59.2284 C   0  0  0  0  0  0  0  0  0  0  0  0
  -47.6220   56.8328   57.7082 C   0  0  0  0  0  0  0  0  0  0  0  0
  -46.9271   58.0344   57.1005 C   0  0  0  0  0  0  0  0  0  0  0  0
  -37.3681   57.0531   61.8297 O   0  0  0  0  0  0  0  0  0  0  0  0
  -36.7398   58.1684   61.1911 C   0  0  0  0  0  0  0  0  0  0  0  0
  -38.2169   56.8691   61.3975 H   0  0  0  0  0  0  0  0  0  0  0  0
  -35.4235   58.4820   61.8338 C   0  0  0  0  0  0  0  0  0  0  0  0
  -34.5238   57.5882   62.1941 C   0  0  0  0  0  0  0  0  0  0  0  0
  -33.2126   57.9340   62.8199 C   0  0  0  0  0  0  0  0  0  0  0  0
  -33.3152   57.9369   64.3465 C   0  0  0  0  0  0  0  0  0  0  0  0
  -33.9856   59.1731   64.9236 C   0  0  0  0  0  0  0  0  0  0  0  0
  -35.5000   59.0830   65.0029 C   0  0  0  0  0  0  0  0  0  0  0  0
  -36.0354   57.6587   65.0129 C   0  0  0  0  0  0  0  0  0  0  0  0
  -37.5509   57.5751   64.9141 C   0  0  0  0  0  0  0  0  0  0  0  0
  -38.2741   58.6948   65.6416 C   0  0  0  0  0  0  0  0  0  0  0  0
  -39.7796   58.6835   65.4528 C   0  0  0  0  0  0  0  0  0  0  0  0
  -40.2838   59.7217   64.4650 C   0  0  0  0  0  0  0  0  0  0  0  0
  -41.6532   60.2674   64.8249 C   0  0  0  0  0  0  0  0  0  0  0  0
  -42.5228   60.6138   63.6315 C   0  0  0  0  0  0  0  0  0  0  0  0
  -42.2083   61.9821   63.0593 C   0  0  0  0  0  0  0  0  0  0  0  0
  -42.9990   62.2813   61.8025 C   0  0  0  0  0  0  0  0  0  0  0  0
  -37.3309   60.3362   62.3558 C   0  0  0  0  0  0  0  0  0  0  0  0
  -37.7021   61.6574   61.9467 O   0  0  0  0  0  0  0  0  0  0  0  0
  -37.7119   61.9586   64.7307 O   0  0  0  0  0  0  0  0  0  0  0  0
  -33.6073   62.5287   63.5690 O   0  0  0  0  0  0  0  0  0  0  0  0
  -35.8162   62.9782   61.7811 O   0  0  0  0  0  0  0  0  0  0  0  0
  -36.9632   62.6769   62.5539 C   0  0  0  0  0  0  0  0  0  0  0  0
  -36.5539   62.2005   63.9416 C   0  0  0  0  0  0  0  0  0  0  0  0
  -35.6706   63.2472   64.6088 C   0  0  0  0  0  0  0  0  0  0  0  0
  -34.5014   63.6276   63.7123 C   0  0  0  0  0  0  0  0  0  0  0  0
  -35.0222   64.0384   62.3373 C   0  0  0  0  0  0  0  0  0  0  0  0
  -38.2657   61.2912   64.2960 H   0  0  0  0  0  0  0  0  0  0  0  0
  -33.2752   62.2660   64.4417 H   0  0  0  0  0  0  0  0  0  0  0  0
  -32.7852   64.9076   61.9777 O   0  0  0  0  0  0  0  0  0  0  0  0
  -33.9195   64.3258   61.3454 C   0  0  0  0  0  0  0  0  0  0  0  0
  -32.0981   65.0791   61.3150 H   0  0  0  0  0  0  0  0  0  0  0  0
  -35.1672   62.5912   65.8152 O   0  0  0  0  0  0  0  0  0  0  0  0
  -34.7346   63.4966   68.0062 O   0  0  0  0  0  0  0  0  0  0  0  0
  -36.6995   61.9793   67.6155 O   0  0  0  0  0  0  0  0  0  0  0  0
  -36.6428   64.1976   66.7714 O   0  0  0  0  0  0  0  0  0  0  0  0
  -35.7972   62.9933   67.2171 S   0  0  0  0  0  0  0  0  0  0  0  0
  -34.1780   62.7609   68.3061 H   0  0  0  0  0  0  0  0  0  0  0  0
  -36.0569   64.9174   66.4893 H   0  0  0  0  0  0  0  0  0  0  0  0
  2  1  1  0  0  0
  2  4  1  0  0  0
  2  5  1  0  0  0
 47 48  1  0  0  0
 47  1  1  0  0  0
 48 52  1  0  0  0
  1 30  1  0  0  0
 29 30  1  0  0  0
 29 31  1  0  0  0
 30 32  1  0  0  0
  3  4  2  0  0  0
 32 33  2  0  0  0
 49 53  1  0  0  0
 49 57  1  0  0  0
 33 34  1  0  0  0
 62 54  1  0  0  0
 62 66  1  0  0  0
 34 35  1  0  0  0
 50 55  1  0  0  0
 50 58  1  0  0  0
 35 36  1  0  0  0
 51 52  1  0  0  0
 51 56  1  0  0  0
 36 37  1  0  0  0
 59 60  1  0  0  0
 59 61  1  0  0  0
 37 38  1  0  0  0
 63 66  1  0  0  0
 63 67  1  0  0  0
 38 39  1  0  0  0
 64 66  1  0  0  0
 39 40  1  0  0  0
 65 66  1  0  0  0
 65 68  1  0  0  0
 40 41  1  0  0  0
 41 42  1  0  0  0
 42 43  1  0  0  0
 43 44  1  0  0  0
 44 45  1  0  0  0
 45 46  1  0  0  0
  4  6  1  0  0  0
  6  7  1  0  0  0
  7  8  1  0  0  0
  8  9  1  0  0  0
  9 10  1  0  0  0
 10 11  1  0  0  0
 11 12  1  0  0  0
 12 13  1  0  0  0
 13 14  1  0  0  0
 14 15  1  0  0  0
 15 16  1  0  0  0
 16 17  1  0  0  0
 17 18  1  0  0  0
 18 19  1  0  0  0
 19 20  2  0  0  0
 20 21  1  0  0  0
 21 22  1  0  0  0
 22 23  1  0  0  0
 23 24  1  0  0  0
 24 25  1  0  0  0
 25 26  1  0  0  0
 26 27  1  0  0  0
 27 28  1  0  0  0
 52 53  1  0  0  0
 53 54  1  0  0  0
 54 55  1  0  0  0
 55 56  1  0  0  0
 56 60  1  0  0  0
M  CHG 1  64  -1
M  END
> <minimizedAffinity>
-8.08290

> <CNNscore>
0.1438505203

> <CNNaffinity>
7.4847640991

> <CNN_VS>
1.0766872168

> <CNNaffinity_variance>
1.7742561102

$$$$
/media/chris/experiments/cd1a-new-docking/inputs/ligands/7ryn_ligand.pdb


 68 68  0  0  0  0  0  0  0  0999 V2000
  -41.2615   60.0295   65.5715 C   0  0  0  0  0  0  0  0  0  0  0  0
  -41.8572   61.1530   64.8544 N   0  0  0  0  0  0  0  0  0  0  0  0
  -41.6904   62.6269   66.5479 O   0  0  0  0  0  0  0  0  0  0  0  0
  -42.0251   62.3620   65.3969 C   0  0  0  0  0  0  0  0  0  0  0  0
  -42.1497   61.0126   63.9249 H   0  0  0  0  0  0  0  0  0  0  0  0
  -42.6517   63.3989   64.4983 C   0  0  0  0  0  0  0  0  0  0  0  0
  -42.2235   63.2482   63.0442 C   0  0  0  0  0  0  0  0  0  0  0  0
  -43.2251   62.4587   62.2166 C   0  0  0  0  0  0  0  0  0  0  0  0
  -42.8116   61.0196   61.9572 C   0  0  0  0  0  0  0  0  0  0  0  0
  -41.3762   60.8690   61.4762 C   0  0  0  0  0  0  0  0  0  0  0  0
  -41.2438   60.1674   60.1306 C   0  0  0  0  0  0  0  0  0  0  0  0
  -40.2892   58.9804   60.1451 C   0  0  0  0  0  0  0  0  0  0  0  0
  -40.9741   57.6162   60.1243 C   0  0  0  0  0  0  0  0  0  0  0  0
  -42.3687   57.6107   60.7481 C   0  0  0  0  0  0  0  0  0  0  0  0
  -42.3867   57.4379   62.2667 C   0  0  0  0  0  0  0  0  0  0  0  0
  -41.3000   56.4960   62.7853 C   0  0  0  0  0  0  0  0  0  0  0  0
  -40.7116   56.8729   64.1448 C   0  0  0  0  0  0  0  0  0  0  0  0
  -39.2297   57.2575   64.1220 C   0  0  0  0  0  0  0  0  0  0  0  0
  -38.7056   57.4778   62.7325 C   0  0  0  0  0  0  0  0  0  0  0  0
  -37.4429   57.3893   62.3536 C   0  0  0  0  0  0  0  0  0  0  0  0
  -36.2798   57.0480   63.2349 C   0  0  0  0  0  0  0  0  0  0  0  0
  -36.1159   57.9908   64.4289 C   0  0  0  0  0  0  0  0  0  0  0  0
  -34.7067   57.9919   65.0064 C   0  0  0  0  0  0  0  0  0  0  0  0
  -34.0419   59.3635   64.9769 C   0  0  0  0  0  0  0  0  0  0  0  0
  -33.1002   59.5833   63.7985 C   0  0  0  0  0  0  0  0  0  0  0  0
  -32.2396   58.3722   63.4673 C   0  0  0  0  0  0  0  0  0  0  0  0
  -32.7490   57.5487   62.2950 C   0  0  0  0  0  0  0  0  0  0  0  0
  -33.4286   58.3908   61.2344 C   0  0  0  0  0  0  0  0  0  0  0  0
  -41.4439   58.7054   67.5835 O   0  0  0  0  0  0  0  0  0  0  0  0
  -42.1096   59.7102   66.8131 C   0  0  0  0  0  0  0  0  0  0  0  0
  -40.5540   59.0132   67.8164 H   0  0  0  0  0  0  0  0  0  0  0  0
  -43.4900   59.2683   66.4346 C   0  0  0  0  0  0  0  0  0  0  0  0
  -43.7817   58.1437   65.8115 C   0  0  0  0  0  0  0  0  0  0  0  0
  -45.1714   57.7238   65.4608 C   0  0  0  0  0  0  0  0  0  0  0  0
  -45.8698   58.7877   64.6114 C   0  0  0  0  0  0  0  0  0  0  0  0
  -47.3878   58.7324   64.6681 C   0  0  0  0  0  0  0  0  0  0  0  0
  -48.0564   60.0862   64.8360 C   0  0  0  0  0  0  0  0  0  0  0  0
  -49.0635   60.4185   63.7447 C   0  0  0  0  0  0  0  0  0  0  0  0
  -50.4851   59.9901   64.0744 C   0  0  0  0  0  0  0  0  0  0  0  0
  -51.0901   59.0411   63.0548 C   0  0  0  0  0  0  0  0  0  0  0  0
  -50.1134   58.5693   61.9937 C   0  0  0  0  0  0  0  0  0  0  0  0
  -50.7341   57.6607   60.9464 C   0  0  0  0  0  0  0  0  0  0  0  0
  -50.0646   57.7753   59.5895 C   0  0  0  0  0  0  0  0  0  0  0  0
  -48.5664   58.0042   59.6476 C   0  0  0  0  0  0  0  0  0  0  0  0
  -47.8884   57.7644   58.3129 C   0  0  0  0  0  0  0  0  0  0  0  0
  -47.3526   56.3539   58.1793 C   0  0  0  0  0  0  0  0  0  0  0  0
  -39.8243   60.3457   65.9305 C   0  0  0  0  0  0  0  0  0  0  0  0
  -39.1016   60.5937   64.7194 O   0  0  0  0  0  0  0  0  0  0  0  0
  -37.3785   60.8952   62.5327 O   0  0  0  0  0  0  0  0  0  0  0  0
  -36.5148   64.2442   65.0942 O   0  0  0  0  0  0  0  0  0  0  0  0
  -37.6520   61.7855   66.0635 O   0  0  0  0  0  0  0  0  0  0  0  0
  -37.7697   60.9722   64.9110 C   0  0  0  0  0  0  0  0  0  0  0  0
  -37.3147   61.7387   63.6758 C   0  0  0  0  0  0  0  0  0  0  0  0
  -35.8930   62.2477   63.8768 C   0  0  0  0  0  0  0  0  0  0  0  0
  -35.7716   63.0323   65.1749 C   0  0  0  0  0  0  0  0  0  0  0  0
  -36.3006   62.1910   66.3338 C   0  0  0  0  0  0  0  0  0  0  0  0
  -38.2876   60.5779   62.4154 H   0  0  0  0  0  0  0  0  0  0  0  0
  -36.1803   64.7803   64.3583 H   0  0  0  0  0  0  0  0  0  0  0  0
  -35.3465   63.9715   67.6785 O   0  0  0  0  0  0  0  0  0  0  0  0
  -36.3218   62.9358   67.6480 C   0  0  0  0  0  0  0  0  0  0  0  0
  -35.3866   64.4283   68.5332 H   0  0  0  0  0  0  0  0  0  0  0  0
  -35.6565   63.1409   62.7429 O   0  0  0  0  0  0  0  0  0  0  0  0
  -33.2759   62.8265   62.9456 O   0  0  0  0  0  0  0  0  0  0  0  0
  -34.2827   65.1213   63.1347 O   0  0  0  0  0  0  0  0  0  0  0  0
  -34.1819   63.9647   61.0638 O   0  0  0  0  0  0  0  0  0  0  0  0
  -34.2260   63.8156   62.5935 S   0  0  0  0  0  0  0  0  0  0  0  0
  -33.2765   62.7057   63.9080 H   0  0  0  0  0  0  0  0  0  0  0  0
  -34.1424   63.0863   60.6543 H   0  0  0  0  0  0  0  0  0  0  0  0
  2  1  1  0  0  0
  2  4  1  0  0  0
  2  5  1  0  0  0
 47 48  1  0  0  0
 47  1  1  0  0  0
 48 52  1  0  0  0
  1 30  1  0  0  0
 29 30  1  0  0  0
 29 31  1  0  0  0
 30 32  1  0  0  0
  3  4  2  0  0  0
 32 33  2  0  0  0
 49 53  1  0  0  0
 49 57  1  0  0  0
 33 34  1  0  0  0
 62 54  1  0  0  0
 62 66  1  0  0  0
 34 35  1  0  0  0
 50 55  1  0  0  0
 50 58  1  0  0  0
 35 36  1  0  0  0
 51 52  1  0  0  0
 51 56  1  0  0  0
 36 37  1  0  0  0
 59 60  1  0  0  0
 59 61  1  0  0  0
 37 38  1  0  0  0
 63 66  1  0  0  0
 63 67  1  0  0  0
 38 39  1  0  0  0
 64 66  1  0  0  0
 39 40  1  0  0  0
 65 66  1  0  0  0
 65 68  1  0  0  0
 40 41  1  0  0  0
 41 42  1  0  0  0
 42 43  1  0  0  0
 43 44  1  0  0  0
 44 45  1  0  0  0
 45 46  1  0  0  0
  4  6  1  0  0  0
  6  7  1  0  0  0
  7  8  1  0  0  0
  8  9  1  0  0  0
  9 10  1  0  0  0
 10 11  1  0  0  0
 11 12  1  0  0  0
 12 13  1  0  0  0
 13 14  1  0  0  0
 14 15  1  0  0  0
 15 16  1  0  0  0
 16 17  1  0  0  0
 17 18  1  0  0  0
 18 19  1  0  0  0
 19 20  2  0  0  0
 20 21  1  0  0  0
 21 22  1  0  0  0
 22 23  1  0  0  0
 23 24  1  0  0  0
 24 25  1  0  0  0
 25 26  1  0  0  0
 26 27  1  0  0  0
 27 28  1  0  0  0
 52 53  1  0  0  0
 53 54  1  0  0  0
 54 55  1  0  0  0
 55 56  1  0  0  0
 56 60  1  0  0  0
M  CHG 1  64  -1
M  END
> <minimizedAffinity>
-8.04185

> <CNNscore>
0.1257709563

> <CNNaffinity>
7.3255815506

> <CNN_VS>
0.9213454127

> <CNNaffinity_variance>
2.3534410000

$$$$
/media/chris/experiments/cd1a-new-docking/inputs/ligands/7ryn_ligand.pdb


 68 68  0  0  0  0  0  0  0  0999 V2000
  -37.7807   61.2129   63.6595 C   0  0  0  0  0  0  0  0  0  0  0  0
  -37.8370   60.1207   64.6265 N   0  0  0  0  0  0  0  0  0  0  0  0
  -39.3668   61.0780   65.9724 O   0  0  0  0  0  0  0  0  0  0  0  0
  -38.6240   60.1377   65.7057 C   0  0  0  0  0  0  0  0  0  0  0  0
  -37.2666   59.3325   64.4758 H   0  0  0  0  0  0  0  0  0  0  0  0
  -38.5512   58.9147   66.5855 C   0  0  0  0  0  0  0  0  0  0  0  0
  -38.9965   57.6486   65.8649 C   0  0  0  0  0  0  0  0  0  0  0  0
  -40.2154   57.8728   64.9844 C   0  0  0  0  0  0  0  0  0  0  0  0
  -40.8467   56.5905   64.4681 C   0  0  0  0  0  0  0  0  0  0  0  0
  -42.1407   56.2143   65.1739 C   0  0  0  0  0  0  0  0  0  0  0  0
  -42.6401   57.2668   66.1555 C   0  0  0  0  0  0  0  0  0  0  0  0
  -44.1448   57.4972   66.1006 C   0  0  0  0  0  0  0  0  0  0  0  0
  -44.5884   58.8930   66.5310 C   0  0  0  0  0  0  0  0  0  0  0  0
  -45.7863   58.9002   67.4792 C   0  0  0  0  0  0  0  0  0  0  0  0
  -46.7094   57.6889   67.3489 C   0  0  0  0  0  0  0  0  0  0  0  0
  -47.9543   57.9601   66.5040 C   0  0  0  0  0  0  0  0  0  0  0  0
  -48.5330   59.3686   66.6376 C   0  0  0  0  0  0  0  0  0  0  0  0
  -48.5026   60.2028   65.3542 C   0  0  0  0  0  0  0  0  0  0  0  0
  -47.9124   59.4608   64.1900 C   0  0  0  0  0  0  0  0  0  0  0  0
  -48.5802   58.7391   63.3075 C   0  0  0  0  0  0  0  0  0  0  0  0
  -50.0625   58.5186   63.2894 C   0  0  0  0  0  0  0  0  0  0  0  0
  -50.7074   58.7880   61.9281 C   0  0  0  0  0  0  0  0  0  0  0  0
  -49.7047   58.8188   60.7823 C   0  0  0  0  0  0  0  0  0  0  0  0
  -49.6393   57.5117   60.0004 C   0  0  0  0  0  0  0  0  0  0  0  0
  -48.2724   57.2023   59.4009 C   0  0  0  0  0  0  0  0  0  0  0  0
  -47.8770   58.1335   58.2634 C   0  0  0  0  0  0  0  0  0  0  0  0
  -47.0332   57.4741   57.1841 C   0  0  0  0  0  0  0  0  0  0  0  0
  -47.2263   55.9726   57.1202 C   0  0  0  0  0  0  0  0  0  0  0  0
  -38.1139   61.5732   61.2943 O   0  0  0  0  0  0  0  0  0  0  0  0
  -38.6058   60.8373   62.4181 C   0  0  0  0  0  0  0  0  0  0  0  0
  -37.1688   61.3894   61.1761 H   0  0  0  0  0  0  0  0  0  0  0  0
  -40.0655   61.0973   62.6315 C   0  0  0  0  0  0  0  0  0  0  0  0
  -40.9937   61.0189   61.6985 C   0  0  0  0  0  0  0  0  0  0  0  0
  -42.4450   61.2698   61.9464 C   0  0  0  0  0  0  0  0  0  0  0  0
  -42.9171   60.5591   63.2165 C   0  0  0  0  0  0  0  0  0  0  0  0
  -43.0528   59.0519   63.0733 C   0  0  0  0  0  0  0  0  0  0  0  0
  -42.7086   58.5221   61.6917 C   0  0  0  0  0  0  0  0  0  0  0  0
  -42.0930   57.1305   61.6983 C   0  0  0  0  0  0  0  0  0  0  0  0
  -41.0164   56.9338   60.6421 C   0  0  0  0  0  0  0  0  0  0  0  0
  -40.6427   58.2077   59.9048 C   0  0  0  0  0  0  0  0  0  0  0  0
  -39.1506   58.4794   59.8571 C   0  0  0  0  0  0  0  0  0  0  0  0
  -38.3775   57.8738   61.0161 C   0  0  0  0  0  0  0  0  0  0  0  0
  -36.9557   58.3942   61.1173 C   0  0  0  0  0  0  0  0  0  0  0  0
  -36.0607   57.5946   62.0446 C   0  0  0  0  0  0  0  0  0  0  0  0
  -36.6879   57.3667   63.4060 C   0  0  0  0  0  0  0  0  0  0  0  0
  -35.6550   57.2355   64.5062 C   0  0  0  0  0  0  0  0  0  0  0  0
  -36.3399   61.5250   63.3116 C   0  0  0  0  0  0  0  0  0  0  0  0
  -35.4952   60.6358   64.0509 O   0  0  0  0  0  0  0  0  0  0  0  0
  -32.9959   60.8393   62.8045 O   0  0  0  0  0  0  0  0  0  0  0  0
  -33.6369   64.6809   64.6356 O   0  0  0  0  0  0  0  0  0  0  0  0
  -34.9046   62.2723   65.5680 O   0  0  0  0  0  0  0  0  0  0  0  0
  -34.4268   61.2624   64.6989 C   0  0  0  0  0  0  0  0  0  0  0  0
  -33.5196   61.8676   63.6354 C   0  0  0  0  0  0  0  0  0  0  0  0
  -32.3852   62.6376   64.2996 C   0  0  0  0  0  0  0  0  0  0  0  0
  -32.9236   63.6457   65.3042 C   0  0  0  0  0  0  0  0  0  0  0  0
  -33.8565   62.9420   66.2868 C   0  0  0  0  0  0  0  0  0  0  0  0
  -33.7269   60.3567   62.3877 H   0  0  0  0  0  0  0  0  0  0  0  0
  -33.0459   65.1293   64.0107 H   0  0  0  0  0  0  0  0  0  0  0  0
  -35.5852   63.2552   67.9608 O   0  0  0  0  0  0  0  0  0  0  0  0
  -34.5259   63.8901   67.2540 C   0  0  0  0  0  0  0  0  0  0  0  0
  -35.9924   63.8895   68.5713 H   0  0  0  0  0  0  0  0  0  0  0  0
  -31.7274   63.3462   63.2021 O   0  0  0  0  0  0  0  0  0  0  0  0
  -32.3462   65.3548   62.0231 O   0  0  0  0  0  0  0  0  0  0  0  0
  -33.9226   63.4006   62.1336 O   0  0  0  0  0  0  0  0  0  0  0  0
  -31.9394   63.3378   60.8299 O   0  0  0  0  0  0  0  0  0  0  0  0
  -32.6292   63.9677   62.0512 S   0  0  0  0  0  0  0  0  0  0  0  0
  -32.7678   65.7862   62.7828 H   0  0  0  0  0  0  0  0  0  0  0  0
  -31.0453   63.7032   60.7394 H   0  0  0  0  0  0  0  0  0  0  0  0
  2  1  1  0  0  0
  2  4  1  0  0  0
  2  5  1  0  0  0
 47 48  1  0  0  0
 47  1  1  0  0  0
 48 52  1  0  0  0
  1 30  1  0  0  0
 29 30  1  0  0  0
 29 31  1  0  0  0
 30 32  1  0  0  0
  3  4  2  0  0  0
 32 33  2  0  0  0
 49 53  1  0  0  0
 49 57  1  0  0  0
 33 34  1  0  0  0
 62 54  1  0  0  0
 62 66  1  0  0  0
 34 35  1  0  0  0
 50 55  1  0  0  0
 50 58  1  0  0  0
 35 36  1  0  0  0
 51 52  1  0  0  0
 51 56  1  0  0  0
 36 37  1  0  0  0
 59 60  1  0  0  0
 59 61  1  0  0  0
 37 38  1  0  0  0
 63 66  1  0  0  0
 63 67  1  0  0  0
 38 39  1  0  0  0
 64 66  1  0  0  0
 39 40  1  0  0  0
 65 66  1  0  0  0
 65 68  1  0  0  0
 40 41  1  0  0  0
 41 42  1  0  0  0
 42 43  1  0  0  0
 43 44  1  0  0  0
 44 45  1  0  0  0
 45 46  1  0  0  0
  4  6  1  0  0  0
  6  7  1  0  0  0
  7  8  1  0  0  0
  8  9  1  0  0  0
  9 10  1  0  0  0
 10 11  1  0  0  0
 11 12  1  0  0  0
 12 13  1  0  0  0
 13 14  1  0  0  0
 14 15  1  0  0  0
 15 16  1  0  0  0
 16 17  1  0  0  0
 17 18  1  0  0  0
 18 19  1  0  0  0
 19 20  2  0  0  0
 20 21  1  0  0  0
 21 22  1  0  0  0
 22 23  1  0  0  0
 23 24  1  0  0  0
 24 25  1  0  0  0
 25 26  1  0  0  0
 26 27  1  0  0  0
 27 28  1  0  0  0
 52 53  1  0  0  0
 53 54  1  0  0  0
 54 55  1  0  0  0
 55 56  1  0  0  0
 56 60  1  0  0  0
M  CHG 1  64  -1
M  END
> <minimizedAffinity>
-8.11028

> <CNNscore>
0.1088392735

> <CNNaffinity>
7.3060579300

> <CNN_VS>
0.7951860428

> <CNNaffinity_variance>
1.2438982725

$$$$
