/media/chris/experiments/cd1a-new-docking/inputs/ligands/7ryn_ligand.pdb


 68 68  0  0  0  0  0  0  0  0999 V2000
  -35.9961   61.9957   65.1404 C   0  0  0  0  0  0  0  0  0  0  0  0
  -37.1617   61.4980   65.8648 N   0  0  0  0  0  0  0  0  0  0  0  0
  -37.7057   59.9065   64.3684 O   0  0  0  0  0  0  0  0  0  0  0  0
  -37.9246   60.4941   65.4238 C   0  0  0  0  0  0  0  0  0  0  0  0
  -37.3972   61.9233   66.7210 H   0  0  0  0  0  0  0  0  0  0  0  0
  -39.0819   60.1146   66.3136 C   0  0  0  0  0  0  0  0  0  0  0  0
  -40.3885   59.9702   65.5439 C   0  0  0  0  0  0  0  0  0  0  0  0
  -41.5461   60.6944   66.2121 C   0  0  0  0  0  0  0  0  0  0  0  0
  -42.5621   59.7675   66.8585 C   0  0  0  0  0  0  0  0  0  0  0  0
  -42.1861   58.2953   66.7850 C   0  0  0  0  0  0  0  0  0  0  0  0
  -43.3093   57.3926   66.2909 C   0  0  0  0  0  0  0  0  0  0  0  0
  -43.4524   57.3596   64.7747 C   0  0  0  0  0  0  0  0  0  0  0  0
  -44.6403   58.1508   64.2329 C   0  0  0  0  0  0  0  0  0  0  0  0
  -45.6824   58.5107   65.2907 C   0  0  0  0  0  0  0  0  0  0  0  0
  -46.8848   59.2916   64.7607 C   0  0  0  0  0  0  0  0  0  0  0  0
  -48.0706   59.3123   65.7254 C   0  0  0  0  0  0  0  0  0  0  0  0
  -48.9123   58.0365   65.7439 C   0  0  0  0  0  0  0  0  0  0  0  0
  -50.4243   58.2625   65.8275 C   0  0  0  0  0  0  0  0  0  0  0  0
  -50.8144   59.6924   65.5885 C   0  0  0  0  0  0  0  0  0  0  0  0
  -51.2903   60.1915   64.4613 C   0  0  0  0  0  0  0  0  0  0  0  0
  -51.5391   59.4294   63.1952 C   0  0  0  0  0  0  0  0  0  0  0  0
  -50.2923   59.2611   62.3242 C   0  0  0  0  0  0  0  0  0  0  0  0
  -50.1820   57.8806   61.6908 C   0  0  0  0  0  0  0  0  0  0  0  0
  -50.1729   57.9133   60.1666 C   0  0  0  0  0  0  0  0  0  0  0  0
  -48.7937   58.1092   59.5476 C   0  0  0  0  0  0  0  0  0  0  0  0
  -48.1383   56.8142   59.0888 C   0  0  0  0  0  0  0  0  0  0  0  0
  -46.9725   57.0115   58.1329 C   0  0  0  0  0  0  0  0  0  0  0  0
  -47.3882   57.6399   56.8183 C   0  0  0  0  0  0  0  0  0  0  0  0
  -33.9975   62.2315   66.4764 O   0  0  0  0  0  0  0  0  0  0  0  0
  -34.7313   61.3030   65.6728 C   0  0  0  0  0  0  0  0  0  0  0  0
  -34.5650   62.5590   67.1917 H   0  0  0  0  0  0  0  0  0  0  0  0
  -33.8845   60.7752   64.5555 C   0  0  0  0  0  0  0  0  0  0  0  0
  -33.7080   59.4990   64.2758 C   0  0  0  0  0  0  0  0  0  0  0  0
  -32.8683   59.0042   63.1441 C   0  0  0  0  0  0  0  0  0  0  0  0
  -33.6781   58.1002   62.2124 C   0  0  0  0  0  0  0  0  0  0  0  0
  -34.9337   57.5205   62.8433 C   0  0  0  0  0  0  0  0  0  0  0  0
  -36.2194   57.8757   62.1163 C   0  0  0  0  0  0  0  0  0  0  0  0
  -37.4091   57.0096   62.5041 C   0  0  0  0  0  0  0  0  0  0  0  0
  -38.7435   57.5491   62.0122 C   0  0  0  0  0  0  0  0  0  0  0  0
  -38.6167   58.7602   61.1049 C   0  0  0  0  0  0  0  0  0  0  0  0
  -39.6157   58.7844   59.9630 C   0  0  0  0  0  0  0  0  0  0  0  0
  -40.8720   59.5847   60.2612 C   0  0  0  0  0  0  0  0  0  0  0  0
  -41.6540   59.0431   61.4434 C   0  0  0  0  0  0  0  0  0  0  0  0
  -42.2222   60.1097   62.3599 C   0  0  0  0  0  0  0  0  0  0  0  0
  -42.4393   61.4319   61.6505 C   0  0  0  0  0  0  0  0  0  0  0  0
  -42.9937   62.4999   62.5706 C   0  0  0  0  0  0  0  0  0  0  0  0
  -35.9131   63.5032   65.2627 C   0  0  0  0  0  0  0  0  0  0  0  0
  -35.3492   64.0229   64.0534 O   0  0  0  0  0  0  0  0  0  0  0  0
  -33.8382   63.7794   61.7085 O   0  0  0  0  0  0  0  0  0  0  0  0
  -32.1573   67.1670   63.7630 O   0  0  0  0  0  0  0  0  0  0  0  0
  -33.5863   65.0681   65.1157 O   0  0  0  0  0  0  0  0  0  0  0  0
  -33.9598   64.1735   64.0844 C   0  0  0  0  0  0  0  0  0  0  0  0
  -33.5134   64.7123   62.7314 C   0  0  0  0  0  0  0  0  0  0  0  0
  -32.0129   64.9752   62.7482 C   0  0  0  0  0  0  0  0  0  0  0  0
  -31.6255   65.8563   63.9268 C   0  0  0  0  0  0  0  0  0  0  0  0
  -32.1650   65.2496   65.2196 C   0  0  0  0  0  0  0  0  0  0  0  0
  -34.7951   63.6204   61.7078 H   0  0  0  0  0  0  0  0  0  0  0  0
  -31.8156   67.5543   62.9419 H   0  0  0  0  0  0  0  0  0  0  0  0
  -30.5621   66.0708   66.8460 O   0  0  0  0  0  0  0  0  0  0  0  0
  -31.9223   66.1191   66.4310 C   0  0  0  0  0  0  0  0  0  0  0  0
  -30.4408   66.6381   67.6233 H   0  0  0  0  0  0  0  0  0  0  0  0
  -31.7487   65.6878   61.4985 O   0  0  0  0  0  0  0  0  0  0  0  0
  -30.7580   65.1863   59.3597 O   0  0  0  0  0  0  0  0  0  0  0  0
  -29.6273   64.4783   61.4894 O   0  0  0  0  0  0  0  0  0  0  0  0
  -29.7294   66.7546   60.8226 O   0  0  0  0  0  0  0  0  0  0  0  0
  -30.4012   65.3756   60.7169 S   0  0  0  0  0  0  0  0  0  0  0  0
  -31.1865   64.3223   59.2556 H   0  0  0  0  0  0  0  0  0  0  0  0
  -30.2336   67.4005   60.3034 H   0  0  0  0  0  0  0  0  0  0  0  0
  2  1  1  0  0  0
  2  4  1  0  0  0
  2  5  1  0  0  0
 47 48  1  0  0  0
 47  1  1  0  0  0
 48 52  1  0  0  0
  1 30  1  0  0  0
 29 30  1  0  0  0
 29 31  1  0  0  0
 30 32  1  0  0  0
  3  4  2  0  0  0
 32 33  2  0  0  0
 49 53  1  0  0  0
 49 57  1  0  0  0
 33 34  1  0  0  0
 62 54  1  0  0  0
 62 66  1  0  0  0
 34 35  1  0  0  0
 50 55  1  0  0  0
 50 58  1  0  0  0
 35 36  1  0  0  0
 51 52  1  0  0  0
 51 56  1  0  0  0
 36 37  1  0  0  0
 59 60  1  0  0  0
 59 61  1  0  0  0
 37 38  1  0  0  0
 63 66  1  0  0  0
 63 67  1  0  0  0
 38 39  1  0  0  0
 64 66  1  0  0  0
 39 40  1  0  0  0
 65 66  1  0  0  0
 65 68  1  0  0  0
 40 41  1  0  0  0
 41 42  1  0  0  0
 42 43  1  0  0  0
 43 44  1  0  0  0
 44 45  1  0  0  0
 45 46  1  0  0  0
  4  6  1  0  0  0
  6  7  1  0  0  0
  7  8  1  0  0  0
  8  9  1  0  0  0
  9 10  1  0  0  0
 10 11  1  0  0  0
 11 12  1  0  0  0
 12 13  1  0  0  0
 13 14  1  0  0  0
 14 15  1  0  0  0
 15 16  1  0  0  0
 16 17  1  0  0  0
 17 18  1  0  0  0
 18 19  1  0  0  0
 19 20  2  0  0  0
 20 21  1  0  0  0
 21 22  1  0  0  0
 22 23  1  0  0  0
 23 24  1  0  0  0
 24 25  1  0  0  0
 25 26  1  0  0  0
 26 27  1  0  0  0
 27 28  1  0  0  0
 52 53  1  0  0  0
 53 54  1  0  0  0
 54 55  1  0  0  0
 55 56  1  0  0  0
 56 60  1  0  0  0
M  CHG 1  64  -1
M  END
> <minimizedAffinity>
-10.02102

> <CNNscore>
0.2451643497

> <CNNaffinity>
7.1955895424

> <CNN_VS>
1.7641019821

> <CNNaffinity_variance>
1.2427704334

$$$$
/media/chris/experiments/cd1a-new-docking/inputs/ligands/7ryn_ligand.pdb


 68 68  0  0  0  0  0  0  0  0999 V2000
  -39.9060   59.8507   65.1736 C   0  0  0  0  0  0  0  0  0  0  0  0
  -39.7531   59.6955   63.7301 N   0  0  0  0  0  0  0  0  0  0  0  0
  -40.9796   61.4979   63.1693 O   0  0  0  0  0  0  0  0  0  0  0  0
  -40.3005   60.5292   62.8416 C   0  0  0  0  0  0  0  0  0  0  0  0
  -39.2199   58.9387   63.3948 H   0  0  0  0  0  0  0  0  0  0  0  0
  -40.0256   60.2112   61.3930 C   0  0  0  0  0  0  0  0  0  0  0  0
  -41.2878   60.2308   60.5403 C   0  0  0  0  0  0  0  0  0  0  0  0
  -41.8054   58.8362   60.2266 C   0  0  0  0  0  0  0  0  0  0  0  0
  -40.8183   57.7261   60.5466 C   0  0  0  0  0  0  0  0  0  0  0  0
  -41.1654   56.9362   61.7995 C   0  0  0  0  0  0  0  0  0  0  0  0
  -39.9732   56.6552   62.7052 C   0  0  0  0  0  0  0  0  0  0  0  0
  -38.6237   56.8241   62.0189 C   0  0  0  0  0  0  0  0  0  0  0  0
  -37.4881   57.2439   62.9488 C   0  0  0  0  0  0  0  0  0  0  0  0
  -36.2539   57.7762   62.2223 C   0  0  0  0  0  0  0  0  0  0  0  0
  -34.9201   57.3267   62.8187 C   0  0  0  0  0  0  0  0  0  0  0  0
  -33.7045   57.9342   62.1186 C   0  0  0  0  0  0  0  0  0  0  0  0
  -32.4699   58.1111   63.0023 C   0  0  0  0  0  0  0  0  0  0  0  0
  -31.9779   59.5543   63.1417 C   0  0  0  0  0  0  0  0  0  0  0  0
  -31.8537   60.2582   61.8215 C   0  0  0  0  0  0  0  0  0  0  0  0
  -30.7755   60.8696   61.3635 C   0  0  0  0  0  0  0  0  0  0  0  0
  -29.4581   60.9806   62.0694 C   0  0  0  0  0  0  0  0  0  0  0  0
  -29.2119   62.3534   62.6988 C   0  0  0  0  0  0  0  0  0  0  0  0
  -30.0167   63.4688   62.0448 C   0  0  0  0  0  0  0  0  0  0  0  0
  -29.5605   64.8644   62.4552 C   0  0  0  0  0  0  0  0  0  0  0  0
  -29.1796   64.9972   63.9253 C   0  0  0  0  0  0  0  0  0  0  0  0
  -30.1431   65.8552   64.7330 C   0  0  0  0  0  0  0  0  0  0  0  0
  -31.5829   65.3672   64.7066 C   0  0  0  0  0  0  0  0  0  0  0  0
  -31.7521   63.9967   65.3303 C   0  0  0  0  0  0  0  0  0  0  0  0
  -41.0733   61.6933   66.2113 O   0  0  0  0  0  0  0  0  0  0  0  0
  -41.2741   60.4828   65.4760 C   0  0  0  0  0  0  0  0  0  0  0  0
  -40.4985   62.2880   65.7045 H   0  0  0  0  0  0  0  0  0  0  0  0
  -42.1592   59.5383   66.2301 C   0  0  0  0  0  0  0  0  0  0  0  0
  -42.6302   58.4009   65.7584 C   0  0  0  0  0  0  0  0  0  0  0  0
  -43.4994   57.4724   66.5415 C   0  0  0  0  0  0  0  0  0  0  0  0
  -44.9650   57.9079   66.4802 C   0  0  0  0  0  0  0  0  0  0  0  0
  -45.5362   57.9762   65.0731 C   0  0  0  0  0  0  0  0  0  0  0  0
  -46.5415   59.0951   64.8607 C   0  0  0  0  0  0  0  0  0  0  0  0
  -47.9921   58.6354   64.8789 C   0  0  0  0  0  0  0  0  0  0  0  0
  -48.9330   59.6097   65.5707 C   0  0  0  0  0  0  0  0  0  0  0  0
  -50.4014   59.2532   65.4206 C   0  0  0  0  0  0  0  0  0  0  0  0
  -51.1188   60.0323   64.3338 C   0  0  0  0  0  0  0  0  0  0  0  0
  -51.4329   59.2124   63.0941 C   0  0  0  0  0  0  0  0  0  0  0  0
  -50.3371   59.2771   62.0465 C   0  0  0  0  0  0  0  0  0  0  0  0
  -49.8302   57.9238   61.5862 C   0  0  0  0  0  0  0  0  0  0  0  0
  -49.9212   57.7481   60.0831 C   0  0  0  0  0  0  0  0  0  0  0  0
  -48.6278   58.1011   59.3781 C   0  0  0  0  0  0  0  0  0  0  0  0
  -38.7634   60.6739   65.7315 C   0  0  0  0  0  0  0  0  0  0  0  0
  -37.5345   60.0072   65.4214 O   0  0  0  0  0  0  0  0  0  0  0  0
  -36.7179   60.6408   62.8190 O   0  0  0  0  0  0  0  0  0  0  0  0
  -36.5540   64.3653   64.9694 O   0  0  0  0  0  0  0  0  0  0  0  0
  -36.3513   61.8026   66.2613 O   0  0  0  0  0  0  0  0  0  0  0  0
  -36.4526   60.8656   65.2052 C   0  0  0  0  0  0  0  0  0  0  0  0
  -36.6783   61.5849   63.8817 C   0  0  0  0  0  0  0  0  0  0  0  0
  -35.5646   62.5975   63.6462 C   0  0  0  0  0  0  0  0  0  0  0  0
  -35.4099   63.5274   64.8406 C   0  0  0  0  0  0  0  0  0  0  0  0
  -35.2413   62.7025   66.1141 C   0  0  0  0  0  0  0  0  0  0  0  0
  -37.4300   60.0022   62.9801 H   0  0  0  0  0  0  0  0  0  0  0  0
  -36.6630   64.8903   64.1611 H   0  0  0  0  0  0  0  0  0  0  0  0
  -36.2629   63.2324   68.2506 O   0  0  0  0  0  0  0  0  0  0  0  0
  -35.1927   63.5458   67.3667 C   0  0  0  0  0  0  0  0  0  0  0  0
  -36.2023   63.7897   69.0421 H   0  0  0  0  0  0  0  0  0  0  0  0
  -36.0048   63.3667   62.4826 O   0  0  0  0  0  0  0  0  0  0  0  0
  -35.5352   64.5569   60.4405 O   0  0  0  0  0  0  0  0  0  0  0  0
  -33.6714   63.5376   61.7831 O   0  0  0  0  0  0  0  0  0  0  0  0
  -34.8559   65.4522   62.5368 O   0  0  0  0  0  0  0  0  0  0  0  0
  -34.9211   64.1892   61.6623 S   0  0  0  0  0  0  0  0  0  0  0  0
  -35.5932   63.7808   59.8614 H   0  0  0  0  0  0  0  0  0  0  0  0
  -35.6989   65.9287   62.4800 H   0  0  0  0  0  0  0  0  0  0  0  0
  2  1  1  0  0  0
  2  4  1  0  0  0
  2  5  1  0  0  0
 47 48  1  0  0  0
 47  1  1  0  0  0
 48 52  1  0  0  0
  1 30  1  0  0  0
 29 30  1  0  0  0
 29 31  1  0  0  0
 30 32  1  0  0  0
  3  4  2  0  0  0
 32 33  2  0  0  0
 49 53  1  0  0  0
 49 57  1  0  0  0
 33 34  1  0  0  0
 62 54  1  0  0  0
 62 66  1  0  0  0
 34 35  1  0  0  0
 50 55  1  0  0  0
 50 58  1  0  0  0
 35 36  1  0  0  0
 51 52  1  0  0  0
 51 56  1  0  0  0
 36 37  1  0  0  0
 59 60  1  0  0  0
 59 61  1  0  0  0
 37 38  1  0  0  0
 63 66  1  0  0  0
 63 67  1  0  0  0
 38 39  1  0  0  0
 64 66  1  0  0  0
 39 40  1  0  0  0
 65 66  1  0  0  0
 65 68  1  0  0  0
 40 41  1  0  0  0
 41 42  1  0  0  0
 42 43  1  0  0  0
 43 44  1  0  0  0
 44 45  1  0  0  0
 45 46  1  0  0  0
  4  6  1  0  0  0
  6  7  1  0  0  0
  7  8  1  0  0  0
  8  9  1  0  0  0
  9 10  1  0  0  0
 10 11  1  0  0  0
 11 12  1  0  0  0
 12 13  1  0  0  0
 13 14  1  0  0  0
 14 15  1  0  0  0
 15 16  1  0  0  0
 16 17  1  0  0  0
 17 18  1  0  0  0
 18 19  1  0  0  0
 19 20  2  0  0  0
 20 21  1  0  0  0
 21 22  1  0  0  0
 22 23  1  0  0  0
 23 24  1  0  0  0
 24 25  1  0  0  0
 25 26  1  0  0  0
 26 27  1  0  0  0
 27 28  1  0  0  0
 52 53  1  0  0  0
 53 54  1  0  0  0
 54 55  1  0  0  0
 55 56  1  0  0  0
 56 60  1  0  0  0
M  CHG 1  64  -1
M  END
> <minimizedAffinity>
-9.50409

> <CNNscore>
0.1956823617

> <CNNaffinity>
7.3138809204

> <CNN_VS>
1.4311975241

> <CNNaffinity_variance>
1.5693382025

$$$$
/media/chris/experiments/cd1a-new-docking/inputs/ligands/7ryn_ligand.pdb


 68 68  0  0  0  0  0  0  0  0999 V2000
  -39.2682   59.7050   61.1518 C   0  0  0  0  0  0  0  0  0  0  0  0
  -39.9813   58.5198   61.6188 N   0  0  0  0  0  0  0  0  0  0  0  0
  -41.1515   58.1889   59.7243 O   0  0  0  0  0  0  0  0  0  0  0  0
  -40.8658   57.8550   60.8705 C   0  0  0  0  0  0  0  0  0  0  0  0
  -39.8013   58.1944   62.5304 H   0  0  0  0  0  0  0  0  0  0  0  0
  -41.4960   56.6493   61.5221 C   0  0  0  0  0  0  0  0  0  0  0  0
  -40.9684   56.4026   62.9296 C   0  0  0  0  0  0  0  0  0  0  0  0
  -42.0697   56.4043   63.9776 C   0  0  0  0  0  0  0  0  0  0  0  0
  -42.4026   57.7846   64.5193 C   0  0  0  0  0  0  0  0  0  0  0  0
  -43.7035   58.3599   63.9799 C   0  0  0  0  0  0  0  0  0  0  0  0
  -44.9181   58.0709   64.8528 C   0  0  0  0  0  0  0  0  0  0  0  0
  -44.6950   58.3527   66.3331 C   0  0  0  0  0  0  0  0  0  0  0  0
  -45.9649   58.6823   67.1138 C   0  0  0  0  0  0  0  0  0  0  0  0
  -47.0564   57.6189   67.0037 C   0  0  0  0  0  0  0  0  0  0  0  0
  -48.2857   58.0481   66.2029 C   0  0  0  0  0  0  0  0  0  0  0  0
  -48.4539   59.5648   66.1119 C   0  0  0  0  0  0  0  0  0  0  0  0
  -48.0686   60.1792   64.7663 C   0  0  0  0  0  0  0  0  0  0  0  0
  -49.2180   60.8536   64.0125 C   0  0  0  0  0  0  0  0  0  0  0  0
  -50.4870   60.0520   64.0455 C   0  0  0  0  0  0  0  0  0  0  0  0
  -50.7185   58.9331   63.3818 C   0  0  0  0  0  0  0  0  0  0  0  0
  -49.7591   58.2376   62.4643 C   0  0  0  0  0  0  0  0  0  0  0  0
  -49.6925   58.8518   61.0644 C   0  0  0  0  0  0  0  0  0  0  0  0
  -50.1671   57.9065   59.9688 C   0  0  0  0  0  0  0  0  0  0  0  0
  -49.2819   56.6760   59.8063 C   0  0  0  0  0  0  0  0  0  0  0  0
  -47.7922   56.9801   59.6957 C   0  0  0  0  0  0  0  0  0  0  0  0
  -47.0810   56.1761   58.6165 C   0  0  0  0  0  0  0  0  0  0  0  0
  -47.7007   56.3055   57.2340 C   0  0  0  0  0  0  0  0  0  0  0  0
  -47.4585   57.6622   56.6043 C   0  0  0  0  0  0  0  0  0  0  0  0
  -38.1438   58.8406   59.1965 O   0  0  0  0  0  0  0  0  0  0  0  0
  -37.9233   59.2821   60.5392 C   0  0  0  0  0  0  0  0  0  0  0  0
  -38.5715   59.5484   58.6895 H   0  0  0  0  0  0  0  0  0  0  0  0
  -37.2628   58.2122   61.3535 C   0  0  0  0  0  0  0  0  0  0  0  0
  -36.0251   58.2588   61.8052 C   0  0  0  0  0  0  0  0  0  0  0  0
  -35.3994   57.1811   62.6284 C   0  0  0  0  0  0  0  0  0  0  0  0
  -33.8833   57.3671   62.7175 C   0  0  0  0  0  0  0  0  0  0  0  0
  -33.4376   58.3426   63.7947 C   0  0  0  0  0  0  0  0  0  0  0  0
  -32.2435   59.1982   63.4075 C   0  0  0  0  0  0  0  0  0  0  0  0
  -32.5249   60.1783   62.2779 C   0  0  0  0  0  0  0  0  0  0  0  0
  -31.2722   60.6667   61.5667 C   0  0  0  0  0  0  0  0  0  0  0  0
  -30.0032   60.5099   62.3859 C   0  0  0  0  0  0  0  0  0  0  0  0
  -29.1060   61.7336   62.3764 C   0  0  0  0  0  0  0  0  0  0  0  0
  -29.8617   63.0504   62.3278 C   0  0  0  0  0  0  0  0  0  0  0  0
  -29.2211   64.1340   63.1750 C   0  0  0  0  0  0  0  0  0  0  0  0
  -30.2077   65.0019   63.9325 C   0  0  0  0  0  0  0  0  0  0  0  0
  -31.0005   64.2203   64.9616 C   0  0  0  0  0  0  0  0  0  0  0  0
  -31.8060   65.1181   65.8779 C   0  0  0  0  0  0  0  0  0  0  0  0
  -39.0903   60.6869   62.2915 C   0  0  0  0  0  0  0  0  0  0  0  0
  -37.6994   60.7395   62.6278 O   0  0  0  0  0  0  0  0  0  0  0  0
  -37.6308   61.0383   65.4112 O   0  0  0  0  0  0  0  0  0  0  0  0
  -34.0100   62.8941   64.0079 O   0  0  0  0  0  0  0  0  0  0  0  0
  -36.3536   62.5967   62.3658 O   0  0  0  0  0  0  0  0  0  0  0  0
  -37.2915   61.9464   63.2032 C   0  0  0  0  0  0  0  0  0  0  0  0
  -36.6644   61.6359   64.5561 C   0  0  0  0  0  0  0  0  0  0  0  0
  -36.1252   62.9155   65.1829 C   0  0  0  0  0  0  0  0  0  0  0  0
  -35.1996   63.6470   64.2218 C   0  0  0  0  0  0  0  0  0  0  0  0
  -35.9102   63.8596   62.8875 C   0  0  0  0  0  0  0  0  0  0  0  0
  -37.9662   60.2254   65.0017 H   0  0  0  0  0  0  0  0  0  0  0  0
  -33.5570   62.7578   64.8547 H   0  0  0  0  0  0  0  0  0  0  0  0
  -35.4487   64.1347   60.5210 O   0  0  0  0  0  0  0  0  0  0  0  0
  -35.0234   64.4811   61.8340 C   0  0  0  0  0  0  0  0  0  0  0  0
  -34.8601   64.5487   59.8707 H   0  0  0  0  0  0  0  0  0  0  0  0
  -35.3626   62.4640   66.3465 O   0  0  0  0  0  0  0  0  0  0  0  0
  -36.1500   63.0646   68.5434 O   0  0  0  0  0  0  0  0  0  0  0  0
  -35.0298   64.7703   67.0767 O   0  0  0  0  0  0  0  0  0  0  0  0
  -33.8180   62.9925   68.0806 O   0  0  0  0  0  0  0  0  0  0  0  0
  -35.1939   63.4568   67.5752 S   0  0  0  0  0  0  0  0  0  0  0  0
  -37.0338   63.3426   68.2561 H   0  0  0  0  0  0  0  0  0  0  0  0
  -33.8898   62.0912   68.4319 H   0  0  0  0  0  0  0  0  0  0  0  0
  2  1  1  0  0  0
  2  4  1  0  0  0
  2  5  1  0  0  0
 47 48  1  0  0  0
 47  1  1  0  0  0
 48 52  1  0  0  0
  1 30  1  0  0  0
 29 30  1  0  0  0
 29 31  1  0  0  0
 30 32  1  0  0  0
  3  4  2  0  0  0
 32 33  2  0  0  0
 49 53  1  0  0  0
 49 57  1  0  0  0
 33 34  1  0  0  0
 62 54  1  0  0  0
 62 66  1  0  0  0
 34 35  1  0  0  0
 50 55  1  0  0  0
 50 58  1  0  0  0
 35 36  1  0  0  0
 51 52  1  0  0  0
 51 56  1  0  0  0
 36 37  1  0  0  0
 59 60  1  0  0  0
 59 61  1  0  0  0
 37 38  1  0  0  0
 63 66  1  0  0  0
 63 67  1  0  0  0
 38 39  1  0  0  0
 64 66  1  0  0  0
 39 40  1  0  0  0
 65 66  1  0  0  0
 65 68  1  0  0  0
 40 41  1  0  0  0
 41 42  1  0  0  0
 42 43  1  0  0  0
 43 44  1  0  0  0
 44 45  1  0  0  0
 45 46  1  0  0  0
  4  6  1  0  0  0
  6  7  1  0  0  0
  7  8  1  0  0  0
  8  9  1  0  0  0
  9 10  1  0  0  0
 10 11  1  0  0  0
 11 12  1  0  0  0
 12 13  1  0  0  0
 13 14  1  0  0  0
 14 15  1  0  0  0
 15 16  1  0  0  0
 16 17  1  0  0  0
 17 18  1  0  0  0
 18 19  1  0  0  0
 19 20  2  0  0  0
 20 21  1  0  0  0
 21 22  1  0  0  0
 22 23  1  0  0  0
 23 24  1  0  0  0
 24 25  1  0  0  0
 25 26  1  0  0  0
 26 27  1  0  0  0
 27 28  1  0  0  0
 52 53  1  0  0  0
 53 54  1  0  0  0
 54 55  1  0  0  0
 55 56  1  0  0  0
 56 60  1  0  0  0
M  CHG 1  64  -1
M  END
> <minimizedAffinity>
-9.25634

> <CNNscore>
0.1795485914

> <CNNaffinity>
6.9561157227

> <CNN_VS>
1.2489607334

> <CNNaffinity_variance>
0.8710535169

$$$$
/media/chris/experiments/cd1a-new-docking/inputs/ligands/7ryn_ligand.pdb


 68 68  0  0  0  0  0  0  0  0999 V2000
  -40.1328   59.7653   64.8503 C   0  0  0  0  0  0  0  0  0  0  0  0
  -39.9597   59.9056   63.4075 N   0  0  0  0  0  0  0  0  0  0  0  0
  -41.1560   58.0820   62.8495 O   0  0  0  0  0  0  0  0  0  0  0  0
  -40.4835   59.0550   62.5208 C   0  0  0  0  0  0  0  0  0  0  0  0
  -39.4305   60.6648   63.0714 H   0  0  0  0  0  0  0  0  0  0  0  0
  -40.2031   59.3680   61.0721 C   0  0  0  0  0  0  0  0  0  0  0  0
  -39.1327   58.4635   60.4750 C   0  0  0  0  0  0  0  0  0  0  0  0
  -37.7273   58.8589   60.8988 C   0  0  0  0  0  0  0  0  0  0  0  0
  -36.9698   57.7588   61.6236 C   0  0  0  0  0  0  0  0  0  0  0  0
  -37.5850   57.3642   62.9578 C   0  0  0  0  0  0  0  0  0  0  0  0
  -36.6338   57.4920   64.1409 C   0  0  0  0  0  0  0  0  0  0  0  0
  -35.1614   57.4998   63.7505 C   0  0  0  0  0  0  0  0  0  0  0  0
  -34.2624   58.3058   64.6847 C   0  0  0  0  0  0  0  0  0  0  0  0
  -32.7932   58.3309   64.2660 C   0  0  0  0  0  0  0  0  0  0  0  0
  -32.5421   58.8599   62.8540 C   0  0  0  0  0  0  0  0  0  0  0  0
  -31.7834   60.1868   62.8270 C   0  0  0  0  0  0  0  0  0  0  0  0
  -31.8007   60.9151   61.4832 C   0  0  0  0  0  0  0  0  0  0  0  0
  -30.6924   61.9553   61.2989 C   0  0  0  0  0  0  0  0  0  0  0  0
  -29.6349   61.8752   62.3616 C   0  0  0  0  0  0  0  0  0  0  0  0
  -29.4437   62.7461   63.3369 C   0  0  0  0  0  0  0  0  0  0  0  0
  -30.2466   63.9880   63.5799 C   0  0  0  0  0  0  0  0  0  0  0  0
  -31.0239   63.9691   64.8977 C   0  0  0  0  0  0  0  0  0  0  0  0
  -31.6330   65.3179   65.2570 C   0  0  0  0  0  0  0  0  0  0  0  0
  -30.5942   66.3739   65.6176 C   0  0  0  0  0  0  0  0  0  0  0  0
  -30.6313   67.6209   64.7415 C   0  0  0  0  0  0  0  0  0  0  0  0
  -31.8029   67.6530   63.7702 C   0  0  0  0  0  0  0  0  0  0  0  0
  -31.4064   67.9111   62.3252 C   0  0  0  0  0  0  0  0  0  0  0  0
  -31.9377   66.8601   61.3717 C   0  0  0  0  0  0  0  0  0  0  0  0
  -41.0988   61.5720   66.1299 O   0  0  0  0  0  0  0  0  0  0  0  0
  -41.4295   60.4708   65.2788 C   0  0  0  0  0  0  0  0  0  0  0  0
  -40.4926   62.1696   65.6646 H   0  0  0  0  0  0  0  0  0  0  0  0
  -42.3662   59.5250   65.9659 C   0  0  0  0  0  0  0  0  0  0  0  0
  -43.4574   59.0154   65.4295 C   0  0  0  0  0  0  0  0  0  0  0  0
  -44.3640   58.0619   66.1362 C   0  0  0  0  0  0  0  0  0  0  0  0
  -45.2585   58.7939   67.1389 C   0  0  0  0  0  0  0  0  0  0  0  0
  -46.7349   58.7875   66.7770 C   0  0  0  0  0  0  0  0  0  0  0  0
  -47.0978   57.8355   65.6501 C   0  0  0  0  0  0  0  0  0  0  0  0
  -48.5588   57.9028   65.2296 C   0  0  0  0  0  0  0  0  0  0  0  0
  -49.0327   59.3076   64.8902 C   0  0  0  0  0  0  0  0  0  0  0  0
  -50.5251   59.4028   64.6266 C   0  0  0  0  0  0  0  0  0  0  0  0
  -50.8868   59.5290   63.1583 C   0  0  0  0  0  0  0  0  0  0  0  0
  -50.8702   58.2100   62.4050 C   0  0  0  0  0  0  0  0  0  0  0  0
  -49.6576   58.0552   61.5060 C   0  0  0  0  0  0  0  0  0  0  0  0
  -49.9729   58.0626   60.0224 C   0  0  0  0  0  0  0  0  0  0  0  0
  -48.7249   58.0776   59.1617 C   0  0  0  0  0  0  0  0  0  0  0  0
  -47.8682   56.8442   59.3603 C   0  0  0  0  0  0  0  0  0  0  0  0
  -38.9208   60.3138   65.5746 C   0  0  0  0  0  0  0  0  0  0  0  0
  -37.9976   60.8080   64.5978 O   0  0  0  0  0  0  0  0  0  0  0  0
  -35.6882   60.7271   63.0163 O   0  0  0  0  0  0  0  0  0  0  0  0
  -35.4367   64.4535   65.1549 O   0  0  0  0  0  0  0  0  0  0  0  0
  -36.9480   62.1998   66.1111 O   0  0  0  0  0  0  0  0  0  0  0  0
  -36.7637   61.2052   65.1210 C   0  0  0  0  0  0  0  0  0  0  0  0
  -35.9194   61.7503   63.9764 C   0  0  0  0  0  0  0  0  0  0  0  0
  -34.5952   62.2770   64.5149 C   0  0  0  0  0  0  0  0  0  0  0  0
  -34.8210   63.2678   65.6475 C   0  0  0  0  0  0  0  0  0  0  0  0
  -35.7174   62.6364   66.7099 C   0  0  0  0  0  0  0  0  0  0  0  0
  -36.5378   60.4002   62.6812 H   0  0  0  0  0  0  0  0  0  0  0  0
  -34.8687   64.8562   64.4796 H   0  0  0  0  0  0  0  0  0  0  0  0
  -36.5162   62.8978   68.9863 O   0  0  0  0  0  0  0  0  0  0  0  0
  -36.0861   63.5916   67.8208 C   0  0  0  0  0  0  0  0  0  0  0  0
  -36.7445   63.5383   69.6781 H   0  0  0  0  0  0  0  0  0  0  0  0
  -33.9822   62.9654   63.3792 O   0  0  0  0  0  0  0  0  0  0  0  0
  -34.5060   65.2840   62.9832 O   0  0  0  0  0  0  0  0  0  0  0  0
  -36.1882   63.4883   62.4719 O   0  0  0  0  0  0  0  0  0  0  0  0
  -34.2337   63.7845   61.1571 O   0  0  0  0  0  0  0  0  0  0  0  0
  -34.8664   63.9870   62.5436 S   0  0  0  0  0  0  0  0  0  0  0  0
  -34.8898   65.4468   63.8590 H   0  0  0  0  0  0  0  0  0  0  0  0
  -33.3220   64.1158   61.1661 H   0  0  0  0  0  0  0  0  0  0  0  0
  2  1  1  0  0  0
  2  4  1  0  0  0
  2  5  1  0  0  0
 47 48  1  0  0  0
 47  1  1  0  0  0
 48 52  1  0  0  0
  1 30  1  0  0  0
 29 30  1  0  0  0
 29 31  1  0  0  0
 30 32  1  0  0  0
  3  4  2  0  0  0
 32 33  2  0  0  0
 49 53  1  0  0  0
 49 57  1  0  0  0
 33 34  1  0  0  0
 62 54  1  0  0  0
 62 66  1  0  0  0
 34 35  1  0  0  0
 50 55  1  0  0  0
 50 58  1  0  0  0
 35 36  1  0  0  0
 51 52  1  0  0  0
 51 56  1  0  0  0
 36 37  1  0  0  0
 59 60  1  0  0  0
 59 61  1  0  0  0
 37 38  1  0  0  0
 63 66  1  0  0  0
 63 67  1  0  0  0
 38 39  1  0  0  0
 64 66  1  0  0  0
 39 40  1  0  0  0
 65 66  1  0  0  0
 65 68  1  0  0  0
 40 41  1  0  0  0
 41 42  1  0  0  0
 42 43  1  0  0  0
 43 44  1  0  0  0
 44 45  1  0  0  0
 45 46  1  0  0  0
  4  6  1  0  0  0
  6  7  1  0  0  0
  7  8  1  0  0  0
  8  9  1  0  0  0
  9 10  1  0  0  0
 10 11  1  0  0  0
 11 12  1  0  0  0
 12 13  1  0  0  0
 13 14  1  0  0  0
 14 15  1  0  0  0
 15 16  1  0  0  0
 16 17  1  0  0  0
 17 18  1  0  0  0
 18 19  1  0  0  0
 19 20  2  0  0  0
 20 21  1  0  0  0
 21 22  1  0  0  0
 22 23  1  0  0  0
 23 24  1  0  0  0
 24 25  1  0  0  0
 25 26  1  0  0  0
 26 27  1  0  0  0
 27 28  1  0  0  0
 52 53  1  0  0  0
 53 54  1  0  0  0
 54 55  1  0  0  0
 55 56  1  0  0  0
 56 60  1  0  0  0
M  CHG 1  64  -1
M  END
> <minimizedAffinity>
-8.90020

> <CNNscore>
0.1586114913

> <CNNaffinity>
7.3305830956

> <CNN_VS>
1.1627147198

> <CNNaffinity_variance>
0.7917240858

$$$$
/media/chris/experiments/cd1a-new-docking/inputs/ligands/7ryn_ligand.pdb


 68 68  0  0  0  0  0  0  0  0999 V2000
  -36.0188   59.0105   63.7216 C   0  0  0  0  0  0  0  0  0  0  0  0
  -36.9257   59.1903   64.8514 N   0  0  0  0  0  0  0  0  0  0  0  0
  -37.8279   61.1198   64.1228 O   0  0  0  0  0  0  0  0  0  0  0  0
  -37.7582   60.2288   64.9643 C   0  0  0  0  0  0  0  0  0  0  0  0
  -36.9236   58.5126   65.5655 H   0  0  0  0  0  0  0  0  0  0  0  0
  -38.6248   60.2390   66.1989 C   0  0  0  0  0  0  0  0  0  0  0  0
  -40.0176   59.6789   65.9405 C   0  0  0  0  0  0  0  0  0  0  0  0
  -41.1189   60.5622   66.5042 C   0  0  0  0  0  0  0  0  0  0  0  0
  -42.3309   59.7931   67.0032 C   0  0  0  0  0  0  0  0  0  0  0  0
  -42.2421   58.2912   66.7778 C   0  0  0  0  0  0  0  0  0  0  0  0
  -43.5896   57.6179   66.5505 C   0  0  0  0  0  0  0  0  0  0  0  0
  -44.7835   58.5397   66.7632 C   0  0  0  0  0  0  0  0  0  0  0  0
  -46.1114   57.8175   66.9775 C   0  0  0  0  0  0  0  0  0  0  0  0
  -46.9582   57.6843   65.7127 C   0  0  0  0  0  0  0  0  0  0  0  0
  -46.8476   58.8623   64.7449 C   0  0  0  0  0  0  0  0  0  0  0  0
  -48.1459   59.6567   64.6020 C   0  0  0  0  0  0  0  0  0  0  0  0
  -49.0687   59.6135   65.8198 C   0  0  0  0  0  0  0  0  0  0  0  0
  -50.4738   59.0706   65.5454 C   0  0  0  0  0  0  0  0  0  0  0  0
  -51.2794   59.9645   64.6478 C   0  0  0  0  0  0  0  0  0  0  0  0
  -51.5385   59.7547   63.3691 C   0  0  0  0  0  0  0  0  0  0  0  0
  -51.0820   58.5798   62.5584 C   0  0  0  0  0  0  0  0  0  0  0  0
  -50.1051   58.9475   61.4395 C   0  0  0  0  0  0  0  0  0  0  0  0
  -49.9958   57.8788   60.3601 C   0  0  0  0  0  0  0  0  0  0  0  0
  -48.7342   57.0306   60.4743 C   0  0  0  0  0  0  0  0  0  0  0  0
  -47.8883   56.9836   59.2070 C   0  0  0  0  0  0  0  0  0  0  0  0
  -48.6573   57.3415   57.9431 C   0  0  0  0  0  0  0  0  0  0  0  0
  -47.7777   57.5806   56.7261 C   0  0  0  0  0  0  0  0  0  0  0  0
  -46.3432   57.9051   57.0905 C   0  0  0  0  0  0  0  0  0  0  0  0
  -34.9503   57.0535   62.7924 O   0  0  0  0  0  0  0  0  0  0  0  0
  -36.2263   57.6115   63.1194 C   0  0  0  0  0  0  0  0  0  0  0  0
  -34.3936   57.0322   63.5865 H   0  0  0  0  0  0  0  0  0  0  0  0
  -37.1146   57.6603   61.9141 C   0  0  0  0  0  0  0  0  0  0  0  0
  -37.6068   58.7601   61.3793 C   0  0  0  0  0  0  0  0  0  0  0  0
  -38.4786   58.7768   60.1667 C   0  0  0  0  0  0  0  0  0  0  0  0
  -39.6367   59.7625   60.3354 C   0  0  0  0  0  0  0  0  0  0  0  0
  -40.9658   59.2605   59.7949 C   0  0  0  0  0  0  0  0  0  0  0  0
  -41.0533   57.7502   59.6559 C   0  0  0  0  0  0  0  0  0  0  0  0
  -41.9092   57.0794   60.7205 C   0  0  0  0  0  0  0  0  0  0  0  0
  -41.1224   56.6259   61.9405 C   0  0  0  0  0  0  0  0  0  0  0  0
  -41.5708   57.2800   63.2355 C   0  0  0  0  0  0  0  0  0  0  0  0
  -42.9711   57.8622   63.1816 C   0  0  0  0  0  0  0  0  0  0  0  0
  -43.0128   59.3765   63.2944 C   0  0  0  0  0  0  0  0  0  0  0  0
  -41.6361   60.0130   63.2510 C   0  0  0  0  0  0  0  0  0  0  0  0
  -41.6365   61.4806   62.8681 C   0  0  0  0  0  0  0  0  0  0  0  0
  -42.6387   61.7972   61.7754 C   0  0  0  0  0  0  0  0  0  0  0  0
  -43.6826   62.8014   62.2186 C   0  0  0  0  0  0  0  0  0  0  0  0
  -34.5873   59.2326   64.1641 C   0  0  0  0  0  0  0  0  0  0  0  0
  -34.1590   60.5102   63.6793 O   0  0  0  0  0  0  0  0  0  0  0  0
  -31.7775   61.9502   63.3697 O   0  0  0  0  0  0  0  0  0  0  0  0
  -34.5746   64.7757   65.0176 O   0  0  0  0  0  0  0  0  0  0  0  0
  -34.8335   61.9319   65.3683 O   0  0  0  0  0  0  0  0  0  0  0  0
  -33.7247   61.3882   64.6765 C   0  0  0  0  0  0  0  0  0  0  0  0
  -32.9223   62.4986   64.0106 C   0  0  0  0  0  0  0  0  0  0  0  0
  -32.5012   63.5286   65.0511 C   0  0  0  0  0  0  0  0  0  0  0  0
  -33.6996   64.0205   65.8494 C   0  0  0  0  0  0  0  0  0  0  0  0
  -34.4560   62.8268   66.4268 C   0  0  0  0  0  0  0  0  0  0  0  0
  -32.0582   61.2965   62.7103 H   0  0  0  0  0  0  0  0  0  0  0  0
  -34.0957   65.5348   64.6496 H   0  0  0  0  0  0  0  0  0  0  0  0
  -36.8287   63.3028   66.2458 O   0  0  0  0  0  0  0  0  0  0  0  0
  -35.7274   63.2183   67.1429 C   0  0  0  0  0  0  0  0  0  0  0  0
  -37.6265   63.5553   66.7362 H   0  0  0  0  0  0  0  0  0  0  0  0
  -31.9463   64.6352   64.2720 O   0  0  0  0  0  0  0  0  0  0  0  0
  -30.5005   65.7645   65.8345 O   0  0  0  0  0  0  0  0  0  0  0  0
  -29.9049   65.6491   63.3958 O   0  0  0  0  0  0  0  0  0  0  0  0
  -29.8044   63.7383   64.8013 O   0  0  0  0  0  0  0  0  0  0  0  0
  -30.4619   65.1104   64.5792 S   0  0  0  0  0  0  0  0  0  0  0  0
  -30.9110   66.6373   65.7318 H   0  0  0  0  0  0  0  0  0  0  0  0
  -30.1623   63.3350   65.6077 H   0  0  0  0  0  0  0  0  0  0  0  0
  2  1  1  0  0  0
  2  4  1  0  0  0
  2  5  1  0  0  0
 47 48  1  0  0  0
 47  1  1  0  0  0
 48 52  1  0  0  0
  1 30  1  0  0  0
 29 30  1  0  0  0
 29 31  1  0  0  0
 30 32  1  0  0  0
  3  4  2  0  0  0
 32 33  2  0  0  0
 49 53  1  0  0  0
 49 57  1  0  0  0
 33 34  1  0  0  0
 62 54  1  0  0  0
 62 66  1  0  0  0
 34 35  1  0  0  0
 50 55  1  0  0  0
 50 58  1  0  0  0
 35 36  1  0  0  0
 51 52  1  0  0  0
 51 56  1  0  0  0
 36 37  1  0  0  0
 59 60  1  0  0  0
 59 61  1  0  0  0
 37 38  1  0  0  0
 63 66  1  0  0  0
 63 67  1  0  0  0
 38 39  1  0  0  0
 64 66  1  0  0  0
 39 40  1  0  0  0
 65 66  1  0  0  0
 65 68  1  0  0  0
 40 41  1  0  0  0
 41 42  1  0  0  0
 42 43  1  0  0  0
 43 44  1  0  0  0
 44 45  1  0  0  0
 45 46  1  0  0  0
  4  6  1  0  0  0
  6  7  1  0  0  0
  7  8  1  0  0  0
  8  9  1  0  0  0
  9 10  1  0  0  0
 10 11  1  0  0  0
 11 12  1  0  0  0
 12 13  1  0  0  0
 13 14  1  0  0  0
 14 15  1  0  0  0
 15 16  1  0  0  0
 16 17  1  0  0  0
 17 18  1  0  0  0
 18 19  1  0  0  0
 19 20  2  0  0  0
 20 21  1  0  0  0
 21 22  1  0  0  0
 22 23  1  0  0  0
 23 24  1  0  0  0
 24 25  1  0  0  0
 25 26  1  0  0  0
 26 27  1  0  0  0
 27 28  1  0  0  0
 52 53  1  0  0  0
 53 54  1  0  0  0
 54 55  1  0  0  0
 55 56  1  0  0  0
 56 60  1  0  0  0
M  CHG 1  64  -1
M  END
> <minimizedAffinity>
-9.58595

> <CNNscore>
0.1537451148

> <CNNaffinity>
7.2937278748

> <CNN_VS>
1.1213750839

> <CNNaffinity_variance>
2.1518206596

$$$$
/media/chris/experiments/cd1a-new-docking/inputs/ligands/7ryn_ligand.pdb


 68 68  0  0  0  0  0  0  0  0999 V2000
  -35.8950   58.8992   63.9653 C   0  0  0  0  0  0  0  0  0  0  0  0
  -36.8940   59.0978   65.0112 N   0  0  0  0  0  0  0  0  0  0  0  0
  -37.6964   61.0397   64.2032 O   0  0  0  0  0  0  0  0  0  0  0  0
  -37.7155   60.1503   65.0491 C   0  0  0  0  0  0  0  0  0  0  0  0
  -36.9657   58.4224   65.7239 H   0  0  0  0  0  0  0  0  0  0  0  0
  -38.6863   60.1789   66.2033 C   0  0  0  0  0  0  0  0  0  0  0  0
  -40.1025   59.8043   65.7856 C   0  0  0  0  0  0  0  0  0  0  0  0
  -41.1579   60.6844   66.4357 C   0  0  0  0  0  0  0  0  0  0  0  0
  -42.3249   59.9119   67.0279 C   0  0  0  0  0  0  0  0  0  0  0  0
  -42.2314   58.4068   66.8277 C   0  0  0  0  0  0  0  0  0  0  0  0
  -43.5764   57.7259   66.6087 C   0  0  0  0  0  0  0  0  0  0  0  0
  -44.7587   58.6863   66.5929 C   0  0  0  0  0  0  0  0  0  0  0  0
  -46.0404   58.1236   67.2023 C   0  0  0  0  0  0  0  0  0  0  0  0
  -47.0033   57.5219   66.1800 C   0  0  0  0  0  0  0  0  0  0  0  0
  -47.2281   58.3795   64.9348 C   0  0  0  0  0  0  0  0  0  0  0  0
  -47.9981   59.6701   65.2152 C   0  0  0  0  0  0  0  0  0  0  0  0
  -49.1435   59.5355   66.2184 C   0  0  0  0  0  0  0  0  0  0  0  0
  -50.4306   58.9314   65.6506 C   0  0  0  0  0  0  0  0  0  0  0  0
  -51.1703   59.8767   64.7487 C   0  0  0  0  0  0  0  0  0  0  0  0
  -51.2747   59.7782   63.4351 C   0  0  0  0  0  0  0  0  0  0  0  0
  -50.6776   58.7008   62.5815 C   0  0  0  0  0  0  0  0  0  0  0  0
  -49.8453   59.2331   61.4131 C   0  0  0  0  0  0  0  0  0  0  0  0
  -49.9748   58.3930   60.1494 C   0  0  0  0  0  0  0  0  0  0  0  0
  -49.9108   56.8925   60.4115 C   0  0  0  0  0  0  0  0  0  0  0  0
  -48.5952   56.2367   60.0077 C   0  0  0  0  0  0  0  0  0  0  0  0
  -48.2964   56.3288   58.5179 C   0  0  0  0  0  0  0  0  0  0  0  0
  -46.9565   56.9685   58.1904 C   0  0  0  0  0  0  0  0  0  0  0  0
  -47.0630   58.0530   57.1375 C   0  0  0  0  0  0  0  0  0  0  0  0
  -34.8952   57.0382   62.7941 O   0  0  0  0  0  0  0  0  0  0  0  0
  -36.1423   57.5485   63.2743 C   0  0  0  0  0  0  0  0  0  0  0  0
  -34.2705   56.9635   63.5324 H   0  0  0  0  0  0  0  0  0  0  0  0
  -37.1338   57.6774   62.1588 C   0  0  0  0  0  0  0  0  0  0  0  0
  -37.0934   58.5926   61.2108 C   0  0  0  0  0  0  0  0  0  0  0  0
  -38.0899   58.6857   60.1021 C   0  0  0  0  0  0  0  0  0  0  0  0
  -39.0897   59.8162   60.3545 C   0  0  0  0  0  0  0  0  0  0  0  0
  -40.5459   59.4007   60.2229 C   0  0  0  0  0  0  0  0  0  0  0  0
  -40.7474   57.9686   59.7577 C   0  0  0  0  0  0  0  0  0  0  0  0
  -41.4480   57.0801   60.7753 C   0  0  0  0  0  0  0  0  0  0  0  0
  -40.6984   56.9514   62.0925 C   0  0  0  0  0  0  0  0  0  0  0  0
  -41.3476   57.7023   63.2417 C   0  0  0  0  0  0  0  0  0  0  0  0
  -42.8630   57.6244   63.2536 C   0  0  0  0  0  0  0  0  0  0  0  0
  -43.5495   58.9758   63.1538 C   0  0  0  0  0  0  0  0  0  0  0  0
  -42.5856   60.1415   63.2744 C   0  0  0  0  0  0  0  0  0  0  0  0
  -42.5482   61.0511   62.0614 C   0  0  0  0  0  0  0  0  0  0  0  0
  -43.1552   62.4130   62.3356 C   0  0  0  0  0  0  0  0  0  0  0  0
  -42.5228   63.1009   63.5278 C   0  0  0  0  0  0  0  0  0  0  0  0
  -34.5021   58.9906   64.5533 C   0  0  0  0  0  0  0  0  0  0  0  0
  -34.1494   60.3742   64.6631 O   0  0  0  0  0  0  0  0  0  0  0  0
  -35.3396   62.7733   63.8453 O   0  0  0  0  0  0  0  0  0  0  0  0
  -31.1594   63.2438   62.9357 O   0  0  0  0  0  0  0  0  0  0  0  0
  -32.4350   60.6736   63.1464 O   0  0  0  0  0  0  0  0  0  0  0  0
  -33.7839   60.9729   63.4539 C   0  0  0  0  0  0  0  0  0  0  0  0
  -33.9710   62.4777   63.5971 C   0  0  0  0  0  0  0  0  0  0  0  0
  -33.5012   63.1808   62.3298 C   0  0  0  0  0  0  0  0  0  0  0  0
  -32.0842   62.7623   61.9658 C   0  0  0  0  0  0  0  0  0  0  0  0
  -32.0004   61.2394   61.8996 C   0  0  0  0  0  0  0  0  0  0  0  0
  -35.6268   62.3205   64.6537 H   0  0  0  0  0  0  0  0  0  0  0  0
  -31.2112   64.2114   62.9794 H   0  0  0  0  0  0  0  0  0  0  0  0
  -29.7630   60.9313   62.7870 O   0  0  0  0  0  0  0  0  0  0  0  0
  -30.5992   60.7312   61.6533 C   0  0  0  0  0  0  0  0  0  0  0  0
  -28.8735   60.5950   62.5961 H   0  0  0  0  0  0  0  0  0  0  0  0
  -33.5181   64.6035   62.6688 O   0  0  0  0  0  0  0  0  0  0  0  0
  -34.0820   66.5056   61.3009 O   0  0  0  0  0  0  0  0  0  0  0  0
  -35.6257   65.7463   63.1328 O   0  0  0  0  0  0  0  0  0  0  0  0
  -35.3385   64.4927   61.1371 O   0  0  0  0  0  0  0  0  0  0  0  0
  -34.6933   65.5063   62.0964 S   0  0  0  0  0  0  0  0  0  0  0  0
  -33.6629   67.1650   61.8757 H   0  0  0  0  0  0  0  0  0  0  0  0
  -34.7265   64.3015   60.4092 H   0  0  0  0  0  0  0  0  0  0  0  0
  2  1  1  0  0  0
  2  4  1  0  0  0
  2  5  1  0  0  0
 47 48  1  0  0  0
 47  1  1  0  0  0
 48 52  1  0  0  0
  1 30  1  0  0  0
 29 30  1  0  0  0
 29 31  1  0  0  0
 30 32  1  0  0  0
  3  4  2  0  0  0
 32 33  2  0  0  0
 49 53  1  0  0  0
 49 57  1  0  0  0
 33 34  1  0  0  0
 62 54  1  0  0  0
 62 66  1  0  0  0
 34 35  1  0  0  0
 50 55  1  0  0  0
 50 58  1  0  0  0
 35 36  1  0  0  0
 51 52  1  0  0  0
 51 56  1  0  0  0
 36 37  1  0  0  0
 59 60  1  0  0  0
 59 61  1  0  0  0
 37 38  1  0  0  0
 63 66  1  0  0  0
 63 67  1  0  0  0
 38 39  1  0  0  0
 64 66  1  0  0  0
 39 40  1  0  0  0
 65 66  1  0  0  0
 65 68  1  0  0  0
 40 41  1  0  0  0
 41 42  1  0  0  0
 42 43  1  0  0  0
 43 44  1  0  0  0
 44 45  1  0  0  0
 45 46  1  0  0  0
  4  6  1  0  0  0
  6  7  1  0  0  0
  7  8  1  0  0  0
  8  9  1  0  0  0
  9 10  1  0  0  0
 10 11  1  0  0  0
 11 12  1  0  0  0
 12 13  1  0  0  0
 13 14  1  0  0  0
 14 15  1  0  0  0
 15 16  1  0  0  0
 16 17  1  0  0  0
 17 18  1  0  0  0
 18 19  1  0  0  0
 19 20  2  0  0  0
 20 21  1  0  0  0
 21 22  1  0  0  0
 22 23  1  0  0  0
 23 24  1  0  0  0
 24 25  1  0  0  0
 25 26  1  0  0  0
 26 27  1  0  0  0
 27 28  1  0  0  0
 52 53  1  0  0  0
 53 54  1  0  0  0
 54 55  1  0  0  0
 55 56  1  0  0  0
 56 60  1  0  0  0
M  CHG 1  64  -1
M  END
> <minimizedAffinity>
-9.48101

> <CNNscore>
0.1416427642

> <CNNaffinity>
7.2439908981

> <CNN_VS>
1.0260589123

> <CNNaffinity_variance>
2.3106207848

$$$$
/media/chris/experiments/cd1a-new-docking/inputs/ligands/7ryn_ligand.pdb


 68 68  0  0  0  0  0  0  0  0999 V2000
  -35.3526   61.8031   63.8474 C   0  0  0  0  0  0  0  0  0  0  0  0
  -34.3065   60.8805   63.4163 N   0  0  0  0  0  0  0  0  0  0  0  0
  -34.0287   59.8892   65.4183 O   0  0  0  0  0  0  0  0  0  0  0  0
  -33.7268   59.9969   64.2333 C   0  0  0  0  0  0  0  0  0  0  0  0
  -34.0139   60.9110   62.4767 H   0  0  0  0  0  0  0  0  0  0  0  0
  -32.6708   59.1222   63.6047 C   0  0  0  0  0  0  0  0  0  0  0  0
  -32.9343   58.8569   62.1280 C   0  0  0  0  0  0  0  0  0  0  0  0
  -33.9886   57.7849   61.9036 C   0  0  0  0  0  0  0  0  0  0  0  0
  -34.5144   57.1599   63.1851 C   0  0  0  0  0  0  0  0  0  0  0  0
  -35.9565   57.5263   63.5017 C   0  0  0  0  0  0  0  0  0  0  0  0
  -36.9570   57.0750   62.4453 C   0  0  0  0  0  0  0  0  0  0  0  0
  -37.8974   58.1774   61.9754 C   0  0  0  0  0  0  0  0  0  0  0  0
  -37.6279   58.6793   60.5591 C   0  0  0  0  0  0  0  0  0  0  0  0
  -38.5159   59.8475   60.1335 C   0  0  0  0  0  0  0  0  0  0  0  0
  -39.8226   59.9729   60.9167 C   0  0  0  0  0  0  0  0  0  0  0  0
  -41.0664   59.9848   60.0279 C   0  0  0  0  0  0  0  0  0  0  0  0
  -41.8196   58.6569   59.9507 C   0  0  0  0  0  0  0  0  0  0  0  0
  -40.9430   57.4092   60.0887 C   0  0  0  0  0  0  0  0  0  0  0  0
  -41.6743   56.2468   60.6955 C   0  0  0  0  0  0  0  0  0  0  0  0
  -41.4723   55.7431   61.9003 C   0  0  0  0  0  0  0  0  0  0  0  0
  -40.4739   56.2332   62.9048 C   0  0  0  0  0  0  0  0  0  0  0  0
  -41.1076   56.9209   64.1159 C   0  0  0  0  0  0  0  0  0  0  0  0
  -42.6140   56.7160   64.2050 C   0  0  0  0  0  0  0  0  0  0  0  0
  -43.4176   57.9037   63.6874 C   0  0  0  0  0  0  0  0  0  0  0  0
  -42.5732   59.0971   63.2553 C   0  0  0  0  0  0  0  0  0  0  0  0
  -43.3173   60.4241   63.3039 C   0  0  0  0  0  0  0  0  0  0  0  0
  -42.4504   61.6352   62.9979 C   0  0  0  0  0  0  0  0  0  0  0  0
  -43.0401   62.5255   61.9229 C   0  0  0  0  0  0  0  0  0  0  0  0
  -37.5018   62.1152   62.7900 O   0  0  0  0  0  0  0  0  0  0  0  0
  -36.7293   61.1853   63.5547 C   0  0  0  0  0  0  0  0  0  0  0  0
  -37.0222   62.3436   61.9784 H   0  0  0  0  0  0  0  0  0  0  0  0
  -37.4406   60.8091   64.8183 C   0  0  0  0  0  0  0  0  0  0  0  0
  -38.6083   60.2001   64.8783 C   0  0  0  0  0  0  0  0  0  0  0  0
  -39.2854   59.8245   66.1555 C   0  0  0  0  0  0  0  0  0  0  0  0
  -40.7697   60.1945   66.1206 C   0  0  0  0  0  0  0  0  0  0  0  0
  -41.6772   59.1959   66.8206 C   0  0  0  0  0  0  0  0  0  0  0  0
  -43.0359   59.7528   67.2101 C   0  0  0  0  0  0  0  0  0  0  0  0
  -44.2106   58.9253   66.7090 C   0  0  0  0  0  0  0  0  0  0  0  0
  -45.4262   58.9749   67.6218 C   0  0  0  0  0  0  0  0  0  0  0  0
  -46.7500   58.8889   66.8828 C   0  0  0  0  0  0  0  0  0  0  0  0
  -46.6622   58.1961   65.5356 C   0  0  0  0  0  0  0  0  0  0  0  0
  -47.1685   59.0376   64.3767 C   0  0  0  0  0  0  0  0  0  0  0  0
  -48.2224   60.0471   64.7922 C   0  0  0  0  0  0  0  0  0  0  0  0
  -49.4485   60.0754   63.8999 C   0  0  0  0  0  0  0  0  0  0  0  0
  -50.5222   59.1063   64.3545 C   0  0  0  0  0  0  0  0  0  0  0  0
  -50.5116   58.8898   65.8536 C   0  0  0  0  0  0  0  0  0  0  0  0
  -35.1749   63.1445   63.1667 C   0  0  0  0  0  0  0  0  0  0  0  0
  -33.8265   63.5799   63.3740 O   0  0  0  0  0  0  0  0  0  0  0  0
  -33.3046   65.9655   62.0039 O   0  0  0  0  0  0  0  0  0  0  0  0
  -29.5444   63.8725   62.0564 O   0  0  0  0  0  0  0  0  0  0  0  0
  -32.0822   62.5358   62.2803 O   0  0  0  0  0  0  0  0  0  0  0  0
  -33.0373   63.5787   62.2202 C   0  0  0  0  0  0  0  0  0  0  0  0
  -32.3388   64.9289   62.1252 C   0  0  0  0  0  0  0  0  0  0  0  0
  -31.3979   64.9420   60.9270 C   0  0  0  0  0  0  0  0  0  0  0  0
  -30.4496   63.7526   60.9637 C   0  0  0  0  0  0  0  0  0  0  0  0
  -31.2515   62.4618   61.1107 C   0  0  0  0  0  0  0  0  0  0  0  0
  -33.8971   65.9470   62.7717 H   0  0  0  0  0  0  0  0  0  0  0  0
  -29.0338   64.6922   61.9649 H   0  0  0  0  0  0  0  0  0  0  0  0
  -29.8664   61.1269   62.5900 O   0  0  0  0  0  0  0  0  0  0  0  0
  -30.3820   61.2364   61.2683 C   0  0  0  0  0  0  0  0  0  0  0  0
  -29.3144   60.3322   62.6569 H   0  0  0  0  0  0  0  0  0  0  0  0
  -30.6333   66.1805   61.0713 O   0  0  0  0  0  0  0  0  0  0  0  0
  -31.5650   67.7961   59.5452 O   0  0  0  0  0  0  0  0  0  0  0  0
  -29.6979   66.2795   58.8177 O   0  0  0  0  0  0  0  0  0  0  0  0
  -29.3441   68.0516   60.3575 O   0  0  0  0  0  0  0  0  0  0  0  0
  -30.3737   67.0672   59.7789 S   0  0  0  0  0  0  0  0  0  0  0  0
  -32.2398   67.2038   59.1783 H   0  0  0  0  0  0  0  0  0  0  0  0
  -29.7716   68.6121   61.0239 H   0  0  0  0  0  0  0  0  0  0  0  0
  2  1  1  0  0  0
  2  4  1  0  0  0
  2  5  1  0  0  0
 47 48  1  0  0  0
 47  1  1  0  0  0
 48 52  1  0  0  0
  1 30  1  0  0  0
 29 30  1  0  0  0
 29 31  1  0  0  0
 30 32  1  0  0  0
  3  4  2  0  0  0
 32 33  2  0  0  0
 49 53  1  0  0  0
 49 57  1  0  0  0
 33 34  1  0  0  0
 62 54  1  0  0  0
 62 66  1  0  0  0
 34 35  1  0  0  0
 50 55  1  0  0  0
 50 58  1  0  0  0
 35 36  1  0  0  0
 51 52  1  0  0  0
 51 56  1  0  0  0
 36 37  1  0  0  0
 59 60  1  0  0  0
 59 61  1  0  0  0
 37 38  1  0  0  0
 63 66  1  0  0  0
 63 67  1  0  0  0
 38 39  1  0  0  0
 64 66  1  0  0  0
 39 40  1  0  0  0
 65 66  1  0  0  0
 65 68  1  0  0  0
 40 41  1  0  0  0
 41 42  1  0  0  0
 42 43  1  0  0  0
 43 44  1  0  0  0
 44 45  1  0  0  0
 45 46  1  0  0  0
  4  6  1  0  0  0
  6  7  1  0  0  0
  7  8  1  0  0  0
  8  9  1  0  0  0
  9 10  1  0  0  0
 10 11  1  0  0  0
 11 12  1  0  0  0
 12 13  1  0  0  0
 13 14  1  0  0  0
 14 15  1  0  0  0
 15 16  1  0  0  0
 16 17  1  0  0  0
 17 18  1  0  0  0
 18 19  1  0  0  0
 19 20  2  0  0  0
 20 21  1  0  0  0
 21 22  1  0  0  0
 22 23  1  0  0  0
 23 24  1  0  0  0
 24 25  1  0  0  0
 25 26  1  0  0  0
 26 27  1  0  0  0
 27 28  1  0  0  0
 52 53  1  0  0  0
 53 54  1  0  0  0
 54 55  1  0  0  0
 55 56  1  0  0  0
 56 60  1  0  0  0
M  CHG 1  64  -1
M  END
> <minimizedAffinity>
-8.32469

> <CNNscore>
0.1347680539

> <CNNaffinity>
7.0679306984

> <CNN_VS>
0.9525312781

> <CNNaffinity_variance>
1.7863594294

$$$$
/media/chris/experiments/cd1a-new-docking/inputs/ligands/7ryn_ligand.pdb


 68 68  0  0  0  0  0  0  0  0999 V2000
  -36.0040   58.9159   62.6931 C   0  0  0  0  0  0  0  0  0  0  0  0
  -37.1624   58.2274   62.1316 N   0  0  0  0  0  0  0  0  0  0  0  0
  -38.1045   60.0580   61.2211 O   0  0  0  0  0  0  0  0  0  0  0  0
  -38.1209   58.8504   61.4406 C   0  0  0  0  0  0  0  0  0  0  0  0
  -37.2411   57.2557   62.2691 H   0  0  0  0  0  0  0  0  0  0  0  0
  -39.2356   57.9704   60.9324 C   0  0  0  0  0  0  0  0  0  0  0  0
  -40.4421   58.7704   60.4581 C   0  0  0  0  0  0  0  0  0  0  0  0
  -41.5889   58.7495   61.4558 C   0  0  0  0  0  0  0  0  0  0  0  0
  -41.9097   60.1089   62.0544 C   0  0  0  0  0  0  0  0  0  0  0  0
  -42.8778   60.0522   63.2266 C   0  0  0  0  0  0  0  0  0  0  0  0
  -43.3882   58.6519   63.5416 C   0  0  0  0  0  0  0  0  0  0  0  0
  -44.7587   58.6299   64.2064 C   0  0  0  0  0  0  0  0  0  0  0  0
  -44.8866   57.6405   65.3620 C   0  0  0  0  0  0  0  0  0  0  0  0
  -46.0671   57.9186   66.2912 C   0  0  0  0  0  0  0  0  0  0  0  0
  -47.3551   57.1822   65.9230 C   0  0  0  0  0  0  0  0  0  0  0  0
  -48.6117   58.0391   66.0772 C   0  0  0  0  0  0  0  0  0  0  0  0
  -48.4008   59.5395   65.8755 C   0  0  0  0  0  0  0  0  0  0  0  0
  -49.0111   60.1100   64.5924 C   0  0  0  0  0  0  0  0  0  0  0  0
  -50.2002   59.3281   64.1144 C   0  0  0  0  0  0  0  0  0  0  0  0
  -50.3011   58.6918   62.9607 C   0  0  0  0  0  0  0  0  0  0  0  0
  -49.2467   58.6206   61.8980 C   0  0  0  0  0  0  0  0  0  0  0  0
  -49.7650   58.9449   60.4953 C   0  0  0  0  0  0  0  0  0  0  0  0
  -49.7163   57.7556   59.5454 C   0  0  0  0  0  0  0  0  0  0  0  0
  -48.8730   56.5981   60.0682 C   0  0  0  0  0  0  0  0  0  0  0  0
  -47.9593   55.9620   59.0268 C   0  0  0  0  0  0  0  0  0  0  0  0
  -48.2621   56.3952   57.5993 C   0  0  0  0  0  0  0  0  0  0  0  0
  -47.0827   57.0275   56.8776 C   0  0  0  0  0  0  0  0  0  0  0  0
  -46.8791   58.4836   57.2444 C   0  0  0  0  0  0  0  0  0  0  0  0
  -34.8153   56.8331   62.9826 O   0  0  0  0  0  0  0  0  0  0  0  0
  -34.7302   58.1206   62.3650 C   0  0  0  0  0  0  0  0  0  0  0  0
  -35.6182   56.3813   62.6790 H   0  0  0  0  0  0  0  0  0  0  0  0
  -33.4996   58.8489   62.8116 C   0  0  0  0  0  0  0  0  0  0  0  0
  -32.6401   59.4471   62.0106 C   0  0  0  0  0  0  0  0  0  0  0  0
  -31.4289   60.1788   62.4883 C   0  0  0  0  0  0  0  0  0  0  0  0
  -30.7522   60.9308   61.3404 C   0  0  0  0  0  0  0  0  0  0  0  0
  -29.5746   61.7916   61.7682 C   0  0  0  0  0  0  0  0  0  0  0  0
  -29.7119   62.3925   63.1567 C   0  0  0  0  0  0  0  0  0  0  0  0
  -29.4016   63.8810   63.2202 C   0  0  0  0  0  0  0  0  0  0  0  0
  -30.3245   64.6583   64.1461 C   0  0  0  0  0  0  0  0  0  0  0  0
  -29.6797   65.8876   64.7618 C   0  0  0  0  0  0  0  0  0  0  0  0
  -29.7021   67.1119   63.8656 C   0  0  0  0  0  0  0  0  0  0  0  0
  -31.0526   67.3801   63.2239 C   0  0  0  0  0  0  0  0  0  0  0  0
  -30.9627   67.6144   61.7275 C   0  0  0  0  0  0  0  0  0  0  0  0
  -29.9421   66.7454   61.0178 C   0  0  0  0  0  0  0  0  0  0  0  0
  -30.5762   65.8075   60.0094 C   0  0  0  0  0  0  0  0  0  0  0  0
  -31.5822   64.8687   60.6425 C   0  0  0  0  0  0  0  0  0  0  0  0
  -36.1863   59.1078   64.1845 C   0  0  0  0  0  0  0  0  0  0  0  0
  -36.5891   60.4620   64.4186 O   0  0  0  0  0  0  0  0  0  0  0  0
  -36.6603   62.3440   62.3464 O   0  0  0  0  0  0  0  0  0  0  0  0
  -35.3628   64.5525   65.8049 O   0  0  0  0  0  0  0  0  0  0  0  0
  -35.0025   61.7106   65.5376 O   0  0  0  0  0  0  0  0  0  0  0  0
  -35.5631   61.4006   64.2755 C   0  0  0  0  0  0  0  0  0  0  0  0
  -36.1541   62.6519   63.6390 C   0  0  0  0  0  0  0  0  0  0  0  0
  -35.0887   63.7367   63.5434 C   0  0  0  0  0  0  0  0  0  0  0  0
  -34.4311   63.9776   64.8943 C   0  0  0  0  0  0  0  0  0  0  0  0
  -33.9220   62.6542   65.4599 C   0  0  0  0  0  0  0  0  0  0  0  0
  -37.3370   61.6529   62.4203 H   0  0  0  0  0  0  0  0  0  0  0  0
  -35.6875   65.3936   65.4472 H   0  0  0  0  0  0  0  0  0  0  0  0
  -34.3434   63.1949   67.7878 O   0  0  0  0  0  0  0  0  0  0  0  0
  -33.3525   62.7829   66.8534 C   0  0  0  0  0  0  0  0  0  0  0  0
  -33.9460   63.2675   68.6695 H   0  0  0  0  0  0  0  0  0  0  0  0
  -35.8188   64.9366   63.1352 O   0  0  0  0  0  0  0  0  0  0  0  0
  -35.6146   64.6373   60.7528 O   0  0  0  0  0  0  0  0  0  0  0  0
  -34.2694   66.3972   61.9396 O   0  0  0  0  0  0  0  0  0  0  0  0
  -36.6147   66.6066   61.6352 O   0  0  0  0  0  0  0  0  0  0  0  0
  -35.4388   65.6232   61.7539 S   0  0  0  0  0  0  0  0  0  0  0  0
  -34.8873   63.9970   60.7983 H   0  0  0  0  0  0  0  0  0  0  0  0
  -37.4387   66.1114   61.5063 H   0  0  0  0  0  0  0  0  0  0  0  0
  2  1  1  0  0  0
  2  4  1  0  0  0
  2  5  1  0  0  0
 47 48  1  0  0  0
 47  1  1  0  0  0
 48 52  1  0  0  0
  1 30  1  0  0  0
 29 30  1  0  0  0
 29 31  1  0  0  0
 30 32  1  0  0  0
  3  4  2  0  0  0
 32 33  2  0  0  0
 49 53  1  0  0  0
 49 57  1  0  0  0
 33 34  1  0  0  0
 62 54  1  0  0  0
 62 66  1  0  0  0
 34 35  1  0  0  0
 50 55  1  0  0  0
 50 58  1  0  0  0
 35 36  1  0  0  0
 51 52  1  0  0  0
 51 56  1  0  0  0
 36 37  1  0  0  0
 59 60  1  0  0  0
 59 61  1  0  0  0
 37 38  1  0  0  0
 63 66  1  0  0  0
 63 67  1  0  0  0
 38 39  1  0  0  0
 64 66  1  0  0  0
 39 40  1  0  0  0
 65 66  1  0  0  0
 65 68  1  0  0  0
 40 41  1  0  0  0
 41 42  1  0  0  0
 42 43  1  0  0  0
 43 44  1  0  0  0
 44 45  1  0  0  0
 45 46  1  0  0  0
  4  6  1  0  0  0
  6  7  1  0  0  0
  7  8  1  0  0  0
  8  9  1  0  0  0
  9 10  1  0  0  0
 10 11  1  0  0  0
 11 12  1  0  0  0
 12 13  1  0  0  0
 13 14  1  0  0  0
 14 15  1  0  0  0
 15 16  1  0  0  0
 16 17  1  0  0  0
 17 18  1  0  0  0
 18 19  1  0  0  0
 19 20  2  0  0  0
 20 21  1  0  0  0
 21 22  1  0  0  0
 22 23  1  0  0  0
 23 24  1  0  0  0
 24 25  1  0  0  0
 25 26  1  0  0  0
 26 27  1  0  0  0
 27 28  1  0  0  0
 52 53  1  0  0  0
 53 54  1  0  0  0
 54 55  1  0  0  0
 55 56  1  0  0  0
 56 60  1  0  0  0
M  CHG 1  64  -1
M  END
> <minimizedAffinity>
-8.33147

> <CNNscore>
0.1138612628

> <CNNaffinity>
6.6894798279

> <CNN_VS>
0.7616726160

> <CNNaffinity_variance>
0.4850866199

$$$$
/media/chris/experiments/cd1a-new-docking/inputs/ligands/7ryn_ligand.pdb


 68 68  0  0  0  0  0  0  0  0999 V2000
  -39.0248   59.6812   65.0316 C   0  0  0  0  0  0  0  0  0  0  0  0
  -40.2812   60.3337   64.6751 N   0  0  0  0  0  0  0  0  0  0  0  0
  -39.5383   61.2375   62.7517 O   0  0  0  0  0  0  0  0  0  0  0  0
  -40.4403   61.0598   63.5652 C   0  0  0  0  0  0  0  0  0  0  0  0
  -41.0492   60.2337   65.2828 H   0  0  0  0  0  0  0  0  0  0  0  0
  -41.8135   61.6502   63.3632 C   0  0  0  0  0  0  0  0  0  0  0  0
  -42.6451   60.8657   62.3565 C   0  0  0  0  0  0  0  0  0  0  0  0
  -42.9637   59.4567   62.8301 C   0  0  0  0  0  0  0  0  0  0  0  0
  -43.8483   59.4070   64.0648 C   0  0  0  0  0  0  0  0  0  0  0  0
  -44.4872   58.0483   64.3096 C   0  0  0  0  0  0  0  0  0  0  0  0
  -44.4406   57.5943   65.7630 C   0  0  0  0  0  0  0  0  0  0  0  0
  -44.8427   58.6738   66.7597 C   0  0  0  0  0  0  0  0  0  0  0  0
  -46.3096   58.6328   67.1808 C   0  0  0  0  0  0  0  0  0  0  0  0
  -47.0185   57.3232   66.8391 C   0  0  0  0  0  0  0  0  0  0  0  0
  -48.2625   57.4813   65.9651 C   0  0  0  0  0  0  0  0  0  0  0  0
  -49.0137   58.7907   66.2063 C   0  0  0  0  0  0  0  0  0  0  0  0
  -50.4935   58.7680   65.8240 C   0  0  0  0  0  0  0  0  0  0  0  0
  -50.9052   59.8063   64.7769 C   0  0  0  0  0  0  0  0  0  0  0  0
  -49.7299   60.4819   64.1318 C   0  0  0  0  0  0  0  0  0  0  0  0
  -49.3515   60.3512   62.8724 C   0  0  0  0  0  0  0  0  0  0  0  0
  -50.0219   59.5040   61.8338 C   0  0  0  0  0  0  0  0  0  0  0  0
  -49.7137   58.0111   61.9658 C   0  0  0  0  0  0  0  0  0  0  0  0
  -50.2744   57.1769   60.8217 C   0  0  0  0  0  0  0  0  0  0  0  0
  -49.6924   57.5464   59.4619 C   0  0  0  0  0  0  0  0  0  0  0  0
  -48.1761   57.4193   59.3686 C   0  0  0  0  0  0  0  0  0  0  0  0
  -47.7092   56.1453   58.6788 C   0  0  0  0  0  0  0  0  0  0  0  0
  -47.1719   56.3600   57.2727 C   0  0  0  0  0  0  0  0  0  0  0  0
  -47.0894   57.8240   56.8905 C   0  0  0  0  0  0  0  0  0  0  0  0
  -38.0605   57.5799   65.7310 O   0  0  0  0  0  0  0  0  0  0  0  0
  -39.2950   58.2065   65.3709 C   0  0  0  0  0  0  0  0  0  0  0  0
  -37.6587   58.0592   66.4725 H   0  0  0  0  0  0  0  0  0  0  0  0
  -39.9451   57.4914   64.2264 C   0  0  0  0  0  0  0  0  0  0  0  0
  -41.0070   56.7159   64.3221 C   0  0  0  0  0  0  0  0  0  0  0  0
  -41.6415   56.0278   63.1582 C   0  0  0  0  0  0  0  0  0  0  0  0
  -40.8950   56.3413   61.8599 C   0  0  0  0  0  0  0  0  0  0  0  0
  -41.7816   56.8683   60.7432 C   0  0  0  0  0  0  0  0  0  0  0  0
  -41.1173   57.9069   59.8556 C   0  0  0  0  0  0  0  0  0  0  0  0
  -40.0460   58.7278   60.5587 C   0  0  0  0  0  0  0  0  0  0  0  0
  -38.8034   58.9623   59.7137 C   0  0  0  0  0  0  0  0  0  0  0  0
  -37.5044   58.6533   60.4371 C   0  0  0  0  0  0  0  0  0  0  0  0
  -37.6808   58.3079   61.9041 C   0  0  0  0  0  0  0  0  0  0  0  0
  -36.8034   57.1612   62.3762 C   0  0  0  0  0  0  0  0  0  0  0  0
  -35.6130   57.6232   63.1960 C   0  0  0  0  0  0  0  0  0  0  0  0
  -34.3722   57.9309   62.3799 C   0  0  0  0  0  0  0  0  0  0  0  0
  -33.3645   58.7666   63.1447 C   0  0  0  0  0  0  0  0  0  0  0  0
  -33.6881   58.8579   64.6216 C   0  0  0  0  0  0  0  0  0  0  0  0
  -38.3646   60.4171   66.1792 C   0  0  0  0  0  0  0  0  0  0  0  0
  -37.8346   61.6496   65.6784 O   0  0  0  0  0  0  0  0  0  0  0  0
  -36.8426   61.5401   63.0621 O   0  0  0  0  0  0  0  0  0  0  0  0
  -34.3414   64.4053   65.0764 O   0  0  0  0  0  0  0  0  0  0  0  0
  -35.7730   62.3303   66.4629 O   0  0  0  0  0  0  0  0  0  0  0  0
  -36.4571   61.6296   65.4408 C   0  0  0  0  0  0  0  0  0  0  0  0
  -36.2019   62.2852   64.0899 C   0  0  0  0  0  0  0  0  0  0  0  0
  -34.7033   62.3645   63.8277 C   0  0  0  0  0  0  0  0  0  0  0  0
  -33.9797   63.0308   64.9887 C   0  0  0  0  0  0  0  0  0  0  0  0
  -34.3465   62.3273   66.2930 C   0  0  0  0  0  0  0  0  0  0  0  0
  -37.7952   61.4967   63.2400 H   0  0  0  0  0  0  0  0  0  0  0  0
  -34.1092   64.8542   64.2484 H   0  0  0  0  0  0  0  0  0  0  0  0
  -34.3775   64.2501   67.7731 O   0  0  0  0  0  0  0  0  0  0  0  0
  -33.7590   62.9950   67.5143 C   0  0  0  0  0  0  0  0  0  0  0  0
  -33.9785   64.6508   68.5611 H   0  0  0  0  0  0  0  0  0  0  0  0
  -34.5809   63.1992   62.6328 O   0  0  0  0  0  0  0  0  0  0  0  0
  -32.6019   62.1330   61.7646 O   0  0  0  0  0  0  0  0  0  0  0  0
  -32.4878   64.4537   62.7220 O   0  0  0  0  0  0  0  0  0  0  0  0
  -33.5471   64.0065   60.6449 O   0  0  0  0  0  0  0  0  0  0  0  0
  -33.1379   63.4211   62.0065 S   0  0  0  0  0  0  0  0  0  0  0  0
  -32.3319   61.7320   62.6056 H   0  0  0  0  0  0  0  0  0  0  0  0
  -33.9984   63.3251   60.1224 H   0  0  0  0  0  0  0  0  0  0  0  0
  2  1  1  0  0  0
  2  4  1  0  0  0
  2  5  1  0  0  0
 47 48  1  0  0  0
 47  1  1  0  0  0
 48 52  1  0  0  0
  1 30  1  0  0  0
 29 30  1  0  0  0
 29 31  1  0  0  0
 30 32  1  0  0  0
  3  4  2  0  0  0
 32 33  2  0  0  0
 49 53  1  0  0  0
 49 57  1  0  0  0
 33 34  1  0  0  0
 62 54  1  0  0  0
 62 66  1  0  0  0
 34 35  1  0  0  0
 50 55  1  0  0  0
 50 58  1  0  0  0
 35 36  1  0  0  0
 51 52  1  0  0  0
 51 56  1  0  0  0
 36 37  1  0  0  0
 59 60  1  0  0  0
 59 61  1  0  0  0
 37 38  1  0  0  0
 63 66  1  0  0  0
 63 67  1  0  0  0
 38 39  1  0  0  0
 64 66  1  0  0  0
 39 40  1  0  0  0
 65 66  1  0  0  0
 65 68  1  0  0  0
 40 41  1  0  0  0
 41 42  1  0  0  0
 42 43  1  0  0  0
 43 44  1  0  0  0
 44 45  1  0  0  0
 45 46  1  0  0  0
  4  6  1  0  0  0
  6  7  1  0  0  0
  7  8  1  0  0  0
  8  9  1  0  0  0
  9 10  1  0  0  0
 10 11  1  0  0  0
 11 12  1  0  0  0
 12 13  1  0  0  0
 13 14  1  0  0  0
 14 15  1  0  0  0
 15 16  1  0  0  0
 16 17  1  0  0  0
 17 18  1  0  0  0
 18 19  1  0  0  0
 19 20  2  0  0  0
 20 21  1  0  0  0
 21 22  1  0  0  0
 22 23  1  0  0  0
 23 24  1  0  0  0
 24 25  1  0  0  0
 25 26  1  0  0  0
 26 27  1  0  0  0
 27 28  1  0  0  0
 52 53  1  0  0  0
 53 54  1  0  0  0
 54 55  1  0  0  0
 55 56  1  0  0  0
 56 60  1  0  0  0
M  CHG 1  64  -1
M  END
> <minimizedAffinity>
-9.37812

> <CNNscore>
0.1136480570

> <CNNaffinity>
7.5368928909

> <CNN_VS>
0.8565532565

> <CNNaffinity_variance>
1.5472265482

$$$$
