/media/chris/experiments/cd1a-new-docking/inputs/ligands/7ryn_ligand.pdb


 68 68  0  0  0  0  0  0  0  0999 V2000
  -39.0521   60.1897   60.8243 C   0  0  0  0  0  0  0  0  0  0  0  0
  -40.0722   59.1484   60.9044 N   0  0  0  0  0  0  0  0  0  0  0  0
  -41.7866   60.5342   61.3604 O   0  0  0  0  0  0  0  0  0  0  0  0
  -41.3576   59.4007   61.1657 C   0  0  0  0  0  0  0  0  0  0  0  0
  -39.7991   58.2138   60.7586 H   0  0  0  0  0  0  0  0  0  0  0  0
  -42.2648   58.1961   61.2006 C   0  0  0  0  0  0  0  0  0  0  0  0
  -41.5012   56.8848   61.0678 C   0  0  0  0  0  0  0  0  0  0  0  0
  -40.9350   56.3990   62.3924 C   0  0  0  0  0  0  0  0  0  0  0  0
  -41.9933   56.0859   63.4371 C   0  0  0  0  0  0  0  0  0  0  0  0
  -41.5568   56.3846   64.8636 C   0  0  0  0  0  0  0  0  0  0  0  0
  -41.1841   57.8418   65.1055 C   0  0  0  0  0  0  0  0  0  0  0  0
  -42.2684   58.6472   65.8097 C   0  0  0  0  0  0  0  0  0  0  0  0
  -43.3740   57.8051   66.4411 C   0  0  0  0  0  0  0  0  0  0  0  0
  -44.7516   58.0173   65.8155 C   0  0  0  0  0  0  0  0  0  0  0  0
  -45.9269   57.6898   66.7363 C   0  0  0  0  0  0  0  0  0  0  0  0
  -46.7334   58.9191   67.1550 C   0  0  0  0  0  0  0  0  0  0  0  0
  -48.0194   59.1506   66.3615 C   0  0  0  0  0  0  0  0  0  0  0  0
  -47.8433   59.1758   64.8408 C   0  0  0  0  0  0  0  0  0  0  0  0
  -48.5795   60.3091   64.1870 C   0  0  0  0  0  0  0  0  0  0  0  0
  -49.8100   60.2644   63.7076 C   0  0  0  0  0  0  0  0  0  0  0  0
  -50.7195   59.0733   63.7227 C   0  0  0  0  0  0  0  0  0  0  0  0
  -50.8800   58.4052   62.3555 C   0  0  0  0  0  0  0  0  0  0  0  0
  -49.6525   58.5514   61.4661 C   0  0  0  0  0  0  0  0  0  0  0  0
  -49.5200   57.4403   60.4306 C   0  0  0  0  0  0  0  0  0  0  0  0
  -48.3898   57.6434   59.4279 C   0  0  0  0  0  0  0  0  0  0  0  0
  -47.7759   56.3444   58.9251 C   0  0  0  0  0  0  0  0  0  0  0  0
  -47.5305   56.3120   57.4249 C   0  0  0  0  0  0  0  0  0  0  0  0
  -47.2343   57.6807   56.8465 C   0  0  0  0  0  0  0  0  0  0  0  0
  -37.9321   59.2105   58.9214 O   0  0  0  0  0  0  0  0  0  0  0  0
  -37.7450   59.5826   60.2899 C   0  0  0  0  0  0  0  0  0  0  0  0
  -38.2118   59.9863   58.4107 H   0  0  0  0  0  0  0  0  0  0  0  0
  -37.3117   58.4066   61.1106 C   0  0  0  0  0  0  0  0  0  0  0  0
  -36.2425   58.3727   61.8810 C   0  0  0  0  0  0  0  0  0  0  0  0
  -35.8449   57.1885   62.6998 C   0  0  0  0  0  0  0  0  0  0  0  0
  -34.4309   57.3567   63.2598 C   0  0  0  0  0  0  0  0  0  0  0  0
  -33.4309   57.9254   62.2661 C   0  0  0  0  0  0  0  0  0  0  0  0
  -33.0397   59.3693   62.5305 C   0  0  0  0  0  0  0  0  0  0  0  0
  -31.9198   59.8806   61.6361 C   0  0  0  0  0  0  0  0  0  0  0  0
  -31.0264   60.9132   62.3059 C   0  0  0  0  0  0  0  0  0  0  0  0
  -31.7895   62.0599   62.9454 C   0  0  0  0  0  0  0  0  0  0  0  0
  -31.4094   63.4288   62.4125 C   0  0  0  0  0  0  0  0  0  0  0  0
  -32.2025   63.8551   61.1892 C   0  0  0  0  0  0  0  0  0  0  0  0
  -32.4695   65.3482   61.1456 C   0  0  0  0  0  0  0  0  0  0  0  0
  -32.5404   66.0116   62.5077 C   0  0  0  0  0  0  0  0  0  0  0  0
  -33.9657   66.2541   62.9640 C   0  0  0  0  0  0  0  0  0  0  0  0
  -34.9457   66.2941   61.8097 C   0  0  0  0  0  0  0  0  0  0  0  0
  -38.8651   60.8391   62.1799 C   0  0  0  0  0  0  0  0  0  0  0  0
  -37.5866   61.4840   62.1979 O   0  0  0  0  0  0  0  0  0  0  0  0
  -35.1529   62.8100   62.5974 O   0  0  0  0  0  0  0  0  0  0  0  0
  -37.2561   63.2054   66.3314 O   0  0  0  0  0  0  0  0  0  0  0  0
  -37.7715   61.0791   64.4630 O   0  0  0  0  0  0  0  0  0  0  0  0
  -36.8785   61.3252   63.3927 C   0  0  0  0  0  0  0  0  0  0  0  0
  -36.0899   62.6032   63.6469 C   0  0  0  0  0  0  0  0  0  0  0  0
  -35.3693   62.5093   64.9860 C   0  0  0  0  0  0  0  0  0  0  0  0
  -36.3361   62.1430   66.1024 C   0  0  0  0  0  0  0  0  0  0  0  0
  -37.1058   60.8811   65.7205 C   0  0  0  0  0  0  0  0  0  0  0  0
  -35.6231   62.8680   61.7510 H   0  0  0  0  0  0  0  0  0  0  0  0
  -36.7689   64.0083   66.5742 H   0  0  0  0  0  0  0  0  0  0  0  0
  -39.4585   60.9491   66.3116 O   0  0  0  0  0  0  0  0  0  0  0  0
  -38.1705   60.5072   66.7251 C   0  0  0  0  0  0  0  0  0  0  0  0
  -40.1167   60.6937   66.9768 H   0  0  0  0  0  0  0  0  0  0  0  0
  -34.8433   63.8543   65.2177 O   0  0  0  0  0  0  0  0  0  0  0  0
  -34.5156   63.6624   67.5974 O   0  0  0  0  0  0  0  0  0  0  0  0
  -33.1947   65.3268   66.2555 O   0  0  0  0  0  0  0  0  0  0  0  0
  -32.8023   62.9912   66.0903 O   0  0  0  0  0  0  0  0  0  0  0  0
  -33.8367   64.0779   66.4262 S   0  0  0  0  0  0  0  0  0  0  0  0
  -35.1790   64.3274   67.8396 H   0  0  0  0  0  0  0  0  0  0  0  0
  -33.2069   62.1159   66.1961 H   0  0  0  0  0  0  0  0  0  0  0  0
  2  1  1  0  0  0
  2  4  1  0  0  0
  2  5  1  0  0  0
 47 48  1  0  0  0
 47  1  1  0  0  0
 48 52  1  0  0  0
  1 30  1  0  0  0
 29 30  1  0  0  0
 29 31  1  0  0  0
 30 32  1  0  0  0
  3  4  2  0  0  0
 32 33  2  0  0  0
 49 53  1  0  0  0
 49 57  1  0  0  0
 33 34  1  0  0  0
 62 54  1  0  0  0
 62 66  1  0  0  0
 34 35  1  0  0  0
 50 55  1  0  0  0
 50 58  1  0  0  0
 35 36  1  0  0  0
 51 52  1  0  0  0
 51 56  1  0  0  0
 36 37  1  0  0  0
 59 60  1  0  0  0
 59 61  1  0  0  0
 37 38  1  0  0  0
 63 66  1  0  0  0
 63 67  1  0  0  0
 38 39  1  0  0  0
 64 66  1  0  0  0
 39 40  1  0  0  0
 65 66  1  0  0  0
 65 68  1  0  0  0
 40 41  1  0  0  0
 41 42  1  0  0  0
 42 43  1  0  0  0
 43 44  1  0  0  0
 44 45  1  0  0  0
 45 46  1  0  0  0
  4  6  1  0  0  0
  6  7  1  0  0  0
  7  8  1  0  0  0
  8  9  1  0  0  0
  9 10  1  0  0  0
 10 11  1  0  0  0
 11 12  1  0  0  0
 12 13  1  0  0  0
 13 14  1  0  0  0
 14 15  1  0  0  0
 15 16  1  0  0  0
 16 17  1  0  0  0
 17 18  1  0  0  0
 18 19  1  0  0  0
 19 20  2  0  0  0
 20 21  1  0  0  0
 21 22  1  0  0  0
 22 23  1  0  0  0
 23 24  1  0  0  0
 24 25  1  0  0  0
 25 26  1  0  0  0
 26 27  1  0  0  0
 27 28  1  0  0  0
 52 53  1  0  0  0
 53 54  1  0  0  0
 54 55  1  0  0  0
 55 56  1  0  0  0
 56 60  1  0  0  0
M  CHG 1  64  -1
M  END
> <minimizedAffinity>
-9.14729

> <CNNscore>
0.1592452824

> <CNNaffinity>
7.2777161598

> <CNN_VS>
1.1589419842

> <CNNaffinity_variance>
1.3363392353

$$$$
/media/chris/experiments/cd1a-new-docking/inputs/ligands/7ryn_ligand.pdb


 68 68  0  0  0  0  0  0  0  0999 V2000
  -38.4910   59.4753   64.4464 C   0  0  0  0  0  0  0  0  0  0  0  0
  -39.7411   60.2124   64.2877 N   0  0  0  0  0  0  0  0  0  0  0  0
  -40.3625   60.0879   66.4478 O   0  0  0  0  0  0  0  0  0  0  0  0
  -40.5783   60.4611   65.2983 C   0  0  0  0  0  0  0  0  0  0  0  0
  -39.9789   60.5426   63.3911 H   0  0  0  0  0  0  0  0  0  0  0  0
  -41.8171   61.2442   64.9418 C   0  0  0  0  0  0  0  0  0  0  0  0
  -42.0459   61.3240   63.4379 C   0  0  0  0  0  0  0  0  0  0  0  0
  -43.2732   60.5472   62.9892 C   0  0  0  0  0  0  0  0  0  0  0  0
  -43.3314   59.1253   63.5221 C   0  0  0  0  0  0  0  0  0  0  0  0
  -44.7019   58.7191   64.0431 C   0  0  0  0  0  0  0  0  0  0  0  0
  -44.6622   57.6332   65.1108 C   0  0  0  0  0  0  0  0  0  0  0  0
  -44.8252   58.1583   66.5313 C   0  0  0  0  0  0  0  0  0  0  0  0
  -46.1945   57.8933   67.1517 C   0  0  0  0  0  0  0  0  0  0  0  0
  -47.1516   57.1252   66.2416 C   0  0  0  0  0  0  0  0  0  0  0  0
  -48.5176   57.7844   66.0520 C   0  0  0  0  0  0  0  0  0  0  0  0
  -48.5030   59.2947   66.2880 C   0  0  0  0  0  0  0  0  0  0  0  0
  -48.1412   60.1374   65.0649 C   0  0  0  0  0  0  0  0  0  0  0  0
  -48.5799   59.5469   63.7221 C   0  0  0  0  0  0  0  0  0  0  0  0
  -49.8503   60.1566   63.2040 C   0  0  0  0  0  0  0  0  0  0  0  0
  -50.8578   59.5044   62.6514 C   0  0  0  0  0  0  0  0  0  0  0  0
  -50.9361   58.0237   62.4330 C   0  0  0  0  0  0  0  0  0  0  0  0
  -50.9577   57.6204   60.9572 C   0  0  0  0  0  0  0  0  0  0  0  0
  -50.0388   58.4682   60.0877 C   0  0  0  0  0  0  0  0  0  0  0  0
  -48.6168   57.9252   60.0016 C   0  0  0  0  0  0  0  0  0  0  0  0
  -48.5186   56.4905   59.4955 C   0  0  0  0  0  0  0  0  0  0  0  0
  -47.2336   56.1956   58.7349 C   0  0  0  0  0  0  0  0  0  0  0  0
  -46.7702   57.3287   57.8332 C   0  0  0  0  0  0  0  0  0  0  0  0
  -47.6952   57.5609   56.6558 C   0  0  0  0  0  0  0  0  0  0  0  0
  -37.5573   57.4207   65.3076 O   0  0  0  0  0  0  0  0  0  0  0  0
  -38.7926   58.0744   65.0027 C   0  0  0  0  0  0  0  0  0  0  0  0
  -37.0506   57.9624   65.9328 H   0  0  0  0  0  0  0  0  0  0  0  0
  -39.6033   57.2648   64.0376 C   0  0  0  0  0  0  0  0  0  0  0  0
  -40.8379   56.8514   64.2449 C   0  0  0  0  0  0  0  0  0  0  0  0
  -41.6260   56.0573   63.2554 C   0  0  0  0  0  0  0  0  0  0  0  0
  -41.0586   56.2188   61.8436 C   0  0  0  0  0  0  0  0  0  0  0  0
  -41.7758   57.2596   60.9993 C   0  0  0  0  0  0  0  0  0  0  0  0
  -40.8575   58.0923   60.1211 C   0  0  0  0  0  0  0  0  0  0  0  0
  -40.5272   59.4623   60.6951 C   0  0  0  0  0  0  0  0  0  0  0  0
  -39.0494   59.8144   60.6239 C   0  0  0  0  0  0  0  0  0  0  0  0
  -38.1581   58.6415   60.2547 C   0  0  0  0  0  0  0  0  0  0  0  0
  -37.4912   57.9738   61.4428 C   0  0  0  0  0  0  0  0  0  0  0  0
  -36.0083   58.2784   61.5677 C   0  0  0  0  0  0  0  0  0  0  0  0
  -35.3430   57.5312   62.7086 C   0  0  0  0  0  0  0  0  0  0  0  0
  -33.9336   57.0576   62.4094 C   0  0  0  0  0  0  0  0  0  0  0  0
  -32.8764   58.0239   62.9067 C   0  0  0  0  0  0  0  0  0  0  0  0
  -33.0021   58.3088   64.3891 C   0  0  0  0  0  0  0  0  0  0  0  0
  -37.5414   60.2488   65.3377 C   0  0  0  0  0  0  0  0  0  0  0  0
  -36.2095   60.0625   64.8459 O   0  0  0  0  0  0  0  0  0  0  0  0
  -34.4161   60.9903   62.9058 O   0  0  0  0  0  0  0  0  0  0  0  0
  -35.9865   64.5457   64.7538 O   0  0  0  0  0  0  0  0  0  0  0  0
  -35.9202   61.9926   66.0785 O   0  0  0  0  0  0  0  0  0  0  0  0
  -35.3379   61.1177   65.1304 C   0  0  0  0  0  0  0  0  0  0  0  0
  -35.0563   61.8603   63.8307 C   0  0  0  0  0  0  0  0  0  0  0  0
  -34.1779   63.0739   64.1076 C   0  0  0  0  0  0  0  0  0  0  0  0
  -34.7769   63.9436   65.2031 C   0  0  0  0  0  0  0  0  0  0  0  0
  -35.0645   63.0898   66.4357 C   0  0  0  0  0  0  0  0  0  0  0  0
  -34.9844   60.2224   62.7377 H   0  0  0  0  0  0  0  0  0  0  0  0
  -35.8058   65.0887   63.9706 H   0  0  0  0  0  0  0  0  0  0  0  0
  -36.4274   62.9741   68.4402 O   0  0  0  0  0  0  0  0  0  0  0  0
  -35.7657   63.8514   67.5361 C   0  0  0  0  0  0  0  0  0  0  0  0
  -36.8660   63.4936   69.1321 H   0  0  0  0  0  0  0  0  0  0  0  0
  -34.1654   63.8163   62.8474 O   0  0  0  0  0  0  0  0  0  0  0  0
  -31.9093   64.5908   63.1891 O   0  0  0  0  0  0  0  0  0  0  0  0
  -32.9994   64.7855   60.9332 O   0  0  0  0  0  0  0  0  0  0  0  0
  -32.3334   62.6887   61.8255 O   0  0  0  0  0  0  0  0  0  0  0  0
  -32.7658   64.1252   62.1622 S   0  0  0  0  0  0  0  0  0  0  0  0
  -32.1544   65.4985   63.4279 H   0  0  0  0  0  0  0  0  0  0  0  0
  -32.1632   62.2014   62.6469 H   0  0  0  0  0  0  0  0  0  0  0  0
  2  1  1  0  0  0
  2  4  1  0  0  0
  2  5  1  0  0  0
 47 48  1  0  0  0
 47  1  1  0  0  0
 48 52  1  0  0  0
  1 30  1  0  0  0
 29 30  1  0  0  0
 29 31  1  0  0  0
 30 32  1  0  0  0
  3  4  2  0  0  0
 32 33  2  0  0  0
 49 53  1  0  0  0
 49 57  1  0  0  0
 33 34  1  0  0  0
 62 54  1  0  0  0
 62 66  1  0  0  0
 34 35  1  0  0  0
 50 55  1  0  0  0
 50 58  1  0  0  0
 35 36  1  0  0  0
 51 52  1  0  0  0
 51 56  1  0  0  0
 36 37  1  0  0  0
 59 60  1  0  0  0
 59 61  1  0  0  0
 37 38  1  0  0  0
 63 66  1  0  0  0
 63 67  1  0  0  0
 38 39  1  0  0  0
 64 66  1  0  0  0
 39 40  1  0  0  0
 65 66  1  0  0  0
 65 68  1  0  0  0
 40 41  1  0  0  0
 41 42  1  0  0  0
 42 43  1  0  0  0
 43 44  1  0  0  0
 44 45  1  0  0  0
 45 46  1  0  0  0
  4  6  1  0  0  0
  6  7  1  0  0  0
  7  8  1  0  0  0
  8  9  1  0  0  0
  9 10  1  0  0  0
 10 11  1  0  0  0
 11 12  1  0  0  0
 12 13  1  0  0  0
 13 14  1  0  0  0
 14 15  1  0  0  0
 15 16  1  0  0  0
 16 17  1  0  0  0
 17 18  1  0  0  0
 18 19  1  0  0  0
 19 20  2  0  0  0
 20 21  1  0  0  0
 21 22  1  0  0  0
 22 23  1  0  0  0
 23 24  1  0  0  0
 24 25  1  0  0  0
 25 26  1  0  0  0
 26 27  1  0  0  0
 27 28  1  0  0  0
 52 53  1  0  0  0
 53 54  1  0  0  0
 54 55  1  0  0  0
 55 56  1  0  0  0
 56 60  1  0  0  0
M  CHG 1  64  -1
M  END
> <minimizedAffinity>
-9.18185

> <CNNscore>
0.1136250570

> <CNNaffinity>
7.4566864967

> <CNN_VS>
0.8472664356

> <CNNaffinity_variance>
1.7664257288

$$$$
/media/chris/experiments/cd1a-new-docking/inputs/ligands/7ryn_ligand.pdb


 68 68  0  0  0  0  0  0  0  0999 V2000
  -38.7322   60.0180   61.3848 C   0  0  0  0  0  0  0  0  0  0  0  0
  -39.7179   58.9826   61.6810 N   0  0  0  0  0  0  0  0  0  0  0  0
  -40.9872   59.3382   59.8561 O   0  0  0  0  0  0  0  0  0  0  0  0
  -40.7667   58.7234   60.8956 C   0  0  0  0  0  0  0  0  0  0  0  0
  -39.6038   58.4489   62.5005 H   0  0  0  0  0  0  0  0  0  0  0  0
  -41.6725   57.6113   61.3625 C   0  0  0  0  0  0  0  0  0  0  0  0
  -40.8994   56.4185   61.9102 C   0  0  0  0  0  0  0  0  0  0  0  0
  -41.6869   55.6358   62.9487 C   0  0  0  0  0  0  0  0  0  0  0  0
  -41.3766   56.0301   64.3831 C   0  0  0  0  0  0  0  0  0  0  0  0
  -42.5949   56.4830   65.1740 C   0  0  0  0  0  0  0  0  0  0  0  0
  -43.6349   57.2215   64.3411 C   0  0  0  0  0  0  0  0  0  0  0  0
  -44.3159   58.3670   65.0789 C   0  0  0  0  0  0  0  0  0  0  0  0
  -44.5810   58.0993   66.5582 C   0  0  0  0  0  0  0  0  0  0  0  0
  -46.0356   58.3065   66.9769 C   0  0  0  0  0  0  0  0  0  0  0  0
  -46.9993   57.2248   66.4894 C   0  0  0  0  0  0  0  0  0  0  0  0
  -47.9781   57.7170   65.4232 C   0  0  0  0  0  0  0  0  0  0  0  0
  -47.6652   59.0970   64.8448 C   0  0  0  0  0  0  0  0  0  0  0  0
  -48.6438   60.2029   65.2493 C   0  0  0  0  0  0  0  0  0  0  0  0
  -49.9653   59.6687   65.7207 C   0  0  0  0  0  0  0  0  0  0  0  0
  -51.0495   59.5112   64.9821 C   0  0  0  0  0  0  0  0  0  0  0  0
  -51.1772   59.8319   63.5237 C   0  0  0  0  0  0  0  0  0  0  0  0
  -50.8406   58.6561   62.6041 C   0  0  0  0  0  0  0  0  0  0  0  0
  -49.6462   58.9233   61.6978 C   0  0  0  0  0  0  0  0  0  0  0  0
  -48.8623   57.6646   61.3435 C   0  0  0  0  0  0  0  0  0  0  0  0
  -49.4424   56.8658   60.1819 C   0  0  0  0  0  0  0  0  0  0  0  0
  -49.2875   57.5490   58.8304 C   0  0  0  0  0  0  0  0  0  0  0  0
  -47.8768   58.0339   58.5364 C   0  0  0  0  0  0  0  0  0  0  0  0
  -47.3931   57.6375   57.1563 C   0  0  0  0  0  0  0  0  0  0  0  0
  -38.0092   58.8817   59.3796 O   0  0  0  0  0  0  0  0  0  0  0  0
  -37.5463   59.3924   60.6331 C   0  0  0  0  0  0  0  0  0  0  0  0
  -38.4281   59.5959   58.8743 H   0  0  0  0  0  0  0  0  0  0  0  0
  -36.8922   58.3146   61.4422 C   0  0  0  0  0  0  0  0  0  0  0  0
  -35.6177   58.2870   61.7785 C   0  0  0  0  0  0  0  0  0  0  0  0
  -34.9979   57.2045   62.5999 C   0  0  0  0  0  0  0  0  0  0  0  0
  -34.8905   57.6212   64.0682 C   0  0  0  0  0  0  0  0  0  0  0  0
  -36.1441   57.3532   64.8851 C   0  0  0  0  0  0  0  0  0  0  0  0
  -37.1419   58.4987   64.8923 C   0  0  0  0  0  0  0  0  0  0  0  0
  -38.5281   58.1088   65.3842 C   0  0  0  0  0  0  0  0  0  0  0  0
  -39.2435   59.2192   66.1381 C   0  0  0  0  0  0  0  0  0  0  0  0
  -40.7556   59.1735   66.0048 C   0  0  0  0  0  0  0  0  0  0  0  0
  -41.4480   60.4728   66.3718 C   0  0  0  0  0  0  0  0  0  0  0  0
  -41.8443   61.3187   65.1739 C   0  0  0  0  0  0  0  0  0  0  0  0
  -41.6871   60.5880   63.8534 C   0  0  0  0  0  0  0  0  0  0  0  0
  -42.8930   60.6820   62.9382 C   0  0  0  0  0  0  0  0  0  0  0  0
  -42.6759   61.6426   61.7855 C   0  0  0  0  0  0  0  0  0  0  0  0
  -43.2689   63.0110   62.0510 C   0  0  0  0  0  0  0  0  0  0  0  0
  -38.2974   60.7026   62.6641 C   0  0  0  0  0  0  0  0  0  0  0  0
  -37.3479   61.7211   62.3296 O   0  0  0  0  0  0  0  0  0  0  0  0
  -35.2109   63.4685   61.8601 O   0  0  0  0  0  0  0  0  0  0  0  0
  -36.6538   64.5104   65.7787 O   0  0  0  0  0  0  0  0  0  0  0  0
  -37.0398   61.9100   64.6096 O   0  0  0  0  0  0  0  0  0  0  0  0
  -36.4217   61.9985   63.3392 C   0  0  0  0  0  0  0  0  0  0  0  0
  -35.8831   63.4050   63.1116 C   0  0  0  0  0  0  0  0  0  0  0  0
  -34.9328   63.7845   64.2403 C   0  0  0  0  0  0  0  0  0  0  0  0
  -35.5888   63.5824   65.5983 C   0  0  0  0  0  0  0  0  0  0  0  0
  -36.1352   62.1602   65.6971 C   0  0  0  0  0  0  0  0  0  0  0  0
  -35.8254   63.2250   61.1503 H   0  0  0  0  0  0  0  0  0  0  0  0
  -36.3085   65.4147   65.7162 H   0  0  0  0  0  0  0  0  0  0  0  0
  -36.4330   62.7224   68.0390 O   0  0  0  0  0  0  0  0  0  0  0  0
  -36.9037   61.9059   66.9728 C   0  0  0  0  0  0  0  0  0  0  0  0
  -36.9460   62.5347   68.8406 H   0  0  0  0  0  0  0  0  0  0  0  0
  -34.6648   65.2076   64.0349 O   0  0  0  0  0  0  0  0  0  0  0  0
  -32.6116   66.0184   65.0013 O   0  0  0  0  0  0  0  0  0  0  0  0
  -33.1597   66.4793   62.5924 O   0  0  0  0  0  0  0  0  0  0  0  0
  -32.5691   64.3079   63.3491 O   0  0  0  0  0  0  0  0  0  0  0  0
  -33.1705   65.6652   63.7491 S   0  0  0  0  0  0  0  0  0  0  0  0
  -32.9704   66.8735   65.2858 H   0  0  0  0  0  0  0  0  0  0  0  0
  -32.5593   63.7188   64.1197 H   0  0  0  0  0  0  0  0  0  0  0  0
  2  1  1  0  0  0
  2  4  1  0  0  0
  2  5  1  0  0  0
 47 48  1  0  0  0
 47  1  1  0  0  0
 48 52  1  0  0  0
  1 30  1  0  0  0
 29 30  1  0  0  0
 29 31  1  0  0  0
 30 32  1  0  0  0
  3  4  2  0  0  0
 32 33  2  0  0  0
 49 53  1  0  0  0
 49 57  1  0  0  0
 33 34  1  0  0  0
 62 54  1  0  0  0
 62 66  1  0  0  0
 34 35  1  0  0  0
 50 55  1  0  0  0
 50 58  1  0  0  0
 35 36  1  0  0  0
 51 52  1  0  0  0
 51 56  1  0  0  0
 36 37  1  0  0  0
 59 60  1  0  0  0
 59 61  1  0  0  0
 37 38  1  0  0  0
 63 66  1  0  0  0
 63 67  1  0  0  0
 38 39  1  0  0  0
 64 66  1  0  0  0
 39 40  1  0  0  0
 65 66  1  0  0  0
 65 68  1  0  0  0
 40 41  1  0  0  0
 41 42  1  0  0  0
 42 43  1  0  0  0
 43 44  1  0  0  0
 44 45  1  0  0  0
 45 46  1  0  0  0
  4  6  1  0  0  0
  6  7  1  0  0  0
  7  8  1  0  0  0
  8  9  1  0  0  0
  9 10  1  0  0  0
 10 11  1  0  0  0
 11 12  1  0  0  0
 12 13  1  0  0  0
 13 14  1  0  0  0
 14 15  1  0  0  0
 15 16  1  0  0  0
 16 17  1  0  0  0
 17 18  1  0  0  0
 18 19  1  0  0  0
 19 20  2  0  0  0
 20 21  1  0  0  0
 21 22  1  0  0  0
 22 23  1  0  0  0
 23 24  1  0  0  0
 24 25  1  0  0  0
 25 26  1  0  0  0
 26 27  1  0  0  0
 27 28  1  0  0  0
 52 53  1  0  0  0
 53 54  1  0  0  0
 54 55  1  0  0  0
 55 56  1  0  0  0
 56 60  1  0  0  0
M  CHG 1  64  -1
M  END
> <minimizedAffinity>
-8.66017

> <CNNscore>
0.1090908945

> <CNNaffinity>
7.5423827171

> <CNN_VS>
0.8228052855

> <CNNaffinity_variance>
1.8260885477

$$$$
/media/chris/experiments/cd1a-new-docking/inputs/ligands/7ryn_ligand.pdb


 68 68  0  0  0  0  0  0  0  0999 V2000
  -40.2634   60.0599   66.0660 C   0  0  0  0  0  0  0  0  0  0  0  0
  -40.5392   58.8371   65.3177 N   0  0  0  0  0  0  0  0  0  0  0  0
  -42.0673   58.0219   66.7558 O   0  0  0  0  0  0  0  0  0  0  0  0
  -41.4178   57.9148   65.7196 C   0  0  0  0  0  0  0  0  0  0  0  0
  -40.0535   58.6847   64.4750 H   0  0  0  0  0  0  0  0  0  0  0  0
  -41.5732   56.7216   64.8100 C   0  0  0  0  0  0  0  0  0  0  0  0
  -42.9821   56.5968   64.2446 C   0  0  0  0  0  0  0  0  0  0  0  0
  -43.4461   57.8622   63.5413 C   0  0  0  0  0  0  0  0  0  0  0  0
  -44.5009   58.6421   64.3085 C   0  0  0  0  0  0  0  0  0  0  0  0
  -45.4302   57.7683   65.1376 C   0  0  0  0  0  0  0  0  0  0  0  0
  -45.5174   58.1730   66.6037 C   0  0  0  0  0  0  0  0  0  0  0  0
  -46.6876   57.5440   67.3488 C   0  0  0  0  0  0  0  0  0  0  0  0
  -47.6356   56.7321   66.4701 C   0  0  0  0  0  0  0  0  0  0  0  0
  -48.6751   57.5746   65.7325 C   0  0  0  0  0  0  0  0  0  0  0  0
  -49.1209   58.8326   66.4776 C   0  0  0  0  0  0  0  0  0  0  0  0
  -48.5223   60.1201   65.9111 C   0  0  0  0  0  0  0  0  0  0  0  0
  -48.2835   60.1133   64.4012 C   0  0  0  0  0  0  0  0  0  0  0  0
  -49.3681   60.8082   63.5735 C   0  0  0  0  0  0  0  0  0  0  0  0
  -50.7223   60.1828   63.7438 C   0  0  0  0  0  0  0  0  0  0  0  0
  -51.1692   59.1105   63.1142 C   0  0  0  0  0  0  0  0  0  0  0  0
  -50.4127   58.3012   62.1048 C   0  0  0  0  0  0  0  0  0  0  0  0
  -50.0456   59.0821   60.8412 C   0  0  0  0  0  0  0  0  0  0  0  0
  -49.4965   58.2010   59.7270 C   0  0  0  0  0  0  0  0  0  0  0  0
  -48.4601   57.1921   60.2088 C   0  0  0  0  0  0  0  0  0  0  0  0
  -48.2577   56.0017   59.2782 C   0  0  0  0  0  0  0  0  0  0  0  0
  -46.9694   56.0677   58.4702 C   0  0  0  0  0  0  0  0  0  0  0  0
  -47.1470   56.6038   57.0585 C   0  0  0  0  0  0  0  0  0  0  0  0
  -46.9300   58.1004   56.9649 C   0  0  0  0  0  0  0  0  0  0  0  0
  -41.8427   61.8851   66.1614 O   0  0  0  0  0  0  0  0  0  0  0  0
  -40.8681   61.2607   65.3209 C   0  0  0  0  0  0  0  0  0  0  0  0
  -41.4286   62.1441   66.9995 H   0  0  0  0  0  0  0  0  0  0  0  0
  -41.4734   60.8464   64.0147 C   0  0  0  0  0  0  0  0  0  0  0  0
  -41.9791   61.6703   63.1184 C   0  0  0  0  0  0  0  0  0  0  0  0
  -42.5627   61.2268   61.8171 C   0  0  0  0  0  0  0  0  0  0  0  0
  -41.5213   60.4948   60.9682 C   0  0  0  0  0  0  0  0  0  0  0  0
  -41.6539   58.9806   60.9885 C   0  0  0  0  0  0  0  0  0  0  0  0
  -40.4103   58.2510   61.4670 C   0  0  0  0  0  0  0  0  0  0  0  0
  -39.1556   59.1119   61.4833 C   0  0  0  0  0  0  0  0  0  0  0  0
  -37.8965   58.3644   61.0722 C   0  0  0  0  0  0  0  0  0  0  0  0
  -37.4856   57.2751   62.0474 C   0  0  0  0  0  0  0  0  0  0  0  0
  -37.8101   57.5880   63.4962 C   0  0  0  0  0  0  0  0  0  0  0  0
  -36.6065   57.5359   64.4215 C   0  0  0  0  0  0  0  0  0  0  0  0
  -35.2873   57.6949   63.6888 C   0  0  0  0  0  0  0  0  0  0  0  0
  -34.2919   58.6056   64.3818 C   0  0  0  0  0  0  0  0  0  0  0  0
  -32.8770   58.4187   63.8699 C   0  0  0  0  0  0  0  0  0  0  0  0
  -32.8245   57.6049   62.5935 C   0  0  0  0  0  0  0  0  0  0  0  0
  -38.7714   60.2143   66.2773 C   0  0  0  0  0  0  0  0  0  0  0  0
  -38.1802   60.6176   65.0370 O   0  0  0  0  0  0  0  0  0  0  0  0
  -36.4936   60.8628   62.8153 O   0  0  0  0  0  0  0  0  0  0  0  0
  -36.1383   64.6137   64.8955 O   0  0  0  0  0  0  0  0  0  0  0  0
  -36.9276   62.1719   66.1963 O   0  0  0  0  0  0  0  0  0  0  0  0
  -36.9171   61.2027   65.1647 C   0  0  0  0  0  0  0  0  0  0  0  0
  -36.5617   61.8527   63.8339 C   0  0  0  0  0  0  0  0  0  0  0  0
  -35.2280   62.5797   63.9525 C   0  0  0  0  0  0  0  0  0  0  0  0
  -35.2325   63.5408   65.1321 C   0  0  0  0  0  0  0  0  0  0  0  0
  -35.6499   62.7966   66.3982 C   0  0  0  0  0  0  0  0  0  0  0  0
  -37.3475   60.4074   62.7494 H   0  0  0  0  0  0  0  0  0  0  0  0
  -35.8748   65.0879   64.0913 H   0  0  0  0  0  0  0  0  0  0  0  0
  -36.4765   63.0529   68.6654 O   0  0  0  0  0  0  0  0  0  0  0  0
  -35.7899   63.7007   67.6004 C   0  0  0  0  0  0  0  0  0  0  0  0
  -36.5491   63.6590   69.4192 H   0  0  0  0  0  0  0  0  0  0  0  0
  -35.1078   63.3367   62.7068 O   0  0  0  0  0  0  0  0  0  0  0  0
  -32.7113   63.0844   62.7238 O   0  0  0  0  0  0  0  0  0  0  0  0
  -33.7562   65.3693   62.7773 O   0  0  0  0  0  0  0  0  0  0  0  0
  -33.8086   64.0136   60.8291 O   0  0  0  0  0  0  0  0  0  0  0  0
  -33.7139   64.0173   62.3636 S   0  0  0  0  0  0  0  0  0  0  0  0
  -32.6241   63.0603   63.6896 H   0  0  0  0  0  0  0  0  0  0  0  0
  -33.7827   63.0994   60.5057 H   0  0  0  0  0  0  0  0  0  0  0  0
  2  1  1  0  0  0
  2  4  1  0  0  0
  2  5  1  0  0  0
 47 48  1  0  0  0
 47  1  1  0  0  0
 48 52  1  0  0  0
  1 30  1  0  0  0
 29 30  1  0  0  0
 29 31  1  0  0  0
 30 32  1  0  0  0
  3  4  2  0  0  0
 32 33  2  0  0  0
 49 53  1  0  0  0
 49 57  1  0  0  0
 33 34  1  0  0  0
 62 54  1  0  0  0
 62 66  1  0  0  0
 34 35  1  0  0  0
 50 55  1  0  0  0
 50 58  1  0  0  0
 35 36  1  0  0  0
 51 52  1  0  0  0
 51 56  1  0  0  0
 36 37  1  0  0  0
 59 60  1  0  0  0
 59 61  1  0  0  0
 37 38  1  0  0  0
 63 66  1  0  0  0
 63 67  1  0  0  0
 38 39  1  0  0  0
 64 66  1  0  0  0
 39 40  1  0  0  0
 65 66  1  0  0  0
 65 68  1  0  0  0
 40 41  1  0  0  0
 41 42  1  0  0  0
 42 43  1  0  0  0
 43 44  1  0  0  0
 44 45  1  0  0  0
 45 46  1  0  0  0
  4  6  1  0  0  0
  6  7  1  0  0  0
  7  8  1  0  0  0
  8  9  1  0  0  0
  9 10  1  0  0  0
 10 11  1  0  0  0
 11 12  1  0  0  0
 12 13  1  0  0  0
 13 14  1  0  0  0
 14 15  1  0  0  0
 15 16  1  0  0  0
 16 17  1  0  0  0
 17 18  1  0  0  0
 18 19  1  0  0  0
 19 20  2  0  0  0
 20 21  1  0  0  0
 21 22  1  0  0  0
 22 23  1  0  0  0
 23 24  1  0  0  0
 24 25  1  0  0  0
 25 26  1  0  0  0
 26 27  1  0  0  0
 27 28  1  0  0  0
 52 53  1  0  0  0
 53 54  1  0  0  0
 54 55  1  0  0  0
 55 56  1  0  0  0
 56 60  1  0  0  0
M  CHG 1  64  -1
M  END
> <minimizedAffinity>
-9.59038

> <CNNscore>
0.1058264822

> <CNNaffinity>
7.4335312843

> <CNN_VS>
0.7866644859

> <CNNaffinity_variance>
2.5212445259

$$$$
/media/chris/experiments/cd1a-new-docking/inputs/ligands/7ryn_ligand.pdb


 68 68  0  0  0  0  0  0  0  0999 V2000
  -39.8582   59.9948   65.6201 C   0  0  0  0  0  0  0  0  0  0  0  0
  -40.0436   59.0053   64.5629 N   0  0  0  0  0  0  0  0  0  0  0  0
  -38.6263   57.4798   65.4186 O   0  0  0  0  0  0  0  0  0  0  0  0
  -39.4147   57.8270   64.5440 C   0  0  0  0  0  0  0  0  0  0  0  0
  -40.6628   59.2169   63.8273 H   0  0  0  0  0  0  0  0  0  0  0  0
  -39.7396   56.9327   63.3736 C   0  0  0  0  0  0  0  0  0  0  0  0
  -41.1347   56.3284   63.4691 C   0  0  0  0  0  0  0  0  0  0  0  0
  -42.2087   57.2386   62.8954 C   0  0  0  0  0  0  0  0  0  0  0  0
  -43.3306   57.5579   63.8695 C   0  0  0  0  0  0  0  0  0  0  0  0
  -43.2459   56.7881   65.1791 C   0  0  0  0  0  0  0  0  0  0  0  0
  -42.9036   57.6532   66.3855 C   0  0  0  0  0  0  0  0  0  0  0  0
  -43.9667   58.6908   66.7221 C   0  0  0  0  0  0  0  0  0  0  0  0
  -45.3226   58.1063   67.1093 C   0  0  0  0  0  0  0  0  0  0  0  0
  -46.5135   58.9670   66.6906 C   0  0  0  0  0  0  0  0  0  0  0  0
  -47.1386   58.5812   65.3502 C   0  0  0  0  0  0  0  0  0  0  0  0
  -48.2099   57.4969   65.4674 C   0  0  0  0  0  0  0  0  0  0  0  0
  -49.5785   57.9877   65.9394 C   0  0  0  0  0  0  0  0  0  0  0  0
  -49.8023   59.4969   65.8102 C   0  0  0  0  0  0  0  0  0  0  0  0
  -51.0500   59.8384   65.0484 C   0  0  0  0  0  0  0  0  0  0  0  0
  -51.1762   59.8657   63.7334 C   0  0  0  0  0  0  0  0  0  0  0  0
  -50.0992   59.5584   62.7376 C   0  0  0  0  0  0  0  0  0  0  0  0
  -50.5234   58.5545   61.6635 C   0  0  0  0  0  0  0  0  0  0  0  0
  -49.4588   57.5075   61.3638 C   0  0  0  0  0  0  0  0  0  0  0  0
  -48.5764   57.8657   60.1733 C   0  0  0  0  0  0  0  0  0  0  0  0
  -48.9074   57.1089   58.8920 C   0  0  0  0  0  0  0  0  0  0  0  0
  -47.8732   56.0567   58.5173 C   0  0  0  0  0  0  0  0  0  0  0  0
  -47.1730   56.3163   57.1929 C   0  0  0  0  0  0  0  0  0  0  0  0
  -47.2283   57.7709   56.7723 C   0  0  0  0  0  0  0  0  0  0  0  0
  -41.6800   61.2172   66.6309 O   0  0  0  0  0  0  0  0  0  0  0  0
  -40.8848   61.1255   65.4453 C   0  0  0  0  0  0  0  0  0  0  0  0
  -41.1028   61.3610   67.3971 H   0  0  0  0  0  0  0  0  0  0  0  0
  -41.7449   60.9028   64.2391 C   0  0  0  0  0  0  0  0  0  0  0  0
  -41.9027   61.7619   63.2517 C   0  0  0  0  0  0  0  0  0  0  0  0
  -42.7566   61.5040   62.0538 C   0  0  0  0  0  0  0  0  0  0  0  0
  -41.9111   61.0437   60.8644 C   0  0  0  0  0  0  0  0  0  0  0  0
  -41.9448   59.5439   60.6195 C   0  0  0  0  0  0  0  0  0  0  0  0
  -40.6018   58.9421   60.2426 C   0  0  0  0  0  0  0  0  0  0  0  0
  -39.5239   59.9736   59.9427 C   0  0  0  0  0  0  0  0  0  0  0  0
  -38.1219   59.3886   59.8702 C   0  0  0  0  0  0  0  0  0  0  0  0
  -37.8852   58.2448   60.8407 C   0  0  0  0  0  0  0  0  0  0  0  0
  -36.4901   58.2185   61.4368 C   0  0  0  0  0  0  0  0  0  0  0  0
  -36.3715   57.3659   62.6884 C   0  0  0  0  0  0  0  0  0  0  0  0
  -34.9530   57.2885   63.2215 C   0  0  0  0  0  0  0  0  0  0  0  0
  -33.9586   56.6566   62.2664 C   0  0  0  0  0  0  0  0  0  0  0  0
  -32.6486   57.4171   62.2020 C   0  0  0  0  0  0  0  0  0  0  0  0
  -32.8468   58.8904   61.9108 C   0  0  0  0  0  0  0  0  0  0  0  0
  -38.4345   60.5118   65.6039 C   0  0  0  0  0  0  0  0  0  0  0  0
  -38.1593   61.0330   64.2988 O   0  0  0  0  0  0  0  0  0  0  0  0
  -37.0812   63.0251   62.6527 O   0  0  0  0  0  0  0  0  0  0  0  0
  -34.1281   62.4052   65.7215 O   0  0  0  0  0  0  0  0  0  0  0  0
  -36.0426   60.3958   64.9637 O   0  0  0  0  0  0  0  0  0  0  0  0
  -36.8083   61.0051   63.9410 C   0  0  0  0  0  0  0  0  0  0  0  0
  -36.3486   62.4407   63.7222 C   0  0  0  0  0  0  0  0  0  0  0  0
  -34.8567   62.4655   63.4148 C   0  0  0  0  0  0  0  0  0  0  0  0
  -34.0671   61.7152   64.4774 C   0  0  0  0  0  0  0  0  0  0  0  0
  -34.6435   60.3118   64.6487 C   0  0  0  0  0  0  0  0  0  0  0  0
  -38.0285   63.0035   62.8599 H   0  0  0  0  0  0  0  0  0  0  0  0
  -33.7622   63.2972   65.6146 H   0  0  0  0  0  0  0  0  0  0  0  0
  -33.2756   58.4061   65.2700 O   0  0  0  0  0  0  0  0  0  0  0  0
  -33.9895   59.5328   65.7659 C   0  0  0  0  0  0  0  0  0  0  0  0
  -32.8691   57.9295   66.0106 H   0  0  0  0  0  0  0  0  0  0  0  0
  -34.4959   63.8826   63.4488 O   0  0  0  0  0  0  0  0  0  0  0  0
  -32.5373   63.9192   62.0455 O   0  0  0  0  0  0  0  0  0  0  0  0
  -34.0581   65.9159   62.1693 O   0  0  0  0  0  0  0  0  0  0  0  0
  -34.7097   63.9113   61.0770 O   0  0  0  0  0  0  0  0  0  0  0  0
  -33.8125   64.5229   62.1656 S   0  0  0  0  0  0  0  0  0  0  0  0
  -31.9426   64.2829   62.7200 H   0  0  0  0  0  0  0  0  0  0  0  0
  -34.5692   62.9520   61.0435 H   0  0  0  0  0  0  0  0  0  0  0  0
  2  1  1  0  0  0
  2  4  1  0  0  0
  2  5  1  0  0  0
 47 48  1  0  0  0
 47  1  1  0  0  0
 48 52  1  0  0  0
  1 30  1  0  0  0
 29 30  1  0  0  0
 29 31  1  0  0  0
 30 32  1  0  0  0
  3  4  2  0  0  0
 32 33  2  0  0  0
 49 53  1  0  0  0
 49 57  1  0  0  0
 33 34  1  0  0  0
 62 54  1  0  0  0
 62 66  1  0  0  0
 34 35  1  0  0  0
 50 55  1  0  0  0
 50 58  1  0  0  0
 35 36  1  0  0  0
 51 52  1  0  0  0
 51 56  1  0  0  0
 36 37  1  0  0  0
 59 60  1  0  0  0
 59 61  1  0  0  0
 37 38  1  0  0  0
 63 66  1  0  0  0
 63 67  1  0  0  0
 38 39  1  0  0  0
 64 66  1  0  0  0
 39 40  1  0  0  0
 65 66  1  0  0  0
 65 68  1  0  0  0
 40 41  1  0  0  0
 41 42  1  0  0  0
 42 43  1  0  0  0
 43 44  1  0  0  0
 44 45  1  0  0  0
 45 46  1  0  0  0
  4  6  1  0  0  0
  6  7  1  0  0  0
  7  8  1  0  0  0
  8  9  1  0  0  0
  9 10  1  0  0  0
 10 11  1  0  0  0
 11 12  1  0  0  0
 12 13  1  0  0  0
 13 14  1  0  0  0
 14 15  1  0  0  0
 15 16  1  0  0  0
 16 17  1  0  0  0
 17 18  1  0  0  0
 18 19  1  0  0  0
 19 20  2  0  0  0
 20 21  1  0  0  0
 21 22  1  0  0  0
 22 23  1  0  0  0
 23 24  1  0  0  0
 24 25  1  0  0  0
 25 26  1  0  0  0
 26 27  1  0  0  0
 27 28  1  0  0  0
 52 53  1  0  0  0
 53 54  1  0  0  0
 54 55  1  0  0  0
 55 56  1  0  0  0
 56 60  1  0  0  0
M  CHG 1  64  -1
M  END
> <minimizedAffinity>
-7.93858

> <CNNscore>
0.0949321464

> <CNNaffinity>
7.3179397583

> <CNN_VS>
0.6947077513

> <CNNaffinity_variance>
1.7764828205

$$$$
/media/chris/experiments/cd1a-new-docking/inputs/ligands/7ryn_ligand.pdb


 68 68  0  0  0  0  0  0  0  0999 V2000
  -35.8184   58.0345   63.2018 C   0  0  0  0  0  0  0  0  0  0  0  0
  -36.5005   59.1765   63.8034 N   0  0  0  0  0  0  0  0  0  0  0  0
  -37.4448   58.0234   65.4905 O   0  0  0  0  0  0  0  0  0  0  0  0
  -37.2592   59.0828   64.8987 C   0  0  0  0  0  0  0  0  0  0  0  0
  -36.3961   60.0596   63.3807 H   0  0  0  0  0  0  0  0  0  0  0  0
  -37.8769   60.3731   65.3769 C   0  0  0  0  0  0  0  0  0  0  0  0
  -39.0780   60.1451   66.2855 C   0  0  0  0  0  0  0  0  0  0  0  0
  -40.2533   59.5137   65.5567 C   0  0  0  0  0  0  0  0  0  0  0  0
  -41.6104   59.9275   66.1012 C   0  0  0  0  0  0  0  0  0  0  0  0
  -42.1836   58.9594   67.1253 C   0  0  0  0  0  0  0  0  0  0  0  0
  -42.9112   57.7690   66.5134 C   0  0  0  0  0  0  0  0  0  0  0  0
  -43.5963   58.0790   65.1887 C   0  0  0  0  0  0  0  0  0  0  0  0
  -45.1098   58.2532   65.2836 C   0  0  0  0  0  0  0  0  0  0  0  0
  -45.6165   58.5318   66.6978 C   0  0  0  0  0  0  0  0  0  0  0  0
  -46.7752   57.6415   67.1465 C   0  0  0  0  0  0  0  0  0  0  0  0
  -47.7374   57.2783   66.0154 C   0  0  0  0  0  0  0  0  0  0  0  0
  -49.1093   57.9481   66.0927 C   0  0  0  0  0  0  0  0  0  0  0  0
  -49.0830   59.4785   66.0549 C   0  0  0  0  0  0  0  0  0  0  0  0
  -48.4960   60.0206   64.7838 C   0  0  0  0  0  0  0  0  0  0  0  0
  -49.1271   60.1566   63.6310 C   0  0  0  0  0  0  0  0  0  0  0  0
  -50.5574   59.7993   63.3611 C   0  0  0  0  0  0  0  0  0  0  0  0
  -50.7315   58.7469   62.2641 C   0  0  0  0  0  0  0  0  0  0  0  0
  -49.9464   59.0617   60.9977 C   0  0  0  0  0  0  0  0  0  0  0  0
  -50.0241   57.9587   59.9480 C   0  0  0  0  0  0  0  0  0  0  0  0
  -49.0420   56.8127   60.1628 C   0  0  0  0  0  0  0  0  0  0  0  0
  -48.0252   56.6585   59.0406 C   0  0  0  0  0  0  0  0  0  0  0  0
  -47.9860   57.8292   58.0712 C   0  0  0  0  0  0  0  0  0  0  0  0
  -46.7855   57.7897   57.1477 C   0  0  0  0  0  0  0  0  0  0  0  0
  -33.6089   57.4623   62.4109 O   0  0  0  0  0  0  0  0  0  0  0  0
  -34.5669   58.5238   62.4554 C   0  0  0  0  0  0  0  0  0  0  0  0
  -34.0071   56.6849   61.9890 H   0  0  0  0  0  0  0  0  0  0  0  0
  -33.9855   59.7436   63.1020 C   0  0  0  0  0  0  0  0  0  0  0  0
  -32.9740   60.4436   62.6279 C   0  0  0  0  0  0  0  0  0  0  0  0
  -32.4262   61.6657   63.2891 C   0  0  0  0  0  0  0  0  0  0  0  0
  -31.0901   62.0760   62.6665 C   0  0  0  0  0  0  0  0  0  0  0  0
  -31.2114   63.1018   61.5513 C   0  0  0  0  0  0  0  0  0  0  0  0
  -30.9281   64.5304   61.9830 C   0  0  0  0  0  0  0  0  0  0  0  0
  -31.5117   64.8938   63.3405 C   0  0  0  0  0  0  0  0  0  0  0  0
  -32.4896   66.0577   63.2933 C   0  0  0  0  0  0  0  0  0  0  0  0
  -33.6327   65.8571   62.3138 C   0  0  0  0  0  0  0  0  0  0  0  0
  -34.9311   65.4133   62.9615 C   0  0  0  0  0  0  0  0  0  0  0  0
  -35.2945   63.9650   62.6825 C   0  0  0  0  0  0  0  0  0  0  0  0
  -35.6880   63.2005   63.9328 C   0  0  0  0  0  0  0  0  0  0  0  0
  -35.4468   63.9518   65.2281 C   0  0  0  0  0  0  0  0  0  0  0  0
  -34.4159   63.2755   66.1104 C   0  0  0  0  0  0  0  0  0  0  0  0
  -34.5397   61.7659   66.0951 C   0  0  0  0  0  0  0  0  0  0  0  0
  -36.7672   57.2840   62.2902 C   0  0  0  0  0  0  0  0  0  0  0  0
  -37.6718   58.2279   61.7060 O   0  0  0  0  0  0  0  0  0  0  0  0
  -39.0947   60.5822   62.2287 O   0  0  0  0  0  0  0  0  0  0  0  0
  -41.9533   57.9460   60.3844 O   0  0  0  0  0  0  0  0  0  0  0  0
  -39.6233   56.9972   61.7801 O   0  0  0  0  0  0  0  0  0  0  0  0
  -38.9709   58.1741   62.2193 C   0  0  0  0  0  0  0  0  0  0  0  0
  -39.7219   59.4064   61.7323 C   0  0  0  0  0  0  0  0  0  0  0  0
  -41.1717   59.3463   62.1964 C   0  0  0  0  0  0  0  0  0  0  0  0
  -41.8183   58.0272   61.7996 C   0  0  0  0  0  0  0  0  0  0  0  0
  -40.9587   56.8660   62.2930 C   0  0  0  0  0  0  0  0  0  0  0  0
  -38.1733   60.6092   61.9270 H   0  0  0  0  0  0  0  0  0  0  0  0
  -42.4993   58.6831   60.0689 H   0  0  0  0  0  0  0  0  0  0  0  0
  -41.1971   54.5072   62.8110 O   0  0  0  0  0  0  0  0  0  0  0  0
  -41.4689   55.5163   61.8451 C   0  0  0  0  0  0  0  0  0  0  0  0
  -41.5366   53.6559   62.4933 H   0  0  0  0  0  0  0  0  0  0  0  0
  -41.8314   60.4447   61.4910 O   0  0  0  0  0  0  0  0  0  0  0  0
  -43.5348   60.7688   63.1644 O   0  0  0  0  0  0  0  0  0  0  0  0
  -43.0304   62.5721   61.4884 O   0  0  0  0  0  0  0  0  0  0  0  0
  -41.5208   62.0319   63.2393 O   0  0  0  0  0  0  0  0  0  0  0  0
  -42.6521   61.5076   62.3398 S   0  0  0  0  0  0  0  0  0  0  0  0
  -44.2643   60.4214   62.6276 H   0  0  0  0  0  0  0  0  0  0  0  0
  -41.2328   61.3272   63.8405 H   0  0  0  0  0  0  0  0  0  0  0  0
  2  1  1  0  0  0
  2  4  1  0  0  0
  2  5  1  0  0  0
 47 48  1  0  0  0
 47  1  1  0  0  0
 48 52  1  0  0  0
  1 30  1  0  0  0
 29 30  1  0  0  0
 29 31  1  0  0  0
 30 32  1  0  0  0
  3  4  2  0  0  0
 32 33  2  0  0  0
 49 53  1  0  0  0
 49 57  1  0  0  0
 33 34  1  0  0  0
 62 54  1  0  0  0
 62 66  1  0  0  0
 34 35  1  0  0  0
 50 55  1  0  0  0
 50 58  1  0  0  0
 35 36  1  0  0  0
 51 52  1  0  0  0
 51 56  1  0  0  0
 36 37  1  0  0  0
 59 60  1  0  0  0
 59 61  1  0  0  0
 37 38  1  0  0  0
 63 66  1  0  0  0
 63 67  1  0  0  0
 38 39  1  0  0  0
 64 66  1  0  0  0
 39 40  1  0  0  0
 65 66  1  0  0  0
 65 68  1  0  0  0
 40 41  1  0  0  0
 41 42  1  0  0  0
 42 43  1  0  0  0
 43 44  1  0  0  0
 44 45  1  0  0  0
 45 46  1  0  0  0
  4  6  1  0  0  0
  6  7  1  0  0  0
  7  8  1  0  0  0
  8  9  1  0  0  0
  9 10  1  0  0  0
 10 11  1  0  0  0
 11 12  1  0  0  0
 12 13  1  0  0  0
 13 14  1  0  0  0
 14 15  1  0  0  0
 15 16  1  0  0  0
 16 17  1  0  0  0
 17 18  1  0  0  0
 18 19  1  0  0  0
 19 20  2  0  0  0
 20 21  1  0  0  0
 21 22  1  0  0  0
 22 23  1  0  0  0
 23 24  1  0  0  0
 24 25  1  0  0  0
 25 26  1  0  0  0
 26 27  1  0  0  0
 27 28  1  0  0  0
 52 53  1  0  0  0
 53 54  1  0  0  0
 54 55  1  0  0  0
 55 56  1  0  0  0
 56 60  1  0  0  0
M  CHG 1  64  -1
M  END
> <minimizedAffinity>
-8.60795

> <CNNscore>
0.0945967808

> <CNNaffinity>
7.0682044029

> <CNN_VS>
0.6686294079

> <CNNaffinity_variance>
2.1132540703

$$$$
/media/chris/experiments/cd1a-new-docking/inputs/ligands/7ryn_ligand.pdb


 68 68  0  0  0  0  0  0  0  0999 V2000
  -34.8666   59.6121   63.3195 C   0  0  0  0  0  0  0  0  0  0  0  0
  -36.0321   59.8033   64.1775 N   0  0  0  0  0  0  0  0  0  0  0  0
  -36.6748   61.7595   63.2673 O   0  0  0  0  0  0  0  0  0  0  0  0
  -36.8441   60.8599   64.0853 C   0  0  0  0  0  0  0  0  0  0  0  0
  -36.2293   59.1196   64.8579 H   0  0  0  0  0  0  0  0  0  0  0  0
  -38.0013   60.8797   65.0526 C   0  0  0  0  0  0  0  0  0  0  0  0
  -38.3562   59.4911   65.5685 C   0  0  0  0  0  0  0  0  0  0  0  0
  -39.5498   59.5023   66.5099 C   0  0  0  0  0  0  0  0  0  0  0  0
  -40.7840   60.1748   65.9320 C   0  0  0  0  0  0  0  0  0  0  0  0
  -42.0940   59.5376   66.3706 C   0  0  0  0  0  0  0  0  0  0  0  0
  -42.1396   58.0258   66.1882 C   0  0  0  0  0  0  0  0  0  0  0  0
  -43.5461   57.4674   66.0151 C   0  0  0  0  0  0  0  0  0  0  0  0
  -44.6643   58.4600   66.3224 C   0  0  0  0  0  0  0  0  0  0  0  0
  -45.8454   57.8523   67.0773 C   0  0  0  0  0  0  0  0  0  0  0  0
  -46.8716   57.1452   66.1923 C   0  0  0  0  0  0  0  0  0  0  0  0
  -48.2216   57.8603   66.1345 C   0  0  0  0  0  0  0  0  0  0  0  0
  -48.1433   59.3839   66.0375 C   0  0  0  0  0  0  0  0  0  0  0  0
  -47.9155   59.9294   64.6251 C   0  0  0  0  0  0  0  0  0  0  0  0
  -48.9746   60.9042   64.1985 C   0  0  0  0  0  0  0  0  0  0  0  0
  -50.2338   60.6142   63.9226 C   0  0  0  0  0  0  0  0  0  0  0  0
  -50.8589   59.2534   63.9827 C   0  0  0  0  0  0  0  0  0  0  0  0
  -50.9166   58.5432   62.6285 C   0  0  0  0  0  0  0  0  0  0  0  0
  -49.5806   57.9490   62.2028 C   0  0  0  0  0  0  0  0  0  0  0  0
  -49.1804   58.3186   60.7789 C   0  0  0  0  0  0  0  0  0  0  0  0
  -49.6704   57.3453   59.7128 C   0  0  0  0  0  0  0  0  0  0  0  0
  -49.0021   57.5329   58.3581 C   0  0  0  0  0  0  0  0  0  0  0  0
  -47.5045   57.2708   58.3614 C   0  0  0  0  0  0  0  0  0  0  0  0
  -46.8020   57.8508   57.1507 C   0  0  0  0  0  0  0  0  0  0  0  0
  -33.8436   58.0591   61.7779 O   0  0  0  0  0  0  0  0  0  0  0  0
  -34.8710   58.1780   62.7661 C   0  0  0  0  0  0  0  0  0  0  0  0
  -32.9890   58.2985   62.1695 H   0  0  0  0  0  0  0  0  0  0  0  0
  -36.2079   57.8153   62.1956 C   0  0  0  0  0  0  0  0  0  0  0  0
  -37.1737   57.2071   62.8553 C   0  0  0  0  0  0  0  0  0  0  0  0
  -38.5028   56.8720   62.2619 C   0  0  0  0  0  0  0  0  0  0  0  0
  -39.6399   57.2360   63.2188 C   0  0  0  0  0  0  0  0  0  0  0  0
  -40.8981   56.4027   63.0367 C   0  0  0  0  0  0  0  0  0  0  0  0
  -41.3709   56.2915   61.5973 C   0  0  0  0  0  0  0  0  0  0  0  0
  -41.9490   57.5817   61.0345 C   0  0  0  0  0  0  0  0  0  0  0  0
  -41.3821   57.9636   59.6758 C   0  0  0  0  0  0  0  0  0  0  0  0
  -39.9850   58.5554   59.7401 C   0  0  0  0  0  0  0  0  0  0  0  0
  -39.9439   59.9915   60.2284 C   0  0  0  0  0  0  0  0  0  0  0  0
  -39.5144   60.1365   61.6783 C   0  0  0  0  0  0  0  0  0  0  0  0
  -40.4845   60.9599   62.5050 C   0  0  0  0  0  0  0  0  0  0  0  0
  -41.9337   60.5296   62.3823 C   0  0  0  0  0  0  0  0  0  0  0  0
  -42.8558   61.6815   62.0337 C   0  0  0  0  0  0  0  0  0  0  0  0
  -42.7653   62.8191   63.0297 C   0  0  0  0  0  0  0  0  0  0  0  0
  -33.5988   59.9209   64.0888 C   0  0  0  0  0  0  0  0  0  0  0  0
  -33.0491   61.1414   63.5801 O   0  0  0  0  0  0  0  0  0  0  0  0
  -32.3422   63.7119   62.7236 O   0  0  0  0  0  0  0  0  0  0  0  0
  -36.0826   64.2222   64.7905 O   0  0  0  0  0  0  0  0  0  0  0  0
  -34.2950   62.0283   65.3092 O   0  0  0  0  0  0  0  0  0  0  0  0
  -33.2085   62.2418   64.4274 C   0  0  0  0  0  0  0  0  0  0  0  0
  -33.4642   63.4695   63.5630 C   0  0  0  0  0  0  0  0  0  0  0  0
  -33.7313   64.6799   64.4487 C   0  0  0  0  0  0  0  0  0  0  0  0
  -34.8343   64.3879   65.4553 C   0  0  0  0  0  0  0  0  0  0  0  0
  -34.4996   63.1140   66.2274 C   0  0  0  0  0  0  0  0  0  0  0  0
  -32.1824   62.9351   62.1652 H   0  0  0  0  0  0  0  0  0  0  0  0
  -36.2970   65.0306   64.2993 H   0  0  0  0  0  0  0  0  0  0  0  0
  -36.2650   63.8071   67.7413 O   0  0  0  0  0  0  0  0  0  0  0  0
  -35.5974   62.6862   67.1731 C   0  0  0  0  0  0  0  0  0  0  0  0
  -36.9616   63.4983   68.3416 H   0  0  0  0  0  0  0  0  0  0  0  0
  -34.1773   65.7226   63.5250 O   0  0  0  0  0  0  0  0  0  0  0  0
  -35.3106   64.0588   62.2005 O   0  0  0  0  0  0  0  0  0  0  0  0
  -33.5788   65.5556   61.1634 O   0  0  0  0  0  0  0  0  0  0  0  0
  -35.7087   66.3728   61.8209 O   0  0  0  0  0  0  0  0  0  0  0  0
  -34.6375   65.2972   62.0652 S   0  0  0  0  0  0  0  0  0  0  0  0
  -34.6626   63.3540   62.3565 H   0  0  0  0  0  0  0  0  0  0  0  0
  -36.4550   66.2287   62.4236 H   0  0  0  0  0  0  0  0  0  0  0  0
  2  1  1  0  0  0
  2  4  1  0  0  0
  2  5  1  0  0  0
 47 48  1  0  0  0
 47  1  1  0  0  0
 48 52  1  0  0  0
  1 30  1  0  0  0
 29 30  1  0  0  0
 29 31  1  0  0  0
 30 32  1  0  0  0
  3  4  2  0  0  0
 32 33  2  0  0  0
 49 53  1  0  0  0
 49 57  1  0  0  0
 33 34  1  0  0  0
 62 54  1  0  0  0
 62 66  1  0  0  0
 34 35  1  0  0  0
 50 55  1  0  0  0
 50 58  1  0  0  0
 35 36  1  0  0  0
 51 52  1  0  0  0
 51 56  1  0  0  0
 36 37  1  0  0  0
 59 60  1  0  0  0
 59 61  1  0  0  0
 37 38  1  0  0  0
 63 66  1  0  0  0
 63 67  1  0  0  0
 38 39  1  0  0  0
 64 66  1  0  0  0
 39 40  1  0  0  0
 65 66  1  0  0  0
 65 68  1  0  0  0
 40 41  1  0  0  0
 41 42  1  0  0  0
 42 43  1  0  0  0
 43 44  1  0  0  0
 44 45  1  0  0  0
 45 46  1  0  0  0
  4  6  1  0  0  0
  6  7  1  0  0  0
  7  8  1  0  0  0
  8  9  1  0  0  0
  9 10  1  0  0  0
 10 11  1  0  0  0
 11 12  1  0  0  0
 12 13  1  0  0  0
 13 14  1  0  0  0
 14 15  1  0  0  0
 15 16  1  0  0  0
 16 17  1  0  0  0
 17 18  1  0  0  0
 18 19  1  0  0  0
 19 20  2  0  0  0
 20 21  1  0  0  0
 21 22  1  0  0  0
 22 23  1  0  0  0
 23 24  1  0  0  0
 24 25  1  0  0  0
 25 26  1  0  0  0
 26 27  1  0  0  0
 27 28  1  0  0  0
 52 53  1  0  0  0
 53 54  1  0  0  0
 54 55  1  0  0  0
 55 56  1  0  0  0
 56 60  1  0  0  0
M  CHG 1  64  -1
M  END
> <minimizedAffinity>
-9.10668

> <CNNscore>
0.0889446065

> <CNNaffinity>
7.3144712448

> <CNN_VS>
0.6505827904

> <CNNaffinity_variance>
2.0899903774

$$$$
/media/chris/experiments/cd1a-new-docking/inputs/ligands/7ryn_ligand.pdb


 68 68  0  0  0  0  0  0  0  0999 V2000
  -38.1348   60.2739   61.2311 C   0  0  0  0  0  0  0  0  0  0  0  0
  -39.5200   60.1306   60.7931 N   0  0  0  0  0  0  0  0  0  0  0  0
  -39.1282   58.4803   59.3129 O   0  0  0  0  0  0  0  0  0  0  0  0
  -39.9086   59.2469   59.8699 C   0  0  0  0  0  0  0  0  0  0  0  0
  -40.2016   60.7142   61.1982 H   0  0  0  0  0  0  0  0  0  0  0  0
  -41.3833   59.2404   59.5529 C   0  0  0  0  0  0  0  0  0  0  0  0
  -42.2037   58.5011   60.6021 C   0  0  0  0  0  0  0  0  0  0  0  0
  -41.7919   57.0452   60.7498 C   0  0  0  0  0  0  0  0  0  0  0  0
  -41.0839   56.7348   62.0581 C   0  0  0  0  0  0  0  0  0  0  0  0
  -41.8543   55.7865   62.9647 C   0  0  0  0  0  0  0  0  0  0  0  0
  -41.4840   55.8997   64.4380 C   0  0  0  0  0  0  0  0  0  0  0  0
  -42.5099   56.6517   65.2760 C   0  0  0  0  0  0  0  0  0  0  0  0
  -43.8839   56.7866   64.6247 C   0  0  0  0  0  0  0  0  0  0  0  0
  -44.3411   58.2313   64.4306 C   0  0  0  0  0  0  0  0  0  0  0  0
  -45.7000   58.5583   65.0496 C   0  0  0  0  0  0  0  0  0  0  0  0
  -46.0262   57.7154   66.2826 C   0  0  0  0  0  0  0  0  0  0  0  0
  -47.4468   57.8807   66.8222 C   0  0  0  0  0  0  0  0  0  0  0  0
  -48.1748   59.1410   66.3469 C   0  0  0  0  0  0  0  0  0  0  0  0
  -49.5478   58.8546   65.8113 C   0  0  0  0  0  0  0  0  0  0  0  0
  -49.8822   58.7612   64.5364 C   0  0  0  0  0  0  0  0  0  0  0  0
  -48.9570   58.9199   63.3681 C   0  0  0  0  0  0  0  0  0  0  0  0
  -49.6680   59.3036   62.0687 C   0  0  0  0  0  0  0  0  0  0  0  0
  -50.6751   58.2605   61.6027 C   0  0  0  0  0  0  0  0  0  0  0  0
  -50.3267   57.6441   60.2526 C   0  0  0  0  0  0  0  0  0  0  0  0
  -48.9670   58.0585   59.7015 C   0  0  0  0  0  0  0  0  0  0  0  0
  -48.0250   56.8893   59.4513 C   0  0  0  0  0  0  0  0  0  0  0  0
  -47.0435   57.1138   58.3120 C   0  0  0  0  0  0  0  0  0  0  0  0
  -47.7211   57.5429   57.0265 C   0  0  0  0  0  0  0  0  0  0  0  0
  -37.4237   58.0007   61.6335 O   0  0  0  0  0  0  0  0  0  0  0  0
  -37.8229   59.2063   62.2921 C   0  0  0  0  0  0  0  0  0  0  0  0
  -36.6622   58.1821   61.0607 H   0  0  0  0  0  0  0  0  0  0  0  0
  -38.9992   58.9637   63.1873 C   0  0  0  0  0  0  0  0  0  0  0  0
  -39.8712   59.8802   63.5583 C   0  0  0  0  0  0  0  0  0  0  0  0
  -41.0438   59.6033   64.4410 C   0  0  0  0  0  0  0  0  0  0  0  0
  -40.5990   59.3477   65.8825 C   0  0  0  0  0  0  0  0  0  0  0  0
  -39.3818   60.1514   66.3106 C   0  0  0  0  0  0  0  0  0  0  0  0
  -38.0948   59.3473   66.3792 C   0  0  0  0  0  0  0  0  0  0  0  0
  -38.2150   57.9381   65.8176 C   0  0  0  0  0  0  0  0  0  0  0  0
  -36.9363   57.4264   65.1724 C   0  0  0  0  0  0  0  0  0  0  0  0
  -35.9295   58.5193   64.8588 C   0  0  0  0  0  0  0  0  0  0  0  0
  -34.5538   58.0025   64.4810 C   0  0  0  0  0  0  0  0  0  0  0  0
  -34.1804   58.2508   63.0296 C   0  0  0  0  0  0  0  0  0  0  0  0
  -32.7174   57.9737   62.7375 C   0  0  0  0  0  0  0  0  0  0  0  0
  -31.8097   59.1796   62.8867 C   0  0  0  0  0  0  0  0  0  0  0  0
  -32.4440   60.4541   62.3653 C   0  0  0  0  0  0  0  0  0  0  0  0
  -31.4588   61.3286   61.6175 C   0  0  0  0  0  0  0  0  0  0  0  0
  -37.8963   61.6772   61.7491 C   0  0  0  0  0  0  0  0  0  0  0  0
  -36.8398   61.6275   62.7145 O   0  0  0  0  0  0  0  0  0  0  0  0
  -36.4827   62.1584   65.4406 O   0  0  0  0  0  0  0  0  0  0  0  0
  -33.0568   63.9100   63.5125 O   0  0  0  0  0  0  0  0  0  0  0  0
  -35.5559   63.4637   62.1587 O   0  0  0  0  0  0  0  0  0  0  0  0
  -36.3910   62.8806   63.1417 C   0  0  0  0  0  0  0  0  0  0  0  0
  -35.6204   62.6876   64.4413 C   0  0  0  0  0  0  0  0  0  0  0  0
  -35.0365   64.0181   64.8995 C   0  0  0  0  0  0  0  0  0  0  0  0
  -34.2278   64.6717   63.7886 C   0  0  0  0  0  0  0  0  0  0  0  0
  -35.0781   64.7681   62.5243 C   0  0  0  0  0  0  0  0  0  0  0  0
  -36.8478   61.3124   65.1376 H   0  0  0  0  0  0  0  0  0  0  0  0
  -32.5151   63.8476   64.3147 H   0  0  0  0  0  0  0  0  0  0  0  0
  -33.4040   64.3409   60.8202 O   0  0  0  0  0  0  0  0  0  0  0  0
  -34.3162   65.3042   61.3349 C   0  0  0  0  0  0  0  0  0  0  0  0
  -32.9327   64.7159   60.0599 H   0  0  0  0  0  0  0  0  0  0  0  0
  -34.1492   63.6697   66.0088 O   0  0  0  0  0  0  0  0  0  0  0  0
  -33.9918   62.8873   68.2826 O   0  0  0  0  0  0  0  0  0  0  0  0
  -36.0961   63.9799   67.4498 O   0  0  0  0  0  0  0  0  0  0  0  0
  -34.1038   65.2174   67.8185 O   0  0  0  0  0  0  0  0  0  0  0  0
  -34.6898   63.8335   67.4937 S   0  0  0  0  0  0  0  0  0  0  0  0
  -34.3369   61.9988   68.1026 H   0  0  0  0  0  0  0  0  0  0  0  0
  -33.1364   65.1578   67.8573 H   0  0  0  0  0  0  0  0  0  0  0  0
  2  1  1  0  0  0
  2  4  1  0  0  0
  2  5  1  0  0  0
 47 48  1  0  0  0
 47  1  1  0  0  0
 48 52  1  0  0  0
  1 30  1  0  0  0
 29 30  1  0  0  0
 29 31  1  0  0  0
 30 32  1  0  0  0
  3  4  2  0  0  0
 32 33  2  0  0  0
 49 53  1  0  0  0
 49 57  1  0  0  0
 33 34  1  0  0  0
 62 54  1  0  0  0
 62 66  1  0  0  0
 34 35  1  0  0  0
 50 55  1  0  0  0
 50 58  1  0  0  0
 35 36  1  0  0  0
 51 52  1  0  0  0
 51 56  1  0  0  0
 36 37  1  0  0  0
 59 60  1  0  0  0
 59 61  1  0  0  0
 37 38  1  0  0  0
 63 66  1  0  0  0
 63 67  1  0  0  0
 38 39  1  0  0  0
 64 66  1  0  0  0
 39 40  1  0  0  0
 65 66  1  0  0  0
 65 68  1  0  0  0
 40 41  1  0  0  0
 41 42  1  0  0  0
 42 43  1  0  0  0
 43 44  1  0  0  0
 44 45  1  0  0  0
 45 46  1  0  0  0
  4  6  1  0  0  0
  6  7  1  0  0  0
  7  8  1  0  0  0
  8  9  1  0  0  0
  9 10  1  0  0  0
 10 11  1  0  0  0
 11 12  1  0  0  0
 12 13  1  0  0  0
 13 14  1  0  0  0
 14 15  1  0  0  0
 15 16  1  0  0  0
 16 17  1  0  0  0
 17 18  1  0  0  0
 18 19  1  0  0  0
 19 20  2  0  0  0
 20 21  1  0  0  0
 21 22  1  0  0  0
 22 23  1  0  0  0
 23 24  1  0  0  0
 24 25  1  0  0  0
 25 26  1  0  0  0
 26 27  1  0  0  0
 27 28  1  0  0  0
 52 53  1  0  0  0
 53 54  1  0  0  0
 54 55  1  0  0  0
 55 56  1  0  0  0
 56 60  1  0  0  0
M  CHG 1  64  -1
M  END
> <minimizedAffinity>
-7.25136

> <CNNscore>
0.0773837492

> <CNNaffinity>
7.3333282471

> <CNN_VS>
0.5674804449

> <CNNaffinity_variance>
0.8539153337

$$$$
/media/chris/experiments/cd1a-new-docking/inputs/ligands/7ryn_ligand.pdb


 68 68  0  0  0  0  0  0  0  0999 V2000
  -38.3773   58.7868   62.3778 C   0  0  0  0  0  0  0  0  0  0  0  0
  -39.6742   59.1550   61.8177 N   0  0  0  0  0  0  0  0  0  0  0  0
  -39.6204   61.3017   62.4933 O   0  0  0  0  0  0  0  0  0  0  0  0
  -40.1942   60.3812   61.9186 C   0  0  0  0  0  0  0  0  0  0  0  0
  -40.1912   58.4652   61.3420 H   0  0  0  0  0  0  0  0  0  0  0  0
  -41.5424   60.5735   61.2700 C   0  0  0  0  0  0  0  0  0  0  0  0
  -42.6543   60.7961   62.2872 C   0  0  0  0  0  0  0  0  0  0  0  0
  -42.6211   59.7862   63.4230 C   0  0  0  0  0  0  0  0  0  0  0  0
  -43.9087   58.9949   63.5817 C   0  0  0  0  0  0  0  0  0  0  0  0
  -43.7235   57.6498   64.2682 C   0  0  0  0  0  0  0  0  0  0  0  0
  -44.6616   57.4210   65.4465 C   0  0  0  0  0  0  0  0  0  0  0  0
  -45.0348   58.6945   66.1944 C   0  0  0  0  0  0  0  0  0  0  0  0
  -46.4630   58.7178   66.7327 C   0  0  0  0  0  0  0  0  0  0  0  0
  -46.9291   57.3855   67.3177 C   0  0  0  0  0  0  0  0  0  0  0  0
  -47.9139   56.6137   66.4396 C   0  0  0  0  0  0  0  0  0  0  0  0
  -48.6594   57.4971   65.4391 C   0  0  0  0  0  0  0  0  0  0  0  0
  -50.0080   58.0286   65.9244 C   0  0  0  0  0  0  0  0  0  0  0  0
  -50.1511   59.5526   65.8893 C   0  0  0  0  0  0  0  0  0  0  0  0
  -49.4066   60.1822   64.7477 C   0  0  0  0  0  0  0  0  0  0  0  0
  -49.8030   60.2230   63.4879 C   0  0  0  0  0  0  0  0  0  0  0  0
  -51.0777   59.6510   62.9456 C   0  0  0  0  0  0  0  0  0  0  0  0
  -50.8967   58.3042   62.2421 C   0  0  0  0  0  0  0  0  0  0  0  0
  -49.7744   58.3087   61.2127 C   0  0  0  0  0  0  0  0  0  0  0  0
  -50.0124   57.3468   60.0541 C   0  0  0  0  0  0  0  0  0  0  0  0
  -48.8697   56.3705   59.7993 C   0  0  0  0  0  0  0  0  0  0  0  0
  -47.5901   57.0378   59.3149 C   0  0  0  0  0  0  0  0  0  0  0  0
  -47.7987   58.0432   58.1936 C   0  0  0  0  0  0  0  0  0  0  0  0
  -47.3724   57.5130   56.8397 C   0  0  0  0  0  0  0  0  0  0  0  0
  -37.9043   58.3658   60.0467 O   0  0  0  0  0  0  0  0  0  0  0  0
  -37.3145   58.8215   61.2677 C   0  0  0  0  0  0  0  0  0  0  0  0
  -38.6745   58.9161   59.8345 H   0  0  0  0  0  0  0  0  0  0  0  0
  -36.1195   57.9930   61.6275 C   0  0  0  0  0  0  0  0  0  0  0  0
  -34.9714   58.4693   62.0668 C   0  0  0  0  0  0  0  0  0  0  0  0
  -33.8019   57.6149   62.4319 C   0  0  0  0  0  0  0  0  0  0  0  0
  -32.6666   58.4574   63.0171 C   0  0  0  0  0  0  0  0  0  0  0  0
  -32.1211   59.5125   62.0685 C   0  0  0  0  0  0  0  0  0  0  0  0
  -31.8126   60.8459   62.7279 C   0  0  0  0  0  0  0  0  0  0  0  0
  -32.8189   61.9417   62.4083 C   0  0  0  0  0  0  0  0  0  0  0  0
  -32.2435   63.0746   61.5725 C   0  0  0  0  0  0  0  0  0  0  0  0
  -33.1854   64.2547   61.4102 C   0  0  0  0  0  0  0  0  0  0  0  0
  -32.4941   65.5490   61.0241 C   0  0  0  0  0  0  0  0  0  0  0  0
  -32.3786   66.5484   62.1622 C   0  0  0  0  0  0  0  0  0  0  0  0
  -33.1769   66.1463   63.3884 C   0  0  0  0  0  0  0  0  0  0  0  0
  -32.3868   66.1620   64.6829 C   0  0  0  0  0  0  0  0  0  0  0  0
  -31.4954   64.9451   64.8361 C   0  0  0  0  0  0  0  0  0  0  0  0
  -32.2098   63.7815   65.4919 C   0  0  0  0  0  0  0  0  0  0  0  0
  -38.4642   57.4271   63.0395 C   0  0  0  0  0  0  0  0  0  0  0  0
  -37.5576   57.4066   64.1478 O   0  0  0  0  0  0  0  0  0  0  0  0
  -35.9968   59.5773   64.9800 O   0  0  0  0  0  0  0  0  0  0  0  0
  -40.0537   61.0054   65.1354 O   0  0  0  0  0  0  0  0  0  0  0  0
  -39.3679   58.2180   65.3282 O   0  0  0  0  0  0  0  0  0  0  0  0
  -37.9558   58.1941   65.2319 C   0  0  0  0  0  0  0  0  0  0  0  0
  -37.4182   59.6025   65.0144 C   0  0  0  0  0  0  0  0  0  0  0  0
  -37.9023   60.5196   66.1305 C   0  0  0  0  0  0  0  0  0  0  0  0
  -39.4149   60.4479   66.2794 C   0  0  0  0  0  0  0  0  0  0  0  0
  -39.8457   58.9921   66.4399 C   0  0  0  0  0  0  0  0  0  0  0  0
  -35.7010   58.9908   64.2663 H   0  0  0  0  0  0  0  0  0  0  0  0
  -39.7812   61.9306   65.0317 H   0  0  0  0  0  0  0  0  0  0  0  0
  -41.9914   59.9644   67.0230 O   0  0  0  0  0  0  0  0  0  0  0  0
  -41.3458   58.8172   66.4823 C   0  0  0  0  0  0  0  0  0  0  0  0
  -42.9504   59.8195   67.0359 H   0  0  0  0  0  0  0  0  0  0  0  0
  -37.5177   61.8629   65.6979 O   0  0  0  0  0  0  0  0  0  0  0  0
  -36.8242   64.0074   66.5505 O   0  0  0  0  0  0  0  0  0  0  0  0
  -35.1435   62.1773   66.1747 O   0  0  0  0  0  0  0  0  0  0  0  0
  -36.7321   62.0763   67.9360 O   0  0  0  0  0  0  0  0  0  0  0  0
  -36.4255   62.6488   66.5424 S   0  0  0  0  0  0  0  0  0  0  0  0
  -36.6446   64.4023   65.6829 H   0  0  0  0  0  0  0  0  0  0  0  0
  -37.6076   62.3788   68.2243 H   0  0  0  0  0  0  0  0  0  0  0  0
  2  1  1  0  0  0
  2  4  1  0  0  0
  2  5  1  0  0  0
 47 48  1  0  0  0
 47  1  1  0  0  0
 48 52  1  0  0  0
  1 30  1  0  0  0
 29 30  1  0  0  0
 29 31  1  0  0  0
 30 32  1  0  0  0
  3  4  2  0  0  0
 32 33  2  0  0  0
 49 53  1  0  0  0
 49 57  1  0  0  0
 33 34  1  0  0  0
 62 54  1  0  0  0
 62 66  1  0  0  0
 34 35  1  0  0  0
 50 55  1  0  0  0
 50 58  1  0  0  0
 35 36  1  0  0  0
 51 52  1  0  0  0
 51 56  1  0  0  0
 36 37  1  0  0  0
 59 60  1  0  0  0
 59 61  1  0  0  0
 37 38  1  0  0  0
 63 66  1  0  0  0
 63 67  1  0  0  0
 38 39  1  0  0  0
 64 66  1  0  0  0
 39 40  1  0  0  0
 65 66  1  0  0  0
 65 68  1  0  0  0
 40 41  1  0  0  0
 41 42  1  0  0  0
 42 43  1  0  0  0
 43 44  1  0  0  0
 44 45  1  0  0  0
 45 46  1  0  0  0
  4  6  1  0  0  0
  6  7  1  0  0  0
  7  8  1  0  0  0
  8  9  1  0  0  0
  9 10  1  0  0  0
 10 11  1  0  0  0
 11 12  1  0  0  0
 12 13  1  0  0  0
 13 14  1  0  0  0
 14 15  1  0  0  0
 15 16  1  0  0  0
 16 17  1  0  0  0
 17 18  1  0  0  0
 18 19  1  0  0  0
 19 20  2  0  0  0
 20 21  1  0  0  0
 21 22  1  0  0  0
 22 23  1  0  0  0
 23 24  1  0  0  0
 24 25  1  0  0  0
 25 26  1  0  0  0
 26 27  1  0  0  0
 27 28  1  0  0  0
 52 53  1  0  0  0
 53 54  1  0  0  0
 54 55  1  0  0  0
 55 56  1  0  0  0
 56 60  1  0  0  0
M  CHG 1  64  -1
M  END
> <minimizedAffinity>
-8.55576

> <CNNscore>
0.0732403547

> <CNNaffinity>
7.1242575645

> <CNN_VS>
0.5217831731

> <CNNaffinity_variance>
0.9341220856

$$$$
