/media/chris/experiments/cd1a-new-docking/inputs/ligands/7ryn_ligand.pdb


 68 68  0  0  0  0  0  0  0  0999 V2000
  -37.2981   61.0559   64.0447 C   0  0  0  0  0  0  0  0  0  0  0  0
  -38.3957   60.1811   64.4462 N   0  0  0  0  0  0  0  0  0  0  0  0
  -38.5998   61.0034   66.5319 O   0  0  0  0  0  0  0  0  0  0  0  0
  -38.9604   60.2224   65.6560 C   0  0  0  0  0  0  0  0  0  0  0  0
  -38.7366   59.5282   63.7929 H   0  0  0  0  0  0  0  0  0  0  0  0
  -40.0870   59.2457   65.8839 C   0  0  0  0  0  0  0  0  0  0  0  0
  -41.4588   59.8812   65.6976 C   0  0  0  0  0  0  0  0  0  0  0  0
  -42.5195   59.2597   66.5921 C   0  0  0  0  0  0  0  0  0  0  0  0
  -42.6207   57.7484   66.4691 C   0  0  0  0  0  0  0  0  0  0  0  0
  -43.4258   57.2816   65.2656 C   0  0  0  0  0  0  0  0  0  0  0  0
  -44.1617   58.4010   64.5403 C   0  0  0  0  0  0  0  0  0  0  0  0
  -45.6746   58.3576   64.7124 C   0  0  0  0  0  0  0  0  0  0  0  0
  -46.1644   58.7316   66.1090 C   0  0  0  0  0  0  0  0  0  0  0  0
  -46.5994   57.5369   66.9563 C   0  0  0  0  0  0  0  0  0  0  0  0
  -47.7251   56.7006   66.3482 C   0  0  0  0  0  0  0  0  0  0  0  0
  -48.6178   57.4873   65.3883 C   0  0  0  0  0  0  0  0  0  0  0  0
  -49.8893   58.0629   66.0117 C   0  0  0  0  0  0  0  0  0  0  0  0
  -50.0710   59.5721   65.8291 C   0  0  0  0  0  0  0  0  0  0  0  0
  -49.4411   60.0870   64.5672 C   0  0  0  0  0  0  0  0  0  0  0  0
  -49.9141   59.9352   63.3429 C   0  0  0  0  0  0  0  0  0  0  0  0
  -51.1769   59.2204   62.9678 C   0  0  0  0  0  0  0  0  0  0  0  0
  -50.9787   58.1412   61.9013 C   0  0  0  0  0  0  0  0  0  0  0  0
  -49.7007   58.3211   61.0929 C   0  0  0  0  0  0  0  0  0  0  0  0
  -49.6783   57.5028   59.8068 C   0  0  0  0  0  0  0  0  0  0  0  0
  -48.7702   56.2793   59.8527 C   0  0  0  0  0  0  0  0  0  0  0  0
  -47.5898   56.3557   58.8945 C   0  0  0  0  0  0  0  0  0  0  0  0
  -47.9235   56.9680   57.5435 C   0  0  0  0  0  0  0  0  0  0  0  0
  -46.9354   58.0359   57.1202 C   0  0  0  0  0  0  0  0  0  0  0  0
  -36.9769   62.5812   62.1995 O   0  0  0  0  0  0  0  0  0  0  0  0
  -37.3166   61.2285   62.5174 C   0  0  0  0  0  0  0  0  0  0  0  0
  -36.1119   62.7959   62.5825 H   0  0  0  0  0  0  0  0  0  0  0  0
  -38.6495   60.8611   61.9409 C   0  0  0  0  0  0  0  0  0  0  0  0
  -38.8322   60.1994   60.8154 C   0  0  0  0  0  0  0  0  0  0  0  0
  -40.1755   59.8347   60.2740 C   0  0  0  0  0  0  0  0  0  0  0  0
  -41.2902   60.2754   61.2249 C   0  0  0  0  0  0  0  0  0  0  0  0
  -41.9194   59.1402   62.0160 C   0  0  0  0  0  0  0  0  0  0  0  0
  -41.9023   57.7982   61.3042 C   0  0  0  0  0  0  0  0  0  0  0  0
  -41.3222   56.6638   62.1363 C   0  0  0  0  0  0  0  0  0  0  0  0
  -40.0931   57.0620   62.9389 C   0  0  0  0  0  0  0  0  0  0  0  0
  -38.7885   56.9086   62.1767 C   0  0  0  0  0  0  0  0  0  0  0  0
  -37.5648   57.3679   62.9473 C   0  0  0  0  0  0  0  0  0  0  0  0
  -36.3817   57.7285   62.0653 C   0  0  0  0  0  0  0  0  0  0  0  0
  -35.0436   57.4702   62.7325 C   0  0  0  0  0  0  0  0  0  0  0  0
  -33.8527   58.0484   61.9923 C   0  0  0  0  0  0  0  0  0  0  0  0
  -32.6034   58.1009   62.8495 C   0  0  0  0  0  0  0  0  0  0  0  0
  -32.9177   58.1968   64.3281 C   0  0  0  0  0  0  0  0  0  0  0  0
  -35.9801   60.4955   64.5378 C   0  0  0  0  0  0  0  0  0  0  0  0
  -34.9545   60.8770   63.6140 O   0  0  0  0  0  0  0  0  0  0  0  0
  -32.6838   61.5316   62.1119 O   0  0  0  0  0  0  0  0  0  0  0  0
  -33.6611   65.1264   64.2670 O   0  0  0  0  0  0  0  0  0  0  0  0
  -34.4336   62.5047   65.1655 O   0  0  0  0  0  0  0  0  0  0  0  0
  -33.9202   61.6280   64.1799 C   0  0  0  0  0  0  0  0  0  0  0  0
  -33.2494   62.4214   63.0662 C   0  0  0  0  0  0  0  0  0  0  0  0
  -32.1698   63.3233   63.6507 C   0  0  0  0  0  0  0  0  0  0  0  0
  -32.7258   64.1817   64.7773 C   0  0  0  0  0  0  0  0  0  0  0  0
  -33.4170   63.2915   65.8070 C   0  0  0  0  0  0  0  0  0  0  0  0
  -33.3801   60.9632   61.7473 H   0  0  0  0  0  0  0  0  0  0  0  0
  -33.2238   65.6932   63.6125 H   0  0  0  0  0  0  0  0  0  0  0  0
  -34.4000   63.2460   68.0252 O   0  0  0  0  0  0  0  0  0  0  0  0
  -34.0972   64.0723   66.9071 C   0  0  0  0  0  0  0  0  0  0  0  0
  -34.8345   63.7766   68.7111 H   0  0  0  0  0  0  0  0  0  0  0  0
  -31.7631   64.1817   62.5384 O   0  0  0  0  0  0  0  0  0  0  0  0
  -32.9665   66.1597   61.8705 O   0  0  0  0  0  0  0  0  0  0  0  0
  -33.9855   63.8820   61.5719 O   0  0  0  0  0  0  0  0  0  0  0  0
  -32.1710   64.6273   60.2346 O   0  0  0  0  0  0  0  0  0  0  0  0
  -32.8883   64.7746   61.5865 S   0  0  0  0  0  0  0  0  0  0  0  0
  -33.4154   66.2906   62.7204 H   0  0  0  0  0  0  0  0  0  0  0  0
  -31.4087   65.2265   60.2061 H   0  0  0  0  0  0  0  0  0  0  0  0
  2  1  1  0  0  0
  2  4  1  0  0  0
  2  5  1  0  0  0
 47 48  1  0  0  0
 47  1  1  0  0  0
 48 52  1  0  0  0
  1 30  1  0  0  0
 29 30  1  0  0  0
 29 31  1  0  0  0
 30 32  1  0  0  0
  3  4  2  0  0  0
 32 33  2  0  0  0
 49 53  1  0  0  0
 49 57  1  0  0  0
 33 34  1  0  0  0
 62 54  1  0  0  0
 62 66  1  0  0  0
 34 35  1  0  0  0
 50 55  1  0  0  0
 50 58  1  0  0  0
 35 36  1  0  0  0
 51 52  1  0  0  0
 51 56  1  0  0  0
 36 37  1  0  0  0
 59 60  1  0  0  0
 59 61  1  0  0  0
 37 38  1  0  0  0
 63 66  1  0  0  0
 63 67  1  0  0  0
 38 39  1  0  0  0
 64 66  1  0  0  0
 39 40  1  0  0  0
 65 66  1  0  0  0
 65 68  1  0  0  0
 40 41  1  0  0  0
 41 42  1  0  0  0
 42 43  1  0  0  0
 43 44  1  0  0  0
 44 45  1  0  0  0
 45 46  1  0  0  0
  4  6  1  0  0  0
  6  7  1  0  0  0
  7  8  1  0  0  0
  8  9  1  0  0  0
  9 10  1  0  0  0
 10 11  1  0  0  0
 11 12  1  0  0  0
 12 13  1  0  0  0
 13 14  1  0  0  0
 14 15  1  0  0  0
 15 16  1  0  0  0
 16 17  1  0  0  0
 17 18  1  0  0  0
 18 19  1  0  0  0
 19 20  2  0  0  0
 20 21  1  0  0  0
 21 22  1  0  0  0
 22 23  1  0  0  0
 23 24  1  0  0  0
 24 25  1  0  0  0
 25 26  1  0  0  0
 26 27  1  0  0  0
 27 28  1  0  0  0
 52 53  1  0  0  0
 53 54  1  0  0  0
 54 55  1  0  0  0
 55 56  1  0  0  0
 56 60  1  0  0  0
M  CHG 1  64  -1
M  END
> <minimizedAffinity>
-9.44417

> <CNNscore>
0.2193220556

> <CNNaffinity>
7.3854608536

> <CNN_VS>
1.6197944880

> <CNNaffinity_variance>
1.7349741459

$$$$
/media/chris/experiments/cd1a-new-docking/inputs/ligands/7ryn_ligand.pdb


 68 68  0  0  0  0  0  0  0  0999 V2000
  -40.8053   60.3538   63.3647 C   0  0  0  0  0  0  0  0  0  0  0  0
  -40.7962   59.6112   62.1078 N   0  0  0  0  0  0  0  0  0  0  0  0
  -41.7722   61.2233   60.8762 O   0  0  0  0  0  0  0  0  0  0  0  0
  -41.2792   60.1023   60.9634 C   0  0  0  0  0  0  0  0  0  0  0  0
  -40.4151   58.7035   62.1035 H   0  0  0  0  0  0  0  0  0  0  0  0
  -41.1755   59.1901   59.7666 C   0  0  0  0  0  0  0  0  0  0  0  0
  -39.8473   58.4464   59.7114 C   0  0  0  0  0  0  0  0  0  0  0  0
  -38.6501   59.3834   59.7086 C   0  0  0  0  0  0  0  0  0  0  0  0
  -37.3276   58.6944   60.0013 C   0  0  0  0  0  0  0  0  0  0  0  0
  -37.1222   58.3557   61.4701 C   0  0  0  0  0  0  0  0  0  0  0  0
  -35.8608   57.5483   61.7494 C   0  0  0  0  0  0  0  0  0  0  0  0
  -34.5710   58.3410   61.5810 C   0  0  0  0  0  0  0  0  0  0  0  0
  -33.3287   57.6574   62.1462 C   0  0  0  0  0  0  0  0  0  0  0  0
  -32.4859   58.5510   63.0548 C   0  0  0  0  0  0  0  0  0  0  0  0
  -33.2639   59.2254   64.1845 C   0  0  0  0  0  0  0  0  0  0  0  0
  -34.1743   58.2676   64.9533 C   0  0  0  0  0  0  0  0  0  0  0  0
  -35.6577   58.6363   64.9431 C   0  0  0  0  0  0  0  0  0  0  0  0
  -36.6185   57.4444   64.9262 C   0  0  0  0  0  0  0  0  0  0  0  0
  -38.0132   57.8137   65.3417 C   0  0  0  0  0  0  0  0  0  0  0  0
  -39.1218   57.5395   64.6772 C   0  0  0  0  0  0  0  0  0  0  0  0
  -39.2101   56.8018   63.3756 C   0  0  0  0  0  0  0  0  0  0  0  0
  -40.6141   56.7950   62.7670 C   0  0  0  0  0  0  0  0  0  0  0  0
  -41.4766   55.6390   63.2557 C   0  0  0  0  0  0  0  0  0  0  0  0
  -41.6807   55.6331   64.7665 C   0  0  0  0  0  0  0  0  0  0  0  0
  -42.8234   56.5173   65.2525 C   0  0  0  0  0  0  0  0  0  0  0  0
  -42.5418   57.2086   66.5792 C   0  0  0  0  0  0  0  0  0  0  0  0
  -41.8453   58.5533   66.4448 C   0  0  0  0  0  0  0  0  0  0  0  0
  -42.4971   59.6403   67.2753 C   0  0  0  0  0  0  0  0  0  0  0  0
  -41.8194   62.2977   64.3785 O   0  0  0  0  0  0  0  0  0  0  0  0
  -42.0371   61.2725   63.4049 C   0  0  0  0  0  0  0  0  0  0  0  0
  -41.0074   62.7821   64.1619 H   0  0  0  0  0  0  0  0  0  0  0  0
  -43.2854   60.5019   63.7081 C   0  0  0  0  0  0  0  0  0  0  0  0
  -43.4781   59.2289   63.4246 C   0  0  0  0  0  0  0  0  0  0  0  0
  -44.7301   58.4841   63.7537 C   0  0  0  0  0  0  0  0  0  0  0  0
  -45.3492   58.9967   65.0556 C   0  0  0  0  0  0  0  0  0  0  0  0
  -46.6276   58.2816   65.4615 C   0  0  0  0  0  0  0  0  0  0  0  0
  -47.8574   58.7073   64.6777 C   0  0  0  0  0  0  0  0  0  0  0  0
  -48.0392   60.2151   64.5826 C   0  0  0  0  0  0  0  0  0  0  0  0
  -49.1861   60.6361   63.6767 C   0  0  0  0  0  0  0  0  0  0  0  0
  -50.4794   59.8841   63.9374 C   0  0  0  0  0  0  0  0  0  0  0  0
  -51.0776   59.2365   62.7024 C   0  0  0  0  0  0  0  0  0  0  0  0
  -50.2408   58.1025   62.1356 C   0  0  0  0  0  0  0  0  0  0  0  0
  -49.4524   58.5052   60.9033 C   0  0  0  0  0  0  0  0  0  0  0  0
  -49.6990   57.6311   59.6887 C   0  0  0  0  0  0  0  0  0  0  0  0
  -48.5749   57.7122   58.6746 C   0  0  0  0  0  0  0  0  0  0  0  0
  -47.4755   56.7060   58.9452 C   0  0  0  0  0  0  0  0  0  0  0  0
  -39.5129   61.1283   63.5199 C   0  0  0  0  0  0  0  0  0  0  0  0
  -39.0167   60.9156   64.8463 O   0  0  0  0  0  0  0  0  0  0  0  0
  -37.2500   60.8656   62.6743 O   0  0  0  0  0  0  0  0  0  0  0  0
  -36.2541   64.4547   64.8305 O   0  0  0  0  0  0  0  0  0  0  0  0
  -37.5277   62.1898   66.0658 O   0  0  0  0  0  0  0  0  0  0  0  0
  -37.6701   61.2495   65.0176 C   0  0  0  0  0  0  0  0  0  0  0  0
  -37.1596   61.8374   63.7086 C   0  0  0  0  0  0  0  0  0  0  0  0
  -35.7169   62.2974   63.8752 C   0  0  0  0  0  0  0  0  0  0  0  0
  -35.5744   63.2268   65.0715 C   0  0  0  0  0  0  0  0  0  0  0  0
  -36.1614   62.5590   66.3124 C   0  0  0  0  0  0  0  0  0  0  0  0
  -38.1722   60.5808   62.5779 H   0  0  0  0  0  0  0  0  0  0  0  0
  -35.8824   64.8807   64.0423 H   0  0  0  0  0  0  0  0  0  0  0  0
  -36.5452   62.7506   68.7009 O   0  0  0  0  0  0  0  0  0  0  0  0
  -36.1633   63.4578   67.5267 C   0  0  0  0  0  0  0  0  0  0  0  0
  -36.5361   63.3548   69.4597 H   0  0  0  0  0  0  0  0  0  0  0  0
  -35.4196   63.0338   62.6469 O   0  0  0  0  0  0  0  0  0  0  0  0
  -33.1785   62.2499   62.2349 O   0  0  0  0  0  0  0  0  0  0  0  0
  -33.5753   64.5331   63.2070 O   0  0  0  0  0  0  0  0  0  0  0  0
  -34.0856   64.0296   60.9437 O   0  0  0  0  0  0  0  0  0  0  0  0
  -33.9147   63.4532   62.3588 S   0  0  0  0  0  0  0  0  0  0  0  0
  -33.0512   61.8569   63.1126 H   0  0  0  0  0  0  0  0  0  0  0  0
  -34.3199   63.3160   60.3300 H   0  0  0  0  0  0  0  0  0  0  0  0
  2  1  1  0  0  0
  2  4  1  0  0  0
  2  5  1  0  0  0
 47 48  1  0  0  0
 47  1  1  0  0  0
 48 52  1  0  0  0
  1 30  1  0  0  0
 29 30  1  0  0  0
 29 31  1  0  0  0
 30 32  1  0  0  0
  3  4  2  0  0  0
 32 33  2  0  0  0
 49 53  1  0  0  0
 49 57  1  0  0  0
 33 34  1  0  0  0
 62 54  1  0  0  0
 62 66  1  0  0  0
 34 35  1  0  0  0
 50 55  1  0  0  0
 50 58  1  0  0  0
 35 36  1  0  0  0
 51 52  1  0  0  0
 51 56  1  0  0  0
 36 37  1  0  0  0
 59 60  1  0  0  0
 59 61  1  0  0  0
 37 38  1  0  0  0
 63 66  1  0  0  0
 63 67  1  0  0  0
 38 39  1  0  0  0
 64 66  1  0  0  0
 39 40  1  0  0  0
 65 66  1  0  0  0
 65 68  1  0  0  0
 40 41  1  0  0  0
 41 42  1  0  0  0
 42 43  1  0  0  0
 43 44  1  0  0  0
 44 45  1  0  0  0
 45 46  1  0  0  0
  4  6  1  0  0  0
  6  7  1  0  0  0
  7  8  1  0  0  0
  8  9  1  0  0  0
  9 10  1  0  0  0
 10 11  1  0  0  0
 11 12  1  0  0  0
 12 13  1  0  0  0
 13 14  1  0  0  0
 14 15  1  0  0  0
 15 16  1  0  0  0
 16 17  1  0  0  0
 17 18  1  0  0  0
 18 19  1  0  0  0
 19 20  2  0  0  0
 20 21  1  0  0  0
 21 22  1  0  0  0
 22 23  1  0  0  0
 23 24  1  0  0  0
 24 25  1  0  0  0
 25 26  1  0  0  0
 26 27  1  0  0  0
 27 28  1  0  0  0
 52 53  1  0  0  0
 53 54  1  0  0  0
 54 55  1  0  0  0
 55 56  1  0  0  0
 56 60  1  0  0  0
M  CHG 1  64  -1
M  END
> <minimizedAffinity>
-8.25503

> <CNNscore>
0.1340882033

> <CNNaffinity>
7.3777008057

> <CNN_VS>
0.9892626405

> <CNNaffinity_variance>
2.3340563774

$$$$
/media/chris/experiments/cd1a-new-docking/inputs/ligands/7ryn_ligand.pdb


 68 68  0  0  0  0  0  0  0  0999 V2000
  -41.0197   59.7384   65.4694 C   0  0  0  0  0  0  0  0  0  0  0  0
  -41.3961   59.9967   64.0827 N   0  0  0  0  0  0  0  0  0  0  0  0
  -42.0113   62.1386   64.4021 O   0  0  0  0  0  0  0  0  0  0  0  0
  -41.8617   61.1742   63.6573 C   0  0  0  0  0  0  0  0  0  0  0  0
  -41.3021   59.2669   63.4287 H   0  0  0  0  0  0  0  0  0  0  0  0
  -42.1903   61.2532   62.1873 C   0  0  0  0  0  0  0  0  0  0  0  0
  -42.0495   59.9097   61.4834 C   0  0  0  0  0  0  0  0  0  0  0  0
  -41.2293   59.9997   60.2064 C   0  0  0  0  0  0  0  0  0  0  0  0
  -39.7273   59.9929   60.4371 C   0  0  0  0  0  0  0  0  0  0  0  0
  -38.9912   58.9082   59.6650 C   0  0  0  0  0  0  0  0  0  0  0  0
  -37.4751   58.9715   59.8004 C   0  0  0  0  0  0  0  0  0  0  0  0
  -36.9163   58.0794   60.9014 C   0  0  0  0  0  0  0  0  0  0  0  0
  -35.7192   58.6657   61.6455 C   0  0  0  0  0  0  0  0  0  0  0  0
  -34.4694   57.7879   61.6028 C   0  0  0  0  0  0  0  0  0  0  0  0
  -33.1502   58.5517   61.7146 C   0  0  0  0  0  0  0  0  0  0  0  0
  -32.5705   58.5619   63.1292 C   0  0  0  0  0  0  0  0  0  0  0  0
  -33.0267   59.7272   64.0072 C   0  0  0  0  0  0  0  0  0  0  0  0
  -34.1258   59.3831   65.0159 C   0  0  0  0  0  0  0  0  0  0  0  0
  -34.2985   57.9042   65.2084 C   0  0  0  0  0  0  0  0  0  0  0  0
  -35.4029   57.2138   64.9858 C   0  0  0  0  0  0  0  0  0  0  0  0
  -36.7052   57.7684   64.4933 C   0  0  0  0  0  0  0  0  0  0  0  0
  -37.9031   57.3936   65.3685 C   0  0  0  0  0  0  0  0  0  0  0  0
  -39.1716   57.1245   64.5699 C   0  0  0  0  0  0  0  0  0  0  0  0
  -39.0533   57.5082   63.0992 C   0  0  0  0  0  0  0  0  0  0  0  0
  -40.1400   56.9229   62.2048 C   0  0  0  0  0  0  0  0  0  0  0  0
  -41.0305   55.9071   62.9066 C   0  0  0  0  0  0  0  0  0  0  0  0
  -42.3134   56.4920   63.4754 C   0  0  0  0  0  0  0  0  0  0  0  0
  -42.5653   56.0758   64.9104 C   0  0  0  0  0  0  0  0  0  0  0  0
  -41.6650   60.4824   67.6750 O   0  0  0  0  0  0  0  0  0  0  0  0
  -42.1873   60.1191   66.3937 C   0  0  0  0  0  0  0  0  0  0  0  0
  -41.0282   61.2067   67.5710 H   0  0  0  0  0  0  0  0  0  0  0  0
  -43.1764   59.0007   66.5157 C   0  0  0  0  0  0  0  0  0  0  0  0
  -44.4053   59.0201   66.0388 C   0  0  0  0  0  0  0  0  0  0  0  0
  -45.3637   57.8815   66.1639 C   0  0  0  0  0  0  0  0  0  0  0  0
  -46.8074   58.3552   65.9843 C   0  0  0  0  0  0  0  0  0  0  0  0
  -47.1229   58.8787   64.5926 C   0  0  0  0  0  0  0  0  0  0  0  0
  -47.9016   60.1831   64.5774 C   0  0  0  0  0  0  0  0  0  0  0  0
  -49.1228   60.1639   63.6696 C   0  0  0  0  0  0  0  0  0  0  0  0
  -49.6355   58.7648   63.3651 C   0  0  0  0  0  0  0  0  0  0  0  0
  -50.4620   58.6792   62.0939 C   0  0  0  0  0  0  0  0  0  0  0  0
  -49.7196   59.1123   60.8435 C   0  0  0  0  0  0  0  0  0  0  0  0
  -49.8326   58.1309   59.6896 C   0  0  0  0  0  0  0  0  0  0  0  0
  -48.5153   57.4578   59.3517 C   0  0  0  0  0  0  0  0  0  0  0  0
  -47.7330   58.1340   58.2422 C   0  0  0  0  0  0  0  0  0  0  0  0
  -47.7607   57.3470   56.9467 C   0  0  0  0  0  0  0  0  0  0  0  0
  -47.2613   55.9274   57.1192 C   0  0  0  0  0  0  0  0  0  0  0  0
  -39.7526   60.4938   65.8131 C   0  0  0  0  0  0  0  0  0  0  0  0
  -39.0269   60.7312   64.6016 O   0  0  0  0  0  0  0  0  0  0  0  0
  -37.3189   61.0790   62.4100 O   0  0  0  0  0  0  0  0  0  0  0  0
  -36.4064   64.3483   65.0560 O   0  0  0  0  0  0  0  0  0  0  0  0
  -37.5566   61.8732   65.9661 O   0  0  0  0  0  0  0  0  0  0  0  0
  -37.6903   61.0932   64.7926 C   0  0  0  0  0  0  0  0  0  0  0  0
  -37.2388   61.8899   63.5755 C   0  0  0  0  0  0  0  0  0  0  0  0
  -35.8112   62.3813   63.7787 C   0  0  0  0  0  0  0  0  0  0  0  0
  -35.6729   63.1285   65.0970 C   0  0  0  0  0  0  0  0  0  0  0  0
  -36.1996   62.2598   66.2365 C   0  0  0  0  0  0  0  0  0  0  0  0
  -38.2315   60.7725   62.2915 H   0  0  0  0  0  0  0  0  0  0  0  0
  -36.0731   64.9019   64.3325 H   0  0  0  0  0  0  0  0  0  0  0  0
  -34.8955   63.3789   67.9497 O   0  0  0  0  0  0  0  0  0  0  0  0
  -36.2040   62.9679   67.5710 C   0  0  0  0  0  0  0  0  0  0  0  0
  -34.9336   63.8289   68.8082 H   0  0  0  0  0  0  0  0  0  0  0  0
  -35.5762   63.3036   62.6680 O   0  0  0  0  0  0  0  0  0  0  0  0
  -33.3158   62.5653   62.2771 O   0  0  0  0  0  0  0  0  0  0  0  0
  -33.7718   64.8737   63.1596 O   0  0  0  0  0  0  0  0  0  0  0  0
  -34.2760   64.2668   60.9205 O   0  0  0  0  0  0  0  0  0  0  0  0
  -34.0844   63.7520   62.3565 S   0  0  0  0  0  0  0  0  0  0  0  0
  -33.1748   62.2112   63.1691 H   0  0  0  0  0  0  0  0  0  0  0  0
  -34.4928   63.5231   60.3367 H   0  0  0  0  0  0  0  0  0  0  0  0
  2  1  1  0  0  0
  2  4  1  0  0  0
  2  5  1  0  0  0
 47 48  1  0  0  0
 47  1  1  0  0  0
 48 52  1  0  0  0
  1 30  1  0  0  0
 29 30  1  0  0  0
 29 31  1  0  0  0
 30 32  1  0  0  0
  3  4  2  0  0  0
 32 33  2  0  0  0
 49 53  1  0  0  0
 49 57  1  0  0  0
 33 34  1  0  0  0
 62 54  1  0  0  0
 62 66  1  0  0  0
 34 35  1  0  0  0
 50 55  1  0  0  0
 50 58  1  0  0  0
 35 36  1  0  0  0
 51 52  1  0  0  0
 51 56  1  0  0  0
 36 37  1  0  0  0
 59 60  1  0  0  0
 59 61  1  0  0  0
 37 38  1  0  0  0
 63 66  1  0  0  0
 63 67  1  0  0  0
 38 39  1  0  0  0
 64 66  1  0  0  0
 39 40  1  0  0  0
 65 66  1  0  0  0
 65 68  1  0  0  0
 40 41  1  0  0  0
 41 42  1  0  0  0
 42 43  1  0  0  0
 43 44  1  0  0  0
 44 45  1  0  0  0
 45 46  1  0  0  0
  4  6  1  0  0  0
  6  7  1  0  0  0
  7  8  1  0  0  0
  8  9  1  0  0  0
  9 10  1  0  0  0
 10 11  1  0  0  0
 11 12  1  0  0  0
 12 13  1  0  0  0
 13 14  1  0  0  0
 14 15  1  0  0  0
 15 16  1  0  0  0
 16 17  1  0  0  0
 17 18  1  0  0  0
 18 19  1  0  0  0
 19 20  2  0  0  0
 20 21  1  0  0  0
 21 22  1  0  0  0
 22 23  1  0  0  0
 23 24  1  0  0  0
 24 25  1  0  0  0
 25 26  1  0  0  0
 26 27  1  0  0  0
 27 28  1  0  0  0
 52 53  1  0  0  0
 53 54  1  0  0  0
 54 55  1  0  0  0
 55 56  1  0  0  0
 56 60  1  0  0  0
M  CHG 1  64  -1
M  END
> <minimizedAffinity>
-8.28558

> <CNNscore>
0.1277453154

> <CNNaffinity>
7.4906630516

> <CNN_VS>
0.9568971395

> <CNNaffinity_variance>
1.8887474537

$$$$
/media/chris/experiments/cd1a-new-docking/inputs/ligands/7ryn_ligand.pdb


 68 68  0  0  0  0  0  0  0  0999 V2000
  -40.8996   60.1661   65.2799 C   0  0  0  0  0  0  0  0  0  0  0  0
  -41.6388   60.9214   64.2726 N   0  0  0  0  0  0  0  0  0  0  0  0
  -40.3678   60.2883   62.5257 O   0  0  0  0  0  0  0  0  0  0  0  0
  -41.3164   60.9240   62.9764 C   0  0  0  0  0  0  0  0  0  0  0  0
  -42.4132   61.4552   64.5632 H   0  0  0  0  0  0  0  0  0  0  0  0
  -42.2023   61.7588   62.0855 C   0  0  0  0  0  0  0  0  0  0  0  0
  -42.1425   61.3228   60.6272 C   0  0  0  0  0  0  0  0  0  0  0  0
  -41.1494   60.1958   60.3922 C   0  0  0  0  0  0  0  0  0  0  0  0
  -41.7579   58.9639   59.7430 C   0  0  0  0  0  0  0  0  0  0  0  0
  -41.0279   57.6705   60.0729 C   0  0  0  0  0  0  0  0  0  0  0  0
  -41.7873   56.7559   61.0255 C   0  0  0  0  0  0  0  0  0  0  0  0
  -42.1197   57.3997   62.3654 C   0  0  0  0  0  0  0  0  0  0  0  0
  -41.5356   56.6783   63.5773 C   0  0  0  0  0  0  0  0  0  0  0  0
  -40.0370   56.3994   63.4727 C   0  0  0  0  0  0  0  0  0  0  0  0
  -39.1434   57.6106   63.7385 C   0  0  0  0  0  0  0  0  0  0  0  0
  -38.4231   57.5519   65.0857 C   0  0  0  0  0  0  0  0  0  0  0  0
  -36.9472   57.1607   65.0140 C   0  0  0  0  0  0  0  0  0  0  0  0
  -35.9773   58.3320   64.8364 C   0  0  0  0  0  0  0  0  0  0  0  0
  -34.5953   58.0259   65.3369 C   0  0  0  0  0  0  0  0  0  0  0  0
  -33.4864   58.6590   64.9975 C   0  0  0  0  0  0  0  0  0  0  0  0
  -33.3857   59.8126   64.0461 C   0  0  0  0  0  0  0  0  0  0  0  0
  -32.3287   59.6201   62.9565 C   0  0  0  0  0  0  0  0  0  0  0  0
  -32.8375   58.8327   61.7564 C   0  0  0  0  0  0  0  0  0  0  0  0
  -33.1764   57.3828   62.0839 C   0  0  0  0  0  0  0  0  0  0  0  0
  -34.6674   57.0657   62.0756 C   0  0  0  0  0  0  0  0  0  0  0  0
  -35.5307   58.1925   61.5259 C   0  0  0  0  0  0  0  0  0  0  0  0
  -37.0026   57.8379   61.3871 C   0  0  0  0  0  0  0  0  0  0  0  0
  -37.7282   58.7142   60.3863 C   0  0  0  0  0  0  0  0  0  0  0  0
  -41.0287   59.3737   67.5581 O   0  0  0  0  0  0  0  0  0  0  0  0
  -41.8188   59.8795   66.4781 C   0  0  0  0  0  0  0  0  0  0  0  0
  -40.3313   60.0121   67.7751 H   0  0  0  0  0  0  0  0  0  0  0  0
  -42.9082   58.9177   66.1149 C   0  0  0  0  0  0  0  0  0  0  0  0
  -44.0793   58.8368   66.7150 C   0  0  0  0  0  0  0  0  0  0  0  0
  -45.1517   57.8757   66.3192 C   0  0  0  0  0  0  0  0  0  0  0  0
  -46.3872   58.0332   67.2079 C   0  0  0  0  0  0  0  0  0  0  0  0
  -47.3507   59.1157   66.7495 C   0  0  0  0  0  0  0  0  0  0  0  0
  -47.6105   59.1278   65.2527 C   0  0  0  0  0  0  0  0  0  0  0  0
  -48.3918   60.3413   64.7702 C   0  0  0  0  0  0  0  0  0  0  0  0
  -49.1055   60.1209   63.4453 C   0  0  0  0  0  0  0  0  0  0  0  0
  -49.2354   58.6587   63.0562 C   0  0  0  0  0  0  0  0  0  0  0  0
  -50.5822   58.2951   62.4595 C   0  0  0  0  0  0  0  0  0  0  0  0
  -50.5390   58.0161   60.9669 C   0  0  0  0  0  0  0  0  0  0  0  0
  -49.2155   57.4309   60.5106 C   0  0  0  0  0  0  0  0  0  0  0  0
  -48.5675   58.1722   59.3570 C   0  0  0  0  0  0  0  0  0  0  0  0
  -47.9351   57.2368   58.3453 C   0  0  0  0  0  0  0  0  0  0  0  0
  -47.2042   57.9794   57.2458 C   0  0  0  0  0  0  0  0  0  0  0  0
  -39.6537   60.9250   65.6876 C   0  0  0  0  0  0  0  0  0  0  0  0
  -38.6442   60.6989   64.6974 O   0  0  0  0  0  0  0  0  0  0  0  0
  -36.6916   61.0204   62.7162 O   0  0  0  0  0  0  0  0  0  0  0  0
  -36.5354   64.6489   65.0253 O   0  0  0  0  0  0  0  0  0  0  0  0
  -37.5196   62.1615   66.0845 O   0  0  0  0  0  0  0  0  0  0  0  0
  -37.3972   61.2473   65.0109 C   0  0  0  0  0  0  0  0  0  0  0  0
  -36.8690   61.9573   63.7712 C   0  0  0  0  0  0  0  0  0  0  0  0
  -35.5487   62.6463   64.0920 C   0  0  0  0  0  0  0  0  0  0  0  0
  -35.6836   63.5446   65.3128 C   0  0  0  0  0  0  0  0  0  0  0  0
  -36.2666   62.7454   66.4755 C   0  0  0  0  0  0  0  0  0  0  0  0
  -37.5381   60.5887   62.5213 H   0  0  0  0  0  0  0  0  0  0  0  0
  -36.1666   65.1581   64.2867 H   0  0  0  0  0  0  0  0  0  0  0  0
  -36.5383   62.8047   68.8862 O   0  0  0  0  0  0  0  0  0  0  0  0
  -36.5397   63.5888   67.6989 C   0  0  0  0  0  0  0  0  0  0  0  0
  -36.7160   63.3748   69.6505 H   0  0  0  0  0  0  0  0  0  0  0  0
  -35.2627   63.4641   62.9135 O   0  0  0  0  0  0  0  0  0  0  0  0
  -32.9383   63.1337   63.4565 O   0  0  0  0  0  0  0  0  0  0  0  0
  -33.7745   65.3923   62.7389 O   0  0  0  0  0  0  0  0  0  0  0  0
  -33.5971   63.5804   61.2152 O   0  0  0  0  0  0  0  0  0  0  0  0
  -33.7766   63.9786   62.6893 S   0  0  0  0  0  0  0  0  0  0  0  0
  -33.0263   63.3578   64.3962 H   0  0  0  0  0  0  0  0  0  0  0  0
  -33.5934   62.6133   61.1397 H   0  0  0  0  0  0  0  0  0  0  0  0
  2  1  1  0  0  0
  2  4  1  0  0  0
  2  5  1  0  0  0
 47 48  1  0  0  0
 47  1  1  0  0  0
 48 52  1  0  0  0
  1 30  1  0  0  0
 29 30  1  0  0  0
 29 31  1  0  0  0
 30 32  1  0  0  0
  3  4  2  0  0  0
 32 33  2  0  0  0
 49 53  1  0  0  0
 49 57  1  0  0  0
 33 34  1  0  0  0
 62 54  1  0  0  0
 62 66  1  0  0  0
 34 35  1  0  0  0
 50 55  1  0  0  0
 50 58  1  0  0  0
 35 36  1  0  0  0
 51 52  1  0  0  0
 51 56  1  0  0  0
 36 37  1  0  0  0
 59 60  1  0  0  0
 59 61  1  0  0  0
 37 38  1  0  0  0
 63 66  1  0  0  0
 63 67  1  0  0  0
 38 39  1  0  0  0
 64 66  1  0  0  0
 39 40  1  0  0  0
 65 66  1  0  0  0
 65 68  1  0  0  0
 40 41  1  0  0  0
 41 42  1  0  0  0
 42 43  1  0  0  0
 43 44  1  0  0  0
 44 45  1  0  0  0
 45 46  1  0  0  0
  4  6  1  0  0  0
  6  7  1  0  0  0
  7  8  1  0  0  0
  8  9  1  0  0  0
  9 10  1  0  0  0
 10 11  1  0  0  0
 11 12  1  0  0  0
 12 13  1  0  0  0
 13 14  1  0  0  0
 14 15  1  0  0  0
 15 16  1  0  0  0
 16 17  1  0  0  0
 17 18  1  0  0  0
 18 19  1  0  0  0
 19 20  2  0  0  0
 20 21  1  0  0  0
 21 22  1  0  0  0
 22 23  1  0  0  0
 23 24  1  0  0  0
 24 25  1  0  0  0
 25 26  1  0  0  0
 26 27  1  0  0  0
 27 28  1  0  0  0
 52 53  1  0  0  0
 53 54  1  0  0  0
 54 55  1  0  0  0
 55 56  1  0  0  0
 56 60  1  0  0  0
M  CHG 1  64  -1
M  END
> <minimizedAffinity>
-7.81537

> <CNNscore>
0.1263915598

> <CNNaffinity>
7.3892760277

> <CNN_VS>
0.9339421391

> <CNNaffinity_variance>
1.4870468378

$$$$
/media/chris/experiments/cd1a-new-docking/inputs/ligands/7ryn_ligand.pdb


 68 68  0  0  0  0  0  0  0  0999 V2000
  -34.6536   59.3998   63.1951 C   0  0  0  0  0  0  0  0  0  0  0  0
  -35.8637   59.3661   62.3792 N   0  0  0  0  0  0  0  0  0  0  0  0
  -35.6112   57.2435   61.6731 O   0  0  0  0  0  0  0  0  0  0  0  0
  -36.2481   58.2930   61.6829 C   0  0  0  0  0  0  0  0  0  0  0  0
  -36.4243   60.1745   62.3402 H   0  0  0  0  0  0  0  0  0  0  0  0
  -37.5313   58.4454   60.9048 C   0  0  0  0  0  0  0  0  0  0  0  0
  -38.6963   57.7033   61.5469 C   0  0  0  0  0  0  0  0  0  0  0  0
  -40.0145   57.9486   60.8302 C   0  0  0  0  0  0  0  0  0  0  0  0
  -40.9672   56.7654   60.8704 C   0  0  0  0  0  0  0  0  0  0  0  0
  -40.9199   55.9814   62.1733 C   0  0  0  0  0  0  0  0  0  0  0  0
  -42.1692   56.1310   63.0323 C   0  0  0  0  0  0  0  0  0  0  0  0
  -41.9045   56.0309   64.5290 C   0  0  0  0  0  0  0  0  0  0  0  0
  -43.1360   56.2428   65.4058 C   0  0  0  0  0  0  0  0  0  0  0  0
  -43.0747   57.5006   66.2710 C   0  0  0  0  0  0  0  0  0  0  0  0
  -44.3399   58.3577   66.2397 C   0  0  0  0  0  0  0  0  0  0  0  0
  -45.4211   57.8135   65.3059 C   0  0  0  0  0  0  0  0  0  0  0  0
  -46.3150   58.8740   64.6632 C   0  0  0  0  0  0  0  0  0  0  0  0
  -47.6176   59.1612   65.4147 C   0  0  0  0  0  0  0  0  0  0  0  0
  -48.3431   60.3644   64.8855 C   0  0  0  0  0  0  0  0  0  0  0  0
  -49.4339   60.3502   64.1400 C   0  0  0  0  0  0  0  0  0  0  0  0
  -50.1682   59.1293   63.6750 C   0  0  0  0  0  0  0  0  0  0  0  0
  -49.5241   58.4481   62.4656 C   0  0  0  0  0  0  0  0  0  0  0  0
  -50.5227   58.0918   61.3725 C   0  0  0  0  0  0  0  0  0  0  0  0
  -49.8672   57.7873   60.0302 C   0  0  0  0  0  0  0  0  0  0  0  0
  -49.0269   56.5156   60.0121 C   0  0  0  0  0  0  0  0  0  0  0  0
  -47.9815   56.4873   58.9059 C   0  0  0  0  0  0  0  0  0  0  0  0
  -47.8053   57.8126   58.1820 C   0  0  0  0  0  0  0  0  0  0  0  0
  -47.3893   57.6430   56.7349 C   0  0  0  0  0  0  0  0  0  0  0  0
  -33.9468   58.2987   65.2256 O   0  0  0  0  0  0  0  0  0  0  0  0
  -35.0115   59.0624   64.6514 C   0  0  0  0  0  0  0  0  0  0  0  0
  -33.1178   58.7978   65.1578 H   0  0  0  0  0  0  0  0  0  0  0  0
  -36.3102   58.3210   64.7386 C   0  0  0  0  0  0  0  0  0  0  0  0
  -37.4712   58.8601   65.0542 C   0  0  0  0  0  0  0  0  0  0  0  0
  -38.7528   58.0959   65.1181 C   0  0  0  0  0  0  0  0  0  0  0  0
  -39.9388   59.0302   65.3659 C   0  0  0  0  0  0  0  0  0  0  0  0
  -40.4813   59.6949   64.1112 C   0  0  0  0  0  0  0  0  0  0  0  0
  -41.7736   59.0883   63.5917 C   0  0  0  0  0  0  0  0  0  0  0  0
  -42.7340   60.1023   62.9874 C   0  0  0  0  0  0  0  0  0  0  0  0
  -42.1648   60.8423   61.7867 C   0  0  0  0  0  0  0  0  0  0  0  0
  -42.8379   62.1761   61.5145 C   0  0  0  0  0  0  0  0  0  0  0  0
  -43.3697   62.8651   62.7574 C   0  0  0  0  0  0  0  0  0  0  0  0
  -42.2854   63.3432   63.7078 C   0  0  0  0  0  0  0  0  0  0  0  0
  -42.8397   63.9649   64.9761 C   0  0  0  0  0  0  0  0  0  0  0  0
  -42.3015   63.3583   66.2578 C   0  0  0  0  0  0  0  0  0  0  0  0
  -41.8077   61.9376   66.0675 C   0  0  0  0  0  0  0  0  0  0  0  0
  -42.1905   61.0310   67.2190 C   0  0  0  0  0  0  0  0  0  0  0  0
  -33.9822   60.7521   63.0732 C   0  0  0  0  0  0  0  0  0  0  0  0
  -33.1294   60.9357   64.2088 O   0  0  0  0  0  0  0  0  0  0  0  0
  -31.6179   63.1140   63.3080 O   0  0  0  0  0  0  0  0  0  0  0  0
  -35.5490   64.7132   64.0238 O   0  0  0  0  0  0  0  0  0  0  0  0
  -34.5556   62.3554   65.3397 O   0  0  0  0  0  0  0  0  0  0  0  0
  -33.2490   62.1861   64.8224 C   0  0  0  0  0  0  0  0  0  0  0  0
  -32.9528   63.2543   63.7778 C   0  0  0  0  0  0  0  0  0  0  0  0
  -33.1568   64.6385   64.3805 C   0  0  0  0  0  0  0  0  0  0  0  0
  -34.5323   64.7589   65.0198 C   0  0  0  0  0  0  0  0  0  0  0  0
  -34.7405   63.6137   66.0077 C   0  0  0  0  0  0  0  0  0  0  0  0
  -31.5005   62.2297   62.9271 H   0  0  0  0  0  0  0  0  0  0  0  0
  -35.4184   65.4402   63.3950 H   0  0  0  0  0  0  0  0  0  0  0  0
  -36.3143   62.4587   67.4491 O   0  0  0  0  0  0  0  0  0  0  0  0
  -36.1267   63.5909   66.6080 C   0  0  0  0  0  0  0  0  0  0  0  0
  -37.2116   62.4744   67.8172 H   0  0  0  0  0  0  0  0  0  0  0  0
  -33.0655   65.5538   63.2432 O   0  0  0  0  0  0  0  0  0  0  0  0
  -34.1632   63.8370   61.9568 O   0  0  0  0  0  0  0  0  0  0  0  0
  -32.1568   65.0379   61.0361 O   0  0  0  0  0  0  0  0  0  0  0  0
  -34.2634   66.1093   61.2611 O   0  0  0  0  0  0  0  0  0  0  0  0
  -33.3541   64.9868   61.7876 S   0  0  0  0  0  0  0  0  0  0  0  0
  -33.6198   63.1055   62.2894 H   0  0  0  0  0  0  0  0  0  0  0  0
  -35.0988   66.1067   61.7541 H   0  0  0  0  0  0  0  0  0  0  0  0
  2  1  1  0  0  0
  2  4  1  0  0  0
  2  5  1  0  0  0
 47 48  1  0  0  0
 47  1  1  0  0  0
 48 52  1  0  0  0
  1 30  1  0  0  0
 29 30  1  0  0  0
 29 31  1  0  0  0
 30 32  1  0  0  0
  3  4  2  0  0  0
 32 33  2  0  0  0
 49 53  1  0  0  0
 49 57  1  0  0  0
 33 34  1  0  0  0
 62 54  1  0  0  0
 62 66  1  0  0  0
 34 35  1  0  0  0
 50 55  1  0  0  0
 50 58  1  0  0  0
 35 36  1  0  0  0
 51 52  1  0  0  0
 51 56  1  0  0  0
 36 37  1  0  0  0
 59 60  1  0  0  0
 59 61  1  0  0  0
 37 38  1  0  0  0
 63 66  1  0  0  0
 63 67  1  0  0  0
 38 39  1  0  0  0
 64 66  1  0  0  0
 39 40  1  0  0  0
 65 66  1  0  0  0
 65 68  1  0  0  0
 40 41  1  0  0  0
 41 42  1  0  0  0
 42 43  1  0  0  0
 43 44  1  0  0  0
 44 45  1  0  0  0
 45 46  1  0  0  0
  4  6  1  0  0  0
  6  7  1  0  0  0
  7  8  1  0  0  0
  8  9  1  0  0  0
  9 10  1  0  0  0
 10 11  1  0  0  0
 11 12  1  0  0  0
 12 13  1  0  0  0
 13 14  1  0  0  0
 14 15  1  0  0  0
 15 16  1  0  0  0
 16 17  1  0  0  0
 17 18  1  0  0  0
 18 19  1  0  0  0
 19 20  2  0  0  0
 20 21  1  0  0  0
 21 22  1  0  0  0
 22 23  1  0  0  0
 23 24  1  0  0  0
 24 25  1  0  0  0
 25 26  1  0  0  0
 26 27  1  0  0  0
 27 28  1  0  0  0
 52 53  1  0  0  0
 53 54  1  0  0  0
 54 55  1  0  0  0
 55 56  1  0  0  0
 56 60  1  0  0  0
M  CHG 1  64  -1
M  END
> <minimizedAffinity>
-7.42824

> <CNNscore>
0.1255315393

> <CNNaffinity>
7.1694703102

> <CNN_VS>
0.8999946713

> <CNNaffinity_variance>
1.1900157928

$$$$
/media/chris/experiments/cd1a-new-docking/inputs/ligands/7ryn_ligand.pdb


 68 68  0  0  0  0  0  0  0  0999 V2000
  -41.0292   59.7997   65.7564 C   0  0  0  0  0  0  0  0  0  0  0  0
  -41.5420   60.7149   64.7411 N   0  0  0  0  0  0  0  0  0  0  0  0
  -42.5681   59.1396   63.5027 O   0  0  0  0  0  0  0  0  0  0  0  0
  -42.2702   60.3149   63.6952 C   0  0  0  0  0  0  0  0  0  0  0  0
  -41.3412   61.6744   64.8318 H   0  0  0  0  0  0  0  0  0  0  0  0
  -42.7174   61.4070   62.7557 C   0  0  0  0  0  0  0  0  0  0  0  0
  -42.1824   61.2179   61.3421 C   0  0  0  0  0  0  0  0  0  0  0  0
  -40.7982   60.5895   61.3180 C   0  0  0  0  0  0  0  0  0  0  0  0
  -40.5375   59.7196   60.0995 C   0  0  0  0  0  0  0  0  0  0  0  0
  -41.6088   58.6677   59.8540 C   0  0  0  0  0  0  0  0  0  0  0  0
  -41.1638   57.2449   60.1678 C   0  0  0  0  0  0  0  0  0  0  0  0
  -41.7235   56.6973   61.4743 C   0  0  0  0  0  0  0  0  0  0  0  0
  -40.6752   56.1108   62.4164 C   0  0  0  0  0  0  0  0  0  0  0  0
  -40.1454   57.1016   63.4517 C   0  0  0  0  0  0  0  0  0  0  0  0
  -38.9733   57.9578   62.9728 C   0  0  0  0  0  0  0  0  0  0  0  0
  -38.0216   57.2167   62.0335 C   0  0  0  0  0  0  0  0  0  0  0  0
  -37.2162   58.1106   61.0907 C   0  0  0  0  0  0  0  0  0  0  0  0
  -35.8817   58.6058   61.6545 C   0  0  0  0  0  0  0  0  0  0  0  0
  -34.8077   57.5574   61.6169 C   0  0  0  0  0  0  0  0  0  0  0  0
  -33.5054   57.7748   61.6686 C   0  0  0  0  0  0  0  0  0  0  0  0
  -32.8384   59.1124   61.7781 C   0  0  0  0  0  0  0  0  0  0  0  0
  -32.3661   59.4495   63.1941 C   0  0  0  0  0  0  0  0  0  0  0  0
  -32.2936   58.2349   64.1098 C   0  0  0  0  0  0  0  0  0  0  0  0
  -33.3299   58.2574   65.2277 C   0  0  0  0  0  0  0  0  0  0  0  0
  -34.4197   59.3096   65.0571 C   0  0  0  0  0  0  0  0  0  0  0  0
  -35.7912   58.7268   64.7462 C   0  0  0  0  0  0  0  0  0  0  0  0
  -35.8885   57.2229   64.9471 C   0  0  0  0  0  0  0  0  0  0  0  0
  -37.1443   56.8070   65.6859 C   0  0  0  0  0  0  0  0  0  0  0  0
  -41.3046   59.0966   68.0508 O   0  0  0  0  0  0  0  0  0  0  0  0
  -41.8316   59.9783   67.0552 C   0  0  0  0  0  0  0  0  0  0  0  0
  -40.3597   59.2776   68.1755 H   0  0  0  0  0  0  0  0  0  0  0  0
  -43.2920   59.7268   66.8358 C   0  0  0  0  0  0  0  0  0  0  0  0
  -43.8305   58.5475   66.5959 C   0  0  0  0  0  0  0  0  0  0  0  0
  -45.2940   58.3270   66.3960 C   0  0  0  0  0  0  0  0  0  0  0  0
  -45.6918   58.5624   64.9374 C   0  0  0  0  0  0  0  0  0  0  0  0
  -47.1780   58.8026   64.7279 C   0  0  0  0  0  0  0  0  0  0  0  0
  -48.0082   58.7271   65.9979 C   0  0  0  0  0  0  0  0  0  0  0  0
  -49.3432   59.4520   65.9083 C   0  0  0  0  0  0  0  0  0  0  0  0
  -50.3553   58.7589   65.0091 C   0  0  0  0  0  0  0  0  0  0  0  0
  -50.9180   59.6531   63.9183 C   0  0  0  0  0  0  0  0  0  0  0  0
  -51.1692   58.9401   62.6027 C   0  0  0  0  0  0  0  0  0  0  0  0
  -50.0703   57.9674   62.2103 C   0  0  0  0  0  0  0  0  0  0  0  0
  -49.0809   58.5569   61.2224 C   0  0  0  0  0  0  0  0  0  0  0  0
  -49.3318   58.1692   59.7778 C   0  0  0  0  0  0  0  0  0  0  0  0
  -48.0946   57.6136   59.1003 C   0  0  0  0  0  0  0  0  0  0  0  0
  -48.3640   57.1620   57.6798 C   0  0  0  0  0  0  0  0  0  0  0  0
  -39.5476   60.0343   65.9665 C   0  0  0  0  0  0  0  0  0  0  0  0
  -39.0742   60.8900   64.9203 O   0  0  0  0  0  0  0  0  0  0  0  0
  -37.4146   61.0295   62.6692 O   0  0  0  0  0  0  0  0  0  0  0  0
  -36.4497   64.5323   64.9761 O   0  0  0  0  0  0  0  0  0  0  0  0
  -37.5763   62.1542   66.1393 O   0  0  0  0  0  0  0  0  0  0  0  0
  -37.7343   61.2676   65.0474 C   0  0  0  0  0  0  0  0  0  0  0  0
  -37.3104   61.9461   63.7513 C   0  0  0  0  0  0  0  0  0  0  0  0
  -35.8794   62.4536   63.8764 C   0  0  0  0  0  0  0  0  0  0  0  0
  -35.7137   63.3212   65.1154 C   0  0  0  0  0  0  0  0  0  0  0  0
  -36.2143   62.5636   66.3426 C   0  0  0  0  0  0  0  0  0  0  0  0
  -38.3292   60.7137   62.5998 H   0  0  0  0  0  0  0  0  0  0  0  0
  -36.1330   65.0152   64.1967 H   0  0  0  0  0  0  0  0  0  0  0  0
  -36.6099   62.6393   68.7356 O   0  0  0  0  0  0  0  0  0  0  0  0
  -36.1907   63.3940   67.6045 C   0  0  0  0  0  0  0  0  0  0  0  0
  -36.5831   63.2001   69.5265 H   0  0  0  0  0  0  0  0  0  0  0  0
  -35.6700   63.2674   62.6792 O   0  0  0  0  0  0  0  0  0  0  0  0
  -33.3356   62.7036   62.4799 O   0  0  0  0  0  0  0  0  0  0  0  0
  -34.0400   65.0475   63.0500 O   0  0  0  0  0  0  0  0  0  0  0  0
  -34.3671   64.1334   60.8835 O   0  0  0  0  0  0  0  0  0  0  0  0
  -34.2088   63.8138   62.3790 S   0  0  0  0  0  0  0  0  0  0  0  0
  -33.2123   62.4731   63.4141 H   0  0  0  0  0  0  0  0  0  0  0  0
  -34.4858   63.3084   60.3873 H   0  0  0  0  0  0  0  0  0  0  0  0
  2  1  1  0  0  0
  2  4  1  0  0  0
  2  5  1  0  0  0
 47 48  1  0  0  0
 47  1  1  0  0  0
 48 52  1  0  0  0
  1 30  1  0  0  0
 29 30  1  0  0  0
 29 31  1  0  0  0
 30 32  1  0  0  0
  3  4  2  0  0  0
 32 33  2  0  0  0
 49 53  1  0  0  0
 49 57  1  0  0  0
 33 34  1  0  0  0
 62 54  1  0  0  0
 62 66  1  0  0  0
 34 35  1  0  0  0
 50 55  1  0  0  0
 50 58  1  0  0  0
 35 36  1  0  0  0
 51 52  1  0  0  0
 51 56  1  0  0  0
 36 37  1  0  0  0
 59 60  1  0  0  0
 59 61  1  0  0  0
 37 38  1  0  0  0
 63 66  1  0  0  0
 63 67  1  0  0  0
 38 39  1  0  0  0
 64 66  1  0  0  0
 39 40  1  0  0  0
 65 66  1  0  0  0
 65 68  1  0  0  0
 40 41  1  0  0  0
 41 42  1  0  0  0
 42 43  1  0  0  0
 43 44  1  0  0  0
 44 45  1  0  0  0
 45 46  1  0  0  0
  4  6  1  0  0  0
  6  7  1  0  0  0
  7  8  1  0  0  0
  8  9  1  0  0  0
  9 10  1  0  0  0
 10 11  1  0  0  0
 11 12  1  0  0  0
 12 13  1  0  0  0
 13 14  1  0  0  0
 14 15  1  0  0  0
 15 16  1  0  0  0
 16 17  1  0  0  0
 17 18  1  0  0  0
 18 19  1  0  0  0
 19 20  2  0  0  0
 20 21  1  0  0  0
 21 22  1  0  0  0
 22 23  1  0  0  0
 23 24  1  0  0  0
 24 25  1  0  0  0
 25 26  1  0  0  0
 26 27  1  0  0  0
 27 28  1  0  0  0
 52 53  1  0  0  0
 53 54  1  0  0  0
 54 55  1  0  0  0
 55 56  1  0  0  0
 56 60  1  0  0  0
M  CHG 1  64  -1
M  END
> <minimizedAffinity>
-7.78621

> <CNNscore>
0.1184975728

> <CNNaffinity>
7.2783823013

> <CNN_VS>
0.8624706268

> <CNNaffinity_variance>
1.8363507986

$$$$
/media/chris/experiments/cd1a-new-docking/inputs/ligands/7ryn_ligand.pdb


 68 68  0  0  0  0  0  0  0  0999 V2000
  -40.2799   59.1321   65.3402 C   0  0  0  0  0  0  0  0  0  0  0  0
  -40.9412   60.3617   64.9134 N   0  0  0  0  0  0  0  0  0  0  0  0
  -42.2873   59.3884   63.3939 O   0  0  0  0  0  0  0  0  0  0  0  0
  -41.8917   60.3946   63.9755 C   0  0  0  0  0  0  0  0  0  0  0  0
  -40.6734   61.2086   65.3380 H   0  0  0  0  0  0  0  0  0  0  0  0
  -42.4634   61.7574   63.6736 C   0  0  0  0  0  0  0  0  0  0  0  0
  -43.2140   61.7964   62.3486 C   0  0  0  0  0  0  0  0  0  0  0  0
  -42.2832   61.8779   61.1493 C   0  0  0  0  0  0  0  0  0  0  0  0
  -41.3612   60.6789   61.0023 C   0  0  0  0  0  0  0  0  0  0  0  0
  -41.5862   59.8826   59.7257 C   0  0  0  0  0  0  0  0  0  0  0  0
  -41.0427   58.4605   59.7784 C   0  0  0  0  0  0  0  0  0  0  0  0
  -41.8799   57.5110   60.6255 C   0  0  0  0  0  0  0  0  0  0  0  0
  -41.1114   56.3173   61.1865 C   0  0  0  0  0  0  0  0  0  0  0  0
  -40.7456   56.4515   62.6638 C   0  0  0  0  0  0  0  0  0  0  0  0
  -39.4989   57.2923   62.9377 C   0  0  0  0  0  0  0  0  0  0  0  0
  -38.2958   56.8938   62.0827 C   0  0  0  0  0  0  0  0  0  0  0  0
  -37.6860   58.0257   61.2559 C   0  0  0  0  0  0  0  0  0  0  0  0
  -36.2737   58.4423   61.6752 C   0  0  0  0  0  0  0  0  0  0  0  0
  -35.6681   57.5136   62.6875 C   0  0  0  0  0  0  0  0  0  0  0  0
  -34.3774   57.3372   62.9081 C   0  0  0  0  0  0  0  0  0  0  0  0
  -33.2577   58.0314   62.1935 C   0  0  0  0  0  0  0  0  0  0  0  0
  -32.3751   58.8797   63.1116 C   0  0  0  0  0  0  0  0  0  0  0  0
  -31.7801   60.0978   62.4178 C   0  0  0  0  0  0  0  0  0  0  0  0
  -32.2213   61.4206   63.0342 C   0  0  0  0  0  0  0  0  0  0  0  0
  -31.1503   62.5053   63.0341 C   0  0  0  0  0  0  0  0  0  0  0  0
  -30.9305   63.1498   64.3956 C   0  0  0  0  0  0  0  0  0  0  0  0
  -32.1810   63.7670   65.0012 C   0  0  0  0  0  0  0  0  0  0  0  0
  -32.4052   65.1988   64.5589 C   0  0  0  0  0  0  0  0  0  0  0  0
  -41.2125   56.9994   65.9857 O   0  0  0  0  0  0  0  0  0  0  0  0
  -41.1838   58.3863   66.3350 C   0  0  0  0  0  0  0  0  0  0  0  0
  -40.3079   56.6491   65.9781 H   0  0  0  0  0  0  0  0  0  0  0  0
  -42.5665   58.9621   66.3566 C   0  0  0  0  0  0  0  0  0  0  0  0
  -43.6789   58.2597   66.4411 C   0  0  0  0  0  0  0  0  0  0  0  0
  -45.0438   58.8650   66.4755 C   0  0  0  0  0  0  0  0  0  0  0  0
  -46.0635   57.8902   67.0679 C   0  0  0  0  0  0  0  0  0  0  0  0
  -47.1181   57.4158   66.0815 C   0  0  0  0  0  0  0  0  0  0  0  0
  -47.8347   58.5357   65.3464 C   0  0  0  0  0  0  0  0  0  0  0  0
  -48.6355   59.4582   66.2538 C   0  0  0  0  0  0  0  0  0  0  0  0
  -50.1320   59.4329   65.9829 C   0  0  0  0  0  0  0  0  0  0  0  0
  -50.5190   58.6180   64.7613 C   0  0  0  0  0  0  0  0  0  0  0  0
  -51.0850   59.4440   63.6212 C   0  0  0  0  0  0  0  0  0  0  0  0
  -51.1775   58.6929   62.3040 C   0  0  0  0  0  0  0  0  0  0  0  0
  -50.0693   59.0577   61.3338 C   0  0  0  0  0  0  0  0  0  0  0  0
  -48.9059   58.0848   61.3173 C   0  0  0  0  0  0  0  0  0  0  0  0
  -48.9416   57.1542   60.1210 C   0  0  0  0  0  0  0  0  0  0  0  0
  -48.4190   57.8102   58.8596 C   0  0  0  0  0  0  0  0  0  0  0  0
  -38.9231   59.4509   65.9332 C   0  0  0  0  0  0  0  0  0  0  0  0
  -38.7519   60.8727   65.9278 O   0  0  0  0  0  0  0  0  0  0  0  0
  -38.0264   60.9671   63.2249 O   0  0  0  0  0  0  0  0  0  0  0  0
  -36.4511   64.5947   64.9225 O   0  0  0  0  0  0  0  0  0  0  0  0
  -36.9730   62.2347   66.4832 O   0  0  0  0  0  0  0  0  0  0  0  0
  -37.4750   61.2973   65.5491 C   0  0  0  0  0  0  0  0  0  0  0  0
  -37.5793   61.9324   64.1686 C   0  0  0  0  0  0  0  0  0  0  0  0
  -36.2242   62.4895   63.7512 C   0  0  0  0  0  0  0  0  0  0  0  0
  -35.6609   63.4146   64.8200 C   0  0  0  0  0  0  0  0  0  0  0  0
  -35.6495   62.6952   66.1665 C   0  0  0  0  0  0  0  0  0  0  0  0
  -38.8890   60.6201   63.5013 H   0  0  0  0  0  0  0  0  0  0  0  0
  -36.4596   65.0534   64.0678 H   0  0  0  0  0  0  0  0  0  0  0  0
  -34.0015   63.1104   67.8986 O   0  0  0  0  0  0  0  0  0  0  0  0
  -35.2087   63.5795   67.3093 C   0  0  0  0  0  0  0  0  0  0  0  0
  -33.7470   63.6987   68.6266 H   0  0  0  0  0  0  0  0  0  0  0  0
  -36.4985   63.2572   62.5367 O   0  0  0  0  0  0  0  0  0  0  0  0
  -35.6972   64.1598   60.4510 O   0  0  0  0  0  0  0  0  0  0  0  0
  -34.0830   63.3191   62.1839 O   0  0  0  0  0  0  0  0  0  0  0  0
  -35.3166   65.3243   62.4897 O   0  0  0  0  0  0  0  0  0  0  0  0
  -35.2830   63.9558   61.7897 S   0  0  0  0  0  0  0  0  0  0  0  0
  -35.6879   63.3134   59.9772 H   0  0  0  0  0  0  0  0  0  0  0  0
  -36.1289   65.7937   62.2431 H   0  0  0  0  0  0  0  0  0  0  0  0
  2  1  1  0  0  0
  2  4  1  0  0  0
  2  5  1  0  0  0
 47 48  1  0  0  0
 47  1  1  0  0  0
 48 52  1  0  0  0
  1 30  1  0  0  0
 29 30  1  0  0  0
 29 31  1  0  0  0
 30 32  1  0  0  0
  3  4  2  0  0  0
 32 33  2  0  0  0
 49 53  1  0  0  0
 49 57  1  0  0  0
 33 34  1  0  0  0
 62 54  1  0  0  0
 62 66  1  0  0  0
 34 35  1  0  0  0
 50 55  1  0  0  0
 50 58  1  0  0  0
 35 36  1  0  0  0
 51 52  1  0  0  0
 51 56  1  0  0  0
 36 37  1  0  0  0
 59 60  1  0  0  0
 59 61  1  0  0  0
 37 38  1  0  0  0
 63 66  1  0  0  0
 63 67  1  0  0  0
 38 39  1  0  0  0
 64 66  1  0  0  0
 39 40  1  0  0  0
 65 66  1  0  0  0
 65 68  1  0  0  0
 40 41  1  0  0  0
 41 42  1  0  0  0
 42 43  1  0  0  0
 43 44  1  0  0  0
 44 45  1  0  0  0
 45 46  1  0  0  0
  4  6  1  0  0  0
  6  7  1  0  0  0
  7  8  1  0  0  0
  8  9  1  0  0  0
  9 10  1  0  0  0
 10 11  1  0  0  0
 11 12  1  0  0  0
 12 13  1  0  0  0
 13 14  1  0  0  0
 14 15  1  0  0  0
 15 16  1  0  0  0
 16 17  1  0  0  0
 17 18  1  0  0  0
 18 19  1  0  0  0
 19 20  2  0  0  0
 20 21  1  0  0  0
 21 22  1  0  0  0
 22 23  1  0  0  0
 23 24  1  0  0  0
 24 25  1  0  0  0
 25 26  1  0  0  0
 26 27  1  0  0  0
 27 28  1  0  0  0
 52 53  1  0  0  0
 53 54  1  0  0  0
 54 55  1  0  0  0
 55 56  1  0  0  0
 56 60  1  0  0  0
M  CHG 1  64  -1
M  END
> <minimizedAffinity>
-8.20774

> <CNNscore>
0.1112759262

> <CNNaffinity>
7.1811065674

> <CNN_VS>
0.7990843058

> <CNNaffinity_variance>
1.8417198658

$$$$
/media/chris/experiments/cd1a-new-docking/inputs/ligands/7ryn_ligand.pdb


 68 68  0  0  0  0  0  0  0  0999 V2000
  -37.3098   60.7121   64.4452 C   0  0  0  0  0  0  0  0  0  0  0  0
  -38.3893   59.7916   64.7896 N   0  0  0  0  0  0  0  0  0  0  0  0
  -39.3283   61.1074   66.3564 O   0  0  0  0  0  0  0  0  0  0  0  0
  -39.3130   60.0599   65.7164 C   0  0  0  0  0  0  0  0  0  0  0  0
  -38.4390   58.9304   64.3152 H   0  0  0  0  0  0  0  0  0  0  0  0
  -40.3545   58.9896   65.9285 C   0  0  0  0  0  0  0  0  0  0  0  0
  -41.6573   59.5443   66.4903 C   0  0  0  0  0  0  0  0  0  0  0  0
  -42.6634   58.4543   66.8238 C   0  0  0  0  0  0  0  0  0  0  0  0
  -42.5915   57.2471   65.9036 C   0  0  0  0  0  0  0  0  0  0  0  0
  -43.7819   57.1170   64.9653 C   0  0  0  0  0  0  0  0  0  0  0  0
  -44.4402   58.4445   64.6116 C   0  0  0  0  0  0  0  0  0  0  0  0
  -45.9172   58.5175   64.9770 C   0  0  0  0  0  0  0  0  0  0  0  0
  -46.1918   58.8082   66.4502 C   0  0  0  0  0  0  0  0  0  0  0  0
  -46.9301   57.6863   67.1787 C   0  0  0  0  0  0  0  0  0  0  0  0
  -47.7293   56.7537   66.2688 C   0  0  0  0  0  0  0  0  0  0  0  0
  -48.6734   57.4914   65.3191 C   0  0  0  0  0  0  0  0  0  0  0  0
  -49.9156   58.0910   65.9778 C   0  0  0  0  0  0  0  0  0  0  0  0
  -50.2929   59.4917   65.4881 C   0  0  0  0  0  0  0  0  0  0  0  0
  -49.1843   60.1627   64.7299 C   0  0  0  0  0  0  0  0  0  0  0  0
  -49.1620   60.3989   63.4301 C   0  0  0  0  0  0  0  0  0  0  0  0
  -50.2409   60.0467   62.4513 C   0  0  0  0  0  0  0  0  0  0  0  0
  -49.7408   59.2453   61.2475 C   0  0  0  0  0  0  0  0  0  0  0  0
  -49.6434   57.7498   61.5181 C   0  0  0  0  0  0  0  0  0  0  0  0
  -49.5473   56.9104   60.2491 C   0  0  0  0  0  0  0  0  0  0  0  0
  -48.1227   56.6124   59.7958 C   0  0  0  0  0  0  0  0  0  0  0  0
  -47.5751   57.6191   58.7938 C   0  0  0  0  0  0  0  0  0  0  0  0
  -47.8821   57.2832   57.3431 C   0  0  0  0  0  0  0  0  0  0  0  0
  -47.4088   55.8998   56.9455 C   0  0  0  0  0  0  0  0  0  0  0  0
  -36.9138   62.3551   62.7193 O   0  0  0  0  0  0  0  0  0  0  0  0
  -37.3581   61.0131   62.9386 C   0  0  0  0  0  0  0  0  0  0  0  0
  -36.0229   62.4649   63.0871 H   0  0  0  0  0  0  0  0  0  0  0  0
  -38.7336   60.8064   62.3825 C   0  0  0  0  0  0  0  0  0  0  0  0
  -39.0027   60.3340   61.1815 C   0  0  0  0  0  0  0  0  0  0  0  0
  -40.3869   60.1252   60.6612 C   0  0  0  0  0  0  0  0  0  0  0  0
  -41.4160   60.1949   61.7912 C   0  0  0  0  0  0  0  0  0  0  0  0
  -42.1318   58.8820   62.0640 C   0  0  0  0  0  0  0  0  0  0  0  0
  -42.0909   57.8964   60.9087 C   0  0  0  0  0  0  0  0  0  0  0  0
  -41.2052   56.6848   61.1602 C   0  0  0  0  0  0  0  0  0  0  0  0
  -40.8564   56.4770   62.6260 C   0  0  0  0  0  0  0  0  0  0  0  0
  -39.5911   57.1948   63.0616 C   0  0  0  0  0  0  0  0  0  0  0  0
  -38.4220   57.0189   62.1105 C   0  0  0  0  0  0  0  0  0  0  0  0
  -37.0657   57.2585   62.7514 C   0  0  0  0  0  0  0  0  0  0  0  0
  -36.0738   57.9190   61.8122 C   0  0  0  0  0  0  0  0  0  0  0  0
  -34.7793   58.3529   62.4727 C   0  0  0  0  0  0  0  0  0  0  0  0
  -33.5589   58.0215   61.6363 C   0  0  0  0  0  0  0  0  0  0  0  0
  -32.7195   56.9180   62.2464 C   0  0  0  0  0  0  0  0  0  0  0  0
  -35.9764   60.1299   64.8664 C   0  0  0  0  0  0  0  0  0  0  0  0
  -35.1410   61.2003   65.3214 O   0  0  0  0  0  0  0  0  0  0  0  0
  -35.2263   63.9965   65.1992 O   0  0  0  0  0  0  0  0  0  0  0  0
  -31.1415   62.9726   64.3112 O   0  0  0  0  0  0  0  0  0  0  0  0
  -33.3368   61.1631   63.8821 O   0  0  0  0  0  0  0  0  0  0  0  0
  -34.4786   61.8876   64.3002 C   0  0  0  0  0  0  0  0  0  0  0  0
  -34.0694   63.2524   64.8384 C   0  0  0  0  0  0  0  0  0  0  0  0
  -33.2659   64.0047   63.7853 C   0  0  0  0  0  0  0  0  0  0  0  0
  -32.1042   63.1623   63.2793 C   0  0  0  0  0  0  0  0  0  0  0  0
  -32.6209   61.8033   62.8137 C   0  0  0  0  0  0  0  0  0  0  0  0
  -35.7291   63.5078   65.8695 H   0  0  0  0  0  0  0  0  0  0  0  0
  -30.8119   63.8351   64.6084 H   0  0  0  0  0  0  0  0  0  0  0  0
  -31.2152   60.9836   61.0135 O   0  0  0  0  0  0  0  0  0  0  0  0
  -31.5179   60.8583   62.3982 C   0  0  0  0  0  0  0  0  0  0  0  0
  -30.5053   60.3651   60.7804 H   0  0  0  0  0  0  0  0  0  0  0  0
  -32.7479   65.1799   64.4854 O   0  0  0  0  0  0  0  0  0  0  0  0
  -32.7354   63.7290   66.4094 O   0  0  0  0  0  0  0  0  0  0  0  0
  -32.9812   66.2148   66.6848 O   0  0  0  0  0  0  0  0  0  0  0  0
  -30.9279   65.2254   66.0208 O   0  0  0  0  0  0  0  0  0  0  0  0
  -32.4571   65.0683   66.0431 S   0  0  0  0  0  0  0  0  0  0  0  0
  -33.6956   63.5934   66.4337 H   0  0  0  0  0  0  0  0  0  0  0  0
  -30.5300   64.4547   65.5863 H   0  0  0  0  0  0  0  0  0  0  0  0
  2  1  1  0  0  0
  2  4  1  0  0  0
  2  5  1  0  0  0
 47 48  1  0  0  0
 47  1  1  0  0  0
 48 52  1  0  0  0
  1 30  1  0  0  0
 29 30  1  0  0  0
 29 31  1  0  0  0
 30 32  1  0  0  0
  3  4  2  0  0  0
 32 33  2  0  0  0
 49 53  1  0  0  0
 49 57  1  0  0  0
 33 34  1  0  0  0
 62 54  1  0  0  0
 62 66  1  0  0  0
 34 35  1  0  0  0
 50 55  1  0  0  0
 50 58  1  0  0  0
 35 36  1  0  0  0
 51 52  1  0  0  0
 51 56  1  0  0  0
 36 37  1  0  0  0
 59 60  1  0  0  0
 59 61  1  0  0  0
 37 38  1  0  0  0
 63 66  1  0  0  0
 63 67  1  0  0  0
 38 39  1  0  0  0
 64 66  1  0  0  0
 39 40  1  0  0  0
 65 66  1  0  0  0
 65 68  1  0  0  0
 40 41  1  0  0  0
 41 42  1  0  0  0
 42 43  1  0  0  0
 43 44  1  0  0  0
 44 45  1  0  0  0
 45 46  1  0  0  0
  4  6  1  0  0  0
  6  7  1  0  0  0
  7  8  1  0  0  0
  8  9  1  0  0  0
  9 10  1  0  0  0
 10 11  1  0  0  0
 11 12  1  0  0  0
 12 13  1  0  0  0
 13 14  1  0  0  0
 14 15  1  0  0  0
 15 16  1  0  0  0
 16 17  1  0  0  0
 17 18  1  0  0  0
 18 19  1  0  0  0
 19 20  2  0  0  0
 20 21  1  0  0  0
 21 22  1  0  0  0
 22 23  1  0  0  0
 23 24  1  0  0  0
 24 25  1  0  0  0
 25 26  1  0  0  0
 26 27  1  0  0  0
 27 28  1  0  0  0
 52 53  1  0  0  0
 53 54  1  0  0  0
 54 55  1  0  0  0
 55 56  1  0  0  0
 56 60  1  0  0  0
M  CHG 1  64  -1
M  END
> <minimizedAffinity>
-8.99300

> <CNNscore>
0.0981423184

> <CNNaffinity>
7.2945165634

> <CNN_VS>
0.7159007788

> <CNNaffinity_variance>
1.3807723522

$$$$
/media/chris/experiments/cd1a-new-docking/inputs/ligands/7ryn_ligand.pdb


 68 68  0  0  0  0  0  0  0  0999 V2000
  -41.2792   59.9160   65.4611 C   0  0  0  0  0  0  0  0  0  0  0  0
  -41.7492   60.8035   64.4015 N   0  0  0  0  0  0  0  0  0  0  0  0
  -43.0357   59.2728   63.3672 O   0  0  0  0  0  0  0  0  0  0  0  0
  -42.5892   60.4141   63.4388 C   0  0  0  0  0  0  0  0  0  0  0  0
  -41.4312   61.7352   64.3963 H   0  0  0  0  0  0  0  0  0  0  0  0
  -42.9682   61.4747   62.4354 C   0  0  0  0  0  0  0  0  0  0  0  0
  -42.1835   61.3569   61.1351 C   0  0  0  0  0  0  0  0  0  0  0  0
  -40.7803   60.8102   61.3443 C   0  0  0  0  0  0  0  0  0  0  0  0
  -40.2475   60.0130   60.1654 C   0  0  0  0  0  0  0  0  0  0  0  0
  -41.2747   59.0831   59.5370 C   0  0  0  0  0  0  0  0  0  0  0  0
  -41.0471   57.6088   59.8462 C   0  0  0  0  0  0  0  0  0  0  0  0
  -41.9065   57.0776   60.9860 C   0  0  0  0  0  0  0  0  0  0  0  0
  -41.7558   55.5815   61.2493 C   0  0  0  0  0  0  0  0  0  0  0  0
  -41.3090   55.2418   62.6703 C   0  0  0  0  0  0  0  0  0  0  0  0
  -41.9044   56.1371   63.7566 C   0  0  0  0  0  0  0  0  0  0  0  0
  -40.8500   56.8326   64.6180 C   0  0  0  0  0  0  0  0  0  0  0  0
  -39.4343   56.8232   64.0414 C   0  0  0  0  0  0  0  0  0  0  0  0
  -39.1341   57.9506   63.0500 C   0  0  0  0  0  0  0  0  0  0  0  0
  -38.0393   57.6014   62.0838 C   0  0  0  0  0  0  0  0  0  0  0  0
  -36.8000   57.2688   62.3985 C   0  0  0  0  0  0  0  0  0  0  0  0
  -36.2384   57.1704   63.7846 C   0  0  0  0  0  0  0  0  0  0  0  0
  -35.7868   58.5138   64.3616 C   0  0  0  0  0  0  0  0  0  0  0  0
  -34.3958   58.4666   64.9797 C   0  0  0  0  0  0  0  0  0  0  0  0
  -33.4876   59.5984   64.5124 C   0  0  0  0  0  0  0  0  0  0  0  0
  -32.3514   59.1588   63.5962 C   0  0  0  0  0  0  0  0  0  0  0  0
  -32.6573   59.3298   62.1149 C   0  0  0  0  0  0  0  0  0  0  0  0
  -33.3082   58.1167   61.4697 C   0  0  0  0  0  0  0  0  0  0  0  0
  -32.8979   56.8115   62.1209 C   0  0  0  0  0  0  0  0  0  0  0  0
  -41.4783   59.9946   67.8671 O   0  0  0  0  0  0  0  0  0  0  0  0
  -42.2414   59.9961   66.6571 C   0  0  0  0  0  0  0  0  0  0  0  0
  -40.8484   60.7321   67.8530 H   0  0  0  0  0  0  0  0  0  0  0  0
  -43.2269   58.8681   66.6437 C   0  0  0  0  0  0  0  0  0  0  0  0
  -44.5350   59.0052   66.5529 C   0  0  0  0  0  0  0  0  0  0  0  0
  -45.4914   57.8585   66.5271 C   0  0  0  0  0  0  0  0  0  0  0  0
  -46.4931   58.0030   65.3796 C   0  0  0  0  0  0  0  0  0  0  0  0
  -47.8764   58.4594   65.8138 C   0  0  0  0  0  0  0  0  0  0  0  0
  -48.2131   59.8891   65.4254 C   0  0  0  0  0  0  0  0  0  0  0  0
  -49.1236   60.0023   64.2114 C   0  0  0  0  0  0  0  0  0  0  0  0
  -50.2250   58.9541   64.1741 C   0  0  0  0  0  0  0  0  0  0  0  0
  -50.5626   58.4708   62.7746 C   0  0  0  0  0  0  0  0  0  0  0  0
  -49.3493   58.2011   61.9043 C   0  0  0  0  0  0  0  0  0  0  0  0
  -49.4195   58.8499   60.5325 C   0  0  0  0  0  0  0  0  0  0  0  0
  -49.5849   57.8443   59.4083 C   0  0  0  0  0  0  0  0  0  0  0  0
  -48.5152   56.7700   59.3665 C   0  0  0  0  0  0  0  0  0  0  0  0
  -47.3153   57.1747   58.5329 C   0  0  0  0  0  0  0  0  0  0  0  0
  -47.6982   57.5878   57.1268 C   0  0  0  0  0  0  0  0  0  0  0  0
  -39.8596   60.2754   65.8482 C   0  0  0  0  0  0  0  0  0  0  0  0
  -39.1518   60.6553   64.6627 O   0  0  0  0  0  0  0  0  0  0  0  0
  -37.3956   60.9582   62.5028 O   0  0  0  0  0  0  0  0  0  0  0  0
  -36.4978   64.2462   65.1305 O   0  0  0  0  0  0  0  0  0  0  0  0
  -37.6959   61.7952   66.0443 O   0  0  0  0  0  0  0  0  0  0  0  0
  -37.8151   61.0037   64.8769 C   0  0  0  0  0  0  0  0  0  0  0  0
  -37.3294   61.7812   63.6606 C   0  0  0  0  0  0  0  0  0  0  0  0
  -35.9005   62.2580   63.8875 C   0  0  0  0  0  0  0  0  0  0  0  0
  -35.7800   63.0184   65.1999 C   0  0  0  0  0  0  0  0  0  0  0  0
  -36.3401   62.1688   66.3379 C   0  0  0  0  0  0  0  0  0  0  0  0
  -38.3093   60.6611   62.3690 H   0  0  0  0  0  0  0  0  0  0  0  0
  -36.1433   64.7876   64.4079 H   0  0  0  0  0  0  0  0  0  0  0  0
  -35.1718   63.6419   67.8721 O   0  0  0  0  0  0  0  0  0  0  0  0
  -36.3630   62.8920   67.6642 C   0  0  0  0  0  0  0  0  0  0  0  0
  -35.2189   64.0925   68.7298 H   0  0  0  0  0  0  0  0  0  0  0  0
  -35.6319   63.1648   62.7717 O   0  0  0  0  0  0  0  0  0  0  0  0
  -33.2697   62.7116   62.9182 O   0  0  0  0  0  0  0  0  0  0  0  0
  -34.1416   65.0520   63.1968 O   0  0  0  0  0  0  0  0  0  0  0  0
  -34.1433   63.9574   61.0901 O   0  0  0  0  0  0  0  0  0  0  0  0
  -34.1686   63.7629   62.6150 S   0  0  0  0  0  0  0  0  0  0  0  0
  -33.2600   62.5607   63.8764 H   0  0  0  0  0  0  0  0  0  0  0  0
  -34.1608   63.0914   60.6534 H   0  0  0  0  0  0  0  0  0  0  0  0
  2  1  1  0  0  0
  2  4  1  0  0  0
  2  5  1  0  0  0
 47 48  1  0  0  0
 47  1  1  0  0  0
 48 52  1  0  0  0
  1 30  1  0  0  0
 29 30  1  0  0  0
 29 31  1  0  0  0
 30 32  1  0  0  0
  3  4  2  0  0  0
 32 33  2  0  0  0
 49 53  1  0  0  0
 49 57  1  0  0  0
 33 34  1  0  0  0
 62 54  1  0  0  0
 62 66  1  0  0  0
 34 35  1  0  0  0
 50 55  1  0  0  0
 50 58  1  0  0  0
 35 36  1  0  0  0
 51 52  1  0  0  0
 51 56  1  0  0  0
 36 37  1  0  0  0
 59 60  1  0  0  0
 59 61  1  0  0  0
 37 38  1  0  0  0
 63 66  1  0  0  0
 63 67  1  0  0  0
 38 39  1  0  0  0
 64 66  1  0  0  0
 39 40  1  0  0  0
 65 66  1  0  0  0
 65 68  1  0  0  0
 40 41  1  0  0  0
 41 42  1  0  0  0
 42 43  1  0  0  0
 43 44  1  0  0  0
 44 45  1  0  0  0
 45 46  1  0  0  0
  4  6  1  0  0  0
  6  7  1  0  0  0
  7  8  1  0  0  0
  8  9  1  0  0  0
  9 10  1  0  0  0
 10 11  1  0  0  0
 11 12  1  0  0  0
 12 13  1  0  0  0
 13 14  1  0  0  0
 14 15  1  0  0  0
 15 16  1  0  0  0
 16 17  1  0  0  0
 17 18  1  0  0  0
 18 19  1  0  0  0
 19 20  2  0  0  0
 20 21  1  0  0  0
 21 22  1  0  0  0
 22 23  1  0  0  0
 23 24  1  0  0  0
 24 25  1  0  0  0
 25 26  1  0  0  0
 26 27  1  0  0  0
 27 28  1  0  0  0
 52 53  1  0  0  0
 53 54  1  0  0  0
 54 55  1  0  0  0
 55 56  1  0  0  0
 56 60  1  0  0  0
M  CHG 1  64  -1
M  END
> <minimizedAffinity>
-8.35670

> <CNNscore>
0.0970772505

> <CNNaffinity>
7.3968529701

> <CNN_VS>
0.7180661559

> <CNNaffinity_variance>
1.9184910059

$$$$
