/media/chris/experiments/cd1a-new-docking/inputs/ligands/7ryn_ligand.pdb


 68 68  0  0  0  0  0  0  0  0999 V2000
  -34.6737   61.7923   63.9284 C   0  0  0  0  0  0  0  0  0  0  0  0
  -35.5926   61.3865   64.9877 N   0  0  0  0  0  0  0  0  0  0  0  0
  -37.4650   61.5492   63.7486 O   0  0  0  0  0  0  0  0  0  0  0  0
  -36.9143   61.2966   64.8162 C   0  0  0  0  0  0  0  0  0  0  0  0
  -35.2198   61.1682   65.8723 H   0  0  0  0  0  0  0  0  0  0  0  0
  -37.7003   60.8532   66.0249 C   0  0  0  0  0  0  0  0  0  0  0  0
  -39.1938   60.7472   65.7446 C   0  0  0  0  0  0  0  0  0  0  0  0
  -39.6883   59.3096   65.7355 C   0  0  0  0  0  0  0  0  0  0  0  0
  -41.1941   59.1770   65.5805 C   0  0  0  0  0  0  0  0  0  0  0  0
  -41.6816   57.7373   65.5155 C   0  0  0  0  0  0  0  0  0  0  0  0
  -42.7362   57.4878   64.4450 C   0  0  0  0  0  0  0  0  0  0  0  0
  -44.1510   57.8523   64.8759 C   0  0  0  0  0  0  0  0  0  0  0  0
  -44.4023   57.7495   66.3782 C   0  0  0  0  0  0  0  0  0  0  0  0
  -45.5141   58.6655   66.8872 C   0  0  0  0  0  0  0  0  0  0  0  0
  -46.9180   58.2852   66.4175 C   0  0  0  0  0  0  0  0  0  0  0  0
  -47.9803   59.3275   66.7672 C   0  0  0  0  0  0  0  0  0  0  0  0
  -48.8916   59.7361   65.6100 C   0  0  0  0  0  0  0  0  0  0  0  0
  -48.3647   59.3800   64.2172 C   0  0  0  0  0  0  0  0  0  0  0  0
  -49.0819   60.1093   63.1182 C   0  0  0  0  0  0  0  0  0  0  0  0
  -50.1756   59.7022   62.4984 C   0  0  0  0  0  0  0  0  0  0  0  0
  -50.9218   58.4312   62.7700 C   0  0  0  0  0  0  0  0  0  0  0  0
  -51.4625   57.7545   61.5085 C   0  0  0  0  0  0  0  0  0  0  0  0
  -50.4227   57.6215   60.4038 C   0  0  0  0  0  0  0  0  0  0  0  0
  -49.5038   56.4178   60.5798 C   0  0  0  0  0  0  0  0  0  0  0  0
  -48.3834   56.3232   59.5507 C   0  0  0  0  0  0  0  0  0  0  0  0
  -48.6395   57.1358   58.2892 C   0  0  0  0  0  0  0  0  0  0  0  0
  -47.5746   58.1803   57.9950 C   0  0  0  0  0  0  0  0  0  0  0  0
  -46.6542   57.7800   56.8598 C   0  0  0  0  0  0  0  0  0  0  0  0
  -33.1024   60.7599   62.4118 O   0  0  0  0  0  0  0  0  0  0  0  0
  -33.5876   60.7181   63.7569 C   0  0  0  0  0  0  0  0  0  0  0  0
  -32.7720   61.6503   62.2148 H   0  0  0  0  0  0  0  0  0  0  0  0
  -34.1070   59.3548   64.0971 C   0  0  0  0  0  0  0  0  0  0  0  0
  -34.5884   58.4884   63.2279 C   0  0  0  0  0  0  0  0  0  0  0  0
  -35.0855   57.1292   63.5971 C   0  0  0  0  0  0  0  0  0  0  0  0
  -36.4175   57.2150   64.3451 C   0  0  0  0  0  0  0  0  0  0  0  0
  -37.5179   57.9302   63.5781 C   0  0  0  0  0  0  0  0  0  0  0  0
  -37.7631   57.3835   62.1821 C   0  0  0  0  0  0  0  0  0  0  0  0
  -37.3410   58.3270   61.0652 C   0  0  0  0  0  0  0  0  0  0  0  0
  -38.4561   59.2434   60.5856 C   0  0  0  0  0  0  0  0  0  0  0  0
  -39.2915   58.6545   59.4624 C   0  0  0  0  0  0  0  0  0  0  0  0
  -40.6445   58.1311   59.9074 C   0  0  0  0  0  0  0  0  0  0  0  0
  -41.5938   59.2133   60.3924 C   0  0  0  0  0  0  0  0  0  0  0  0
  -41.5484   59.4125   61.8959 C   0  0  0  0  0  0  0  0  0  0  0  0
  -41.5377   60.8641   62.3352 C   0  0  0  0  0  0  0  0  0  0  0  0
  -42.5616   61.7037   61.5967 C   0  0  0  0  0  0  0  0  0  0  0  0
  -43.3194   62.6375   62.5177 C   0  0  0  0  0  0  0  0  0  0  0  0
  -34.0844   63.1514   64.2444 C   0  0  0  0  0  0  0  0  0  0  0  0
  -34.0017   63.9007   63.0268 O   0  0  0  0  0  0  0  0  0  0  0  0
  -33.0806   66.5094   63.4596 O   0  0  0  0  0  0  0  0  0  0  0  0
  -29.8044   63.9709   64.6193 O   0  0  0  0  0  0  0  0  0  0  0  0
  -31.8360   63.1497   62.7548 O   0  0  0  0  0  0  0  0  0  0  0  0
  -32.7024   64.2652   62.6624 C   0  0  0  0  0  0  0  0  0  0  0  0
  -32.2412   65.3707   63.6033 C   0  0  0  0  0  0  0  0  0  0  0  0
  -30.7949   65.7401   63.2987 C   0  0  0  0  0  0  0  0  0  0  0  0
  -29.9031   64.5072   63.3039 C   0  0  0  0  0  0  0  0  0  0  0  0
  -30.4850   63.4496   62.3691 C   0  0  0  0  0  0  0  0  0  0  0  0
  -33.9977   66.2619   63.6559 H   0  0  0  0  0  0  0  0  0  0  0  0
  -29.4349   64.6414   65.2150 H   0  0  0  0  0  0  0  0  0  0  0  0
  -30.2575   61.2056   61.4740 O   0  0  0  0  0  0  0  0  0  0  0  0
  -29.7221   62.1460   62.3980 C   0  0  0  0  0  0  0  0  0  0  0  0
  -29.7464   60.3824   61.5178 H   0  0  0  0  0  0  0  0  0  0  0  0
  -30.4030   66.6303   64.3911 O   0  0  0  0  0  0  0  0  0  0  0  0
  -31.2047   68.7905   63.6853 O   0  0  0  0  0  0  0  0  0  0  0  0
  -28.8196   68.1151   63.2723 O   0  0  0  0  0  0  0  0  0  0  0  0
  -29.6205   68.6145   65.4508 O   0  0  0  0  0  0  0  0  0  0  0  0
  -30.0053   68.1287   64.0436 S   0  0  0  0  0  0  0  0  0  0  0  0
  -31.4782   68.5067   62.7990 H   0  0  0  0  0  0  0  0  0  0  0  0
  -30.4111   68.6375   66.0123 H   0  0  0  0  0  0  0  0  0  0  0  0
  2  1  1  0  0  0
  2  4  1  0  0  0
  2  5  1  0  0  0
 47 48  1  0  0  0
 47  1  1  0  0  0
 48 52  1  0  0  0
  1 30  1  0  0  0
 29 30  1  0  0  0
 29 31  1  0  0  0
 30 32  1  0  0  0
  3  4  2  0  0  0
 32 33  2  0  0  0
 49 53  1  0  0  0
 49 57  1  0  0  0
 33 34  1  0  0  0
 62 54  1  0  0  0
 62 66  1  0  0  0
 34 35  1  0  0  0
 50 55  1  0  0  0
 50 58  1  0  0  0
 35 36  1  0  0  0
 51 52  1  0  0  0
 51 56  1  0  0  0
 36 37  1  0  0  0
 59 60  1  0  0  0
 59 61  1  0  0  0
 37 38  1  0  0  0
 63 66  1  0  0  0
 63 67  1  0  0  0
 38 39  1  0  0  0
 64 66  1  0  0  0
 39 40  1  0  0  0
 65 66  1  0  0  0
 65 68  1  0  0  0
 40 41  1  0  0  0
 41 42  1  0  0  0
 42 43  1  0  0  0
 43 44  1  0  0  0
 44 45  1  0  0  0
 45 46  1  0  0  0
  4  6  1  0  0  0
  6  7  1  0  0  0
  7  8  1  0  0  0
  8  9  1  0  0  0
  9 10  1  0  0  0
 10 11  1  0  0  0
 11 12  1  0  0  0
 12 13  1  0  0  0
 13 14  1  0  0  0
 14 15  1  0  0  0
 15 16  1  0  0  0
 16 17  1  0  0  0
 17 18  1  0  0  0
 18 19  1  0  0  0
 19 20  2  0  0  0
 20 21  1  0  0  0
 21 22  1  0  0  0
 22 23  1  0  0  0
 23 24  1  0  0  0
 24 25  1  0  0  0
 25 26  1  0  0  0
 26 27  1  0  0  0
 27 28  1  0  0  0
 52 53  1  0  0  0
 53 54  1  0  0  0
 54 55  1  0  0  0
 55 56  1  0  0  0
 56 60  1  0  0  0
M  CHG 1  64  -1
M  END
> <minimizedAffinity>
-8.87045

> <CNNscore>
0.3094068766

> <CNNaffinity>
7.2418045998

> <CNN_VS>
2.2406642437

> <CNNaffinity_variance>
1.1380932331

$$$$
/media/chris/experiments/cd1a-new-docking/inputs/ligands/7ryn_ligand.pdb


 68 68  0  0  0  0  0  0  0  0999 V2000
  -33.5789   59.8706   62.7456 C   0  0  0  0  0  0  0  0  0  0  0  0
  -34.6354   60.7690   63.2016 N   0  0  0  0  0  0  0  0  0  0  0  0
  -33.9744   60.8354   65.3525 O   0  0  0  0  0  0  0  0  0  0  0  0
  -34.7512   61.1809   64.4670 C   0  0  0  0  0  0  0  0  0  0  0  0
  -35.2953   61.0870   62.5439 H   0  0  0  0  0  0  0  0  0  0  0  0
  -35.9029   62.1140   64.7465 C   0  0  0  0  0  0  0  0  0  0  0  0
  -36.8360   61.5839   65.8276 C   0  0  0  0  0  0  0  0  0  0  0  0
  -37.9070   60.6570   65.2752 C   0  0  0  0  0  0  0  0  0  0  0  0
  -38.8444   60.0991   66.3331 C   0  0  0  0  0  0  0  0  0  0  0  0
  -40.3190   60.2653   65.9978 C   0  0  0  0  0  0  0  0  0  0  0  0
  -41.1727   59.0504   66.3381 C   0  0  0  0  0  0  0  0  0  0  0  0
  -42.6183   59.3882   66.6794 C   0  0  0  0  0  0  0  0  0  0  0  0
  -43.5470   58.1799   66.7698 C   0  0  0  0  0  0  0  0  0  0  0  0
  -44.8712   58.3563   66.0282 C   0  0  0  0  0  0  0  0  0  0  0  0
  -46.0636   58.6906   66.9241 C   0  0  0  0  0  0  0  0  0  0  0  0
  -47.3072   57.8553   66.6194 C   0  0  0  0  0  0  0  0  0  0  0  0
  -48.1451   58.3485   65.4398 C   0  0  0  0  0  0  0  0  0  0  0  0
  -49.6533   58.1276   65.5829 C   0  0  0  0  0  0  0  0  0  0  0  0
  -50.4243   59.4122   65.6808 C   0  0  0  0  0  0  0  0  0  0  0  0
  -51.1664   59.9491   64.7285 C   0  0  0  0  0  0  0  0  0  0  0  0
  -51.3901   59.3818   63.3594 C   0  0  0  0  0  0  0  0  0  0  0  0
  -50.2969   59.7521   62.3547 C   0  0  0  0  0  0  0  0  0  0  0  0
  -49.4062   58.5770   61.9738 C   0  0  0  0  0  0  0  0  0  0  0  0
  -50.0903   57.5732   61.0525 C   0  0  0  0  0  0  0  0  0  0  0  0
  -49.1479   56.8471   60.0993 C   0  0  0  0  0  0  0  0  0  0  0  0
  -48.8042   57.6462   58.8501 C   0  0  0  0  0  0  0  0  0  0  0  0
  -47.4245   57.3519   58.2831 C   0  0  0  0  0  0  0  0  0  0  0  0
  -47.3064   57.6952   56.8121 C   0  0  0  0  0  0  0  0  0  0  0  0
  -32.8709   57.5618   62.7975 O   0  0  0  0  0  0  0  0  0  0  0  0
  -33.7409   58.5043   63.4309 C   0  0  0  0  0  0  0  0  0  0  0  0
  -31.9578   57.8866   62.8382 H   0  0  0  0  0  0  0  0  0  0  0  0
  -35.1627   58.0346   63.3869 C   0  0  0  0  0  0  0  0  0  0  0  0
  -35.8292   57.7374   62.2889 C   0  0  0  0  0  0  0  0  0  0  0  0
  -37.2433   57.2567   62.2791 C   0  0  0  0  0  0  0  0  0  0  0  0
  -37.9259   57.5280   63.6213 C   0  0  0  0  0  0  0  0  0  0  0  0
  -39.4447   57.5075   63.5634 C   0  0  0  0  0  0  0  0  0  0  0  0
  -40.0138   56.8087   62.3404 C   0  0  0  0  0  0  0  0  0  0  0  0
  -41.4020   56.2227   62.5525 C   0  0  0  0  0  0  0  0  0  0  0  0
  -42.2705   57.0367   63.4994 C   0  0  0  0  0  0  0  0  0  0  0  0
  -42.9423   58.2290   62.8411 C   0  0  0  0  0  0  0  0  0  0  0  0
  -42.2209   59.5453   63.0632 C   0  0  0  0  0  0  0  0  0  0  0  0
  -42.6812   60.6624   62.1425 C   0  0  0  0  0  0  0  0  0  0  0  0
  -41.7012   60.9479   61.0198 C   0  0  0  0  0  0  0  0  0  0  0  0
  -41.0652   59.7114   60.4142 C   0  0  0  0  0  0  0  0  0  0  0  0
  -39.5557   59.8187   60.3214 C   0  0  0  0  0  0  0  0  0  0  0  0
  -38.9462   60.4918   61.5338 C   0  0  0  0  0  0  0  0  0  0  0  0
  -32.2213   60.4854   63.0168 C   0  0  0  0  0  0  0  0  0  0  0  0
  -31.9654   61.4733   62.0121 O   0  0  0  0  0  0  0  0  0  0  0  0
  -30.9783   63.4249   60.2634 O   0  0  0  0  0  0  0  0  0  0  0  0
  -33.2644   65.6082   63.1839 O   0  0  0  0  0  0  0  0  0  0  0  0
  -32.1079   63.0273   63.7130 O   0  0  0  0  0  0  0  0  0  0  0  0
  -31.4566   62.6779   62.5058 C   0  0  0  0  0  0  0  0  0  0  0  0
  -31.6858   63.7539   61.4522 C   0  0  0  0  0  0  0  0  0  0  0  0
  -31.2247   65.1053   61.9833 C   0  0  0  0  0  0  0  0  0  0  0  0
  -31.8621   65.4093   63.3311 C   0  0  0  0  0  0  0  0  0  0  0  0
  -31.6140   64.2470   64.2894 C   0  0  0  0  0  0  0  0  0  0  0  0
  -31.2803   62.5635   59.9353 H   0  0  0  0  0  0  0  0  0  0  0  0
  -33.4242   66.3463   62.5753 H   0  0  0  0  0  0  0  0  0  0  0  0
  -32.6605   65.7729   65.8596 O   0  0  0  0  0  0  0  0  0  0  0  0
  -32.3091   64.4149   65.6202 C   0  0  0  0  0  0  0  0  0  0  0  0
  -33.1034   65.8455   66.7194 H   0  0  0  0  0  0  0  0  0  0  0  0
  -31.6954   66.0721   60.9918 O   0  0  0  0  0  0  0  0  0  0  0  0
  -31.2932   68.0948   59.7451 O   0  0  0  0  0  0  0  0  0  0  0  0
  -29.8439   66.0710   59.3995 O   0  0  0  0  0  0  0  0  0  0  0  0
  -29.7346   67.3650   61.3870 O   0  0  0  0  0  0  0  0  0  0  0  0
  -30.6199   66.9371   60.2049 S   0  0  0  0  0  0  0  0  0  0  0  0
  -31.8635   67.8611   58.9961 H   0  0  0  0  0  0  0  0  0  0  0  0
  -30.2340   67.9626   61.9652 H   0  0  0  0  0  0  0  0  0  0  0  0
  2  1  1  0  0  0
  2  4  1  0  0  0
  2  5  1  0  0  0
 47 48  1  0  0  0
 47  1  1  0  0  0
 48 52  1  0  0  0
  1 30  1  0  0  0
 29 30  1  0  0  0
 29 31  1  0  0  0
 30 32  1  0  0  0
  3  4  2  0  0  0
 32 33  2  0  0  0
 49 53  1  0  0  0
 49 57  1  0  0  0
 33 34  1  0  0  0
 62 54  1  0  0  0
 62 66  1  0  0  0
 34 35  1  0  0  0
 50 55  1  0  0  0
 50 58  1  0  0  0
 35 36  1  0  0  0
 51 52  1  0  0  0
 51 56  1  0  0  0
 36 37  1  0  0  0
 59 60  1  0  0  0
 59 61  1  0  0  0
 37 38  1  0  0  0
 63 66  1  0  0  0
 63 67  1  0  0  0
 38 39  1  0  0  0
 64 66  1  0  0  0
 39 40  1  0  0  0
 65 66  1  0  0  0
 65 68  1  0  0  0
 40 41  1  0  0  0
 41 42  1  0  0  0
 42 43  1  0  0  0
 43 44  1  0  0  0
 44 45  1  0  0  0
 45 46  1  0  0  0
  4  6  1  0  0  0
  6  7  1  0  0  0
  7  8  1  0  0  0
  8  9  1  0  0  0
  9 10  1  0  0  0
 10 11  1  0  0  0
 11 12  1  0  0  0
 12 13  1  0  0  0
 13 14  1  0  0  0
 14 15  1  0  0  0
 15 16  1  0  0  0
 16 17  1  0  0  0
 17 18  1  0  0  0
 18 19  1  0  0  0
 19 20  2  0  0  0
 20 21  1  0  0  0
 21 22  1  0  0  0
 22 23  1  0  0  0
 23 24  1  0  0  0
 24 25  1  0  0  0
 25 26  1  0  0  0
 26 27  1  0  0  0
 27 28  1  0  0  0
 52 53  1  0  0  0
 53 54  1  0  0  0
 54 55  1  0  0  0
 55 56  1  0  0  0
 56 60  1  0  0  0
M  CHG 1  64  -1
M  END
> <minimizedAffinity>
-9.02394

> <CNNscore>
0.2519848347

> <CNNaffinity>
7.2543692589

> <CNN_VS>
1.8279910088

> <CNNaffinity_variance>
0.9523035288

$$$$
/media/chris/experiments/cd1a-new-docking/inputs/ligands/7ryn_ligand.pdb


 68 68  0  0  0  0  0  0  0  0999 V2000
  -38.3806   59.7290   61.8195 C   0  0  0  0  0  0  0  0  0  0  0  0
  -39.7092   59.2948   61.3980 N   0  0  0  0  0  0  0  0  0  0  0  0
  -39.1005   58.6544   59.3275 O   0  0  0  0  0  0  0  0  0  0  0  0
  -39.9658   58.7923   60.1873 C   0  0  0  0  0  0  0  0  0  0  0  0
  -40.4529   59.3766   62.0379 H   0  0  0  0  0  0  0  0  0  0  0  0
  -41.3984   58.3916   59.9376 C   0  0  0  0  0  0  0  0  0  0  0  0
  -41.7735   57.0932   60.6402 C   0  0  0  0  0  0  0  0  0  0  0  0
  -41.9901   57.2759   62.1338 C   0  0  0  0  0  0  0  0  0  0  0  0
  -41.0174   56.4910   62.9981 C   0  0  0  0  0  0  0  0  0  0  0  0
  -41.6713   55.7906   64.1797 C   0  0  0  0  0  0  0  0  0  0  0  0
  -42.9320   56.4784   64.6877 C   0  0  0  0  0  0  0  0  0  0  0  0
  -42.6954   57.4001   65.8771 C   0  0  0  0  0  0  0  0  0  0  0  0
  -43.7791   58.4547   66.0871 C   0  0  0  0  0  0  0  0  0  0  0  0
  -44.8326   58.4929   64.9811 C   0  0  0  0  0  0  0  0  0  0  0  0
  -46.2431   58.1135   65.4314 C   0  0  0  0  0  0  0  0  0  0  0  0
  -47.3011   59.1524   65.0594 C   0  0  0  0  0  0  0  0  0  0  0  0
  -48.3499   59.4229   66.1381 C   0  0  0  0  0  0  0  0  0  0  0  0
  -49.6642   58.6566   65.9665 C   0  0  0  0  0  0  0  0  0  0  0  0
  -50.8017   59.5380   65.5384 C   0  0  0  0  0  0  0  0  0  0  0  0
  -51.2450   59.6919   64.3032 C   0  0  0  0  0  0  0  0  0  0  0  0
  -50.7028   59.0148   63.0809 C   0  0  0  0  0  0  0  0  0  0  0  0
  -49.7335   59.8834   62.2762 C   0  0  0  0  0  0  0  0  0  0  0  0
  -49.6580   59.4968   60.8051 C   0  0  0  0  0  0  0  0  0  0  0  0
  -49.3438   58.0216   60.5828 C   0  0  0  0  0  0  0  0  0  0  0  0
  -49.0390   57.6523   59.1356 C   0  0  0  0  0  0  0  0  0  0  0  0
  -48.1011   56.4621   58.9912 C   0  0  0  0  0  0  0  0  0  0  0  0
  -46.9947   56.6622   57.9677 C   0  0  0  0  0  0  0  0  0  0  0  0
  -47.3739   57.6393   56.8735 C   0  0  0  0  0  0  0  0  0  0  0  0
  -37.7671   58.9605   64.0258 O   0  0  0  0  0  0  0  0  0  0  0  0
  -37.7157   58.6116   62.6395 C   0  0  0  0  0  0  0  0  0  0  0  0
  -38.6891   59.1088   64.2879 H   0  0  0  0  0  0  0  0  0  0  0  0
  -36.3038   58.3746   62.1985 C   0  0  0  0  0  0  0  0  0  0  0  0
  -35.3784   57.7662   62.9136 C   0  0  0  0  0  0  0  0  0  0  0  0
  -33.9817   57.5318   62.4393 C   0  0  0  0  0  0  0  0  0  0  0  0
  -32.9614   58.0416   63.4592 C   0  0  0  0  0  0  0  0  0  0  0  0
  -32.0528   59.1417   62.9351 C   0  0  0  0  0  0  0  0  0  0  0  0
  -32.7088   60.5097   62.8576 C   0  0  0  0  0  0  0  0  0  0  0  0
  -31.9553   61.5092   61.9921 C   0  0  0  0  0  0  0  0  0  0  0  0
  -30.6429   60.9729   61.4414 C   0  0  0  0  0  0  0  0  0  0  0  0
  -29.4160   61.6901   61.9769 C   0  0  0  0  0  0  0  0  0  0  0  0
  -29.7166   62.6929   63.0753 C   0  0  0  0  0  0  0  0  0  0  0  0
  -29.4305   64.1337   62.6884 C   0  0  0  0  0  0  0  0  0  0  0  0
  -29.7838   64.4421   61.2453 C   0  0  0  0  0  0  0  0  0  0  0  0
  -30.0361   65.9106   60.9624 C   0  0  0  0  0  0  0  0  0  0  0  0
  -30.9027   66.1273   59.7373 C   0  0  0  0  0  0  0  0  0  0  0  0
  -30.8873   67.5657   59.2627 C   0  0  0  0  0  0  0  0  0  0  0  0
  -38.4801   61.0240   62.5988 C   0  0  0  0  0  0  0  0  0  0  0  0
  -37.2511   61.7414   62.4391 O   0  0  0  0  0  0  0  0  0  0  0  0
  -34.8998   63.2613   62.4935 O   0  0  0  0  0  0  0  0  0  0  0  0
  -36.7312   63.9157   66.3327 O   0  0  0  0  0  0  0  0  0  0  0  0
  -37.2291   61.5712   64.7410 O   0  0  0  0  0  0  0  0  0  0  0  0
  -36.4427   61.7594   63.5793 C   0  0  0  0  0  0  0  0  0  0  0  0
  -35.7345   63.1069   63.6343 C   0  0  0  0  0  0  0  0  0  0  0  0
  -34.9075   63.2056   64.9099 C   0  0  0  0  0  0  0  0  0  0  0  0
  -35.7548   62.8981   66.1359 C   0  0  0  0  0  0  0  0  0  0  0  0
  -36.4551   61.5542   65.9511 C   0  0  0  0  0  0  0  0  0  0  0  0
  -35.4372   63.1966   61.6885 H   0  0  0  0  0  0  0  0  0  0  0  0
  -36.2883   64.7706   66.4503 H   0  0  0  0  0  0  0  0  0  0  0  0
  -38.5901   60.5944   66.5909 O   0  0  0  0  0  0  0  0  0  0  0  0
  -37.4078   61.2208   67.0752 C   0  0  0  0  0  0  0  0  0  0  0  0
  -39.1783   60.3942   67.3358 H   0  0  0  0  0  0  0  0  0  0  0  0
  -34.4674   64.5996   64.9580 O   0  0  0  0  0  0  0  0  0  0  0  0
  -32.5805   66.0259   64.4968 O   0  0  0  0  0  0  0  0  0  0  0  0
  -32.2358   63.6782   65.3244 O   0  0  0  0  0  0  0  0  0  0  0  0
  -33.0883   65.3896   66.7318 O   0  0  0  0  0  0  0  0  0  0  0  0
  -32.9417   64.9032   65.2805 S   0  0  0  0  0  0  0  0  0  0  0  0
  -32.4790   65.7548   63.5710 H   0  0  0  0  0  0  0  0  0  0  0  0
  -33.5697   66.2317   66.7435 H   0  0  0  0  0  0  0  0  0  0  0  0
  2  1  1  0  0  0
  2  4  1  0  0  0
  2  5  1  0  0  0
 47 48  1  0  0  0
 47  1  1  0  0  0
 48 52  1  0  0  0
  1 30  1  0  0  0
 29 30  1  0  0  0
 29 31  1  0  0  0
 30 32  1  0  0  0
  3  4  2  0  0  0
 32 33  2  0  0  0
 49 53  1  0  0  0
 49 57  1  0  0  0
 33 34  1  0  0  0
 62 54  1  0  0  0
 62 66  1  0  0  0
 34 35  1  0  0  0
 50 55  1  0  0  0
 50 58  1  0  0  0
 35 36  1  0  0  0
 51 52  1  0  0  0
 51 56  1  0  0  0
 36 37  1  0  0  0
 59 60  1  0  0  0
 59 61  1  0  0  0
 37 38  1  0  0  0
 63 66  1  0  0  0
 63 67  1  0  0  0
 38 39  1  0  0  0
 64 66  1  0  0  0
 39 40  1  0  0  0
 65 66  1  0  0  0
 65 68  1  0  0  0
 40 41  1  0  0  0
 41 42  1  0  0  0
 42 43  1  0  0  0
 43 44  1  0  0  0
 44 45  1  0  0  0
 45 46  1  0  0  0
  4  6  1  0  0  0
  6  7  1  0  0  0
  7  8  1  0  0  0
  8  9  1  0  0  0
  9 10  1  0  0  0
 10 11  1  0  0  0
 11 12  1  0  0  0
 12 13  1  0  0  0
 13 14  1  0  0  0
 14 15  1  0  0  0
 15 16  1  0  0  0
 16 17  1  0  0  0
 17 18  1  0  0  0
 18 19  1  0  0  0
 19 20  2  0  0  0
 20 21  1  0  0  0
 21 22  1  0  0  0
 22 23  1  0  0  0
 23 24  1  0  0  0
 24 25  1  0  0  0
 25 26  1  0  0  0
 26 27  1  0  0  0
 27 28  1  0  0  0
 52 53  1  0  0  0
 53 54  1  0  0  0
 54 55  1  0  0  0
 55 56  1  0  0  0
 56 60  1  0  0  0
M  CHG 1  64  -1
M  END
> <minimizedAffinity>
-9.31732

> <CNNscore>
0.2405458242

> <CNNaffinity>
7.0002717972

> <CNN_VS>
1.6838861704

> <CNNaffinity_variance>
0.6799125671

$$$$
/media/chris/experiments/cd1a-new-docking/inputs/ligands/7ryn_ligand.pdb


 68 68  0  0  0  0  0  0  0  0999 V2000
  -31.1156   62.7294   62.4093 C   0  0  0  0  0  0  0  0  0  0  0  0
  -32.3915   62.6430   63.1136 N   0  0  0  0  0  0  0  0  0  0  0  0
  -33.6214   63.5986   61.4881 O   0  0  0  0  0  0  0  0  0  0  0  0
  -33.5431   63.0834   62.5996 C   0  0  0  0  0  0  0  0  0  0  0  0
  -32.4037   62.2403   64.0118 H   0  0  0  0  0  0  0  0  0  0  0  0
  -34.7593   62.9012   63.4732 C   0  0  0  0  0  0  0  0  0  0  0  0
  -34.4135   62.8606   64.9561 C   0  0  0  0  0  0  0  0  0  0  0  0
  -35.0513   61.6826   65.6751 C   0  0  0  0  0  0  0  0  0  0  0  0
  -36.5668   61.7582   65.7572 C   0  0  0  0  0  0  0  0  0  0  0  0
  -37.2811   60.6871   64.9467 C   0  0  0  0  0  0  0  0  0  0  0  0
  -38.4805   60.0706   65.6552 C   0  0  0  0  0  0  0  0  0  0  0  0
  -38.4718   58.5475   65.6710 C   0  0  0  0  0  0  0  0  0  0  0  0
  -39.4765   57.8981   64.7226 C   0  0  0  0  0  0  0  0  0  0  0  0
  -40.9166   58.3662   64.9262 C   0  0  0  0  0  0  0  0  0  0  0  0
  -41.9523   57.2428   64.9648 C   0  0  0  0  0  0  0  0  0  0  0  0
  -43.3960   57.7457   64.9757 C   0  0  0  0  0  0  0  0  0  0  0  0
  -43.9854   57.9911   66.3645 C   0  0  0  0  0  0  0  0  0  0  0  0
  -45.4749   58.3450   66.3797 C   0  0  0  0  0  0  0  0  0  0  0  0
  -46.0147   58.6550   65.0135 C   0  0  0  0  0  0  0  0  0  0  0  0
  -47.2049   59.1615   64.7432 C   0  0  0  0  0  0  0  0  0  0  0  0
  -48.2546   59.5311   65.7470 C   0  0  0  0  0  0  0  0  0  0  0  0
  -49.3901   58.5108   65.8528 C   0  0  0  0  0  0  0  0  0  0  0  0
  -50.7691   59.1203   65.6378 C   0  0  0  0  0  0  0  0  0  0  0  0
  -50.8231   60.0969   64.4684 C   0  0  0  0  0  0  0  0  0  0  0  0
  -51.1808   59.4602   63.1303 C   0  0  0  0  0  0  0  0  0  0  0  0
  -50.0639   59.5332   62.0987 C   0  0  0  0  0  0  0  0  0  0  0  0
  -49.6606   58.1856   61.5217 C   0  0  0  0  0  0  0  0  0  0  0  0
  -50.8420   57.3857   61.0114 C   0  0  0  0  0  0  0  0  0  0  0  0
  -30.8665   61.1759   60.5765 O   0  0  0  0  0  0  0  0  0  0  0  0
  -30.6708   61.3202   61.9862 C   0  0  0  0  0  0  0  0  0  0  0  0
  -30.3770   61.8708   60.1093 H   0  0  0  0  0  0  0  0  0  0  0  0
  -31.4139   60.2613   62.7415 C   0  0  0  0  0  0  0  0  0  0  0  0
  -32.2336   59.3802   62.2032 C   0  0  0  0  0  0  0  0  0  0  0  0
  -32.9491   58.3259   62.9823 C   0  0  0  0  0  0  0  0  0  0  0  0
  -34.1329   58.9174   63.7503 C   0  0  0  0  0  0  0  0  0  0  0  0
  -35.0471   57.8799   64.3817 C   0  0  0  0  0  0  0  0  0  0  0  0
  -35.9331   57.1430   63.3919 C   0  0  0  0  0  0  0  0  0  0  0  0
  -36.5887   58.0456   62.3570 C   0  0  0  0  0  0  0  0  0  0  0  0
  -37.8927   57.4927   61.8026 C   0  0  0  0  0  0  0  0  0  0  0  0
  -38.6380   58.4660   60.9062 C   0  0  0  0  0  0  0  0  0  0  0  0
  -40.0167   57.9897   60.4884 C   0  0  0  0  0  0  0  0  0  0  0  0
  -41.0218   59.1116   60.2910 C   0  0  0  0  0  0  0  0  0  0  0  0
  -40.9684   60.1564   61.3900 C   0  0  0  0  0  0  0  0  0  0  0  0
  -42.1905   60.1837   62.2879 C   0  0  0  0  0  0  0  0  0  0  0  0
  -42.4085   61.5379   62.9340 C   0  0  0  0  0  0  0  0  0  0  0  0
  -43.1206   62.5105   62.0169 C   0  0  0  0  0  0  0  0  0  0  0  0
  -30.0847   63.4125   63.2839 C   0  0  0  0  0  0  0  0  0  0  0  0
  -29.2137   64.1756   62.4414 O   0  0  0  0  0  0  0  0  0  0  0  0
  -29.0513   65.2061   59.8428 O   0  0  0  0  0  0  0  0  0  0  0  0
  -32.9348   66.3958   61.2660 O   0  0  0  0  0  0  0  0  0  0  0  0
  -30.7355   65.8098   63.0260 O   0  0  0  0  0  0  0  0  0  0  0  0
  -29.6710   65.4658   62.1588 C   0  0  0  0  0  0  0  0  0  0  0  0
  -30.1411   65.4929   60.7101 C   0  0  0  0  0  0  0  0  0  0  0  0
  -30.7304   66.8590   60.3823 C   0  0  0  0  0  0  0  0  0  0  0  0
  -31.8012   67.2486   61.3907 C   0  0  0  0  0  0  0  0  0  0  0  0
  -31.2381   67.1374   62.8053 C   0  0  0  0  0  0  0  0  0  0  0  0
  -28.6850   64.3348   60.0611 H   0  0  0  0  0  0  0  0  0  0  0  0
  -33.2942   66.4649   60.3677 H   0  0  0  0  0  0  0  0  0  0  0  0
  -33.1943   66.3231   63.9880 O   0  0  0  0  0  0  0  0  0  0  0  0
  -32.2693   67.3988   63.8780 C   0  0  0  0  0  0  0  0  0  0  0  0
  -33.8406   66.5223   64.6833 H   0  0  0  0  0  0  0  0  0  0  0  0
  -31.3399   66.6916   59.0634 O   0  0  0  0  0  0  0  0  0  0  0  0
  -31.6000   67.2620   56.7365 O   0  0  0  0  0  0  0  0  0  0  0  0
  -29.3687   67.4975   57.8684 O   0  0  0  0  0  0  0  0  0  0  0  0
  -31.1775   68.9580   58.3497 O   0  0  0  0  0  0  0  0  0  0  0  0
  -30.7819   67.5574   57.8538 S   0  0  0  0  0  0  0  0  0  0  0  0
  -31.3768   66.3815   56.3961 H   0  0  0  0  0  0  0  0  0  0  0  0
  -32.1442   69.0384   58.3540 H   0  0  0  0  0  0  0  0  0  0  0  0
  2  1  1  0  0  0
  2  4  1  0  0  0
  2  5  1  0  0  0
 47 48  1  0  0  0
 47  1  1  0  0  0
 48 52  1  0  0  0
  1 30  1  0  0  0
 29 30  1  0  0  0
 29 31  1  0  0  0
 30 32  1  0  0  0
  3  4  2  0  0  0
 32 33  2  0  0  0
 49 53  1  0  0  0
 49 57  1  0  0  0
 33 34  1  0  0  0
 62 54  1  0  0  0
 62 66  1  0  0  0
 34 35  1  0  0  0
 50 55  1  0  0  0
 50 58  1  0  0  0
 35 36  1  0  0  0
 51 52  1  0  0  0
 51 56  1  0  0  0
 36 37  1  0  0  0
 59 60  1  0  0  0
 59 61  1  0  0  0
 37 38  1  0  0  0
 63 66  1  0  0  0
 63 67  1  0  0  0
 38 39  1  0  0  0
 64 66  1  0  0  0
 39 40  1  0  0  0
 65 66  1  0  0  0
 65 68  1  0  0  0
 40 41  1  0  0  0
 41 42  1  0  0  0
 42 43  1  0  0  0
 43 44  1  0  0  0
 44 45  1  0  0  0
 45 46  1  0  0  0
  4  6  1  0  0  0
  6  7  1  0  0  0
  7  8  1  0  0  0
  8  9  1  0  0  0
  9 10  1  0  0  0
 10 11  1  0  0  0
 11 12  1  0  0  0
 12 13  1  0  0  0
 13 14  1  0  0  0
 14 15  1  0  0  0
 15 16  1  0  0  0
 16 17  1  0  0  0
 17 18  1  0  0  0
 18 19  1  0  0  0
 19 20  2  0  0  0
 20 21  1  0  0  0
 21 22  1  0  0  0
 22 23  1  0  0  0
 23 24  1  0  0  0
 24 25  1  0  0  0
 25 26  1  0  0  0
 26 27  1  0  0  0
 27 28  1  0  0  0
 52 53  1  0  0  0
 53 54  1  0  0  0
 54 55  1  0  0  0
 55 56  1  0  0  0
 56 60  1  0  0  0
M  CHG 1  64  -1
M  END
> <minimizedAffinity>
-9.02519

> <CNNscore>
0.2228365690

> <CNNaffinity>
6.8385405540

> <CNN_VS>
1.5238769054

> <CNNaffinity_variance>
1.6865711212

$$$$
/media/chris/experiments/cd1a-new-docking/inputs/ligands/7ryn_ligand.pdb


 68 68  0  0  0  0  0  0  0  0999 V2000
  -34.1907   62.0338   64.4750 C   0  0  0  0  0  0  0  0  0  0  0  0
  -35.1514   61.0185   64.8962 N   0  0  0  0  0  0  0  0  0  0  0  0
  -36.9861   62.1445   64.2374 O   0  0  0  0  0  0  0  0  0  0  0  0
  -36.4719   61.1522   64.7452 C   0  0  0  0  0  0  0  0  0  0  0  0
  -34.8091   60.1946   65.3123 H   0  0  0  0  0  0  0  0  0  0  0  0
  -37.3050   59.9939   65.2346 C   0  0  0  0  0  0  0  0  0  0  0  0
  -38.7711   60.1204   64.8409 C   0  0  0  0  0  0  0  0  0  0  0  0
  -39.6852   59.2613   65.6998 C   0  0  0  0  0  0  0  0  0  0  0  0
  -41.1280   59.7374   65.7309 C   0  0  0  0  0  0  0  0  0  0  0  0
  -42.0040   58.9820   66.7192 C   0  0  0  0  0  0  0  0  0  0  0  0
  -42.5237   57.6498   66.1942 C   0  0  0  0  0  0  0  0  0  0  0  0
  -43.5846   57.7856   65.1096 C   0  0  0  0  0  0  0  0  0  0  0  0
  -44.9271   58.3223   65.5999 C   0  0  0  0  0  0  0  0  0  0  0  0
  -45.5350   57.5207   66.7498 C   0  0  0  0  0  0  0  0  0  0  0  0
  -47.0327   57.7428   66.9594 C   0  0  0  0  0  0  0  0  0  0  0  0
  -47.4046   59.2077   67.1896 C   0  0  0  0  0  0  0  0  0  0  0  0
  -48.5469   59.7300   66.3184 C   0  0  0  0  0  0  0  0  0  0  0  0
  -48.5444   59.2170   64.8759 C   0  0  0  0  0  0  0  0  0  0  0  0
  -48.8254   60.2976   63.8721 C   0  0  0  0  0  0  0  0  0  0  0  0
  -49.7139   60.2412   62.8957 C   0  0  0  0  0  0  0  0  0  0  0  0
  -50.6223   59.0875   62.5957 C   0  0  0  0  0  0  0  0  0  0  0  0
  -49.9115   57.8987   61.9452 C   0  0  0  0  0  0  0  0  0  0  0  0
  -50.6068   57.3965   60.6868 C   0  0  0  0  0  0  0  0  0  0  0  0
  -49.9366   57.8615   59.3988 C   0  0  0  0  0  0  0  0  0  0  0  0
  -48.4878   57.4135   59.2439 C   0  0  0  0  0  0  0  0  0  0  0  0
  -47.7044   58.2169   58.2152 C   0  0  0  0  0  0  0  0  0  0  0  0
  -47.1976   57.3967   57.0396 C   0  0  0  0  0  0  0  0  0  0  0  0
  -47.4925   55.9173   57.1825 C   0  0  0  0  0  0  0  0  0  0  0  0
  -33.4231   61.9551   62.1859 O   0  0  0  0  0  0  0  0  0  0  0  0
  -33.1905   61.4104   63.4881 C   0  0  0  0  0  0  0  0  0  0  0  0
  -33.3492   62.9215   62.2218 H   0  0  0  0  0  0  0  0  0  0  0  0
  -33.2969   59.9163   63.4708 C   0  0  0  0  0  0  0  0  0  0  0  0
  -33.3635   59.1736   62.3837 C   0  0  0  0  0  0  0  0  0  0  0  0
  -33.4541   57.6829   62.3994 C   0  0  0  0  0  0  0  0  0  0  0  0
  -34.7955   57.2192   62.9708 C   0  0  0  0  0  0  0  0  0  0  0  0
  -36.0019   57.9422   62.3940 C   0  0  0  0  0  0  0  0  0  0  0  0
  -37.3379   57.3188   62.7605 C   0  0  0  0  0  0  0  0  0  0  0  0
  -38.4471   57.5981   61.7569 C   0  0  0  0  0  0  0  0  0  0  0  0
  -38.0975   58.6785   60.7449 C   0  0  0  0  0  0  0  0  0  0  0  0
  -39.2002   58.9531   59.7376 C   0  0  0  0  0  0  0  0  0  0  0  0
  -40.3570   57.9736   59.8050 C   0  0  0  0  0  0  0  0  0  0  0  0
  -41.6839   58.6128   60.1770 C   0  0  0  0  0  0  0  0  0  0  0  0
  -42.0462   58.4212   61.6379 C   0  0  0  0  0  0  0  0  0  0  0  0
  -41.9798   59.6869   62.4708 C   0  0  0  0  0  0  0  0  0  0  0  0
  -41.9324   60.9416   61.6209 C   0  0  0  0  0  0  0  0  0  0  0  0
  -42.9487   61.9766   62.0570 C   0  0  0  0  0  0  0  0  0  0  0  0
  -33.5001   62.6292   65.6845 C   0  0  0  0  0  0  0  0  0  0  0  0
  -34.0705   63.9177   65.9399 O   0  0  0  0  0  0  0  0  0  0  0  0
  -31.4543   64.9148   65.9890 O   0  0  0  0  0  0  0  0  0  0  0  0
  -32.3809   64.4399   61.8131 O   0  0  0  0  0  0  0  0  0  0  0  0
  -34.3986   64.8001   63.8324 O   0  0  0  0  0  0  0  0  0  0  0  0
  -33.6720   64.9119   65.0419 C   0  0  0  0  0  0  0  0  0  0  0  0
  -32.1813   64.7405   64.7794 C   0  0  0  0  0  0  0  0  0  0  0  0
  -31.7196   65.7506   63.7366 C   0  0  0  0  0  0  0  0  0  0  0  0
  -32.5833   65.6785   62.4859 C   0  0  0  0  0  0  0  0  0  0  0  0
  -34.0547   65.8105   62.8707 C   0  0  0  0  0  0  0  0  0  0  0  0
  -31.7569   64.2668   66.6444 H   0  0  0  0  0  0  0  0  0  0  0  0
  -31.4465   64.3541   61.5678 H   0  0  0  0  0  0  0  0  0  0  0  0
  -35.0651   64.2788   61.2826 O   0  0  0  0  0  0  0  0  0  0  0  0
  -34.9934   65.6374   61.6996 C   0  0  0  0  0  0  0  0  0  0  0  0
  -35.6742   64.2029   60.5316 H   0  0  0  0  0  0  0  0  0  0  0  0
  -30.3527   65.3455   63.4097 O   0  0  0  0  0  0  0  0  0  0  0  0
  -29.7166   67.2794   64.6991 O   0  0  0  0  0  0  0  0  0  0  0  0
  -28.3212   66.5283   62.7486 O   0  0  0  0  0  0  0  0  0  0  0  0
  -28.4034   65.2978   64.7773 O   0  0  0  0  0  0  0  0  0  0  0  0
  -29.1537   66.2827   63.8656 S   0  0  0  0  0  0  0  0  0  0  0  0
  -30.1997   67.9209   64.1549 H   0  0  0  0  0  0  0  0  0  0  0  0
  -28.9449   65.1036   65.5583 H   0  0  0  0  0  0  0  0  0  0  0  0
  2  1  1  0  0  0
  2  4  1  0  0  0
  2  5  1  0  0  0
 47 48  1  0  0  0
 47  1  1  0  0  0
 48 52  1  0  0  0
  1 30  1  0  0  0
 29 30  1  0  0  0
 29 31  1  0  0  0
 30 32  1  0  0  0
  3  4  2  0  0  0
 32 33  2  0  0  0
 49 53  1  0  0  0
 49 57  1  0  0  0
 33 34  1  0  0  0
 62 54  1  0  0  0
 62 66  1  0  0  0
 34 35  1  0  0  0
 50 55  1  0  0  0
 50 58  1  0  0  0
 35 36  1  0  0  0
 51 52  1  0  0  0
 51 56  1  0  0  0
 36 37  1  0  0  0
 59 60  1  0  0  0
 59 61  1  0  0  0
 37 38  1  0  0  0
 63 66  1  0  0  0
 63 67  1  0  0  0
 38 39  1  0  0  0
 64 66  1  0  0  0
 39 40  1  0  0  0
 65 66  1  0  0  0
 65 68  1  0  0  0
 40 41  1  0  0  0
 41 42  1  0  0  0
 42 43  1  0  0  0
 43 44  1  0  0  0
 44 45  1  0  0  0
 45 46  1  0  0  0
  4  6  1  0  0  0
  6  7  1  0  0  0
  7  8  1  0  0  0
  8  9  1  0  0  0
  9 10  1  0  0  0
 10 11  1  0  0  0
 11 12  1  0  0  0
 12 13  1  0  0  0
 13 14  1  0  0  0
 14 15  1  0  0  0
 15 16  1  0  0  0
 16 17  1  0  0  0
 17 18  1  0  0  0
 18 19  1  0  0  0
 19 20  2  0  0  0
 20 21  1  0  0  0
 21 22  1  0  0  0
 22 23  1  0  0  0
 23 24  1  0  0  0
 24 25  1  0  0  0
 25 26  1  0  0  0
 26 27  1  0  0  0
 27 28  1  0  0  0
 52 53  1  0  0  0
 53 54  1  0  0  0
 54 55  1  0  0  0
 55 56  1  0  0  0
 56 60  1  0  0  0
M  CHG 1  64  -1
M  END
> <minimizedAffinity>
-9.61587

> <CNNscore>
0.2129113823

> <CNNaffinity>
7.1594953537

> <CNN_VS>
1.5243380070

> <CNNaffinity_variance>
1.6134055853

$$$$
/media/chris/experiments/cd1a-new-docking/inputs/ligands/7ryn_ligand.pdb


 68 68  0  0  0  0  0  0  0  0999 V2000
  -34.2085   61.5293   64.2079 C   0  0  0  0  0  0  0  0  0  0  0  0
  -35.2953   61.1955   65.1237 N   0  0  0  0  0  0  0  0  0  0  0  0
  -36.8689   62.4167   64.0747 O   0  0  0  0  0  0  0  0  0  0  0  0
  -36.5386   61.6640   64.9866 C   0  0  0  0  0  0  0  0  0  0  0  0
  -35.1023   60.5953   65.8798 H   0  0  0  0  0  0  0  0  0  0  0  0
  -37.5283   61.2020   66.0269 C   0  0  0  0  0  0  0  0  0  0  0  0
  -38.5310   60.1970   65.4747 C   0  0  0  0  0  0  0  0  0  0  0  0
  -39.6703   59.9139   66.4407 C   0  0  0  0  0  0  0  0  0  0  0  0
  -41.0396   60.3041   65.9097 C   0  0  0  0  0  0  0  0  0  0  0  0
  -42.1973   59.7369   66.7175 C   0  0  0  0  0  0  0  0  0  0  0  0
  -42.7736   58.4452   66.1519 C   0  0  0  0  0  0  0  0  0  0  0  0
  -43.7105   58.6536   64.9691 C   0  0  0  0  0  0  0  0  0  0  0  0
  -45.1614   58.2584   65.2326 C   0  0  0  0  0  0  0  0  0  0  0  0
  -45.4897   58.0451   66.7094 C   0  0  0  0  0  0  0  0  0  0  0  0
  -46.9766   57.8604   67.0113 C   0  0  0  0  0  0  0  0  0  0  0  0
  -47.7983   59.1365   66.8281 C   0  0  0  0  0  0  0  0  0  0  0  0
  -49.0869   58.9667   66.0235 C   0  0  0  0  0  0  0  0  0  0  0  0
  -48.9243   58.2240   64.6946 C   0  0  0  0  0  0  0  0  0  0  0  0
  -48.7706   59.1508   63.5235 C   0  0  0  0  0  0  0  0  0  0  0  0
  -49.7034   59.4431   62.6344 C   0  0  0  0  0  0  0  0  0  0  0  0
  -51.1040   58.9099   62.6180 C   0  0  0  0  0  0  0  0  0  0  0  0
  -51.2975   57.7199   61.6758 C   0  0  0  0  0  0  0  0  0  0  0  0
  -50.3567   57.7407   60.4784 C   0  0  0  0  0  0  0  0  0  0  0  0
  -49.4891   56.4919   60.3690 C   0  0  0  0  0  0  0  0  0  0  0  0
  -48.2241   56.6728   59.5379 C   0  0  0  0  0  0  0  0  0  0  0  0
  -48.1790   57.9853   58.7682 C   0  0  0  0  0  0  0  0  0  0  0  0
  -47.3569   57.9295   57.4904 C   0  0  0  0  0  0  0  0  0  0  0  0
  -47.0795   56.5129   57.0296 C   0  0  0  0  0  0  0  0  0  0  0  0
  -32.9166   60.4783   62.4583 O   0  0  0  0  0  0  0  0  0  0  0  0
  -33.5324   60.2355   63.7265 C   0  0  0  0  0  0  0  0  0  0  0  0
  -32.2880   61.2124   62.5394 H   0  0  0  0  0  0  0  0  0  0  0  0
  -34.5118   59.1054   63.6390 C   0  0  0  0  0  0  0  0  0  0  0  0
  -34.8277   58.4599   62.5338 C   0  0  0  0  0  0  0  0  0  0  0  0
  -35.7984   57.3259   62.4818 C   0  0  0  0  0  0  0  0  0  0  0  0
  -36.9708   57.5610   63.4364 C   0  0  0  0  0  0  0  0  0  0  0  0
  -38.3318   57.2328   62.8443 C   0  0  0  0  0  0  0  0  0  0  0  0
  -39.4902   57.3941   63.8139 C   0  0  0  0  0  0  0  0  0  0  0  0
  -40.8219   56.8913   63.2761 C   0  0  0  0  0  0  0  0  0  0  0  0
  -40.8270   56.6651   61.7720 C   0  0  0  0  0  0  0  0  0  0  0  0
  -41.6161   57.7073   60.9992 C   0  0  0  0  0  0  0  0  0  0  0  0
  -42.0708   58.8864   61.8391 C   0  0  0  0  0  0  0  0  0  0  0  0
  -41.4352   60.2074   61.4406 C   0  0  0  0  0  0  0  0  0  0  0  0
  -40.2708   60.5984   62.3315 C   0  0  0  0  0  0  0  0  0  0  0  0
  -38.9054   60.3895   61.7051 C   0  0  0  0  0  0  0  0  0  0  0  0
  -38.9862   60.0704   60.2251 C   0  0  0  0  0  0  0  0  0  0  0  0
  -38.0736   58.9289   59.8269 C   0  0  0  0  0  0  0  0  0  0  0  0
  -33.2284   62.4654   64.8842 C   0  0  0  0  0  0  0  0  0  0  0  0
  -33.2265   63.7074   64.1713 O   0  0  0  0  0  0  0  0  0  0  0  0
  -32.8953   66.0629   62.6937 O   0  0  0  0  0  0  0  0  0  0  0  0
  -28.9142   64.5139   63.2168 O   0  0  0  0  0  0  0  0  0  0  0  0
  -31.2630   62.8547   63.3077 O   0  0  0  0  0  0  0  0  0  0  0  0
  -32.3373   63.7512   63.0937 C   0  0  0  0  0  0  0  0  0  0  0  0
  -31.8172   65.1775   62.9691 C   0  0  0  0  0  0  0  0  0  0  0  0
  -30.7758   65.2538   61.8597 C   0  0  0  0  0  0  0  0  0  0  0  0
  -29.6866   64.2103   62.0597 C   0  0  0  0  0  0  0  0  0  0  0  0
  -30.3214   62.8315   62.2230 C   0  0  0  0  0  0  0  0  0  0  0  0
  -33.5510   66.0053   63.4062 H   0  0  0  0  0  0  0  0  0  0  0  0
  -28.5099   65.3897   63.1151 H   0  0  0  0  0  0  0  0  0  0  0  0
  -29.0180   60.9610   61.3915 O   0  0  0  0  0  0  0  0  0  0  0  0
  -29.3169   61.7481   62.5387 C   0  0  0  0  0  0  0  0  0  0  0  0
  -28.3722   60.2770   61.6280 H   0  0  0  0  0  0  0  0  0  0  0  0
  -30.1987   66.5918   61.9861 O   0  0  0  0  0  0  0  0  0  0  0  0
  -29.7059   66.7113   59.6302 O   0  0  0  0  0  0  0  0  0  0  0  0
  -29.5969   68.7718   61.0649 O   0  0  0  0  0  0  0  0  0  0  0  0
  -31.6624   67.7450   60.5028 O   0  0  0  0  0  0  0  0  0  0  0  0
  -30.1537   67.5236   60.7002 S   0  0  0  0  0  0  0  0  0  0  0  0
  -28.7538   66.5506   59.7229 H   0  0  0  0  0  0  0  0  0  0  0  0
  -32.0818   66.9075   60.2507 H   0  0  0  0  0  0  0  0  0  0  0  0
  2  1  1  0  0  0
  2  4  1  0  0  0
  2  5  1  0  0  0
 47 48  1  0  0  0
 47  1  1  0  0  0
 48 52  1  0  0  0
  1 30  1  0  0  0
 29 30  1  0  0  0
 29 31  1  0  0  0
 30 32  1  0  0  0
  3  4  2  0  0  0
 32 33  2  0  0  0
 49 53  1  0  0  0
 49 57  1  0  0  0
 33 34  1  0  0  0
 62 54  1  0  0  0
 62 66  1  0  0  0
 34 35  1  0  0  0
 50 55  1  0  0  0
 50 58  1  0  0  0
 35 36  1  0  0  0
 51 52  1  0  0  0
 51 56  1  0  0  0
 36 37  1  0  0  0
 59 60  1  0  0  0
 59 61  1  0  0  0
 37 38  1  0  0  0
 63 66  1  0  0  0
 63 67  1  0  0  0
 38 39  1  0  0  0
 64 66  1  0  0  0
 39 40  1  0  0  0
 65 66  1  0  0  0
 65 68  1  0  0  0
 40 41  1  0  0  0
 41 42  1  0  0  0
 42 43  1  0  0  0
 43 44  1  0  0  0
 44 45  1  0  0  0
 45 46  1  0  0  0
  4  6  1  0  0  0
  6  7  1  0  0  0
  7  8  1  0  0  0
  8  9  1  0  0  0
  9 10  1  0  0  0
 10 11  1  0  0  0
 11 12  1  0  0  0
 12 13  1  0  0  0
 13 14  1  0  0  0
 14 15  1  0  0  0
 15 16  1  0  0  0
 16 17  1  0  0  0
 17 18  1  0  0  0
 18 19  1  0  0  0
 19 20  2  0  0  0
 20 21  1  0  0  0
 21 22  1  0  0  0
 22 23  1  0  0  0
 23 24  1  0  0  0
 24 25  1  0  0  0
 25 26  1  0  0  0
 26 27  1  0  0  0
 27 28  1  0  0  0
 52 53  1  0  0  0
 53 54  1  0  0  0
 54 55  1  0  0  0
 55 56  1  0  0  0
 56 60  1  0  0  0
M  CHG 1  64  -1
M  END
> <minimizedAffinity>
-9.02048

> <CNNscore>
0.2089438140

> <CNNaffinity>
7.1584424973

> <CNN_VS>
1.4957122803

> <CNNaffinity_variance>
1.0259692669

$$$$
/media/chris/experiments/cd1a-new-docking/inputs/ligands/7ryn_ligand.pdb


 68 68  0  0  0  0  0  0  0  0999 V2000
  -35.3512   61.8181   64.0311 C   0  0  0  0  0  0  0  0  0  0  0  0
  -36.0272   60.7846   63.2525 N   0  0  0  0  0  0  0  0  0  0  0  0
  -37.8030   62.0450   62.6820 O   0  0  0  0  0  0  0  0  0  0  0  0
  -37.1982   60.9776   62.6396 C   0  0  0  0  0  0  0  0  0  0  0  0
  -35.5986   59.9016   63.1754 H   0  0  0  0  0  0  0  0  0  0  0  0
  -37.7375   59.7940   61.8756 C   0  0  0  0  0  0  0  0  0  0  0  0
  -38.6544   60.2053   60.7308 C   0  0  0  0  0  0  0  0  0  0  0  0
  -39.4315   59.0339   60.1520 C   0  0  0  0  0  0  0  0  0  0  0  0
  -39.6709   57.9047   61.1403 C   0  0  0  0  0  0  0  0  0  0  0  0
  -41.0146   57.2120   60.9694 C   0  0  0  0  0  0  0  0  0  0  0  0
  -41.9316   57.3310   62.1800 C   0  0  0  0  0  0  0  0  0  0  0  0
  -42.5021   58.7281   62.3868 C   0  0  0  0  0  0  0  0  0  0  0  0
  -42.8433   59.0652   63.8361 C   0  0  0  0  0  0  0  0  0  0  0  0
  -42.9734   57.8438   64.7449 C   0  0  0  0  0  0  0  0  0  0  0  0
  -44.4008   57.5333   65.1944 C   0  0  0  0  0  0  0  0  0  0  0  0
  -45.3071   58.7638   65.2369 C   0  0  0  0  0  0  0  0  0  0  0  0
  -46.7076   58.5563   64.6607 C   0  0  0  0  0  0  0  0  0  0  0  0
  -47.8230   59.3116   65.3885 C   0  0  0  0  0  0  0  0  0  0  0  0
  -48.3899   60.4397   64.5759 C   0  0  0  0  0  0  0  0  0  0  0  0
  -49.5842   60.4688   64.0113 C   0  0  0  0  0  0  0  0  0  0  0  0
  -50.6145   59.3821   64.0710 C   0  0  0  0  0  0  0  0  0  0  0  0
  -51.1047   58.9238   62.6958 C   0  0  0  0  0  0  0  0  0  0  0  0
  -49.9838   58.7772   61.6752 C   0  0  0  0  0  0  0  0  0  0  0  0
  -50.3135   57.8022   60.5505 C   0  0  0  0  0  0  0  0  0  0  0  0
  -49.3677   57.8719   59.3571 C   0  0  0  0  0  0  0  0  0  0  0  0
  -48.0233   57.2007   59.6005 C   0  0  0  0  0  0  0  0  0  0  0  0
  -47.2842   56.8095   58.3307 C   0  0  0  0  0  0  0  0  0  0  0  0
  -47.2219   57.9324   57.3153 C   0  0  0  0  0  0  0  0  0  0  0  0
  -34.9507   61.9285   66.4107 O   0  0  0  0  0  0  0  0  0  0  0  0
  -35.9891   61.9034   65.4270 C   0  0  0  0  0  0  0  0  0  0  0  0
  -34.3553   62.6734   66.2333 H   0  0  0  0  0  0  0  0  0  0  0  0
  -36.9298   60.7632   65.6700 C   0  0  0  0  0  0  0  0  0  0  0  0
  -38.1724   60.8827   66.0937 C   0  0  0  0  0  0  0  0  0  0  0  0
  -39.0913   59.7258   66.3123 C   0  0  0  0  0  0  0  0  0  0  0  0
  -39.4410   59.0431   64.9884 C   0  0  0  0  0  0  0  0  0  0  0  0
  -38.8948   57.6311   64.8521 C   0  0  0  0  0  0  0  0  0  0  0  0
  -37.6359   57.5271   64.0082 C   0  0  0  0  0  0  0  0  0  0  0  0
  -36.3768   57.2292   64.8093 C   0  0  0  0  0  0  0  0  0  0  0  0
  -35.0904   57.5846   64.0798 C   0  0  0  0  0  0  0  0  0  0  0  0
  -34.0780   58.3145   64.9451 C   0  0  0  0  0  0  0  0  0  0  0  0
  -32.9037   58.8869   64.1731 C   0  0  0  0  0  0  0  0  0  0  0  0
  -32.8476   58.4448   62.7209 C   0  0  0  0  0  0  0  0  0  0  0  0
  -32.4214   59.5551   61.7786 C   0  0  0  0  0  0  0  0  0  0  0  0
  -31.4941   60.5820   62.3997 C   0  0  0  0  0  0  0  0  0  0  0  0
  -30.3610   60.9792   61.4739 C   0  0  0  0  0  0  0  0  0  0  0  0
  -28.9977   60.7029   62.0735 C   0  0  0  0  0  0  0  0  0  0  0  0
  -35.4088   63.1421   63.2977 C   0  0  0  0  0  0  0  0  0  0  0  0
  -34.2829   63.2181   62.4160 O   0  0  0  0  0  0  0  0  0  0  0  0
  -32.0875   63.9753   60.8515 O   0  0  0  0  0  0  0  0  0  0  0  0
  -32.3906   67.0167   63.8814 O   0  0  0  0  0  0  0  0  0  0  0  0
  -33.4180   64.3521   64.2310 O   0  0  0  0  0  0  0  0  0  0  0  0
  -33.1133   63.6937   63.0156 C   0  0  0  0  0  0  0  0  0  0  0  0
  -32.4450   64.6595   62.0456 C   0  0  0  0  0  0  0  0  0  0  0  0
  -31.2091   65.2712   62.6930 C   0  0  0  0  0  0  0  0  0  0  0  0
  -31.5459   65.8821   64.0453 C   0  0  0  0  0  0  0  0  0  0  0  0
  -32.2544   64.8456   64.9139 C   0  0  0  0  0  0  0  0  0  0  0  0
  -32.8818   63.5906   60.4490 H   0  0  0  0  0  0  0  0  0  0  0  0
  -31.9423   67.6766   63.3296 H   0  0  0  0  0  0  0  0  0  0  0  0
  -31.6965   66.1285   66.8967 O   0  0  0  0  0  0  0  0  0  0  0  0
  -32.7265   65.4013   66.2370 C   0  0  0  0  0  0  0  0  0  0  0  0
  -32.0316   66.4706   67.7402 H   0  0  0  0  0  0  0  0  0  0  0  0
  -30.7931   66.3273   61.7705 O   0  0  0  0  0  0  0  0  0  0  0  0
  -29.3675   65.0723   60.2874 O   0  0  0  0  0  0  0  0  0  0  0  0
  -28.3795   66.5245   62.0848 O   0  0  0  0  0  0  0  0  0  0  0  0
  -29.4331   67.4469   60.1676 O   0  0  0  0  0  0  0  0  0  0  0  0
  -29.3546   66.2294   61.1035 S   0  0  0  0  0  0  0  0  0  0  0  0
  -29.3190   64.2814   60.8471 H   0  0  0  0  0  0  0  0  0  0  0  0
  -30.0946   67.2822   59.4776 H   0  0  0  0  0  0  0  0  0  0  0  0
  2  1  1  0  0  0
  2  4  1  0  0  0
  2  5  1  0  0  0
 47 48  1  0  0  0
 47  1  1  0  0  0
 48 52  1  0  0  0
  1 30  1  0  0  0
 29 30  1  0  0  0
 29 31  1  0  0  0
 30 32  1  0  0  0
  3  4  2  0  0  0
 32 33  2  0  0  0
 49 53  1  0  0  0
 49 57  1  0  0  0
 33 34  1  0  0  0
 62 54  1  0  0  0
 62 66  1  0  0  0
 34 35  1  0  0  0
 50 55  1  0  0  0
 50 58  1  0  0  0
 35 36  1  0  0  0
 51 52  1  0  0  0
 51 56  1  0  0  0
 36 37  1  0  0  0
 59 60  1  0  0  0
 59 61  1  0  0  0
 37 38  1  0  0  0
 63 66  1  0  0  0
 63 67  1  0  0  0
 38 39  1  0  0  0
 64 66  1  0  0  0
 39 40  1  0  0  0
 65 66  1  0  0  0
 65 68  1  0  0  0
 40 41  1  0  0  0
 41 42  1  0  0  0
 42 43  1  0  0  0
 43 44  1  0  0  0
 44 45  1  0  0  0
 45 46  1  0  0  0
  4  6  1  0  0  0
  6  7  1  0  0  0
  7  8  1  0  0  0
  8  9  1  0  0  0
  9 10  1  0  0  0
 10 11  1  0  0  0
 11 12  1  0  0  0
 12 13  1  0  0  0
 13 14  1  0  0  0
 14 15  1  0  0  0
 15 16  1  0  0  0
 16 17  1  0  0  0
 17 18  1  0  0  0
 18 19  1  0  0  0
 19 20  2  0  0  0
 20 21  1  0  0  0
 21 22  1  0  0  0
 22 23  1  0  0  0
 23 24  1  0  0  0
 24 25  1  0  0  0
 25 26  1  0  0  0
 26 27  1  0  0  0
 27 28  1  0  0  0
 52 53  1  0  0  0
 53 54  1  0  0  0
 54 55  1  0  0  0
 55 56  1  0  0  0
 56 60  1  0  0  0
M  CHG 1  64  -1
M  END
> <minimizedAffinity>
-8.91972

> <CNNscore>
0.1768572330

> <CNNaffinity>
7.1457505226

> <CNN_VS>
1.2637776136

> <CNNaffinity_variance>
0.9759597778

$$$$
/media/chris/experiments/cd1a-new-docking/inputs/ligands/7ryn_ligand.pdb


 68 68  0  0  0  0  0  0  0  0999 V2000
  -37.4779   59.5049   62.2570 C   0  0  0  0  0  0  0  0  0  0  0  0
  -38.9097   59.3343   62.0287 N   0  0  0  0  0  0  0  0  0  0  0  0
  -38.9240   60.2192   59.9588 O   0  0  0  0  0  0  0  0  0  0  0  0
  -39.5206   59.7039   60.8998 C   0  0  0  0  0  0  0  0  0  0  0  0
  -39.4519   58.9266   62.7422 H   0  0  0  0  0  0  0  0  0  0  0  0
  -41.0048   59.4404   60.8449 C   0  0  0  0  0  0  0  0  0  0  0  0
  -41.3395   58.1182   60.1665 C   0  0  0  0  0  0  0  0  0  0  0  0
  -42.0138   57.1312   61.1059 C   0  0  0  0  0  0  0  0  0  0  0  0
  -41.0565   56.4354   62.0591 C   0  0  0  0  0  0  0  0  0  0  0  0
  -41.5990   56.2809   63.4720 C   0  0  0  0  0  0  0  0  0  0  0  0
  -42.7538   57.2191   63.7985 C   0  0  0  0  0  0  0  0  0  0  0  0
  -43.3988   56.9555   65.1530 C   0  0  0  0  0  0  0  0  0  0  0  0
  -44.3145   58.0727   65.6471 C   0  0  0  0  0  0  0  0  0  0  0  0
  -45.3850   58.4907   64.6403 C   0  0  0  0  0  0  0  0  0  0  0  0
  -46.8207   58.3744   65.1516 C   0  0  0  0  0  0  0  0  0  0  0  0
  -47.5470   59.7169   65.2378 C   0  0  0  0  0  0  0  0  0  0  0  0
  -48.8344   59.7046   66.0618 C   0  0  0  0  0  0  0  0  0  0  0  0
  -49.8648   58.6566   65.6328 C   0  0  0  0  0  0  0  0  0  0  0  0
  -50.8119   59.1649   64.5846 C   0  0  0  0  0  0  0  0  0  0  0  0
  -50.6211   59.1249   63.2777 C   0  0  0  0  0  0  0  0  0  0  0  0
  -49.4212   58.5612   62.5786 C   0  0  0  0  0  0  0  0  0  0  0  0
  -49.7345   57.3449   61.7045 C   0  0  0  0  0  0  0  0  0  0  0  0
  -50.6392   57.6694   60.5232 C   0  0  0  0  0  0  0  0  0  0  0  0
  -49.8792   58.1612   59.2965 C   0  0  0  0  0  0  0  0  0  0  0  0
  -48.4120   57.7499   59.2561 C   0  0  0  0  0  0  0  0  0  0  0  0
  -47.6661   58.2594   58.0308 C   0  0  0  0  0  0  0  0  0  0  0  0
  -47.5548   57.2451   56.9037 C   0  0  0  0  0  0  0  0  0  0  0  0
  -47.5671   55.8124   57.3969 C   0  0  0  0  0  0  0  0  0  0  0  0
  -37.4784   57.6302   63.7802 O   0  0  0  0  0  0  0  0  0  0  0  0
  -36.8512   58.1444   62.6018 C   0  0  0  0  0  0  0  0  0  0  0  0
  -38.4355   57.5672   63.6358 H   0  0  0  0  0  0  0  0  0  0  0  0
  -35.3691   58.2556   62.7886 C   0  0  0  0  0  0  0  0  0  0  0  0
  -34.4826   57.3817   62.3544 C   0  0  0  0  0  0  0  0  0  0  0  0
  -33.0085   57.5287   62.5439 C   0  0  0  0  0  0  0  0  0  0  0  0
  -32.6904   58.6468   63.5387 C   0  0  0  0  0  0  0  0  0  0  0  0
  -31.5727   59.5766   63.0947 C   0  0  0  0  0  0  0  0  0  0  0  0
  -31.8904   60.3845   61.8481 C   0  0  0  0  0  0  0  0  0  0  0  0
  -30.6720   61.0227   61.1971 C   0  0  0  0  0  0  0  0  0  0  0  0
  -29.5419   61.3158   62.1720 C   0  0  0  0  0  0  0  0  0  0  0  0
  -29.4122   62.7848   62.5345 C   0  0  0  0  0  0  0  0  0  0  0  0
  -29.9999   63.7302   61.5033 C   0  0  0  0  0  0  0  0  0  0  0  0
  -29.4730   65.1516   61.6004 C   0  0  0  0  0  0  0  0  0  0  0  0
  -30.2778   66.0194   62.5499 C   0  0  0  0  0  0  0  0  0  0  0  0
  -29.4915   66.5475   63.7344 C   0  0  0  0  0  0  0  0  0  0  0  0
  -29.3399   68.0559   63.7071 C   0  0  0  0  0  0  0  0  0  0  0  0
  -30.4991   68.7677   64.3732 C   0  0  0  0  0  0  0  0  0  0  0  0
  -37.2443   60.5311   63.3464 C   0  0  0  0  0  0  0  0  0  0  0  0
  -36.8544   61.7629   62.7287 O   0  0  0  0  0  0  0  0  0  0  0  0
  -35.7847   64.0963   61.6097 O   0  0  0  0  0  0  0  0  0  0  0  0
  -35.1040   64.4840   65.8416 O   0  0  0  0  0  0  0  0  0  0  0  0
  -35.4291   61.9409   64.5357 O   0  0  0  0  0  0  0  0  0  0  0  0
  -35.6284   62.2667   63.1727 C   0  0  0  0  0  0  0  0  0  0  0  0
  -35.6452   63.7786   62.9887 C   0  0  0  0  0  0  0  0  0  0  0  0
  -34.3601   64.3819   63.5414 C   0  0  0  0  0  0  0  0  0  0  0  0
  -34.1177   63.9328   64.9749 C   0  0  0  0  0  0  0  0  0  0  0  0
  -34.1724   62.4090   65.0509 C   0  0  0  0  0  0  0  0  0  0  0  0
  -36.6057   63.7072   61.2697 H   0  0  0  0  0  0  0  0  0  0  0  0
  -35.0710   65.4522   65.7947 H   0  0  0  0  0  0  0  0  0  0  0  0
  -33.5366   62.8648   67.3481 O   0  0  0  0  0  0  0  0  0  0  0  0
  -34.0529   61.8794   66.4608 C   0  0  0  0  0  0  0  0  0  0  0  0
  -33.4728   62.4934   68.2418 H   0  0  0  0  0  0  0  0  0  0  0  0
  -34.5886   65.8263   63.5146 O   0  0  0  0  0  0  0  0  0  0  0  0
  -35.6151   67.0411   61.7041 O   0  0  0  0  0  0  0  0  0  0  0  0
  -33.4073   65.8856   61.3781 O   0  0  0  0  0  0  0  0  0  0  0  0
  -33.6124   67.8428   62.7062 O   0  0  0  0  0  0  0  0  0  0  0  0
  -34.3439   66.6084   62.1535 S   0  0  0  0  0  0  0  0  0  0  0  0
  -36.1065   66.2847   61.3472 H   0  0  0  0  0  0  0  0  0  0  0  0
  -34.2247   68.3666   63.2462 H   0  0  0  0  0  0  0  0  0  0  0  0
  2  1  1  0  0  0
  2  4  1  0  0  0
  2  5  1  0  0  0
 47 48  1  0  0  0
 47  1  1  0  0  0
 48 52  1  0  0  0
  1 30  1  0  0  0
 29 30  1  0  0  0
 29 31  1  0  0  0
 30 32  1  0  0  0
  3  4  2  0  0  0
 32 33  2  0  0  0
 49 53  1  0  0  0
 49 57  1  0  0  0
 33 34  1  0  0  0
 62 54  1  0  0  0
 62 66  1  0  0  0
 34 35  1  0  0  0
 50 55  1  0  0  0
 50 58  1  0  0  0
 35 36  1  0  0  0
 51 52  1  0  0  0
 51 56  1  0  0  0
 36 37  1  0  0  0
 59 60  1  0  0  0
 59 61  1  0  0  0
 37 38  1  0  0  0
 63 66  1  0  0  0
 63 67  1  0  0  0
 38 39  1  0  0  0
 64 66  1  0  0  0
 39 40  1  0  0  0
 65 66  1  0  0  0
 65 68  1  0  0  0
 40 41  1  0  0  0
 41 42  1  0  0  0
 42 43  1  0  0  0
 43 44  1  0  0  0
 44 45  1  0  0  0
 45 46  1  0  0  0
  4  6  1  0  0  0
  6  7  1  0  0  0
  7  8  1  0  0  0
  8  9  1  0  0  0
  9 10  1  0  0  0
 10 11  1  0  0  0
 11 12  1  0  0  0
 12 13  1  0  0  0
 13 14  1  0  0  0
 14 15  1  0  0  0
 15 16  1  0  0  0
 16 17  1  0  0  0
 17 18  1  0  0  0
 18 19  1  0  0  0
 19 20  2  0  0  0
 20 21  1  0  0  0
 21 22  1  0  0  0
 22 23  1  0  0  0
 23 24  1  0  0  0
 24 25  1  0  0  0
 25 26  1  0  0  0
 26 27  1  0  0  0
 27 28  1  0  0  0
 52 53  1  0  0  0
 53 54  1  0  0  0
 54 55  1  0  0  0
 55 56  1  0  0  0
 56 60  1  0  0  0
M  CHG 1  64  -1
M  END
> <minimizedAffinity>
-8.94315

> <CNNscore>
0.1722909361

> <CNNaffinity>
6.9051575661

> <CNN_VS>
1.1896960735

> <CNNaffinity_variance>
0.5408715606

$$$$
/media/chris/experiments/cd1a-new-docking/inputs/ligands/7ryn_ligand.pdb


 68 68  0  0  0  0  0  0  0  0999 V2000
  -35.6221   62.0639   64.5424 C   0  0  0  0  0  0  0  0  0  0  0  0
  -36.8730   61.3385   64.7430 N   0  0  0  0  0  0  0  0  0  0  0  0
  -37.4759   61.3072   62.5743 O   0  0  0  0  0  0  0  0  0  0  0  0
  -37.7013   61.0170   63.7456 C   0  0  0  0  0  0  0  0  0  0  0  0
  -37.1182   61.0731   65.6587 H   0  0  0  0  0  0  0  0  0  0  0  0
  -38.9426   60.2597   64.1469 C   0  0  0  0  0  0  0  0  0  0  0  0
  -38.7346   59.4171   65.3988 C   0  0  0  0  0  0  0  0  0  0  0  0
  -39.1262   57.9619   65.1980 C   0  0  0  0  0  0  0  0  0  0  0  0
  -40.3664   57.7702   64.3410 C   0  0  0  0  0  0  0  0  0  0  0  0
  -41.6273   57.4772   65.1402 C   0  0  0  0  0  0  0  0  0  0  0  0
  -42.8317   57.1071   64.2839 C   0  0  0  0  0  0  0  0  0  0  0  0
  -43.4914   58.2974   63.5998 C   0  0  0  0  0  0  0  0  0  0  0  0
  -44.8163   58.7315   64.2218 C   0  0  0  0  0  0  0  0  0  0  0  0
  -45.3226   57.7991   65.3212 C   0  0  0  0  0  0  0  0  0  0  0  0
  -45.2466   58.3789   66.7334 C   0  0  0  0  0  0  0  0  0  0  0  0
  -46.6112   58.7532   67.3121 C   0  0  0  0  0  0  0  0  0  0  0  0
  -47.7976   58.5156   66.3780 C   0  0  0  0  0  0  0  0  0  0  0  0
  -48.6969   59.7345   66.1547 C   0  0  0  0  0  0  0  0  0  0  0  0
  -48.4827   60.3799   64.8162 C   0  0  0  0  0  0  0  0  0  0  0  0
  -49.3403   60.3907   63.8110 C   0  0  0  0  0  0  0  0  0  0  0  0
  -50.7012   59.7628   63.8062 C   0  0  0  0  0  0  0  0  0  0  0  0
  -50.8537   58.6346   62.7837 C   0  0  0  0  0  0  0  0  0  0  0  0
  -49.5595   58.3072   62.0508 C   0  0  0  0  0  0  0  0  0  0  0  0
  -49.7353   58.1758   60.5421 C   0  0  0  0  0  0  0  0  0  0  0  0
  -49.2970   56.8325   59.9702 C   0  0  0  0  0  0  0  0  0  0  0  0
  -47.9287   56.8671   59.3040 C   0  0  0  0  0  0  0  0  0  0  0  0
  -47.7529   57.9967   58.3017 C   0  0  0  0  0  0  0  0  0  0  0  0
  -47.5355   57.5005   56.8866 C   0  0  0  0  0  0  0  0  0  0  0  0
  -33.8014   62.4240   66.0885 O   0  0  0  0  0  0  0  0  0  0  0  0
  -34.5120   61.4060   65.3778 C   0  0  0  0  0  0  0  0  0  0  0  0
  -34.4222   62.9292   66.6363 H   0  0  0  0  0  0  0  0  0  0  0  0
  -33.5829   60.6038   64.5192 C   0  0  0  0  0  0  0  0  0  0  0  0
  -33.1543   60.9626   63.3252 C   0  0  0  0  0  0  0  0  0  0  0  0
  -32.2150   60.1465   62.4991 C   0  0  0  0  0  0  0  0  0  0  0  0
  -32.2838   58.6680   62.8869 C   0  0  0  0  0  0  0  0  0  0  0  0
  -33.2470   57.8471   62.0448 C   0  0  0  0  0  0  0  0  0  0  0  0
  -34.5400   57.4808   62.7532 C   0  0  0  0  0  0  0  0  0  0  0  0
  -35.7759   58.1509   62.1709 C   0  0  0  0  0  0  0  0  0  0  0  0
  -37.0684   57.4014   62.4556 C   0  0  0  0  0  0  0  0  0  0  0  0
  -38.1958   57.7396   61.4959 C   0  0  0  0  0  0  0  0  0  0  0  0
  -37.7855   58.6570   60.3591 C   0  0  0  0  0  0  0  0  0  0  0  0
  -38.9083   59.5430   59.8473 C   0  0  0  0  0  0  0  0  0  0  0  0
  -39.9853   59.7956   60.8859 C   0  0  0  0  0  0  0  0  0  0  0  0
  -41.3846   59.4142   60.4424 C   0  0  0  0  0  0  0  0  0  0  0  0
  -41.4323   58.0571   59.7680 C   0  0  0  0  0  0  0  0  0  0  0  0
  -41.5882   56.9220   60.7588 C   0  0  0  0  0  0  0  0  0  0  0  0
  -35.8073   63.5257   64.8933 C   0  0  0  0  0  0  0  0  0  0  0  0
  -35.2642   64.3165   63.8301 O   0  0  0  0  0  0  0  0  0  0  0  0
  -33.7851   63.9346   61.4833 O   0  0  0  0  0  0  0  0  0  0  0  0
  -31.9700   67.3360   63.3959 O   0  0  0  0  0  0  0  0  0  0  0  0
  -33.4567   65.3389   64.8379 O   0  0  0  0  0  0  0  0  0  0  0  0
  -33.8703   64.4201   63.8438 C   0  0  0  0  0  0  0  0  0  0  0  0
  -33.4189   64.8929   62.4680 C   0  0  0  0  0  0  0  0  0  0  0  0
  -31.9102   65.1044   62.4624 C   0  0  0  0  0  0  0  0  0  0  0  0
  -31.4816   66.0147   63.6040 C   0  0  0  0  0  0  0  0  0  0  0  0
  -32.0291   65.4751   64.9230 C   0  0  0  0  0  0  0  0  0  0  0  0
  -34.7468   63.8087   61.4966 H   0  0  0  0  0  0  0  0  0  0  0  0
  -31.6233   67.6807   62.5582 H   0  0  0  0  0  0  0  0  0  0  0  0
  -30.6089   65.9412   66.8347 O   0  0  0  0  0  0  0  0  0  0  0  0
  -31.7452   66.3799   66.0991 C   0  0  0  0  0  0  0  0  0  0  0  0
  -30.4549   66.5421   67.5804 H   0  0  0  0  0  0  0  0  0  0  0  0
  -31.6339   65.7609   61.1849 O   0  0  0  0  0  0  0  0  0  0  0  0
  -29.6465   64.4029   61.0694 O   0  0  0  0  0  0  0  0  0  0  0  0
  -29.5444   66.8631   60.5664 O   0  0  0  0  0  0  0  0  0  0  0  0
  -30.5886   65.3251   59.0897 O   0  0  0  0  0  0  0  0  0  0  0  0
  -30.1872   65.6031   60.5476 S   0  0  0  0  0  0  0  0  0  0  0  0
  -29.3812   64.5421   61.9920 H   0  0  0  0  0  0  0  0  0  0  0  0
  -31.0347   64.4654   59.0354 H   0  0  0  0  0  0  0  0  0  0  0  0
  2  1  1  0  0  0
  2  4  1  0  0  0
  2  5  1  0  0  0
 47 48  1  0  0  0
 47  1  1  0  0  0
 48 52  1  0  0  0
  1 30  1  0  0  0
 29 30  1  0  0  0
 29 31  1  0  0  0
 30 32  1  0  0  0
  3  4  2  0  0  0
 32 33  2  0  0  0
 49 53  1  0  0  0
 49 57  1  0  0  0
 33 34  1  0  0  0
 62 54  1  0  0  0
 62 66  1  0  0  0
 34 35  1  0  0  0
 50 55  1  0  0  0
 50 58  1  0  0  0
 35 36  1  0  0  0
 51 52  1  0  0  0
 51 56  1  0  0  0
 36 37  1  0  0  0
 59 60  1  0  0  0
 59 61  1  0  0  0
 37 38  1  0  0  0
 63 66  1  0  0  0
 63 67  1  0  0  0
 38 39  1  0  0  0
 64 66  1  0  0  0
 39 40  1  0  0  0
 65 66  1  0  0  0
 65 68  1  0  0  0
 40 41  1  0  0  0
 41 42  1  0  0  0
 42 43  1  0  0  0
 43 44  1  0  0  0
 44 45  1  0  0  0
 45 46  1  0  0  0
  4  6  1  0  0  0
  6  7  1  0  0  0
  7  8  1  0  0  0
  8  9  1  0  0  0
  9 10  1  0  0  0
 10 11  1  0  0  0
 11 12  1  0  0  0
 12 13  1  0  0  0
 13 14  1  0  0  0
 14 15  1  0  0  0
 15 16  1  0  0  0
 16 17  1  0  0  0
 17 18  1  0  0  0
 18 19  1  0  0  0
 19 20  2  0  0  0
 20 21  1  0  0  0
 21 22  1  0  0  0
 22 23  1  0  0  0
 23 24  1  0  0  0
 24 25  1  0  0  0
 25 26  1  0  0  0
 26 27  1  0  0  0
 27 28  1  0  0  0
 52 53  1  0  0  0
 53 54  1  0  0  0
 54 55  1  0  0  0
 55 56  1  0  0  0
 56 60  1  0  0  0
M  CHG 1  64  -1
M  END
> <minimizedAffinity>
-9.75284

> <CNNscore>
0.1566917300

> <CNNaffinity>
6.9113397598

> <CNN_VS>
1.0829497576

> <CNNaffinity_variance>
1.5294487476

$$$$
