/media/chris/experiments/cd1a-new-docking/inputs/ligands/7ryn_ligand.pdb


 68 68  0  0  0  0  0  0  0  0999 V2000
  -37.6013   58.0317   61.5564 C   0  0  0  0  0  0  0  0  0  0  0  0
  -38.9950   57.6159   61.6824 N   0  0  0  0  0  0  0  0  0  0  0  0
  -39.7079   58.6102   59.7927 O   0  0  0  0  0  0  0  0  0  0  0  0
  -39.9384   57.9366   60.7928 C   0  0  0  0  0  0  0  0  0  0  0  0
  -39.2524   57.0721   62.4618 H   0  0  0  0  0  0  0  0  0  0  0  0
  -41.3203   57.4095   61.0887 C   0  0  0  0  0  0  0  0  0  0  0  0
  -41.4860   56.9864   62.5428 C   0  0  0  0  0  0  0  0  0  0  0  0
  -41.6998   58.1670   63.4764 C   0  0  0  0  0  0  0  0  0  0  0  0
  -41.3331   57.8827   64.9234 C   0  0  0  0  0  0  0  0  0  0  0  0
  -41.5724   59.0567   65.8608 C   0  0  0  0  0  0  0  0  0  0  0  0
  -42.7805   58.8853   66.7730 C   0  0  0  0  0  0  0  0  0  0  0  0
  -43.6843   57.7213   66.3875 C   0  0  0  0  0  0  0  0  0  0  0  0
  -45.1683   58.0705   66.3086 C   0  0  0  0  0  0  0  0  0  0  0  0
  -45.6172   58.5718   64.9369 C   0  0  0  0  0  0  0  0  0  0  0  0
  -47.1314   58.5912   64.7297 C   0  0  0  0  0  0  0  0  0  0  0  0
  -47.9246   58.3196   66.0081 C   0  0  0  0  0  0  0  0  0  0  0  0
  -49.0919   59.2737   66.2604 C   0  0  0  0  0  0  0  0  0  0  0  0
  -50.4441   58.7938   65.7261 C   0  0  0  0  0  0  0  0  0  0  0  0
  -51.1226   59.8125   64.8567 C   0  0  0  0  0  0  0  0  0  0  0  0
  -51.2834   59.7354   63.5474 C   0  0  0  0  0  0  0  0  0  0  0  0
  -50.8229   58.6133   62.6671 C   0  0  0  0  0  0  0  0  0  0  0  0
  -49.5168   58.9092   61.9269 C   0  0  0  0  0  0  0  0  0  0  0  0
  -49.6816   58.9665   60.4140 C   0  0  0  0  0  0  0  0  0  0  0  0
  -49.9316   57.6025   59.7807 C   0  0  0  0  0  0  0  0  0  0  0  0
  -48.8199   56.5855   60.0125 C   0  0  0  0  0  0  0  0  0  0  0  0
  -48.0962   56.1678   58.7402 C   0  0  0  0  0  0  0  0  0  0  0  0
  -46.9370   57.0742   58.3574 C   0  0  0  0  0  0  0  0  0  0  0  0
  -47.2304   57.9221   57.1364 C   0  0  0  0  0  0  0  0  0  0  0  0
  -37.3592   57.3207   63.8522 O   0  0  0  0  0  0  0  0  0  0  0  0
  -36.7430   57.2491   62.5631 C   0  0  0  0  0  0  0  0  0  0  0  0
  -38.2647   56.9775   63.7972 H   0  0  0  0  0  0  0  0  0  0  0  0
  -35.3401   57.7721   62.6100 C   0  0  0  0  0  0  0  0  0  0  0  0
  -34.6356   57.9551   63.7092 C   0  0  0  0  0  0  0  0  0  0  0  0
  -33.2318   58.4648   63.7218 C   0  0  0  0  0  0  0  0  0  0  0  0
  -33.1319   59.8195   63.0175 C   0  0  0  0  0  0  0  0  0  0  0  0
  -32.0924   59.8705   61.9096 C   0  0  0  0  0  0  0  0  0  0  0  0
  -30.7533   60.4476   62.3356 C   0  0  0  0  0  0  0  0  0  0  0  0
  -30.5320   61.8875   61.8958 C   0  0  0  0  0  0  0  0  0  0  0  0
  -29.4192   62.5938   62.6548 C   0  0  0  0  0  0  0  0  0  0  0  0
  -29.9150   63.6607   63.6151 C   0  0  0  0  0  0  0  0  0  0  0  0
  -31.2853   63.3761   64.2013 C   0  0  0  0  0  0  0  0  0  0  0  0
  -31.6305   64.2362   65.4048 C   0  0  0  0  0  0  0  0  0  0  0  0
  -32.7462   65.2262   65.1264 C   0  0  0  0  0  0  0  0  0  0  0  0
  -32.2796   66.5509   64.5541 C   0  0  0  0  0  0  0  0  0  0  0  0
  -32.3097   66.5736   63.0385 C   0  0  0  0  0  0  0  0  0  0  0  0
  -33.6177   67.1075   62.4919 C   0  0  0  0  0  0  0  0  0  0  0  0
  -37.4860   59.5291   61.7539 C   0  0  0  0  0  0  0  0  0  0  0  0
  -37.9380   59.8453   63.0754 O   0  0  0  0  0  0  0  0  0  0  0  0
  -38.5332   60.6601   65.6875 O   0  0  0  0  0  0  0  0  0  0  0  0
  -34.4560   61.8804   65.0481 O   0  0  0  0  0  0  0  0  0  0  0  0
  -36.3275   61.4895   62.8982 O   0  0  0  0  0  0  0  0  0  0  0  0
  -37.5264   61.0977   63.5404 C   0  0  0  0  0  0  0  0  0  0  0  0
  -37.3098   60.9944   65.0445 C   0  0  0  0  0  0  0  0  0  0  0  0
  -36.7753   62.3158   65.5826 C   0  0  0  0  0  0  0  0  0  0  0  0
  -35.5458   62.7646   64.8067 C   0  0  0  0  0  0  0  0  0  0  0  0
  -35.8605   62.7832   63.3130 C   0  0  0  0  0  0  0  0  0  0  0  0
  -38.8631   59.8180   65.3369 H   0  0  0  0  0  0  0  0  0  0  0  0
  -34.2542   61.8671   65.9967 H   0  0  0  0  0  0  0  0  0  0  0  0
  -35.0064   63.9696   61.3762 O   0  0  0  0  0  0  0  0  0  0  0  0
  -34.6600   63.1104   62.4563 C   0  0  0  0  0  0  0  0  0  0  0  0
  -34.2154   64.1594   60.8475 H   0  0  0  0  0  0  0  0  0  0  0  0
  -36.4005   62.0266   66.9665 O   0  0  0  0  0  0  0  0  0  0  0  0
  -36.5943   62.8316   69.2295 O   0  0  0  0  0  0  0  0  0  0  0  0
  -36.5179   64.4425   67.3020 O   0  0  0  0  0  0  0  0  0  0  0  0
  -34.6042   63.2139   67.9842 O   0  0  0  0  0  0  0  0  0  0  0  0
  -36.1411   63.2444   67.9530 S   0  0  0  0  0  0  0  0  0  0  0  0
  -37.5642   62.8389   69.2462 H   0  0  0  0  0  0  0  0  0  0  0  0
  -34.3058   62.4032   68.4252 H   0  0  0  0  0  0  0  0  0  0  0  0
  2  1  1  0  0  0
  2  4  1  0  0  0
  2  5  1  0  0  0
 47 48  1  0  0  0
 47  1  1  0  0  0
 48 52  1  0  0  0
  1 30  1  0  0  0
 29 30  1  0  0  0
 29 31  1  0  0  0
 30 32  1  0  0  0
  3  4  2  0  0  0
 32 33  2  0  0  0
 49 53  1  0  0  0
 49 57  1  0  0  0
 33 34  1  0  0  0
 62 54  1  0  0  0
 62 66  1  0  0  0
 34 35  1  0  0  0
 50 55  1  0  0  0
 50 58  1  0  0  0
 35 36  1  0  0  0
 51 52  1  0  0  0
 51 56  1  0  0  0
 36 37  1  0  0  0
 59 60  1  0  0  0
 59 61  1  0  0  0
 37 38  1  0  0  0
 63 66  1  0  0  0
 63 67  1  0  0  0
 38 39  1  0  0  0
 64 66  1  0  0  0
 39 40  1  0  0  0
 65 66  1  0  0  0
 65 68  1  0  0  0
 40 41  1  0  0  0
 41 42  1  0  0  0
 42 43  1  0  0  0
 43 44  1  0  0  0
 44 45  1  0  0  0
 45 46  1  0  0  0
  4  6  1  0  0  0
  6  7  1  0  0  0
  7  8  1  0  0  0
  8  9  1  0  0  0
  9 10  1  0  0  0
 10 11  1  0  0  0
 11 12  1  0  0  0
 12 13  1  0  0  0
 13 14  1  0  0  0
 14 15  1  0  0  0
 15 16  1  0  0  0
 16 17  1  0  0  0
 17 18  1  0  0  0
 18 19  1  0  0  0
 19 20  2  0  0  0
 20 21  1  0  0  0
 21 22  1  0  0  0
 22 23  1  0  0  0
 23 24  1  0  0  0
 24 25  1  0  0  0
 25 26  1  0  0  0
 26 27  1  0  0  0
 27 28  1  0  0  0
 52 53  1  0  0  0
 53 54  1  0  0  0
 54 55  1  0  0  0
 55 56  1  0  0  0
 56 60  1  0  0  0
M  CHG 1  64  -1
M  END
> <minimizedAffinity>
-8.89722

> <CNNscore>
0.2233970165

> <CNNaffinity>
6.9896745682

> <CNN_VS>
1.5614724159

> <CNNaffinity_variance>
1.3019127846

$$$$
/media/chris/experiments/cd1a-new-docking/inputs/ligands/7ryn_ligand.pdb


 68 68  0  0  0  0  0  0  0  0999 V2000
  -36.3872   59.9195   63.7089 C   0  0  0  0  0  0  0  0  0  0  0  0
  -37.6920   59.2790   63.8449 N   0  0  0  0  0  0  0  0  0  0  0  0
  -37.1589   57.4158   62.6994 O   0  0  0  0  0  0  0  0  0  0  0  0
  -37.9762   58.0794   63.3308 C   0  0  0  0  0  0  0  0  0  0  0  0
  -38.3974   59.7548   64.3402 H   0  0  0  0  0  0  0  0  0  0  0  0
  -39.3765   57.5775   63.5810 C   0  0  0  0  0  0  0  0  0  0  0  0
  -39.9736   56.8795   62.3657 C   0  0  0  0  0  0  0  0  0  0  0  0
  -41.4493   56.5584   62.5400 C   0  0  0  0  0  0  0  0  0  0  0  0
  -42.1154   57.3184   63.6749 C   0  0  0  0  0  0  0  0  0  0  0  0
  -43.0822   58.3967   63.2091 C   0  0  0  0  0  0  0  0  0  0  0  0
  -44.2108   58.6835   64.1913 C   0  0  0  0  0  0  0  0  0  0  0  0
  -44.5510   57.5093   65.1001 C   0  0  0  0  0  0  0  0  0  0  0  0
  -44.9015   57.8985   66.5340 C   0  0  0  0  0  0  0  0  0  0  0  0
  -46.3747   57.7035   66.8890 C   0  0  0  0  0  0  0  0  0  0  0  0
  -47.0855   58.9661   67.3756 C   0  0  0  0  0  0  0  0  0  0  0  0
  -48.1657   59.4652   66.4157 C   0  0  0  0  0  0  0  0  0  0  0  0
  -48.9282   58.3684   65.6729 C   0  0  0  0  0  0  0  0  0  0  0  0
  -50.4529   58.5016   65.7142 C   0  0  0  0  0  0  0  0  0  0  0  0
  -50.9530   59.7110   64.9785 C   0  0  0  0  0  0  0  0  0  0  0  0
  -51.2717   59.7663   63.6974 C   0  0  0  0  0  0  0  0  0  0  0  0
  -51.2009   58.6312   62.7213 C   0  0  0  0  0  0  0  0  0  0  0  0
  -50.0774   58.7747   61.6925 C   0  0  0  0  0  0  0  0  0  0  0  0
  -50.3052   57.9495   60.4329 C   0  0  0  0  0  0  0  0  0  0  0  0
  -49.5549   56.6223   60.4354 C   0  0  0  0  0  0  0  0  0  0  0  0
  -48.3852   56.5567   59.4601 C   0  0  0  0  0  0  0  0  0  0  0  0
  -48.1832   57.8346   58.6582 C   0  0  0  0  0  0  0  0  0  0  0  0
  -47.5747   57.6161   57.2820 C   0  0  0  0  0  0  0  0  0  0  0  0
  -47.0458   56.2096   57.0882 C   0  0  0  0  0  0  0  0  0  0  0  0
  -35.4251   60.7901   65.7463 O   0  0  0  0  0  0  0  0  0  0  0  0
  -35.5346   59.6073   64.9492 C   0  0  0  0  0  0  0  0  0  0  0  0
  -36.3120   61.1052   65.9807 H   0  0  0  0  0  0  0  0  0  0  0  0
  -34.1811   59.0911   64.5676 C   0  0  0  0  0  0  0  0  0  0  0  0
  -33.8372   58.6844   63.3616 C   0  0  0  0  0  0  0  0  0  0  0  0
  -32.4733   58.1884   63.0089 C   0  0  0  0  0  0  0  0  0  0  0  0
  -31.4754   59.3443   62.9123 C   0  0  0  0  0  0  0  0  0  0  0  0
  -31.8398   60.3973   61.8783 C   0  0  0  0  0  0  0  0  0  0  0  0
  -30.6474   61.0109   61.1646 C   0  0  0  0  0  0  0  0  0  0  0  0
  -29.4972   61.3825   62.0890 C   0  0  0  0  0  0  0  0  0  0  0  0
  -29.4803   62.8514   62.4830 C   0  0  0  0  0  0  0  0  0  0  0  0
  -30.3060   63.7396   61.5689 C   0  0  0  0  0  0  0  0  0  0  0  0
  -29.5086   64.8352   60.8862 C   0  0  0  0  0  0  0  0  0  0  0  0
  -29.6378   66.1953   61.5501 C   0  0  0  0  0  0  0  0  0  0  0  0
  -30.2355   67.2480   60.6352 C   0  0  0  0  0  0  0  0  0  0  0  0
  -30.8919   66.6923   59.3860 C   0  0  0  0  0  0  0  0  0  0  0  0
  -30.2683   67.2286   58.1124 C   0  0  0  0  0  0  0  0  0  0  0  0
  -29.9826   66.1371   57.1018 C   0  0  0  0  0  0  0  0  0  0  0  0
  -36.5595   61.4095   63.4975 C   0  0  0  0  0  0  0  0  0  0  0  0
  -35.2943   61.9591   63.1127 O   0  0  0  0  0  0  0  0  0  0  0  0
  -33.4202   62.7372   65.0423 O   0  0  0  0  0  0  0  0  0  0  0  0
  -33.0003   65.6121   61.8673 O   0  0  0  0  0  0  0  0  0  0  0  0
  -35.4203   64.1234   62.3199 O   0  0  0  0  0  0  0  0  0  0  0  0
  -35.1293   63.3082   63.4397 C   0  0  0  0  0  0  0  0  0  0  0  0
  -33.6859   63.5133   63.8808 C   0  0  0  0  0  0  0  0  0  0  0  0
  -33.4360   64.9892   64.1644 C   0  0  0  0  0  0  0  0  0  0  0  0
  -33.8533   65.8513   62.9822 C   0  0  0  0  0  0  0  0  0  0  0  0
  -35.2942   65.5278   62.5949 C   0  0  0  0  0  0  0  0  0  0  0  0
  -33.5827   61.8006   64.8494 H   0  0  0  0  0  0  0  0  0  0  0  0
  -32.0842   65.8171   62.1112 H   0  0  0  0  0  0  0  0  0  0  0  0
  -36.6266   67.3373   61.6791 O   0  0  0  0  0  0  0  0  0  0  0  0
  -35.7556   66.2593   61.3563 C   0  0  0  0  0  0  0  0  0  0  0  0
  -36.9036   67.7844   60.8640 H   0  0  0  0  0  0  0  0  0  0  0  0
  -31.9892   65.0890   64.3546 O   0  0  0  0  0  0  0  0  0  0  0  0
  -32.0590   65.7926   66.6583 O   0  0  0  0  0  0  0  0  0  0  0  0
  -31.4014   67.4072   64.8482 O   0  0  0  0  0  0  0  0  0  0  0  0
  -29.9799   65.6262   65.5149 O   0  0  0  0  0  0  0  0  0  0  0  0
  -31.4342   66.1181   65.4300 S   0  0  0  0  0  0  0  0  0  0  0  0
  -32.9822   66.0897   66.6402 H   0  0  0  0  0  0  0  0  0  0  0  0
  -29.9606   64.7409   65.9107 H   0  0  0  0  0  0  0  0  0  0  0  0
  2  1  1  0  0  0
  2  4  1  0  0  0
  2  5  1  0  0  0
 47 48  1  0  0  0
 47  1  1  0  0  0
 48 52  1  0  0  0
  1 30  1  0  0  0
 29 30  1  0  0  0
 29 31  1  0  0  0
 30 32  1  0  0  0
  3  4  2  0  0  0
 32 33  2  0  0  0
 49 53  1  0  0  0
 49 57  1  0  0  0
 33 34  1  0  0  0
 62 54  1  0  0  0
 62 66  1  0  0  0
 34 35  1  0  0  0
 50 55  1  0  0  0
 50 58  1  0  0  0
 35 36  1  0  0  0
 51 52  1  0  0  0
 51 56  1  0  0  0
 36 37  1  0  0  0
 59 60  1  0  0  0
 59 61  1  0  0  0
 37 38  1  0  0  0
 63 66  1  0  0  0
 63 67  1  0  0  0
 38 39  1  0  0  0
 64 66  1  0  0  0
 39 40  1  0  0  0
 65 66  1  0  0  0
 65 68  1  0  0  0
 40 41  1  0  0  0
 41 42  1  0  0  0
 42 43  1  0  0  0
 43 44  1  0  0  0
 44 45  1  0  0  0
 45 46  1  0  0  0
  4  6  1  0  0  0
  6  7  1  0  0  0
  7  8  1  0  0  0
  8  9  1  0  0  0
  9 10  1  0  0  0
 10 11  1  0  0  0
 11 12  1  0  0  0
 12 13  1  0  0  0
 13 14  1  0  0  0
 14 15  1  0  0  0
 15 16  1  0  0  0
 16 17  1  0  0  0
 17 18  1  0  0  0
 18 19  1  0  0  0
 19 20  2  0  0  0
 20 21  1  0  0  0
 21 22  1  0  0  0
 22 23  1  0  0  0
 23 24  1  0  0  0
 24 25  1  0  0  0
 25 26  1  0  0  0
 26 27  1  0  0  0
 27 28  1  0  0  0
 52 53  1  0  0  0
 53 54  1  0  0  0
 54 55  1  0  0  0
 55 56  1  0  0  0
 56 60  1  0  0  0
M  CHG 1  64  -1
M  END
> <minimizedAffinity>
-9.04048

> <CNNscore>
0.1894209534

> <CNNaffinity>
6.5661897659

> <CNN_VS>
1.2437739372

> <CNNaffinity_variance>
0.2304403782

$$$$
/media/chris/experiments/cd1a-new-docking/inputs/ligands/7ryn_ligand.pdb


 68 68  0  0  0  0  0  0  0  0999 V2000
  -37.1580   59.5840   63.1630 C   0  0  0  0  0  0  0  0  0  0  0  0
  -38.4630   59.6429   62.5112 N   0  0  0  0  0  0  0  0  0  0  0  0
  -37.6954   59.3173   60.4202 O   0  0  0  0  0  0  0  0  0  0  0  0
  -38.6303   59.5053   61.1932 C   0  0  0  0  0  0  0  0  0  0  0  0
  -39.2592   59.7914   63.0709 H   0  0  0  0  0  0  0  0  0  0  0  0
  -40.0548   59.5880   60.7043 C   0  0  0  0  0  0  0  0  0  0  0  0
  -40.4618   58.3732   59.8800 C   0  0  0  0  0  0  0  0  0  0  0  0
  -41.5875   57.5788   60.5225 C   0  0  0  0  0  0  0  0  0  0  0  0
  -41.7410   57.8238   62.0143 C   0  0  0  0  0  0  0  0  0  0  0  0
  -41.5535   56.5765   62.8650 C   0  0  0  0  0  0  0  0  0  0  0  0
  -41.4074   56.8587   64.3549 C   0  0  0  0  0  0  0  0  0  0  0  0
  -42.6561   56.5425   65.1681 C   0  0  0  0  0  0  0  0  0  0  0  0
  -42.9532   57.5384   66.2863 C   0  0  0  0  0  0  0  0  0  0  0  0
  -44.2287   58.3517   66.0722 C   0  0  0  0  0  0  0  0  0  0  0  0
  -44.7861   58.3002   64.6499 C   0  0  0  0  0  0  0  0  0  0  0  0
  -46.2192   58.8207   64.5382 C   0  0  0  0  0  0  0  0  0  0  0  0
  -47.1600   58.3710   65.6559 C   0  0  0  0  0  0  0  0  0  0  0  0
  -48.3255   59.3224   65.9397 C   0  0  0  0  0  0  0  0  0  0  0  0
  -48.4925   60.3727   64.8799 C   0  0  0  0  0  0  0  0  0  0  0  0
  -49.5548   60.5426   64.1128 C   0  0  0  0  0  0  0  0  0  0  0  0
  -50.8086   59.7222   64.1485 C   0  0  0  0  0  0  0  0  0  0  0  0
  -51.1029   58.9922   62.8363 C   0  0  0  0  0  0  0  0  0  0  0  0
  -49.9077   58.2175   62.2970 C   0  0  0  0  0  0  0  0  0  0  0  0
  -49.7631   58.3061   60.7820 C   0  0  0  0  0  0  0  0  0  0  0  0
  -49.1027   57.0921   60.1388 C   0  0  0  0  0  0  0  0  0  0  0  0
  -48.8878   57.2341   58.6386 C   0  0  0  0  0  0  0  0  0  0  0  0
  -47.7741   58.1966   58.2577 C   0  0  0  0  0  0  0  0  0  0  0  0
  -46.9310   57.6949   57.1030 C   0  0  0  0  0  0  0  0  0  0  0  0
  -37.1007   58.0635   65.0390 O   0  0  0  0  0  0  0  0  0  0  0  0
  -36.8847   58.1444   63.6272 C   0  0  0  0  0  0  0  0  0  0  0  0
  -38.0042   58.3500   65.2448 H   0  0  0  0  0  0  0  0  0  0  0  0
  -35.4964   57.7084   63.2716 C   0  0  0  0  0  0  0  0  0  0  0  0
  -34.7187   58.3015   62.3877 C   0  0  0  0  0  0  0  0  0  0  0  0
  -33.3316   57.8508   62.0657 C   0  0  0  0  0  0  0  0  0  0  0  0
  -32.2917   58.7253   62.7695 C   0  0  0  0  0  0  0  0  0  0  0  0
  -32.6425   60.2039   62.8053 C   0  0  0  0  0  0  0  0  0  0  0  0
  -31.7418   61.0805   61.9522 C   0  0  0  0  0  0  0  0  0  0  0  0
  -30.2570   60.7952   62.1251 C   0  0  0  0  0  0  0  0  0  0  0  0
  -29.3880   62.0432   62.0966 C   0  0  0  0  0  0  0  0  0  0  0  0
  -29.7801   63.0855   63.1291 C   0  0  0  0  0  0  0  0  0  0  0  0
  -29.5245   64.5157   62.6915 C   0  0  0  0  0  0  0  0  0  0  0  0
  -29.5491   64.7123   61.1854 C   0  0  0  0  0  0  0  0  0  0  0  0
  -30.9504   64.8992   60.6341 C   0  0  0  0  0  0  0  0  0  0  0  0
  -31.1148   66.1130   59.7398 C   0  0  0  0  0  0  0  0  0  0  0  0
  -30.9812   67.4184   60.4992 C   0  0  0  0  0  0  0  0  0  0  0  0
  -31.8967   67.4851   61.7042 C   0  0  0  0  0  0  0  0  0  0  0  0
  -37.1054   60.5713   64.3106 C   0  0  0  0  0  0  0  0  0  0  0  0
  -35.7499   61.0045   64.4705 O   0  0  0  0  0  0  0  0  0  0  0  0
  -34.3684   62.1861   66.6003 O   0  0  0  0  0  0  0  0  0  0  0  0
  -33.0109   64.2864   63.0978 O   0  0  0  0  0  0  0  0  0  0  0  0
  -35.5501   62.9400   63.2286 O   0  0  0  0  0  0  0  0  0  0  0  0
  -35.5926   62.3921   64.5329 C   0  0  0  0  0  0  0  0  0  0  0  0
  -34.2934   62.6867   65.2715 C   0  0  0  0  0  0  0  0  0  0  0  0
  -34.0358   64.1881   65.2873 C   0  0  0  0  0  0  0  0  0  0  0  0
  -34.0974   64.7682   63.8821 C   0  0  0  0  0  0  0  0  0  0  0  0
  -35.4143   64.3702   63.2202 C   0  0  0  0  0  0  0  0  0  0  0  0
  -34.5325   61.2304   66.5770 H   0  0  0  0  0  0  0  0  0  0  0  0
  -32.1730   64.5384   63.5165 H   0  0  0  0  0  0  0  0  0  0  0  0
  -34.6898   64.0159   60.9316 O   0  0  0  0  0  0  0  0  0  0  0  0
  -35.5122   64.8105   61.7784 C   0  0  0  0  0  0  0  0  0  0  0  0
  -34.7756   64.3240   60.0157 H   0  0  0  0  0  0  0  0  0  0  0  0
  -32.6776   64.3245   65.8126 O   0  0  0  0  0  0  0  0  0  0  0  0
  -32.7692   66.0850   67.4554 O   0  0  0  0  0  0  0  0  0  0  0  0
  -32.1815   66.5959   65.0660 O   0  0  0  0  0  0  0  0  0  0  0  0
  -30.6882   65.4371   66.5028 O   0  0  0  0  0  0  0  0  0  0  0  0
  -32.1612   65.7717   66.2155 S   0  0  0  0  0  0  0  0  0  0  0  0
  -33.7035   66.3023   67.3116 H   0  0  0  0  0  0  0  0  0  0  0  0
  -30.6326   64.8705   67.2881 H   0  0  0  0  0  0  0  0  0  0  0  0
  2  1  1  0  0  0
  2  4  1  0  0  0
  2  5  1  0  0  0
 47 48  1  0  0  0
 47  1  1  0  0  0
 48 52  1  0  0  0
  1 30  1  0  0  0
 29 30  1  0  0  0
 29 31  1  0  0  0
 30 32  1  0  0  0
  3  4  2  0  0  0
 32 33  2  0  0  0
 49 53  1  0  0  0
 49 57  1  0  0  0
 33 34  1  0  0  0
 62 54  1  0  0  0
 62 66  1  0  0  0
 34 35  1  0  0  0
 50 55  1  0  0  0
 50 58  1  0  0  0
 35 36  1  0  0  0
 51 52  1  0  0  0
 51 56  1  0  0  0
 36 37  1  0  0  0
 59 60  1  0  0  0
 59 61  1  0  0  0
 37 38  1  0  0  0
 63 66  1  0  0  0
 63 67  1  0  0  0
 38 39  1  0  0  0
 64 66  1  0  0  0
 39 40  1  0  0  0
 65 66  1  0  0  0
 65 68  1  0  0  0
 40 41  1  0  0  0
 41 42  1  0  0  0
 42 43  1  0  0  0
 43 44  1  0  0  0
 44 45  1  0  0  0
 45 46  1  0  0  0
  4  6  1  0  0  0
  6  7  1  0  0  0
  7  8  1  0  0  0
  8  9  1  0  0  0
  9 10  1  0  0  0
 10 11  1  0  0  0
 11 12  1  0  0  0
 12 13  1  0  0  0
 13 14  1  0  0  0
 14 15  1  0  0  0
 15 16  1  0  0  0
 16 17  1  0  0  0
 17 18  1  0  0  0
 18 19  1  0  0  0
 19 20  2  0  0  0
 20 21  1  0  0  0
 21 22  1  0  0  0
 22 23  1  0  0  0
 23 24  1  0  0  0
 24 25  1  0  0  0
 25 26  1  0  0  0
 26 27  1  0  0  0
 27 28  1  0  0  0
 52 53  1  0  0  0
 53 54  1  0  0  0
 54 55  1  0  0  0
 55 56  1  0  0  0
 56 60  1  0  0  0
M  CHG 1  64  -1
M  END
> <minimizedAffinity>
-9.39060

> <CNNscore>
0.1614493728

> <CNNaffinity>
6.8057746887

> <CNN_VS>
1.0987880230

> <CNNaffinity_variance>
1.0162643194

$$$$
/media/chris/experiments/cd1a-new-docking/inputs/ligands/7ryn_ligand.pdb


 68 68  0  0  0  0  0  0  0  0999 V2000
  -35.2611   62.5203   64.7771 C   0  0  0  0  0  0  0  0  0  0  0  0
  -36.3488   61.8985   65.5266 N   0  0  0  0  0  0  0  0  0  0  0  0
  -37.1716   60.7087   63.8018 O   0  0  0  0  0  0  0  0  0  0  0  0
  -37.2179   61.0428   64.9822 C   0  0  0  0  0  0  0  0  0  0  0  0
  -36.4465   62.1210   66.4807 H   0  0  0  0  0  0  0  0  0  0  0  0
  -38.2691   60.4977   65.9166 C   0  0  0  0  0  0  0  0  0  0  0  0
  -38.6421   59.0550   65.5996 C   0  0  0  0  0  0  0  0  0  0  0  0
  -40.1444   58.8476   65.4934 C   0  0  0  0  0  0  0  0  0  0  0  0
  -40.6858   58.9766   64.0794 C   0  0  0  0  0  0  0  0  0  0  0  0
  -41.2405   60.3559   63.7565 C   0  0  0  0  0  0  0  0  0  0  0  0
  -42.7135   60.3561   63.3678 C   0  0  0  0  0  0  0  0  0  0  0  0
  -43.3124   58.9635   63.2183 C   0  0  0  0  0  0  0  0  0  0  0  0
  -44.4261   58.6426   64.2118 C   0  0  0  0  0  0  0  0  0  0  0  0
  -44.0928   57.5024   65.1728 C   0  0  0  0  0  0  0  0  0  0  0  0
  -44.6385   57.6827   66.5891 C   0  0  0  0  0  0  0  0  0  0  0  0
  -45.7051   58.7726   66.6967 C   0  0  0  0  0  0  0  0  0  0  0  0
  -47.1351   58.2631   66.8757 C   0  0  0  0  0  0  0  0  0  0  0  0
  -48.0629   58.5134   65.6837 C   0  0  0  0  0  0  0  0  0  0  0  0
  -49.5107   58.5802   66.0754 C   0  0  0  0  0  0  0  0  0  0  0  0
  -50.4859   59.1168   65.3634 C   0  0  0  0  0  0  0  0  0  0  0  0
  -50.3430   59.7644   64.0194 C   0  0  0  0  0  0  0  0  0  0  0  0
  -51.2559   59.1645   62.9480 C   0  0  0  0  0  0  0  0  0  0  0  0
  -50.5488   58.1600   62.0478 C   0  0  0  0  0  0  0  0  0  0  0  0
  -49.7523   58.8116   60.9230 C   0  0  0  0  0  0  0  0  0  0  0  0
  -49.7123   58.0064   59.6293 C   0  0  0  0  0  0  0  0  0  0  0  0
  -48.3279   57.4809   59.2768 C   0  0  0  0  0  0  0  0  0  0  0  0
  -48.1209   57.2182   57.7936 C   0  0  0  0  0  0  0  0  0  0  0  0
  -47.0324   58.0813   57.1885 C   0  0  0  0  0  0  0  0  0  0  0  0
  -32.9313   62.5419   65.4146 O   0  0  0  0  0  0  0  0  0  0  0  0
  -33.9810   61.6874   64.9514 C   0  0  0  0  0  0  0  0  0  0  0  0
  -33.2047   62.9714   66.2401 H   0  0  0  0  0  0  0  0  0  0  0  0
  -33.5931   61.0056   63.6752 C   0  0  0  0  0  0  0  0  0  0  0  0
  -32.8806   59.8995   63.5929 C   0  0  0  0  0  0  0  0  0  0  0  0
  -32.5225   59.2351   62.3041 C   0  0  0  0  0  0  0  0  0  0  0  0
  -32.9076   57.7543   62.3228 C   0  0  0  0  0  0  0  0  0  0  0  0
  -34.2569   57.4696   62.9623 C   0  0  0  0  0  0  0  0  0  0  0  0
  -35.4488   57.8887   62.1188 C   0  0  0  0  0  0  0  0  0  0  0  0
  -36.7944   57.4929   62.7092 C   0  0  0  0  0  0  0  0  0  0  0  0
  -37.9547   57.6385   61.7367 C   0  0  0  0  0  0  0  0  0  0  0  0
  -37.8250   58.8293   60.8032 C   0  0  0  0  0  0  0  0  0  0  0  0
  -38.9394   58.9362   59.7791 C   0  0  0  0  0  0  0  0  0  0  0  0
  -40.1696   59.6713   60.2826 C   0  0  0  0  0  0  0  0  0  0  0  0
  -41.4462   58.8652   60.1312 C   0  0  0  0  0  0  0  0  0  0  0  0
  -41.2434   57.3622   60.1479 C   0  0  0  0  0  0  0  0  0  0  0  0
  -42.0278   56.6808   61.2519 C   0  0  0  0  0  0  0  0  0  0  0  0
  -41.1355   55.9339   62.2217 C   0  0  0  0  0  0  0  0  0  0  0  0
  -35.0726   63.9540   65.2281 C   0  0  0  0  0  0  0  0  0  0  0  0
  -34.8414   64.7638   64.0699 O   0  0  0  0  0  0  0  0  0  0  0  0
  -34.2231   65.1924   61.3727 O   0  0  0  0  0  0  0  0  0  0  0  0
  -31.3770   67.5726   63.5536 O   0  0  0  0  0  0  0  0  0  0  0  0
  -32.6705   65.2613   64.6769 O   0  0  0  0  0  0  0  0  0  0  0  0
  -33.5111   64.7885   63.6410 C   0  0  0  0  0  0  0  0  0  0  0  0
  -33.4233   65.7076   62.4295 C   0  0  0  0  0  0  0  0  0  0  0  0
  -31.9732   65.8342   61.9798 C   0  0  0  0  0  0  0  0  0  0  0  0
  -31.0756   66.2445   63.1378 C   0  0  0  0  0  0  0  0  0  0  0  0
  -31.2818   65.2886   64.3101 C   0  0  0  0  0  0  0  0  0  0  0  0
  -35.1430   65.1165   61.6709 H   0  0  0  0  0  0  0  0  0  0  0  0
  -31.2465   68.1818   62.8102 H   0  0  0  0  0  0  0  0  0  0  0  0
  -31.1217   66.7877   66.2115 O   0  0  0  0  0  0  0  0  0  0  0  0
  -30.5106   65.6883   65.5462 C   0  0  0  0  0  0  0  0  0  0  0  0
  -30.6032   67.0183   66.9983 H   0  0  0  0  0  0  0  0  0  0  0  0
  -31.9895   66.8967   60.9747 O   0  0  0  0  0  0  0  0  0  0  0  0
  -30.9450   65.5159   59.2986 O   0  0  0  0  0  0  0  0  0  0  0  0
  -29.7682   67.5470   60.1962 O   0  0  0  0  0  0  0  0  0  0  0  0
  -31.6552   67.7226   58.7661 O   0  0  0  0  0  0  0  0  0  0  0  0
  -30.9272   66.8420   59.7949 S   0  0  0  0  0  0  0  0  0  0  0  0
  -30.4921   64.9300   59.9252 H   0  0  0  0  0  0  0  0  0  0  0  0
  -32.4593   67.2711   58.4654 H   0  0  0  0  0  0  0  0  0  0  0  0
  2  1  1  0  0  0
  2  4  1  0  0  0
  2  5  1  0  0  0
 47 48  1  0  0  0
 47  1  1  0  0  0
 48 52  1  0  0  0
  1 30  1  0  0  0
 29 30  1  0  0  0
 29 31  1  0  0  0
 30 32  1  0  0  0
  3  4  2  0  0  0
 32 33  2  0  0  0
 49 53  1  0  0  0
 49 57  1  0  0  0
 33 34  1  0  0  0
 62 54  1  0  0  0
 62 66  1  0  0  0
 34 35  1  0  0  0
 50 55  1  0  0  0
 50 58  1  0  0  0
 35 36  1  0  0  0
 51 52  1  0  0  0
 51 56  1  0  0  0
 36 37  1  0  0  0
 59 60  1  0  0  0
 59 61  1  0  0  0
 37 38  1  0  0  0
 63 66  1  0  0  0
 63 67  1  0  0  0
 38 39  1  0  0  0
 64 66  1  0  0  0
 39 40  1  0  0  0
 65 66  1  0  0  0
 65 68  1  0  0  0
 40 41  1  0  0  0
 41 42  1  0  0  0
 42 43  1  0  0  0
 43 44  1  0  0  0
 44 45  1  0  0  0
 45 46  1  0  0  0
  4  6  1  0  0  0
  6  7  1  0  0  0
  7  8  1  0  0  0
  8  9  1  0  0  0
  9 10  1  0  0  0
 10 11  1  0  0  0
 11 12  1  0  0  0
 12 13  1  0  0  0
 13 14  1  0  0  0
 14 15  1  0  0  0
 15 16  1  0  0  0
 16 17  1  0  0  0
 17 18  1  0  0  0
 18 19  1  0  0  0
 19 20  2  0  0  0
 20 21  1  0  0  0
 21 22  1  0  0  0
 22 23  1  0  0  0
 23 24  1  0  0  0
 24 25  1  0  0  0
 25 26  1  0  0  0
 26 27  1  0  0  0
 27 28  1  0  0  0
 52 53  1  0  0  0
 53 54  1  0  0  0
 54 55  1  0  0  0
 55 56  1  0  0  0
 56 60  1  0  0  0
M  CHG 1  64  -1
M  END
> <minimizedAffinity>
-9.09333

> <CNNscore>
0.1587864161

> <CNNaffinity>
7.0197219849

> <CNN_VS>
1.1146365404

> <CNNaffinity_variance>
1.0773965120

$$$$
/media/chris/experiments/cd1a-new-docking/inputs/ligands/7ryn_ligand.pdb


 68 68  0  0  0  0  0  0  0  0999 V2000
  -40.5267   61.2783   63.8707 C   0  0  0  0  0  0  0  0  0  0  0  0
  -41.1552   60.3956   64.8490 N   0  0  0  0  0  0  0  0  0  0  0  0
  -41.4286   61.9653   66.4393 O   0  0  0  0  0  0  0  0  0  0  0  0
  -41.5567   60.8065   66.0549 C   0  0  0  0  0  0  0  0  0  0  0  0
  -41.2899   59.4506   64.6080 H   0  0  0  0  0  0  0  0  0  0  0  0
  -42.1918   59.7512   66.9257 C   0  0  0  0  0  0  0  0  0  0  0  0
  -41.9237   58.3385   66.4225 C   0  0  0  0  0  0  0  0  0  0  0  0
  -43.1892   57.5022   66.3207 C   0  0  0  0  0  0  0  0  0  0  0  0
  -43.4321   56.9178   64.9392 C   0  0  0  0  0  0  0  0  0  0  0  0
  -43.9311   57.9323   63.9211 C   0  0  0  0  0  0  0  0  0  0  0  0
  -44.7838   59.0435   64.5201 C   0  0  0  0  0  0  0  0  0  0  0  0
  -46.2041   58.6139   64.8642 C   0  0  0  0  0  0  0  0  0  0  0  0
  -46.5854   58.8017   66.3305 C   0  0  0  0  0  0  0  0  0  0  0  0
  -48.0794   59.0229   66.5612 C   0  0  0  0  0  0  0  0  0  0  0  0
  -48.9808   57.9247   65.9975 C   0  0  0  0  0  0  0  0  0  0  0  0
  -50.4708   58.2557   66.0837 C   0  0  0  0  0  0  0  0  0  0  0  0
  -50.8303   59.7078   65.7696 C   0  0  0  0  0  0  0  0  0  0  0  0
  -51.1712   59.9851   64.3030 C   0  0  0  0  0  0  0  0  0  0  0  0
  -49.9594   60.2859   63.4692 C   0  0  0  0  0  0  0  0  0  0  0  0
  -49.3324   59.4381   62.6729 C   0  0  0  0  0  0  0  0  0  0  0  0
  -49.7069   58.0058   62.4397 C   0  0  0  0  0  0  0  0  0  0  0  0
  -50.7340   57.8134   61.3219 C   0  0  0  0  0  0  0  0  0  0  0  0
  -50.1016   57.6096   59.9515 C   0  0  0  0  0  0  0  0  0  0  0  0
  -49.1350   56.4319   59.9005 C   0  0  0  0  0  0  0  0  0  0  0  0
  -47.7456   56.7778   59.3774 C   0  0  0  0  0  0  0  0  0  0  0  0
  -47.3254   55.9585   58.1653 C   0  0  0  0  0  0  0  0  0  0  0  0
  -46.7483   56.7836   57.0260 C   0  0  0  0  0  0  0  0  0  0  0  0
  -47.2147   58.2251   57.0475 C   0  0  0  0  0  0  0  0  0  0  0  0
  -42.7169   61.6704   62.9305 O   0  0  0  0  0  0  0  0  0  0  0  0
  -41.3761   61.3062   62.5899 C   0  0  0  0  0  0  0  0  0  0  0  0
  -42.7134   62.5261   63.3871 H   0  0  0  0  0  0  0  0  0  0  0  0
  -41.3426   59.9867   61.8816 C   0  0  0  0  0  0  0  0  0  0  0  0
  -41.4368   59.8242   60.5767 C   0  0  0  0  0  0  0  0  0  0  0  0
  -41.3851   58.4945   59.8986 C   0  0  0  0  0  0  0  0  0  0  0  0
  -42.0217   57.4083   60.7681 C   0  0  0  0  0  0  0  0  0  0  0  0
  -41.0463   56.3493   61.2558 C   0  0  0  0  0  0  0  0  0  0  0  0
  -40.7509   56.4105   62.7447 C   0  0  0  0  0  0  0  0  0  0  0  0
  -39.5048   57.2103   63.0959 C   0  0  0  0  0  0  0  0  0  0  0  0
  -38.4856   57.2791   61.9691 C   0  0  0  0  0  0  0  0  0  0  0  0
  -37.0482   57.3774   62.4492 C   0  0  0  0  0  0  0  0  0  0  0  0
  -36.9086   57.5559   63.9495 C   0  0  0  0  0  0  0  0  0  0  0  0
  -35.5008   57.3198   64.4690 C   0  0  0  0  0  0  0  0  0  0  0  0
  -34.6593   58.5822   64.4980 C   0  0  0  0  0  0  0  0  0  0  0  0
  -33.1659   58.3420   64.3875 C   0  0  0  0  0  0  0  0  0  0  0  0
  -32.5962   58.8147   63.0644 C   0  0  0  0  0  0  0  0  0  0  0  0
  -33.2045   58.0931   61.8796 C   0  0  0  0  0  0  0  0  0  0  0  0
  -39.1060   60.8273   63.6013 C   0  0  0  0  0  0  0  0  0  0  0  0
  -38.4938   60.4953   64.8526 O   0  0  0  0  0  0  0  0  0  0  0  0
  -36.6994   60.7878   62.7229 O   0  0  0  0  0  0  0  0  0  0  0  0
  -36.4644   64.5001   64.8876 O   0  0  0  0  0  0  0  0  0  0  0  0
  -37.3073   62.0317   66.1018 O   0  0  0  0  0  0  0  0  0  0  0  0
  -37.2411   61.0822   65.0542 C   0  0  0  0  0  0  0  0  0  0  0  0
  -36.8224   61.7581   63.7551 C   0  0  0  0  0  0  0  0  0  0  0  0
  -35.4996   62.4873   63.9538 C   0  0  0  0  0  0  0  0  0  0  0  0
  -35.5670   63.4259   65.1494 C   0  0  0  0  0  0  0  0  0  0  0  0
  -36.0439   62.6568   66.3789 C   0  0  0  0  0  0  0  0  0  0  0  0
  -37.5470   60.3309   62.6060 H   0  0  0  0  0  0  0  0  0  0  0  0
  -36.1632   64.9902   64.1067 H   0  0  0  0  0  0  0  0  0  0  0  0
  -36.5485   62.7710   68.7497 O   0  0  0  0  0  0  0  0  0  0  0  0
  -36.2477   63.5376   67.5892 C   0  0  0  0  0  0  0  0  0  0  0  0
  -36.6732   63.3651   69.5064 H   0  0  0  0  0  0  0  0  0  0  0  0
  -35.3205   63.2679   62.7299 O   0  0  0  0  0  0  0  0  0  0  0  0
  -33.2533   64.3631   63.3076 O   0  0  0  0  0  0  0  0  0  0  0  0
  -33.8802   64.0041   60.9006 O   0  0  0  0  0  0  0  0  0  0  0  0
  -33.2315   62.2051   62.3076 O   0  0  0  0  0  0  0  0  0  0  0  0
  -33.8432   63.6148   62.2601 S   0  0  0  0  0  0  0  0  0  0  0  0
  -33.6175   65.2621   63.3077 H   0  0  0  0  0  0  0  0  0  0  0  0
  -33.1890   61.9018   63.2280 H   0  0  0  0  0  0  0  0  0  0  0  0
  2  1  1  0  0  0
  2  4  1  0  0  0
  2  5  1  0  0  0
 47 48  1  0  0  0
 47  1  1  0  0  0
 48 52  1  0  0  0
  1 30  1  0  0  0
 29 30  1  0  0  0
 29 31  1  0  0  0
 30 32  1  0  0  0
  3  4  2  0  0  0
 32 33  2  0  0  0
 49 53  1  0  0  0
 49 57  1  0  0  0
 33 34  1  0  0  0
 62 54  1  0  0  0
 62 66  1  0  0  0
 34 35  1  0  0  0
 50 55  1  0  0  0
 50 58  1  0  0  0
 35 36  1  0  0  0
 51 52  1  0  0  0
 51 56  1  0  0  0
 36 37  1  0  0  0
 59 60  1  0  0  0
 59 61  1  0  0  0
 37 38  1  0  0  0
 63 66  1  0  0  0
 63 67  1  0  0  0
 38 39  1  0  0  0
 64 66  1  0  0  0
 39 40  1  0  0  0
 65 66  1  0  0  0
 65 68  1  0  0  0
 40 41  1  0  0  0
 41 42  1  0  0  0
 42 43  1  0  0  0
 43 44  1  0  0  0
 44 45  1  0  0  0
 45 46  1  0  0  0
  4  6  1  0  0  0
  6  7  1  0  0  0
  7  8  1  0  0  0
  8  9  1  0  0  0
  9 10  1  0  0  0
 10 11  1  0  0  0
 11 12  1  0  0  0
 12 13  1  0  0  0
 13 14  1  0  0  0
 14 15  1  0  0  0
 15 16  1  0  0  0
 16 17  1  0  0  0
 17 18  1  0  0  0
 18 19  1  0  0  0
 19 20  2  0  0  0
 20 21  1  0  0  0
 21 22  1  0  0  0
 22 23  1  0  0  0
 23 24  1  0  0  0
 24 25  1  0  0  0
 25 26  1  0  0  0
 26 27  1  0  0  0
 27 28  1  0  0  0
 52 53  1  0  0  0
 53 54  1  0  0  0
 54 55  1  0  0  0
 55 56  1  0  0  0
 56 60  1  0  0  0
M  CHG 1  64  -1
M  END
> <minimizedAffinity>
-9.83934

> <CNNscore>
0.1327212602

> <CNNaffinity>
7.4164361954

> <CNN_VS>
0.9843187332

> <CNNaffinity_variance>
2.6226906776

$$$$
/media/chris/experiments/cd1a-new-docking/inputs/ligands/7ryn_ligand.pdb


 68 68  0  0  0  0  0  0  0  0999 V2000
  -38.1884   59.6196   61.8790 C   0  0  0  0  0  0  0  0  0  0  0  0
  -39.5002   59.1759   61.4170 N   0  0  0  0  0  0  0  0  0  0  0  0
  -38.8968   58.8541   59.2723 O   0  0  0  0  0  0  0  0  0  0  0  0
  -39.7523   58.8282   60.1522 C   0  0  0  0  0  0  0  0  0  0  0  0
  -40.2356   59.1307   62.0701 H   0  0  0  0  0  0  0  0  0  0  0  0
  -41.1667   58.3890   59.8659 C   0  0  0  0  0  0  0  0  0  0  0  0
  -41.5162   57.0674   60.5382 C   0  0  0  0  0  0  0  0  0  0  0  0
  -41.9974   57.2464   61.9691 C   0  0  0  0  0  0  0  0  0  0  0  0
  -41.3903   56.2588   62.9515 C   0  0  0  0  0  0  0  0  0  0  0  0
  -40.7839   56.9115   64.1846 C   0  0  0  0  0  0  0  0  0  0  0  0
  -41.3327   58.3008   64.4838 C   0  0  0  0  0  0  0  0  0  0  0  0
  -41.7878   58.4871   65.9255 C   0  0  0  0  0  0  0  0  0  0  0  0
  -43.0038   57.6524   66.3192 C   0  0  0  0  0  0  0  0  0  0  0  0
  -44.3356   58.3870   66.1744 C   0  0  0  0  0  0  0  0  0  0  0  0
  -44.8839   58.4373   64.7485 C   0  0  0  0  0  0  0  0  0  0  0  0
  -46.3907   58.6877   64.6839 C   0  0  0  0  0  0  0  0  0  0  0  0
  -47.0507   59.0129   66.0237 C   0  0  0  0  0  0  0  0  0  0  0  0
  -48.3865   59.7541   65.9217 C   0  0  0  0  0  0  0  0  0  0  0  0
  -49.5695   58.8584   66.1506 C   0  0  0  0  0  0  0  0  0  0  0  0
  -50.7553   58.9735   65.5792 C   0  0  0  0  0  0  0  0  0  0  0  0
  -51.1570   60.0205   64.5848 C   0  0  0  0  0  0  0  0  0  0  0  0
  -51.3175   59.4856   63.1603 C   0  0  0  0  0  0  0  0  0  0  0  0
  -50.0042   59.4134   62.3926 C   0  0  0  0  0  0  0  0  0  0  0  0
  -49.6533   58.0053   61.9253 C   0  0  0  0  0  0  0  0  0  0  0  0
  -50.4794   57.5077   60.7448 C   0  0  0  0  0  0  0  0  0  0  0  0
  -49.7462   57.5736   59.4124 C   0  0  0  0  0  0  0  0  0  0  0  0
  -48.2316   57.5140   59.5319 C   0  0  0  0  0  0  0  0  0  0  0  0
  -47.6440   56.2450   58.9486 C   0  0  0  0  0  0  0  0  0  0  0  0
  -37.5833   58.8992   64.1038 O   0  0  0  0  0  0  0  0  0  0  0  0
  -37.5452   58.5109   62.7275 C   0  0  0  0  0  0  0  0  0  0  0  0
  -38.5008   59.0752   64.3647 H   0  0  0  0  0  0  0  0  0  0  0  0
  -36.1406   58.2304   62.2886 C   0  0  0  0  0  0  0  0  0  0  0  0
  -35.1145   58.0546   63.0974 C   0  0  0  0  0  0  0  0  0  0  0  0
  -33.7271   57.7613   62.6287 C   0  0  0  0  0  0  0  0  0  0  0  0
  -32.7178   58.7208   63.2626 C   0  0  0  0  0  0  0  0  0  0  0  0
  -32.8679   60.1664   62.8172 C   0  0  0  0  0  0  0  0  0  0  0  0
  -31.8009   60.6336   61.8419 C   0  0  0  0  0  0  0  0  0  0  0  0
  -30.3796   60.3067   62.2765 C   0  0  0  0  0  0  0  0  0  0  0  0
  -29.3912   61.4365   62.0323 C   0  0  0  0  0  0  0  0  0  0  0  0
  -29.8004   62.7550   62.6650 C   0  0  0  0  0  0  0  0  0  0  0  0
  -29.5018   63.9710   61.8080 C   0  0  0  0  0  0  0  0  0  0  0  0
  -30.6330   64.3557   60.8700 C   0  0  0  0  0  0  0  0  0  0  0  0
  -30.2499   65.4565   59.8983 C   0  0  0  0  0  0  0  0  0  0  0  0
  -31.0501   66.7355   60.0539 C   0  0  0  0  0  0  0  0  0  0  0  0
  -32.2410   66.5689   60.9771 C   0  0  0  0  0  0  0  0  0  0  0  0
  -32.2293   67.5586   62.1238 C   0  0  0  0  0  0  0  0  0  0  0  0
  -38.3199   60.9190   62.6463 C   0  0  0  0  0  0  0  0  0  0  0  0
  -37.0800   61.6285   62.5466 O   0  0  0  0  0  0  0  0  0  0  0  0
  -34.7233   63.1321   62.7084 O   0  0  0  0  0  0  0  0  0  0  0  0
  -36.7805   63.8946   66.4109 O   0  0  0  0  0  0  0  0  0  0  0  0
  -37.2005   61.5152   64.8491 O   0  0  0  0  0  0  0  0  0  0  0  0
  -36.3428   61.6688   63.7337 C   0  0  0  0  0  0  0  0  0  0  0  0
  -35.6276   63.0120   63.7992 C   0  0  0  0  0  0  0  0  0  0  0  0
  -34.8794   63.1363   65.1205 C   0  0  0  0  0  0  0  0  0  0  0  0
  -35.8027   62.8654   66.2991 C   0  0  0  0  0  0  0  0  0  0  0  0
  -36.5022   61.5224   66.1045 C   0  0  0  0  0  0  0  0  0  0  0  0
  -35.2109   63.0514   61.8738 H   0  0  0  0  0  0  0  0  0  0  0  0
  -36.3381   64.7489   66.5347 H   0  0  0  0  0  0  0  0  0  0  0  0
  -38.6392   60.5111   66.6511 O   0  0  0  0  0  0  0  0  0  0  0  0
  -37.5248   61.2238   67.1757 C   0  0  0  0  0  0  0  0  0  0  0  0
  -39.2749   60.3359   67.3626 H   0  0  0  0  0  0  0  0  0  0  0  0
  -34.4308   64.5278   65.1616 O   0  0  0  0  0  0  0  0  0  0  0  0
  -32.7206   65.9720   66.0540 O   0  0  0  0  0  0  0  0  0  0  0  0
  -32.3107   64.6505   63.9561 O   0  0  0  0  0  0  0  0  0  0  0  0
  -32.4371   63.6106   66.0867 O   0  0  0  0  0  0  0  0  0  0  0  0
  -32.8716   64.8207   65.2435 S   0  0  0  0  0  0  0  0  0  0  0  0
  -32.9869   66.7581   65.5519 H   0  0  0  0  0  0  0  0  0  0  0  0
  -32.8038   63.6913   66.9811 H   0  0  0  0  0  0  0  0  0  0  0  0
  2  1  1  0  0  0
  2  4  1  0  0  0
  2  5  1  0  0  0
 47 48  1  0  0  0
 47  1  1  0  0  0
 48 52  1  0  0  0
  1 30  1  0  0  0
 29 30  1  0  0  0
 29 31  1  0  0  0
 30 32  1  0  0  0
  3  4  2  0  0  0
 32 33  2  0  0  0
 49 53  1  0  0  0
 49 57  1  0  0  0
 33 34  1  0  0  0
 62 54  1  0  0  0
 62 66  1  0  0  0
 34 35  1  0  0  0
 50 55  1  0  0  0
 50 58  1  0  0  0
 35 36  1  0  0  0
 51 52  1  0  0  0
 51 56  1  0  0  0
 36 37  1  0  0  0
 59 60  1  0  0  0
 59 61  1  0  0  0
 37 38  1  0  0  0
 63 66  1  0  0  0
 63 67  1  0  0  0
 38 39  1  0  0  0
 64 66  1  0  0  0
 39 40  1  0  0  0
 65 66  1  0  0  0
 65 68  1  0  0  0
 40 41  1  0  0  0
 41 42  1  0  0  0
 42 43  1  0  0  0
 43 44  1  0  0  0
 44 45  1  0  0  0
 45 46  1  0  0  0
  4  6  1  0  0  0
  6  7  1  0  0  0
  7  8  1  0  0  0
  8  9  1  0  0  0
  9 10  1  0  0  0
 10 11  1  0  0  0
 11 12  1  0  0  0
 12 13  1  0  0  0
 13 14  1  0  0  0
 14 15  1  0  0  0
 15 16  1  0  0  0
 16 17  1  0  0  0
 17 18  1  0  0  0
 18 19  1  0  0  0
 19 20  2  0  0  0
 20 21  1  0  0  0
 21 22  1  0  0  0
 22 23  1  0  0  0
 23 24  1  0  0  0
 24 25  1  0  0  0
 25 26  1  0  0  0
 26 27  1  0  0  0
 27 28  1  0  0  0
 52 53  1  0  0  0
 53 54  1  0  0  0
 54 55  1  0  0  0
 55 56  1  0  0  0
 56 60  1  0  0  0
M  CHG 1  64  -1
M  END
> <minimizedAffinity>
-9.08276

> <CNNscore>
0.1283707172

> <CNNaffinity>
6.7861738205

> <CNN_VS>
0.8711460233

> <CNNaffinity_variance>
0.9802871943

$$$$
/media/chris/experiments/cd1a-new-docking/inputs/ligands/7ryn_ligand.pdb


 68 68  0  0  0  0  0  0  0  0999 V2000
  -35.5631   62.3150   64.6456 C   0  0  0  0  0  0  0  0  0  0  0  0
  -36.8514   61.6330   64.7250 N   0  0  0  0  0  0  0  0  0  0  0  0
  -37.0562   61.2612   62.5142 O   0  0  0  0  0  0  0  0  0  0  0  0
  -37.4968   61.1599   63.6556 C   0  0  0  0  0  0  0  0  0  0  0  0
  -37.2650   61.5159   65.6107 H   0  0  0  0  0  0  0  0  0  0  0  0
  -38.8127   60.4782   63.9365 C   0  0  0  0  0  0  0  0  0  0  0  0
  -38.8965   59.9304   65.3555 C   0  0  0  0  0  0  0  0  0  0  0  0
  -40.2128   59.2227   65.6342 C   0  0  0  0  0  0  0  0  0  0  0  0
  -41.1864   60.0384   66.4683 C   0  0  0  0  0  0  0  0  0  0  0  0
  -42.3486   59.2291   67.0239 C   0  0  0  0  0  0  0  0  0  0  0  0
  -42.9013   58.1920   66.0545 C   0  0  0  0  0  0  0  0  0  0  0  0
  -44.4186   58.0618   66.0892 C   0  0  0  0  0  0  0  0  0  0  0  0
  -45.1211   58.4901   64.8034 C   0  0  0  0  0  0  0  0  0  0  0  0
  -46.6448   58.5272   64.9098 C   0  0  0  0  0  0  0  0  0  0  0  0
  -47.2300   57.6233   65.9946 C   0  0  0  0  0  0  0  0  0  0  0  0
  -48.7462   57.7522   66.1422 C   0  0  0  0  0  0  0  0  0  0  0  0
  -49.3161   59.1262   65.7906 C   0  0  0  0  0  0  0  0  0  0  0  0
  -50.8437   59.1894   65.7095 C   0  0  0  0  0  0  0  0  0  0  0  0
  -51.3329   60.1152   64.6335 C   0  0  0  0  0  0  0  0  0  0  0  0
  -51.4497   59.8243   63.3499 C   0  0  0  0  0  0  0  0  0  0  0  0
  -51.1196   58.5097   62.7102 C   0  0  0  0  0  0  0  0  0  0  0  0
  -49.7130   58.4541   62.1105 C   0  0  0  0  0  0  0  0  0  0  0  0
  -49.6300   59.0535   60.7129 C   0  0  0  0  0  0  0  0  0  0  0  0
  -49.7381   58.0151   59.6020 C   0  0  0  0  0  0  0  0  0  0  0  0
  -48.8729   56.7772   59.8087 C   0  0  0  0  0  0  0  0  0  0  0  0
  -47.6104   56.7628   58.9585 C   0  0  0  0  0  0  0  0  0  0  0  0
  -47.4677   57.9629   58.0359 C   0  0  0  0  0  0  0  0  0  0  0  0
  -47.4675   57.5820   56.5693 C   0  0  0  0  0  0  0  0  0  0  0  0
  -33.7396   62.5465   66.2129 O   0  0  0  0  0  0  0  0  0  0  0  0
  -34.5421   61.5798   65.5288 C   0  0  0  0  0  0  0  0  0  0  0  0
  -34.3125   63.1362   66.7275 H   0  0  0  0  0  0  0  0  0  0  0  0
  -33.6890   60.6499   64.7217 C   0  0  0  0  0  0  0  0  0  0  0  0
  -33.9619   59.3815   64.4878 C   0  0  0  0  0  0  0  0  0  0  0  0
  -33.0975   58.4829   63.6656 C   0  0  0  0  0  0  0  0  0  0  0  0
  -33.9293   57.6991   62.6482 C   0  0  0  0  0  0  0  0  0  0  0  0
  -35.2939   58.3041   62.3608 C   0  0  0  0  0  0  0  0  0  0  0  0
  -36.4608   57.5053   62.9159 C   0  0  0  0  0  0  0  0  0  0  0  0
  -37.6521   57.4142   61.9735 C   0  0  0  0  0  0  0  0  0  0  0  0
  -38.9860   57.2615   62.6882 C   0  0  0  0  0  0  0  0  0  0  0  0
  -40.1847   57.2744   61.7560 C   0  0  0  0  0  0  0  0  0  0  0  0
  -41.5124   57.0428   62.4530 C   0  0  0  0  0  0  0  0  0  0  0  0
  -42.5423   58.1284   62.1917 C   0  0  0  0  0  0  0  0  0  0  0  0
  -41.9594   59.5278   62.2575 C   0  0  0  0  0  0  0  0  0  0  0  0
  -42.6798   60.4621   63.2105 C   0  0  0  0  0  0  0  0  0  0  0  0
  -42.3459   61.9198   62.9609 C   0  0  0  0  0  0  0  0  0  0  0  0
  -43.0222   62.4659   61.7204 C   0  0  0  0  0  0  0  0  0  0  0  0
  -35.7189   63.7677   65.0452 C   0  0  0  0  0  0  0  0  0  0  0  0
  -35.2438   64.5844   63.9690 O   0  0  0  0  0  0  0  0  0  0  0  0
  -33.9963   64.7819   61.4698 O   0  0  0  0  0  0  0  0  0  0  0  0
  -31.8830   67.5613   63.9859 O   0  0  0  0  0  0  0  0  0  0  0  0
  -33.3140   65.2901   65.0208 O   0  0  0  0  0  0  0  0  0  0  0  0
  -33.8512   64.6584   63.8738 C   0  0  0  0  0  0  0  0  0  0  0  0
  -33.5057   65.4550   62.6223 C   0  0  0  0  0  0  0  0  0  0  0  0
  -31.9962   65.6364   62.5243 C   0  0  0  0  0  0  0  0  0  0  0  0
  -31.4314   66.2223   63.8099 C   0  0  0  0  0  0  0  0  0  0  0  0
  -31.8802   65.3769   64.9993 C   0  0  0  0  0  0  0  0  0  0  0  0
  -34.9573   64.6725   61.5439 H   0  0  0  0  0  0  0  0  0  0  0  0
  -31.5988   68.1003   63.2313 H   0  0  0  0  0  0  0  0  0  0  0  0
  -32.5790   66.2443   67.1552 O   0  0  0  0  0  0  0  0  0  0  0  0
  -31.4567   65.9514   66.3308 C   0  0  0  0  0  0  0  0  0  0  0  0
  -32.2730   66.6104   67.9998 H   0  0  0  0  0  0  0  0  0  0  0  0
  -31.8088   66.5888   61.4302 O   0  0  0  0  0  0  0  0  0  0  0  0
  -29.5212   66.3860   60.7006 O   0  0  0  0  0  0  0  0  0  0  0  0
  -31.3704   66.7179   59.0314 O   0  0  0  0  0  0  0  0  0  0  0  0
  -31.0964   64.6735   60.2071 O   0  0  0  0  0  0  0  0  0  0  0  0
  -30.8435   66.1898   60.2334 S   0  0  0  0  0  0  0  0  0  0  0  0
  -29.3262   67.3358   60.7301 H   0  0  0  0  0  0  0  0  0  0  0  0
  -30.7473   64.2734   61.0188 H   0  0  0  0  0  0  0  0  0  0  0  0
  2  1  1  0  0  0
  2  4  1  0  0  0
  2  5  1  0  0  0
 47 48  1  0  0  0
 47  1  1  0  0  0
 48 52  1  0  0  0
  1 30  1  0  0  0
 29 30  1  0  0  0
 29 31  1  0  0  0
 30 32  1  0  0  0
  3  4  2  0  0  0
 32 33  2  0  0  0
 49 53  1  0  0  0
 49 57  1  0  0  0
 33 34  1  0  0  0
 62 54  1  0  0  0
 62 66  1  0  0  0
 34 35  1  0  0  0
 50 55  1  0  0  0
 50 58  1  0  0  0
 35 36  1  0  0  0
 51 52  1  0  0  0
 51 56  1  0  0  0
 36 37  1  0  0  0
 59 60  1  0  0  0
 59 61  1  0  0  0
 37 38  1  0  0  0
 63 66  1  0  0  0
 63 67  1  0  0  0
 38 39  1  0  0  0
 64 66  1  0  0  0
 39 40  1  0  0  0
 65 66  1  0  0  0
 65 68  1  0  0  0
 40 41  1  0  0  0
 41 42  1  0  0  0
 42 43  1  0  0  0
 43 44  1  0  0  0
 44 45  1  0  0  0
 45 46  1  0  0  0
  4  6  1  0  0  0
  6  7  1  0  0  0
  7  8  1  0  0  0
  8  9  1  0  0  0
  9 10  1  0  0  0
 10 11  1  0  0  0
 11 12  1  0  0  0
 12 13  1  0  0  0
 13 14  1  0  0  0
 14 15  1  0  0  0
 15 16  1  0  0  0
 16 17  1  0  0  0
 17 18  1  0  0  0
 18 19  1  0  0  0
 19 20  2  0  0  0
 20 21  1  0  0  0
 21 22  1  0  0  0
 22 23  1  0  0  0
 23 24  1  0  0  0
 24 25  1  0  0  0
 25 26  1  0  0  0
 26 27  1  0  0  0
 27 28  1  0  0  0
 52 53  1  0  0  0
 53 54  1  0  0  0
 54 55  1  0  0  0
 55 56  1  0  0  0
 56 60  1  0  0  0
M  CHG 1  64  -1
M  END
> <minimizedAffinity>
-9.66914

> <CNNscore>
0.1243045032

> <CNNaffinity>
6.8657732010

> <CNN_VS>
0.8534465432

> <CNNaffinity_variance>
1.3491026163

$$$$
/media/chris/experiments/cd1a-new-docking/inputs/ligands/7ryn_ligand.pdb


 68 68  0  0  0  0  0  0  0  0999 V2000
  -34.8720   59.9469   63.6900 C   0  0  0  0  0  0  0  0  0  0  0  0
  -35.9810   59.8893   64.6377 N   0  0  0  0  0  0  0  0  0  0  0  0
  -37.0325   61.7299   63.8799 O   0  0  0  0  0  0  0  0  0  0  0  0
  -36.9732   60.7832   64.6592 C   0  0  0  0  0  0  0  0  0  0  0  0
  -35.9984   59.1551   65.2934 H   0  0  0  0  0  0  0  0  0  0  0  0
  -38.0348   60.5545   65.7061 C   0  0  0  0  0  0  0  0  0  0  0  0
  -38.5283   59.1135   65.7336 C   0  0  0  0  0  0  0  0  0  0  0  0
  -40.0273   59.0025   65.5063 C   0  0  0  0  0  0  0  0  0  0  0  0
  -40.8384   60.0788   66.2084 C   0  0  0  0  0  0  0  0  0  0  0  0
  -42.2040   59.6073   66.6851 C   0  0  0  0  0  0  0  0  0  0  0  0
  -42.2989   58.1026   66.9031 C   0  0  0  0  0  0  0  0  0  0  0  0
  -43.7223   57.5616   66.8608 C   0  0  0  0  0  0  0  0  0  0  0  0
  -44.7876   58.6055   66.5355 C   0  0  0  0  0  0  0  0  0  0  0  0
  -46.0338   58.0333   65.8617 C   0  0  0  0  0  0  0  0  0  0  0  0
  -46.8209   59.0373   65.0200 C   0  0  0  0  0  0  0  0  0  0  0  0
  -48.2503   58.5886   64.7155 C   0  0  0  0  0  0  0  0  0  0  0  0
  -49.2286   58.7076   65.8840 C   0  0  0  0  0  0  0  0  0  0  0  0
  -50.6291   59.1970   65.5054 C   0  0  0  0  0  0  0  0  0  0  0  0
  -50.6296   60.0823   64.2928 C   0  0  0  0  0  0  0  0  0  0  0  0
  -50.9755   59.7255   63.0685 C   0  0  0  0  0  0  0  0  0  0  0  0
  -51.4400   58.3650   62.6446 C   0  0  0  0  0  0  0  0  0  0  0  0
  -50.7746   57.8604   61.3625 C   0  0  0  0  0  0  0  0  0  0  0  0
  -49.4187   58.5005   61.0955 C   0  0  0  0  0  0  0  0  0  0  0  0
  -48.8368   58.1391   59.7336 C   0  0  0  0  0  0  0  0  0  0  0  0
  -48.6804   56.6423   59.4910 C   0  0  0  0  0  0  0  0  0  0  0  0
  -47.3404   56.2569   58.8804 C   0  0  0  0  0  0  0  0  0  0  0  0
  -47.3529   56.1594   57.3631 C   0  0  0  0  0  0  0  0  0  0  0  0
  -47.0654   57.4836   56.6851 C   0  0  0  0  0  0  0  0  0  0  0  0
  -33.6240   58.6339   62.0921 O   0  0  0  0  0  0  0  0  0  0  0  0
  -34.7918   58.6200   62.9183 C   0  0  0  0  0  0  0  0  0  0  0  0
  -32.8402   58.7859   62.6428 H   0  0  0  0  0  0  0  0  0  0  0  0
  -36.0245   58.3870   62.0997 C   0  0  0  0  0  0  0  0  0  0  0  0
  -37.0669   57.6774   62.4843 C   0  0  0  0  0  0  0  0  0  0  0  0
  -38.2891   57.4757   61.6498 C   0  0  0  0  0  0  0  0  0  0  0  0
  -38.3430   58.4842   60.5003 C   0  0  0  0  0  0  0  0  0  0  0  0
  -39.2860   59.6521   60.7399 C   0  0  0  0  0  0  0  0  0  0  0  0
  -40.6564   59.4889   60.1051 C   0  0  0  0  0  0  0  0  0  0  0  0
  -40.9796   58.0611   59.6894 C   0  0  0  0  0  0  0  0  0  0  0  0
  -42.0014   57.3801   60.5869 C   0  0  0  0  0  0  0  0  0  0  0  0
  -41.4124   56.8204   61.8699 C   0  0  0  0  0  0  0  0  0  0  0  0
  -41.7613   57.6207   63.1109 C   0  0  0  0  0  0  0  0  0  0  0  0
  -43.2469   57.8954   63.2686 C   0  0  0  0  0  0  0  0  0  0  0  0
  -43.5806   59.3757   63.2632 C   0  0  0  0  0  0  0  0  0  0  0  0
  -42.4005   60.2826   62.9717 C   0  0  0  0  0  0  0  0  0  0  0  0
  -42.8125   61.5757   62.2960 C   0  0  0  0  0  0  0  0  0  0  0  0
  -42.4669   62.7977   63.1216 C   0  0  0  0  0  0  0  0  0  0  0  0
  -33.5816   60.2598   64.4189 C   0  0  0  0  0  0  0  0  0  0  0  0
  -33.4804   61.6807   64.5660 O   0  0  0  0  0  0  0  0  0  0  0  0
  -34.4020   64.2516   63.9480 O   0  0  0  0  0  0  0  0  0  0  0  0
  -30.1689   64.3781   63.1820 O   0  0  0  0  0  0  0  0  0  0  0  0
  -31.6972   61.9412   63.1235 O   0  0  0  0  0  0  0  0  0  0  0  0
  -33.0192   62.3461   63.4264 C   0  0  0  0  0  0  0  0  0  0  0  0
  -33.0619   63.8430   63.7047 C   0  0  0  0  0  0  0  0  0  0  0  0
  -32.4847   64.6066   62.5195 C   0  0  0  0  0  0  0  0  0  0  0  0
  -31.1050   64.0819   62.1507 C   0  0  0  0  0  0  0  0  0  0  0  0
  -31.1693   62.5705   61.9449 C   0  0  0  0  0  0  0  0  0  0  0  0
  -34.7580   63.7590   64.7040 H   0  0  0  0  0  0  0  0  0  0  0  0
  -30.1264   65.3380   63.3144 H   0  0  0  0  0  0  0  0  0  0  0  0
  -29.1324   61.6585   62.8977 O   0  0  0  0  0  0  0  0  0  0  0  0
  -29.8177   61.9478   61.6846 C   0  0  0  0  0  0  0  0  0  0  0  0
  -28.2710   61.2609   62.6956 H   0  0  0  0  0  0  0  0  0  0  0  0
  -32.3724   65.9873   62.9889 O   0  0  0  0  0  0  0  0  0  0  0  0
  -32.7123   66.8375   60.7599 O   0  0  0  0  0  0  0  0  0  0  0  0
  -30.5860   67.3306   62.0054 O   0  0  0  0  0  0  0  0  0  0  0  0
  -32.6545   68.3227   62.6168 O   0  0  0  0  0  0  0  0  0  0  0  0
  -31.9827   67.1160   61.9411 S   0  0  0  0  0  0  0  0  0  0  0  0
  -32.3146   66.0782   60.3057 H   0  0  0  0  0  0  0  0  0  0  0  0
  -33.6178   68.2120   62.5925 H   0  0  0  0  0  0  0  0  0  0  0  0
  2  1  1  0  0  0
  2  4  1  0  0  0
  2  5  1  0  0  0
 47 48  1  0  0  0
 47  1  1  0  0  0
 48 52  1  0  0  0
  1 30  1  0  0  0
 29 30  1  0  0  0
 29 31  1  0  0  0
 30 32  1  0  0  0
  3  4  2  0  0  0
 32 33  2  0  0  0
 49 53  1  0  0  0
 49 57  1  0  0  0
 33 34  1  0  0  0
 62 54  1  0  0  0
 62 66  1  0  0  0
 34 35  1  0  0  0
 50 55  1  0  0  0
 50 58  1  0  0  0
 35 36  1  0  0  0
 51 52  1  0  0  0
 51 56  1  0  0  0
 36 37  1  0  0  0
 59 60  1  0  0  0
 59 61  1  0  0  0
 37 38  1  0  0  0
 63 66  1  0  0  0
 63 67  1  0  0  0
 38 39  1  0  0  0
 64 66  1  0  0  0
 39 40  1  0  0  0
 65 66  1  0  0  0
 65 68  1  0  0  0
 40 41  1  0  0  0
 41 42  1  0  0  0
 42 43  1  0  0  0
 43 44  1  0  0  0
 44 45  1  0  0  0
 45 46  1  0  0  0
  4  6  1  0  0  0
  6  7  1  0  0  0
  7  8  1  0  0  0
  8  9  1  0  0  0
  9 10  1  0  0  0
 10 11  1  0  0  0
 11 12  1  0  0  0
 12 13  1  0  0  0
 13 14  1  0  0  0
 14 15  1  0  0  0
 15 16  1  0  0  0
 16 17  1  0  0  0
 17 18  1  0  0  0
 18 19  1  0  0  0
 19 20  2  0  0  0
 20 21  1  0  0  0
 21 22  1  0  0  0
 22 23  1  0  0  0
 23 24  1  0  0  0
 24 25  1  0  0  0
 25 26  1  0  0  0
 26 27  1  0  0  0
 27 28  1  0  0  0
 52 53  1  0  0  0
 53 54  1  0  0  0
 54 55  1  0  0  0
 55 56  1  0  0  0
 56 60  1  0  0  0
M  CHG 1  64  -1
M  END
> <minimizedAffinity>
-9.27529

> <CNNscore>
0.1180981547

> <CNNaffinity>
7.0567855835

> <CNN_VS>
0.8333933353

> <CNNaffinity_variance>
1.5925989151

$$$$
/media/chris/experiments/cd1a-new-docking/inputs/ligands/7ryn_ligand.pdb


 68 68  0  0  0  0  0  0  0  0999 V2000
  -35.4230   59.5033   63.5254 C   0  0  0  0  0  0  0  0  0  0  0  0
  -36.3981   59.6021   64.6074 N   0  0  0  0  0  0  0  0  0  0  0  0
  -37.1604   61.6456   64.0500 O   0  0  0  0  0  0  0  0  0  0  0  0
  -37.1896   60.6632   64.7856 C   0  0  0  0  0  0  0  0  0  0  0  0
  -36.4762   58.8492   65.2370 H   0  0  0  0  0  0  0  0  0  0  0  0
  -38.1392   60.5798   65.9545 C   0  0  0  0  0  0  0  0  0  0  0  0
  -38.7896   59.2082   66.0830 C   0  0  0  0  0  0  0  0  0  0  0  0
  -40.2584   59.2165   65.6907 C   0  0  0  0  0  0  0  0  0  0  0  0
  -41.0958   60.2250   66.4594 C   0  0  0  0  0  0  0  0  0  0  0  0
  -42.4537   59.6937   66.8933 C   0  0  0  0  0  0  0  0  0  0  0  0
  -42.5604   58.1742   66.8718 C   0  0  0  0  0  0  0  0  0  0  0  0
  -43.9705   57.6583   66.6147 C   0  0  0  0  0  0  0  0  0  0  0  0
  -45.0326   58.7485   66.4979 C   0  0  0  0  0  0  0  0  0  0  0  0
  -46.4171   58.3226   66.9842 C   0  0  0  0  0  0  0  0  0  0  0  0
  -47.0594   57.1979   66.1727 C   0  0  0  0  0  0  0  0  0  0  0  0
  -48.3945   57.5897   65.5392 C   0  0  0  0  0  0  0  0  0  0  0  0
  -48.8972   58.9870   65.9015 C   0  0  0  0  0  0  0  0  0  0  0  0
  -50.1271   59.4532   65.1177 C   0  0  0  0  0  0  0  0  0  0  0  0
  -49.7836   59.9882   63.7576 C   0  0  0  0  0  0  0  0  0  0  0  0
  -50.1748   59.4834   62.6009 C   0  0  0  0  0  0  0  0  0  0  0  0
  -51.0430   58.2760   62.4142 C   0  0  0  0  0  0  0  0  0  0  0  0
  -50.7369   57.4906   61.1372 C   0  0  0  0  0  0  0  0  0  0  0  0
  -50.0787   58.3350   60.0540 C   0  0  0  0  0  0  0  0  0  0  0  0
  -48.6245   57.9585   59.7937 C   0  0  0  0  0  0  0  0  0  0  0  0
  -48.3960   56.4773   59.5153 C   0  0  0  0  0  0  0  0  0  0  0  0
  -47.8974   56.1882   58.1065 C   0  0  0  0  0  0  0  0  0  0  0  0
  -47.9334   57.3892   57.1748 C   0  0  0  0  0  0  0  0  0  0  0  0
  -46.5696   58.0165   56.9691 C   0  0  0  0  0  0  0  0  0  0  0  0
  -34.3127   57.6582   62.4310 O   0  0  0  0  0  0  0  0  0  0  0  0
  -35.6006   58.1595   62.8006 C   0  0  0  0  0  0  0  0  0  0  0  0
  -33.7578   57.5777   63.2225 H   0  0  0  0  0  0  0  0  0  0  0  0
  -36.4865   58.2972   61.6006 C   0  0  0  0  0  0  0  0  0  0  0  0
  -37.7031   58.8050   61.6108 C   0  0  0  0  0  0  0  0  0  0  0  0
  -38.5569   58.9426   60.3931 C   0  0  0  0  0  0  0  0  0  0  0  0
  -39.6630   59.9772   60.6107 C   0  0  0  0  0  0  0  0  0  0  0  0
  -40.7757   59.9266   59.5763 C   0  0  0  0  0  0  0  0  0  0  0  0
  -41.7516   58.7777   59.7642 C   0  0  0  0  0  0  0  0  0  0  0  0
  -41.0869   57.4133   59.8755 C   0  0  0  0  0  0  0  0  0  0  0  0
  -41.6325   56.5588   61.0093 C   0  0  0  0  0  0  0  0  0  0  0  0
  -40.8557   56.6955   62.3070 C   0  0  0  0  0  0  0  0  0  0  0  0
  -41.4219   57.7313   63.2603 C   0  0  0  0  0  0  0  0  0  0  0  0
  -42.9330   57.8704   63.1912 C   0  0  0  0  0  0  0  0  0  0  0  0
  -43.4035   59.3067   63.3266 C   0  0  0  0  0  0  0  0  0  0  0  0
  -42.3613   60.3446   62.9569 C   0  0  0  0  0  0  0  0  0  0  0  0
  -42.9732   61.5999   62.3667 C   0  0  0  0  0  0  0  0  0  0  0  0
  -42.5374   62.8552   63.0940 C   0  0  0  0  0  0  0  0  0  0  0  0
  -34.0209   59.6735   64.0725 C   0  0  0  0  0  0  0  0  0  0  0  0
  -33.3410   60.6486   63.2740 O   0  0  0  0  0  0  0  0  0  0  0  0
  -33.1691   62.9994   61.7624 O   0  0  0  0  0  0  0  0  0  0  0  0
  -35.6835   64.0128   65.1050 O   0  0  0  0  0  0  0  0  0  0  0  0
  -33.7616   61.8733   65.1850 O   0  0  0  0  0  0  0  0  0  0  0  0
  -33.1658   61.8855   63.9012 C   0  0  0  0  0  0  0  0  0  0  0  0
  -33.8141   62.9527   63.0288 C   0  0  0  0  0  0  0  0  0  0  0  0
  -33.7239   64.3089   63.7169 C   0  0  0  0  0  0  0  0  0  0  0  0
  -34.2783   64.2418   65.1322 C   0  0  0  0  0  0  0  0  0  0  0  0
  -33.5963   63.1101   65.8969 C   0  0  0  0  0  0  0  0  0  0  0  0
  -33.2331   62.1312   61.3347 H   0  0  0  0  0  0  0  0  0  0  0  0
  -36.1189   64.7309   64.6196 H   0  0  0  0  0  0  0  0  0  0  0  0
  -35.0437   63.9556   67.6515 O   0  0  0  0  0  0  0  0  0  0  0  0
  -34.1667   62.8984   67.2797 C   0  0  0  0  0  0  0  0  0  0  0  0
  -35.3914   63.7893   68.5417 H   0  0  0  0  0  0  0  0  0  0  0  0
  -34.5623   65.1912   62.9056 O   0  0  0  0  0  0  0  0  0  0  0  0
  -33.0299   65.8333   61.1604 O   0  0  0  0  0  0  0  0  0  0  0  0
  -33.4779   67.3707   63.0973 O   0  0  0  0  0  0  0  0  0  0  0  0
  -35.1047   66.9680   61.4155 O   0  0  0  0  0  0  0  0  0  0  0  0
  -33.8740   66.4035   62.1440 S   0  0  0  0  0  0  0  0  0  0  0  0
  -32.2397   65.4657   61.5861 H   0  0  0  0  0  0  0  0  0  0  0  0
  -35.4075   66.3303   60.7503 H   0  0  0  0  0  0  0  0  0  0  0  0
  2  1  1  0  0  0
  2  4  1  0  0  0
  2  5  1  0  0  0
 47 48  1  0  0  0
 47  1  1  0  0  0
 48 52  1  0  0  0
  1 30  1  0  0  0
 29 30  1  0  0  0
 29 31  1  0  0  0
 30 32  1  0  0  0
  3  4  2  0  0  0
 32 33  2  0  0  0
 49 53  1  0  0  0
 49 57  1  0  0  0
 33 34  1  0  0  0
 62 54  1  0  0  0
 62 66  1  0  0  0
 34 35  1  0  0  0
 50 55  1  0  0  0
 50 58  1  0  0  0
 35 36  1  0  0  0
 51 52  1  0  0  0
 51 56  1  0  0  0
 36 37  1  0  0  0
 59 60  1  0  0  0
 59 61  1  0  0  0
 37 38  1  0  0  0
 63 66  1  0  0  0
 63 67  1  0  0  0
 38 39  1  0  0  0
 64 66  1  0  0  0
 39 40  1  0  0  0
 65 66  1  0  0  0
 65 68  1  0  0  0
 40 41  1  0  0  0
 41 42  1  0  0  0
 42 43  1  0  0  0
 43 44  1  0  0  0
 44 45  1  0  0  0
 45 46  1  0  0  0
  4  6  1  0  0  0
  6  7  1  0  0  0
  7  8  1  0  0  0
  8  9  1  0  0  0
  9 10  1  0  0  0
 10 11  1  0  0  0
 11 12  1  0  0  0
 12 13  1  0  0  0
 13 14  1  0  0  0
 14 15  1  0  0  0
 15 16  1  0  0  0
 16 17  1  0  0  0
 17 18  1  0  0  0
 18 19  1  0  0  0
 19 20  2  0  0  0
 20 21  1  0  0  0
 21 22  1  0  0  0
 22 23  1  0  0  0
 23 24  1  0  0  0
 24 25  1  0  0  0
 25 26  1  0  0  0
 26 27  1  0  0  0
 27 28  1  0  0  0
 52 53  1  0  0  0
 53 54  1  0  0  0
 54 55  1  0  0  0
 55 56  1  0  0  0
 56 60  1  0  0  0
M  CHG 1  64  -1
M  END
> <minimizedAffinity>
-9.14162

> <CNNscore>
0.1129290983

> <CNNaffinity>
7.2597441673

> <CNN_VS>
0.8198363781

> <CNNaffinity_variance>
2.3080241680

$$$$
