/media/chris/experiments/cd1a-new-docking/inputs/ligands/7ryn_ligand.pdb


 68 68  0  0  0  0  0  0  0  0999 V2000
  -38.8732   59.9681   61.4612 C   0  0  0  0  0  0  0  0  0  0  0  0
  -39.7668   58.8806   61.8486 N   0  0  0  0  0  0  0  0  0  0  0  0
  -41.0871   59.0029   60.0293 O   0  0  0  0  0  0  0  0  0  0  0  0
  -40.8023   58.4830   61.1043 C   0  0  0  0  0  0  0  0  0  0  0  0
  -39.5978   58.4171   62.7006 H   0  0  0  0  0  0  0  0  0  0  0  0
  -41.6076   57.3377   61.6656 C   0  0  0  0  0  0  0  0  0  0  0  0
  -40.8022   56.4717   62.6257 C   0  0  0  0  0  0  0  0  0  0  0  0
  -41.6334   55.9584   63.7906 C   0  0  0  0  0  0  0  0  0  0  0  0
  -42.6530   56.9593   64.3081 C   0  0  0  0  0  0  0  0  0  0  0  0
  -42.9048   56.8628   65.8054 C   0  0  0  0  0  0  0  0  0  0  0  0
  -43.4948   58.1269   66.4174 C   0  0  0  0  0  0  0  0  0  0  0  0
  -44.8953   58.4583   65.9184 C   0  0  0  0  0  0  0  0  0  0  0  0
  -45.9991   58.2685   66.9557 C   0  0  0  0  0  0  0  0  0  0  0  0
  -47.0226   57.1960   66.5859 C   0  0  0  0  0  0  0  0  0  0  0  0
  -48.2126   57.7044   65.7726 C   0  0  0  0  0  0  0  0  0  0  0  0
  -48.4918   59.1948   65.9686 C   0  0  0  0  0  0  0  0  0  0  0  0
  -48.1752   60.0768   64.7610 C   0  0  0  0  0  0  0  0  0  0  0  0
  -49.3532   60.9047   64.2403 C   0  0  0  0  0  0  0  0  0  0  0  0
  -50.6762   60.2208   64.4309 C   0  0  0  0  0  0  0  0  0  0  0  0
  -51.3155   59.4971   63.5290 C   0  0  0  0  0  0  0  0  0  0  0  0
  -50.8467   59.2107   62.1346 C   0  0  0  0  0  0  0  0  0  0  0  0
  -50.0383   57.9174   62.0114 C   0  0  0  0  0  0  0  0  0  0  0  0
  -50.3673   57.1187   60.7571 C   0  0  0  0  0  0  0  0  0  0  0  0
  -49.2148   56.2434   60.2777 C   0  0  0  0  0  0  0  0  0  0  0  0
  -48.1009   57.0013   59.5644 C   0  0  0  0  0  0  0  0  0  0  0  0
  -47.2818   56.1375   58.6159 C   0  0  0  0  0  0  0  0  0  0  0  0
  -47.3055   56.6064   57.1697 C   0  0  0  0  0  0  0  0  0  0  0  0
  -46.9093   58.0608   57.0151 C   0  0  0  0  0  0  0  0  0  0  0  0
  -38.2155   58.8267   59.4365 O   0  0  0  0  0  0  0  0  0  0  0  0
  -37.7028   59.3991   60.6432 C   0  0  0  0  0  0  0  0  0  0  0  0
  -38.7133   59.4991   58.9458 H   0  0  0  0  0  0  0  0  0  0  0  0
  -36.9265   58.3870   61.4287 C   0  0  0  0  0  0  0  0  0  0  0  0
  -35.6225   58.4149   61.6214 C   0  0  0  0  0  0  0  0  0  0  0  0
  -34.8787   57.3978   62.4232 C   0  0  0  0  0  0  0  0  0  0  0  0
  -34.3285   58.0092   63.7134 C   0  0  0  0  0  0  0  0  0  0  0  0
  -35.3884   58.3149   64.7594 C   0  0  0  0  0  0  0  0  0  0  0  0
  -36.3895   57.1938   64.9803 C   0  0  0  0  0  0  0  0  0  0  0  0
  -37.8336   57.5924   64.7128 C   0  0  0  0  0  0  0  0  0  0  0  0
  -38.3676   58.6383   65.6793 C   0  0  0  0  0  0  0  0  0  0  0  0
  -39.8630   58.8745   65.5603 C   0  0  0  0  0  0  0  0  0  0  0  0
  -40.3312   60.1871   66.1605 C   0  0  0  0  0  0  0  0  0  0  0  0
  -41.6209   60.7149   65.5558 C   0  0  0  0  0  0  0  0  0  0  0  0
  -41.5026   61.0127   64.0726 C   0  0  0  0  0  0  0  0  0  0  0  0
  -42.6773   60.5328   63.2419 C   0  0  0  0  0  0  0  0  0  0  0  0
  -42.9013   61.3807   62.0053 C   0  0  0  0  0  0  0  0  0  0  0  0
  -43.0909   62.8472   62.3336 C   0  0  0  0  0  0  0  0  0  0  0  0
  -38.3980   60.7132   62.6914 C   0  0  0  0  0  0  0  0  0  0  0  0
  -37.3768   61.6349   62.2934 O   0  0  0  0  0  0  0  0  0  0  0  0
  -35.2953   63.4450   61.8122 O   0  0  0  0  0  0  0  0  0  0  0  0
  -36.6972   64.3949   65.7687 O   0  0  0  0  0  0  0  0  0  0  0  0
  -37.0346   61.8013   64.5702 O   0  0  0  0  0  0  0  0  0  0  0  0
  -36.4411   61.9234   63.2910 C   0  0  0  0  0  0  0  0  0  0  0  0
  -35.9438   63.3466   63.0739 C   0  0  0  0  0  0  0  0  0  0  0  0
  -34.9846   63.7361   64.1916 C   0  0  0  0  0  0  0  0  0  0  0  0
  -35.6114   63.4982   65.5574 C   0  0  0  0  0  0  0  0  0  0  0  0
  -36.1182   62.0608   65.6457 C   0  0  0  0  0  0  0  0  0  0  0  0
  -35.9154   63.1948   61.1096 H   0  0  0  0  0  0  0  0  0  0  0  0
  -36.3773   65.3089   65.7131 H   0  0  0  0  0  0  0  0  0  0  0  0
  -36.4279   62.6202   67.9866 O   0  0  0  0  0  0  0  0  0  0  0  0
  -36.8575   61.7688   66.9304 C   0  0  0  0  0  0  0  0  0  0  0  0
  -36.9208   62.4071   68.7945 H   0  0  0  0  0  0  0  0  0  0  0  0
  -34.7579   65.1685   64.0014 O   0  0  0  0  0  0  0  0  0  0  0  0
  -32.7052   64.6580   62.8471 O   0  0  0  0  0  0  0  0  0  0  0  0
  -32.7090   66.2152   64.8196 O   0  0  0  0  0  0  0  0  0  0  0  0
  -33.6403   66.8418   62.7275 O   0  0  0  0  0  0  0  0  0  0  0  0
  -33.2898   65.6651   63.6529 S   0  0  0  0  0  0  0  0  0  0  0  0
  -32.4704   63.8968   63.4005 H   0  0  0  0  0  0  0  0  0  0  0  0
  -34.0427   66.5034   61.9124 H   0  0  0  0  0  0  0  0  0  0  0  0
  2  1  1  0  0  0
  2  4  1  0  0  0
  2  5  1  0  0  0
 47 48  1  0  0  0
 47  1  1  0  0  0
 48 52  1  0  0  0
  1 30  1  0  0  0
 29 30  1  0  0  0
 29 31  1  0  0  0
 30 32  1  0  0  0
  3  4  2  0  0  0
 32 33  2  0  0  0
 49 53  1  0  0  0
 49 57  1  0  0  0
 33 34  1  0  0  0
 62 54  1  0  0  0
 62 66  1  0  0  0
 34 35  1  0  0  0
 50 55  1  0  0  0
 50 58  1  0  0  0
 35 36  1  0  0  0
 51 52  1  0  0  0
 51 56  1  0  0  0
 36 37  1  0  0  0
 59 60  1  0  0  0
 59 61  1  0  0  0
 37 38  1  0  0  0
 63 66  1  0  0  0
 63 67  1  0  0  0
 38 39  1  0  0  0
 64 66  1  0  0  0
 39 40  1  0  0  0
 65 66  1  0  0  0
 65 68  1  0  0  0
 40 41  1  0  0  0
 41 42  1  0  0  0
 42 43  1  0  0  0
 43 44  1  0  0  0
 44 45  1  0  0  0
 45 46  1  0  0  0
  4  6  1  0  0  0
  6  7  1  0  0  0
  7  8  1  0  0  0
  8  9  1  0  0  0
  9 10  1  0  0  0
 10 11  1  0  0  0
 11 12  1  0  0  0
 12 13  1  0  0  0
 13 14  1  0  0  0
 14 15  1  0  0  0
 15 16  1  0  0  0
 16 17  1  0  0  0
 17 18  1  0  0  0
 18 19  1  0  0  0
 19 20  2  0  0  0
 20 21  1  0  0  0
 21 22  1  0  0  0
 22 23  1  0  0  0
 23 24  1  0  0  0
 24 25  1  0  0  0
 25 26  1  0  0  0
 26 27  1  0  0  0
 27 28  1  0  0  0
 52 53  1  0  0  0
 53 54  1  0  0  0
 54 55  1  0  0  0
 55 56  1  0  0  0
 56 60  1  0  0  0
M  CHG 1  64  -1
M  END
> <minimizedAffinity>
-8.91626

> <CNNscore>
0.1753873825

> <CNNaffinity>
7.6063446999

> <CNN_VS>
1.3340568542

> <CNNaffinity_variance>
1.9975626469

$$$$
/media/chris/experiments/cd1a-new-docking/inputs/ligands/7ryn_ligand.pdb


 68 68  0  0  0  0  0  0  0  0999 V2000
  -37.0521   61.0516   63.9252 C   0  0  0  0  0  0  0  0  0  0  0  0
  -38.0037   60.1836   64.6125 N   0  0  0  0  0  0  0  0  0  0  0  0
  -38.0749   61.3776   66.5196 O   0  0  0  0  0  0  0  0  0  0  0  0
  -38.4405   60.4133   65.8537 C   0  0  0  0  0  0  0  0  0  0  0  0
  -38.3402   59.3896   64.1375 H   0  0  0  0  0  0  0  0  0  0  0  0
  -39.4281   59.4093   66.3940 C   0  0  0  0  0  0  0  0  0  0  0  0
  -40.8036   59.5383   65.7522 C   0  0  0  0  0  0  0  0  0  0  0  0
  -41.9290   59.5503   66.7742 C   0  0  0  0  0  0  0  0  0  0  0  0
  -42.6082   58.2035   66.9587 C   0  0  0  0  0  0  0  0  0  0  0  0
  -42.4742   57.2775   65.7590 C   0  0  0  0  0  0  0  0  0  0  0  0
  -43.7802   57.0378   65.0123 C   0  0  0  0  0  0  0  0  0  0  0  0
  -44.3343   58.2787   64.3243 C   0  0  0  0  0  0  0  0  0  0  0  0
  -45.7396   58.6757   64.7691 C   0  0  0  0  0  0  0  0  0  0  0  0
  -46.0805   58.2593   66.1991 C   0  0  0  0  0  0  0  0  0  0  0  0
  -47.2609   57.2956   66.3178 C   0  0  0  0  0  0  0  0  0  0  0  0
  -48.4865   57.7322   65.5149 C   0  0  0  0  0  0  0  0  0  0  0  0
  -49.1873   58.9873   66.0347 C   0  0  0  0  0  0  0  0  0  0  0  0
  -50.7137   58.9696   65.9167 C   0  0  0  0  0  0  0  0  0  0  0  0
  -51.2409   60.0416   65.0072 C   0  0  0  0  0  0  0  0  0  0  0  0
  -51.4495   59.9266   63.7076 C   0  0  0  0  0  0  0  0  0  0  0  0
  -51.2045   58.7014   62.8801 C   0  0  0  0  0  0  0  0  0  0  0  0
  -50.2799   58.9417   61.6848 C   0  0  0  0  0  0  0  0  0  0  0  0
  -50.4749   57.9334   60.5603 C   0  0  0  0  0  0  0  0  0  0  0  0
  -49.2772   57.0117   60.3598 C   0  0  0  0  0  0  0  0  0  0  0  0
  -48.4806   57.2793   59.0880 C   0  0  0  0  0  0  0  0  0  0  0  0
  -47.6524   56.0903   58.6218 C   0  0  0  0  0  0  0  0  0  0  0  0
  -47.1400   56.2097   57.1953 C   0  0  0  0  0  0  0  0  0  0  0  0
  -46.9903   57.6476   56.7413 C   0  0  0  0  0  0  0  0  0  0  0  0
  -37.1114   62.4924   61.9873 O   0  0  0  0  0  0  0  0  0  0  0  0
  -37.4570   61.1830   62.4482 C   0  0  0  0  0  0  0  0  0  0  0  0
  -36.1628   62.6428   62.1224 H   0  0  0  0  0  0  0  0  0  0  0  0
  -38.9181   60.9151   62.2548 C   0  0  0  0  0  0  0  0  0  0  0  0
  -39.4426   60.2807   61.2250 C   0  0  0  0  0  0  0  0  0  0  0  0
  -40.9041   60.0158   61.0682 C   0  0  0  0  0  0  0  0  0  0  0  0
  -41.1596   58.9607   59.9900 C   0  0  0  0  0  0  0  0  0  0  0  0
  -41.6795   57.6363   60.5250 C   0  0  0  0  0  0  0  0  0  0  0  0
  -41.7275   57.5507   62.0410 C   0  0  0  0  0  0  0  0  0  0  0  0
  -40.6933   56.6090   62.6405 C   0  0  0  0  0  0  0  0  0  0  0  0
  -39.3863   57.2931   63.0109 C   0  0  0  0  0  0  0  0  0  0  0  0
  -38.1857   56.7792   62.2361 C   0  0  0  0  0  0  0  0  0  0  0  0
  -37.0865   57.8077   62.0454 C   0  0  0  0  0  0  0  0  0  0  0  0
  -35.7452   57.3890   62.6227 C   0  0  0  0  0  0  0  0  0  0  0  0
  -34.5657   57.9380   61.8419 C   0  0  0  0  0  0  0  0  0  0  0  0
  -33.2165   57.4130   62.2939 C   0  0  0  0  0  0  0  0  0  0  0  0
  -32.4559   58.4140   63.1412 C   0  0  0  0  0  0  0  0  0  0  0  0
  -32.8295   58.3362   64.6071 C   0  0  0  0  0  0  0  0  0  0  0  0
  -35.6465   60.5098   64.0836 C   0  0  0  0  0  0  0  0  0  0  0  0
  -34.7757   61.2596   63.2291 O   0  0  0  0  0  0  0  0  0  0  0  0
  -32.3558   61.7245   61.8991 O   0  0  0  0  0  0  0  0  0  0  0  0
  -33.0888   65.3164   64.1537 O   0  0  0  0  0  0  0  0  0  0  0  0
  -34.1890   62.7599   64.8825 O   0  0  0  0  0  0  0  0  0  0  0  0
  -33.7075   61.8724   63.8906 C   0  0  0  0  0  0  0  0  0  0  0  0
  -32.8859   62.6319   62.8571 C   0  0  0  0  0  0  0  0  0  0  0  0
  -31.7580   63.3889   63.5469 C   0  0  0  0  0  0  0  0  0  0  0  0
  -32.2931   64.2573   64.6759 C   0  0  0  0  0  0  0  0  0  0  0  0
  -33.1395   63.4069   65.6199 C   0  0  0  0  0  0  0  0  0  0  0  0
  -33.0827   61.2491   61.4672 H   0  0  0  0  0  0  0  0  0  0  0  0
  -32.5528   65.8581   63.5536 H   0  0  0  0  0  0  0  0  0  0  0  0
  -34.2431   63.3829   67.7809 O   0  0  0  0  0  0  0  0  0  0  0  0
  -33.8043   64.2126   66.7113 C   0  0  0  0  0  0  0  0  0  0  0  0
  -34.6641   63.9298   68.4626 H   0  0  0  0  0  0  0  0  0  0  0  0
  -31.1920   64.2413   62.5017 O   0  0  0  0  0  0  0  0  0  0  0  0
  -32.1052   66.3685   61.8327 O   0  0  0  0  0  0  0  0  0  0  0  0
  -33.3812   64.2431   61.4200 O   0  0  0  0  0  0  0  0  0  0  0  0
  -31.4214   64.7854   60.1945 O   0  0  0  0  0  0  0  0  0  0  0  0
  -32.1842   64.9912   61.5135 S   0  0  0  0  0  0  0  0  0  0  0  0
  -32.5780   66.5356   62.6631 H   0  0  0  0  0  0  0  0  0  0  0  0
  -30.5905   65.2853   60.2201 H   0  0  0  0  0  0  0  0  0  0  0  0
  2  1  1  0  0  0
  2  4  1  0  0  0
  2  5  1  0  0  0
 47 48  1  0  0  0
 47  1  1  0  0  0
 48 52  1  0  0  0
  1 30  1  0  0  0
 29 30  1  0  0  0
 29 31  1  0  0  0
 30 32  1  0  0  0
  3  4  2  0  0  0
 32 33  2  0  0  0
 49 53  1  0  0  0
 49 57  1  0  0  0
 33 34  1  0  0  0
 62 54  1  0  0  0
 62 66  1  0  0  0
 34 35  1  0  0  0
 50 55  1  0  0  0
 50 58  1  0  0  0
 35 36  1  0  0  0
 51 52  1  0  0  0
 51 56  1  0  0  0
 36 37  1  0  0  0
 59 60  1  0  0  0
 59 61  1  0  0  0
 37 38  1  0  0  0
 63 66  1  0  0  0
 63 67  1  0  0  0
 38 39  1  0  0  0
 64 66  1  0  0  0
 39 40  1  0  0  0
 65 66  1  0  0  0
 65 68  1  0  0  0
 40 41  1  0  0  0
 41 42  1  0  0  0
 42 43  1  0  0  0
 43 44  1  0  0  0
 44 45  1  0  0  0
 45 46  1  0  0  0
  4  6  1  0  0  0
  6  7  1  0  0  0
  7  8  1  0  0  0
  8  9  1  0  0  0
  9 10  1  0  0  0
 10 11  1  0  0  0
 11 12  1  0  0  0
 12 13  1  0  0  0
 13 14  1  0  0  0
 14 15  1  0  0  0
 15 16  1  0  0  0
 16 17  1  0  0  0
 17 18  1  0  0  0
 18 19  1  0  0  0
 19 20  2  0  0  0
 20 21  1  0  0  0
 21 22  1  0  0  0
 22 23  1  0  0  0
 23 24  1  0  0  0
 24 25  1  0  0  0
 25 26  1  0  0  0
 26 27  1  0  0  0
 27 28  1  0  0  0
 52 53  1  0  0  0
 53 54  1  0  0  0
 54 55  1  0  0  0
 55 56  1  0  0  0
 56 60  1  0  0  0
M  CHG 1  64  -1
M  END
> <minimizedAffinity>
-9.43471

> <CNNscore>
0.1315933913

> <CNNaffinity>
7.2176065445

> <CNN_VS>
0.9497893453

> <CNNaffinity_variance>
1.2491695881

$$$$
/media/chris/experiments/cd1a-new-docking/inputs/ligands/7ryn_ligand.pdb


 68 68  0  0  0  0  0  0  0  0999 V2000
  -39.8360   59.5630   65.7651 C   0  0  0  0  0  0  0  0  0  0  0  0
  -39.6995   58.7903   64.5341 N   0  0  0  0  0  0  0  0  0  0  0  0
  -40.3322   56.8208   65.4221 O   0  0  0  0  0  0  0  0  0  0  0  0
  -39.9575   57.4819   64.4580 C   0  0  0  0  0  0  0  0  0  0  0  0
  -39.4025   59.2566   63.7195 H   0  0  0  0  0  0  0  0  0  0  0  0
  -39.7665   56.8572   63.0984 C   0  0  0  0  0  0  0  0  0  0  0  0
  -41.0814   56.4198   62.4658 C   0  0  0  0  0  0  0  0  0  0  0  0
  -42.2532   56.5042   63.4307 C   0  0  0  0  0  0  0  0  0  0  0  0
  -43.0729   57.7766   63.2948 C   0  0  0  0  0  0  0  0  0  0  0  0
  -42.6952   58.6261   62.0906 C   0  0  0  0  0  0  0  0  0  0  0  0
  -42.3827   60.0780   62.4298 C   0  0  0  0  0  0  0  0  0  0  0  0
  -41.3619   60.7226   61.5011 C   0  0  0  0  0  0  0  0  0  0  0  0
  -41.2701   60.0825   60.1183 C   0  0  0  0  0  0  0  0  0  0  0  0
  -40.0620   59.1650   59.9363 C   0  0  0  0  0  0  0  0  0  0  0  0
  -38.8630   59.5076   60.8202 C   0  0  0  0  0  0  0  0  0  0  0  0
  -37.6563   58.5977   60.5891 C   0  0  0  0  0  0  0  0  0  0  0  0
  -37.0725   57.9637   61.8515 C   0  0  0  0  0  0  0  0  0  0  0  0
  -35.7402   58.5587   62.3153 C   0  0  0  0  0  0  0  0  0  0  0  0
  -34.6751   57.5194   62.5143 C   0  0  0  0  0  0  0  0  0  0  0  0
  -33.4601   57.7309   62.9887 C   0  0  0  0  0  0  0  0  0  0  0  0
  -32.9018   59.0510   63.4265 C   0  0  0  0  0  0  0  0  0  0  0  0
  -31.5546   59.3915   62.7858 C   0  0  0  0  0  0  0  0  0  0  0  0
  -31.6205   60.5872   61.8447 C   0  0  0  0  0  0  0  0  0  0  0  0
  -30.7044   61.7334   62.2582 C   0  0  0  0  0  0  0  0  0  0  0  0
  -31.3982   63.0859   62.3733 C   0  0  0  0  0  0  0  0  0  0  0  0
  -30.5531   64.1522   63.0558 C   0  0  0  0  0  0  0  0  0  0  0  0
  -30.5594   64.0738   64.5742 C   0  0  0  0  0  0  0  0  0  0  0  0
  -31.8946   63.6290   65.1359 C   0  0  0  0  0  0  0  0  0  0  0  0
  -40.9737   61.6444   66.2213 O   0  0  0  0  0  0  0  0  0  0  0  0
  -41.1800   60.3088   65.7522 C   0  0  0  0  0  0  0  0  0  0  0  0
  -40.3064   62.0814   65.6695 H   0  0  0  0  0  0  0  0  0  0  0  0
  -42.2068   59.6018   66.5827 C   0  0  0  0  0  0  0  0  0  0  0  0
  -43.1858   58.8581   66.1064 C   0  0  0  0  0  0  0  0  0  0  0  0
  -44.1862   58.1530   66.9623 C   0  0  0  0  0  0  0  0  0  0  0  0
  -45.5138   58.9129   66.9968 C   0  0  0  0  0  0  0  0  0  0  0  0
  -46.6845   58.1493   66.3993 C   0  0  0  0  0  0  0  0  0  0  0  0
  -47.7871   59.0329   65.8414 C   0  0  0  0  0  0  0  0  0  0  0  0
  -47.5212   59.5376   64.4306 C   0  0  0  0  0  0  0  0  0  0  0  0
  -48.5860   60.4922   63.9126 C   0  0  0  0  0  0  0  0  0  0  0  0
  -49.9362   60.3274   64.5879 C   0  0  0  0  0  0  0  0  0  0  0  0
  -50.9153   59.4675   63.8105 C   0  0  0  0  0  0  0  0  0  0  0  0
  -50.4976   59.2049   62.3738 C   0  0  0  0  0  0  0  0  0  0  0  0
  -50.4795   57.7291   62.0213 C   0  0  0  0  0  0  0  0  0  0  0  0
  -49.5043   57.3603   60.9198 C   0  0  0  0  0  0  0  0  0  0  0  0
  -49.6965   58.1943   59.6684 C   0  0  0  0  0  0  0  0  0  0  0  0
  -48.4341   58.2928   58.8370 C   0  0  0  0  0  0  0  0  0  0  0  0
  -38.6624   60.5083   65.9180 C   0  0  0  0  0  0  0  0  0  0  0  0
  -37.8338   60.3894   64.7561 O   0  0  0  0  0  0  0  0  0  0  0  0
  -36.9764   61.6574   62.4113 O   0  0  0  0  0  0  0  0  0  0  0  0
  -36.6148   64.6486   65.4844 O   0  0  0  0  0  0  0  0  0  0  0  0
  -36.5564   61.8253   66.0347 O   0  0  0  0  0  0  0  0  0  0  0  0
  -36.7059   61.2151   64.7664 C   0  0  0  0  0  0  0  0  0  0  0  0
  -36.8881   62.2759   63.6887 C   0  0  0  0  0  0  0  0  0  0  0  0
  -35.7201   63.2534   63.7216 C   0  0  0  0  0  0  0  0  0  0  0  0
  -35.5179   63.8167   65.1205 C   0  0  0  0  0  0  0  0  0  0  0  0
  -35.3983   62.6709   66.1223 C   0  0  0  0  0  0  0  0  0  0  0  0
  -37.7229   61.0381   62.4029 H   0  0  0  0  0  0  0  0  0  0  0  0
  -36.6925   65.3775   64.8491 H   0  0  0  0  0  0  0  0  0  0  0  0
  -36.4885   62.8285   68.2845 O   0  0  0  0  0  0  0  0  0  0  0  0
  -35.3071   63.1408   67.5552 C   0  0  0  0  0  0  0  0  0  0  0  0
  -36.3973   63.1429   69.1977 H   0  0  0  0  0  0  0  0  0  0  0  0
  -36.1141   64.3306   62.8140 O   0  0  0  0  0  0  0  0  0  0  0  0
  -33.9280   65.3413   62.8947 O   0  0  0  0  0  0  0  0  0  0  0  0
  -35.5949   66.0389   61.1481 O   0  0  0  0  0  0  0  0  0  0  0  0
  -34.5284   63.9187   61.0855 O   0  0  0  0  0  0  0  0  0  0  0  0
  -34.9826   65.0784   61.9870 S   0  0  0  0  0  0  0  0  0  0  0  0
  -34.1810   66.0709   63.4817 H   0  0  0  0  0  0  0  0  0  0  0  0
  -34.1014   63.2364   61.6268 H   0  0  0  0  0  0  0  0  0  0  0  0
  2  1  1  0  0  0
  2  4  1  0  0  0
  2  5  1  0  0  0
 47 48  1  0  0  0
 47  1  1  0  0  0
 48 52  1  0  0  0
  1 30  1  0  0  0
 29 30  1  0  0  0
 29 31  1  0  0  0
 30 32  1  0  0  0
  3  4  2  0  0  0
 32 33  2  0  0  0
 49 53  1  0  0  0
 49 57  1  0  0  0
 33 34  1  0  0  0
 62 54  1  0  0  0
 62 66  1  0  0  0
 34 35  1  0  0  0
 50 55  1  0  0  0
 50 58  1  0  0  0
 35 36  1  0  0  0
 51 52  1  0  0  0
 51 56  1  0  0  0
 36 37  1  0  0  0
 59 60  1  0  0  0
 59 61  1  0  0  0
 37 38  1  0  0  0
 63 66  1  0  0  0
 63 67  1  0  0  0
 38 39  1  0  0  0
 64 66  1  0  0  0
 39 40  1  0  0  0
 65 66  1  0  0  0
 65 68  1  0  0  0
 40 41  1  0  0  0
 41 42  1  0  0  0
 42 43  1  0  0  0
 43 44  1  0  0  0
 44 45  1  0  0  0
 45 46  1  0  0  0
  4  6  1  0  0  0
  6  7  1  0  0  0
  7  8  1  0  0  0
  8  9  1  0  0  0
  9 10  1  0  0  0
 10 11  1  0  0  0
 11 12  1  0  0  0
 12 13  1  0  0  0
 13 14  1  0  0  0
 14 15  1  0  0  0
 15 16  1  0  0  0
 16 17  1  0  0  0
 17 18  1  0  0  0
 18 19  1  0  0  0
 19 20  2  0  0  0
 20 21  1  0  0  0
 21 22  1  0  0  0
 22 23  1  0  0  0
 23 24  1  0  0  0
 24 25  1  0  0  0
 25 26  1  0  0  0
 26 27  1  0  0  0
 27 28  1  0  0  0
 52 53  1  0  0  0
 53 54  1  0  0  0
 54 55  1  0  0  0
 55 56  1  0  0  0
 56 60  1  0  0  0
M  CHG 1  64  -1
M  END
> <minimizedAffinity>
-8.15807

> <CNNscore>
0.1256233156

> <CNNaffinity>
7.3719358444

> <CNN_VS>
0.9260870218

> <CNNaffinity_variance>
1.9818134308

$$$$
/media/chris/experiments/cd1a-new-docking/inputs/ligands/7ryn_ligand.pdb


 68 68  0  0  0  0  0  0  0  0999 V2000
  -38.9825   60.2236   61.4302 C   0  0  0  0  0  0  0  0  0  0  0  0
  -39.9289   59.2098   61.8862 N   0  0  0  0  0  0  0  0  0  0  0  0
  -41.4388   59.5462   60.2507 O   0  0  0  0  0  0  0  0  0  0  0  0
  -41.0812   58.9502   61.2626 C   0  0  0  0  0  0  0  0  0  0  0  0
  -39.7067   58.6918   62.6934 H   0  0  0  0  0  0  0  0  0  0  0  0
  -41.9253   57.8621   61.8780 C   0  0  0  0  0  0  0  0  0  0  0  0
  -41.2582   56.4944   61.8083 C   0  0  0  0  0  0  0  0  0  0  0  0
  -41.4760   55.6708   63.0675 C   0  0  0  0  0  0  0  0  0  0  0  0
  -41.4968   56.4928   64.3455 C   0  0  0  0  0  0  0  0  0  0  0  0
  -42.8350   56.4716   65.0689 C   0  0  0  0  0  0  0  0  0  0  0  0
  -42.8668   57.3134   66.3382 C   0  0  0  0  0  0  0  0  0  0  0  0
  -44.0062   58.3233   66.3804 C   0  0  0  0  0  0  0  0  0  0  0  0
  -44.8371   58.3951   65.1017 C   0  0  0  0  0  0  0  0  0  0  0  0
  -46.3331   58.1730   65.3185 C   0  0  0  0  0  0  0  0  0  0  0  0
  -47.2392   59.0702   64.4757 C   0  0  0  0  0  0  0  0  0  0  0  0
  -48.0610   60.0569   65.3055 C   0  0  0  0  0  0  0  0  0  0  0  0
  -49.0076   59.4173   66.3211 C   0  0  0  0  0  0  0  0  0  0  0  0
  -50.2462   58.7500   65.7173 C   0  0  0  0  0  0  0  0  0  0  0  0
  -51.2140   59.7376   65.1322 C   0  0  0  0  0  0  0  0  0  0  0  0
  -51.3412   60.0378   63.8517 C   0  0  0  0  0  0  0  0  0  0  0  0
  -50.5465   59.4504   62.7251 C   0  0  0  0  0  0  0  0  0  0  0  0
  -51.1496   58.1663   62.1517 C   0  0  0  0  0  0  0  0  0  0  0  0
  -50.2723   57.5087   61.0946 C   0  0  0  0  0  0  0  0  0  0  0  0
  -49.3854   58.4963   60.3448 C   0  0  0  0  0  0  0  0  0  0  0  0
  -48.7766   57.9480   59.0593 C   0  0  0  0  0  0  0  0  0  0  0  0
  -47.9083   56.7156   59.2693 C   0  0  0  0  0  0  0  0  0  0  0  0
  -47.2297   56.2098   58.0062 C   0  0  0  0  0  0  0  0  0  0  0  0
  -46.9679   57.3093   56.9970 C   0  0  0  0  0  0  0  0  0  0  0  0
  -38.5253   59.0849   59.3495 O   0  0  0  0  0  0  0  0  0  0  0  0
  -37.9104   59.5608   60.5503 C   0  0  0  0  0  0  0  0  0  0  0  0
  -38.9662   59.8216   58.8982 H   0  0  0  0  0  0  0  0  0  0  0  0
  -37.2182   58.4477   61.2754 C   0  0  0  0  0  0  0  0  0  0  0  0
  -35.9118   58.2812   61.3386 C   0  0  0  0  0  0  0  0  0  0  0  0
  -35.2506   57.1681   62.0831 C   0  0  0  0  0  0  0  0  0  0  0  0
  -33.7275   57.2572   61.9677 C   0  0  0  0  0  0  0  0  0  0  0  0
  -33.1886   58.6776   61.9163 C   0  0  0  0  0  0  0  0  0  0  0  0
  -33.2226   59.4072   63.2483 C   0  0  0  0  0  0  0  0  0  0  0  0
  -32.8097   58.5483   64.4348 C   0  0  0  0  0  0  0  0  0  0  0  0
  -33.9437   58.2656   65.4082 C   0  0  0  0  0  0  0  0  0  0  0  0
  -35.3077   58.6996   64.9011 C   0  0  0  0  0  0  0  0  0  0  0  0
  -36.3743   57.6247   64.9986 C   0  0  0  0  0  0  0  0  0  0  0  0
  -37.7608   58.0951   64.5939 C   0  0  0  0  0  0  0  0  0  0  0  0
  -38.6774   58.3304   65.7799 C   0  0  0  0  0  0  0  0  0  0  0  0
  -39.1813   59.7551   65.9091 C   0  0  0  0  0  0  0  0  0  0  0  0
  -40.5904   59.9252   65.3761 C   0  0  0  0  0  0  0  0  0  0  0  0
  -41.4064   60.9040   66.1949 C   0  0  0  0  0  0  0  0  0  0  0  0
  -38.3781   60.9422   62.6188 C   0  0  0  0  0  0  0  0  0  0  0  0
  -37.0972   61.4530   62.2328 O   0  0  0  0  0  0  0  0  0  0  0  0
  -36.5674   61.6168   64.9775 O   0  0  0  0  0  0  0  0  0  0  0  0
  -33.5568   64.0676   63.1197 O   0  0  0  0  0  0  0  0  0  0  0  0
  -36.0943   63.5032   61.8870 O   0  0  0  0  0  0  0  0  0  0  0  0
  -36.7645   62.6769   62.8205 C   0  0  0  0  0  0  0  0  0  0  0  0
  -35.8653   62.3963   64.0175 C   0  0  0  0  0  0  0  0  0  0  0  0
  -35.4056   63.7092   64.6388 C   0  0  0  0  0  0  0  0  0  0  0  0
  -34.7812   64.6201   63.5922 C   0  0  0  0  0  0  0  0  0  0  0  0
  -35.7446   64.7905   62.4202 C   0  0  0  0  0  0  0  0  0  0  0  0
  -36.8546   60.7845   64.5705 H   0  0  0  0  0  0  0  0  0  0  0  0
  -32.9430   63.9586   63.8628 H   0  0  0  0  0  0  0  0  0  0  0  0
  -34.2959   66.6193   61.7532 O   0  0  0  0  0  0  0  0  0  0  0  0
  -35.1594   65.5916   61.2809 C   0  0  0  0  0  0  0  0  0  0  0  0
  -33.9382   67.1132   60.9988 H   0  0  0  0  0  0  0  0  0  0  0  0
  -34.3891   63.3196   65.6158 O   0  0  0  0  0  0  0  0  0  0  0  0
  -33.8578   62.6724   67.8753 O   0  0  0  0  0  0  0  0  0  0  0  0
  -36.0759   63.7230   67.3348 O   0  0  0  0  0  0  0  0  0  0  0  0
  -34.0568   64.9715   67.2989 O   0  0  0  0  0  0  0  0  0  0  0  0
  -34.6805   63.5734   67.1566 S   0  0  0  0  0  0  0  0  0  0  0  0
  -34.2229   61.7764   67.8071 H   0  0  0  0  0  0  0  0  0  0  0  0
  -33.0958   64.9102   67.1825 H   0  0  0  0  0  0  0  0  0  0  0  0
  2  1  1  0  0  0
  2  4  1  0  0  0
  2  5  1  0  0  0
 47 48  1  0  0  0
 47  1  1  0  0  0
 48 52  1  0  0  0
  1 30  1  0  0  0
 29 30  1  0  0  0
 29 31  1  0  0  0
 30 32  1  0  0  0
  3  4  2  0  0  0
 32 33  2  0  0  0
 49 53  1  0  0  0
 49 57  1  0  0  0
 33 34  1  0  0  0
 62 54  1  0  0  0
 62 66  1  0  0  0
 34 35  1  0  0  0
 50 55  1  0  0  0
 50 58  1  0  0  0
 35 36  1  0  0  0
 51 52  1  0  0  0
 51 56  1  0  0  0
 36 37  1  0  0  0
 59 60  1  0  0  0
 59 61  1  0  0  0
 37 38  1  0  0  0
 63 66  1  0  0  0
 63 67  1  0  0  0
 38 39  1  0  0  0
 64 66  1  0  0  0
 39 40  1  0  0  0
 65 66  1  0  0  0
 65 68  1  0  0  0
 40 41  1  0  0  0
 41 42  1  0  0  0
 42 43  1  0  0  0
 43 44  1  0  0  0
 44 45  1  0  0  0
 45 46  1  0  0  0
  4  6  1  0  0  0
  6  7  1  0  0  0
  7  8  1  0  0  0
  8  9  1  0  0  0
  9 10  1  0  0  0
 10 11  1  0  0  0
 11 12  1  0  0  0
 12 13  1  0  0  0
 13 14  1  0  0  0
 14 15  1  0  0  0
 15 16  1  0  0  0
 16 17  1  0  0  0
 17 18  1  0  0  0
 18 19  1  0  0  0
 19 20  2  0  0  0
 20 21  1  0  0  0
 21 22  1  0  0  0
 22 23  1  0  0  0
 23 24  1  0  0  0
 24 25  1  0  0  0
 25 26  1  0  0  0
 26 27  1  0  0  0
 27 28  1  0  0  0
 52 53  1  0  0  0
 53 54  1  0  0  0
 54 55  1  0  0  0
 55 56  1  0  0  0
 56 60  1  0  0  0
M  CHG 1  64  -1
M  END
> <minimizedAffinity>
-8.32115

> <CNNscore>
0.1248862520

> <CNNaffinity>
7.2150664330

> <CNN_VS>
0.9010626078

> <CNNaffinity_variance>
1.3351467848

$$$$
/media/chris/experiments/cd1a-new-docking/inputs/ligands/7ryn_ligand.pdb


 68 68  0  0  0  0  0  0  0  0999 V2000
  -38.2933   60.2849   62.8400 C   0  0  0  0  0  0  0  0  0  0  0  0
  -38.4137   60.0748   61.4003 N   0  0  0  0  0  0  0  0  0  0  0  0
  -36.7491   58.5674   61.2434 O   0  0  0  0  0  0  0  0  0  0  0  0
  -37.6340   59.2343   60.7150 C   0  0  0  0  0  0  0  0  0  0  0  0
  -39.1038   60.5776   60.9103 H   0  0  0  0  0  0  0  0  0  0  0  0
  -37.9130   59.1452   59.2353 C   0  0  0  0  0  0  0  0  0  0  0  0
  -39.4031   59.0939   58.9231 C   0  0  0  0  0  0  0  0  0  0  0  0
  -40.1251   57.9959   59.6876 C   0  0  0  0  0  0  0  0  0  0  0  0
  -41.5895   58.2962   59.9609 C   0  0  0  0  0  0  0  0  0  0  0  0
  -41.8132   59.5105   60.8497 C   0  0  0  0  0  0  0  0  0  0  0  0
  -42.4721   59.1883   62.1849 C   0  0  0  0  0  0  0  0  0  0  0  0
  -43.0848   60.3982   62.8784 C   0  0  0  0  0  0  0  0  0  0  0  0
  -44.0604   60.0578   64.0022 C   0  0  0  0  0  0  0  0  0  0  0  0
  -44.6469   58.6498   63.9118 C   0  0  0  0  0  0  0  0  0  0  0  0
  -45.7220   58.3394   64.9530 C   0  0  0  0  0  0  0  0  0  0  0  0
  -47.1466   58.5386   64.4352 C   0  0  0  0  0  0  0  0  0  0  0  0
  -47.6741   59.9704   64.5264 C   0  0  0  0  0  0  0  0  0  0  0  0
  -48.6979   60.2111   65.6390 C   0  0  0  0  0  0  0  0  0  0  0  0
  -49.6487   59.0625   65.8153 C   0  0  0  0  0  0  0  0  0  0  0  0
  -50.6138   58.7160   64.9820 C   0  0  0  0  0  0  0  0  0  0  0  0
  -50.9516   59.3984   63.6912 C   0  0  0  0  0  0  0  0  0  0  0  0
  -50.8390   58.4877   62.4667 C   0  0  0  0  0  0  0  0  0  0  0  0
  -49.6987   58.8720   61.5331 C   0  0  0  0  0  0  0  0  0  0  0  0
  -49.9468   58.4785   60.0813 C   0  0  0  0  0  0  0  0  0  0  0  0
  -49.3780   57.1195   59.6897 C   0  0  0  0  0  0  0  0  0  0  0  0
  -47.8684   57.1201   59.4940 C   0  0  0  0  0  0  0  0  0  0  0  0
  -47.4099   56.4921   58.1874 C   0  0  0  0  0  0  0  0  0  0  0  0
  -47.3624   57.4829   57.0420 C   0  0  0  0  0  0  0  0  0  0  0  0
  -39.9137   61.9884   63.3944 O   0  0  0  0  0  0  0  0  0  0  0  0
  -39.6822   60.5772   63.4302 C   0  0  0  0  0  0  0  0  0  0  0  0
  -39.8283   62.3069   62.4823 H   0  0  0  0  0  0  0  0  0  0  0  0
  -39.8061   60.0491   64.8266 C   0  0  0  0  0  0  0  0  0  0  0  0
  -40.9209   60.0201   65.5299 C   0  0  0  0  0  0  0  0  0  0  0  0
  -41.0153   59.4727   66.9163 C   0  0  0  0  0  0  0  0  0  0  0  0
  -42.4515   59.0639   67.2499 C   0  0  0  0  0  0  0  0  0  0  0  0
  -42.8040   57.6412   66.8469 C   0  0  0  0  0  0  0  0  0  0  0  0
  -41.8164   57.0013   65.8863 C   0  0  0  0  0  0  0  0  0  0  0  0
  -42.4554   56.0513   64.8838 C   0  0  0  0  0  0  0  0  0  0  0  0
  -41.7268   55.9903   63.5501 C   0  0  0  0  0  0  0  0  0  0  0  0
  -40.5993   56.9995   63.4221 C   0  0  0  0  0  0  0  0  0  0  0  0
  -39.4792   56.5612   62.4970 C   0  0  0  0  0  0  0  0  0  0  0  0
  -38.0893   56.8857   63.0169 C   0  0  0  0  0  0  0  0  0  0  0  0
  -38.0688   57.1977   64.5017 C   0  0  0  0  0  0  0  0  0  0  0  0
  -36.8264   57.9304   64.9706 C   0  0  0  0  0  0  0  0  0  0  0  0
  -35.5907   57.5464   64.1806 C   0  0  0  0  0  0  0  0  0  0  0  0
  -34.3101   58.0054   64.8467 C   0  0  0  0  0  0  0  0  0  0  0  0
  -37.3093   61.4016   63.1215 C   0  0  0  0  0  0  0  0  0  0  0  0
  -36.0070   60.8262   63.2756 O   0  0  0  0  0  0  0  0  0  0  0  0
  -33.3909   61.5271   62.5645 O   0  0  0  0  0  0  0  0  0  0  0  0
  -34.9421   64.9755   64.6199 O   0  0  0  0  0  0  0  0  0  0  0  0
  -35.9587   62.3167   65.0376 O   0  0  0  0  0  0  0  0  0  0  0  0
  -35.1820   61.5026   64.1790 C   0  0  0  0  0  0  0  0  0  0  0  0
  -34.2083   62.3581   63.3790 C   0  0  0  0  0  0  0  0  0  0  0  0
  -33.3447   63.1822   64.3256 C   0  0  0  0  0  0  0  0  0  0  0  0
  -34.2039   63.9686   65.3046 C   0  0  0  0  0  0  0  0  0  0  0  0
  -35.1727   63.0233   66.0106 C   0  0  0  0  0  0  0  0  0  0  0  0
  -33.9515   61.0081   61.9669 H   0  0  0  0  0  0  0  0  0  0  0  0
  -34.3283   65.5773   64.1706 H   0  0  0  0  0  0  0  0  0  0  0  0
  -36.1476   63.1733   68.2277 O   0  0  0  0  0  0  0  0  0  0  0  0
  -36.1432   63.7379   66.9216 C   0  0  0  0  0  0  0  0  0  0  0  0
  -36.7793   63.6538   68.7855 H   0  0  0  0  0  0  0  0  0  0  0  0
  -32.6236   64.1099   63.4546 O   0  0  0  0  0  0  0  0  0  0  0  0
  -30.6096   65.3435   62.9759 O   0  0  0  0  0  0  0  0  0  0  0  0
  -30.9558   64.2867   65.2296 O   0  0  0  0  0  0  0  0  0  0  0  0
  -32.1950   66.1889   64.5346 O   0  0  0  0  0  0  0  0  0  0  0  0
  -31.4198   64.9461   64.0672 S   0  0  0  0  0  0  0  0  0  0  0  0
  -30.1039   64.5809   62.6540 H   0  0  0  0  0  0  0  0  0  0  0  0
  -32.5306   66.6700   63.7621 H   0  0  0  0  0  0  0  0  0  0  0  0
  2  1  1  0  0  0
  2  4  1  0  0  0
  2  5  1  0  0  0
 47 48  1  0  0  0
 47  1  1  0  0  0
 48 52  1  0  0  0
  1 30  1  0  0  0
 29 30  1  0  0  0
 29 31  1  0  0  0
 30 32  1  0  0  0
  3  4  2  0  0  0
 32 33  2  0  0  0
 49 53  1  0  0  0
 49 57  1  0  0  0
 33 34  1  0  0  0
 62 54  1  0  0  0
 62 66  1  0  0  0
 34 35  1  0  0  0
 50 55  1  0  0  0
 50 58  1  0  0  0
 35 36  1  0  0  0
 51 52  1  0  0  0
 51 56  1  0  0  0
 36 37  1  0  0  0
 59 60  1  0  0  0
 59 61  1  0  0  0
 37 38  1  0  0  0
 63 66  1  0  0  0
 63 67  1  0  0  0
 38 39  1  0  0  0
 64 66  1  0  0  0
 39 40  1  0  0  0
 65 66  1  0  0  0
 65 68  1  0  0  0
 40 41  1  0  0  0
 41 42  1  0  0  0
 42 43  1  0  0  0
 43 44  1  0  0  0
 44 45  1  0  0  0
 45 46  1  0  0  0
  4  6  1  0  0  0
  6  7  1  0  0  0
  7  8  1  0  0  0
  8  9  1  0  0  0
  9 10  1  0  0  0
 10 11  1  0  0  0
 11 12  1  0  0  0
 12 13  1  0  0  0
 13 14  1  0  0  0
 14 15  1  0  0  0
 15 16  1  0  0  0
 16 17  1  0  0  0
 17 18  1  0  0  0
 18 19  1  0  0  0
 19 20  2  0  0  0
 20 21  1  0  0  0
 21 22  1  0  0  0
 22 23  1  0  0  0
 23 24  1  0  0  0
 24 25  1  0  0  0
 25 26  1  0  0  0
 26 27  1  0  0  0
 27 28  1  0  0  0
 52 53  1  0  0  0
 53 54  1  0  0  0
 54 55  1  0  0  0
 55 56  1  0  0  0
 56 60  1  0  0  0
M  CHG 1  64  -1
M  END
> <minimizedAffinity>
-7.35433

> <CNNscore>
0.1232635453

> <CNNaffinity>
7.3188428879

> <CNN_VS>
0.9021465182

> <CNNaffinity_variance>
0.9351390004

$$$$
/media/chris/experiments/cd1a-new-docking/inputs/ligands/7ryn_ligand.pdb


 68 68  0  0  0  0  0  0  0  0999 V2000
  -39.2075   60.1986   61.2917 C   0  0  0  0  0  0  0  0  0  0  0  0
  -40.1481   59.2336   61.8531 N   0  0  0  0  0  0  0  0  0  0  0  0
  -41.3858   59.0000   59.9873 O   0  0  0  0  0  0  0  0  0  0  0  0
  -41.1622   58.7101   61.1590 C   0  0  0  0  0  0  0  0  0  0  0  0
  -40.0291   58.9547   62.7898 H   0  0  0  0  0  0  0  0  0  0  0  0
  -42.0238   57.7231   61.9065 C   0  0  0  0  0  0  0  0  0  0  0  0
  -41.5646   56.2833   61.7148 C   0  0  0  0  0  0  0  0  0  0  0  0
  -41.3527   55.5549   63.0323 C   0  0  0  0  0  0  0  0  0  0  0  0
  -41.2852   56.4740   64.2406 C   0  0  0  0  0  0  0  0  0  0  0  0
  -42.4143   56.2628   65.2381 C   0  0  0  0  0  0  0  0  0  0  0  0
  -42.7644   57.5035   66.0498 C   0  0  0  0  0  0  0  0  0  0  0  0
  -43.3620   58.6339   65.2221 C   0  0  0  0  0  0  0  0  0  0  0  0
  -44.5242   58.2161   64.3245 C   0  0  0  0  0  0  0  0  0  0  0  0
  -45.9015   58.5579   64.8907 C   0  0  0  0  0  0  0  0  0  0  0  0
  -45.9790   58.5652   66.4172 C   0  0  0  0  0  0  0  0  0  0  0  0
  -47.4070   58.4701   66.9549 C   0  0  0  0  0  0  0  0  0  0  0  0
  -48.2775   59.7006   66.7007 C   0  0  0  0  0  0  0  0  0  0  0  0
  -48.9946   59.7152   65.3480 C   0  0  0  0  0  0  0  0  0  0  0  0
  -50.4662   59.4411   65.4650 C   0  0  0  0  0  0  0  0  0  0  0  0
  -51.3426   59.4603   64.4763 C   0  0  0  0  0  0  0  0  0  0  0  0
  -51.0431   59.7567   63.0381 C   0  0  0  0  0  0  0  0  0  0  0  0
  -50.8453   58.5048   62.1808 C   0  0  0  0  0  0  0  0  0  0  0  0
  -49.5903   58.5568   61.3195 C   0  0  0  0  0  0  0  0  0  0  0  0
  -49.4436   57.3565   60.3912 C   0  0  0  0  0  0  0  0  0  0  0  0
  -48.1407   57.3256   59.6004 C   0  0  0  0  0  0  0  0  0  0  0  0
  -47.9842   56.0902   58.7250 C   0  0  0  0  0  0  0  0  0  0  0  0
  -47.0735   56.2899   57.5238 C   0  0  0  0  0  0  0  0  0  0  0  0
  -47.4276   57.5207   56.7140 C   0  0  0  0  0  0  0  0  0  0  0  0
  -38.3132   58.9029   59.4597 O   0  0  0  0  0  0  0  0  0  0  0  0
  -37.9824   59.4533   60.7380 C   0  0  0  0  0  0  0  0  0  0  0  0
  -38.6086   59.6130   58.8687 H   0  0  0  0  0  0  0  0  0  0  0  0
  -37.5210   58.3829   61.6791 C   0  0  0  0  0  0  0  0  0  0  0  0
  -36.2651   58.1517   62.0069 C   0  0  0  0  0  0  0  0  0  0  0  0
  -35.8378   57.0851   62.9611 C   0  0  0  0  0  0  0  0  0  0  0  0
  -35.4894   57.6771   64.3282 C   0  0  0  0  0  0  0  0  0  0  0  0
  -34.0245   58.0490   64.4911 C   0  0  0  0  0  0  0  0  0  0  0  0
  -33.7680   59.5422   64.6032 C   0  0  0  0  0  0  0  0  0  0  0  0
  -33.3614   60.2002   63.2927 C   0  0  0  0  0  0  0  0  0  0  0  0
  -32.3048   59.4241   62.5216 C   0  0  0  0  0  0  0  0  0  0  0  0
  -30.9775   60.1519   62.4009 C   0  0  0  0  0  0  0  0  0  0  0  0
  -30.9266   61.1612   61.2689 C   0  0  0  0  0  0  0  0  0  0  0  0
  -30.5528   62.5651   61.7127 C   0  0  0  0  0  0  0  0  0  0  0  0
  -30.5718   62.7359   63.2202 C   0  0  0  0  0  0  0  0  0  0  0  0
  -31.0836   64.0836   63.6914 C   0  0  0  0  0  0  0  0  0  0  0  0
  -31.6768   64.0266   65.0854 C   0  0  0  0  0  0  0  0  0  0  0  0
  -32.5630   65.2171   65.3883 C   0  0  0  0  0  0  0  0  0  0  0  0
  -38.8244   61.2215   62.3411 C   0  0  0  0  0  0  0  0  0  0  0  0
  -38.2730   60.5280   63.4662 O   0  0  0  0  0  0  0  0  0  0  0  0
  -36.5419   61.9930   61.8236 O   0  0  0  0  0  0  0  0  0  0  0  0
  -36.8434   64.2947   65.4475 O   0  0  0  0  0  0  0  0  0  0  0  0
  -37.3196   61.4590   65.3511 O   0  0  0  0  0  0  0  0  0  0  0  0
  -37.1181   61.1129   63.9935 C   0  0  0  0  0  0  0  0  0  0  0  0
  -36.8028   62.3570   63.1732 C   0  0  0  0  0  0  0  0  0  0  0  0
  -35.5989   63.0774   63.7671 C   0  0  0  0  0  0  0  0  0  0  0  0
  -35.8000   63.3459   65.2512 C   0  0  0  0  0  0  0  0  0  0  0  0
  -36.1595   62.0443   65.9636 C   0  0  0  0  0  0  0  0  0  0  0  0
  -37.3147   61.5356   61.4569 H   0  0  0  0  0  0  0  0  0  0  0  0
  -36.6170   65.1226   64.9957 H   0  0  0  0  0  0  0  0  0  0  0  0
  -35.7290   63.2980   67.9962 O   0  0  0  0  0  0  0  0  0  0  0  0
  -36.4872   62.2376   67.4257 C   0  0  0  0  0  0  0  0  0  0  0  0
  -35.9627   63.3952   68.9327 H   0  0  0  0  0  0  0  0  0  0  0  0
  -35.5358   64.3481   63.0454 O   0  0  0  0  0  0  0  0  0  0  0  0
  -33.7741   63.2820   61.7938 O   0  0  0  0  0  0  0  0  0  0  0  0
  -34.0070   65.7843   61.7953 O   0  0  0  0  0  0  0  0  0  0  0  0
  -35.5543   64.3831   60.6642 O   0  0  0  0  0  0  0  0  0  0  0  0
  -34.5388   64.4736   61.8151 S   0  0  0  0  0  0  0  0  0  0  0  0
  -33.1201   63.3046   62.5098 H   0  0  0  0  0  0  0  0  0  0  0  0
  -35.9427   63.4945   60.6448 H   0  0  0  0  0  0  0  0  0  0  0  0
  2  1  1  0  0  0
  2  4  1  0  0  0
  2  5  1  0  0  0
 47 48  1  0  0  0
 47  1  1  0  0  0
 48 52  1  0  0  0
  1 30  1  0  0  0
 29 30  1  0  0  0
 29 31  1  0  0  0
 30 32  1  0  0  0
  3  4  2  0  0  0
 32 33  2  0  0  0
 49 53  1  0  0  0
 49 57  1  0  0  0
 33 34  1  0  0  0
 62 54  1  0  0  0
 62 66  1  0  0  0
 34 35  1  0  0  0
 50 55  1  0  0  0
 50 58  1  0  0  0
 35 36  1  0  0  0
 51 52  1  0  0  0
 51 56  1  0  0  0
 36 37  1  0  0  0
 59 60  1  0  0  0
 59 61  1  0  0  0
 37 38  1  0  0  0
 63 66  1  0  0  0
 63 67  1  0  0  0
 38 39  1  0  0  0
 64 66  1  0  0  0
 39 40  1  0  0  0
 65 66  1  0  0  0
 65 68  1  0  0  0
 40 41  1  0  0  0
 41 42  1  0  0  0
 42 43  1  0  0  0
 43 44  1  0  0  0
 44 45  1  0  0  0
 45 46  1  0  0  0
  4  6  1  0  0  0
  6  7  1  0  0  0
  7  8  1  0  0  0
  8  9  1  0  0  0
  9 10  1  0  0  0
 10 11  1  0  0  0
 11 12  1  0  0  0
 12 13  1  0  0  0
 13 14  1  0  0  0
 14 15  1  0  0  0
 15 16  1  0  0  0
 16 17  1  0  0  0
 17 18  1  0  0  0
 18 19  1  0  0  0
 19 20  2  0  0  0
 20 21  1  0  0  0
 21 22  1  0  0  0
 22 23  1  0  0  0
 23 24  1  0  0  0
 24 25  1  0  0  0
 25 26  1  0  0  0
 26 27  1  0  0  0
 27 28  1  0  0  0
 52 53  1  0  0  0
 53 54  1  0  0  0
 54 55  1  0  0  0
 55 56  1  0  0  0
 56 60  1  0  0  0
M  CHG 1  64  -1
M  END
> <minimizedAffinity>
-8.63021

> <CNNscore>
0.1224928498

> <CNNaffinity>
7.2357711792

> <CNN_VS>
0.8863302469

> <CNNaffinity_variance>
0.9843848944

$$$$
/media/chris/experiments/cd1a-new-docking/inputs/ligands/7ryn_ligand.pdb


 68 68  0  0  0  0  0  0  0  0999 V2000
  -40.2973   59.9387   66.1165 C   0  0  0  0  0  0  0  0  0  0  0  0
  -40.7516   58.7791   65.3548 N   0  0  0  0  0  0  0  0  0  0  0  0
  -42.0847   57.9474   66.9669 O   0  0  0  0  0  0  0  0  0  0  0  0
  -41.6082   57.8752   65.8379 C   0  0  0  0  0  0  0  0  0  0  0  0
  -40.4097   58.6573   64.4396 H   0  0  0  0  0  0  0  0  0  0  0  0
  -41.9667   56.7496   64.9000 C   0  0  0  0  0  0  0  0  0  0  0  0
  -43.4638   56.6668   64.6309 C   0  0  0  0  0  0  0  0  0  0  0  0
  -44.0583   58.0005   64.2077 C   0  0  0  0  0  0  0  0  0  0  0  0
  -45.2759   58.4166   65.0162 C   0  0  0  0  0  0  0  0  0  0  0  0
  -45.2248   57.9822   66.4733 C   0  0  0  0  0  0  0  0  0  0  0  0
  -46.5933   57.7300   67.0932 C   0  0  0  0  0  0  0  0  0  0  0  0
  -47.4519   56.7433   66.3125 C   0  0  0  0  0  0  0  0  0  0  0  0
  -48.5049   57.3902   65.4164 C   0  0  0  0  0  0  0  0  0  0  0  0
  -49.3849   58.4150   66.1304 C   0  0  0  0  0  0  0  0  0  0  0  0
  -48.8154   59.8332   66.1601 C   0  0  0  0  0  0  0  0  0  0  0  0
  -48.0816   60.2216   64.8763 C   0  0  0  0  0  0  0  0  0  0  0  0
  -48.8355   61.1934   63.9687 C   0  0  0  0  0  0  0  0  0  0  0  0
  -49.5299   60.5471   62.7670 C   0  0  0  0  0  0  0  0  0  0  0  0
  -50.8170   59.8665   63.1336 C   0  0  0  0  0  0  0  0  0  0  0  0
  -51.1724   58.6394   62.7960 C   0  0  0  0  0  0  0  0  0  0  0  0
  -50.3603   57.6788   61.9813 C   0  0  0  0  0  0  0  0  0  0  0  0
  -50.7908   57.5995   60.5151 C   0  0  0  0  0  0  0  0  0  0  0  0
  -49.6669   57.9219   59.5393 C   0  0  0  0  0  0  0  0  0  0  0  0
  -48.2897   57.5063   60.0440 C   0  0  0  0  0  0  0  0  0  0  0  0
  -47.7496   56.2241   59.4210 C   0  0  0  0  0  0  0  0  0  0  0  0
  -48.1297   56.0461   57.9579 C   0  0  0  0  0  0  0  0  0  0  0  0
  -47.0591   56.4980   56.9773 C   0  0  0  0  0  0  0  0  0  0  0  0
  -47.0736   57.9940   56.7371 C   0  0  0  0  0  0  0  0  0  0  0  0
  -41.6344   61.9113   66.5115 O   0  0  0  0  0  0  0  0  0  0  0  0
  -40.8939   61.2162   65.5041 C   0  0  0  0  0  0  0  0  0  0  0  0
  -41.0546   62.1020   67.2652 H   0  0  0  0  0  0  0  0  0  0  0  0
  -41.7595   60.9044   64.3220 C   0  0  0  0  0  0  0  0  0  0  0  0
  -41.3308   60.7730   63.0821 C   0  0  0  0  0  0  0  0  0  0  0  0
  -42.2180   60.4466   61.9258 C   0  0  0  0  0  0  0  0  0  0  0  0
  -41.3988   60.1849   60.6603 C   0  0  0  0  0  0  0  0  0  0  0  0
  -41.3627   58.7269   60.2319 C   0  0  0  0  0  0  0  0  0  0  0  0
  -40.0031   58.0656   60.3807 C   0  0  0  0  0  0  0  0  0  0  0  0
  -39.7837   57.3994   61.7313 C   0  0  0  0  0  0  0  0  0  0  0  0
  -38.7245   58.0812   62.5836 C   0  0  0  0  0  0  0  0  0  0  0  0
  -37.3893   57.3580   62.5947 C   0  0  0  0  0  0  0  0  0  0  0  0
  -36.6202   57.4996   63.8950 C   0  0  0  0  0  0  0  0  0  0  0  0
  -35.1594   57.8721   63.7085 C   0  0  0  0  0  0  0  0  0  0  0  0
  -34.7546   57.9745   62.2497 C   0  0  0  0  0  0  0  0  0  0  0  0
  -33.2605   57.8804   62.0063 C   0  0  0  0  0  0  0  0  0  0  0  0
  -32.4477   58.5019   63.1250 C   0  0  0  0  0  0  0  0  0  0  0  0
  -31.7082   59.7475   62.6824 C   0  0  0  0  0  0  0  0  0  0  0  0
  -38.7834   59.9775   66.1501 C   0  0  0  0  0  0  0  0  0  0  0  0
  -38.3259   60.7062   65.0053 O   0  0  0  0  0  0  0  0  0  0  0  0
  -36.6269   60.9003   62.7880 O   0  0  0  0  0  0  0  0  0  0  0  0
  -36.1302   64.6208   64.8936 O   0  0  0  0  0  0  0  0  0  0  0  0
  -37.0162   62.2030   66.1769 O   0  0  0  0  0  0  0  0  0  0  0  0
  -37.0413   61.2410   65.1390 C   0  0  0  0  0  0  0  0  0  0  0  0
  -36.6584   61.8853   63.8130 C   0  0  0  0  0  0  0  0  0  0  0  0
  -35.2979   62.5593   63.9387 C   0  0  0  0  0  0  0  0  0  0  0  0
  -35.2672   63.5120   65.1246 C   0  0  0  0  0  0  0  0  0  0  0  0
  -35.7155   62.7764   66.3850 C   0  0  0  0  0  0  0  0  0  0  0  0
  -37.4977   60.4788   62.7178 H   0  0  0  0  0  0  0  0  0  0  0  0
  -35.8471   65.0897   64.0931 H   0  0  0  0  0  0  0  0  0  0  0  0
  -36.4886   63.0299   68.6712 O   0  0  0  0  0  0  0  0  0  0  0  0
  -35.8227   63.6773   67.5930 C   0  0  0  0  0  0  0  0  0  0  0  0
  -36.5405   63.6339   69.4285 H   0  0  0  0  0  0  0  0  0  0  0  0
  -35.1460   63.3192   62.6982 O   0  0  0  0  0  0  0  0  0  0  0  0
  -32.7475   63.1258   62.8263 O   0  0  0  0  0  0  0  0  0  0  0  0
  -33.8480   65.3850   62.8003 O   0  0  0  0  0  0  0  0  0  0  0  0
  -33.7799   64.0028   60.8711 O   0  0  0  0  0  0  0  0  0  0  0  0
  -33.7548   64.0290   62.4082 S   0  0  0  0  0  0  0  0  0  0  0  0
  -32.7034   63.1166   63.7952 H   0  0  0  0  0  0  0  0  0  0  0  0
  -33.7174   63.0854   60.5623 H   0  0  0  0  0  0  0  0  0  0  0  0
  2  1  1  0  0  0
  2  4  1  0  0  0
  2  5  1  0  0  0
 47 48  1  0  0  0
 47  1  1  0  0  0
 48 52  1  0  0  0
  1 30  1  0  0  0
 29 30  1  0  0  0
 29 31  1  0  0  0
 30 32  1  0  0  0
  3  4  2  0  0  0
 32 33  2  0  0  0
 49 53  1  0  0  0
 49 57  1  0  0  0
 33 34  1  0  0  0
 62 54  1  0  0  0
 62 66  1  0  0  0
 34 35  1  0  0  0
 50 55  1  0  0  0
 50 58  1  0  0  0
 35 36  1  0  0  0
 51 52  1  0  0  0
 51 56  1  0  0  0
 36 37  1  0  0  0
 59 60  1  0  0  0
 59 61  1  0  0  0
 37 38  1  0  0  0
 63 66  1  0  0  0
 63 67  1  0  0  0
 38 39  1  0  0  0
 64 66  1  0  0  0
 39 40  1  0  0  0
 65 66  1  0  0  0
 65 68  1  0  0  0
 40 41  1  0  0  0
 41 42  1  0  0  0
 42 43  1  0  0  0
 43 44  1  0  0  0
 44 45  1  0  0  0
 45 46  1  0  0  0
  4  6  1  0  0  0
  6  7  1  0  0  0
  7  8  1  0  0  0
  8  9  1  0  0  0
  9 10  1  0  0  0
 10 11  1  0  0  0
 11 12  1  0  0  0
 12 13  1  0  0  0
 13 14  1  0  0  0
 14 15  1  0  0  0
 15 16  1  0  0  0
 16 17  1  0  0  0
 17 18  1  0  0  0
 18 19  1  0  0  0
 19 20  2  0  0  0
 20 21  1  0  0  0
 21 22  1  0  0  0
 22 23  1  0  0  0
 23 24  1  0  0  0
 24 25  1  0  0  0
 25 26  1  0  0  0
 26 27  1  0  0  0
 27 28  1  0  0  0
 52 53  1  0  0  0
 53 54  1  0  0  0
 54 55  1  0  0  0
 55 56  1  0  0  0
 56 60  1  0  0  0
M  CHG 1  64  -1
M  END
> <minimizedAffinity>
-9.84323

> <CNNscore>
0.1194916666

> <CNNaffinity>
7.4009094238

> <CNN_VS>
0.8843470216

> <CNNaffinity_variance>
2.3336975574

$$$$
/media/chris/experiments/cd1a-new-docking/inputs/ligands/7ryn_ligand.pdb


 68 68  0  0  0  0  0  0  0  0999 V2000
  -39.9730   59.3684   65.5148 C   0  0  0  0  0  0  0  0  0  0  0  0
  -41.1226   59.3618   66.4147 N   0  0  0  0  0  0  0  0  0  0  0  0
  -42.6872   59.3911   64.7963 O   0  0  0  0  0  0  0  0  0  0  0  0
  -42.3878   59.3737   65.9867 C   0  0  0  0  0  0  0  0  0  0  0  0
  -40.9570   59.3480   67.3851 H   0  0  0  0  0  0  0  0  0  0  0  0
  -43.4417   59.3565   67.0658 C   0  0  0  0  0  0  0  0  0  0  0  0
  -44.8167   58.9726   66.5344 C   0  0  0  0  0  0  0  0  0  0  0  0
  -45.8671   58.8901   67.6304 C   0  0  0  0  0  0  0  0  0  0  0  0
  -46.5641   57.5425   67.7157 C   0  0  0  0  0  0  0  0  0  0  0  0
  -46.7114   56.8400   66.3743 C   0  0  0  0  0  0  0  0  0  0  0  0
  -48.1349   56.3983   66.0591 C   0  0  0  0  0  0  0  0  0  0  0  0
  -48.9218   57.4014   65.2257 C   0  0  0  0  0  0  0  0  0  0  0  0
  -49.7596   58.3835   66.0407 C   0  0  0  0  0  0  0  0  0  0  0  0
  -49.1255   59.7653   66.1926 C   0  0  0  0  0  0  0  0  0  0  0  0
  -48.1839   60.1626   65.0561 C   0  0  0  0  0  0  0  0  0  0  0  0
  -48.8735   60.9483   63.9405 C   0  0  0  0  0  0  0  0  0  0  0  0
  -49.3778   60.1037   62.7705 C   0  0  0  0  0  0  0  0  0  0  0  0
  -50.8852   59.8362   62.7705 C   0  0  0  0  0  0  0  0  0  0  0  0
  -51.2193   58.3806   62.6155 C   0  0  0  0  0  0  0  0  0  0  0  0
  -51.1203   57.6732   61.5039 C   0  0  0  0  0  0  0  0  0  0  0  0
  -50.6514   58.1813   60.1742 C   0  0  0  0  0  0  0  0  0  0  0  0
  -49.1863   57.8574   59.8743 C   0  0  0  0  0  0  0  0  0  0  0  0
  -48.9183   56.3660   59.7218 C   0  0  0  0  0  0  0  0  0  0  0  0
  -47.4358   56.0249   59.6221 C   0  0  0  0  0  0  0  0  0  0  0  0
  -46.9003   55.9474   58.1970 C   0  0  0  0  0  0  0  0  0  0  0  0
  -47.9418   56.2635   57.1328 C   0  0  0  0  0  0  0  0  0  0  0  0
  -47.7517   57.6123   56.4571 C   0  0  0  0  0  0  0  0  0  0  0  0
  -46.6524   58.4397   57.0918 C   0  0  0  0  0  0  0  0  0  0  0  0
  -38.0396   57.9254   65.3939 O   0  0  0  0  0  0  0  0  0  0  0  0
  -39.4683   57.9292   65.3224 C   0  0  0  0  0  0  0  0  0  0  0  0
  -37.7573   58.3029   66.2416 H   0  0  0  0  0  0  0  0  0  0  0  0
  -39.9415   57.3519   64.0237 C   0  0  0  0  0  0  0  0  0  0  0  0
  -40.9686   56.5368   63.8859 C   0  0  0  0  0  0  0  0  0  0  0  0
  -41.4252   55.9893   62.5735 C   0  0  0  0  0  0  0  0  0  0  0  0
  -42.0451   57.0862   61.7053 C   0  0  0  0  0  0  0  0  0  0  0  0
  -41.3928   57.2444   60.3415 C   0  0  0  0  0  0  0  0  0  0  0  0
  -41.4822   58.6473   59.7654 C   0  0  0  0  0  0  0  0  0  0  0  0
  -41.1967   59.7499   60.7747 C   0  0  0  0  0  0  0  0  0  0  0  0
  -39.7167   59.9405   61.0687 C   0  0  0  0  0  0  0  0  0  0  0  0
  -38.8037   59.4364   59.9649 C   0  0  0  0  0  0  0  0  0  0  0  0
  -37.5892   58.6771   60.4658 C   0  0  0  0  0  0  0  0  0  0  0  0
  -37.9006   57.6725   61.5619 C   0  0  0  0  0  0  0  0  0  0  0  0
  -36.6898   57.3210   62.4062 C   0  0  0  0  0  0  0  0  0  0  0  0
  -35.4196   58.0512   62.0142 C   0  0  0  0  0  0  0  0  0  0  0  0
  -34.2513   57.7150   62.9201 C   0  0  0  0  0  0  0  0  0  0  0  0
  -32.9369   57.6460   62.1705 C   0  0  0  0  0  0  0  0  0  0  0  0
  -38.8935   60.2818   66.0577 C   0  0  0  0  0  0  0  0  0  0  0  0
  -38.2979   60.9788   64.9576 O   0  0  0  0  0  0  0  0  0  0  0  0
  -36.4560   60.9546   62.8486 O   0  0  0  0  0  0  0  0  0  0  0  0
  -35.6567   64.6094   64.9760 O   0  0  0  0  0  0  0  0  0  0  0  0
  -36.8959   62.3224   66.2055 O   0  0  0  0  0  0  0  0  0  0  0  0
  -36.9701   61.3612   65.1693 C   0  0  0  0  0  0  0  0  0  0  0  0
  -36.4344   61.9452   63.8685 C   0  0  0  0  0  0  0  0  0  0  0  0
  -35.0146   62.4568   64.0768 C   0  0  0  0  0  0  0  0  0  0  0  0
  -34.9450   63.4094   65.2611 C   0  0  0  0  0  0  0  0  0  0  0  0
  -35.5522   62.7418   66.4925 C   0  0  0  0  0  0  0  0  0  0  0  0
  -37.3642   60.6371   62.7255 H   0  0  0  0  0  0  0  0  0  0  0  0
  -35.2724   65.0353   64.1939 H   0  0  0  0  0  0  0  0  0  0  0  0
  -36.5291   63.1645   68.6732 O   0  0  0  0  0  0  0  0  0  0  0  0
  -35.6266   63.6593   67.6905 C   0  0  0  0  0  0  0  0  0  0  0  0
  -36.5533   63.7751   69.4266 H   0  0  0  0  0  0  0  0  0  0  0  0
  -34.6996   63.1833   62.8469 O   0  0  0  0  0  0  0  0  0  0  0  0
  -32.8408   61.8287   62.1281 O   0  0  0  0  0  0  0  0  0  0  0  0
  -32.4569   64.1181   63.0908 O   0  0  0  0  0  0  0  0  0  0  0  0
  -33.4155   63.8081   60.9410 O   0  0  0  0  0  0  0  0  0  0  0  0
  -33.1978   63.1841   62.3293 S   0  0  0  0  0  0  0  0  0  0  0  0
  -32.6951   61.4018   62.9869 H   0  0  0  0  0  0  0  0  0  0  0  0
  -33.9224   63.1944   60.3866 H   0  0  0  0  0  0  0  0  0  0  0  0
  2  1  1  0  0  0
  2  4  1  0  0  0
  2  5  1  0  0  0
 47 48  1  0  0  0
 47  1  1  0  0  0
 48 52  1  0  0  0
  1 30  1  0  0  0
 29 30  1  0  0  0
 29 31  1  0  0  0
 30 32  1  0  0  0
  3  4  2  0  0  0
 32 33  2  0  0  0
 49 53  1  0  0  0
 49 57  1  0  0  0
 33 34  1  0  0  0
 62 54  1  0  0  0
 62 66  1  0  0  0
 34 35  1  0  0  0
 50 55  1  0  0  0
 50 58  1  0  0  0
 35 36  1  0  0  0
 51 52  1  0  0  0
 51 56  1  0  0  0
 36 37  1  0  0  0
 59 60  1  0  0  0
 59 61  1  0  0  0
 37 38  1  0  0  0
 63 66  1  0  0  0
 63 67  1  0  0  0
 38 39  1  0  0  0
 64 66  1  0  0  0
 39 40  1  0  0  0
 65 66  1  0  0  0
 65 68  1  0  0  0
 40 41  1  0  0  0
 41 42  1  0  0  0
 42 43  1  0  0  0
 43 44  1  0  0  0
 44 45  1  0  0  0
 45 46  1  0  0  0
  4  6  1  0  0  0
  6  7  1  0  0  0
  7  8  1  0  0  0
  8  9  1  0  0  0
  9 10  1  0  0  0
 10 11  1  0  0  0
 11 12  1  0  0  0
 12 13  1  0  0  0
 13 14  1  0  0  0
 14 15  1  0  0  0
 15 16  1  0  0  0
 16 17  1  0  0  0
 17 18  1  0  0  0
 18 19  1  0  0  0
 19 20  2  0  0  0
 20 21  1  0  0  0
 21 22  1  0  0  0
 22 23  1  0  0  0
 23 24  1  0  0  0
 24 25  1  0  0  0
 25 26  1  0  0  0
 26 27  1  0  0  0
 27 28  1  0  0  0
 52 53  1  0  0  0
 53 54  1  0  0  0
 54 55  1  0  0  0
 55 56  1  0  0  0
 56 60  1  0  0  0
M  CHG 1  64  -1
M  END
> <minimizedAffinity>
-9.50583

> <CNNscore>
0.1103383005

> <CNNaffinity>
7.2403578758

> <CNN_VS>
0.7988888025

> <CNNaffinity_variance>
1.7304710150

$$$$
/media/chris/experiments/cd1a-new-docking/inputs/ligands/7ryn_ligand.pdb


 68 68  0  0  0  0  0  0  0  0999 V2000
  -38.8208   59.5724   64.7589 C   0  0  0  0  0  0  0  0  0  0  0  0
  -40.0648   60.2780   64.4658 N   0  0  0  0  0  0  0  0  0  0  0  0
  -39.3785   61.1611   62.5121 O   0  0  0  0  0  0  0  0  0  0  0  0
  -40.2469   61.0161   63.3675 C   0  0  0  0  0  0  0  0  0  0  0  0
  -40.8062   60.2062   65.1095 H   0  0  0  0  0  0  0  0  0  0  0  0
  -41.6027   61.6636   63.2340 C   0  0  0  0  0  0  0  0  0  0  0  0
  -42.4248   61.0704   62.0970 C   0  0  0  0  0  0  0  0  0  0  0  0
  -42.9231   59.6671   62.4035 C   0  0  0  0  0  0  0  0  0  0  0  0
  -43.3519   59.4673   63.8477 C   0  0  0  0  0  0  0  0  0  0  0  0
  -44.2989   58.2943   64.0516 C   0  0  0  0  0  0  0  0  0  0  0  0
  -44.0707   57.5321   65.3507 C   0  0  0  0  0  0  0  0  0  0  0  0
  -44.2517   58.3798   66.6033 C   0  0  0  0  0  0  0  0  0  0  0  0
  -45.7001   58.7475   66.9158 C   0  0  0  0  0  0  0  0  0  0  0  0
  -46.5916   57.5482   67.2342 C   0  0  0  0  0  0  0  0  0  0  0  0
  -47.7086   57.2980   66.2213 C   0  0  0  0  0  0  0  0  0  0  0  0
  -48.0961   58.5426   65.4224 C   0  0  0  0  0  0  0  0  0  0  0  0
  -49.1460   59.4352   66.0839 C   0  0  0  0  0  0  0  0  0  0  0  0
  -50.5978   59.0696   65.7638 C   0  0  0  0  0  0  0  0  0  0  0  0
  -51.2327   60.0095   64.7800 C   0  0  0  0  0  0  0  0  0  0  0  0
  -51.4026   59.7868   63.4887 C   0  0  0  0  0  0  0  0  0  0  0  0
  -50.9982   58.5492   62.7467 C   0  0  0  0  0  0  0  0  0  0  0  0
  -49.6029   58.6340   62.1243 C   0  0  0  0  0  0  0  0  0  0  0  0
  -49.6245   58.9895   60.6436 C   0  0  0  0  0  0  0  0  0  0  0  0
  -49.8889   57.7921   59.7379 C   0  0  0  0  0  0  0  0  0  0  0  0
  -48.9223   56.6292   59.9307 C   0  0  0  0  0  0  0  0  0  0  0  0
  -47.7284   56.6616   58.9871 C   0  0  0  0  0  0  0  0  0  0  0  0
  -47.9853   57.4008   57.6834 C   0  0  0  0  0  0  0  0  0  0  0  0
  -46.7253   57.9884   57.0809 C   0  0  0  0  0  0  0  0  0  0  0  0
  -37.9866   57.3967   65.3956 O   0  0  0  0  0  0  0  0  0  0  0  0
  -39.1427   58.2374   65.4496 C   0  0  0  0  0  0  0  0  0  0  0  0
  -37.2363   57.8519   65.8087 H   0  0  0  0  0  0  0  0  0  0  0  0
  -40.3238   57.5654   64.8191 C   0  0  0  0  0  0  0  0  0  0  0  0
  -40.2887   56.8561   63.7083 C   0  0  0  0  0  0  0  0  0  0  0  0
  -41.4825   56.1851   63.1123 C   0  0  0  0  0  0  0  0  0  0  0  0
  -41.3051   55.9824   61.6062 C   0  0  0  0  0  0  0  0  0  0  0  0
  -41.7125   57.1806   60.7640 C   0  0  0  0  0  0  0  0  0  0  0  0
  -40.5540   57.8865   60.0805 C   0  0  0  0  0  0  0  0  0  0  0  0
  -39.3369   58.0843   60.9725 C   0  0  0  0  0  0  0  0  0  0  0  0
  -38.1706   58.7644   60.2722 C   0  0  0  0  0  0  0  0  0  0  0  0
  -36.8144   58.4050   60.8532 C   0  0  0  0  0  0  0  0  0  0  0  0
  -36.8689   57.8959   62.2816 C   0  0  0  0  0  0  0  0  0  0  0  0
  -35.5327   57.4044   62.8112 C   0  0  0  0  0  0  0  0  0  0  0  0
  -34.3487   57.9609   62.0425 C   0  0  0  0  0  0  0  0  0  0  0  0
  -33.0335   57.9114   62.7962 C   0  0  0  0  0  0  0  0  0  0  0  0
  -32.5551   59.2850   63.2238 C   0  0  0  0  0  0  0  0  0  0  0  0
  -32.0018   60.0927   62.0680 C   0  0  0  0  0  0  0  0  0  0  0  0
  -37.9149   60.4453   65.6027 C   0  0  0  0  0  0  0  0  0  0  0  0
  -36.5563   60.0991   65.3108 O   0  0  0  0  0  0  0  0  0  0  0  0
  -35.7066   61.1552   62.8606 O   0  0  0  0  0  0  0  0  0  0  0  0
  -36.5438   64.5888   65.3165 O   0  0  0  0  0  0  0  0  0  0  0  0
  -35.8719   62.0123   66.4062 O   0  0  0  0  0  0  0  0  0  0  0  0
  -35.6805   61.1880   65.2717 C   0  0  0  0  0  0  0  0  0  0  0  0
  -35.9601   61.9724   63.9964 C   0  0  0  0  0  0  0  0  0  0  0  0
  -35.0865   63.2199   63.9539 C   0  0  0  0  0  0  0  0  0  0  0  0
  -35.2349   64.0349   65.2301 C   0  0  0  0  0  0  0  0  0  0  0  0
  -34.9834   63.1406   66.4417 C   0  0  0  0  0  0  0  0  0  0  0  0
  -36.2680   60.3652   62.8990 H   0  0  0  0  0  0  0  0  0  0  0  0
  -36.7057   65.1575   64.5476 H   0  0  0  0  0  0  0  0  0  0  0  0
  -36.4555   63.4508   68.3456 O   0  0  0  0  0  0  0  0  0  0  0  0
  -35.2200   63.8426   67.7583 C   0  0  0  0  0  0  0  0  0  0  0  0
  -36.5763   63.9184   69.1870 H   0  0  0  0  0  0  0  0  0  0  0  0
  -35.5977   63.9904   62.8206 O   0  0  0  0  0  0  0  0  0  0  0  0
  -33.5827   63.4080   61.6345 O   0  0  0  0  0  0  0  0  0  0  0  0
  -34.3517   65.7977   61.7508 O   0  0  0  0  0  0  0  0  0  0  0  0
  -35.4961   64.1757   60.4484 O   0  0  0  0  0  0  0  0  0  0  0  0
  -34.5873   64.4053   61.6671 S   0  0  0  0  0  0  0  0  0  0  0  0
  -32.9883   63.5228   62.3924 H   0  0  0  0  0  0  0  0  0  0  0  0
  -35.6812   63.2279   60.3571 H   0  0  0  0  0  0  0  0  0  0  0  0
  2  1  1  0  0  0
  2  4  1  0  0  0
  2  5  1  0  0  0
 47 48  1  0  0  0
 47  1  1  0  0  0
 48 52  1  0  0  0
  1 30  1  0  0  0
 29 30  1  0  0  0
 29 31  1  0  0  0
 30 32  1  0  0  0
  3  4  2  0  0  0
 32 33  2  0  0  0
 49 53  1  0  0  0
 49 57  1  0  0  0
 33 34  1  0  0  0
 62 54  1  0  0  0
 62 66  1  0  0  0
 34 35  1  0  0  0
 50 55  1  0  0  0
 50 58  1  0  0  0
 35 36  1  0  0  0
 51 52  1  0  0  0
 51 56  1  0  0  0
 36 37  1  0  0  0
 59 60  1  0  0  0
 59 61  1  0  0  0
 37 38  1  0  0  0
 63 66  1  0  0  0
 63 67  1  0  0  0
 38 39  1  0  0  0
 64 66  1  0  0  0
 39 40  1  0  0  0
 65 66  1  0  0  0
 65 68  1  0  0  0
 40 41  1  0  0  0
 41 42  1  0  0  0
 42 43  1  0  0  0
 43 44  1  0  0  0
 44 45  1  0  0  0
 45 46  1  0  0  0
  4  6  1  0  0  0
  6  7  1  0  0  0
  7  8  1  0  0  0
  8  9  1  0  0  0
  9 10  1  0  0  0
 10 11  1  0  0  0
 11 12  1  0  0  0
 12 13  1  0  0  0
 13 14  1  0  0  0
 14 15  1  0  0  0
 15 16  1  0  0  0
 16 17  1  0  0  0
 17 18  1  0  0  0
 18 19  1  0  0  0
 19 20  2  0  0  0
 20 21  1  0  0  0
 21 22  1  0  0  0
 22 23  1  0  0  0
 23 24  1  0  0  0
 24 25  1  0  0  0
 25 26  1  0  0  0
 26 27  1  0  0  0
 27 28  1  0  0  0
 52 53  1  0  0  0
 53 54  1  0  0  0
 54 55  1  0  0  0
 55 56  1  0  0  0
 56 60  1  0  0  0
M  CHG 1  64  -1
M  END
> <minimizedAffinity>
-9.47126

> <CNNscore>
0.1087186337

> <CNNaffinity>
7.5187063217

> <CNN_VS>
0.8174234629

> <CNNaffinity_variance>
1.3552799225

$$$$
