/media/chris/experiments/cd1a-new-docking/inputs/ligands/7ryn_ligand.pdb


 68 68  0  0  0  0  0  0  0  0999 V2000
  -32.8839   62.7904   63.1385 C   0  0  0  0  0  0  0  0  0  0  0  0
  -33.9612   62.6366   64.1117 N   0  0  0  0  0  0  0  0  0  0  0  0
  -35.3279   64.1714   63.1928 O   0  0  0  0  0  0  0  0  0  0  0  0
  -35.0973   63.3374   64.0636 C   0  0  0  0  0  0  0  0  0  0  0  0
  -33.8446   61.9840   64.8395 H   0  0  0  0  0  0  0  0  0  0  0  0
  -36.0969   63.0350   65.1519 C   0  0  0  0  0  0  0  0  0  0  0  0
  -36.0935   61.5667   65.5576 C   0  0  0  0  0  0  0  0  0  0  0  0
  -36.6798   60.6609   64.4866 C   0  0  0  0  0  0  0  0  0  0  0  0
  -38.1597   60.3684   64.6695 C   0  0  0  0  0  0  0  0  0  0  0  0
  -38.4442   59.0403   65.3550 C   0  0  0  0  0  0  0  0  0  0  0  0
  -39.9052   58.8411   65.7381 C   0  0  0  0  0  0  0  0  0  0  0  0
  -40.6340   60.1332   66.0840 C   0  0  0  0  0  0  0  0  0  0  0  0
  -42.0250   59.9357   66.6810 C   0  0  0  0  0  0  0  0  0  0  0  0
  -42.8113   58.7832   66.0583 C   0  0  0  0  0  0  0  0  0  0  0  0
  -44.2463   58.6433   66.5658 C   0  0  0  0  0  0  0  0  0  0  0  0
  -45.2581   58.3495   65.4580 C   0  0  0  0  0  0  0  0  0  0  0  0
  -46.4613   57.5097   65.8864 C   0  0  0  0  0  0  0  0  0  0  0  0
  -47.7499   58.3019   66.1222 C   0  0  0  0  0  0  0  0  0  0  0  0
  -47.8970   59.4679   65.1877 C   0  0  0  0  0  0  0  0  0  0  0  0
  -48.9675   59.7606   64.4706 C   0  0  0  0  0  0  0  0  0  0  0  0
  -50.2519   58.9887   64.4483 C   0  0  0  0  0  0  0  0  0  0  0  0
  -50.9129   58.9354   63.0692 C   0  0  0  0  0  0  0  0  0  0  0  0
  -50.1345   58.1017   62.0601 C   0  0  0  0  0  0  0  0  0  0  0  0
  -49.8182   58.8521   60.7712 C   0  0  0  0  0  0  0  0  0  0  0  0
  -49.6970   57.9648   59.5377 C   0  0  0  0  0  0  0  0  0  0  0  0
  -48.2666   57.5569   59.2141 C   0  0  0  0  0  0  0  0  0  0  0  0
  -48.0884   56.9596   57.8272 C   0  0  0  0  0  0  0  0  0  0  0  0
  -47.2059   57.8043   56.9307 C   0  0  0  0  0  0  0  0  0  0  0  0
  -31.8205   61.3982   61.4755 O   0  0  0  0  0  0  0  0  0  0  0  0
  -32.2735   61.4133   62.8323 C   0  0  0  0  0  0  0  0  0  0  0  0
  -31.1863   62.1192   61.3383 H   0  0  0  0  0  0  0  0  0  0  0  0
  -33.2566   60.3107   63.0813 C   0  0  0  0  0  0  0  0  0  0  0  0
  -33.0078   59.2147   63.7704 C   0  0  0  0  0  0  0  0  0  0  0  0
  -34.0152   58.1393   64.0141 C   0  0  0  0  0  0  0  0  0  0  0  0
  -34.5958   57.6206   62.6970 C   0  0  0  0  0  0  0  0  0  0  0  0
  -36.1148   57.6210   62.6426 C   0  0  0  0  0  0  0  0  0  0  0  0
  -36.6960   58.3094   61.4195 C   0  0  0  0  0  0  0  0  0  0  0  0
  -38.2069   58.1780   61.2949 C   0  0  0  0  0  0  0  0  0  0  0  0
  -38.8130   57.1639   62.2527 C   0  0  0  0  0  0  0  0  0  0  0  0
  -40.2704   56.8472   61.9668 C   0  0  0  0  0  0  0  0  0  0  0  0
  -41.2403   57.4380   62.9730 C   0  0  0  0  0  0  0  0  0  0  0  0
  -42.2834   58.3547   62.3572 C   0  0  0  0  0  0  0  0  0  0  0  0
  -41.6766   59.4758   61.5342 C   0  0  0  0  0  0  0  0  0  0  0  0
  -40.9922   60.5539   62.3527 C   0  0  0  0  0  0  0  0  0  0  0  0
  -41.9783   61.4873   63.0272 C   0  0  0  0  0  0  0  0  0  0  0  0
  -42.9828   62.0711   62.0553 C   0  0  0  0  0  0  0  0  0  0  0  0
  -31.8501   63.7679   63.6582 C   0  0  0  0  0  0  0  0  0  0  0  0
  -30.6051   63.4968   63.0045 O   0  0  0  0  0  0  0  0  0  0  0  0
  -30.3516   63.7576   60.2281 O   0  0  0  0  0  0  0  0  0  0  0  0
  -31.5242   67.6628   61.6055 O   0  0  0  0  0  0  0  0  0  0  0  0
  -30.1836   65.7489   63.2841 O   0  0  0  0  0  0  0  0  0  0  0  0
  -29.9891   64.6223   62.4497 C   0  0  0  0  0  0  0  0  0  0  0  0
  -30.6044   64.8690   61.0784 C   0  0  0  0  0  0  0  0  0  0  0  0
  -30.0240   66.1400   60.4715 C   0  0  0  0  0  0  0  0  0  0  0  0
  -30.1548   67.3132   61.4316 C   0  0  0  0  0  0  0  0  0  0  0  0
  -29.5529   66.9387   62.7837 C   0  0  0  0  0  0  0  0  0  0  0  0
  -30.7254   62.9552   60.6248 H   0  0  0  0  0  0  0  0  0  0  0  0
  -31.9085   67.9011   60.7474 H   0  0  0  0  0  0  0  0  0  0  0  0
  -29.6662   67.4686   65.1491 O   0  0  0  0  0  0  0  0  0  0  0  0
  -29.7397   68.0080   63.8344 C   0  0  0  0  0  0  0  0  0  0  0  0
  -29.7898   68.1792   65.7976 H   0  0  0  0  0  0  0  0  0  0  0  0
  -30.8404   66.3884   59.2835 O   0  0  0  0  0  0  0  0  0  0  0  0
  -29.1580   65.5771   57.7609 O   0  0  0  0  0  0  0  0  0  0  0  0
  -29.8281   67.9992   57.7527 O   0  0  0  0  0  0  0  0  0  0  0  0
  -31.2722   66.2975   56.9431 O   0  0  0  0  0  0  0  0  0  0  0  0
  -30.1072   66.6196   57.8934 S   0  0  0  0  0  0  0  0  0  0  0  0
  -28.4057   65.7482   58.3489 H   0  0  0  0  0  0  0  0  0  0  0  0
  -31.4940   65.3557   57.0112 H   0  0  0  0  0  0  0  0  0  0  0  0
  2  1  1  0  0  0
  2  4  1  0  0  0
  2  5  1  0  0  0
 47 48  1  0  0  0
 47  1  1  0  0  0
 48 52  1  0  0  0
  1 30  1  0  0  0
 29 30  1  0  0  0
 29 31  1  0  0  0
 30 32  1  0  0  0
  3  4  2  0  0  0
 32 33  2  0  0  0
 49 53  1  0  0  0
 49 57  1  0  0  0
 33 34  1  0  0  0
 62 54  1  0  0  0
 62 66  1  0  0  0
 34 35  1  0  0  0
 50 55  1  0  0  0
 50 58  1  0  0  0
 35 36  1  0  0  0
 51 52  1  0  0  0
 51 56  1  0  0  0
 36 37  1  0  0  0
 59 60  1  0  0  0
 59 61  1  0  0  0
 37 38  1  0  0  0
 63 66  1  0  0  0
 63 67  1  0  0  0
 38 39  1  0  0  0
 64 66  1  0  0  0
 39 40  1  0  0  0
 65 66  1  0  0  0
 65 68  1  0  0  0
 40 41  1  0  0  0
 41 42  1  0  0  0
 42 43  1  0  0  0
 43 44  1  0  0  0
 44 45  1  0  0  0
 45 46  1  0  0  0
  4  6  1  0  0  0
  6  7  1  0  0  0
  7  8  1  0  0  0
  8  9  1  0  0  0
  9 10  1  0  0  0
 10 11  1  0  0  0
 11 12  1  0  0  0
 12 13  1  0  0  0
 13 14  1  0  0  0
 14 15  1  0  0  0
 15 16  1  0  0  0
 16 17  1  0  0  0
 17 18  1  0  0  0
 18 19  1  0  0  0
 19 20  2  0  0  0
 20 21  1  0  0  0
 21 22  1  0  0  0
 22 23  1  0  0  0
 23 24  1  0  0  0
 24 25  1  0  0  0
 25 26  1  0  0  0
 26 27  1  0  0  0
 27 28  1  0  0  0
 52 53  1  0  0  0
 53 54  1  0  0  0
 54 55  1  0  0  0
 55 56  1  0  0  0
 56 60  1  0  0  0
M  CHG 1  64  -1
M  END
> <minimizedAffinity>
-8.79883

> <CNNscore>
0.3457985222

> <CNNaffinity>
7.0219993591

> <CNN_VS>
2.4281969070

> <CNNaffinity_variance>
1.0612531900

$$$$
/media/chris/experiments/cd1a-new-docking/inputs/ligands/7ryn_ligand.pdb


 68 68  0  0  0  0  0  0  0  0999 V2000
  -40.2815   59.2563   65.7776 C   0  0  0  0  0  0  0  0  0  0  0  0
  -40.1482   58.6592   64.4521 N   0  0  0  0  0  0  0  0  0  0  0  0
  -41.0986   56.6894   64.9857 O   0  0  0  0  0  0  0  0  0  0  0  0
  -40.5662   57.4247   64.1593 C   0  0  0  0  0  0  0  0  0  0  0  0
  -39.7296   59.1928   63.7385 H   0  0  0  0  0  0  0  0  0  0  0  0
  -40.3497   56.9837   62.7332 C   0  0  0  0  0  0  0  0  0  0  0  0
  -41.6575   56.7283   61.9950 C   0  0  0  0  0  0  0  0  0  0  0  0
  -42.0613   57.8881   61.0988 C   0  0  0  0  0  0  0  0  0  0  0  0
  -40.9943   58.2912   60.0947 C   0  0  0  0  0  0  0  0  0  0  0  0
  -40.5001   59.7202   60.2625 C   0  0  0  0  0  0  0  0  0  0  0  0
  -38.9826   59.8533   60.2789 C   0  0  0  0  0  0  0  0  0  0  0  0
  -38.2458   58.5220   60.2066 C   0  0  0  0  0  0  0  0  0  0  0  0
  -37.0537   58.4053   61.1530 C   0  0  0  0  0  0  0  0  0  0  0  0
  -37.1946   57.2991   62.1974 C   0  0  0  0  0  0  0  0  0  0  0  0
  -36.7589   57.6953   63.6079 C   0  0  0  0  0  0  0  0  0  0  0  0
  -35.2964   57.3666   63.9084 C   0  0  0  0  0  0  0  0  0  0  0  0
  -34.5877   58.3554   64.8339 C   0  0  0  0  0  0  0  0  0  0  0  0
  -33.8485   59.4905   64.1206 C   0  0  0  0  0  0  0  0  0  0  0  0
  -33.6679   59.2365   62.6518 C   0  0  0  0  0  0  0  0  0  0  0  0
  -32.5583   59.4259   61.9597 C   0  0  0  0  0  0  0  0  0  0  0  0
  -31.2556   59.9298   62.5027 C   0  0  0  0  0  0  0  0  0  0  0  0
  -30.4439   60.7457   61.4942 C   0  0  0  0  0  0  0  0  0  0  0  0
  -29.0973   61.2058   62.0366 C   0  0  0  0  0  0  0  0  0  0  0  0
  -29.2039   62.3777   63.0058 C   0  0  0  0  0  0  0  0  0  0  0  0
  -29.8453   63.6285   62.4159 C   0  0  0  0  0  0  0  0  0  0  0  0
  -30.2616   64.6547   63.4602 C   0  0  0  0  0  0  0  0  0  0  0  0
  -30.3626   64.0999   64.8722 C   0  0  0  0  0  0  0  0  0  0  0  0
  -31.7935   63.9713   65.3540 C   0  0  0  0  0  0  0  0  0  0  0  0
  -41.1582   61.4397   66.3242 O   0  0  0  0  0  0  0  0  0  0  0  0
  -41.5264   60.1576   65.8076 C   0  0  0  0  0  0  0  0  0  0  0  0
  -40.4468   61.8148   65.7817 H   0  0  0  0  0  0  0  0  0  0  0  0
  -42.6251   59.5470   66.6225 C   0  0  0  0  0  0  0  0  0  0  0  0
  -43.5602   58.7445   66.1537 C   0  0  0  0  0  0  0  0  0  0  0  0
  -44.6348   58.1390   66.9958 C   0  0  0  0  0  0  0  0  0  0  0  0
  -45.9907   58.7864   66.7069 C   0  0  0  0  0  0  0  0  0  0  0  0
  -46.7625   58.1356   65.5705 C   0  0  0  0  0  0  0  0  0  0  0  0
  -48.1317   57.6097   65.9659 C   0  0  0  0  0  0  0  0  0  0  0  0
  -49.2901   58.3359   65.2979 C   0  0  0  0  0  0  0  0  0  0  0  0
  -49.0424   59.8225   65.0930 C   0  0  0  0  0  0  0  0  0  0  0  0
  -49.1337   60.2638   63.6428 C   0  0  0  0  0  0  0  0  0  0  0  0
  -50.1030   59.4478   62.8081 C   0  0  0  0  0  0  0  0  0  0  0  0
  -49.4469   58.6952   61.6632 C   0  0  0  0  0  0  0  0  0  0  0  0
  -50.4429   58.1970   60.6325 C   0  0  0  0  0  0  0  0  0  0  0  0
  -49.8159   57.7096   59.3403 C   0  0  0  0  0  0  0  0  0  0  0  0
  -48.3370   58.0313   59.2528 C   0  0  0  0  0  0  0  0  0  0  0  0
  -47.5571   56.9756   58.4967 C   0  0  0  0  0  0  0  0  0  0  0  0
  -39.0206   60.0160   66.1343 C   0  0  0  0  0  0  0  0  0  0  0  0
  -38.5867   60.7379   64.9762 O   0  0  0  0  0  0  0  0  0  0  0  0
  -36.9618   60.9919   62.7099 O   0  0  0  0  0  0  0  0  0  0  0  0
  -36.4080   64.6626   64.8876 O   0  0  0  0  0  0  0  0  0  0  0  0
  -37.2440   62.2111   66.1403 O   0  0  0  0  0  0  0  0  0  0  0  0
  -37.3001   61.2743   65.0807 C   0  0  0  0  0  0  0  0  0  0  0  0
  -36.9627   61.9519   63.7591 C   0  0  0  0  0  0  0  0  0  0  0  0
  -35.6009   62.6278   63.8564 C   0  0  0  0  0  0  0  0  0  0  0  0
  -35.5345   63.5518   65.0635 C   0  0  0  0  0  0  0  0  0  0  0  0
  -35.9390   62.7843   66.3196 C   0  0  0  0  0  0  0  0  0  0  0  0
  -37.8331   60.5689   62.6580 H   0  0  0  0  0  0  0  0  0  0  0  0
  -36.1525   65.1516   64.0899 H   0  0  0  0  0  0  0  0  0  0  0  0
  -36.3840   62.9061   68.7021 O   0  0  0  0  0  0  0  0  0  0  0  0
  -36.0093   63.6555   67.5519 C   0  0  0  0  0  0  0  0  0  0  0  0
  -36.4197   63.4934   69.4732 H   0  0  0  0  0  0  0  0  0  0  0  0
  -35.4920   63.4180   62.6304 O   0  0  0  0  0  0  0  0  0  0  0  0
  -33.1773   62.8640   62.2528 O   0  0  0  0  0  0  0  0  0  0  0  0
  -33.8496   65.2124   62.8432 O   0  0  0  0  0  0  0  0  0  0  0  0
  -34.3431   64.2639   60.7234 O   0  0  0  0  0  0  0  0  0  0  0  0
  -34.0633   63.9677   62.2060 S   0  0  0  0  0  0  0  0  0  0  0  0
  -32.9781   62.6483   63.1773 H   0  0  0  0  0  0  0  0  0  0  0  0
  -34.4955   63.4309   60.2504 H   0  0  0  0  0  0  0  0  0  0  0  0
  2  1  1  0  0  0
  2  4  1  0  0  0
  2  5  1  0  0  0
 47 48  1  0  0  0
 47  1  1  0  0  0
 48 52  1  0  0  0
  1 30  1  0  0  0
 29 30  1  0  0  0
 29 31  1  0  0  0
 30 32  1  0  0  0
  3  4  2  0  0  0
 32 33  2  0  0  0
 49 53  1  0  0  0
 49 57  1  0  0  0
 33 34  1  0  0  0
 62 54  1  0  0  0
 62 66  1  0  0  0
 34 35  1  0  0  0
 50 55  1  0  0  0
 50 58  1  0  0  0
 35 36  1  0  0  0
 51 52  1  0  0  0
 51 56  1  0  0  0
 36 37  1  0  0  0
 59 60  1  0  0  0
 59 61  1  0  0  0
 37 38  1  0  0  0
 63 66  1  0  0  0
 63 67  1  0  0  0
 38 39  1  0  0  0
 64 66  1  0  0  0
 39 40  1  0  0  0
 65 66  1  0  0  0
 65 68  1  0  0  0
 40 41  1  0  0  0
 41 42  1  0  0  0
 42 43  1  0  0  0
 43 44  1  0  0  0
 44 45  1  0  0  0
 45 46  1  0  0  0
  4  6  1  0  0  0
  6  7  1  0  0  0
  7  8  1  0  0  0
  8  9  1  0  0  0
  9 10  1  0  0  0
 10 11  1  0  0  0
 11 12  1  0  0  0
 12 13  1  0  0  0
 13 14  1  0  0  0
 14 15  1  0  0  0
 15 16  1  0  0  0
 16 17  1  0  0  0
 17 18  1  0  0  0
 18 19  1  0  0  0
 19 20  2  0  0  0
 20 21  1  0  0  0
 21 22  1  0  0  0
 22 23  1  0  0  0
 23 24  1  0  0  0
 24 25  1  0  0  0
 25 26  1  0  0  0
 26 27  1  0  0  0
 27 28  1  0  0  0
 52 53  1  0  0  0
 53 54  1  0  0  0
 54 55  1  0  0  0
 55 56  1  0  0  0
 56 60  1  0  0  0
M  CHG 1  64  -1
M  END
> <minimizedAffinity>
-9.57951

> <CNNscore>
0.2504998446

> <CNNaffinity>
7.4479179382

> <CNN_VS>
1.8657022715

> <CNNaffinity_variance>
1.9147783518

$$$$
/media/chris/experiments/cd1a-new-docking/inputs/ligands/7ryn_ligand.pdb


 68 68  0  0  0  0  0  0  0  0999 V2000
  -40.5720   58.8980   65.0448 C   0  0  0  0  0  0  0  0  0  0  0  0
  -40.9804   58.8748   63.6433 N   0  0  0  0  0  0  0  0  0  0  0  0
  -41.9946   56.8668   63.7279 O   0  0  0  0  0  0  0  0  0  0  0  0
  -41.6586   57.8633   63.0946 C   0  0  0  0  0  0  0  0  0  0  0  0
  -40.7442   59.6428   63.0745 H   0  0  0  0  0  0  0  0  0  0  0  0
  -41.9985   58.0223   61.6337 C   0  0  0  0  0  0  0  0  0  0  0  0
  -40.9387   57.4231   60.7180 C   0  0  0  0  0  0  0  0  0  0  0  0
  -40.1698   58.4796   59.9410 C   0  0  0  0  0  0  0  0  0  0  0  0
  -38.6672   58.4366   60.1640 C   0  0  0  0  0  0  0  0  0  0  0  0
  -38.2580   58.5656   61.6236 C   0  0  0  0  0  0  0  0  0  0  0  0
  -37.5700   57.3283   62.1860 C   0  0  0  0  0  0  0  0  0  0  0  0
  -36.0896   57.5277   62.4845 C   0  0  0  0  0  0  0  0  0  0  0  0
  -35.7608   57.7131   63.9637 C   0  0  0  0  0  0  0  0  0  0  0  0
  -34.7047   58.7828   64.2369 C   0  0  0  0  0  0  0  0  0  0  0  0
  -33.2690   58.2611   64.2929 C   0  0  0  0  0  0  0  0  0  0  0  0
  -32.5588   58.2860   62.9392 C   0  0  0  0  0  0  0  0  0  0  0  0
  -32.4408   59.6673   62.2955 C   0  0  0  0  0  0  0  0  0  0  0  0
  -31.0820   60.3493   62.4763 C   0  0  0  0  0  0  0  0  0  0  0  0
  -30.7800   61.3440   61.3930 C   0  0  0  0  0  0  0  0  0  0  0  0
  -30.1932   62.5168   61.5545 C   0  0  0  0  0  0  0  0  0  0  0  0
  -29.7081   63.0887   62.8520 C   0  0  0  0  0  0  0  0  0  0  0  0
  -29.4233   64.5911   62.7931 C   0  0  0  0  0  0  0  0  0  0  0  0
  -30.0237   65.2703   61.5694 C   0  0  0  0  0  0  0  0  0  0  0  0
  -31.0496   66.3436   61.9156 C   0  0  0  0  0  0  0  0  0  0  0  0
  -30.6451   67.2550   63.0685 C   0  0  0  0  0  0  0  0  0  0  0  0
  -31.7901   67.5945   64.0123 C   0  0  0  0  0  0  0  0  0  0  0  0
  -31.8946   66.6761   65.2195 C   0  0  0  0  0  0  0  0  0  0  0  0
  -30.5550   66.4113   65.8764 C   0  0  0  0  0  0  0  0  0  0  0  0
  -40.5522   60.6750   66.6807 O   0  0  0  0  0  0  0  0  0  0  0  0
  -41.4098   59.9405   65.8024 C   0  0  0  0  0  0  0  0  0  0  0  0
  -39.8364   61.0821   66.1680 H   0  0  0  0  0  0  0  0  0  0  0  0
  -42.5295   59.2967   66.5614 C   0  0  0  0  0  0  0  0  0  0  0  0
  -43.6787   58.9162   66.0392 C   0  0  0  0  0  0  0  0  0  0  0  0
  -44.7709   58.2625   66.8204 C   0  0  0  0  0  0  0  0  0  0  0  0
  -45.8886   57.7711   65.8984 C   0  0  0  0  0  0  0  0  0  0  0  0
  -46.2587   58.7467   64.7930 C   0  0  0  0  0  0  0  0  0  0  0  0
  -47.7497   58.8434   64.5184 C   0  0  0  0  0  0  0  0  0  0  0  0
  -48.6166   58.7385   65.7646 C   0  0  0  0  0  0  0  0  0  0  0  0
  -50.1083   58.7059   65.4701 C   0  0  0  0  0  0  0  0  0  0  0  0
  -50.6014   59.9024   64.6755 C   0  0  0  0  0  0  0  0  0  0  0  0
  -51.4147   59.5366   63.4480 C   0  0  0  0  0  0  0  0  0  0  0  0
  -50.5896   59.4073   62.1791 C   0  0  0  0  0  0  0  0  0  0  0  0
  -50.4142   57.9687   61.7293 C   0  0  0  0  0  0  0  0  0  0  0  0
  -49.1208   57.6987   60.9846 C   0  0  0  0  0  0  0  0  0  0  0  0
  -49.3370   57.4875   59.4990 C   0  0  0  0  0  0  0  0  0  0  0  0
  -48.2040   58.0452   58.6626 C   0  0  0  0  0  0  0  0  0  0  0  0
  -39.0869   59.1774   65.1486 C   0  0  0  0  0  0  0  0  0  0  0  0
  -38.8347   60.4797   64.6090 O   0  0  0  0  0  0  0  0  0  0  0  0
  -37.1271   60.9529   62.4408 O   0  0  0  0  0  0  0  0  0  0  0  0
  -36.5159   64.2949   65.0827 O   0  0  0  0  0  0  0  0  0  0  0  0
  -37.4800   61.7401   65.9888 O   0  0  0  0  0  0  0  0  0  0  0  0
  -37.5340   60.9473   64.8176 C   0  0  0  0  0  0  0  0  0  0  0  0
  -37.1289   61.7723   63.6030 C   0  0  0  0  0  0  0  0  0  0  0  0
  -35.7478   62.3761   63.8244 C   0  0  0  0  0  0  0  0  0  0  0  0
  -35.6888   63.1372   65.1407 C   0  0  0  0  0  0  0  0  0  0  0  0
  -36.1621   62.2341   66.2768 C   0  0  0  0  0  0  0  0  0  0  0  0
  -38.0108   60.5745   62.3105 H   0  0  0  0  0  0  0  0  0  0  0  0
  -36.2168   64.8702   64.3612 H   0  0  0  0  0  0  0  0  0  0  0  0
  -35.0995   63.7618   67.8344 O   0  0  0  0  0  0  0  0  0  0  0  0
  -36.2424   62.9451   67.6075 C   0  0  0  0  0  0  0  0  0  0  0  0
  -35.1826   64.2026   68.6944 H   0  0  0  0  0  0  0  0  0  0  0  0
  -35.5701   63.3096   62.7125 O   0  0  0  0  0  0  0  0  0  0  0  0
  -34.1352   65.1936   63.1581 O   0  0  0  0  0  0  0  0  0  0  0  0
  -33.7661   63.7577   61.1290 O   0  0  0  0  0  0  0  0  0  0  0  0
  -33.2916   62.9756   63.3198 O   0  0  0  0  0  0  0  0  0  0  0  0
  -34.1349   63.9499   62.4810 S   0  0  0  0  0  0  0  0  0  0  0  0
  -34.6604   65.8355   62.6550 H   0  0  0  0  0  0  0  0  0  0  0  0
  -33.5168   63.0778   64.2577 H   0  0  0  0  0  0  0  0  0  0  0  0
  2  1  1  0  0  0
  2  4  1  0  0  0
  2  5  1  0  0  0
 47 48  1  0  0  0
 47  1  1  0  0  0
 48 52  1  0  0  0
  1 30  1  0  0  0
 29 30  1  0  0  0
 29 31  1  0  0  0
 30 32  1  0  0  0
  3  4  2  0  0  0
 32 33  2  0  0  0
 49 53  1  0  0  0
 49 57  1  0  0  0
 33 34  1  0  0  0
 62 54  1  0  0  0
 62 66  1  0  0  0
 34 35  1  0  0  0
 50 55  1  0  0  0
 50 58  1  0  0  0
 35 36  1  0  0  0
 51 52  1  0  0  0
 51 56  1  0  0  0
 36 37  1  0  0  0
 59 60  1  0  0  0
 59 61  1  0  0  0
 37 38  1  0  0  0
 63 66  1  0  0  0
 63 67  1  0  0  0
 38 39  1  0  0  0
 64 66  1  0  0  0
 39 40  1  0  0  0
 65 66  1  0  0  0
 65 68  1  0  0  0
 40 41  1  0  0  0
 41 42  1  0  0  0
 42 43  1  0  0  0
 43 44  1  0  0  0
 44 45  1  0  0  0
 45 46  1  0  0  0
  4  6  1  0  0  0
  6  7  1  0  0  0
  7  8  1  0  0  0
  8  9  1  0  0  0
  9 10  1  0  0  0
 10 11  1  0  0  0
 11 12  1  0  0  0
 12 13  1  0  0  0
 13 14  1  0  0  0
 14 15  1  0  0  0
 15 16  1  0  0  0
 16 17  1  0  0  0
 17 18  1  0  0  0
 18 19  1  0  0  0
 19 20  2  0  0  0
 20 21  1  0  0  0
 21 22  1  0  0  0
 22 23  1  0  0  0
 23 24  1  0  0  0
 24 25  1  0  0  0
 25 26  1  0  0  0
 26 27  1  0  0  0
 27 28  1  0  0  0
 52 53  1  0  0  0
 53 54  1  0  0  0
 54 55  1  0  0  0
 55 56  1  0  0  0
 56 60  1  0  0  0
M  CHG 1  64  -1
M  END
> <minimizedAffinity>
-9.13074

> <CNNscore>
0.2459328175

> <CNNaffinity>
7.0134477615

> <CNN_VS>
1.7248369455

> <CNNaffinity_variance>
1.7997081280

$$$$
/media/chris/experiments/cd1a-new-docking/inputs/ligands/7ryn_ligand.pdb


 68 68  0  0  0  0  0  0  0  0999 V2000
  -33.2400   63.2624   64.2230 C   0  0  0  0  0  0  0  0  0  0  0  0
  -34.2259   62.4732   64.9554 N   0  0  0  0  0  0  0  0  0  0  0  0
  -35.9844   63.7963   64.4812 O   0  0  0  0  0  0  0  0  0  0  0  0
  -35.5189   62.8005   65.0277 C   0  0  0  0  0  0  0  0  0  0  0  0
  -33.9227   61.6594   65.4191 H   0  0  0  0  0  0  0  0  0  0  0  0
  -36.3867   61.8585   65.8243 C   0  0  0  0  0  0  0  0  0  0  0  0
  -36.6167   60.5316   65.1122 C   0  0  0  0  0  0  0  0  0  0  0  0
  -38.0407   60.3789   64.6020 C   0  0  0  0  0  0  0  0  0  0  0  0
  -38.9127   59.4847   65.4676 C   0  0  0  0  0  0  0  0  0  0  0  0
  -40.4029   59.7565   65.3272 C   0  0  0  0  0  0  0  0  0  0  0  0
  -41.2836   58.8169   66.1410 C   0  0  0  0  0  0  0  0  0  0  0  0
  -42.2729   59.5327   67.0517 C   0  0  0  0  0  0  0  0  0  0  0  0
  -43.7000   58.9950   66.9840 C   0  0  0  0  0  0  0  0  0  0  0  0
  -44.0959   58.4525   65.6118 C   0  0  0  0  0  0  0  0  0  0  0  0
  -45.4155   57.6815   65.5879 C   0  0  0  0  0  0  0  0  0  0  0  0
  -46.6165   58.5419   65.1949 C   0  0  0  0  0  0  0  0  0  0  0  0
  -47.6321   58.7844   66.3113 C   0  0  0  0  0  0  0  0  0  0  0  0
  -48.5965   59.9475   66.0646 C   0  0  0  0  0  0  0  0  0  0  0  0
  -48.5159   60.4852   64.6651 C   0  0  0  0  0  0  0  0  0  0  0  0
  -49.4975   60.5044   63.7808 C   0  0  0  0  0  0  0  0  0  0  0  0
  -50.8902   59.9956   63.9982 C   0  0  0  0  0  0  0  0  0  0  0  0
  -51.3331   58.9567   62.9656 C   0  0  0  0  0  0  0  0  0  0  0  0
  -50.1695   58.2214   62.3139 C   0  0  0  0  0  0  0  0  0  0  0  0
  -50.3761   57.9603   60.8261 C   0  0  0  0  0  0  0  0  0  0  0  0
  -49.2702   57.1422   60.1693 C   0  0  0  0  0  0  0  0  0  0  0  0
  -48.4009   57.9443   59.2112 C   0  0  0  0  0  0  0  0  0  0  0  0
  -47.9290   57.1621   57.9958 C   0  0  0  0  0  0  0  0  0  0  0  0
  -47.0629   57.9860   57.0645 C   0  0  0  0  0  0  0  0  0  0  0  0
  -33.2224   62.8684   61.8399 O   0  0  0  0  0  0  0  0  0  0  0  0
  -32.6614   62.4180   63.0763 C   0  0  0  0  0  0  0  0  0  0  0  0
  -33.0395   63.8143   61.7273 H   0  0  0  0  0  0  0  0  0  0  0  0
  -32.9251   60.9580   63.2842 C   0  0  0  0  0  0  0  0  0  0  0  0
  -32.1466   59.9801   62.8652 C   0  0  0  0  0  0  0  0  0  0  0  0
  -32.4297   58.5328   63.1016 C   0  0  0  0  0  0  0  0  0  0  0  0
  -33.1556   57.9118   61.9065 C   0  0  0  0  0  0  0  0  0  0  0  0
  -34.6640   58.0979   61.9283 C   0  0  0  0  0  0  0  0  0  0  0  0
  -35.3377   57.5935   63.1930 C   0  0  0  0  0  0  0  0  0  0  0  0
  -36.8310   57.3437   63.0413 C   0  0  0  0  0  0  0  0  0  0  0  0
  -37.4069   57.8604   61.7319 C   0  0  0  0  0  0  0  0  0  0  0  0
  -38.9175   57.7371   61.6369 C   0  0  0  0  0  0  0  0  0  0  0  0
  -39.5515   56.9954   62.7988 C   0  0  0  0  0  0  0  0  0  0  0  0
  -40.8683   56.3212   62.4535 C   0  0  0  0  0  0  0  0  0  0  0  0
  -42.0772   57.0851   62.9611 C   0  0  0  0  0  0  0  0  0  0  0  0
  -42.5779   58.1629   62.0188 C   0  0  0  0  0  0  0  0  0  0  0  0
  -42.3128   59.5616   62.5403 C   0  0  0  0  0  0  0  0  0  0  0  0
  -41.7701   60.4866   61.4706 C   0  0  0  0  0  0  0  0  0  0  0  0
  -32.1624   63.7537   65.1673 C   0  0  0  0  0  0  0  0  0  0  0  0
  -32.5465   65.0434   65.6572 O   0  0  0  0  0  0  0  0  0  0  0  0
  -30.1932   66.3846   64.9472 O   0  0  0  0  0  0  0  0  0  0  0  0
  -32.2049   65.6270   61.2187 O   0  0  0  0  0  0  0  0  0  0  0  0
  -33.5867   65.7909   63.7369 O   0  0  0  0  0  0  0  0  0  0  0  0
  -32.5662   66.0466   64.6838 C   0  0  0  0  0  0  0  0  0  0  0  0
  -31.2053   66.0671   64.0001 C   0  0  0  0  0  0  0  0  0  0  0  0
  -31.2090   67.0887   62.8700 C   0  0  0  0  0  0  0  0  0  0  0  0
  -32.3767   66.8524   61.9234 C   0  0  0  0  0  0  0  0  0  0  0  0
  -33.6788   66.8001   62.7186 C   0  0  0  0  0  0  0  0  0  0  0  0
  -30.2008   65.7279   65.6610 H   0  0  0  0  0  0  0  0  0  0  0  0
  -31.3779   65.6582   60.7127 H   0  0  0  0  0  0  0  0  0  0  0  0
  -35.1282   65.0556   61.8555 O   0  0  0  0  0  0  0  0  0  0  0  0
  -34.8805   66.4568   61.8698 C   0  0  0  0  0  0  0  0  0  0  0  0
  -35.9037   64.8699   61.3034 H   0  0  0  0  0  0  0  0  0  0  0  0
  -29.9510   66.8588   62.1599 O   0  0  0  0  0  0  0  0  0  0  0  0
  -29.2060   68.8351   63.3204 O   0  0  0  0  0  0  0  0  0  0  0  0
  -28.2974   68.2691   61.0467 O   0  0  0  0  0  0  0  0  0  0  0  0
  -27.7185   67.0114   62.9753 O   0  0  0  0  0  0  0  0  0  0  0  0
  -28.7792   67.9179   62.3294 S   0  0  0  0  0  0  0  0  0  0  0  0
  -29.8786   69.4255   62.9462 H   0  0  0  0  0  0  0  0  0  0  0  0
  -28.0140   66.7481   63.8609 H   0  0  0  0  0  0  0  0  0  0  0  0
  2  1  1  0  0  0
  2  4  1  0  0  0
  2  5  1  0  0  0
 47 48  1  0  0  0
 47  1  1  0  0  0
 48 52  1  0  0  0
  1 30  1  0  0  0
 29 30  1  0  0  0
 29 31  1  0  0  0
 30 32  1  0  0  0
  3  4  2  0  0  0
 32 33  2  0  0  0
 49 53  1  0  0  0
 49 57  1  0  0  0
 33 34  1  0  0  0
 62 54  1  0  0  0
 62 66  1  0  0  0
 34 35  1  0  0  0
 50 55  1  0  0  0
 50 58  1  0  0  0
 35 36  1  0  0  0
 51 52  1  0  0  0
 51 56  1  0  0  0
 36 37  1  0  0  0
 59 60  1  0  0  0
 59 61  1  0  0  0
 37 38  1  0  0  0
 63 66  1  0  0  0
 63 67  1  0  0  0
 38 39  1  0  0  0
 64 66  1  0  0  0
 39 40  1  0  0  0
 65 66  1  0  0  0
 65 68  1  0  0  0
 40 41  1  0  0  0
 41 42  1  0  0  0
 42 43  1  0  0  0
 43 44  1  0  0  0
 44 45  1  0  0  0
 45 46  1  0  0  0
  4  6  1  0  0  0
  6  7  1  0  0  0
  7  8  1  0  0  0
  8  9  1  0  0  0
  9 10  1  0  0  0
 10 11  1  0  0  0
 11 12  1  0  0  0
 12 13  1  0  0  0
 13 14  1  0  0  0
 14 15  1  0  0  0
 15 16  1  0  0  0
 16 17  1  0  0  0
 17 18  1  0  0  0
 18 19  1  0  0  0
 19 20  2  0  0  0
 20 21  1  0  0  0
 21 22  1  0  0  0
 22 23  1  0  0  0
 23 24  1  0  0  0
 24 25  1  0  0  0
 25 26  1  0  0  0
 26 27  1  0  0  0
 27 28  1  0  0  0
 52 53  1  0  0  0
 53 54  1  0  0  0
 54 55  1  0  0  0
 55 56  1  0  0  0
 56 60  1  0  0  0
M  CHG 1  64  -1
M  END
> <minimizedAffinity>
-9.16565

> <CNNscore>
0.2280484587

> <CNNaffinity>
6.8946580887

> <CNN_VS>
1.5723161697

> <CNNaffinity_variance>
1.2348651886

$$$$
/media/chris/experiments/cd1a-new-docking/inputs/ligands/7ryn_ligand.pdb


 68 68  0  0  0  0  0  0  0  0999 V2000
  -31.7496   62.9590   62.4191 C   0  0  0  0  0  0  0  0  0  0  0  0
  -32.4321   61.6895   62.1872 N   0  0  0  0  0  0  0  0  0  0  0  0
  -30.5873   60.4054   62.3131 O   0  0  0  0  0  0  0  0  0  0  0  0
  -31.7995   60.5135   62.1522 C   0  0  0  0  0  0  0  0  0  0  0  0
  -33.4068   61.7006   62.0498 H   0  0  0  0  0  0  0  0  0  0  0  0
  -32.6742   59.3093   61.9078 C   0  0  0  0  0  0  0  0  0  0  0  0
  -32.9426   58.5136   63.1788 C   0  0  0  0  0  0  0  0  0  0  0  0
  -34.3766   58.6507   63.6647 C   0  0  0  0  0  0  0  0  0  0  0  0
  -35.4187   58.4032   62.5868 C   0  0  0  0  0  0  0  0  0  0  0  0
  -36.6103   57.5840   63.0596 C   0  0  0  0  0  0  0  0  0  0  0  0
  -37.6976   57.4074   62.0073 C   0  0  0  0  0  0  0  0  0  0  0  0
  -39.0686   57.0810   62.5856 C   0  0  0  0  0  0  0  0  0  0  0  0
  -40.2210   57.2039   61.5920 C   0  0  0  0  0  0  0  0  0  0  0  0
  -41.5967   56.9319   62.1983 C   0  0  0  0  0  0  0  0  0  0  0  0
  -41.5662   56.3156   63.5967 C   0  0  0  0  0  0  0  0  0  0  0  0
  -42.3845   57.0973   64.6247 C   0  0  0  0  0  0  0  0  0  0  0  0
  -43.6827   57.7039   64.0926 C   0  0  0  0  0  0  0  0  0  0  0  0
  -44.4655   58.5430   65.1060 C   0  0  0  0  0  0  0  0  0  0  0  0
  -45.7939   57.9396   65.4605 C   0  0  0  0  0  0  0  0  0  0  0  0
  -46.9803   58.4385   65.1613 C   0  0  0  0  0  0  0  0  0  0  0  0
  -47.2384   59.7062   64.4048 C   0  0  0  0  0  0  0  0  0  0  0  0
  -48.6147   60.3162   64.6792 C   0  0  0  0  0  0  0  0  0  0  0  0
  -49.6287   59.3054   65.1982 C   0  0  0  0  0  0  0  0  0  0  0  0
  -51.0552   59.5910   64.7422 C   0  0  0  0  0  0  0  0  0  0  0  0
  -51.2588   59.5336   63.2325 C   0  0  0  0  0  0  0  0  0  0  0  0
  -50.5452   58.3684   62.5616 C   0  0  0  0  0  0  0  0  0  0  0  0
  -49.7784   58.7488   61.3049 C   0  0  0  0  0  0  0  0  0  0  0  0
  -50.2416   57.9880   60.0790 C   0  0  0  0  0  0  0  0  0  0  0  0
  -31.8194   64.8651   63.9013 O   0  0  0  0  0  0  0  0  0  0  0  0
  -32.6369   63.8629   63.2900 C   0  0  0  0  0  0  0  0  0  0  0  0
  -31.3508   65.3637   63.2138 H   0  0  0  0  0  0  0  0  0  0  0  0
  -33.3773   63.0712   64.3240 C   0  0  0  0  0  0  0  0  0  0  0  0
  -33.3351   63.2938   65.6227 C   0  0  0  0  0  0  0  0  0  0  0  0
  -34.0977   62.4951   66.6283 C   0  0  0  0  0  0  0  0  0  0  0  0
  -35.4830   63.0967   66.8728 C   0  0  0  0  0  0  0  0  0  0  0  0
  -36.6357   62.1830   66.4893 C   0  0  0  0  0  0  0  0  0  0  0  0
  -36.6923   61.8353   65.0116 C   0  0  0  0  0  0  0  0  0  0  0  0
  -37.4773   60.5686   64.7036 C   0  0  0  0  0  0  0  0  0  0  0  0
  -38.2143   59.9991   65.9059 C   0  0  0  0  0  0  0  0  0  0  0  0
  -39.4919   59.2608   65.5470 C   0  0  0  0  0  0  0  0  0  0  0  0
  -40.7607   60.0267   65.8721 C   0  0  0  0  0  0  0  0  0  0  0  0
  -41.3623   60.7543   64.6821 C   0  0  0  0  0  0  0  0  0  0  0  0
  -40.8045   60.2806   63.3528 C   0  0  0  0  0  0  0  0  0  0  0  0
  -41.6696   60.6195   62.1541 C   0  0  0  0  0  0  0  0  0  0  0  0
  -42.9807   61.2712   62.5475 C   0  0  0  0  0  0  0  0  0  0  0  0
  -43.1272   62.6685   61.9813 C   0  0  0  0  0  0  0  0  0  0  0  0
  -31.3994   63.6097   61.0968 C   0  0  0  0  0  0  0  0  0  0  0  0
  -29.9847   63.8297   61.0637 O   0  0  0  0  0  0  0  0  0  0  0  0
  -30.2185   65.2955   58.6893 O   0  0  0  0  0  0  0  0  0  0  0  0
  -31.6323   67.9458   61.7716 O   0  0  0  0  0  0  0  0  0  0  0  0
  -29.8088   65.7804   62.2852 O   0  0  0  0  0  0  0  0  0  0  0  0
  -29.6124   65.1764   61.0203 C   0  0  0  0  0  0  0  0  0  0  0  0
  -30.4675   65.8685   59.9668 C   0  0  0  0  0  0  0  0  0  0  0  0
  -30.1567   67.3597   59.9455 C   0  0  0  0  0  0  0  0  0  0  0  0
  -30.2762   67.9628   61.3374 C   0  0  0  0  0  0  0  0  0  0  0  0
  -29.4213   67.1634   62.3176 C   0  0  0  0  0  0  0  0  0  0  0  0
  -30.4198   64.3470   58.7155 H   0  0  0  0  0  0  0  0  0  0  0  0
  -32.1772   68.4533   61.1500 H   0  0  0  0  0  0  0  0  0  0  0  0
  -29.4117   66.5483   64.6651 O   0  0  0  0  0  0  0  0  0  0  0  0
  -29.5681   67.6255   63.7485 C   0  0  0  0  0  0  0  0  0  0  0  0
  -29.5115   66.8782   65.5717 H   0  0  0  0  0  0  0  0  0  0  0  0
  -31.1792   67.9378   59.0738 O   0  0  0  0  0  0  0  0  0  0  0  0
  -30.7894   67.5428   56.7288 O   0  0  0  0  0  0  0  0  0  0  0  0
  -29.6035   69.4077   57.9252 O   0  0  0  0  0  0  0  0  0  0  0  0
  -31.9264   69.5057   57.4442 O   0  0  0  0  0  0  0  0  0  0  0  0
  -30.7255   68.5782   57.6927 S   0  0  0  0  0  0  0  0  0  0  0  0
  -30.0434   66.9360   56.8563 H   0  0  0  0  0  0  0  0  0  0  0  0
  -32.7191   68.9714   57.2800 H   0  0  0  0  0  0  0  0  0  0  0  0
  2  1  1  0  0  0
  2  4  1  0  0  0
  2  5  1  0  0  0
 47 48  1  0  0  0
 47  1  1  0  0  0
 48 52  1  0  0  0
  1 30  1  0  0  0
 29 30  1  0  0  0
 29 31  1  0  0  0
 30 32  1  0  0  0
  3  4  2  0  0  0
 32 33  2  0  0  0
 49 53  1  0  0  0
 49 57  1  0  0  0
 33 34  1  0  0  0
 62 54  1  0  0  0
 62 66  1  0  0  0
 34 35  1  0  0  0
 50 55  1  0  0  0
 50 58  1  0  0  0
 35 36  1  0  0  0
 51 52  1  0  0  0
 51 56  1  0  0  0
 36 37  1  0  0  0
 59 60  1  0  0  0
 59 61  1  0  0  0
 37 38  1  0  0  0
 63 66  1  0  0  0
 63 67  1  0  0  0
 38 39  1  0  0  0
 64 66  1  0  0  0
 39 40  1  0  0  0
 65 66  1  0  0  0
 65 68  1  0  0  0
 40 41  1  0  0  0
 41 42  1  0  0  0
 42 43  1  0  0  0
 43 44  1  0  0  0
 44 45  1  0  0  0
 45 46  1  0  0  0
  4  6  1  0  0  0
  6  7  1  0  0  0
  7  8  1  0  0  0
  8  9  1  0  0  0
  9 10  1  0  0  0
 10 11  1  0  0  0
 11 12  1  0  0  0
 12 13  1  0  0  0
 13 14  1  0  0  0
 14 15  1  0  0  0
 15 16  1  0  0  0
 16 17  1  0  0  0
 17 18  1  0  0  0
 18 19  1  0  0  0
 19 20  2  0  0  0
 20 21  1  0  0  0
 21 22  1  0  0  0
 22 23  1  0  0  0
 23 24  1  0  0  0
 24 25  1  0  0  0
 25 26  1  0  0  0
 26 27  1  0  0  0
 27 28  1  0  0  0
 52 53  1  0  0  0
 53 54  1  0  0  0
 54 55  1  0  0  0
 55 56  1  0  0  0
 56 60  1  0  0  0
M  CHG 1  64  -1
M  END
> <minimizedAffinity>
-8.56449

> <CNNscore>
0.1815746427

> <CNNaffinity>
6.6477570534

> <CNN_VS>
1.2070641518

> <CNNaffinity_variance>
1.6225881577

$$$$
/media/chris/experiments/cd1a-new-docking/inputs/ligands/7ryn_ligand.pdb


 68 68  0  0  0  0  0  0  0  0999 V2000
  -34.5125   59.2655   63.0249 C   0  0  0  0  0  0  0  0  0  0  0  0
  -35.6348   58.4983   62.4928 N   0  0  0  0  0  0  0  0  0  0  0  0
  -37.0594   60.2356   62.3498 O   0  0  0  0  0  0  0  0  0  0  0  0
  -36.8187   59.0415   62.1971 C   0  0  0  0  0  0  0  0  0  0  0  0
  -35.5130   57.5327   62.3446 H   0  0  0  0  0  0  0  0  0  0  0  0
  -37.8543   58.0909   61.6502 C   0  0  0  0  0  0  0  0  0  0  0  0
  -38.3859   58.5244   60.2900 C   0  0  0  0  0  0  0  0  0  0  0  0
  -39.8190   59.0277   60.3537 C   0  0  0  0  0  0  0  0  0  0  0  0
  -40.8541   57.9933   59.9440 C   0  0  0  0  0  0  0  0  0  0  0  0
  -41.8043   57.5966   61.0639 C   0  0  0  0  0  0  0  0  0  0  0  0
  -41.5174   58.2841   62.3927 C   0  0  0  0  0  0  0  0  0  0  0  0
  -42.7460   58.9070   63.0430 C   0  0  0  0  0  0  0  0  0  0  0  0
  -43.5426   57.9564   63.9330 C   0  0  0  0  0  0  0  0  0  0  0  0
  -44.9034   58.5011   64.3639 C   0  0  0  0  0  0  0  0  0  0  0  0
  -45.4510   57.8973   65.6569 C   0  0  0  0  0  0  0  0  0  0  0  0
  -46.9772   57.9225   65.7422 C   0  0  0  0  0  0  0  0  0  0  0  0
  -47.5547   58.9604   66.7043 C   0  0  0  0  0  0  0  0  0  0  0  0
  -48.7455   59.7533   66.1591 C   0  0  0  0  0  0  0  0  0  0  0  0
  -48.4851   60.3360   64.8000 C   0  0  0  0  0  0  0  0  0  0  0  0
  -49.2940   60.2712   63.7572 C   0  0  0  0  0  0  0  0  0  0  0  0
  -50.6361   59.6053   63.7224 C   0  0  0  0  0  0  0  0  0  0  0  0
  -50.9047   58.8313   62.4300 C   0  0  0  0  0  0  0  0  0  0  0  0
  -49.6608   58.1649   61.8575 C   0  0  0  0  0  0  0  0  0  0  0  0
  -49.3011   58.6548   60.4594 C   0  0  0  0  0  0  0  0  0  0  0  0
  -48.7409   57.5776   59.5377 C   0  0  0  0  0  0  0  0  0  0  0  0
  -47.8841   58.1250   58.4048 C   0  0  0  0  0  0  0  0  0  0  0  0
  -47.9359   57.2981   57.1299 C   0  0  0  0  0  0  0  0  0  0  0  0
  -47.2696   55.9452   57.2776 C   0  0  0  0  0  0  0  0  0  0  0  0
  -33.3392   57.9722   64.6938 O   0  0  0  0  0  0  0  0  0  0  0  0
  -33.3351   58.3180   63.3057 C   0  0  0  0  0  0  0  0  0  0  0  0
  -34.1931   57.5748   64.9256 H   0  0  0  0  0  0  0  0  0  0  0  0
  -32.0287   58.9359   62.9112 C   0  0  0  0  0  0  0  0  0  0  0  0
  -31.8908   59.9560   62.0875 C   0  0  0  0  0  0  0  0  0  0  0  0
  -30.5737   60.5597   61.7252 C   0  0  0  0  0  0  0  0  0  0  0  0
  -30.7121   62.0588   61.4518 C   0  0  0  0  0  0  0  0  0  0  0  0
  -29.7757   62.9309   62.2722 C   0  0  0  0  0  0  0  0  0  0  0  0
  -29.9016   64.4186   61.9920 C   0  0  0  0  0  0  0  0  0  0  0  0
  -30.0482   64.7602   60.5164 C   0  0  0  0  0  0  0  0  0  0  0  0
  -31.1585   65.7588   60.2279 C   0  0  0  0  0  0  0  0  0  0  0  0
  -30.7307   67.2085   60.3741 C   0  0  0  0  0  0  0  0  0  0  0  0
  -31.1907   67.8618   61.6639 C   0  0  0  0  0  0  0  0  0  0  0  0
  -30.0639   68.4677   62.4828 C   0  0  0  0  0  0  0  0  0  0  0  0
  -29.8202   67.7361   63.7897 C   0  0  0  0  0  0  0  0  0  0  0  0
  -31.0174   66.9615   64.3065 C   0  0  0  0  0  0  0  0  0  0  0  0
  -30.6743   66.0816   65.4924 C   0  0  0  0  0  0  0  0  0  0  0  0
  -31.3901   64.7473   65.4515 C   0  0  0  0  0  0  0  0  0  0  0  0
  -34.9418   60.0222   64.2648 C   0  0  0  0  0  0  0  0  0  0  0  0
  -33.7797   60.6137   64.8566 O   0  0  0  0  0  0  0  0  0  0  0  0
  -33.8697   62.4325   62.7294 O   0  0  0  0  0  0  0  0  0  0  0  0
  -36.8578   63.8183   65.4994 O   0  0  0  0  0  0  0  0  0  0  0  0
  -34.6068   62.2148   66.2990 O   0  0  0  0  0  0  0  0  0  0  0  0
  -33.8921   61.9859   65.0989 C   0  0  0  0  0  0  0  0  0  0  0  0
  -34.6246   62.6145   63.9207 C   0  0  0  0  0  0  0  0  0  0  0  0
  -34.8477   64.0987   64.1819 C   0  0  0  0  0  0  0  0  0  0  0  0
  -35.5259   64.3212   65.5257 C   0  0  0  0  0  0  0  0  0  0  0  0
  -34.7378   63.6085   66.6219 C   0  0  0  0  0  0  0  0  0  0  0  0
  -33.7343   61.4846   62.5740 H   0  0  0  0  0  0  0  0  0  0  0  0
  -37.3603   64.2700   64.8034 H   0  0  0  0  0  0  0  0  0  0  0  0
  -36.4199   62.6978   68.1154 O   0  0  0  0  0  0  0  0  0  0  0  0
  -35.4027   63.6832   67.9765 C   0  0  0  0  0  0  0  0  0  0  0  0
  -36.8252   62.7731   68.9934 H   0  0  0  0  0  0  0  0  0  0  0  0
  -35.7399   64.5329   63.1072 O   0  0  0  0  0  0  0  0  0  0  0  0
  -35.7352   66.5552   61.7967 O   0  0  0  0  0  0  0  0  0  0  0  0
  -35.0163   64.3720   60.7806 O   0  0  0  0  0  0  0  0  0  0  0  0
  -33.6864   65.5026   62.3897 O   0  0  0  0  0  0  0  0  0  0  0  0
  -35.1120   65.2851   61.8568 S   0  0  0  0  0  0  0  0  0  0  0  0
  -36.6406   66.4556   61.4631 H   0  0  0  0  0  0  0  0  0  0  0  0
  -33.7104   66.1260   63.1325 H   0  0  0  0  0  0  0  0  0  0  0  0
  2  1  1  0  0  0
  2  4  1  0  0  0
  2  5  1  0  0  0
 47 48  1  0  0  0
 47  1  1  0  0  0
 48 52  1  0  0  0
  1 30  1  0  0  0
 29 30  1  0  0  0
 29 31  1  0  0  0
 30 32  1  0  0  0
  3  4  2  0  0  0
 32 33  2  0  0  0
 49 53  1  0  0  0
 49 57  1  0  0  0
 33 34  1  0  0  0
 62 54  1  0  0  0
 62 66  1  0  0  0
 34 35  1  0  0  0
 50 55  1  0  0  0
 50 58  1  0  0  0
 35 36  1  0  0  0
 51 52  1  0  0  0
 51 56  1  0  0  0
 36 37  1  0  0  0
 59 60  1  0  0  0
 59 61  1  0  0  0
 37 38  1  0  0  0
 63 66  1  0  0  0
 63 67  1  0  0  0
 38 39  1  0  0  0
 64 66  1  0  0  0
 39 40  1  0  0  0
 65 66  1  0  0  0
 65 68  1  0  0  0
 40 41  1  0  0  0
 41 42  1  0  0  0
 42 43  1  0  0  0
 43 44  1  0  0  0
 44 45  1  0  0  0
 45 46  1  0  0  0
  4  6  1  0  0  0
  6  7  1  0  0  0
  7  8  1  0  0  0
  8  9  1  0  0  0
  9 10  1  0  0  0
 10 11  1  0  0  0
 11 12  1  0  0  0
 12 13  1  0  0  0
 13 14  1  0  0  0
 14 15  1  0  0  0
 15 16  1  0  0  0
 16 17  1  0  0  0
 17 18  1  0  0  0
 18 19  1  0  0  0
 19 20  2  0  0  0
 20 21  1  0  0  0
 21 22  1  0  0  0
 22 23  1  0  0  0
 23 24  1  0  0  0
 24 25  1  0  0  0
 25 26  1  0  0  0
 26 27  1  0  0  0
 27 28  1  0  0  0
 52 53  1  0  0  0
 53 54  1  0  0  0
 54 55  1  0  0  0
 55 56  1  0  0  0
 56 60  1  0  0  0
M  CHG 1  64  -1
M  END
> <minimizedAffinity>
-8.85941

> <CNNscore>
0.1790044159

> <CNNaffinity>
6.9458780289

> <CNN_VS>
1.2433428764

> <CNNaffinity_variance>
0.2983873487

$$$$
/media/chris/experiments/cd1a-new-docking/inputs/ligands/7ryn_ligand.pdb


 68 68  0  0  0  0  0  0  0  0999 V2000
  -35.8373   61.8255   64.4229 C   0  0  0  0  0  0  0  0  0  0  0  0
  -37.1357   61.1668   64.5311 N   0  0  0  0  0  0  0  0  0  0  0  0
  -37.6619   61.3262   62.3481 O   0  0  0  0  0  0  0  0  0  0  0  0
  -37.9457   60.9686   63.4877 C   0  0  0  0  0  0  0  0  0  0  0  0
  -37.4288   60.8531   65.4171 H   0  0  0  0  0  0  0  0  0  0  0  0
  -39.2434   60.2635   63.7940 C   0  0  0  0  0  0  0  0  0  0  0  0
  -39.0864   59.1860   64.8593 C   0  0  0  0  0  0  0  0  0  0  0  0
  -40.3881   58.4578   65.1534 C   0  0  0  0  0  0  0  0  0  0  0  0
  -40.7727   57.4332   64.0991 C   0  0  0  0  0  0  0  0  0  0  0  0
  -42.2179   56.9673   64.1923 C   0  0  0  0  0  0  0  0  0  0  0  0
  -43.1740   58.0189   64.7407 C   0  0  0  0  0  0  0  0  0  0  0  0
  -43.8554   57.6146   66.0417 C   0  0  0  0  0  0  0  0  0  0  0  0
  -44.4060   58.7814   66.8577 C   0  0  0  0  0  0  0  0  0  0  0  0
  -45.9266   58.7744   67.0053 C   0  0  0  0  0  0  0  0  0  0  0  0
  -46.6238   57.5758   66.3621 C   0  0  0  0  0  0  0  0  0  0  0  0
  -47.6643   57.9674   65.3128 C   0  0  0  0  0  0  0  0  0  0  0  0
  -47.3101   59.1978   64.4778 C   0  0  0  0  0  0  0  0  0  0  0  0
  -48.4614   60.1834   64.2608 C   0  0  0  0  0  0  0  0  0  0  0  0
  -49.6954   59.8182   65.0342 C   0  0  0  0  0  0  0  0  0  0  0  0
  -50.8895   59.5729   64.5244 C   0  0  0  0  0  0  0  0  0  0  0  0
  -51.2515   59.6071   63.0705 C   0  0  0  0  0  0  0  0  0  0  0  0
  -51.2261   58.2326   62.3984 C   0  0  0  0  0  0  0  0  0  0  0  0
  -49.9267   57.9489   61.6566 C   0  0  0  0  0  0  0  0  0  0  0  0
  -49.9533   58.3928   60.1983 C   0  0  0  0  0  0  0  0  0  0  0  0
  -48.6188   58.2606   59.4737 C   0  0  0  0  0  0  0  0  0  0  0  0
  -48.2582   56.8272   59.1097 C   0  0  0  0  0  0  0  0  0  0  0  0
  -47.1466   56.7077   58.0792 C   0  0  0  0  0  0  0  0  0  0  0  0
  -47.1483   57.8434   57.0761 C   0  0  0  0  0  0  0  0  0  0  0  0
  -34.2344   62.0894   66.2106 O   0  0  0  0  0  0  0  0  0  0  0  0
  -34.8293   61.1193   65.3438 C   0  0  0  0  0  0  0  0  0  0  0  0
  -34.9293   62.5465   66.7096 H   0  0  0  0  0  0  0  0  0  0  0  0
  -33.7835   60.3920   64.5555 C   0  0  0  0  0  0  0  0  0  0  0  0
  -33.3806   60.7227   63.3446 C   0  0  0  0  0  0  0  0  0  0  0  0
  -32.3236   59.9854   62.5898 C   0  0  0  0  0  0  0  0  0  0  0  0
  -32.4023   58.4814   62.8599 C   0  0  0  0  0  0  0  0  0  0  0  0
  -33.4011   57.7425   61.9841 C   0  0  0  0  0  0  0  0  0  0  0  0
  -34.6199   57.2234   62.7275 C   0  0  0  0  0  0  0  0  0  0  0  0
  -35.8825   58.0394   62.4919 C   0  0  0  0  0  0  0  0  0  0  0  0
  -37.1648   57.2321   62.6219 C   0  0  0  0  0  0  0  0  0  0  0  0
  -38.1984   57.5494   61.5555 C   0  0  0  0  0  0  0  0  0  0  0  0
  -37.7398   58.5751   60.5359 C   0  0  0  0  0  0  0  0  0  0  0  0
  -38.8776   59.2844   59.8219 C   0  0  0  0  0  0  0  0  0  0  0  0
  -40.2433   58.9217   60.3751 C   0  0  0  0  0  0  0  0  0  0  0  0
  -41.2025   60.0907   60.4914 C   0  0  0  0  0  0  0  0  0  0  0  0
  -42.0919   59.9950   61.7155 C   0  0  0  0  0  0  0  0  0  0  0  0
  -42.5215   61.3539   62.2284 C   0  0  0  0  0  0  0  0  0  0  0  0
  -35.9729   63.2980   64.7513 C   0  0  0  0  0  0  0  0  0  0  0  0
  -35.4094   64.0537   63.6732 O   0  0  0  0  0  0  0  0  0  0  0  0
  -33.8138   64.0637   61.3721 O   0  0  0  0  0  0  0  0  0  0  0  0
  -32.3284   67.3181   63.7648 O   0  0  0  0  0  0  0  0  0  0  0  0
  -33.7226   65.0634   64.8829 O   0  0  0  0  0  0  0  0  0  0  0  0
  -34.0282   64.2483   63.7668 C   0  0  0  0  0  0  0  0  0  0  0  0
  -33.5577   64.9160   62.4813 C   0  0  0  0  0  0  0  0  0  0  0  0
  -32.0694   65.2275   62.5743 C   0  0  0  0  0  0  0  0  0  0  0  0
  -31.7541   66.0171   63.8363 C   0  0  0  0  0  0  0  0  0  0  0  0
  -32.3132   65.2837   65.0529 C   0  0  0  0  0  0  0  0  0  0  0  0
  -34.7636   63.8727   61.3235 H   0  0  0  0  0  0  0  0  0  0  0  0
  -31.9744   67.7858   62.9923 H   0  0  0  0  0  0  0  0  0  0  0  0
  -30.7880   66.0546   66.7759 O   0  0  0  0  0  0  0  0  0  0  0  0
  -32.1430   66.0539   66.3414 C   0  0  0  0  0  0  0  0  0  0  0  0
  -30.7138   66.5559   67.6029 H   0  0  0  0  0  0  0  0  0  0  0  0
  -31.7906   66.0533   61.3996 O   0  0  0  0  0  0  0  0  0  0  0  0
  -29.4280   65.7068   61.0754 O   0  0  0  0  0  0  0  0  0  0  0  0
  -30.9413   66.1157   59.1111 O   0  0  0  0  0  0  0  0  0  0  0  0
  -30.9948   64.0795   60.3306 O   0  0  0  0  0  0  0  0  0  0  0  0
  -30.6602   65.5790   60.3893 S   0  0  0  0  0  0  0  0  0  0  0  0
  -29.1849   66.6441   61.1313 H   0  0  0  0  0  0  0  0  0  0  0  0
  -30.8143   63.6739   61.1931 H   0  0  0  0  0  0  0  0  0  0  0  0
  2  1  1  0  0  0
  2  4  1  0  0  0
  2  5  1  0  0  0
 47 48  1  0  0  0
 47  1  1  0  0  0
 48 52  1  0  0  0
  1 30  1  0  0  0
 29 30  1  0  0  0
 29 31  1  0  0  0
 30 32  1  0  0  0
  3  4  2  0  0  0
 32 33  2  0  0  0
 49 53  1  0  0  0
 49 57  1  0  0  0
 33 34  1  0  0  0
 62 54  1  0  0  0
 62 66  1  0  0  0
 34 35  1  0  0  0
 50 55  1  0  0  0
 50 58  1  0  0  0
 35 36  1  0  0  0
 51 52  1  0  0  0
 51 56  1  0  0  0
 36 37  1  0  0  0
 59 60  1  0  0  0
 59 61  1  0  0  0
 37 38  1  0  0  0
 63 66  1  0  0  0
 63 67  1  0  0  0
 38 39  1  0  0  0
 64 66  1  0  0  0
 39 40  1  0  0  0
 65 66  1  0  0  0
 65 68  1  0  0  0
 40 41  1  0  0  0
 41 42  1  0  0  0
 42 43  1  0  0  0
 43 44  1  0  0  0
 44 45  1  0  0  0
 45 46  1  0  0  0
  4  6  1  0  0  0
  6  7  1  0  0  0
  7  8  1  0  0  0
  8  9  1  0  0  0
  9 10  1  0  0  0
 10 11  1  0  0  0
 11 12  1  0  0  0
 12 13  1  0  0  0
 13 14  1  0  0  0
 14 15  1  0  0  0
 15 16  1  0  0  0
 16 17  1  0  0  0
 17 18  1  0  0  0
 18 19  1  0  0  0
 19 20  2  0  0  0
 20 21  1  0  0  0
 21 22  1  0  0  0
 22 23  1  0  0  0
 23 24  1  0  0  0
 24 25  1  0  0  0
 25 26  1  0  0  0
 26 27  1  0  0  0
 27 28  1  0  0  0
 52 53  1  0  0  0
 53 54  1  0  0  0
 54 55  1  0  0  0
 55 56  1  0  0  0
 56 60  1  0  0  0
M  CHG 1  64  -1
M  END
> <minimizedAffinity>
-9.60800

> <CNNscore>
0.1716330647

> <CNNaffinity>
7.1143441200

> <CNN_VS>
1.2210566998

> <CNNaffinity_variance>
1.0935636759

$$$$
/media/chris/experiments/cd1a-new-docking/inputs/ligands/7ryn_ligand.pdb


 68 68  0  0  0  0  0  0  0  0999 V2000
  -39.9107   59.7443   65.2648 C   0  0  0  0  0  0  0  0  0  0  0  0
  -39.8579   59.3417   63.8625 N   0  0  0  0  0  0  0  0  0  0  0  0
  -40.2933   57.1634   64.2276 O   0  0  0  0  0  0  0  0  0  0  0  0
  -40.0529   58.0852   63.4534 C   0  0  0  0  0  0  0  0  0  0  0  0
  -39.6693   60.0304   63.1848 H   0  0  0  0  0  0  0  0  0  0  0  0
  -39.9668   57.8634   61.9639 C   0  0  0  0  0  0  0  0  0  0  0  0
  -38.5604   58.0815   61.4204 C   0  0  0  0  0  0  0  0  0  0  0  0
  -37.5034   57.3239   62.2078 C   0  0  0  0  0  0  0  0  0  0  0  0
  -36.0906   57.8443   62.0014 C   0  0  0  0  0  0  0  0  0  0  0  0
  -35.1444   57.5275   63.1499 C   0  0  0  0  0  0  0  0  0  0  0  0
  -33.6850   57.3984   62.7328 C   0  0  0  0  0  0  0  0  0  0  0  0
  -32.7237   58.2093   63.5924 C   0  0  0  0  0  0  0  0  0  0  0  0
  -33.1600   59.6504   63.8439 C   0  0  0  0  0  0  0  0  0  0  0  0
  -32.7839   60.6187   62.7236 C   0  0  0  0  0  0  0  0  0  0  0  0
  -31.8176   60.0480   61.6858 C   0  0  0  0  0  0  0  0  0  0  0  0
  -30.7709   61.0554   61.2094 C   0  0  0  0  0  0  0  0  0  0  0  0
  -29.4053   60.9389   61.8862 C   0  0  0  0  0  0  0  0  0  0  0  0
  -29.1443   61.9641   62.9928 C   0  0  0  0  0  0  0  0  0  0  0  0
  -29.5861   63.3498   62.6201 C   0  0  0  0  0  0  0  0  0  0  0  0
  -30.5563   64.0386   63.1948 C   0  0  0  0  0  0  0  0  0  0  0  0
  -31.4092   63.5757   64.3368 C   0  0  0  0  0  0  0  0  0  0  0  0
  -31.7332   64.6777   65.3479 C   0  0  0  0  0  0  0  0  0  0  0  0
  -32.5915   65.7939   64.7677 C   0  0  0  0  0  0  0  0  0  0  0  0
  -31.8946   67.1498   64.7573 C   0  0  0  0  0  0  0  0  0  0  0  0
  -32.2440   68.0301   63.5629 C   0  0  0  0  0  0  0  0  0  0  0  0
  -31.0530   68.3571   62.6731 C   0  0  0  0  0  0  0  0  0  0  0  0
  -30.7597   67.3056   61.6147 C   0  0  0  0  0  0  0  0  0  0  0  0
  -32.0090   66.8073   60.9168 C   0  0  0  0  0  0  0  0  0  0  0  0
  -41.0801   61.5697   66.3304 O   0  0  0  0  0  0  0  0  0  0  0  0
  -41.2785   60.3799   65.5613 C   0  0  0  0  0  0  0  0  0  0  0  0
  -40.4924   62.1722   65.8481 H   0  0  0  0  0  0  0  0  0  0  0  0
  -42.1831   59.4239   66.2769 C   0  0  0  0  0  0  0  0  0  0  0  0
  -43.1331   58.7089   65.7074 C   0  0  0  0  0  0  0  0  0  0  0  0
  -44.0096   57.7519   66.4467 C   0  0  0  0  0  0  0  0  0  0  0  0
  -45.4522   58.2587   66.5039 C   0  0  0  0  0  0  0  0  0  0  0  0
  -46.0557   58.5754   65.1452 C   0  0  0  0  0  0  0  0  0  0  0  0
  -47.5674   58.4379   65.0856 C   0  0  0  0  0  0  0  0  0  0  0  0
  -48.2292   59.3285   64.0443 C   0  0  0  0  0  0  0  0  0  0  0  0
  -49.4857   60.0239   64.5450 C   0  0  0  0  0  0  0  0  0  0  0  0
  -50.7732   59.4158   64.0171 C   0  0  0  0  0  0  0  0  0  0  0  0
  -50.8467   59.3417   62.5034 C   0  0  0  0  0  0  0  0  0  0  0  0
  -51.2232   57.9692   61.9721 C   0  0  0  0  0  0  0  0  0  0  0  0
  -50.5799   57.6536   60.6345 C   0  0  0  0  0  0  0  0  0  0  0  0
  -49.4824   58.6169   60.2246 C   0  0  0  0  0  0  0  0  0  0  0  0
  -48.4945   57.9966   59.2563 C   0  0  0  0  0  0  0  0  0  0  0  0
  -48.3497   56.5017   59.4531 C   0  0  0  0  0  0  0  0  0  0  0  0
  -38.7662   60.6856   65.5784 C   0  0  0  0  0  0  0  0  0  0  0  0
  -37.5367   60.0162   65.2768 O   0  0  0  0  0  0  0  0  0  0  0  0
  -36.8118   60.8506   62.7040 O   0  0  0  0  0  0  0  0  0  0  0  0
  -36.4871   64.3795   65.1462 O   0  0  0  0  0  0  0  0  0  0  0  0
  -36.2849   61.7149   66.2124 O   0  0  0  0  0  0  0  0  0  0  0  0
  -36.4471   60.8712   65.0876 C   0  0  0  0  0  0  0  0  0  0  0  0
  -36.7107   61.7020   63.8386 C   0  0  0  0  0  0  0  0  0  0  0  0
  -35.5871   62.7117   63.6416 C   0  0  0  0  0  0  0  0  0  0  0  0
  -35.3662   63.5361   64.9013 C   0  0  0  0  0  0  0  0  0  0  0  0
  -35.1636   62.6052   66.0942 C   0  0  0  0  0  0  0  0  0  0  0  0
  -37.5297   60.2129   62.8412 H   0  0  0  0  0  0  0  0  0  0  0  0
  -36.6174   64.9719   64.3892 H   0  0  0  0  0  0  0  0  0  0  0  0
  -36.3274   63.6384   67.9563 O   0  0  0  0  0  0  0  0  0  0  0  0
  -35.0481   63.3403   67.4091 C   0  0  0  0  0  0  0  0  0  0  0  0
  -36.2176   64.1088   68.7974 H   0  0  0  0  0  0  0  0  0  0  0  0
  -36.0576   63.5827   62.5647 O   0  0  0  0  0  0  0  0  0  0  0  0
  -33.8118   63.6313   61.6922 O   0  0  0  0  0  0  0  0  0  0  0  0
  -35.0453   65.7689   62.1665 O   0  0  0  0  0  0  0  0  0  0  0  0
  -35.6379   64.3572   60.3520 O   0  0  0  0  0  0  0  0  0  0  0  0
  -34.9866   64.4204   61.7433 S   0  0  0  0  0  0  0  0  0  0  0  0
  -33.3731   63.6483   62.5571 H   0  0  0  0  0  0  0  0  0  0  0  0
  -35.6168   63.4438   60.0263 H   0  0  0  0  0  0  0  0  0  0  0  0
  2  1  1  0  0  0
  2  4  1  0  0  0
  2  5  1  0  0  0
 47 48  1  0  0  0
 47  1  1  0  0  0
 48 52  1  0  0  0
  1 30  1  0  0  0
 29 30  1  0  0  0
 29 31  1  0  0  0
 30 32  1  0  0  0
  3  4  2  0  0  0
 32 33  2  0  0  0
 49 53  1  0  0  0
 49 57  1  0  0  0
 33 34  1  0  0  0
 62 54  1  0  0  0
 62 66  1  0  0  0
 34 35  1  0  0  0
 50 55  1  0  0  0
 50 58  1  0  0  0
 35 36  1  0  0  0
 51 52  1  0  0  0
 51 56  1  0  0  0
 36 37  1  0  0  0
 59 60  1  0  0  0
 59 61  1  0  0  0
 37 38  1  0  0  0
 63 66  1  0  0  0
 63 67  1  0  0  0
 38 39  1  0  0  0
 64 66  1  0  0  0
 39 40  1  0  0  0
 65 66  1  0  0  0
 65 68  1  0  0  0
 40 41  1  0  0  0
 41 42  1  0  0  0
 42 43  1  0  0  0
 43 44  1  0  0  0
 44 45  1  0  0  0
 45 46  1  0  0  0
  4  6  1  0  0  0
  6  7  1  0  0  0
  7  8  1  0  0  0
  8  9  1  0  0  0
  9 10  1  0  0  0
 10 11  1  0  0  0
 11 12  1  0  0  0
 12 13  1  0  0  0
 13 14  1  0  0  0
 14 15  1  0  0  0
 15 16  1  0  0  0
 16 17  1  0  0  0
 17 18  1  0  0  0
 18 19  1  0  0  0
 19 20  2  0  0  0
 20 21  1  0  0  0
 21 22  1  0  0  0
 22 23  1  0  0  0
 23 24  1  0  0  0
 24 25  1  0  0  0
 25 26  1  0  0  0
 26 27  1  0  0  0
 27 28  1  0  0  0
 52 53  1  0  0  0
 53 54  1  0  0  0
 54 55  1  0  0  0
 55 56  1  0  0  0
 56 60  1  0  0  0
M  CHG 1  64  -1
M  END
> <minimizedAffinity>
-9.15865

> <CNNscore>
0.1626257896

> <CNNaffinity>
7.0325164795

> <CNN_VS>
1.1436685324

> <CNNaffinity_variance>
0.9617645144

$$$$
/media/chris/experiments/cd1a-new-docking/inputs/ligands/7ryn_ligand.pdb


 68 68  0  0  0  0  0  0  0  0999 V2000
  -39.1064   60.0459   61.1483 C   0  0  0  0  0  0  0  0  0  0  0  0
  -40.0457   59.0002   61.5429 N   0  0  0  0  0  0  0  0  0  0  0  0
  -41.6230   59.5160   60.0216 O   0  0  0  0  0  0  0  0  0  0  0  0
  -41.2286   58.8166   60.9503 C   0  0  0  0  0  0  0  0  0  0  0  0
  -39.7948   58.4007   62.2823 H   0  0  0  0  0  0  0  0  0  0  0  0
  -42.0596   57.6798   61.4910 C   0  0  0  0  0  0  0  0  0  0  0  0
  -41.2540   56.3991   61.6680 C   0  0  0  0  0  0  0  0  0  0  0  0
  -41.4542   55.7645   63.0349 C   0  0  0  0  0  0  0  0  0  0  0  0
  -41.3364   56.7429   64.1916 C   0  0  0  0  0  0  0  0  0  0  0  0
  -42.4626   56.6319   65.2085 C   0  0  0  0  0  0  0  0  0  0  0  0
  -42.5165   57.7855   66.2020 C   0  0  0  0  0  0  0  0  0  0  0  0
  -43.8396   58.5403   66.1997 C   0  0  0  0  0  0  0  0  0  0  0  0
  -45.0022   57.7792   65.5677 C   0  0  0  0  0  0  0  0  0  0  0  0
  -46.2091   57.6100   66.4891 C   0  0  0  0  0  0  0  0  0  0  0  0
  -46.7200   58.9076   67.1148 C   0  0  0  0  0  0  0  0  0  0  0  0
  -48.1118   59.3117   66.6281 C   0  0  0  0  0  0  0  0  0  0  0  0
  -48.9078   58.1985   65.9471 C   0  0  0  0  0  0  0  0  0  0  0  0
  -50.4266   58.3910   65.9599 C   0  0  0  0  0  0  0  0  0  0  0  0
  -50.8482   59.7370   65.4453 C   0  0  0  0  0  0  0  0  0  0  0  0
  -51.2160   60.0170   64.2075 C   0  0  0  0  0  0  0  0  0  0  0  0
  -51.2891   59.0459   63.0684 C   0  0  0  0  0  0  0  0  0  0  0  0
  -50.0595   59.0730   62.1580 C   0  0  0  0  0  0  0  0  0  0  0  0
  -49.9508   57.8505   61.2563 C   0  0  0  0  0  0  0  0  0  0  0  0
  -49.9707   58.1911   59.7704 C   0  0  0  0  0  0  0  0  0  0  0  0
  -48.6476   57.9555   59.0510 C   0  0  0  0  0  0  0  0  0  0  0  0
  -48.0286   56.5943   59.3361 C   0  0  0  0  0  0  0  0  0  0  0  0
  -47.0700   56.1090   58.2603 C   0  0  0  0  0  0  0  0  0  0  0  0
  -47.1504   56.9263   56.9869 C   0  0  0  0  0  0  0  0  0  0  0  0
  -37.9918   58.8781   59.3515 O   0  0  0  0  0  0  0  0  0  0  0  0
  -37.7966   59.3999   60.6691 C   0  0  0  0  0  0  0  0  0  0  0  0
  -38.2868   59.5899   58.7622 H   0  0  0  0  0  0  0  0  0  0  0  0
  -37.3397   58.3261   61.6084 C   0  0  0  0  0  0  0  0  0  0  0  0
  -36.0934   58.1363   61.9942 C   0  0  0  0  0  0  0  0  0  0  0  0
  -35.6715   57.0646   62.9450 C   0  0  0  0  0  0  0  0  0  0  0  0
  -35.4822   57.6244   64.3563 C   0  0  0  0  0  0  0  0  0  0  0  0
  -34.4419   58.7284   64.4544 C   0  0  0  0  0  0  0  0  0  0  0  0
  -33.0111   58.2579   64.2561 C   0  0  0  0  0  0  0  0  0  0  0  0
  -32.4101   58.6529   62.9151 C   0  0  0  0  0  0  0  0  0  0  0  0
  -32.4815   60.1450   62.6293 C   0  0  0  0  0  0  0  0  0  0  0  0
  -31.3738   60.6475   61.7202 C   0  0  0  0  0  0  0  0  0  0  0  0
  -30.0199   60.7552   62.3966 C   0  0  0  0  0  0  0  0  0  0  0  0
  -29.4359   62.1575   62.3848 C   0  0  0  0  0  0  0  0  0  0  0  0
  -30.1393   63.0852   61.4116 C   0  0  0  0  0  0  0  0  0  0  0  0
  -29.9312   64.5612   61.6918 C   0  0  0  0  0  0  0  0  0  0  0  0
  -31.0817   65.4159   61.1974 C   0  0  0  0  0  0  0  0  0  0  0  0
  -32.3729   64.6340   61.0708 C   0  0  0  0  0  0  0  0  0  0  0  0
  -38.8803   61.0028   62.3005 C   0  0  0  0  0  0  0  0  0  0  0  0
  -37.5456   61.5132   62.2069 O   0  0  0  0  0  0  0  0  0  0  0  0
  -35.1712   62.9618   62.5312 O   0  0  0  0  0  0  0  0  0  0  0  0
  -37.2112   63.3187   66.3040 O   0  0  0  0  0  0  0  0  0  0  0  0
  -37.6623   61.1385   64.4816 O   0  0  0  0  0  0  0  0  0  0  0  0
  -36.8052   61.4092   63.3881 C   0  0  0  0  0  0  0  0  0  0  0  0
  -36.0744   62.7278   63.6045 C   0  0  0  0  0  0  0  0  0  0  0  0
  -35.3218   62.6916   64.9285 C   0  0  0  0  0  0  0  0  0  0  0  0
  -36.2457   62.2982   66.0717 C   0  0  0  0  0  0  0  0  0  0  0  0
  -36.9611   60.9943   65.7271 C   0  0  0  0  0  0  0  0  0  0  0  0
  -35.6616   62.9826   61.6946 H   0  0  0  0  0  0  0  0  0  0  0  0
  -36.7586   64.1482   66.5231 H   0  0  0  0  0  0  0  0  0  0  0  0
  -39.3070   60.9042   66.3417 O   0  0  0  0  0  0  0  0  0  0  0  0
  -37.9847   60.5866   66.7608 C   0  0  0  0  0  0  0  0  0  0  0  0
  -39.9376   60.6303   67.0258 H   0  0  0  0  0  0  0  0  0  0  0  0
  -34.8570   64.0642   65.1271 O   0  0  0  0  0  0  0  0  0  0  0  0
  -33.0046   63.7361   66.6330 O   0  0  0  0  0  0  0  0  0  0  0  0
  -32.9937   65.6364   64.9885 O   0  0  0  0  0  0  0  0  0  0  0  0
  -32.7321   63.3803   64.2971 O   0  0  0  0  0  0  0  0  0  0  0  0
  -33.3078   64.3125   65.3757 S   0  0  0  0  0  0  0  0  0  0  0  0
  -33.3546   64.3003   67.3402 H   0  0  0  0  0  0  0  0  0  0  0  0
  -32.9280   62.4588   64.5281 H   0  0  0  0  0  0  0  0  0  0  0  0
  2  1  1  0  0  0
  2  4  1  0  0  0
  2  5  1  0  0  0
 47 48  1  0  0  0
 47  1  1  0  0  0
 48 52  1  0  0  0
  1 30  1  0  0  0
 29 30  1  0  0  0
 29 31  1  0  0  0
 30 32  1  0  0  0
  3  4  2  0  0  0
 32 33  2  0  0  0
 49 53  1  0  0  0
 49 57  1  0  0  0
 33 34  1  0  0  0
 62 54  1  0  0  0
 62 66  1  0  0  0
 34 35  1  0  0  0
 50 55  1  0  0  0
 50 58  1  0  0  0
 35 36  1  0  0  0
 51 52  1  0  0  0
 51 56  1  0  0  0
 36 37  1  0  0  0
 59 60  1  0  0  0
 59 61  1  0  0  0
 37 38  1  0  0  0
 63 66  1  0  0  0
 63 67  1  0  0  0
 38 39  1  0  0  0
 64 66  1  0  0  0
 39 40  1  0  0  0
 65 66  1  0  0  0
 65 68  1  0  0  0
 40 41  1  0  0  0
 41 42  1  0  0  0
 42 43  1  0  0  0
 43 44  1  0  0  0
 44 45  1  0  0  0
 45 46  1  0  0  0
  4  6  1  0  0  0
  6  7  1  0  0  0
  7  8  1  0  0  0
  8  9  1  0  0  0
  9 10  1  0  0  0
 10 11  1  0  0  0
 11 12  1  0  0  0
 12 13  1  0  0  0
 13 14  1  0  0  0
 14 15  1  0  0  0
 15 16  1  0  0  0
 16 17  1  0  0  0
 17 18  1  0  0  0
 18 19  1  0  0  0
 19 20  2  0  0  0
 20 21  1  0  0  0
 21 22  1  0  0  0
 22 23  1  0  0  0
 23 24  1  0  0  0
 24 25  1  0  0  0
 25 26  1  0  0  0
 26 27  1  0  0  0
 27 28  1  0  0  0
 52 53  1  0  0  0
 53 54  1  0  0  0
 54 55  1  0  0  0
 55 56  1  0  0  0
 56 60  1  0  0  0
M  CHG 1  64  -1
M  END
> <minimizedAffinity>
-9.71123

> <CNNscore>
0.1562084556

> <CNNaffinity>
7.0793638229

> <CNN_VS>
1.1058565378

> <CNNaffinity_variance>
1.0349760056

$$$$
