/media/chris/experiments/cd1a-new-docking/inputs/ligands/7ryn_ligand.pdb


 68 68  0  0  0  0  0  0  0  0999 V2000
  -33.7859   61.1028   63.0694 C   0  0  0  0  0  0  0  0  0  0  0  0
  -35.1451   61.2842   63.5704 N   0  0  0  0  0  0  0  0  0  0  0  0
  -34.6306   61.0170   65.7457 O   0  0  0  0  0  0  0  0  0  0  0  0
  -35.4616   61.2274   64.8668 C   0  0  0  0  0  0  0  0  0  0  0  0
  -35.8640   61.4568   62.9204 H   0  0  0  0  0  0  0  0  0  0  0  0
  -36.9178   61.4471   65.1931 C   0  0  0  0  0  0  0  0  0  0  0  0
  -37.6703   60.1418   65.4175 C   0  0  0  0  0  0  0  0  0  0  0  0
  -39.1250   60.2214   64.9835 C   0  0  0  0  0  0  0  0  0  0  0  0
  -40.0919   59.5456   65.9416 C   0  0  0  0  0  0  0  0  0  0  0  0
  -41.2258   60.4460   66.4084 C   0  0  0  0  0  0  0  0  0  0  0  0
  -42.4948   59.6958   66.7928 C   0  0  0  0  0  0  0  0  0  0  0  0
  -42.3956   58.1858   66.6184 C   0  0  0  0  0  0  0  0  0  0  0  0
  -43.6801   57.5181   66.1344 C   0  0  0  0  0  0  0  0  0  0  0  0
  -44.9427   58.3398   66.3895 C   0  0  0  0  0  0  0  0  0  0  0  0
  -46.1561   57.9171   65.5618 C   0  0  0  0  0  0  0  0  0  0  0  0
  -47.2032   57.1462   66.3661 C   0  0  0  0  0  0  0  0  0  0  0  0
  -48.6530   57.5445   66.0907 C   0  0  0  0  0  0  0  0  0  0  0  0
  -48.8260   58.7408   65.1509 C   0  0  0  0  0  0  0  0  0  0  0  0
  -50.0440   59.5597   65.4673 C   0  0  0  0  0  0  0  0  0  0  0  0
  -51.0804   59.7529   64.6708 C   0  0  0  0  0  0  0  0  0  0  0  0
  -51.2500   59.1906   63.2920 C   0  0  0  0  0  0  0  0  0  0  0  0
  -50.2752   59.7734   62.2665 C   0  0  0  0  0  0  0  0  0  0  0  0
  -49.3804   58.7232   61.6219 C   0  0  0  0  0  0  0  0  0  0  0  0
  -50.1441   57.7250   60.7589 C   0  0  0  0  0  0  0  0  0  0  0  0
  -49.6656   57.6441   59.3139 C   0  0  0  0  0  0  0  0  0  0  0  0
  -48.1591   57.4756   59.1756 C   0  0  0  0  0  0  0  0  0  0  0  0
  -47.7097   56.9967   57.8044 C   0  0  0  0  0  0  0  0  0  0  0  0
  -46.8601   58.0163   57.0734 C   0  0  0  0  0  0  0  0  0  0  0  0
  -32.0184   59.4787   62.7992 O   0  0  0  0  0  0  0  0  0  0  0  0
  -33.3495   59.6464   63.2956 C   0  0  0  0  0  0  0  0  0  0  0  0
  -31.4277   60.1109   63.2377 H   0  0  0  0  0  0  0  0  0  0  0  0
  -34.2914   58.6842   62.6391 C   0  0  0  0  0  0  0  0  0  0  0  0
  -35.2654   58.0400   63.2510 C   0  0  0  0  0  0  0  0  0  0  0  0
  -36.1984   57.0972   62.5645 C   0  0  0  0  0  0  0  0  0  0  0  0
  -37.6427   57.5955   62.6461 C   0  0  0  0  0  0  0  0  0  0  0  0
  -37.9073   58.8703   61.8615 C   0  0  0  0  0  0  0  0  0  0  0  0
  -38.2931   58.6418   60.4100 C   0  0  0  0  0  0  0  0  0  0  0  0
  -39.6257   59.2637   60.0187 C   0  0  0  0  0  0  0  0  0  0  0  0
  -40.6952   58.2425   59.6629 C   0  0  0  0  0  0  0  0  0  0  0  0
  -40.9589   57.2253   60.7592 C   0  0  0  0  0  0  0  0  0  0  0  0
  -42.2069   57.5057   61.5755 C   0  0  0  0  0  0  0  0  0  0  0  0
  -41.9307   58.1690   62.9139 C   0  0  0  0  0  0  0  0  0  0  0  0
  -42.6321   59.5054   63.0699 C   0  0  0  0  0  0  0  0  0  0  0  0
  -41.8212   60.6972   62.5980 C   0  0  0  0  0  0  0  0  0  0  0  0
  -42.4200   62.0194   63.0358 C   0  0  0  0  0  0  0  0  0  0  0  0
  -43.1958   62.7006   61.9272 C   0  0  0  0  0  0  0  0  0  0  0  0
  -32.8497   62.0875   63.7391 C   0  0  0  0  0  0  0  0  0  0  0  0
  -31.6560   62.1799   62.9535 O   0  0  0  0  0  0  0  0  0  0  0  0
  -31.0247   63.5022   60.5673 O   0  0  0  0  0  0  0  0  0  0  0  0
  -32.6533   66.5539   63.1280 O   0  0  0  0  0  0  0  0  0  0  0  0
  -31.4375   64.1495   64.1371 O   0  0  0  0  0  0  0  0  0  0  0  0
  -31.0468   63.4378   62.9777 C   0  0  0  0  0  0  0  0  0  0  0  0
  -31.4743   64.1931   61.7261 C   0  0  0  0  0  0  0  0  0  0  0  0
  -30.9029   65.6051   61.7528 C   0  0  0  0  0  0  0  0  0  0  0  0
  -31.2520   66.3113   63.0546 C   0  0  0  0  0  0  0  0  0  0  0  0
  -30.8261   65.4456   64.2377 C   0  0  0  0  0  0  0  0  0  0  0  0
  -31.3946   62.6055   60.5616 H   0  0  0  0  0  0  0  0  0  0  0  0
  -32.9259   67.1040   62.3769 H   0  0  0  0  0  0  0  0  0  0  0  0
  -32.5255   65.5637   65.9660 O   0  0  0  0  0  0  0  0  0  0  0  0
  -31.2364   66.0205   65.5733 C   0  0  0  0  0  0  0  0  0  0  0  0
  -32.7578   65.9502   66.8248 H   0  0  0  0  0  0  0  0  0  0  0  0
  -31.5553   66.2889   60.6365 O   0  0  0  0  0  0  0  0  0  0  0  0
  -30.6886   65.8911   58.4234 O   0  0  0  0  0  0  0  0  0  0  0  0
  -29.4731   67.4052   60.0189 O   0  0  0  0  0  0  0  0  0  0  0  0
  -31.5312   68.0348   59.0168 O   0  0  0  0  0  0  0  0  0  0  0  0
  -30.6504   66.8551   59.4600 S   0  0  0  0  0  0  0  0  0  0  0  0
  -30.1412   65.1292   58.6701 H   0  0  0  0  0  0  0  0  0  0  0  0
  -32.3522   67.6965   58.6263 H   0  0  0  0  0  0  0  0  0  0  0  0
  2  1  1  0  0  0
  2  4  1  0  0  0
  2  5  1  0  0  0
 47 48  1  0  0  0
 47  1  1  0  0  0
 48 52  1  0  0  0
  1 30  1  0  0  0
 29 30  1  0  0  0
 29 31  1  0  0  0
 30 32  1  0  0  0
  3  4  2  0  0  0
 32 33  2  0  0  0
 49 53  1  0  0  0
 49 57  1  0  0  0
 33 34  1  0  0  0
 62 54  1  0  0  0
 62 66  1  0  0  0
 34 35  1  0  0  0
 50 55  1  0  0  0
 50 58  1  0  0  0
 35 36  1  0  0  0
 51 52  1  0  0  0
 51 56  1  0  0  0
 36 37  1  0  0  0
 59 60  1  0  0  0
 59 61  1  0  0  0
 37 38  1  0  0  0
 63 66  1  0  0  0
 63 67  1  0  0  0
 38 39  1  0  0  0
 64 66  1  0  0  0
 39 40  1  0  0  0
 65 66  1  0  0  0
 65 68  1  0  0  0
 40 41  1  0  0  0
 41 42  1  0  0  0
 42 43  1  0  0  0
 43 44  1  0  0  0
 44 45  1  0  0  0
 45 46  1  0  0  0
  4  6  1  0  0  0
  6  7  1  0  0  0
  7  8  1  0  0  0
  8  9  1  0  0  0
  9 10  1  0  0  0
 10 11  1  0  0  0
 11 12  1  0  0  0
 12 13  1  0  0  0
 13 14  1  0  0  0
 14 15  1  0  0  0
 15 16  1  0  0  0
 16 17  1  0  0  0
 17 18  1  0  0  0
 18 19  1  0  0  0
 19 20  2  0  0  0
 20 21  1  0  0  0
 21 22  1  0  0  0
 22 23  1  0  0  0
 23 24  1  0  0  0
 24 25  1  0  0  0
 25 26  1  0  0  0
 26 27  1  0  0  0
 27 28  1  0  0  0
 52 53  1  0  0  0
 53 54  1  0  0  0
 54 55  1  0  0  0
 55 56  1  0  0  0
 56 60  1  0  0  0
M  CHG 1  64  -1
M  END
> <minimizedAffinity>
-9.19023

> <CNNscore>
0.3157317936

> <CNNaffinity>
7.1411528587

> <CNN_VS>
2.2546889782

> <CNNaffinity_variance>
1.3144309521

$$$$
/media/chris/experiments/cd1a-new-docking/inputs/ligands/7ryn_ligand.pdb


 68 68  0  0  0  0  0  0  0  0999 V2000
  -34.5981   59.5694   62.9285 C   0  0  0  0  0  0  0  0  0  0  0  0
  -35.7607   58.8151   62.4695 N   0  0  0  0  0  0  0  0  0  0  0  0
  -35.7262   57.2971   64.1316 O   0  0  0  0  0  0  0  0  0  0  0  0
  -36.2338   57.7398   63.1052 C   0  0  0  0  0  0  0  0  0  0  0  0
  -36.2188   59.1139   61.6509 H   0  0  0  0  0  0  0  0  0  0  0  0
  -37.4488   57.0968   62.4843 C   0  0  0  0  0  0  0  0  0  0  0  0
  -38.1584   58.0170   61.4993 C   0  0  0  0  0  0  0  0  0  0  0  0
  -39.6696   57.8545   61.5292 C   0  0  0  0  0  0  0  0  0  0  0  0
  -40.2070   57.3301   62.8505 C   0  0  0  0  0  0  0  0  0  0  0  0
  -41.2282   56.2126   62.6995 C   0  0  0  0  0  0  0  0  0  0  0  0
  -41.6738   55.5975   64.0200 C   0  0  0  0  0  0  0  0  0  0  0  0
  -42.2460   56.6056   65.0082 C   0  0  0  0  0  0  0  0  0  0  0  0
  -43.4849   57.3465   64.5117 C   0  0  0  0  0  0  0  0  0  0  0  0
  -44.3011   58.0072   65.6216 C   0  0  0  0  0  0  0  0  0  0  0  0
  -45.7425   58.3424   65.2393 C   0  0  0  0  0  0  0  0  0  0  0  0
  -46.7038   58.3416   66.4281 C   0  0  0  0  0  0  0  0  0  0  0  0
  -48.1872   58.3791   66.0610 C   0  0  0  0  0  0  0  0  0  0  0  0
  -48.8024   59.7799   66.0043 C   0  0  0  0  0  0  0  0  0  0  0  0
  -48.4621   60.5157   64.7406 C   0  0  0  0  0  0  0  0  0  0  0  0
  -49.1829   60.5360   63.6335 C   0  0  0  0  0  0  0  0  0  0  0  0
  -50.4875   59.8307   63.4175 C   0  0  0  0  0  0  0  0  0  0  0  0
  -50.3332   58.3896   62.9266 C   0  0  0  0  0  0  0  0  0  0  0  0
  -49.3932   58.2566   61.7358 C   0  0  0  0  0  0  0  0  0  0  0  0
  -49.9775   57.4341   60.5929 C   0  0  0  0  0  0  0  0  0  0  0  0
  -49.0706   56.3161   60.0918 C   0  0  0  0  0  0  0  0  0  0  0  0
  -47.8638   56.8111   59.3071 C   0  0  0  0  0  0  0  0  0  0  0  0
  -48.2158   57.6212   58.0696 C   0  0  0  0  0  0  0  0  0  0  0  0
  -46.9970   58.0373   57.2713 C   0  0  0  0  0  0  0  0  0  0  0  0
  -32.8695   58.3151   64.0570 O   0  0  0  0  0  0  0  0  0  0  0  0
  -33.3350   58.7092   62.7630 C   0  0  0  0  0  0  0  0  0  0  0  0
  -33.5761   57.8430   64.5248 H   0  0  0  0  0  0  0  0  0  0  0  0
  -32.2676   59.4427   62.0102 C   0  0  0  0  0  0  0  0  0  0  0  0
  -31.1836   59.9657   62.5481 C   0  0  0  0  0  0  0  0  0  0  0  0
  -30.1292   60.6791   61.7673 C   0  0  0  0  0  0  0  0  0  0  0  0
  -29.5130   61.8158   62.5855 C   0  0  0  0  0  0  0  0  0  0  0  0
  -29.6098   63.1818   61.9258 C   0  0  0  0  0  0  0  0  0  0  0  0
  -30.8939   63.4095   61.1464 C   0  0  0  0  0  0  0  0  0  0  0  0
  -31.1818   64.8725   60.8422 C   0  0  0  0  0  0  0  0  0  0  0  0
  -29.9823   65.6299   60.2939 C   0  0  0  0  0  0  0  0  0  0  0  0
  -30.0345   67.1260   60.5491 C   0  0  0  0  0  0  0  0  0  0  0  0
  -30.5797   67.5015   61.9145 C   0  0  0  0  0  0  0  0  0  0  0  0
  -29.5253   67.5457   63.0072 C   0  0  0  0  0  0  0  0  0  0  0  0
  -30.0117   66.9712   64.3247 C   0  0  0  0  0  0  0  0  0  0  0  0
  -29.8315   65.4711   64.4583 C   0  0  0  0  0  0  0  0  0  0  0  0
  -31.0126   64.8002   65.1317 C   0  0  0  0  0  0  0  0  0  0  0  0
  -31.9670   65.7966   65.7570 C   0  0  0  0  0  0  0  0  0  0  0  0
  -34.7999   60.0134   64.3625 C   0  0  0  0  0  0  0  0  0  0  0  0
  -33.6166   60.6948   64.7939 O   0  0  0  0  0  0  0  0  0  0  0  0
  -33.6091   62.6250   62.7653 O   0  0  0  0  0  0  0  0  0  0  0  0
  -36.8743   63.7357   65.3398 O   0  0  0  0  0  0  0  0  0  0  0  0
  -34.6295   62.1790   66.2428 O   0  0  0  0  0  0  0  0  0  0  0  0
  -33.8085   62.0458   65.0976 C   0  0  0  0  0  0  0  0  0  0  0  0
  -34.4674   62.7104   63.8959 C   0  0  0  0  0  0  0  0  0  0  0  0
  -34.7759   64.1677   64.2148 C   0  0  0  0  0  0  0  0  0  0  0  0
  -35.5723   64.2879   65.5058 C   0  0  0  0  0  0  0  0  0  0  0  0
  -34.8475   63.5462   66.6262 C   0  0  0  0  0  0  0  0  0  0  0  0
  -33.4201   61.6934   62.5724 H   0  0  0  0  0  0  0  0  0  0  0  0
  -37.3365   64.2057   64.6282 H   0  0  0  0  0  0  0  0  0  0  0  0
  -36.5790   62.4633   67.9368 O   0  0  0  0  0  0  0  0  0  0  0  0
  -35.6250   63.5189   67.9212 C   0  0  0  0  0  0  0  0  0  0  0  0
  -37.0594   62.4739   68.7794 H   0  0  0  0  0  0  0  0  0  0  0  0
  -35.5940   64.6264   63.0924 O   0  0  0  0  0  0  0  0  0  0  0  0
  -34.7658   64.5254   60.8316 O   0  0  0  0  0  0  0  0  0  0  0  0
  -33.8323   66.1952   62.4613 O   0  0  0  0  0  0  0  0  0  0  0  0
  -36.0221   66.4059   61.5685 O   0  0  0  0  0  0  0  0  0  0  0  0
  -34.8881   65.4276   61.9162 S   0  0  0  0  0  0  0  0  0  0  0  0
  -34.0562   63.8907   61.0175 H   0  0  0  0  0  0  0  0  0  0  0  0
  -36.7681   65.9148   61.1901 H   0  0  0  0  0  0  0  0  0  0  0  0
  2  1  1  0  0  0
  2  4  1  0  0  0
  2  5  1  0  0  0
 47 48  1  0  0  0
 47  1  1  0  0  0
 48 52  1  0  0  0
  1 30  1  0  0  0
 29 30  1  0  0  0
 29 31  1  0  0  0
 30 32  1  0  0  0
  3  4  2  0  0  0
 32 33  2  0  0  0
 49 53  1  0  0  0
 49 57  1  0  0  0
 33 34  1  0  0  0
 62 54  1  0  0  0
 62 66  1  0  0  0
 34 35  1  0  0  0
 50 55  1  0  0  0
 50 58  1  0  0  0
 35 36  1  0  0  0
 51 52  1  0  0  0
 51 56  1  0  0  0
 36 37  1  0  0  0
 59 60  1  0  0  0
 59 61  1  0  0  0
 37 38  1  0  0  0
 63 66  1  0  0  0
 63 67  1  0  0  0
 38 39  1  0  0  0
 64 66  1  0  0  0
 39 40  1  0  0  0
 65 66  1  0  0  0
 65 68  1  0  0  0
 40 41  1  0  0  0
 41 42  1  0  0  0
 42 43  1  0  0  0
 43 44  1  0  0  0
 44 45  1  0  0  0
 45 46  1  0  0  0
  4  6  1  0  0  0
  6  7  1  0  0  0
  7  8  1  0  0  0
  8  9  1  0  0  0
  9 10  1  0  0  0
 10 11  1  0  0  0
 11 12  1  0  0  0
 12 13  1  0  0  0
 13 14  1  0  0  0
 14 15  1  0  0  0
 15 16  1  0  0  0
 16 17  1  0  0  0
 17 18  1  0  0  0
 18 19  1  0  0  0
 19 20  2  0  0  0
 20 21  1  0  0  0
 21 22  1  0  0  0
 22 23  1  0  0  0
 23 24  1  0  0  0
 24 25  1  0  0  0
 25 26  1  0  0  0
 26 27  1  0  0  0
 27 28  1  0  0  0
 52 53  1  0  0  0
 53 54  1  0  0  0
 54 55  1  0  0  0
 55 56  1  0  0  0
 56 60  1  0  0  0
M  CHG 1  64  -1
M  END
> <minimizedAffinity>
-8.64564

> <CNNscore>
0.2017032951

> <CNNaffinity>
6.9385008812

> <CNN_VS>
1.3995184898

> <CNNaffinity_variance>
0.2678162456

$$$$
/media/chris/experiments/cd1a-new-docking/inputs/ligands/7ryn_ligand.pdb


 68 68  0  0  0  0  0  0  0  0999 V2000
  -40.3140   60.1874   64.8390 C   0  0  0  0  0  0  0  0  0  0  0  0
  -40.6344   58.8934   64.2439 N   0  0  0  0  0  0  0  0  0  0  0  0
  -39.1442   57.7078   65.4446 O   0  0  0  0  0  0  0  0  0  0  0  0
  -40.0262   57.7563   64.5919 C   0  0  0  0  0  0  0  0  0  0  0  0
  -41.3335   58.8571   63.5516 H   0  0  0  0  0  0  0  0  0  0  0  0
  -40.4975   56.5174   63.8720 C   0  0  0  0  0  0  0  0  0  0  0  0
  -41.4645   55.6879   64.7071 C   0  0  0  0  0  0  0  0  0  0  0  0
  -42.8079   56.3726   64.9013 C   0  0  0  0  0  0  0  0  0  0  0  0
  -42.9239   57.1432   66.2059 C   0  0  0  0  0  0  0  0  0  0  0  0
  -43.6326   58.4823   66.0686 C   0  0  0  0  0  0  0  0  0  0  0  0
  -44.2737   58.7073   64.7050 C   0  0  0  0  0  0  0  0  0  0  0  0
  -45.7953   58.6372   64.7196 C   0  0  0  0  0  0  0  0  0  0  0  0
  -46.3669   57.4291   65.4571 C   0  0  0  0  0  0  0  0  0  0  0  0
  -47.1362   57.7834   66.7288 C   0  0  0  0  0  0  0  0  0  0  0  0
  -47.4111   59.2757   66.9123 C   0  0  0  0  0  0  0  0  0  0  0  0
  -48.7230   59.7359   66.2762 C   0  0  0  0  0  0  0  0  0  0  0  0
  -49.7569   58.6320   66.0545 C   0  0  0  0  0  0  0  0  0  0  0  0
  -51.1117   59.1134   65.5280 C   0  0  0  0  0  0  0  0  0  0  0  0
  -50.9832   60.1078   64.4104 C   0  0  0  0  0  0  0  0  0  0  0  0
  -50.8600   59.8236   63.1260 C   0  0  0  0  0  0  0  0  0  0  0  0
  -50.8268   58.4508   62.5257 C   0  0  0  0  0  0  0  0  0  0  0  0
  -49.4293   57.8285   62.4917 C   0  0  0  0  0  0  0  0  0  0  0  0
  -48.7417   57.9661   61.1399 C   0  0  0  0  0  0  0  0  0  0  0  0
  -49.7141   58.1835   59.9859 C   0  0  0  0  0  0  0  0  0  0  0  0
  -49.2388   57.6306   58.6473 C   0  0  0  0  0  0  0  0  0  0  0  0
  -47.9025   58.1978   58.1895 C   0  0  0  0  0  0  0  0  0  0  0  0
  -46.9621   57.1663   57.5868 C   0  0  0  0  0  0  0  0  0  0  0  0
  -47.6435   55.8433   57.3015 C   0  0  0  0  0  0  0  0  0  0  0  0
  -41.8097   61.7557   63.7723 O   0  0  0  0  0  0  0  0  0  0  0  0
  -40.4581   61.2873   63.7749 C   0  0  0  0  0  0  0  0  0  0  0  0
  -42.0446   62.0704   64.6593 H   0  0  0  0  0  0  0  0  0  0  0  0
  -40.0598   60.7924   62.4183 C   0  0  0  0  0  0  0  0  0  0  0  0
  -40.8760   60.2381   61.5439 C   0  0  0  0  0  0  0  0  0  0  0  0
  -40.4508   59.7677   60.1917 C   0  0  0  0  0  0  0  0  0  0  0  0
  -38.9398   59.5320   60.1410 C   0  0  0  0  0  0  0  0  0  0  0  0
  -38.4908   58.2281   60.7804 C   0  0  0  0  0  0  0  0  0  0  0  0
  -37.0519   58.2344   61.2679 C   0  0  0  0  0  0  0  0  0  0  0  0
  -36.8561   57.5773   62.6264 C   0  0  0  0  0  0  0  0  0  0  0  0
  -35.4728   57.7993   63.2185 C   0  0  0  0  0  0  0  0  0  0  0  0
  -34.3467   57.2319   62.3722 C   0  0  0  0  0  0  0  0  0  0  0  0
  -32.9706   57.7503   62.7465 C   0  0  0  0  0  0  0  0  0  0  0  0
  -32.8971   59.2620   62.8775 C   0  0  0  0  0  0  0  0  0  0  0  0
  -31.4750   59.7909   62.8567 C   0  0  0  0  0  0  0  0  0  0  0  0
  -31.1114   60.5603   61.6011 C   0  0  0  0  0  0  0  0  0  0  0  0
  -29.6669   61.0205   61.5979 C   0  0  0  0  0  0  0  0  0  0  0  0
  -29.4506   62.2599   62.4417 C   0  0  0  0  0  0  0  0  0  0  0  0
  -38.9230   60.1538   65.4375 C   0  0  0  0  0  0  0  0  0  0  0  0
  -37.9808   60.4670   64.4055 O   0  0  0  0  0  0  0  0  0  0  0  0
  -35.9136   61.1078   62.6287 O   0  0  0  0  0  0  0  0  0  0  0  0
  -36.5023   64.6679   64.9743 O   0  0  0  0  0  0  0  0  0  0  0  0
  -37.2163   62.0423   65.9094 O   0  0  0  0  0  0  0  0  0  0  0  0
  -36.8614   61.1797   64.8448 C   0  0  0  0  0  0  0  0  0  0  0  0
  -36.3242   61.9856   63.6694 C   0  0  0  0  0  0  0  0  0  0  0  0
  -35.1534   62.8476   64.1246 C   0  0  0  0  0  0  0  0  0  0  0  0
  -35.5323   63.6895   65.3341 C   0  0  0  0  0  0  0  0  0  0  0  0
  -36.1035   62.7892   66.4268 C   0  0  0  0  0  0  0  0  0  0  0  0
  -36.6667   60.5649   62.3477 H   0  0  0  0  0  0  0  0  0  0  0  0
  -36.1413   65.2411   64.2800 H   0  0  0  0  0  0  0  0  0  0  0  0
  -36.4736   62.8051   68.8250 O   0  0  0  0  0  0  0  0  0  0  0  0
  -36.6110   63.5570   67.6249 C   0  0  0  0  0  0  0  0  0  0  0  0
  -36.8076   63.3252   69.5725 H   0  0  0  0  0  0  0  0  0  0  0  0
  -34.8760   63.7245   62.9872 O   0  0  0  0  0  0  0  0  0  0  0  0
  -33.0132   65.2527   62.9514 O   0  0  0  0  0  0  0  0  0  0  0  0
  -33.1923   63.4159   61.2457 O   0  0  0  0  0  0  0  0  0  0  0  0
  -32.6818   62.9672   63.5204 O   0  0  0  0  0  0  0  0  0  0  0  0
  -33.3651   63.9420   62.5473 S   0  0  0  0  0  0  0  0  0  0  0  0
  -33.4287   65.8968   62.3569 H   0  0  0  0  0  0  0  0  0  0  0  0
  -32.7792   63.2951   64.4281 H   0  0  0  0  0  0  0  0  0  0  0  0
  2  1  1  0  0  0
  2  4  1  0  0  0
  2  5  1  0  0  0
 47 48  1  0  0  0
 47  1  1  0  0  0
 48 52  1  0  0  0
  1 30  1  0  0  0
 29 30  1  0  0  0
 29 31  1  0  0  0
 30 32  1  0  0  0
  3  4  2  0  0  0
 32 33  2  0  0  0
 49 53  1  0  0  0
 49 57  1  0  0  0
 33 34  1  0  0  0
 62 54  1  0  0  0
 62 66  1  0  0  0
 34 35  1  0  0  0
 50 55  1  0  0  0
 50 58  1  0  0  0
 35 36  1  0  0  0
 51 52  1  0  0  0
 51 56  1  0  0  0
 36 37  1  0  0  0
 59 60  1  0  0  0
 59 61  1  0  0  0
 37 38  1  0  0  0
 63 66  1  0  0  0
 63 67  1  0  0  0
 38 39  1  0  0  0
 64 66  1  0  0  0
 39 40  1  0  0  0
 65 66  1  0  0  0
 65 68  1  0  0  0
 40 41  1  0  0  0
 41 42  1  0  0  0
 42 43  1  0  0  0
 43 44  1  0  0  0
 44 45  1  0  0  0
 45 46  1  0  0  0
  4  6  1  0  0  0
  6  7  1  0  0  0
  7  8  1  0  0  0
  8  9  1  0  0  0
  9 10  1  0  0  0
 10 11  1  0  0  0
 11 12  1  0  0  0
 12 13  1  0  0  0
 13 14  1  0  0  0
 14 15  1  0  0  0
 15 16  1  0  0  0
 16 17  1  0  0  0
 17 18  1  0  0  0
 18 19  1  0  0  0
 19 20  2  0  0  0
 20 21  1  0  0  0
 21 22  1  0  0  0
 22 23  1  0  0  0
 23 24  1  0  0  0
 24 25  1  0  0  0
 25 26  1  0  0  0
 26 27  1  0  0  0
 27 28  1  0  0  0
 52 53  1  0  0  0
 53 54  1  0  0  0
 54 55  1  0  0  0
 55 56  1  0  0  0
 56 60  1  0  0  0
M  CHG 1  64  -1
M  END
> <minimizedAffinity>
-8.79195

> <CNNscore>
0.1487269253

> <CNNaffinity>
7.4018998146

> <CNN_VS>
1.1008617878

> <CNNaffinity_variance>
0.9105548859

$$$$
/media/chris/experiments/cd1a-new-docking/inputs/ligands/7ryn_ligand.pdb


 68 68  0  0  0  0  0  0  0  0999 V2000
  -33.7147   60.1281   62.8531 C   0  0  0  0  0  0  0  0  0  0  0  0
  -35.0619   60.6046   63.1518 N   0  0  0  0  0  0  0  0  0  0  0  0
  -34.8219   60.5978   65.3902 O   0  0  0  0  0  0  0  0  0  0  0  0
  -35.5103   60.8022   64.3944 C   0  0  0  0  0  0  0  0  0  0  0  0
  -35.6701   60.7895   62.4000 H   0  0  0  0  0  0  0  0  0  0  0  0
  -36.9282   61.3048   64.5042 C   0  0  0  0  0  0  0  0  0  0  0  0
  -37.7609   60.4955   65.4901 C   0  0  0  0  0  0  0  0  0  0  0  0
  -39.2143   60.3671   65.0632 C   0  0  0  0  0  0  0  0  0  0  0  0
  -40.1076   59.7155   66.1059 C   0  0  0  0  0  0  0  0  0  0  0  0
  -41.3654   60.5108   66.4221 C   0  0  0  0  0  0  0  0  0  0  0  0
  -42.4500   59.7023   67.1227 C   0  0  0  0  0  0  0  0  0  0  0  0
  -42.4392   58.2203   66.7708 C   0  0  0  0  0  0  0  0  0  0  0  0
  -43.8082   57.6419   66.4222 C   0  0  0  0  0  0  0  0  0  0  0  0
  -44.9572   58.6405   66.5530 C   0  0  0  0  0  0  0  0  0  0  0  0
  -46.1421   58.3735   65.6252 C   0  0  0  0  0  0  0  0  0  0  0  0
  -46.9198   57.1059   65.9801 C   0  0  0  0  0  0  0  0  0  0  0  0
  -48.4264   57.2979   66.1528 C   0  0  0  0  0  0  0  0  0  0  0  0
  -48.9110   58.7447   66.0261 C   0  0  0  0  0  0  0  0  0  0  0  0
  -50.3240   58.8451   65.5285 C   0  0  0  0  0  0  0  0  0  0  0  0
  -50.7022   58.8911   64.2633 C   0  0  0  0  0  0  0  0  0  0  0  0
  -49.7965   58.8492   63.0700 C   0  0  0  0  0  0  0  0  0  0  0  0
  -50.3519   59.5885   61.8508 C   0  0  0  0  0  0  0  0  0  0  0  0
  -49.5556   59.3337   60.5779 C   0  0  0  0  0  0  0  0  0  0  0  0
  -49.4348   57.8553   60.2257 C   0  0  0  0  0  0  0  0  0  0  0  0
  -48.0867   57.4546   59.6377 C   0  0  0  0  0  0  0  0  0  0  0  0
  -48.1018   56.1050   58.9337 C   0  0  0  0  0  0  0  0  0  0  0  0
  -47.7530   56.1704   57.4553 C   0  0  0  0  0  0  0  0  0  0  0  0
  -47.1505   57.5004   57.0503 C   0  0  0  0  0  0  0  0  0  0  0  0
  -32.4474   58.0963   62.5363 O   0  0  0  0  0  0  0  0  0  0  0  0
  -33.6308   58.6212   63.1448 C   0  0  0  0  0  0  0  0  0  0  0  0
  -31.6729   58.5777   62.8671 H   0  0  0  0  0  0  0  0  0  0  0  0
  -34.8495   57.9002   62.6563 C   0  0  0  0  0  0  0  0  0  0  0  0
  -35.8158   57.4377   63.4248 C   0  0  0  0  0  0  0  0  0  0  0  0
  -37.0270   56.7352   62.9054 C   0  0  0  0  0  0  0  0  0  0  0  0
  -38.2721   57.6147   63.0371 C   0  0  0  0  0  0  0  0  0  0  0  0
  -38.3161   58.7820   62.0645 C   0  0  0  0  0  0  0  0  0  0  0  0
  -38.0588   58.3991   60.6170 C   0  0  0  0  0  0  0  0  0  0  0  0
  -38.7568   59.2971   59.6060 C   0  0  0  0  0  0  0  0  0  0  0  0
  -40.2746   59.2411   59.6848 C   0  0  0  0  0  0  0  0  0  0  0  0
  -40.8260   57.8392   59.8771 C   0  0  0  0  0  0  0  0  0  0  0  0
  -42.0409   57.7718   60.7838 C   0  0  0  0  0  0  0  0  0  0  0  0
  -41.7387   57.2557   62.1802 C   0  0  0  0  0  0  0  0  0  0  0  0
  -41.8595   58.3271   63.2479 C   0  0  0  0  0  0  0  0  0  0  0  0
  -42.7526   59.4925   62.8674 C   0  0  0  0  0  0  0  0  0  0  0  0
  -41.9743   60.7743   62.6448 C   0  0  0  0  0  0  0  0  0  0  0  0
  -42.8736   61.9890   62.5423 C   0  0  0  0  0  0  0  0  0  0  0  0
  -32.6959   60.9188   63.6477 C   0  0  0  0  0  0  0  0  0  0  0  0
  -32.3059   62.0581   62.8727 O   0  0  0  0  0  0  0  0  0  0  0  0
  -33.6524   63.9938   61.3624 O   0  0  0  0  0  0  0  0  0  0  0  0
  -35.5947   64.0360   65.2028 O   0  0  0  0  0  0  0  0  0  0  0  0
  -32.8873   63.1373   64.8286 O   0  0  0  0  0  0  0  0  0  0  0  0
  -32.6541   63.2871   63.4406 C   0  0  0  0  0  0  0  0  0  0  0  0
  -33.9131   63.7883   62.7452 C   0  0  0  0  0  0  0  0  0  0  0  0
  -34.3804   65.0859   63.3922 C   0  0  0  0  0  0  0  0  0  0  0  0
  -34.5245   64.9246   64.8984 C   0  0  0  0  0  0  0  0  0  0  0  0
  -33.2265   64.3714   65.4812 C   0  0  0  0  0  0  0  0  0  0  0  0
  -33.3559   63.1615   60.9621 H   0  0  0  0  0  0  0  0  0  0  0  0
  -36.4205   64.3859   64.8332 H   0  0  0  0  0  0  0  0  0  0  0  0
  -33.8213   62.7647   67.1999 O   0  0  0  0  0  0  0  0  0  0  0  0
  -33.3179   64.0737   66.9596 C   0  0  0  0  0  0  0  0  0  0  0  0
  -33.8672   62.6063   68.1557 H   0  0  0  0  0  0  0  0  0  0  0  0
  -35.6936   65.3417   62.8010 O   0  0  0  0  0  0  0  0  0  0  0  0
  -36.7098   67.2366   61.7131 O   0  0  0  0  0  0  0  0  0  0  0  0
  -35.7953   65.3258   60.3612 O   0  0  0  0  0  0  0  0  0  0  0  0
  -34.3732   66.8429   61.5067 O   0  0  0  0  0  0  0  0  0  0  0  0
  -35.7714   66.2045   61.4694 S   0  0  0  0  0  0  0  0  0  0  0  0
  -37.6070   66.8683   61.6968 H   0  0  0  0  0  0  0  0  0  0  0  0
  -34.3173   67.4551   62.2571 H   0  0  0  0  0  0  0  0  0  0  0  0
  2  1  1  0  0  0
  2  4  1  0  0  0
  2  5  1  0  0  0
 47 48  1  0  0  0
 47  1  1  0  0  0
 48 52  1  0  0  0
  1 30  1  0  0  0
 29 30  1  0  0  0
 29 31  1  0  0  0
 30 32  1  0  0  0
  3  4  2  0  0  0
 32 33  2  0  0  0
 49 53  1  0  0  0
 49 57  1  0  0  0
 33 34  1  0  0  0
 62 54  1  0  0  0
 62 66  1  0  0  0
 34 35  1  0  0  0
 50 55  1  0  0  0
 50 58  1  0  0  0
 35 36  1  0  0  0
 51 52  1  0  0  0
 51 56  1  0  0  0
 36 37  1  0  0  0
 59 60  1  0  0  0
 59 61  1  0  0  0
 37 38  1  0  0  0
 63 66  1  0  0  0
 63 67  1  0  0  0
 38 39  1  0  0  0
 64 66  1  0  0  0
 39 40  1  0  0  0
 65 66  1  0  0  0
 65 68  1  0  0  0
 40 41  1  0  0  0
 41 42  1  0  0  0
 42 43  1  0  0  0
 43 44  1  0  0  0
 44 45  1  0  0  0
 45 46  1  0  0  0
  4  6  1  0  0  0
  6  7  1  0  0  0
  7  8  1  0  0  0
  8  9  1  0  0  0
  9 10  1  0  0  0
 10 11  1  0  0  0
 11 12  1  0  0  0
 12 13  1  0  0  0
 13 14  1  0  0  0
 14 15  1  0  0  0
 15 16  1  0  0  0
 16 17  1  0  0  0
 17 18  1  0  0  0
 18 19  1  0  0  0
 19 20  2  0  0  0
 20 21  1  0  0  0
 21 22  1  0  0  0
 22 23  1  0  0  0
 23 24  1  0  0  0
 24 25  1  0  0  0
 25 26  1  0  0  0
 26 27  1  0  0  0
 27 28  1  0  0  0
 52 53  1  0  0  0
 53 54  1  0  0  0
 54 55  1  0  0  0
 55 56  1  0  0  0
 56 60  1  0  0  0
M  CHG 1  64  -1
M  END
> <minimizedAffinity>
-8.52787

> <CNNscore>
0.1324462444

> <CNNaffinity>
7.3346567154

> <CNN_VS>
0.9714477062

> <CNNaffinity_variance>
1.3371645212

$$$$
/media/chris/experiments/cd1a-new-docking/inputs/ligands/7ryn_ligand.pdb


 68 68  0  0  0  0  0  0  0  0999 V2000
  -40.1960   59.6775   65.9072 C   0  0  0  0  0  0  0  0  0  0  0  0
  -40.1398   58.9639   64.6348 N   0  0  0  0  0  0  0  0  0  0  0  0
  -38.8453   57.2753   65.3703 O   0  0  0  0  0  0  0  0  0  0  0  0
  -39.4703   57.8206   64.4652 C   0  0  0  0  0  0  0  0  0  0  0  0
  -40.6190   59.3443   63.8636 H   0  0  0  0  0  0  0  0  0  0  0  0
  -39.5340   57.2266   63.0802 C   0  0  0  0  0  0  0  0  0  0  0  0
  -40.5023   56.0540   62.9907 C   0  0  0  0  0  0  0  0  0  0  0  0
  -41.9423   56.4607   63.2591 C   0  0  0  0  0  0  0  0  0  0  0  0
  -42.4446   56.0739   64.6402 C   0  0  0  0  0  0  0  0  0  0  0  0
  -43.1807   57.1922   65.3627 C   0  0  0  0  0  0  0  0  0  0  0  0
  -44.0531   58.0485   64.4536 C   0  0  0  0  0  0  0  0  0  0  0  0
  -45.4233   58.3692   65.0366 C   0  0  0  0  0  0  0  0  0  0  0  0
  -46.0452   57.2387   65.8524 C   0  0  0  0  0  0  0  0  0  0  0  0
  -46.8696   57.7146   67.0475 C   0  0  0  0  0  0  0  0  0  0  0  0
  -47.1040   59.2241   67.0993 C   0  0  0  0  0  0  0  0  0  0  0  0
  -48.4744   59.6461   66.5689 C   0  0  0  0  0  0  0  0  0  0  0  0
  -49.2547   58.5483   65.8461 C   0  0  0  0  0  0  0  0  0  0  0  0
  -50.7709   58.7564   65.8028 C   0  0  0  0  0  0  0  0  0  0  0  0
  -51.1739   59.9382   64.9689 C   0  0  0  0  0  0  0  0  0  0  0  0
  -51.3567   59.9414   63.6603 C   0  0  0  0  0  0  0  0  0  0  0  0
  -51.2015   58.7647   62.7453 C   0  0  0  0  0  0  0  0  0  0  0  0
  -50.0416   58.9035   61.7569 C   0  0  0  0  0  0  0  0  0  0  0  0
  -50.2646   58.1432   60.4563 C   0  0  0  0  0  0  0  0  0  0  0  0
  -50.0014   56.6465   60.5779 C   0  0  0  0  0  0  0  0  0  0  0  0
  -48.7210   56.1735   59.8993 C   0  0  0  0  0  0  0  0  0  0  0  0
  -47.9599   57.2822   59.1860 C   0  0  0  0  0  0  0  0  0  0  0  0
  -47.6036   56.9634   57.7427 C   0  0  0  0  0  0  0  0  0  0  0  0
  -46.9016   58.1090   57.0422 C   0  0  0  0  0  0  0  0  0  0  0  0
  -42.1686   60.5736   66.9751 O   0  0  0  0  0  0  0  0  0  0  0  0
  -41.3051   60.7401   65.8469 C   0  0  0  0  0  0  0  0  0  0  0  0
  -41.6484   60.6322   67.7919 H   0  0  0  0  0  0  0  0  0  0  0  0
  -42.0757   60.6552   64.5652 C   0  0  0  0  0  0  0  0  0  0  0  0
  -41.9680   61.4996   63.5585 C   0  0  0  0  0  0  0  0  0  0  0  0
  -42.7405   61.3792   62.2860 C   0  0  0  0  0  0  0  0  0  0  0  0
  -41.8512   60.8737   61.1481 C   0  0  0  0  0  0  0  0  0  0  0  0
  -41.8258   59.3609   61.0022 C   0  0  0  0  0  0  0  0  0  0  0  0
  -40.6446   58.8297   60.2080 C   0  0  0  0  0  0  0  0  0  0  0  0
  -39.5078   59.8284   60.0472 C   0  0  0  0  0  0  0  0  0  0  0  0
  -38.1392   59.1791   59.9109 C   0  0  0  0  0  0  0  0  0  0  0  0
  -37.7702   58.2787   61.0767 C   0  0  0  0  0  0  0  0  0  0  0  0
  -36.2758   58.1091   61.2780 C   0  0  0  0  0  0  0  0  0  0  0  0
  -35.8823   57.7625   62.7037 C   0  0  0  0  0  0  0  0  0  0  0  0
  -34.3811   57.6502   62.8944 C   0  0  0  0  0  0  0  0  0  0  0  0
  -33.7098   58.9325   63.3479 C   0  0  0  0  0  0  0  0  0  0  0  0
  -32.2285   58.9597   63.0261 C   0  0  0  0  0  0  0  0  0  0  0  0
  -31.8353   60.1700   62.2043 C   0  0  0  0  0  0  0  0  0  0  0  0
  -38.8442   60.2837   66.2230 C   0  0  0  0  0  0  0  0  0  0  0  0
  -38.3700   60.9610   65.0538 O   0  0  0  0  0  0  0  0  0  0  0  0
  -36.8510   61.1529   62.7093 O   0  0  0  0  0  0  0  0  0  0  0  0
  -35.7231   64.5875   65.0447 O   0  0  0  0  0  0  0  0  0  0  0  0
  -36.7917   62.1845   66.2115 O   0  0  0  0  0  0  0  0  0  0  0  0
  -37.0223   61.3285   65.1082 C   0  0  0  0  0  0  0  0  0  0  0  0
  -36.6744   62.0396   63.8070 C   0  0  0  0  0  0  0  0  0  0  0  0
  -35.2352   62.5364   63.8572 C   0  0  0  0  0  0  0  0  0  0  0  0
  -34.9879   63.3696   65.1062 C   0  0  0  0  0  0  0  0  0  0  0  0
  -35.4172   62.5816   66.3413 C   0  0  0  0  0  0  0  0  0  0  0  0
  -37.7701   60.8437   62.6880 H   0  0  0  0  0  0  0  0  0  0  0  0
  -35.4517   65.0897   64.2604 H   0  0  0  0  0  0  0  0  0  0  0  0
  -36.5743   63.8933   68.0234 O   0  0  0  0  0  0  0  0  0  0  0  0
  -35.3107   63.3776   67.6210 C   0  0  0  0  0  0  0  0  0  0  0  0
  -36.4709   64.3974   68.8455 H   0  0  0  0  0  0  0  0  0  0  0  0
  -35.0943   63.3812   62.6714 O   0  0  0  0  0  0  0  0  0  0  0  0
  -33.5682   63.9209   60.8863 O   0  0  0  0  0  0  0  0  0  0  0  0
  -32.7056   63.3544   63.1776 O   0  0  0  0  0  0  0  0  0  0  0  0
  -33.8289   65.3979   62.7323 O   0  0  0  0  0  0  0  0  0  0  0  0
  -33.6518   63.9332   62.2998 S   0  0  0  0  0  0  0  0  0  0  0  0
  -33.4555   63.0084   60.5770 H   0  0  0  0  0  0  0  0  0  0  0  0
  -34.4737   65.8309   62.1512 H   0  0  0  0  0  0  0  0  0  0  0  0
  2  1  1  0  0  0
  2  4  1  0  0  0
  2  5  1  0  0  0
 47 48  1  0  0  0
 47  1  1  0  0  0
 48 52  1  0  0  0
  1 30  1  0  0  0
 29 30  1  0  0  0
 29 31  1  0  0  0
 30 32  1  0  0  0
  3  4  2  0  0  0
 32 33  2  0  0  0
 49 53  1  0  0  0
 49 57  1  0  0  0
 33 34  1  0  0  0
 62 54  1  0  0  0
 62 66  1  0  0  0
 34 35  1  0  0  0
 50 55  1  0  0  0
 50 58  1  0  0  0
 35 36  1  0  0  0
 51 52  1  0  0  0
 51 56  1  0  0  0
 36 37  1  0  0  0
 59 60  1  0  0  0
 59 61  1  0  0  0
 37 38  1  0  0  0
 63 66  1  0  0  0
 63 67  1  0  0  0
 38 39  1  0  0  0
 64 66  1  0  0  0
 39 40  1  0  0  0
 65 66  1  0  0  0
 65 68  1  0  0  0
 40 41  1  0  0  0
 41 42  1  0  0  0
 42 43  1  0  0  0
 43 44  1  0  0  0
 44 45  1  0  0  0
 45 46  1  0  0  0
  4  6  1  0  0  0
  6  7  1  0  0  0
  7  8  1  0  0  0
  8  9  1  0  0  0
  9 10  1  0  0  0
 10 11  1  0  0  0
 11 12  1  0  0  0
 12 13  1  0  0  0
 13 14  1  0  0  0
 14 15  1  0  0  0
 15 16  1  0  0  0
 16 17  1  0  0  0
 17 18  1  0  0  0
 18 19  1  0  0  0
 19 20  2  0  0  0
 20 21  1  0  0  0
 21 22  1  0  0  0
 22 23  1  0  0  0
 23 24  1  0  0  0
 24 25  1  0  0  0
 25 26  1  0  0  0
 26 27  1  0  0  0
 27 28  1  0  0  0
 52 53  1  0  0  0
 53 54  1  0  0  0
 54 55  1  0  0  0
 55 56  1  0  0  0
 56 60  1  0  0  0
M  CHG 1  64  -1
M  END
> <minimizedAffinity>
-9.51270

> <CNNscore>
0.1309081018

> <CNNaffinity>
7.5601692200

> <CNN_VS>
0.9896873832

> <CNNaffinity_variance>
1.9138122797

$$$$
/media/chris/experiments/cd1a-new-docking/inputs/ligands/7ryn_ligand.pdb


 68 68  0  0  0  0  0  0  0  0999 V2000
  -36.0600   59.4996   63.2177 C   0  0  0  0  0  0  0  0  0  0  0  0
  -36.9618   60.0989   64.1969 N   0  0  0  0  0  0  0  0  0  0  0  0
  -37.6077   58.1588   65.1387 O   0  0  0  0  0  0  0  0  0  0  0  0
  -37.6643   59.3838   65.0797 C   0  0  0  0  0  0  0  0  0  0  0  0
  -37.0569   61.0787   64.2071 H   0  0  0  0  0  0  0  0  0  0  0  0
  -38.5372   60.1800   66.0174 C   0  0  0  0  0  0  0  0  0  0  0  0
  -39.9609   59.6430   66.0888 C   0  0  0  0  0  0  0  0  0  0  0  0
  -41.0010   60.7484   66.1746 C   0  0  0  0  0  0  0  0  0  0  0  0
  -42.1358   60.4531   67.1414 C   0  0  0  0  0  0  0  0  0  0  0  0
  -42.6579   59.0265   67.0599 C   0  0  0  0  0  0  0  0  0  0  0  0
  -44.1719   58.9275   66.9228 C   0  0  0  0  0  0  0  0  0  0  0  0
  -44.6627   57.5558   66.4780 C   0  0  0  0  0  0  0  0  0  0  0  0
  -46.0533   57.5538   65.8483 C   0  0  0  0  0  0  0  0  0  0  0  0
  -46.4956   58.9147   65.3127 C   0  0  0  0  0  0  0  0  0  0  0  0
  -47.9707   58.9965   64.9209 C   0  0  0  0  0  0  0  0  0  0  0  0
  -48.9170   58.4645   65.9975 C   0  0  0  0  0  0  0  0  0  0  0  0
  -50.3666   58.9339   65.8744 C   0  0  0  0  0  0  0  0  0  0  0  0
  -50.6007   60.0410   64.8430 C   0  0  0  0  0  0  0  0  0  0  0  0
  -51.5558   59.6348   63.7581 C   0  0  0  0  0  0  0  0  0  0  0  0
  -51.2422   59.3814   62.4998 C   0  0  0  0  0  0  0  0  0  0  0  0
  -49.8689   59.4454   61.9030 C   0  0  0  0  0  0  0  0  0  0  0  0
  -49.2675   58.0722   61.5962 C   0  0  0  0  0  0  0  0  0  0  0  0
  -48.8229   57.9197   60.1477 C   0  0  0  0  0  0  0  0  0  0  0  0
  -48.7268   56.4673   59.6942 C   0  0  0  0  0  0  0  0  0  0  0  0
  -47.4042   56.0990   59.0319 C   0  0  0  0  0  0  0  0  0  0  0  0
  -47.5038   55.9163   57.5239 C   0  0  0  0  0  0  0  0  0  0  0  0
  -47.7934   57.1983   56.7595 C   0  0  0  0  0  0  0  0  0  0  0  0
  -46.7918   58.2973   57.0512 C   0  0  0  0  0  0  0  0  0  0  0  0
  -35.4091   57.2069   62.8247 O   0  0  0  0  0  0  0  0  0  0  0  0
  -36.5418   58.0786   62.8840 C   0  0  0  0  0  0  0  0  0  0  0  0
  -34.9288   57.2431   63.6667 H   0  0  0  0  0  0  0  0  0  0  0  0
  -37.3091   58.0484   61.5978 C   0  0  0  0  0  0  0  0  0  0  0  0
  -38.0027   59.0554   61.1050 C   0  0  0  0  0  0  0  0  0  0  0  0
  -38.7458   58.9988   59.8108 C   0  0  0  0  0  0  0  0  0  0  0  0
  -40.0837   59.7343   59.9117 C   0  0  0  0  0  0  0  0  0  0  0  0
  -41.2973   58.8195   59.9373 C   0  0  0  0  0  0  0  0  0  0  0  0
  -40.9655   57.3459   60.1001 C   0  0  0  0  0  0  0  0  0  0  0  0
  -41.4774   56.7361   61.3969 C   0  0  0  0  0  0  0  0  0  0  0  0
  -40.6564   57.1203   62.6183 C   0  0  0  0  0  0  0  0  0  0  0  0
  -41.4642   57.8019   63.7088 C   0  0  0  0  0  0  0  0  0  0  0  0
  -42.9315   57.9851   63.3682 C   0  0  0  0  0  0  0  0  0  0  0  0
  -43.4110   59.4232   63.4662 C   0  0  0  0  0  0  0  0  0  0  0  0
  -42.3581   60.4301   63.0420 C   0  0  0  0  0  0  0  0  0  0  0  0
  -42.7394   61.2633   61.8333 C   0  0  0  0  0  0  0  0  0  0  0  0
  -42.8982   62.7338   62.1661 C   0  0  0  0  0  0  0  0  0  0  0  0
  -42.5758   63.0392   63.6144 C   0  0  0  0  0  0  0  0  0  0  0  0
  -34.6400   59.5095   63.7449 C   0  0  0  0  0  0  0  0  0  0  0  0
  -34.0190   60.7359   63.3435 O   0  0  0  0  0  0  0  0  0  0  0  0
  -31.6227   62.1845   63.3583 O   0  0  0  0  0  0  0  0  0  0  0  0
  -34.6171   64.9823   64.6730 O   0  0  0  0  0  0  0  0  0  0  0  0
  -34.9081   62.1335   64.9511 O   0  0  0  0  0  0  0  0  0  0  0  0
  -33.7182   61.6014   64.3992 C   0  0  0  0  0  0  0  0  0  0  0  0
  -32.8418   62.7221   63.8553 C   0  0  0  0  0  0  0  0  0  0  0  0
  -32.5604   63.7390   64.9542 C   0  0  0  0  0  0  0  0  0  0  0  0
  -33.8524   64.2179   65.5996 C   0  0  0  0  0  0  0  0  0  0  0  0
  -34.6717   63.0150   66.0605 C   0  0  0  0  0  0  0  0  0  0  0  0
  -31.8147   61.5391   62.6601 H   0  0  0  0  0  0  0  0  0  0  0  0
  -34.0982   65.7472   64.3789 H   0  0  0  0  0  0  0  0  0  0  0  0
  -36.1835   62.9545   67.9578 O   0  0  0  0  0  0  0  0  0  0  0  0
  -36.0254   63.3945   66.6139 C   0  0  0  0  0  0  0  0  0  0  0  0
  -37.0603   63.2135   68.2818 H   0  0  0  0  0  0  0  0  0  0  0  0
  -31.9149   64.8570   64.2665 O   0  0  0  0  0  0  0  0  0  0  0  0
  -30.7460   65.3784   66.3082 O   0  0  0  0  0  0  0  0  0  0  0  0
  -30.2799   66.6698   64.2034 O   0  0  0  0  0  0  0  0  0  0  0  0
  -29.5833   64.4159   64.4700 O   0  0  0  0  0  0  0  0  0  0  0  0
  -30.6013   65.4834   64.9035 S   0  0  0  0  0  0  0  0  0  0  0  0
  -31.3840   66.0402   66.6180 H   0  0  0  0  0  0  0  0  0  0  0  0
  -29.7717   63.5834   64.9310 H   0  0  0  0  0  0  0  0  0  0  0  0
  2  1  1  0  0  0
  2  4  1  0  0  0
  2  5  1  0  0  0
 47 48  1  0  0  0
 47  1  1  0  0  0
 48 52  1  0  0  0
  1 30  1  0  0  0
 29 30  1  0  0  0
 29 31  1  0  0  0
 30 32  1  0  0  0
  3  4  2  0  0  0
 32 33  2  0  0  0
 49 53  1  0  0  0
 49 57  1  0  0  0
 33 34  1  0  0  0
 62 54  1  0  0  0
 62 66  1  0  0  0
 34 35  1  0  0  0
 50 55  1  0  0  0
 50 58  1  0  0  0
 35 36  1  0  0  0
 51 52  1  0  0  0
 51 56  1  0  0  0
 36 37  1  0  0  0
 59 60  1  0  0  0
 59 61  1  0  0  0
 37 38  1  0  0  0
 63 66  1  0  0  0
 63 67  1  0  0  0
 38 39  1  0  0  0
 64 66  1  0  0  0
 39 40  1  0  0  0
 65 66  1  0  0  0
 65 68  1  0  0  0
 40 41  1  0  0  0
 41 42  1  0  0  0
 42 43  1  0  0  0
 43 44  1  0  0  0
 44 45  1  0  0  0
 45 46  1  0  0  0
  4  6  1  0  0  0
  6  7  1  0  0  0
  7  8  1  0  0  0
  8  9  1  0  0  0
  9 10  1  0  0  0
 10 11  1  0  0  0
 11 12  1  0  0  0
 12 13  1  0  0  0
 13 14  1  0  0  0
 14 15  1  0  0  0
 15 16  1  0  0  0
 16 17  1  0  0  0
 17 18  1  0  0  0
 18 19  1  0  0  0
 19 20  2  0  0  0
 20 21  1  0  0  0
 21 22  1  0  0  0
 22 23  1  0  0  0
 23 24  1  0  0  0
 24 25  1  0  0  0
 25 26  1  0  0  0
 26 27  1  0  0  0
 27 28  1  0  0  0
 52 53  1  0  0  0
 53 54  1  0  0  0
 54 55  1  0  0  0
 55 56  1  0  0  0
 56 60  1  0  0  0
M  CHG 1  64  -1
M  END
> <minimizedAffinity>
-9.47809

> <CNNscore>
0.1253041327

> <CNNaffinity>
7.1999120712

> <CNN_VS>
0.9021787643

> <CNNaffinity_variance>
1.7997070551

$$$$
/media/chris/experiments/cd1a-new-docking/inputs/ligands/7ryn_ligand.pdb


 68 68  0  0  0  0  0  0  0  0999 V2000
  -33.8366   61.1234   62.9252 C   0  0  0  0  0  0  0  0  0  0  0  0
  -34.9875   61.5647   63.7075 N   0  0  0  0  0  0  0  0  0  0  0  0
  -33.7954   62.4419   65.4038 O   0  0  0  0  0  0  0  0  0  0  0  0
  -34.8781   62.1884   64.8836 C   0  0  0  0  0  0  0  0  0  0  0  0
  -35.8890   61.3941   63.3505 H   0  0  0  0  0  0  0  0  0  0  0  0
  -36.1797   62.5750   65.5407 C   0  0  0  0  0  0  0  0  0  0  0  0
  -36.8886   61.3868   66.1779 C   0  0  0  0  0  0  0  0  0  0  0  0
  -38.0603   60.8886   65.3473 C   0  0  0  0  0  0  0  0  0  0  0  0
  -39.1311   60.1765   66.1572 C   0  0  0  0  0  0  0  0  0  0  0  0
  -40.5510   60.5806   65.7898 C   0  0  0  0  0  0  0  0  0  0  0  0
  -41.6291   59.8010   66.5319 C   0  0  0  0  0  0  0  0  0  0  0  0
  -41.7173   58.3345   66.1295 C   0  0  0  0  0  0  0  0  0  0  0  0
  -43.0363   57.6565   66.4909 C   0  0  0  0  0  0  0  0  0  0  0  0
  -44.2394   58.5983   66.4943 C   0  0  0  0  0  0  0  0  0  0  0  0
  -45.5965   57.8982   66.5613 C   0  0  0  0  0  0  0  0  0  0  0  0
  -46.6004   58.6022   67.4745 C   0  0  0  0  0  0  0  0  0  0  0  0
  -47.7839   59.2511   66.7568 C   0  0  0  0  0  0  0  0  0  0  0  0
  -47.7859   59.0837   65.2349 C   0  0  0  0  0  0  0  0  0  0  0  0
  -48.2927   60.2999   64.5150 C   0  0  0  0  0  0  0  0  0  0  0  0
  -49.5294   60.4957   64.0931 C   0  0  0  0  0  0  0  0  0  0  0  0
  -50.6763   59.5440   64.2512 C   0  0  0  0  0  0  0  0  0  0  0  0
  -51.2065   58.9949   62.9250 C   0  0  0  0  0  0  0  0  0  0  0  0
  -50.1029   58.5945   61.9549 C   0  0  0  0  0  0  0  0  0  0  0  0
  -50.5570   57.5867   60.9049 C   0  0  0  0  0  0  0  0  0  0  0  0
  -50.0595   57.8780   59.4937 C   0  0  0  0  0  0  0  0  0  0  0  0
  -48.5718   58.1919   59.4209 C   0  0  0  0  0  0  0  0  0  0  0  0
  -47.8332   57.4530   58.3163 C   0  0  0  0  0  0  0  0  0  0  0  0
  -47.3042   56.1046   58.7610 C   0  0  0  0  0  0  0  0  0  0  0  0
  -31.8880   59.6996   63.0258 O   0  0  0  0  0  0  0  0  0  0  0  0
  -33.1566   59.9445   63.6397 C   0  0  0  0  0  0  0  0  0  0  0  0
  -31.3516   60.5072   63.0586 H   0  0  0  0  0  0  0  0  0  0  0  0
  -34.0137   58.7164   63.6071 C   0  0  0  0  0  0  0  0  0  0  0  0
  -34.9932   58.4529   64.4493 C   0  0  0  0  0  0  0  0  0  0  0  0
  -35.8404   57.2249   64.3813 C   0  0  0  0  0  0  0  0  0  0  0  0
  -37.3159   57.5840   64.1943 C   0  0  0  0  0  0  0  0  0  0  0  0
  -37.5921   58.4816   62.9991 C   0  0  0  0  0  0  0  0  0  0  0  0
  -37.9362   57.7336   61.7223 C   0  0  0  0  0  0  0  0  0  0  0  0
  -37.9260   58.6035   60.4738 C   0  0  0  0  0  0  0  0  0  0  0  0
  -39.3136   59.0043   59.9973 C   0  0  0  0  0  0  0  0  0  0  0  0
  -40.2818   57.8398   59.8840 C   0  0  0  0  0  0  0  0  0  0  0  0
  -41.6948   58.1649   60.3315 C   0  0  0  0  0  0  0  0  0  0  0  0
  -41.9419   57.9261   61.8112 C   0  0  0  0  0  0  0  0  0  0  0  0
  -41.8031   59.1850   62.6468 C   0  0  0  0  0  0  0  0  0  0  0  0
  -42.0488   60.4730   61.8843 C   0  0  0  0  0  0  0  0  0  0  0  0
  -42.5172   61.6012   62.7823 C   0  0  0  0  0  0  0  0  0  0  0  0
  -43.1898   62.7170   62.0095 C   0  0  0  0  0  0  0  0  0  0  0  0
  -32.8843   62.2804   62.7043 C   0  0  0  0  0  0  0  0  0  0  0  0
  -33.5891   63.3188   62.0147 O   0  0  0  0  0  0  0  0  0  0  0  0
  -33.9589   65.3191   63.9390 O   0  0  0  0  0  0  0  0  0  0  0  0
  -29.7136   65.2266   63.2384 O   0  0  0  0  0  0  0  0  0  0  0  0
  -31.6392   64.3261   61.2997 O   0  0  0  0  0  0  0  0  0  0  0  0
  -32.8922   64.5273   61.9266 C   0  0  0  0  0  0  0  0  0  0  0  0
  -32.6955   65.0625   63.3389 C   0  0  0  0  0  0  0  0  0  0  0  0
  -31.8625   66.3373   63.2983 C   0  0  0  0  0  0  0  0  0  0  0  0
  -30.5672   66.1195   62.5301 C   0  0  0  0  0  0  0  0  0  0  0  0
  -30.8790   65.5364   61.1542 C   0  0  0  0  0  0  0  0  0  0  0  0
  -34.4796   64.5009   63.9591 H   0  0  0  0  0  0  0  0  0  0  0  0
  -29.5142   65.5954   64.1132 H   0  0  0  0  0  0  0  0  0  0  0  0
  -29.6149   65.8490   59.1065 O   0  0  0  0  0  0  0  0  0  0  0  0
  -29.6410   65.1831   60.3637 C   0  0  0  0  0  0  0  0  0  0  0  0
  -28.8097   65.6011   58.6259 H   0  0  0  0  0  0  0  0  0  0  0  0
  -31.5564   66.6236   64.6997 O   0  0  0  0  0  0  0  0  0  0  0  0
  -31.3431   64.2649   65.1448 O   0  0  0  0  0  0  0  0  0  0  0  0
  -32.9900   65.6637   66.4279 O   0  0  0  0  0  0  0  0  0  0  0  0
  -30.6483   65.8614   66.7653 O   0  0  0  0  0  0  0  0  0  0  0  0
  -31.7528   65.4671   65.7710 S   0  0  0  0  0  0  0  0  0  0  0  0
  -32.0193   63.9854   64.5080 H   0  0  0  0  0  0  0  0  0  0  0  0
  -29.7804   65.7397   66.3494 H   0  0  0  0  0  0  0  0  0  0  0  0
  2  1  1  0  0  0
  2  4  1  0  0  0
  2  5  1  0  0  0
 47 48  1  0  0  0
 47  1  1  0  0  0
 48 52  1  0  0  0
  1 30  1  0  0  0
 29 30  1  0  0  0
 29 31  1  0  0  0
 30 32  1  0  0  0
  3  4  2  0  0  0
 32 33  2  0  0  0
 49 53  1  0  0  0
 49 57  1  0  0  0
 33 34  1  0  0  0
 62 54  1  0  0  0
 62 66  1  0  0  0
 34 35  1  0  0  0
 50 55  1  0  0  0
 50 58  1  0  0  0
 35 36  1  0  0  0
 51 52  1  0  0  0
 51 56  1  0  0  0
 36 37  1  0  0  0
 59 60  1  0  0  0
 59 61  1  0  0  0
 37 38  1  0  0  0
 63 66  1  0  0  0
 63 67  1  0  0  0
 38 39  1  0  0  0
 64 66  1  0  0  0
 39 40  1  0  0  0
 65 66  1  0  0  0
 65 68  1  0  0  0
 40 41  1  0  0  0
 41 42  1  0  0  0
 42 43  1  0  0  0
 43 44  1  0  0  0
 44 45  1  0  0  0
 45 46  1  0  0  0
  4  6  1  0  0  0
  6  7  1  0  0  0
  7  8  1  0  0  0
  8  9  1  0  0  0
  9 10  1  0  0  0
 10 11  1  0  0  0
 11 12  1  0  0  0
 12 13  1  0  0  0
 13 14  1  0  0  0
 14 15  1  0  0  0
 15 16  1  0  0  0
 16 17  1  0  0  0
 17 18  1  0  0  0
 18 19  1  0  0  0
 19 20  2  0  0  0
 20 21  1  0  0  0
 21 22  1  0  0  0
 22 23  1  0  0  0
 23 24  1  0  0  0
 24 25  1  0  0  0
 25 26  1  0  0  0
 26 27  1  0  0  0
 27 28  1  0  0  0
 52 53  1  0  0  0
 53 54  1  0  0  0
 54 55  1  0  0  0
 55 56  1  0  0  0
 56 60  1  0  0  0
M  CHG 1  64  -1
M  END
> <minimizedAffinity>
-9.44913

> <CNNscore>
0.1146653295

> <CNNaffinity>
6.9678869247

> <CNN_VS>
0.7989750504

> <CNNaffinity_variance>
1.6049385071

$$$$
/media/chris/experiments/cd1a-new-docking/inputs/ligands/7ryn_ligand.pdb


 68 68  0  0  0  0  0  0  0  0999 V2000
  -35.9131   61.9123   64.7871 C   0  0  0  0  0  0  0  0  0  0  0  0
  -37.1834   61.1930   64.7981 N   0  0  0  0  0  0  0  0  0  0  0  0
  -37.4669   61.1839   62.5648 O   0  0  0  0  0  0  0  0  0  0  0  0
  -37.8605   60.8851   63.6886 C   0  0  0  0  0  0  0  0  0  0  0  0
  -37.5597   60.9213   65.6663 H   0  0  0  0  0  0  0  0  0  0  0  0
  -39.1504   60.1322   63.8993 C   0  0  0  0  0  0  0  0  0  0  0  0
  -39.0780   59.1651   65.0741 C   0  0  0  0  0  0  0  0  0  0  0  0
  -40.4510   58.7379   65.5675 C   0  0  0  0  0  0  0  0  0  0  0  0
  -41.2447   59.8550   66.2244 C   0  0  0  0  0  0  0  0  0  0  0  0
  -42.4906   59.3772   66.9551 C   0  0  0  0  0  0  0  0  0  0  0  0
  -42.9383   57.9743   66.5648 C   0  0  0  0  0  0  0  0  0  0  0  0
  -44.4423   57.8402   66.3640 C   0  0  0  0  0  0  0  0  0  0  0  0
  -45.2697   58.9444   67.0169 C   0  0  0  0  0  0  0  0  0  0  0  0
  -46.7078   58.5384   67.3356 C   0  0  0  0  0  0  0  0  0  0  0  0
  -47.1344   57.1925   66.7502 C   0  0  0  0  0  0  0  0  0  0  0  0
  -48.1988   57.3128   65.6593 C   0  0  0  0  0  0  0  0  0  0  0  0
  -48.3847   58.7187   65.0888 C   0  0  0  0  0  0  0  0  0  0  0  0
  -49.7136   59.3896   65.4468 C   0  0  0  0  0  0  0  0  0  0  0  0
  -50.8494   58.9354   64.5762 C   0  0  0  0  0  0  0  0  0  0  0  0
  -51.0129   59.2231   63.2970 C   0  0  0  0  0  0  0  0  0  0  0  0
  -50.0954   60.0586   62.4567 C   0  0  0  0  0  0  0  0  0  0  0  0
  -49.7213   59.4086   61.1229 C   0  0  0  0  0  0  0  0  0  0  0  0
  -50.4394   58.0890   60.8738 C   0  0  0  0  0  0  0  0  0  0  0  0
  -49.4906   56.9157   60.6559 C   0  0  0  0  0  0  0  0  0  0  0  0
  -48.2515   57.2503   59.8335 C   0  0  0  0  0  0  0  0  0  0  0  0
  -48.0463   56.3355   58.6343 C   0  0  0  0  0  0  0  0  0  0  0  0
  -48.1528   57.0380   57.2902 C   0  0  0  0  0  0  0  0  0  0  0  0
  -46.8765   57.7534   56.8964 C   0  0  0  0  0  0  0  0  0  0  0  0
  -34.3118   62.2841   66.5569 O   0  0  0  0  0  0  0  0  0  0  0  0
  -34.9485   61.2584   65.7895 C   0  0  0  0  0  0  0  0  0  0  0  0
  -34.9865   62.8250   66.9964 H   0  0  0  0  0  0  0  0  0  0  0  0
  -33.9350   60.4015   65.0950 C   0  0  0  0  0  0  0  0  0  0  0  0
  -33.9227   59.0833   65.1043 C   0  0  0  0  0  0  0  0  0  0  0  0
  -32.9057   58.2562   64.3886 C   0  0  0  0  0  0  0  0  0  0  0  0
  -33.0007   58.4559   62.8746 C   0  0  0  0  0  0  0  0  0  0  0  0
  -34.0600   57.6007   62.1986 C   0  0  0  0  0  0  0  0  0  0  0  0
  -35.4415   58.2318   62.1603 C   0  0  0  0  0  0  0  0  0  0  0  0
  -36.4836   57.4900   62.9846 C   0  0  0  0  0  0  0  0  0  0  0  0
  -37.7614   57.1819   62.2193 C   0  0  0  0  0  0  0  0  0  0  0  0
  -37.9936   58.0908   61.0251 C   0  0  0  0  0  0  0  0  0  0  0  0
  -39.4495   58.2130   60.6152 C   0  0  0  0  0  0  0  0  0  0  0  0
  -40.4004   57.3926   61.4698 C   0  0  0  0  0  0  0  0  0  0  0  0
  -41.5471   58.2106   62.0340 C   0  0  0  0  0  0  0  0  0  0  0  0
  -42.0053   59.3468   61.1397 C   0  0  0  0  0  0  0  0  0  0  0  0
  -41.7577   60.7095   61.7563 C   0  0  0  0  0  0  0  0  0  0  0  0
  -42.8866   61.1488   62.6658 C   0  0  0  0  0  0  0  0  0  0  0  0
  -36.1434   63.3779   65.0926 C   0  0  0  0  0  0  0  0  0  0  0  0
  -35.4825   64.1566   64.0888 O   0  0  0  0  0  0  0  0  0  0  0  0
  -33.8451   63.6423   61.8762 O   0  0  0  0  0  0  0  0  0  0  0  0
  -32.0142   66.9980   63.8535 O   0  0  0  0  0  0  0  0  0  0  0  0
  -33.7097   65.1141   65.2152 O   0  0  0  0  0  0  0  0  0  0  0  0
  -34.0904   64.1917   64.2113 C   0  0  0  0  0  0  0  0  0  0  0  0
  -33.5088   64.6063   62.8661 C   0  0  0  0  0  0  0  0  0  0  0  0
  -31.9955   64.7430   62.9762 C   0  0  0  0  0  0  0  0  0  0  0  0
  -31.6120   65.6599   64.1283 C   0  0  0  0  0  0  0  0  0  0  0  0
  -32.2881   65.1819   65.4109 C   0  0  0  0  0  0  0  0  0  0  0  0
  -34.8101   63.5643   61.8156 H   0  0  0  0  0  0  0  0  0  0  0  0
  -31.5855   67.3036   63.0388 H   0  0  0  0  0  0  0  0  0  0  0  0
  -30.6844   66.1061   66.9801 O   0  0  0  0  0  0  0  0  0  0  0  0
  -32.0516   66.1015   66.5860 C   0  0  0  0  0  0  0  0  0  0  0  0
  -30.5673   66.7046   67.7344 H   0  0  0  0  0  0  0  0  0  0  0  0
  -31.5865   65.3521   61.7108 O   0  0  0  0  0  0  0  0  0  0  0  0
  -29.5291   64.0992   61.7773 O   0  0  0  0  0  0  0  0  0  0  0  0
  -30.1306   65.4621   59.7534 O   0  0  0  0  0  0  0  0  0  0  0  0
  -31.2796   63.4579   60.3002 O   0  0  0  0  0  0  0  0  0  0  0  0
  -30.4585   64.6345   60.8527 S   0  0  0  0  0  0  0  0  0  0  0  0
  -28.9915   64.8167   62.1474 H   0  0  0  0  0  0  0  0  0  0  0  0
  -31.5247   62.8648   61.0276 H   0  0  0  0  0  0  0  0  0  0  0  0
  2  1  1  0  0  0
  2  4  1  0  0  0
  2  5  1  0  0  0
 47 48  1  0  0  0
 47  1  1  0  0  0
 48 52  1  0  0  0
  1 30  1  0  0  0
 29 30  1  0  0  0
 29 31  1  0  0  0
 30 32  1  0  0  0
  3  4  2  0  0  0
 32 33  2  0  0  0
 49 53  1  0  0  0
 49 57  1  0  0  0
 33 34  1  0  0  0
 62 54  1  0  0  0
 62 66  1  0  0  0
 34 35  1  0  0  0
 50 55  1  0  0  0
 50 58  1  0  0  0
 35 36  1  0  0  0
 51 52  1  0  0  0
 51 56  1  0  0  0
 36 37  1  0  0  0
 59 60  1  0  0  0
 59 61  1  0  0  0
 37 38  1  0  0  0
 63 66  1  0  0  0
 63 67  1  0  0  0
 38 39  1  0  0  0
 64 66  1  0  0  0
 39 40  1  0  0  0
 65 66  1  0  0  0
 65 68  1  0  0  0
 40 41  1  0  0  0
 41 42  1  0  0  0
 42 43  1  0  0  0
 43 44  1  0  0  0
 44 45  1  0  0  0
 45 46  1  0  0  0
  4  6  1  0  0  0
  6  7  1  0  0  0
  7  8  1  0  0  0
  8  9  1  0  0  0
  9 10  1  0  0  0
 10 11  1  0  0  0
 11 12  1  0  0  0
 12 13  1  0  0  0
 13 14  1  0  0  0
 14 15  1  0  0  0
 15 16  1  0  0  0
 16 17  1  0  0  0
 17 18  1  0  0  0
 18 19  1  0  0  0
 19 20  2  0  0  0
 20 21  1  0  0  0
 21 22  1  0  0  0
 22 23  1  0  0  0
 23 24  1  0  0  0
 24 25  1  0  0  0
 25 26  1  0  0  0
 26 27  1  0  0  0
 27 28  1  0  0  0
 52 53  1  0  0  0
 53 54  1  0  0  0
 54 55  1  0  0  0
 55 56  1  0  0  0
 56 60  1  0  0  0
M  CHG 1  64  -1
M  END
> <minimizedAffinity>
-9.52593

> <CNNscore>
0.1101397648

> <CNNaffinity>
7.0490236282

> <CNN_VS>
0.7763777971

> <CNNaffinity_variance>
1.1171957254

$$$$
/media/chris/experiments/cd1a-new-docking/inputs/ligands/7ryn_ligand.pdb


 68 68  0  0  0  0  0  0  0  0999 V2000
  -36.1268   58.3743   62.3114 C   0  0  0  0  0  0  0  0  0  0  0  0
  -36.9627   58.4419   61.1164 N   0  0  0  0  0  0  0  0  0  0  0  0
  -37.9772   60.3796   61.6495 O   0  0  0  0  0  0  0  0  0  0  0  0
  -37.8213   59.4371   60.8784 C   0  0  0  0  0  0  0  0  0  0  0  0
  -36.8900   57.7181   60.4530 H   0  0  0  0  0  0  0  0  0  0  0  0
  -38.5930   59.3379   59.5862 C   0  0  0  0  0  0  0  0  0  0  0  0
  -39.7530   58.3542   59.6718 C   0  0  0  0  0  0  0  0  0  0  0  0
  -41.0524   59.0157   60.1019 C   0  0  0  0  0  0  0  0  0  0  0  0
  -41.8659   58.1931   61.0873 C   0  0  0  0  0  0  0  0  0  0  0  0
  -41.6801   58.6108   62.5383 C   0  0  0  0  0  0  0  0  0  0  0  0
  -42.7641   59.5469   63.0574 C   0  0  0  0  0  0  0  0  0  0  0  0
  -43.9286   58.8302   63.7286 C   0  0  0  0  0  0  0  0  0  0  0  0
  -43.5304   57.6095   64.5543 C   0  0  0  0  0  0  0  0  0  0  0  0
  -44.1308   57.5859   65.9591 C   0  0  0  0  0  0  0  0  0  0  0  0
  -45.4847   58.2840   66.0852 C   0  0  0  0  0  0  0  0  0  0  0  0
  -46.4683   57.5455   66.9932 C   0  0  0  0  0  0  0  0  0  0  0  0
  -47.8019   57.1804   66.3413 C   0  0  0  0  0  0  0  0  0  0  0  0
  -48.4613   58.3098   65.5451 C   0  0  0  0  0  0  0  0  0  0  0  0
  -49.8550   58.6159   66.0120 C   0  0  0  0  0  0  0  0  0  0  0  0
  -50.7795   59.2669   65.3284 C   0  0  0  0  0  0  0  0  0  0  0  0
  -50.6237   59.8281   63.9475 C   0  0  0  0  0  0  0  0  0  0  0  0
  -51.0310   58.8550   62.8391 C   0  0  0  0  0  0  0  0  0  0  0  0
  -49.8428   58.2296   62.1204 C   0  0  0  0  0  0  0  0  0  0  0  0
  -49.8113   58.5332   60.6267 C   0  0  0  0  0  0  0  0  0  0  0  0
  -49.5607   57.3182   59.7408 C   0  0  0  0  0  0  0  0  0  0  0  0
  -48.1291   57.2140   59.2341 C   0  0  0  0  0  0  0  0  0  0  0  0
  -47.7957   58.1793   58.1077 C   0  0  0  0  0  0  0  0  0  0  0  0
  -47.0559   57.5167   56.9634 C   0  0  0  0  0  0  0  0  0  0  0  0
  -34.3302   56.7636   62.4239 O   0  0  0  0  0  0  0  0  0  0  0  0
  -34.6807   58.0493   61.9039 C   0  0  0  0  0  0  0  0  0  0  0  0
  -34.9604   56.1010   62.0999 H   0  0  0  0  0  0  0  0  0  0  0  0
  -33.7271   59.0998   62.3845 C   0  0  0  0  0  0  0  0  0  0  0  0
  -32.5349   59.3329   61.8722 C   0  0  0  0  0  0  0  0  0  0  0  0
  -31.6123   60.3990   62.3648 C   0  0  0  0  0  0  0  0  0  0  0  0
  -30.6870   60.8854   61.2474 C   0  0  0  0  0  0  0  0  0  0  0  0
  -29.4383   61.5992   61.7390 C   0  0  0  0  0  0  0  0  0  0  0  0
  -29.6963   62.9766   62.3259 C   0  0  0  0  0  0  0  0  0  0  0  0
  -29.4517   63.0660   63.8252 C   0  0  0  0  0  0  0  0  0  0  0  0
  -30.0170   64.3261   64.4622 C   0  0  0  0  0  0  0  0  0  0  0  0
  -31.5339   64.3501   64.5293 C   0  0  0  0  0  0  0  0  0  0  0  0
  -32.1040   65.5928   65.1874 C   0  0  0  0  0  0  0  0  0  0  0  0
  -32.5416   66.6645   64.2038 C   0  0  0  0  0  0  0  0  0  0  0  0
  -32.3409   66.2583   62.7556 C   0  0  0  0  0  0  0  0  0  0  0  0
  -33.6170   65.8780   62.0293 C   0  0  0  0  0  0  0  0  0  0  0  0
  -33.4704   64.6023   61.2232 C   0  0  0  0  0  0  0  0  0  0  0  0
  -33.7210   63.3597   62.0525 C   0  0  0  0  0  0  0  0  0  0  0  0
  -36.6875   57.3541   63.2805 C   0  0  0  0  0  0  0  0  0  0  0  0
  -36.1322   57.6103   64.5754 O   0  0  0  0  0  0  0  0  0  0  0  0
  -35.0200   60.1337   65.0617 O   0  0  0  0  0  0  0  0  0  0  0  0
  -39.1467   60.9053   64.1143 O   0  0  0  0  0  0  0  0  0  0  0  0
  -38.2256   58.3879   65.1593 O   0  0  0  0  0  0  0  0  0  0  0  0
  -36.8307   58.5627   65.3232 C   0  0  0  0  0  0  0  0  0  0  0  0
  -36.4114   59.9440   64.8373 C   0  0  0  0  0  0  0  0  0  0  0  0
  -37.2137   61.0147   65.5657 C   0  0  0  0  0  0  0  0  0  0  0  0
  -38.7075   60.7454   65.4594 C   0  0  0  0  0  0  0  0  0  0  0  0
  -39.0060   59.3217   65.9228 C   0  0  0  0  0  0  0  0  0  0  0  0
  -34.5203   59.4466   64.5934 H   0  0  0  0  0  0  0  0  0  0  0  0
  -38.9579   61.8095   63.8179 H   0  0  0  0  0  0  0  0  0  0  0  0
  -41.3206   59.7748   66.4937 O   0  0  0  0  0  0  0  0  0  0  0  0
  -40.4542   58.9299   65.7452 C   0  0  0  0  0  0  0  0  0  0  0  0
  -42.2400   59.4970   66.3578 H   0  0  0  0  0  0  0  0  0  0  0  0
  -36.8910   62.2581   64.8661 O   0  0  0  0  0  0  0  0  0  0  0  0
  -34.7481   62.8783   65.7772 O   0  0  0  0  0  0  0  0  0  0  0  0
  -36.8645   63.8714   66.6991 O   0  0  0  0  0  0  0  0  0  0  0  0
  -36.0365   64.4590   64.5531 O   0  0  0  0  0  0  0  0  0  0  0  0
  -36.0677   63.3736   65.6416 S   0  0  0  0  0  0  0  0  0  0  0  0
  -34.7302   62.1884   66.4589 H   0  0  0  0  0  0  0  0  0  0  0  0
  -35.4970   64.1534   63.8072 H   0  0  0  0  0  0  0  0  0  0  0  0
  2  1  1  0  0  0
  2  4  1  0  0  0
  2  5  1  0  0  0
 47 48  1  0  0  0
 47  1  1  0  0  0
 48 52  1  0  0  0
  1 30  1  0  0  0
 29 30  1  0  0  0
 29 31  1  0  0  0
 30 32  1  0  0  0
  3  4  2  0  0  0
 32 33  2  0  0  0
 49 53  1  0  0  0
 49 57  1  0  0  0
 33 34  1  0  0  0
 62 54  1  0  0  0
 62 66  1  0  0  0
 34 35  1  0  0  0
 50 55  1  0  0  0
 50 58  1  0  0  0
 35 36  1  0  0  0
 51 52  1  0  0  0
 51 56  1  0  0  0
 36 37  1  0  0  0
 59 60  1  0  0  0
 59 61  1  0  0  0
 37 38  1  0  0  0
 63 66  1  0  0  0
 63 67  1  0  0  0
 38 39  1  0  0  0
 64 66  1  0  0  0
 39 40  1  0  0  0
 65 66  1  0  0  0
 65 68  1  0  0  0
 40 41  1  0  0  0
 41 42  1  0  0  0
 42 43  1  0  0  0
 43 44  1  0  0  0
 44 45  1  0  0  0
 45 46  1  0  0  0
  4  6  1  0  0  0
  6  7  1  0  0  0
  7  8  1  0  0  0
  8  9  1  0  0  0
  9 10  1  0  0  0
 10 11  1  0  0  0
 11 12  1  0  0  0
 12 13  1  0  0  0
 13 14  1  0  0  0
 14 15  1  0  0  0
 15 16  1  0  0  0
 16 17  1  0  0  0
 17 18  1  0  0  0
 18 19  1  0  0  0
 19 20  2  0  0  0
 20 21  1  0  0  0
 21 22  1  0  0  0
 22 23  1  0  0  0
 23 24  1  0  0  0
 24 25  1  0  0  0
 25 26  1  0  0  0
 26 27  1  0  0  0
 27 28  1  0  0  0
 52 53  1  0  0  0
 53 54  1  0  0  0
 54 55  1  0  0  0
 55 56  1  0  0  0
 56 60  1  0  0  0
M  CHG 1  64  -1
M  END
> <minimizedAffinity>
-8.68283

> <CNNscore>
0.1081400439

> <CNNaffinity>
6.9193525314

> <CNN_VS>
0.7482590675

> <CNNaffinity_variance>
1.0125905275

$$$$
