/media/chris/experiments/cd1a-new-docking/inputs/ligands/7ryn_ligand.pdb


 68 68  0  0  0  0  0  0  0  0999 V2000
  -41.1476   60.0461   65.5265 C   0  0  0  0  0  0  0  0  0  0  0  0
  -41.7974   61.0703   64.7140 N   0  0  0  0  0  0  0  0  0  0  0  0
  -41.7468   62.6823   66.2846 O   0  0  0  0  0  0  0  0  0  0  0  0
  -42.0461   62.3063   65.1550 C   0  0  0  0  0  0  0  0  0  0  0  0
  -42.0655   60.8384   63.7956 H   0  0  0  0  0  0  0  0  0  0  0  0
  -42.7185   63.2281   64.1683 C   0  0  0  0  0  0  0  0  0  0  0  0
  -42.2334   63.0108   62.7406 C   0  0  0  0  0  0  0  0  0  0  0  0
  -42.9685   61.8814   62.0369 C   0  0  0  0  0  0  0  0  0  0  0  0
  -42.1333   61.1588   60.9931 C   0  0  0  0  0  0  0  0  0  0  0  0
  -41.6292   59.7961   61.4441 C   0  0  0  0  0  0  0  0  0  0  0  0
  -41.5362   58.7679   60.3239 C   0  0  0  0  0  0  0  0  0  0  0  0
  -41.4989   57.3255   60.8119 C   0  0  0  0  0  0  0  0  0  0  0  0
  -41.8947   57.1410   62.2747 C   0  0  0  0  0  0  0  0  0  0  0  0
  -40.9078   56.3022   63.0851 C   0  0  0  0  0  0  0  0  0  0  0  0
  -40.2995   57.0209   64.2893 C   0  0  0  0  0  0  0  0  0  0  0  0
  -38.8892   57.5523   64.0327 C   0  0  0  0  0  0  0  0  0  0  0  0
  -37.9275   57.4334   65.2149 C   0  0  0  0  0  0  0  0  0  0  0  0
  -36.4428   57.5077   64.8487 C   0  0  0  0  0  0  0  0  0  0  0  0
  -35.8621   58.8786   65.0423 C   0  0  0  0  0  0  0  0  0  0  0  0
  -34.5890   59.2095   64.9178 C   0  0  0  0  0  0  0  0  0  0  0  0
  -33.4685   58.2827   64.5551 C   0  0  0  0  0  0  0  0  0  0  0  0
  -32.6942   58.7133   63.3075 C   0  0  0  0  0  0  0  0  0  0  0  0
  -33.0438   57.8970   62.0703 C   0  0  0  0  0  0  0  0  0  0  0  0
  -34.4780   57.3802   62.0720 C   0  0  0  0  0  0  0  0  0  0  0  0
  -35.4942   58.3363   61.4579 C   0  0  0  0  0  0  0  0  0  0  0  0
  -36.9045   57.7680   61.3853 C   0  0  0  0  0  0  0  0  0  0  0  0
  -37.9665   58.7861   61.0014 C   0  0  0  0  0  0  0  0  0  0  0  0
  -37.9940   59.0768   59.5145 C   0  0  0  0  0  0  0  0  0  0  0  0
  -41.3369   58.7963   67.5848 O   0  0  0  0  0  0  0  0  0  0  0  0
  -42.0163   59.7462   66.7587 C   0  0  0  0  0  0  0  0  0  0  0  0
  -40.4643   59.1440   67.8270 H   0  0  0  0  0  0  0  0  0  0  0  0
  -43.3705   59.2416   66.3644 C   0  0  0  0  0  0  0  0  0  0  0  0
  -43.6146   58.0579   65.8378 C   0  0  0  0  0  0  0  0  0  0  0  0
  -44.9798   57.5777   65.4687 C   0  0  0  0  0  0  0  0  0  0  0  0
  -46.0083   57.9745   66.5298 C   0  0  0  0  0  0  0  0  0  0  0  0
  -47.2966   57.1693   66.4807 C   0  0  0  0  0  0  0  0  0  0  0  0
  -48.5299   57.9847   66.1318 C   0  0  0  0  0  0  0  0  0  0  0  0
  -48.3179   59.4897   66.2056 C   0  0  0  0  0  0  0  0  0  0  0  0
  -48.7761   60.2329   64.9601 C   0  0  0  0  0  0  0  0  0  0  0  0
  -49.9915   59.6150   64.2914 C   0  0  0  0  0  0  0  0  0  0  0  0
  -49.7822   59.2664   62.8295 C   0  0  0  0  0  0  0  0  0  0  0  0
  -50.8415   58.3382   62.2605 C   0  0  0  0  0  0  0  0  0  0  0  0
  -50.5162   57.8546   60.8595 C   0  0  0  0  0  0  0  0  0  0  0  0
  -49.0444   57.9221   60.4996 C   0  0  0  0  0  0  0  0  0  0  0  0
  -48.7936   57.6787   59.0243 C   0  0  0  0  0  0  0  0  0  0  0  0
  -47.6590   56.7051   58.7814 C   0  0  0  0  0  0  0  0  0  0  0  0
  -39.7525   60.4947   65.9097 C   0  0  0  0  0  0  0  0  0  0  0  0
  -39.0490   60.8494   64.7139 O   0  0  0  0  0  0  0  0  0  0  0  0
  -37.3035   61.1138   62.5404 O   0  0  0  0  0  0  0  0  0  0  0  0
  -36.3871   64.4433   65.1087 O   0  0  0  0  0  0  0  0  0  0  0  0
  -37.5841   62.0097   66.0691 O   0  0  0  0  0  0  0  0  0  0  0  0
  -37.7107   61.1992   64.9157 C   0  0  0  0  0  0  0  0  0  0  0  0
  -37.2301   61.9556   63.6840 C   0  0  0  0  0  0  0  0  0  0  0  0
  -35.7992   62.4339   63.8957 C   0  0  0  0  0  0  0  0  0  0  0  0
  -35.6708   63.2158   65.1948 C   0  0  0  0  0  0  0  0  0  0  0  0
  -36.2264   62.3860   66.3495 C   0  0  0  0  0  0  0  0  0  0  0  0
  -38.2182   60.8160   62.4162 H   0  0  0  0  0  0  0  0  0  0  0  0
  -36.0356   64.9721   64.3755 H   0  0  0  0  0  0  0  0  0  0  0  0
  -35.1303   64.0125   67.7783 O   0  0  0  0  0  0  0  0  0  0  0  0
  -36.2414   63.1310   67.6637 C   0  0  0  0  0  0  0  0  0  0  0  0
  -35.1700   64.4738   68.6308 H   0  0  0  0  0  0  0  0  0  0  0  0
  -35.5352   63.3217   62.7637 O   0  0  0  0  0  0  0  0  0  0  0  0
  -33.5226   64.4475   63.4632 O   0  0  0  0  0  0  0  0  0  0  0  0
  -33.9564   64.0002   61.0287 O   0  0  0  0  0  0  0  0  0  0  0  0
  -33.4167   62.2556   62.5458 O   0  0  0  0  0  0  0  0  0  0  0  0
  -34.0261   63.6597   62.3999 S   0  0  0  0  0  0  0  0  0  0  0  0
  -33.8879   65.3441   63.4025 H   0  0  0  0  0  0  0  0  0  0  0  0
  -33.4464   61.9854   63.4769 H   0  0  0  0  0  0  0  0  0  0  0  0
  2  1  1  0  0  0
  2  4  1  0  0  0
  2  5  1  0  0  0
 47 48  1  0  0  0
 47  1  1  0  0  0
 48 52  1  0  0  0
  1 30  1  0  0  0
 29 30  1  0  0  0
 29 31  1  0  0  0
 30 32  1  0  0  0
  3  4  2  0  0  0
 32 33  2  0  0  0
 49 53  1  0  0  0
 49 57  1  0  0  0
 33 34  1  0  0  0
 62 54  1  0  0  0
 62 66  1  0  0  0
 34 35  1  0  0  0
 50 55  1  0  0  0
 50 58  1  0  0  0
 35 36  1  0  0  0
 51 52  1  0  0  0
 51 56  1  0  0  0
 36 37  1  0  0  0
 59 60  1  0  0  0
 59 61  1  0  0  0
 37 38  1  0  0  0
 63 66  1  0  0  0
 63 67  1  0  0  0
 38 39  1  0  0  0
 64 66  1  0  0  0
 39 40  1  0  0  0
 65 66  1  0  0  0
 65 68  1  0  0  0
 40 41  1  0  0  0
 41 42  1  0  0  0
 42 43  1  0  0  0
 43 44  1  0  0  0
 44 45  1  0  0  0
 45 46  1  0  0  0
  4  6  1  0  0  0
  6  7  1  0  0  0
  7  8  1  0  0  0
  8  9  1  0  0  0
  9 10  1  0  0  0
 10 11  1  0  0  0
 11 12  1  0  0  0
 12 13  1  0  0  0
 13 14  1  0  0  0
 14 15  1  0  0  0
 15 16  1  0  0  0
 16 17  1  0  0  0
 17 18  1  0  0  0
 18 19  1  0  0  0
 19 20  2  0  0  0
 20 21  1  0  0  0
 21 22  1  0  0  0
 22 23  1  0  0  0
 23 24  1  0  0  0
 24 25  1  0  0  0
 25 26  1  0  0  0
 26 27  1  0  0  0
 27 28  1  0  0  0
 52 53  1  0  0  0
 53 54  1  0  0  0
 54 55  1  0  0  0
 55 56  1  0  0  0
 56 60  1  0  0  0
M  CHG 1  64  -1
M  END
> <minimizedAffinity>
-7.68821

> <CNNscore>
0.1651258767

> <CNNaffinity>
7.4932351112

> <CNN_VS>
1.2373269796

> <CNNaffinity_variance>
2.2825131416

$$$$
/media/chris/experiments/cd1a-new-docking/inputs/ligands/7ryn_ligand.pdb


 68 68  0  0  0  0  0  0  0  0999 V2000
  -37.5348   59.6943   61.8028 C   0  0  0  0  0  0  0  0  0  0  0  0
  -38.9893   59.7457   61.9160 N   0  0  0  0  0  0  0  0  0  0  0  0
  -39.3822   60.1024   59.7283 O   0  0  0  0  0  0  0  0  0  0  0  0
  -39.7986   59.9453   60.8724 C   0  0  0  0  0  0  0  0  0  0  0  0
  -39.3938   59.6273   62.8058 H   0  0  0  0  0  0  0  0  0  0  0  0
  -41.2744   59.9591   61.1844 C   0  0  0  0  0  0  0  0  0  0  0  0
  -41.7211   58.7226   61.9538 C   0  0  0  0  0  0  0  0  0  0  0  0
  -41.6066   57.4480   61.1333 C   0  0  0  0  0  0  0  0  0  0  0  0
  -41.4675   56.1870   61.9698 C   0  0  0  0  0  0  0  0  0  0  0  0
  -41.1511   56.4518   63.4341 C   0  0  0  0  0  0  0  0  0  0  0  0
  -42.1982   55.9144   64.4013 C   0  0  0  0  0  0  0  0  0  0  0  0
  -42.8861   56.9934   65.2277 C   0  0  0  0  0  0  0  0  0  0  0  0
  -43.8723   57.8578   64.4463 C   0  0  0  0  0  0  0  0  0  0  0  0
  -45.0273   58.3990   65.2875 C   0  0  0  0  0  0  0  0  0  0  0  0
  -45.3242   57.5958   66.5537 C   0  0  0  0  0  0  0  0  0  0  0  0
  -46.7915   57.6510   66.9797 C   0  0  0  0  0  0  0  0  0  0  0  0
  -47.3790   59.0573   67.0968 C   0  0  0  0  0  0  0  0  0  0  0  0
  -48.6395   59.3013   66.2628 C   0  0  0  0  0  0  0  0  0  0  0  0
  -48.3801   60.1413   65.0458 C   0  0  0  0  0  0  0  0  0  0  0  0
  -49.2181   60.3395   64.0436 C   0  0  0  0  0  0  0  0  0  0  0  0
  -50.5980   59.7676   63.9218 C   0  0  0  0  0  0  0  0  0  0  0  0
  -51.0308   59.5093   62.4770 C   0  0  0  0  0  0  0  0  0  0  0  0
  -50.9455   58.0426   62.0760 C   0  0  0  0  0  0  0  0  0  0  0  0
  -50.4708   57.8342   60.6423 C   0  0  0  0  0  0  0  0  0  0  0  0
  -49.4528   56.7124   60.4713 C   0  0  0  0  0  0  0  0  0  0  0  0
  -48.1457   57.1627   59.8341 C   0  0  0  0  0  0  0  0  0  0  0  0
  -48.3196   58.1357   58.6787 C   0  0  0  0  0  0  0  0  0  0  0  0
  -47.4237   57.8159   57.4992 C   0  0  0  0  0  0  0  0  0  0  0  0
  -38.0730   57.3401   61.8555 O   0  0  0  0  0  0  0  0  0  0  0  0
  -37.1064   58.2804   61.3783 C   0  0  0  0  0  0  0  0  0  0  0  0
  -38.9497   57.5760   61.5136 H   0  0  0  0  0  0  0  0  0  0  0  0
  -35.7376   57.9468   61.8874 C   0  0  0  0  0  0  0  0  0  0  0  0
  -34.6071   58.2798   61.2965 C   0  0  0  0  0  0  0  0  0  0  0  0
  -33.2560   57.9449   61.8378 C   0  0  0  0  0  0  0  0  0  0  0  0
  -32.8455   58.9256   62.9382 C   0  0  0  0  0  0  0  0  0  0  0  0
  -32.8599   58.3332   64.3380 C   0  0  0  0  0  0  0  0  0  0  0  0
  -34.2286   58.3205   64.9969 C   0  0  0  0  0  0  0  0  0  0  0  0
  -35.1049   57.1482   64.5806 C   0  0  0  0  0  0  0  0  0  0  0  0
  -36.2648   56.8857   65.5288 C   0  0  0  0  0  0  0  0  0  0  0  0
  -37.6175   57.2851   64.9660 C   0  0  0  0  0  0  0  0  0  0  0  0
  -38.3649   58.2979   65.8133 C   0  0  0  0  0  0  0  0  0  0  0  0
  -39.6189   58.8460   65.1541 C   0  0  0  0  0  0  0  0  0  0  0  0
  -40.0021   60.2239   65.6610 C   0  0  0  0  0  0  0  0  0  0  0  0
  -41.4377   60.6200   65.3737 C   0  0  0  0  0  0  0  0  0  0  0  0
  -42.2010   60.9945   66.6289 C   0  0  0  0  0  0  0  0  0  0  0  0
  -42.4321   59.8091   67.5430 C   0  0  0  0  0  0  0  0  0  0  0  0
  -36.8967   60.1130   63.1112 C   0  0  0  0  0  0  0  0  0  0  0  0
  -35.7052   60.8504   62.8157 O   0  0  0  0  0  0  0  0  0  0  0  0
  -33.6807   62.7469   62.4341 O   0  0  0  0  0  0  0  0  0  0  0  0
  -36.4038   64.5781   65.2186 O   0  0  0  0  0  0  0  0  0  0  0  0
  -36.1753   61.7281   64.8984 O   0  0  0  0  0  0  0  0  0  0  0  0
  -35.1854   61.5630   63.9002 C   0  0  0  0  0  0  0  0  0  0  0  0
  -34.7174   62.9205   63.3918 C   0  0  0  0  0  0  0  0  0  0  0  0
  -34.2221   63.7672   64.5574 C   0  0  0  0  0  0  0  0  0  0  0  0
  -35.2672   63.8433   65.6607 C   0  0  0  0  0  0  0  0  0  0  0  0
  -35.6990   62.4332   66.0558 C   0  0  0  0  0  0  0  0  0  0  0  0
  -34.0078   62.2068   61.6978 H   0  0  0  0  0  0  0  0  0  0  0  0
  -36.1315   65.4745   64.9671 H   0  0  0  0  0  0  0  0  0  0  0  0
  -36.4162   62.9996   68.3038 O   0  0  0  0  0  0  0  0  0  0  0  0
  -36.8188   62.4166   67.0698 C   0  0  0  0  0  0  0  0  0  0  0  0
  -37.1561   62.9730   68.9306 H   0  0  0  0  0  0  0  0  0  0  0  0
  -34.0176   65.0982   63.9865 O   0  0  0  0  0  0  0  0  0  0  0  0
  -32.4295   66.1981   65.4271 O   0  0  0  0  0  0  0  0  0  0  0  0
  -32.3552   66.5487   62.9398 O   0  0  0  0  0  0  0  0  0  0  0  0
  -31.7156   64.4899   63.9339 O   0  0  0  0  0  0  0  0  0  0  0  0
  -32.5749   65.7553   64.0901 S   0  0  0  0  0  0  0  0  0  0  0  0
  -32.9605   66.9986   65.5621 H   0  0  0  0  0  0  0  0  0  0  0  0
  -31.8396   63.9174   64.7070 H   0  0  0  0  0  0  0  0  0  0  0  0
  2  1  1  0  0  0
  2  4  1  0  0  0
  2  5  1  0  0  0
 47 48  1  0  0  0
 47  1  1  0  0  0
 48 52  1  0  0  0
  1 30  1  0  0  0
 29 30  1  0  0  0
 29 31  1  0  0  0
 30 32  1  0  0  0
  3  4  2  0  0  0
 32 33  2  0  0  0
 49 53  1  0  0  0
 49 57  1  0  0  0
 33 34  1  0  0  0
 62 54  1  0  0  0
 62 66  1  0  0  0
 34 35  1  0  0  0
 50 55  1  0  0  0
 50 58  1  0  0  0
 35 36  1  0  0  0
 51 52  1  0  0  0
 51 56  1  0  0  0
 36 37  1  0  0  0
 59 60  1  0  0  0
 59 61  1  0  0  0
 37 38  1  0  0  0
 63 66  1  0  0  0
 63 67  1  0  0  0
 38 39  1  0  0  0
 64 66  1  0  0  0
 39 40  1  0  0  0
 65 66  1  0  0  0
 65 68  1  0  0  0
 40 41  1  0  0  0
 41 42  1  0  0  0
 42 43  1  0  0  0
 43 44  1  0  0  0
 44 45  1  0  0  0
 45 46  1  0  0  0
  4  6  1  0  0  0
  6  7  1  0  0  0
  7  8  1  0  0  0
  8  9  1  0  0  0
  9 10  1  0  0  0
 10 11  1  0  0  0
 11 12  1  0  0  0
 12 13  1  0  0  0
 13 14  1  0  0  0
 14 15  1  0  0  0
 15 16  1  0  0  0
 16 17  1  0  0  0
 17 18  1  0  0  0
 18 19  1  0  0  0
 19 20  2  0  0  0
 20 21  1  0  0  0
 21 22  1  0  0  0
 22 23  1  0  0  0
 23 24  1  0  0  0
 24 25  1  0  0  0
 25 26  1  0  0  0
 26 27  1  0  0  0
 27 28  1  0  0  0
 52 53  1  0  0  0
 53 54  1  0  0  0
 54 55  1  0  0  0
 55 56  1  0  0  0
 56 60  1  0  0  0
M  CHG 1  64  -1
M  END
> <minimizedAffinity>
-8.46549

> <CNNscore>
0.1480957419

> <CNNaffinity>
7.3654494286

> <CNN_VS>
1.0907917023

> <CNNaffinity_variance>
1.5374128819

$$$$
/media/chris/experiments/cd1a-new-docking/inputs/ligands/7ryn_ligand.pdb


 68 68  0  0  0  0  0  0  0  0999 V2000
  -36.5559   61.0300   63.9174 C   0  0  0  0  0  0  0  0  0  0  0  0
  -37.2859   60.1073   64.7817 N   0  0  0  0  0  0  0  0  0  0  0  0
  -37.9843   61.6643   66.2500 O   0  0  0  0  0  0  0  0  0  0  0  0
  -37.9421   60.4950   65.8785 C   0  0  0  0  0  0  0  0  0  0  0  0
  -37.2950   59.1519   64.5442 H   0  0  0  0  0  0  0  0  0  0  0  0
  -38.6442   59.3987   66.6405 C   0  0  0  0  0  0  0  0  0  0  0  0
  -39.5075   58.5223   65.7421 C   0  0  0  0  0  0  0  0  0  0  0  0
  -40.8564   59.1506   65.4309 C   0  0  0  0  0  0  0  0  0  0  0  0
  -41.6931   59.4551   66.6623 C   0  0  0  0  0  0  0  0  0  0  0  0
  -42.9655   58.6272   66.7620 C   0  0  0  0  0  0  0  0  0  0  0  0
  -42.9078   57.3084   66.0016 C   0  0  0  0  0  0  0  0  0  0  0  0
  -43.9508   57.1865   64.8981 C   0  0  0  0  0  0  0  0  0  0  0  0
  -44.5644   58.5128   64.4568 C   0  0  0  0  0  0  0  0  0  0  0  0
  -46.0560   58.6402   64.7620 C   0  0  0  0  0  0  0  0  0  0  0  0
  -46.4207   58.4763   66.2373 C   0  0  0  0  0  0  0  0  0  0  0  0
  -47.5419   57.4654   66.4788 C   0  0  0  0  0  0  0  0  0  0  0  0
  -48.8464   57.7562   65.7370 C   0  0  0  0  0  0  0  0  0  0  0  0
  -49.5186   59.0806   66.1089 C   0  0  0  0  0  0  0  0  0  0  0  0
  -50.8143   59.3011   65.3832 C   0  0  0  0  0  0  0  0  0  0  0  0
  -50.9502   59.7975   64.1663 C   0  0  0  0  0  0  0  0  0  0  0  0
  -49.8373   60.2378   63.2642 C   0  0  0  0  0  0  0  0  0  0  0  0
  -49.8843   59.5999   61.8740 C   0  0  0  0  0  0  0  0  0  0  0  0
  -50.6683   58.2949   61.8365 C   0  0  0  0  0  0  0  0  0  0  0  0
  -50.2349   57.3610   60.7122 C   0  0  0  0  0  0  0  0  0  0  0  0
  -48.8270   57.6167   60.1866 C   0  0  0  0  0  0  0  0  0  0  0  0
  -48.2076   56.4168   59.4840 C   0  0  0  0  0  0  0  0  0  0  0  0
  -47.1700   56.7785   58.4332 C   0  0  0  0  0  0  0  0  0  0  0  0
  -47.3247   55.9817   57.1536 C   0  0  0  0  0  0  0  0  0  0  0  0
  -37.0145   62.6057   62.1449 O   0  0  0  0  0  0  0  0  0  0  0  0
  -37.3969   61.3296   62.6661 C   0  0  0  0  0  0  0  0  0  0  0  0
  -36.0630   62.6058   61.9561 H   0  0  0  0  0  0  0  0  0  0  0  0
  -38.8633   61.2926   62.9701 C   0  0  0  0  0  0  0  0  0  0  0  0
  -39.7753   60.6903   62.2328 C   0  0  0  0  0  0  0  0  0  0  0  0
  -41.2297   60.6586   62.5711 C   0  0  0  0  0  0  0  0  0  0  0  0
  -42.0825   60.4650   61.3156 C   0  0  0  0  0  0  0  0  0  0  0  0
  -41.3165   59.9240   60.1193 C   0  0  0  0  0  0  0  0  0  0  0  0
  -41.5032   58.4357   59.8791 C   0  0  0  0  0  0  0  0  0  0  0  0
  -42.0312   57.6754   61.0869 C   0  0  0  0  0  0  0  0  0  0  0  0
  -41.1026   56.5705   61.5669 C   0  0  0  0  0  0  0  0  0  0  0  0
  -40.0334   57.0470   62.5343 C   0  0  0  0  0  0  0  0  0  0  0  0
  -38.6903   57.3228   61.8844 C   0  0  0  0  0  0  0  0  0  0  0  0
  -37.5173   57.2663   62.8478 C   0  0  0  0  0  0  0  0  0  0  0  0
  -36.1974   57.6385   62.1984 C   0  0  0  0  0  0  0  0  0  0  0  0
  -34.9715   57.1586   62.9515 C   0  0  0  0  0  0  0  0  0  0  0  0
  -33.6936   57.3305   62.1540 C   0  0  0  0  0  0  0  0  0  0  0  0
  -32.5921   57.9899   62.9579 C   0  0  0  0  0  0  0  0  0  0  0  0
  -35.2008   60.4513   63.5667 C   0  0  0  0  0  0  0  0  0  0  0  0
  -34.4595   60.2734   64.7789 O   0  0  0  0  0  0  0  0  0  0  0  0
  -32.2629   61.4997   63.5491 O   0  0  0  0  0  0  0  0  0  0  0  0
  -34.9143   64.7348   64.5622 O   0  0  0  0  0  0  0  0  0  0  0  0
  -34.9264   62.2111   65.9435 O   0  0  0  0  0  0  0  0  0  0  0  0
  -33.9190   61.4520   65.3013 C   0  0  0  0  0  0  0  0  0  0  0  0
  -33.3147   62.2448   64.1496 C   0  0  0  0  0  0  0  0  0  0  0  0
  -32.7898   63.5808   64.6599 C   0  0  0  0  0  0  0  0  0  0  0  0
  -33.8639   64.3304   65.4343 C   0  0  0  0  0  0  0  0  0  0  0  0
  -34.4326   63.4277   66.5263 C   0  0  0  0  0  0  0  0  0  0  0  0
  -32.6091   60.6522   63.2286 H   0  0  0  0  0  0  0  0  0  0  0  0
  -34.5549   65.3085   63.8675 H   0  0  0  0  0  0  0  0  0  0  0  0
  -36.1712   63.1398   68.1945 O   0  0  0  0  0  0  0  0  0  0  0  0
  -35.5860   64.0540   67.2745 C   0  0  0  0  0  0  0  0  0  0  0  0
  -36.9063   63.5722   68.6568 H   0  0  0  0  0  0  0  0  0  0  0  0
  -32.4479   64.3295   63.4508 O   0  0  0  0  0  0  0  0  0  0  0  0
  -33.9954   65.6992   62.2112 O   0  0  0  0  0  0  0  0  0  0  0  0
  -34.2988   63.2070   62.3208 O   0  0  0  0  0  0  0  0  0  0  0  0
  -32.5395   64.2007   61.0744 O   0  0  0  0  0  0  0  0  0  0  0  0
  -33.5007   64.3734   62.2619 S   0  0  0  0  0  0  0  0  0  0  0  0
  -34.6079   65.8442   62.9492 H   0  0  0  0  0  0  0  0  0  0  0  0
  -31.9726   64.9843   61.0007 H   0  0  0  0  0  0  0  0  0  0  0  0
  2  1  1  0  0  0
  2  4  1  0  0  0
  2  5  1  0  0  0
 47 48  1  0  0  0
 47  1  1  0  0  0
 48 52  1  0  0  0
  1 30  1  0  0  0
 29 30  1  0  0  0
 29 31  1  0  0  0
 30 32  1  0  0  0
  3  4  2  0  0  0
 32 33  2  0  0  0
 49 53  1  0  0  0
 49 57  1  0  0  0
 33 34  1  0  0  0
 62 54  1  0  0  0
 62 66  1  0  0  0
 34 35  1  0  0  0
 50 55  1  0  0  0
 50 58  1  0  0  0
 35 36  1  0  0  0
 51 52  1  0  0  0
 51 56  1  0  0  0
 36 37  1  0  0  0
 59 60  1  0  0  0
 59 61  1  0  0  0
 37 38  1  0  0  0
 63 66  1  0  0  0
 63 67  1  0  0  0
 38 39  1  0  0  0
 64 66  1  0  0  0
 39 40  1  0  0  0
 65 66  1  0  0  0
 65 68  1  0  0  0
 40 41  1  0  0  0
 41 42  1  0  0  0
 42 43  1  0  0  0
 43 44  1  0  0  0
 44 45  1  0  0  0
 45 46  1  0  0  0
  4  6  1  0  0  0
  6  7  1  0  0  0
  7  8  1  0  0  0
  8  9  1  0  0  0
  9 10  1  0  0  0
 10 11  1  0  0  0
 11 12  1  0  0  0
 12 13  1  0  0  0
 13 14  1  0  0  0
 14 15  1  0  0  0
 15 16  1  0  0  0
 16 17  1  0  0  0
 17 18  1  0  0  0
 18 19  1  0  0  0
 19 20  2  0  0  0
 20 21  1  0  0  0
 21 22  1  0  0  0
 22 23  1  0  0  0
 23 24  1  0  0  0
 24 25  1  0  0  0
 25 26  1  0  0  0
 26 27  1  0  0  0
 27 28  1  0  0  0
 52 53  1  0  0  0
 53 54  1  0  0  0
 54 55  1  0  0  0
 55 56  1  0  0  0
 56 60  1  0  0  0
M  CHG 1  64  -1
M  END
> <minimizedAffinity>
-8.97147

> <CNNscore>
0.1294915080

> <CNNaffinity>
7.4592504501

> <CNN_VS>
0.9659096003

> <CNNaffinity_variance>
1.5320934057

$$$$
/media/chris/experiments/cd1a-new-docking/inputs/ligands/7ryn_ligand.pdb


 68 68  0  0  0  0  0  0  0  0999 V2000
  -35.1588   59.4512   63.8889 C   0  0  0  0  0  0  0  0  0  0  0  0
  -36.2145   59.4836   64.8967 N   0  0  0  0  0  0  0  0  0  0  0  0
  -37.2560   61.3076   64.0864 O   0  0  0  0  0  0  0  0  0  0  0  0
  -37.1792   60.4072   64.9173 C   0  0  0  0  0  0  0  0  0  0  0  0
  -36.2155   58.7904   65.5957 H   0  0  0  0  0  0  0  0  0  0  0  0
  -38.1869   60.2733   66.0318 C   0  0  0  0  0  0  0  0  0  0  0  0
  -39.5478   59.8010   65.5363 C   0  0  0  0  0  0  0  0  0  0  0  0
  -40.6862   60.6879   66.0143 C   0  0  0  0  0  0  0  0  0  0  0  0
  -41.9385   59.9235   66.4100 C   0  0  0  0  0  0  0  0  0  0  0  0
  -41.7775   58.4114   66.3617 C   0  0  0  0  0  0  0  0  0  0  0  0
  -43.0854   57.6549   66.1680 C   0  0  0  0  0  0  0  0  0  0  0  0
  -43.8935   58.1184   64.9628 C   0  0  0  0  0  0  0  0  0  0  0  0
  -45.3246   58.5416   65.2842 C   0  0  0  0  0  0  0  0  0  0  0  0
  -45.6306   58.6152   66.7792 C   0  0  0  0  0  0  0  0  0  0  0  0
  -46.9251   57.9194   67.1995 C   0  0  0  0  0  0  0  0  0  0  0  0
  -47.7405   57.3868   66.0211 C   0  0  0  0  0  0  0  0  0  0  0  0
  -49.1687   57.9233   65.9270 C   0  0  0  0  0  0  0  0  0  0  0  0
  -49.2816   59.4488   65.8610 C   0  0  0  0  0  0  0  0  0  0  0  0
  -48.7157   60.0212   64.5937 C   0  0  0  0  0  0  0  0  0  0  0  0
  -49.3430   60.1174   63.4348 C   0  0  0  0  0  0  0  0  0  0  0  0
  -50.7474   59.6766   63.1531 C   0  0  0  0  0  0  0  0  0  0  0  0
  -50.8355   58.3371   62.4185 C   0  0  0  0  0  0  0  0  0  0  0  0
  -49.5537   57.9681   61.6835 C   0  0  0  0  0  0  0  0  0  0  0  0
  -49.7248   56.8006   60.7181 C   0  0  0  0  0  0  0  0  0  0  0  0
  -48.6706   56.7306   59.6192 C   0  0  0  0  0  0  0  0  0  0  0  0
  -48.5208   58.0238   58.8302 C   0  0  0  0  0  0  0  0  0  0  0  0
  -47.4045   57.9973   57.7984 C   0  0  0  0  0  0  0  0  0  0  0  0
  -47.4029   56.7323   56.9642 C   0  0  0  0  0  0  0  0  0  0  0  0
  -34.6018   58.1908   61.9050 O   0  0  0  0  0  0  0  0  0  0  0  0
  -35.1260   58.0629   63.2298 C   0  0  0  0  0  0  0  0  0  0  0  0
  -33.7229   58.5997   61.9431 H   0  0  0  0  0  0  0  0  0  0  0  0
  -36.4853   57.4339   63.2098 C   0  0  0  0  0  0  0  0  0  0  0  0
  -37.3342   57.4953   62.2029 C   0  0  0  0  0  0  0  0  0  0  0  0
  -38.6783   56.8440   62.2077 C   0  0  0  0  0  0  0  0  0  0  0  0
  -39.5844   57.4600   63.2757 C   0  0  0  0  0  0  0  0  0  0  0  0
  -40.6467   56.5145   63.8124 C   0  0  0  0  0  0  0  0  0  0  0  0
  -41.6093   55.9938   62.7589 C   0  0  0  0  0  0  0  0  0  0  0  0
  -42.0827   57.0539   61.7752 C   0  0  0  0  0  0  0  0  0  0  0  0
  -41.6208   56.8112   60.3466 C   0  0  0  0  0  0  0  0  0  0  0  0
  -41.3197   58.0848   59.5763 C   0  0  0  0  0  0  0  0  0  0  0  0
  -40.0679   58.8063   60.0398 C   0  0  0  0  0  0  0  0  0  0  0  0
  -40.2895   60.2720   60.3715 C   0  0  0  0  0  0  0  0  0  0  0  0
  -41.6782   60.5543   60.9140 C   0  0  0  0  0  0  0  0  0  0  0  0
  -41.7854   60.4892   62.4254 C   0  0  0  0  0  0  0  0  0  0  0  0
  -42.4969   61.6929   63.0114 C   0  0  0  0  0  0  0  0  0  0  0  0
  -43.0944   62.5891   61.9464 C   0  0  0  0  0  0  0  0  0  0  0  0
  -33.8292   59.8139   64.5176 C   0  0  0  0  0  0  0  0  0  0  0  0
  -33.3419   61.0032   63.8861 O   0  0  0  0  0  0  0  0  0  0  0  0
  -32.5411   63.4892   62.8764 O   0  0  0  0  0  0  0  0  0  0  0  0
  -36.2537   64.2635   64.9108 O   0  0  0  0  0  0  0  0  0  0  0  0
  -34.5487   62.0387   65.5595 O   0  0  0  0  0  0  0  0  0  0  0  0
  -33.4575   62.1576   64.6659 C   0  0  0  0  0  0  0  0  0  0  0  0
  -33.6690   63.3402   63.7294 C   0  0  0  0  0  0  0  0  0  0  0  0
  -33.8878   64.6107   64.5410 C   0  0  0  0  0  0  0  0  0  0  0  0
  -34.9983   64.4215   65.5639 C   0  0  0  0  0  0  0  0  0  0  0  0
  -34.7098   63.1845   66.4109 C   0  0  0  0  0  0  0  0  0  0  0  0
  -32.4121   62.6748   62.3656 H   0  0  0  0  0  0  0  0  0  0  0  0
  -36.4389   65.0485   64.3720 H   0  0  0  0  0  0  0  0  0  0  0  0
  -36.4232   64.0338   67.9047 O   0  0  0  0  0  0  0  0  0  0  0  0
  -35.8202   62.8560   67.3812 C   0  0  0  0  0  0  0  0  0  0  0  0
  -37.1299   63.7881   68.5222 H   0  0  0  0  0  0  0  0  0  0  0  0
  -34.2968   65.6122   63.5565 O   0  0  0  0  0  0  0  0  0  0  0  0
  -35.4796   63.9156   62.3197 O   0  0  0  0  0  0  0  0  0  0  0  0
  -33.6857   65.2854   61.2149 O   0  0  0  0  0  0  0  0  0  0  0  0
  -35.7894   66.2162   61.8018 O   0  0  0  0  0  0  0  0  0  0  0  0
  -34.7605   65.1187   62.1194 S   0  0  0  0  0  0  0  0  0  0  0  0
  -34.8592   63.1982   62.5232 H   0  0  0  0  0  0  0  0  0  0  0  0
  -36.5454   66.1348   62.4041 H   0  0  0  0  0  0  0  0  0  0  0  0
  2  1  1  0  0  0
  2  4  1  0  0  0
  2  5  1  0  0  0
 47 48  1  0  0  0
 47  1  1  0  0  0
 48 52  1  0  0  0
  1 30  1  0  0  0
 29 30  1  0  0  0
 29 31  1  0  0  0
 30 32  1  0  0  0
  3  4  2  0  0  0
 32 33  2  0  0  0
 49 53  1  0  0  0
 49 57  1  0  0  0
 33 34  1  0  0  0
 62 54  1  0  0  0
 62 66  1  0  0  0
 34 35  1  0  0  0
 50 55  1  0  0  0
 50 58  1  0  0  0
 35 36  1  0  0  0
 51 52  1  0  0  0
 51 56  1  0  0  0
 36 37  1  0  0  0
 59 60  1  0  0  0
 59 61  1  0  0  0
 37 38  1  0  0  0
 63 66  1  0  0  0
 63 67  1  0  0  0
 38 39  1  0  0  0
 64 66  1  0  0  0
 39 40  1  0  0  0
 65 66  1  0  0  0
 65 68  1  0  0  0
 40 41  1  0  0  0
 41 42  1  0  0  0
 42 43  1  0  0  0
 43 44  1  0  0  0
 44 45  1  0  0  0
 45 46  1  0  0  0
  4  6  1  0  0  0
  6  7  1  0  0  0
  7  8  1  0  0  0
  8  9  1  0  0  0
  9 10  1  0  0  0
 10 11  1  0  0  0
 11 12  1  0  0  0
 12 13  1  0  0  0
 13 14  1  0  0  0
 14 15  1  0  0  0
 15 16  1  0  0  0
 16 17  1  0  0  0
 17 18  1  0  0  0
 18 19  1  0  0  0
 19 20  2  0  0  0
 20 21  1  0  0  0
 21 22  1  0  0  0
 22 23  1  0  0  0
 23 24  1  0  0  0
 24 25  1  0  0  0
 25 26  1  0  0  0
 26 27  1  0  0  0
 27 28  1  0  0  0
 52 53  1  0  0  0
 53 54  1  0  0  0
 54 55  1  0  0  0
 55 56  1  0  0  0
 56 60  1  0  0  0
M  CHG 1  64  -1
M  END
> <minimizedAffinity>
-9.31333

> <CNNscore>
0.1270934641

> <CNNaffinity>
7.3610486984

> <CNN_VS>
0.9355411530

> <CNNaffinity_variance>
2.4905910492

$$$$
/media/chris/experiments/cd1a-new-docking/inputs/ligands/7ryn_ligand.pdb


 68 68  0  0  0  0  0  0  0  0999 V2000
  -38.5178   59.3193   61.0010 C   0  0  0  0  0  0  0  0  0  0  0  0
  -39.8673   59.4224   61.5482 N   0  0  0  0  0  0  0  0  0  0  0  0
  -40.9241   59.4560   59.5607 O   0  0  0  0  0  0  0  0  0  0  0  0
  -40.9635   59.4826   60.7874 C   0  0  0  0  0  0  0  0  0  0  0  0
  -39.9747   59.4489   62.5264 H   0  0  0  0  0  0  0  0  0  0  0  0
  -42.2709   59.5790   61.5335 C   0  0  0  0  0  0  0  0  0  0  0  0
  -42.1617   59.0870   62.9710 C   0  0  0  0  0  0  0  0  0  0  0  0
  -42.3991   57.5908   63.0985 C   0  0  0  0  0  0  0  0  0  0  0  0
  -42.0113   57.0185   64.4517 C   0  0  0  0  0  0  0  0  0  0  0  0
  -42.0668   58.0302   65.5866 C   0  0  0  0  0  0  0  0  0  0  0  0
  -42.8354   57.5476   66.8100 C   0  0  0  0  0  0  0  0  0  0  0  0
  -44.0923   58.3553   67.1071 C   0  0  0  0  0  0  0  0  0  0  0  0
  -44.8723   58.7918   65.8695 C   0  0  0  0  0  0  0  0  0  0  0  0
  -45.8689   57.7503   65.3630 C   0  0  0  0  0  0  0  0  0  0  0  0
  -47.1560   57.6493   66.1814 C   0  0  0  0  0  0  0  0  0  0  0  0
  -48.4201   57.5916   65.3235 C   0  0  0  0  0  0  0  0  0  0  0  0
  -49.6027   58.3991   65.8584 C   0  0  0  0  0  0  0  0  0  0  0  0
  -50.5941   58.8741   64.7928 C   0  0  0  0  0  0  0  0  0  0  0  0
  -50.1546   60.1360   64.1084 C   0  0  0  0  0  0  0  0  0  0  0  0
  -49.5757   60.2180   62.9236 C   0  0  0  0  0  0  0  0  0  0  0  0
  -49.2439   59.0671   62.0228 C   0  0  0  0  0  0  0  0  0  0  0  0
  -50.4736   58.3202   61.5016 C   0  0  0  0  0  0  0  0  0  0  0  0
  -50.1315   57.0109   60.8031 C   0  0  0  0  0  0  0  0  0  0  0  0
  -49.1825   57.1851   59.6227 C   0  0  0  0  0  0  0  0  0  0  0  0
  -48.1315   56.0888   59.4907 C   0  0  0  0  0  0  0  0  0  0  0  0
  -47.4613   56.0435   58.1247 C   0  0  0  0  0  0  0  0  0  0  0  0
  -47.9181   57.1359   57.1709 C   0  0  0  0  0  0  0  0  0  0  0  0
  -46.9084   58.2572   57.0324 C   0  0  0  0  0  0  0  0  0  0  0  0
  -38.9527   57.1205   61.9015 O   0  0  0  0  0  0  0  0  0  0  0  0
  -37.9146   57.9588   61.3856 C   0  0  0  0  0  0  0  0  0  0  0  0
  -39.6580   57.0356   61.2409 H   0  0  0  0  0  0  0  0  0  0  0  0
  -36.8059   58.1129   62.3811 C   0  0  0  0  0  0  0  0  0  0  0  0
  -35.8533   57.2277   62.5978 C   0  0  0  0  0  0  0  0  0  0  0  0
  -34.7516   57.4176   63.5883 C   0  0  0  0  0  0  0  0  0  0  0  0
  -33.3945   57.5194   62.8890 C   0  0  0  0  0  0  0  0  0  0  0  0
  -32.4186   58.4733   63.5587 C   0  0  0  0  0  0  0  0  0  0  0  0
  -32.5577   59.9204   63.1180 C   0  0  0  0  0  0  0  0  0  0  0  0
  -32.2510   60.1510   61.6455 C   0  0  0  0  0  0  0  0  0  0  0  0
  -30.9736   60.9406   61.4040 C   0  0  0  0  0  0  0  0  0  0  0  0
  -30.9424   62.2846   62.1103 C   0  0  0  0  0  0  0  0  0  0  0  0
  -31.8135   63.3442   61.4618 C   0  0  0  0  0  0  0  0  0  0  0  0
  -31.0305   64.4797   60.8254 C   0  0  0  0  0  0  0  0  0  0  0  0
  -31.4255   65.8445   61.3580 C   0  0  0  0  0  0  0  0  0  0  0  0
  -31.2648   66.0019   62.8579 C   0  0  0  0  0  0  0  0  0  0  0  0
  -32.5919   66.1696   63.5715 C   0  0  0  0  0  0  0  0  0  0  0  0
  -32.4462   66.1538   65.0791 C   0  0  0  0  0  0  0  0  0  0  0  0
  -37.6697   60.4757   61.4887 C   0  0  0  0  0  0  0  0  0  0  0  0
  -38.0512   60.7774   62.8356 O   0  0  0  0  0  0  0  0  0  0  0  0
  -37.8789   61.2098   65.5968 O   0  0  0  0  0  0  0  0  0  0  0  0
  -34.1234   62.6009   64.0210 O   0  0  0  0  0  0  0  0  0  0  0  0
  -36.5275   62.4673   62.4462 O   0  0  0  0  0  0  0  0  0  0  0  0
  -37.5054   61.9629   63.3366 C   0  0  0  0  0  0  0  0  0  0  0  0
  -36.8786   61.6580   64.6910 C   0  0  0  0  0  0  0  0  0  0  0  0
  -36.1934   62.9044   65.2367 C   0  0  0  0  0  0  0  0  0  0  0  0
  -35.2224   63.4844   64.2188 C   0  0  0  0  0  0  0  0  0  0  0  0
  -35.9420   63.7018   62.8900 C   0  0  0  0  0  0  0  0  0  0  0  0
  -38.3075   60.4167   65.2387 H   0  0  0  0  0  0  0  0  0  0  0  0
  -33.6648   62.4615   64.8643 H   0  0  0  0  0  0  0  0  0  0  0  0
  -35.6854   64.1904   60.5269 O   0  0  0  0  0  0  0  0  0  0  0  0
  -35.0236   64.1720   61.7865 C   0  0  0  0  0  0  0  0  0  0  0  0
  -35.0696   64.4960   59.8425 H   0  0  0  0  0  0  0  0  0  0  0  0
  -35.4513   62.4357   66.4068 O   0  0  0  0  0  0  0  0  0  0  0  0
  -36.2057   63.0453   68.6128 O   0  0  0  0  0  0  0  0  0  0  0  0
  -35.0918   64.7405   67.1294 O   0  0  0  0  0  0  0  0  0  0  0  0
  -33.8806   62.9550   68.1200 O   0  0  0  0  0  0  0  0  0  0  0  0
  -35.2594   63.4288   67.6318 S   0  0  0  0  0  0  0  0  0  0  0  0
  -37.0911   63.3294   68.3365 H   0  0  0  0  0  0  0  0  0  0  0  0
  -33.9546   62.0548   68.4737 H   0  0  0  0  0  0  0  0  0  0  0  0
  2  1  1  0  0  0
  2  4  1  0  0  0
  2  5  1  0  0  0
 47 48  1  0  0  0
 47  1  1  0  0  0
 48 52  1  0  0  0
  1 30  1  0  0  0
 29 30  1  0  0  0
 29 31  1  0  0  0
 30 32  1  0  0  0
  3  4  2  0  0  0
 32 33  2  0  0  0
 49 53  1  0  0  0
 49 57  1  0  0  0
 33 34  1  0  0  0
 62 54  1  0  0  0
 62 66  1  0  0  0
 34 35  1  0  0  0
 50 55  1  0  0  0
 50 58  1  0  0  0
 35 36  1  0  0  0
 51 52  1  0  0  0
 51 56  1  0  0  0
 36 37  1  0  0  0
 59 60  1  0  0  0
 59 61  1  0  0  0
 37 38  1  0  0  0
 63 66  1  0  0  0
 63 67  1  0  0  0
 38 39  1  0  0  0
 64 66  1  0  0  0
 39 40  1  0  0  0
 65 66  1  0  0  0
 65 68  1  0  0  0
 40 41  1  0  0  0
 41 42  1  0  0  0
 42 43  1  0  0  0
 43 44  1  0  0  0
 44 45  1  0  0  0
 45 46  1  0  0  0
  4  6  1  0  0  0
  6  7  1  0  0  0
  7  8  1  0  0  0
  8  9  1  0  0  0
  9 10  1  0  0  0
 10 11  1  0  0  0
 11 12  1  0  0  0
 12 13  1  0  0  0
 13 14  1  0  0  0
 14 15  1  0  0  0
 15 16  1  0  0  0
 16 17  1  0  0  0
 17 18  1  0  0  0
 18 19  1  0  0  0
 19 20  2  0  0  0
 20 21  1  0  0  0
 21 22  1  0  0  0
 22 23  1  0  0  0
 23 24  1  0  0  0
 24 25  1  0  0  0
 25 26  1  0  0  0
 26 27  1  0  0  0
 27 28  1  0  0  0
 52 53  1  0  0  0
 53 54  1  0  0  0
 54 55  1  0  0  0
 55 56  1  0  0  0
 56 60  1  0  0  0
M  CHG 1  64  -1
M  END
> <minimizedAffinity>
-7.65591

> <CNNscore>
0.1260300428

> <CNNaffinity>
6.9877519608

> <CNN_VS>
0.8806666732

> <CNNaffinity_variance>
0.8919475675

$$$$
/media/chris/experiments/cd1a-new-docking/inputs/ligands/7ryn_ligand.pdb


 68 68  0  0  0  0  0  0  0  0999 V2000
  -38.7628   60.0016   61.4844 C   0  0  0  0  0  0  0  0  0  0  0  0
  -39.8368   59.0524   61.7614 N   0  0  0  0  0  0  0  0  0  0  0  0
  -41.1113   59.6183   59.9941 O   0  0  0  0  0  0  0  0  0  0  0  0
  -40.9254   58.9345   60.9965 C   0  0  0  0  0  0  0  0  0  0  0  0
  -39.7545   58.4703   62.5511 H   0  0  0  0  0  0  0  0  0  0  0  0
  -41.9231   57.8928   61.4379 C   0  0  0  0  0  0  0  0  0  0  0  0
  -41.3330   56.4885   61.4567 C   0  0  0  0  0  0  0  0  0  0  0  0
  -41.2168   55.9199   62.8618 C   0  0  0  0  0  0  0  0  0  0  0  0
  -41.5504   56.9164   63.9593 C   0  0  0  0  0  0  0  0  0  0  0  0
  -42.2350   56.2950   65.1675 C   0  0  0  0  0  0  0  0  0  0  0  0
  -43.3622   57.1417   65.7447 C   0  0  0  0  0  0  0  0  0  0  0  0
  -44.4219   57.5364   64.7241 C   0  0  0  0  0  0  0  0  0  0  0  0
  -45.4551   58.5361   65.2376 C   0  0  0  0  0  0  0  0  0  0  0  0
  -45.5743   58.5806   66.7602 C   0  0  0  0  0  0  0  0  0  0  0  0
  -46.8305   57.9139   67.3206 C   0  0  0  0  0  0  0  0  0  0  0  0
  -47.6872   57.2340   66.2524 C   0  0  0  0  0  0  0  0  0  0  0  0
  -49.0070   57.9375   65.9367 C   0  0  0  0  0  0  0  0  0  0  0  0
  -48.9903   59.4564   66.1283 C   0  0  0  0  0  0  0  0  0  0  0  0
  -48.6548   60.1996   64.8677 C   0  0  0  0  0  0  0  0  0  0  0  0
  -49.4626   60.3944   63.8403 C   0  0  0  0  0  0  0  0  0  0  0  0
  -50.8780   59.9147   63.7282 C   0  0  0  0  0  0  0  0  0  0  0  0
  -51.0517   58.7300   62.7753 C   0  0  0  0  0  0  0  0  0  0  0  0
  -49.7727   58.3589   62.0367 C   0  0  0  0  0  0  0  0  0  0  0  0
  -49.9907   58.0748   60.5548 C   0  0  0  0  0  0  0  0  0  0  0  0
  -48.7331   58.1816   59.6999 C   0  0  0  0  0  0  0  0  0  0  0  0
  -48.0067   56.8574   59.5101 C   0  0  0  0  0  0  0  0  0  0  0  0
  -47.1365   56.7981   58.2648 C   0  0  0  0  0  0  0  0  0  0  0  0
  -47.7223   57.5690   57.0992 C   0  0  0  0  0  0  0  0  0  0  0  0
  -38.3150   58.6866   59.5084 O   0  0  0  0  0  0  0  0  0  0  0  0
  -37.6858   59.3168   60.6278 C   0  0  0  0  0  0  0  0  0  0  0  0
  -38.8181   59.3468   59.0063 H   0  0  0  0  0  0  0  0  0  0  0  0
  -36.8983   58.3251   61.4281 C   0  0  0  0  0  0  0  0  0  0  0  0
  -35.5890   58.3440   61.5820 C   0  0  0  0  0  0  0  0  0  0  0  0
  -34.8336   57.3483   62.3997 C   0  0  0  0  0  0  0  0  0  0  0  0
  -34.3594   57.9647   63.7173 C   0  0  0  0  0  0  0  0  0  0  0  0
  -35.4760   58.2531   64.7076 C   0  0  0  0  0  0  0  0  0  0  0  0
  -36.4561   57.1077   64.8951 C   0  0  0  0  0  0  0  0  0  0  0  0
  -37.9147   57.5401   64.9249 C   0  0  0  0  0  0  0  0  0  0  0  0
  -38.1385   58.8889   65.5912 C   0  0  0  0  0  0  0  0  0  0  0  0
  -39.5349   59.0655   66.1613 C   0  0  0  0  0  0  0  0  0  0  0  0
  -40.1451   60.4282   65.8910 C   0  0  0  0  0  0  0  0  0  0  0  0
  -41.6209   60.5215   66.2384 C   0  0  0  0  0  0  0  0  0  0  0  0
  -42.5214   60.4850   65.0176 C   0  0  0  0  0  0  0  0  0  0  0  0
  -41.9169   61.1094   63.7747 C   0  0  0  0  0  0  0  0  0  0  0  0
  -42.9088   61.2110   62.6325 C   0  0  0  0  0  0  0  0  0  0  0  0
  -43.0715   62.6305   62.1297 C   0  0  0  0  0  0  0  0  0  0  0  0
  -38.1989   60.5413   62.7825 C   0  0  0  0  0  0  0  0  0  0  0  0
  -37.3214   61.6302   62.4742 O   0  0  0  0  0  0  0  0  0  0  0  0
  -35.1240   63.2822   61.9417 O   0  0  0  0  0  0  0  0  0  0  0  0
  -36.5548   64.5503   65.7974 O   0  0  0  0  0  0  0  0  0  0  0  0
  -37.0210   61.9133   64.7455 O   0  0  0  0  0  0  0  0  0  0  0  0
  -36.3926   61.9228   63.4772 C   0  0  0  0  0  0  0  0  0  0  0  0
  -35.8055   63.2986   63.1896 C   0  0  0  0  0  0  0  0  0  0  0  0
  -34.8500   63.6977   64.3070 C   0  0  0  0  0  0  0  0  0  0  0  0
  -35.5207   63.5801   65.6678 C   0  0  0  0  0  0  0  0  0  0  0  0
  -36.1151   62.1830   65.8273 C   0  0  0  0  0  0  0  0  0  0  0  0
  -35.7421   63.0270   61.2390 H   0  0  0  0  0  0  0  0  0  0  0  0
  -36.1791   65.4388   65.6964 H   0  0  0  0  0  0  0  0  0  0  0  0
  -36.3849   62.8344   68.1492 O   0  0  0  0  0  0  0  0  0  0  0  0
  -36.8994   62.0131   67.1073 C   0  0  0  0  0  0  0  0  0  0  0  0
  -36.9094   62.7016   68.9544 H   0  0  0  0  0  0  0  0  0  0  0  0
  -34.5331   65.1002   64.0387 O   0  0  0  0  0  0  0  0  0  0  0  0
  -32.4338   64.3684   63.1090 O   0  0  0  0  0  0  0  0  0  0  0  0
  -32.4973   66.1696   64.8602 O   0  0  0  0  0  0  0  0  0  0  0  0
  -33.2588   66.5502   62.6440 O   0  0  0  0  0  0  0  0  0  0  0  0
  -33.0240   65.4928   63.7352 S   0  0  0  0  0  0  0  0  0  0  0  0
  -32.2709   63.6781   63.7708 H   0  0  0  0  0  0  0  0  0  0  0  0
  -33.6215   66.1229   61.8523 H   0  0  0  0  0  0  0  0  0  0  0  0
  2  1  1  0  0  0
  2  4  1  0  0  0
  2  5  1  0  0  0
 47 48  1  0  0  0
 47  1  1  0  0  0
 48 52  1  0  0  0
  1 30  1  0  0  0
 29 30  1  0  0  0
 29 31  1  0  0  0
 30 32  1  0  0  0
  3  4  2  0  0  0
 32 33  2  0  0  0
 49 53  1  0  0  0
 49 57  1  0  0  0
 33 34  1  0  0  0
 62 54  1  0  0  0
 62 66  1  0  0  0
 34 35  1  0  0  0
 50 55  1  0  0  0
 50 58  1  0  0  0
 35 36  1  0  0  0
 51 52  1  0  0  0
 51 56  1  0  0  0
 36 37  1  0  0  0
 59 60  1  0  0  0
 59 61  1  0  0  0
 37 38  1  0  0  0
 63 66  1  0  0  0
 63 67  1  0  0  0
 38 39  1  0  0  0
 64 66  1  0  0  0
 39 40  1  0  0  0
 65 66  1  0  0  0
 65 68  1  0  0  0
 40 41  1  0  0  0
 41 42  1  0  0  0
 42 43  1  0  0  0
 43 44  1  0  0  0
 44 45  1  0  0  0
 45 46  1  0  0  0
  4  6  1  0  0  0
  6  7  1  0  0  0
  7  8  1  0  0  0
  8  9  1  0  0  0
  9 10  1  0  0  0
 10 11  1  0  0  0
 11 12  1  0  0  0
 12 13  1  0  0  0
 13 14  1  0  0  0
 14 15  1  0  0  0
 15 16  1  0  0  0
 16 17  1  0  0  0
 17 18  1  0  0  0
 18 19  1  0  0  0
 19 20  2  0  0  0
 20 21  1  0  0  0
 21 22  1  0  0  0
 22 23  1  0  0  0
 23 24  1  0  0  0
 24 25  1  0  0  0
 25 26  1  0  0  0
 26 27  1  0  0  0
 27 28  1  0  0  0
 52 53  1  0  0  0
 53 54  1  0  0  0
 54 55  1  0  0  0
 55 56  1  0  0  0
 56 60  1  0  0  0
M  CHG 1  64  -1
M  END
> <minimizedAffinity>
-8.74432

> <CNNscore>
0.1221020073

> <CNNaffinity>
7.5765457153

> <CNN_VS>
0.9251114130

> <CNNaffinity_variance>
1.9842513800

$$$$
/media/chris/experiments/cd1a-new-docking/inputs/ligands/7ryn_ligand.pdb


 68 68  0  0  0  0  0  0  0  0999 V2000
  -38.7442   60.8867   62.0273 C   0  0  0  0  0  0  0  0  0  0  0  0
  -39.6798   60.4986   63.0787 N   0  0  0  0  0  0  0  0  0  0  0  0
  -41.5164   61.3297   62.0767 O   0  0  0  0  0  0  0  0  0  0  0  0
  -40.9904   60.7496   63.0221 C   0  0  0  0  0  0  0  0  0  0  0  0
  -39.3271   60.0286   63.8686 H   0  0  0  0  0  0  0  0  0  0  0  0
  -41.7989   60.2654   64.2000 C   0  0  0  0  0  0  0  0  0  0  0  0
  -41.0255   60.3397   65.5104 C   0  0  0  0  0  0  0  0  0  0  0  0
  -41.8382   60.9572   66.6369 C   0  0  0  0  0  0  0  0  0  0  0  0
  -42.6769   59.9553   67.4127 C   0  0  0  0  0  0  0  0  0  0  0  0
  -42.2949   58.5049   67.1577 C   0  0  0  0  0  0  0  0  0  0  0  0
  -43.4474   57.6375   66.6680 C   0  0  0  0  0  0  0  0  0  0  0  0
  -44.7142   58.4194   66.3454 C   0  0  0  0  0  0  0  0  0  0  0  0
  -45.0099   58.5597   64.8543 C   0  0  0  0  0  0  0  0  0  0  0  0
  -46.4969   58.6772   64.5233 C   0  0  0  0  0  0  0  0  0  0  0  0
  -47.4065   58.8680   65.7369 C   0  0  0  0  0  0  0  0  0  0  0  0
  -48.3435   57.6863   65.9874 C   0  0  0  0  0  0  0  0  0  0  0  0
  -49.8328   58.0303   65.9898 C   0  0  0  0  0  0  0  0  0  0  0  0
  -50.1494   59.5264   65.9163 C   0  0  0  0  0  0  0  0  0  0  0  0
  -51.1771   59.8545   64.8721 C   0  0  0  0  0  0  0  0  0  0  0  0
  -50.9512   60.0118   63.5798 C   0  0  0  0  0  0  0  0  0  0  0  0
  -49.6232   59.8912   62.8958 C   0  0  0  0  0  0  0  0  0  0  0  0
  -49.7277   59.5732   61.4026 C   0  0  0  0  0  0  0  0  0  0  0  0
  -50.1635   58.1414   61.1210 C   0  0  0  0  0  0  0  0  0  0  0  0
  -50.0476   57.7517   59.6517 C   0  0  0  0  0  0  0  0  0  0  0  0
  -48.6403   57.8673   59.0772 C   0  0  0  0  0  0  0  0  0  0  0  0
  -47.9059   56.5373   58.9823 C   0  0  0  0  0  0  0  0  0  0  0  0
  -47.1945   56.3126   57.6575 C   0  0  0  0  0  0  0  0  0  0  0  0
  -46.9412   57.5996   56.8989 C   0  0  0  0  0  0  0  0  0  0  0  0
  -37.7130   59.9931   60.0342 O   0  0  0  0  0  0  0  0  0  0  0  0
  -38.2208   59.6262   61.3202 C   0  0  0  0  0  0  0  0  0  0  0  0
  -37.0239   60.6677   60.1390 H   0  0  0  0  0  0  0  0  0  0  0  0
  -39.2895   58.5838   61.1969 C   0  0  0  0  0  0  0  0  0  0  0  0
  -40.2145   58.5539   60.2579 C   0  0  0  0  0  0  0  0  0  0  0  0
  -41.2588   57.4912   60.1531 C   0  0  0  0  0  0  0  0  0  0  0  0
  -41.8610   57.1746   61.5235 C   0  0  0  0  0  0  0  0  0  0  0  0
  -41.3026   55.9196   62.1746 C   0  0  0  0  0  0  0  0  0  0  0  0
  -41.6338   55.7814   63.6507 C   0  0  0  0  0  0  0  0  0  0  0  0
  -40.9654   56.8239   64.5350 C   0  0  0  0  0  0  0  0  0  0  0  0
  -39.5537   57.1823   64.0967 C   0  0  0  0  0  0  0  0  0  0  0  0
  -38.6469   57.6043   65.2393 C   0  0  0  0  0  0  0  0  0  0  0  0
  -37.3793   58.3095   64.7943 C   0  0  0  0  0  0  0  0  0  0  0  0
  -36.2444   57.3663   64.4340 C   0  0  0  0  0  0  0  0  0  0  0  0
  -35.9643   57.3168   62.9436 C   0  0  0  0  0  0  0  0  0  0  0  0
  -34.6624   57.9751   62.5288 C   0  0  0  0  0  0  0  0  0  0  0  0
  -33.7340   58.2204   63.7021 C   0  0  0  0  0  0  0  0  0  0  0  0
  -32.3942   58.7827   63.2744 C   0  0  0  0  0  0  0  0  0  0  0  0
  -37.6214   61.7184   62.6121 C   0  0  0  0  0  0  0  0  0  0  0  0
  -36.5096   60.8544   62.8729 O   0  0  0  0  0  0  0  0  0  0  0  0
  -33.9307   61.8498   62.4266 O   0  0  0  0  0  0  0  0  0  0  0  0
  -35.6116   64.4343   65.4293 O   0  0  0  0  0  0  0  0  0  0  0  0
  -36.5117   61.7345   65.0070 O   0  0  0  0  0  0  0  0  0  0  0  0
  -35.7075   61.2561   63.9450 C   0  0  0  0  0  0  0  0  0  0  0  0
  -34.7766   62.3561   63.4513 C   0  0  0  0  0  0  0  0  0  0  0  0
  -33.9418   62.8867   64.6100 C   0  0  0  0  0  0  0  0  0  0  0  0
  -34.8265   63.2986   65.7775 C   0  0  0  0  0  0  0  0  0  0  0  0
  -35.7494   62.1422   66.1542 C   0  0  0  0  0  0  0  0  0  0  0  0
  -34.4731   61.5152   61.6954 H   0  0  0  0  0  0  0  0  0  0  0  0
  -35.0271   65.1703   65.1896 H   0  0  0  0  0  0  0  0  0  0  0  0
  -36.1561   63.3334   68.2289 O   0  0  0  0  0  0  0  0  0  0  0  0
  -36.7426   62.5018   67.2343 C   0  0  0  0  0  0  0  0  0  0  0  0
  -36.8185   63.5450   68.9052 H   0  0  0  0  0  0  0  0  0  0  0  0
  -33.2670   64.0663   64.0693 O   0  0  0  0  0  0  0  0  0  0  0  0
  -31.2959   65.3606   63.5722 O   0  0  0  0  0  0  0  0  0  0  0  0
  -31.2598   62.8547   63.3863 O   0  0  0  0  0  0  0  0  0  0  0  0
  -31.3579   63.9533   65.4887 O   0  0  0  0  0  0  0  0  0  0  0  0
  -31.6803   64.0632   63.9894 S   0  0  0  0  0  0  0  0  0  0  0  0
  -31.4858   65.4657   62.6268 H   0  0  0  0  0  0  0  0  0  0  0  0
  -31.6329   64.7671   65.9391 H   0  0  0  0  0  0  0  0  0  0  0  0
  2  1  1  0  0  0
  2  4  1  0  0  0
  2  5  1  0  0  0
 47 48  1  0  0  0
 47  1  1  0  0  0
 48 52  1  0  0  0
  1 30  1  0  0  0
 29 30  1  0  0  0
 29 31  1  0  0  0
 30 32  1  0  0  0
  3  4  2  0  0  0
 32 33  2  0  0  0
 49 53  1  0  0  0
 49 57  1  0  0  0
 33 34  1  0  0  0
 62 54  1  0  0  0
 62 66  1  0  0  0
 34 35  1  0  0  0
 50 55  1  0  0  0
 50 58  1  0  0  0
 35 36  1  0  0  0
 51 52  1  0  0  0
 51 56  1  0  0  0
 36 37  1  0  0  0
 59 60  1  0  0  0
 59 61  1  0  0  0
 37 38  1  0  0  0
 63 66  1  0  0  0
 63 67  1  0  0  0
 38 39  1  0  0  0
 64 66  1  0  0  0
 39 40  1  0  0  0
 65 66  1  0  0  0
 65 68  1  0  0  0
 40 41  1  0  0  0
 41 42  1  0  0  0
 42 43  1  0  0  0
 43 44  1  0  0  0
 44 45  1  0  0  0
 45 46  1  0  0  0
  4  6  1  0  0  0
  6  7  1  0  0  0
  7  8  1  0  0  0
  8  9  1  0  0  0
  9 10  1  0  0  0
 10 11  1  0  0  0
 11 12  1  0  0  0
 12 13  1  0  0  0
 13 14  1  0  0  0
 14 15  1  0  0  0
 15 16  1  0  0  0
 16 17  1  0  0  0
 17 18  1  0  0  0
 18 19  1  0  0  0
 19 20  2  0  0  0
 20 21  1  0  0  0
 21 22  1  0  0  0
 22 23  1  0  0  0
 23 24  1  0  0  0
 24 25  1  0  0  0
 25 26  1  0  0  0
 26 27  1  0  0  0
 27 28  1  0  0  0
 52 53  1  0  0  0
 53 54  1  0  0  0
 54 55  1  0  0  0
 55 56  1  0  0  0
 56 60  1  0  0  0
M  CHG 1  64  -1
M  END
> <minimizedAffinity>
-9.02134

> <CNNscore>
0.1194131821

> <CNNaffinity>
7.5098137856

> <CNN_VS>
0.8967707753

> <CNNaffinity_variance>
1.7069298029

$$$$
/media/chris/experiments/cd1a-new-docking/inputs/ligands/7ryn_ligand.pdb


 68 68  0  0  0  0  0  0  0  0999 V2000
  -37.7394   59.7111   61.5772 C   0  0  0  0  0  0  0  0  0  0  0  0
  -39.1726   59.5830   61.3302 N   0  0  0  0  0  0  0  0  0  0  0  0
  -38.9850   58.9800   59.1694 O   0  0  0  0  0  0  0  0  0  0  0  0
  -39.6832   59.2282   60.1481 C   0  0  0  0  0  0  0  0  0  0  0  0
  -39.7933   59.7673   62.0717 H   0  0  0  0  0  0  0  0  0  0  0  0
  -41.1879   59.1417   60.0869 C   0  0  0  0  0  0  0  0  0  0  0  0
  -41.7651   58.2249   61.1579 C   0  0  0  0  0  0  0  0  0  0  0  0
  -41.4758   56.7565   60.8910 C   0  0  0  0  0  0  0  0  0  0  0  0
  -41.2959   55.9252   62.1503 C   0  0  0  0  0  0  0  0  0  0  0  0
  -41.3430   56.7374   63.4358 C   0  0  0  0  0  0  0  0  0  0  0  0
  -42.1444   56.0825   64.5536 C   0  0  0  0  0  0  0  0  0  0  0  0
  -43.1554   57.0112   65.2135 C   0  0  0  0  0  0  0  0  0  0  0  0
  -43.9706   57.8565   64.2381 C   0  0  0  0  0  0  0  0  0  0  0  0
  -45.3045   58.3437   64.8014 C   0  0  0  0  0  0  0  0  0  0  0  0
  -45.8191   57.5468   66.0001 C   0  0  0  0  0  0  0  0  0  0  0  0
  -47.2953   57.7968   66.3091 C   0  0  0  0  0  0  0  0  0  0  0  0
  -47.6279   59.2140   66.7757 C   0  0  0  0  0  0  0  0  0  0  0  0
  -48.8681   59.8328   66.1252 C   0  0  0  0  0  0  0  0  0  0  0  0
  -48.6196   60.2957   64.7188 C   0  0  0  0  0  0  0  0  0  0  0  0
  -49.3938   60.0619   63.6740 C   0  0  0  0  0  0  0  0  0  0  0  0
  -50.6782   59.2896   63.6834 C   0  0  0  0  0  0  0  0  0  0  0  0
  -50.9100   58.4671   62.4141 C   0  0  0  0  0  0  0  0  0  0  0  0
  -49.8742   58.7297   61.3289 C   0  0  0  0  0  0  0  0  0  0  0  0
  -50.0485   57.8449   60.0997 C   0  0  0  0  0  0  0  0  0  0  0  0
  -49.1193   56.6373   60.0542 C   0  0  0  0  0  0  0  0  0  0  0  0
  -47.8721   56.8550   59.2091 C   0  0  0  0  0  0  0  0  0  0  0  0
  -48.1147   57.6478   57.9346 C   0  0  0  0  0  0  0  0  0  0  0  0
  -46.8338   57.9916   57.2017 C   0  0  0  0  0  0  0  0  0  0  0  0
  -37.9876   57.3197   61.8104 O   0  0  0  0  0  0  0  0  0  0  0  0
  -37.0684   58.3387   61.4067 C   0  0  0  0  0  0  0  0  0  0  0  0
  -38.8035   57.3962   61.2912 H   0  0  0  0  0  0  0  0  0  0  0  0
  -35.7940   58.2513   62.1892 C   0  0  0  0  0  0  0  0  0  0  0  0
  -34.5949   58.0812   61.6683 C   0  0  0  0  0  0  0  0  0  0  0  0
  -33.3399   58.0129   62.4754 C   0  0  0  0  0  0  0  0  0  0  0  0
  -33.4046   58.9610   63.6745 C   0  0  0  0  0  0  0  0  0  0  0  0
  -33.8954   58.3102   64.9576 C   0  0  0  0  0  0  0  0  0  0  0  0
  -35.3921   58.4330   65.1873 C   0  0  0  0  0  0  0  0  0  0  0  0
  -36.1622   57.1420   64.9512 C   0  0  0  0  0  0  0  0  0  0  0  0
  -37.6395   57.2396   65.2997 C   0  0  0  0  0  0  0  0  0  0  0  0
  -38.1391   58.6655   65.4529 C   0  0  0  0  0  0  0  0  0  0  0  0
  -39.6437   58.7796   65.6122 C   0  0  0  0  0  0  0  0  0  0  0  0
  -40.1613   60.2069   65.5631 C   0  0  0  0  0  0  0  0  0  0  0  0
  -41.4942   60.3306   64.8486 C   0  0  0  0  0  0  0  0  0  0  0  0
  -41.4217   61.0284   63.5040 C   0  0  0  0  0  0  0  0  0  0  0  0
  -42.7638   61.0785   62.8005 C   0  0  0  0  0  0  0  0  0  0  0  0
  -43.0795   62.4539   62.2502 C   0  0  0  0  0  0  0  0  0  0  0  0
  -37.4997   60.2943   62.9544 C   0  0  0  0  0  0  0  0  0  0  0  0
  -36.2217   60.9405   62.9537 O   0  0  0  0  0  0  0  0  0  0  0  0
  -35.7952   61.7125   65.6114 O   0  0  0  0  0  0  0  0  0  0  0  0
  -33.5841   64.5607   63.2617 O   0  0  0  0  0  0  0  0  0  0  0  0
  -35.8401   63.1004   62.2342 O   0  0  0  0  0  0  0  0  0  0  0  0
  -36.2589   62.2900   63.3165 C   0  0  0  0  0  0  0  0  0  0  0  0
  -35.3321   62.4833   64.5098 C   0  0  0  0  0  0  0  0  0  0  0  0
  -35.2733   63.9584   64.8860 C   0  0  0  0  0  0  0  0  0  0  0  0
  -34.9209   64.8165   63.6799 C   0  0  0  0  0  0  0  0  0  0  0  0
  -35.8782   64.5052   62.5321 C   0  0  0  0  0  0  0  0  0  0  0  0
  -35.8283   60.7763   65.3597 H   0  0  0  0  0  0  0  0  0  0  0  0
  -32.9742   64.7579   63.9897 H   0  0  0  0  0  0  0  0  0  0  0  0
  -35.5678   64.3623   60.1296 O   0  0  0  0  0  0  0  0  0  0  0  0
  -35.5310   65.2330   61.2544 C   0  0  0  0  0  0  0  0  0  0  0  0
  -35.3408   64.8596   59.3282 H   0  0  0  0  0  0  0  0  0  0  0  0
  -34.2004   64.0445   65.8763 O   0  0  0  0  0  0  0  0  0  0  0  0
  -33.7677   62.7609   67.8694 O   0  0  0  0  0  0  0  0  0  0  0  0
  -35.9666   63.9374   67.5592 O   0  0  0  0  0  0  0  0  0  0  0  0
  -33.9574   65.1291   67.9827 O   0  0  0  0  0  0  0  0  0  0  0  0
  -34.5635   63.8378   67.4090 S   0  0  0  0  0  0  0  0  0  0  0  0
  -34.1226   61.9264   67.5252 H   0  0  0  0  0  0  0  0  0  0  0  0
  -32.9917   65.0987   67.8975 H   0  0  0  0  0  0  0  0  0  0  0  0
  2  1  1  0  0  0
  2  4  1  0  0  0
  2  5  1  0  0  0
 47 48  1  0  0  0
 47  1  1  0  0  0
 48 52  1  0  0  0
  1 30  1  0  0  0
 29 30  1  0  0  0
 29 31  1  0  0  0
 30 32  1  0  0  0
  3  4  2  0  0  0
 32 33  2  0  0  0
 49 53  1  0  0  0
 49 57  1  0  0  0
 33 34  1  0  0  0
 62 54  1  0  0  0
 62 66  1  0  0  0
 34 35  1  0  0  0
 50 55  1  0  0  0
 50 58  1  0  0  0
 35 36  1  0  0  0
 51 52  1  0  0  0
 51 56  1  0  0  0
 36 37  1  0  0  0
 59 60  1  0  0  0
 59 61  1  0  0  0
 37 38  1  0  0  0
 63 66  1  0  0  0
 63 67  1  0  0  0
 38 39  1  0  0  0
 64 66  1  0  0  0
 39 40  1  0  0  0
 65 66  1  0  0  0
 65 68  1  0  0  0
 40 41  1  0  0  0
 41 42  1  0  0  0
 42 43  1  0  0  0
 43 44  1  0  0  0
 44 45  1  0  0  0
 45 46  1  0  0  0
  4  6  1  0  0  0
  6  7  1  0  0  0
  7  8  1  0  0  0
  8  9  1  0  0  0
  9 10  1  0  0  0
 10 11  1  0  0  0
 11 12  1  0  0  0
 12 13  1  0  0  0
 13 14  1  0  0  0
 14 15  1  0  0  0
 15 16  1  0  0  0
 16 17  1  0  0  0
 17 18  1  0  0  0
 18 19  1  0  0  0
 19 20  2  0  0  0
 20 21  1  0  0  0
 21 22  1  0  0  0
 22 23  1  0  0  0
 23 24  1  0  0  0
 24 25  1  0  0  0
 25 26  1  0  0  0
 26 27  1  0  0  0
 27 28  1  0  0  0
 52 53  1  0  0  0
 53 54  1  0  0  0
 54 55  1  0  0  0
 55 56  1  0  0  0
 56 60  1  0  0  0
M  CHG 1  64  -1
M  END
> <minimizedAffinity>
-8.76150

> <CNNscore>
0.1174535081

> <CNNaffinity>
7.3013315201

> <CNN_VS>
0.8575670123

> <CNNaffinity_variance>
1.9440400600

$$$$
/media/chris/experiments/cd1a-new-docking/inputs/ligands/7ryn_ligand.pdb


 68 68  0  0  0  0  0  0  0  0999 V2000
  -36.3286   59.5361   63.6883 C   0  0  0  0  0  0  0  0  0  0  0  0
  -37.3913   60.1246   64.4979 N   0  0  0  0  0  0  0  0  0  0  0  0
  -38.1011   58.1868   65.3974 O   0  0  0  0  0  0  0  0  0  0  0  0
  -38.1935   59.4061   65.2880 C   0  0  0  0  0  0  0  0  0  0  0  0
  -37.5232   61.0995   64.4596 H   0  0  0  0  0  0  0  0  0  0  0  0
  -39.2287   60.1914   66.0541 C   0  0  0  0  0  0  0  0  0  0  0  0
  -40.5900   59.5077   66.0671 C   0  0  0  0  0  0  0  0  0  0  0  0
  -41.6782   60.3792   66.6733 C   0  0  0  0  0  0  0  0  0  0  0  0
  -42.8406   59.5951   67.2591 C   0  0  0  0  0  0  0  0  0  0  0  0
  -42.8506   58.1249   66.8678 C   0  0  0  0  0  0  0  0  0  0  0  0
  -44.2374   57.5752   66.5594 C   0  0  0  0  0  0  0  0  0  0  0  0
  -45.3388   58.6271   66.5899 C   0  0  0  0  0  0  0  0  0  0  0  0
  -46.1972   58.6825   65.3288 C   0  0  0  0  0  0  0  0  0  0  0  0
  -47.6580   59.0487   65.5863 C   0  0  0  0  0  0  0  0  0  0  0  0
  -48.4878   57.9406   66.2346 C   0  0  0  0  0  0  0  0  0  0  0  0
  -49.9871   58.0639   65.9622 C   0  0  0  0  0  0  0  0  0  0  0  0
  -50.4871   59.4891   65.7266 C   0  0  0  0  0  0  0  0  0  0  0  0
  -51.1678   59.7187   64.3746 C   0  0  0  0  0  0  0  0  0  0  0  0
  -50.2380   60.2889   63.3428 C   0  0  0  0  0  0  0  0  0  0  0  0
  -49.5949   59.6061   62.4122 C   0  0  0  0  0  0  0  0  0  0  0  0
  -49.6667   58.1245   62.1977 C   0  0  0  0  0  0  0  0  0  0  0  0
  -50.6505   57.7092   61.1017 C   0  0  0  0  0  0  0  0  0  0  0  0
  -50.2134   58.1364   59.7068 C   0  0  0  0  0  0  0  0  0  0  0  0
  -48.7269   57.9204   59.4461 C   0  0  0  0  0  0  0  0  0  0  0  0
  -48.3136   56.4582   59.3233 C   0  0  0  0  0  0  0  0  0  0  0  0
  -47.0085   56.2515   58.5676 C   0  0  0  0  0  0  0  0  0  0  0  0
  -46.6766   57.3620   57.5836 C   0  0  0  0  0  0  0  0  0  0  0  0
  -47.7862   57.6135   56.5828 C   0  0  0  0  0  0  0  0  0  0  0  0
  -35.7322   57.3202   62.9342 O   0  0  0  0  0  0  0  0  0  0  0  0
  -36.8319   58.2262   63.0610 C   0  0  0  0  0  0  0  0  0  0  0  0
  -35.3279   57.1785   63.8046 H   0  0  0  0  0  0  0  0  0  0  0  0
  -37.4819   58.4690   61.7334 C   0  0  0  0  0  0  0  0  0  0  0  0
  -38.3115   59.4579   61.4652 C   0  0  0  0  0  0  0  0  0  0  0  0
  -38.9323   59.6821   60.1254 C   0  0  0  0  0  0  0  0  0  0  0  0
  -39.6342   58.4177   59.6257 C   0  0  0  0  0  0  0  0  0  0  0  0
  -41.1472   58.4471   59.7686 C   0  0  0  0  0  0  0  0  0  0  0  0
  -41.7192   57.3059   60.5921 C   0  0  0  0  0  0  0  0  0  0  0  0
  -40.7127   56.6535   61.5285 C   0  0  0  0  0  0  0  0  0  0  0  0
  -40.7551   57.1998   62.9473 C   0  0  0  0  0  0  0  0  0  0  0  0
  -42.0998   57.0237   63.6308 C   0  0  0  0  0  0  0  0  0  0  0  0
  -43.1920   57.9261   63.0877 C   0  0  0  0  0  0  0  0  0  0  0  0
  -43.0741   59.3729   63.5353 C   0  0  0  0  0  0  0  0  0  0  0  0
  -42.3415   60.2462   62.5337 C   0  0  0  0  0  0  0  0  0  0  0  0
  -41.6270   61.4362   63.1450 C   0  0  0  0  0  0  0  0  0  0  0  0
  -42.4537   62.7057   63.0852 C   0  0  0  0  0  0  0  0  0  0  0  0
  -43.2695   62.8076   61.8130 C   0  0  0  0  0  0  0  0  0  0  0  0
  -35.0895   59.3228   64.5331 C   0  0  0  0  0  0  0  0  0  0  0  0
  -33.9870   59.9689   63.8869 O   0  0  0  0  0  0  0  0  0  0  0  0
  -32.8263   61.8908   62.2134 O   0  0  0  0  0  0  0  0  0  0  0  0
  -35.8900   64.0064   64.3722 O   0  0  0  0  0  0  0  0  0  0  0  0
  -34.6428   61.6128   65.3688 O   0  0  0  0  0  0  0  0  0  0  0  0
  -33.7131   61.2541   64.3636 C   0  0  0  0  0  0  0  0  0  0  0  0
  -33.8047   62.2217   63.1908 C   0  0  0  0  0  0  0  0  0  0  0  0
  -33.5989   63.6497   63.6803 C   0  0  0  0  0  0  0  0  0  0  0  0
  -34.5419   63.9748   64.8295 C   0  0  0  0  0  0  0  0  0  0  0  0
  -34.4030   62.9169   65.9214 C   0  0  0  0  0  0  0  0  0  0  0  0
  -32.9676   60.9804   61.9099 H   0  0  0  0  0  0  0  0  0  0  0  0
  -35.9803   64.6780   63.6782 H   0  0  0  0  0  0  0  0  0  0  0  0
  -36.5587   62.3180   66.8609 O   0  0  0  0  0  0  0  0  0  0  0  0
  -35.3855   63.0995   67.0545 C   0  0  0  0  0  0  0  0  0  0  0  0
  -37.1667   62.4580   67.6038 H   0  0  0  0  0  0  0  0  0  0  0  0
  -33.9285   64.4867   62.5270 O   0  0  0  0  0  0  0  0  0  0  0  0
  -31.7121   65.3891   62.8101 O   0  0  0  0  0  0  0  0  0  0  0  0
  -33.3705   66.5234   61.3008 O   0  0  0  0  0  0  0  0  0  0  0  0
  -32.3697   64.4484   60.7269 O   0  0  0  0  0  0  0  0  0  0  0  0
  -32.7812   65.3761   61.8819 S   0  0  0  0  0  0  0  0  0  0  0  0
  -31.9381   65.9671   63.5556 H   0  0  0  0  0  0  0  0  0  0  0  0
  -31.9595   63.6465   61.0867 H   0  0  0  0  0  0  0  0  0  0  0  0
  2  1  1  0  0  0
  2  4  1  0  0  0
  2  5  1  0  0  0
 47 48  1  0  0  0
 47  1  1  0  0  0
 48 52  1  0  0  0
  1 30  1  0  0  0
 29 30  1  0  0  0
 29 31  1  0  0  0
 30 32  1  0  0  0
  3  4  2  0  0  0
 32 33  2  0  0  0
 49 53  1  0  0  0
 49 57  1  0  0  0
 33 34  1  0  0  0
 62 54  1  0  0  0
 62 66  1  0  0  0
 34 35  1  0  0  0
 50 55  1  0  0  0
 50 58  1  0  0  0
 35 36  1  0  0  0
 51 52  1  0  0  0
 51 56  1  0  0  0
 36 37  1  0  0  0
 59 60  1  0  0  0
 59 61  1  0  0  0
 37 38  1  0  0  0
 63 66  1  0  0  0
 63 67  1  0  0  0
 38 39  1  0  0  0
 64 66  1  0  0  0
 39 40  1  0  0  0
 65 66  1  0  0  0
 65 68  1  0  0  0
 40 41  1  0  0  0
 41 42  1  0  0  0
 42 43  1  0  0  0
 43 44  1  0  0  0
 44 45  1  0  0  0
 45 46  1  0  0  0
  4  6  1  0  0  0
  6  7  1  0  0  0
  7  8  1  0  0  0
  8  9  1  0  0  0
  9 10  1  0  0  0
 10 11  1  0  0  0
 11 12  1  0  0  0
 12 13  1  0  0  0
 13 14  1  0  0  0
 14 15  1  0  0  0
 15 16  1  0  0  0
 16 17  1  0  0  0
 17 18  1  0  0  0
 18 19  1  0  0  0
 19 20  2  0  0  0
 20 21  1  0  0  0
 21 22  1  0  0  0
 22 23  1  0  0  0
 23 24  1  0  0  0
 24 25  1  0  0  0
 25 26  1  0  0  0
 26 27  1  0  0  0
 27 28  1  0  0  0
 52 53  1  0  0  0
 53 54  1  0  0  0
 54 55  1  0  0  0
 55 56  1  0  0  0
 56 60  1  0  0  0
M  CHG 1  64  -1
M  END
> <minimizedAffinity>
-9.30537

> <CNNscore>
0.1030341238

> <CNNaffinity>
7.2852606773

> <CNN_VS>
0.7506304383

> <CNNaffinity_variance>
2.0648887157

$$$$
