/media/chris/experiments/cd1a-new-docking/inputs/ligands/7ryn_ligand.pdb


 68 68  0  0  0  0  0  0  0  0999 V2000
  -34.0402   62.4654   64.7852 C   0  0  0  0  0  0  0  0  0  0  0  0
  -35.1533   61.8383   65.4916 N   0  0  0  0  0  0  0  0  0  0  0  0
  -36.7556   62.5419   64.0755 O   0  0  0  0  0  0  0  0  0  0  0  0
  -36.4221   61.9250   65.0831 C   0  0  0  0  0  0  0  0  0  0  0  0
  -34.9592   61.3263   66.3097 H   0  0  0  0  0  0  0  0  0  0  0  0
  -37.4337   61.2045   65.9391 C   0  0  0  0  0  0  0  0  0  0  0  0
  -37.9948   59.9615   65.2604 C   0  0  0  0  0  0  0  0  0  0  0  0
  -39.2286   59.4166   65.9618 C   0  0  0  0  0  0  0  0  0  0  0  0
  -40.5391   59.8291   65.3124 C   0  0  0  0  0  0  0  0  0  0  0  0
  -41.7159   59.8732   66.2756 C   0  0  0  0  0  0  0  0  0  0  0  0
  -42.2958   58.5044   66.6086 C   0  0  0  0  0  0  0  0  0  0  0  0
  -43.8186   58.4632   66.6094 C   0  0  0  0  0  0  0  0  0  0  0  0
  -44.4530   58.4521   65.2209 C   0  0  0  0  0  0  0  0  0  0  0  0
  -45.9569   58.1828   65.2263 C   0  0  0  0  0  0  0  0  0  0  0  0
  -46.7127   58.8125   66.3963 C   0  0  0  0  0  0  0  0  0  0  0  0
  -48.1586   59.1786   66.0607 C   0  0  0  0  0  0  0  0  0  0  0  0
  -49.1284   57.9984   66.0036 C   0  0  0  0  0  0  0  0  0  0  0  0
  -50.6106   58.3817   65.9925 C   0  0  0  0  0  0  0  0  0  0  0  0
  -50.8659   59.7055   65.3317 C   0  0  0  0  0  0  0  0  0  0  0  0
  -51.0551   59.9069   64.0396 C   0  0  0  0  0  0  0  0  0  0  0  0
  -51.0560   58.8534   62.9737 C   0  0  0  0  0  0  0  0  0  0  0  0
  -49.6565   58.4656   62.4917 C   0  0  0  0  0  0  0  0  0  0  0  0
  -49.5214   58.4632   60.9748 C   0  0  0  0  0  0  0  0  0  0  0  0
  -49.3231   57.0703   60.3874 C   0  0  0  0  0  0  0  0  0  0  0  0
  -48.9777   57.0547   58.9027 C   0  0  0  0  0  0  0  0  0  0  0  0
  -47.7930   56.1631   58.5584 C   0  0  0  0  0  0  0  0  0  0  0  0
  -47.0529   56.5721   57.2947 C   0  0  0  0  0  0  0  0  0  0  0  0
  -47.0681   58.0692   57.0612 C   0  0  0  0  0  0  0  0  0  0  0  0
  -33.3281   62.0114   62.5221 O   0  0  0  0  0  0  0  0  0  0  0  0
  -33.4004   61.4426   63.8326 C   0  0  0  0  0  0  0  0  0  0  0  0
  -32.8288   62.8423   62.5573 H   0  0  0  0  0  0  0  0  0  0  0  0
  -34.1663   60.1553   63.8166 C   0  0  0  0  0  0  0  0  0  0  0  0
  -33.7495   59.0187   64.3385 C   0  0  0  0  0  0  0  0  0  0  0  0
  -34.5440   57.7541   64.3194 C   0  0  0  0  0  0  0  0  0  0  0  0
  -34.8855   57.3405   62.8864 C   0  0  0  0  0  0  0  0  0  0  0  0
  -36.0257   58.1305   62.2647 C   0  0  0  0  0  0  0  0  0  0  0  0
  -37.3397   57.3725   62.1843 C   0  0  0  0  0  0  0  0  0  0  0  0
  -38.5027   58.2040   61.6629 C   0  0  0  0  0  0  0  0  0  0  0  0
  -38.2413   59.7021   61.6860 C   0  0  0  0  0  0  0  0  0  0  0  0
  -39.4934   60.5386   61.8828 C   0  0  0  0  0  0  0  0  0  0  0  0
  -40.7115   60.0103   61.1484 C   0  0  0  0  0  0  0  0  0  0  0  0
  -42.0214   60.2439   61.8813 C   0  0  0  0  0  0  0  0  0  0  0  0
  -42.5894   58.9798   62.4992 C   0  0  0  0  0  0  0  0  0  0  0  0
  -41.9143   57.7011   62.0415 C   0  0  0  0  0  0  0  0  0  0  0  0
  -41.5658   56.7812   63.1951 C   0  0  0  0  0  0  0  0  0  0  0  0
  -41.3793   55.3438   62.7552 C   0  0  0  0  0  0  0  0  0  0  0  0
  -33.0406   63.0199   65.7789 C   0  0  0  0  0  0  0  0  0  0  0  0
  -33.4219   64.3625   66.0998 O   0  0  0  0  0  0  0  0  0  0  0  0
  -30.9837   65.6582   65.6335 O   0  0  0  0  0  0  0  0  0  0  0  0
  -32.3981   64.5208   61.7312 O   0  0  0  0  0  0  0  0  0  0  0  0
  -34.1515   64.9090   63.9790 O   0  0  0  0  0  0  0  0  0  0  0  0
  -33.2886   65.2670   65.0423 C   0  0  0  0  0  0  0  0  0  0  0  0
  -31.8384   65.2386   64.5773 C   0  0  0  0  0  0  0  0  0  0  0  0
  -31.6650   66.1467   63.3664 C   0  0  0  0  0  0  0  0  0  0  0  0
  -32.6733   65.8060   62.2789 C   0  0  0  0  0  0  0  0  0  0  0  0
  -34.0826   65.8143   62.8657 C   0  0  0  0  0  0  0  0  0  0  0  0
  -31.1030   65.0731   66.3979 H   0  0  0  0  0  0  0  0  0  0  0  0
  -31.5029   64.5134   61.3578 H   0  0  0  0  0  0  0  0  0  0  0  0
  -35.2279   63.9581   61.8020 O   0  0  0  0  0  0  0  0  0  0  0  0
  -35.1399   65.3762   61.8795 C   0  0  0  0  0  0  0  0  0  0  0  0
  -35.9139   63.7112   61.1620 H   0  0  0  0  0  0  0  0  0  0  0  0
  -30.3132   65.8651   62.8840 O   0  0  0  0  0  0  0  0  0  0  0  0
  -30.0640   68.1588   62.1886 O   0  0  0  0  0  0  0  0  0  0  0  0
  -28.1033   66.5877   62.1376 O   0  0  0  0  0  0  0  0  0  0  0  0
  -29.0159   67.3857   64.1789 O   0  0  0  0  0  0  0  0  0  0  0  0
  -29.3046   67.0786   62.7003 S   0  0  0  0  0  0  0  0  0  0  0  0
  -30.2652   67.9981   61.2534 H   0  0  0  0  0  0  0  0  0  0  0  0
  -29.8198   67.7264   64.6013 H   0  0  0  0  0  0  0  0  0  0  0  0
  2  1  1  0  0  0
  2  4  1  0  0  0
  2  5  1  0  0  0
 47 48  1  0  0  0
 47  1  1  0  0  0
 48 52  1  0  0  0
  1 30  1  0  0  0
 29 30  1  0  0  0
 29 31  1  0  0  0
 30 32  1  0  0  0
  3  4  2  0  0  0
 32 33  2  0  0  0
 49 53  1  0  0  0
 49 57  1  0  0  0
 33 34  1  0  0  0
 62 54  1  0  0  0
 62 66  1  0  0  0
 34 35  1  0  0  0
 50 55  1  0  0  0
 50 58  1  0  0  0
 35 36  1  0  0  0
 51 52  1  0  0  0
 51 56  1  0  0  0
 36 37  1  0  0  0
 59 60  1  0  0  0
 59 61  1  0  0  0
 37 38  1  0  0  0
 63 66  1  0  0  0
 63 67  1  0  0  0
 38 39  1  0  0  0
 64 66  1  0  0  0
 39 40  1  0  0  0
 65 66  1  0  0  0
 65 68  1  0  0  0
 40 41  1  0  0  0
 41 42  1  0  0  0
 42 43  1  0  0  0
 43 44  1  0  0  0
 44 45  1  0  0  0
 45 46  1  0  0  0
  4  6  1  0  0  0
  6  7  1  0  0  0
  7  8  1  0  0  0
  8  9  1  0  0  0
  9 10  1  0  0  0
 10 11  1  0  0  0
 11 12  1  0  0  0
 12 13  1  0  0  0
 13 14  1  0  0  0
 14 15  1  0  0  0
 15 16  1  0  0  0
 16 17  1  0  0  0
 17 18  1  0  0  0
 18 19  1  0  0  0
 19 20  2  0  0  0
 20 21  1  0  0  0
 21 22  1  0  0  0
 22 23  1  0  0  0
 23 24  1  0  0  0
 24 25  1  0  0  0
 25 26  1  0  0  0
 26 27  1  0  0  0
 27 28  1  0  0  0
 52 53  1  0  0  0
 53 54  1  0  0  0
 54 55  1  0  0  0
 55 56  1  0  0  0
 56 60  1  0  0  0
M  CHG 1  64  -1
M  END
> <minimizedAffinity>
-9.16971

> <CNNscore>
0.2743897140

> <CNNaffinity>
7.2218718529

> <CNN_VS>
1.9816073179

> <CNNaffinity_variance>
1.1624267101

$$$$
/media/chris/experiments/cd1a-new-docking/inputs/ligands/7ryn_ligand.pdb


 68 68  0  0  0  0  0  0  0  0999 V2000
  -40.0902   59.0882   65.6206 C   0  0  0  0  0  0  0  0  0  0  0  0
  -39.9824   58.4470   64.3135 N   0  0  0  0  0  0  0  0  0  0  0  0
  -41.1277   56.5901   64.8683 O   0  0  0  0  0  0  0  0  0  0  0  0
  -40.5082   57.2502   64.0391 C   0  0  0  0  0  0  0  0  0  0  0  0
  -39.4981   58.9202   63.5988 H   0  0  0  0  0  0  0  0  0  0  0  0
  -40.3005   56.7539   62.6299 C   0  0  0  0  0  0  0  0  0  0  0  0
  -41.6084   56.6064   61.8630 C   0  0  0  0  0  0  0  0  0  0  0  0
  -42.1883   57.9432   61.4297 C   0  0  0  0  0  0  0  0  0  0  0  0
  -41.5716   58.4988   60.1569 C   0  0  0  0  0  0  0  0  0  0  0  0
  -40.9748   59.8889   60.3183 C   0  0  0  0  0  0  0  0  0  0  0  0
  -39.4853   59.8906   60.6379 C   0  0  0  0  0  0  0  0  0  0  0  0
  -38.6664   58.9464   59.7671 C   0  0  0  0  0  0  0  0  0  0  0  0
  -37.3612   58.4716   60.4008 C   0  0  0  0  0  0  0  0  0  0  0  0
  -37.5264   57.8911   61.8044 C   0  0  0  0  0  0  0  0  0  0  0  0
  -36.2144   57.5595   62.5152 C   0  0  0  0  0  0  0  0  0  0  0  0
  -36.3533   57.4600   64.0344 C   0  0  0  0  0  0  0  0  0  0  0  0
  -35.0958   57.8226   64.8243 C   0  0  0  0  0  0  0  0  0  0  0  0
  -34.2457   58.9367   64.2076 C   0  0  0  0  0  0  0  0  0  0  0  0
  -32.8476   58.4935   63.8860 C   0  0  0  0  0  0  0  0  0  0  0  0
  -32.0308   59.0630   63.0176 C   0  0  0  0  0  0  0  0  0  0  0  0
  -32.3347   60.2685   62.1807 C   0  0  0  0  0  0  0  0  0  0  0  0
  -31.1161   60.8284   61.4439 C   0  0  0  0  0  0  0  0  0  0  0  0
  -29.8453   60.8120   62.2830 C   0  0  0  0  0  0  0  0  0  0  0  0
  -29.2972   62.2038   62.5779 C   0  0  0  0  0  0  0  0  0  0  0  0
  -29.9300   63.3191   61.7537 C   0  0  0  0  0  0  0  0  0  0  0  0
  -29.5148   64.7164   62.1922 C   0  0  0  0  0  0  0  0  0  0  0  0
  -29.0806   64.8088   63.6465 C   0  0  0  0  0  0  0  0  0  0  0  0
  -30.1575   65.3780   64.5479 C   0  0  0  0  0  0  0  0  0  0  0  0
  -40.7911   61.3364   66.1584 O   0  0  0  0  0  0  0  0  0  0  0  0
  -41.2457   60.1016   65.5972 C   0  0  0  0  0  0  0  0  0  0  0  0
  -40.0175   61.6506   65.6645 H   0  0  0  0  0  0  0  0  0  0  0  0
  -42.4419   59.5853   66.3365 C   0  0  0  0  0  0  0  0  0  0  0  0
  -43.4445   58.9263   65.7901 C   0  0  0  0  0  0  0  0  0  0  0  0
  -44.6174   58.4108   66.5577 C   0  0  0  0  0  0  0  0  0  0  0  0
  -45.6204   57.7198   65.6315 C   0  0  0  0  0  0  0  0  0  0  0  0
  -47.0199   58.3113   65.6762 C   0  0  0  0  0  0  0  0  0  0  0  0
  -47.4989   58.8834   64.3530 C   0  0  0  0  0  0  0  0  0  0  0  0
  -47.9216   60.3434   64.4269 C   0  0  0  0  0  0  0  0  0  0  0  0
  -49.2554   60.6280   63.7537 C   0  0  0  0  0  0  0  0  0  0  0  0
  -49.8311   59.4367   63.0084 C   0  0  0  0  0  0  0  0  0  0  0  0
  -49.7321   59.5457   61.4982 C   0  0  0  0  0  0  0  0  0  0  0  0
  -49.6838   58.2047   60.7861 C   0  0  0  0  0  0  0  0  0  0  0  0
  -48.8410   58.2328   59.5246 C   0  0  0  0  0  0  0  0  0  0  0  0
  -48.0583   56.9597   59.2659 C   0  0  0  0  0  0  0  0  0  0  0  0
  -47.6595   56.8065   57.8113 C   0  0  0  0  0  0  0  0  0  0  0  0
  -47.0446   58.0684   57.2421 C   0  0  0  0  0  0  0  0  0  0  0  0
  -38.7725   59.7367   65.9913 C   0  0  0  0  0  0  0  0  0  0  0  0
  -38.4407   60.6935   64.9788 O   0  0  0  0  0  0  0  0  0  0  0  0
  -36.7573   60.9567   62.7566 O   0  0  0  0  0  0  0  0  0  0  0  0
  -36.3384   64.6600   64.9087 O   0  0  0  0  0  0  0  0  0  0  0  0
  -37.1609   62.2055   66.1641 O   0  0  0  0  0  0  0  0  0  0  0  0
  -37.1684   61.2567   65.1137 C   0  0  0  0  0  0  0  0  0  0  0  0
  -36.8071   61.9273   63.7946 C   0  0  0  0  0  0  0  0  0  0  0  0
  -35.4622   62.6314   63.9230 C   0  0  0  0  0  0  0  0  0  0  0  0
  -35.4484   63.5691   65.1213 C   0  0  0  0  0  0  0  0  0  0  0  0
  -35.8732   62.8066   66.3739 C   0  0  0  0  0  0  0  0  0  0  0  0
  -37.6182   60.5157   62.6847 H   0  0  0  0  0  0  0  0  0  0  0  0
  -36.0702   65.1459   64.1132 H   0  0  0  0  0  0  0  0  0  0  0  0
  -36.3750   62.9419   68.7442 O   0  0  0  0  0  0  0  0  0  0  0  0
  -35.9958   63.6889   67.5941 C   0  0  0  0  0  0  0  0  0  0  0  0
  -36.4445   63.5364   69.5076 H   0  0  0  0  0  0  0  0  0  0  0  0
  -35.3343   63.4109   62.6920 O   0  0  0  0  0  0  0  0  0  0  0  0
  -32.9860   63.6163   63.1923 O   0  0  0  0  0  0  0  0  0  0  0  0
  -34.3428   65.6394   62.5746 O   0  0  0  0  0  0  0  0  0  0  0  0
  -33.7790   63.9746   60.9787 O   0  0  0  0  0  0  0  0  0  0  0  0
  -34.0150   64.2674   62.4695 S   0  0  0  0  0  0  0  0  0  0  0  0
  -33.1039   63.7803   64.1411 H   0  0  0  0  0  0  0  0  0  0  0  0
  -33.5506   63.0388   60.8652 H   0  0  0  0  0  0  0  0  0  0  0  0
  2  1  1  0  0  0
  2  4  1  0  0  0
  2  5  1  0  0  0
 47 48  1  0  0  0
 47  1  1  0  0  0
 48 52  1  0  0  0
  1 30  1  0  0  0
 29 30  1  0  0  0
 29 31  1  0  0  0
 30 32  1  0  0  0
  3  4  2  0  0  0
 32 33  2  0  0  0
 49 53  1  0  0  0
 49 57  1  0  0  0
 33 34  1  0  0  0
 62 54  1  0  0  0
 62 66  1  0  0  0
 34 35  1  0  0  0
 50 55  1  0  0  0
 50 58  1  0  0  0
 35 36  1  0  0  0
 51 52  1  0  0  0
 51 56  1  0  0  0
 36 37  1  0  0  0
 59 60  1  0  0  0
 59 61  1  0  0  0
 37 38  1  0  0  0
 63 66  1  0  0  0
 63 67  1  0  0  0
 38 39  1  0  0  0
 64 66  1  0  0  0
 39 40  1  0  0  0
 65 66  1  0  0  0
 65 68  1  0  0  0
 40 41  1  0  0  0
 41 42  1  0  0  0
 42 43  1  0  0  0
 43 44  1  0  0  0
 44 45  1  0  0  0
 45 46  1  0  0  0
  4  6  1  0  0  0
  6  7  1  0  0  0
  7  8  1  0  0  0
  8  9  1  0  0  0
  9 10  1  0  0  0
 10 11  1  0  0  0
 11 12  1  0  0  0
 12 13  1  0  0  0
 13 14  1  0  0  0
 14 15  1  0  0  0
 15 16  1  0  0  0
 16 17  1  0  0  0
 17 18  1  0  0  0
 18 19  1  0  0  0
 19 20  2  0  0  0
 20 21  1  0  0  0
 21 22  1  0  0  0
 22 23  1  0  0  0
 23 24  1  0  0  0
 24 25  1  0  0  0
 25 26  1  0  0  0
 26 27  1  0  0  0
 27 28  1  0  0  0
 52 53  1  0  0  0
 53 54  1  0  0  0
 54 55  1  0  0  0
 55 56  1  0  0  0
 56 60  1  0  0  0
M  CHG 1  64  -1
M  END
> <minimizedAffinity>
-9.86130

> <CNNscore>
0.2462091595

> <CNNaffinity>
7.4066987038

> <CNN_VS>
1.8235970736

> <CNNaffinity_variance>
2.2307665348

$$$$
/media/chris/experiments/cd1a-new-docking/inputs/ligands/7ryn_ligand.pdb


 68 68  0  0  0  0  0  0  0  0999 V2000
  -36.8432   59.2704   62.5109 C   0  0  0  0  0  0  0  0  0  0  0  0
  -38.1614   58.8837   62.0168 N   0  0  0  0  0  0  0  0  0  0  0  0
  -37.6218   58.9516   59.8323 O   0  0  0  0  0  0  0  0  0  0  0  0
  -38.4480   58.7546   60.7186 C   0  0  0  0  0  0  0  0  0  0  0  0
  -38.8743   58.7095   62.6729 H   0  0  0  0  0  0  0  0  0  0  0  0
  -39.8630   58.3394   60.4011 C   0  0  0  0  0  0  0  0  0  0  0  0
  -40.8179   59.5241   60.3291 C   0  0  0  0  0  0  0  0  0  0  0  0
  -42.0145   59.3700   61.2541 C   0  0  0  0  0  0  0  0  0  0  0  0
  -41.7242   59.7286   62.7020 C   0  0  0  0  0  0  0  0  0  0  0  0
  -41.7196   58.5331   63.6429 C   0  0  0  0  0  0  0  0  0  0  0  0
  -43.0934   57.9133   63.8644 C   0  0  0  0  0  0  0  0  0  0  0  0
  -43.1320   56.8832   64.9859 C   0  0  0  0  0  0  0  0  0  0  0  0
  -43.5045   57.4494   66.3538 C   0  0  0  0  0  0  0  0  0  0  0  0
  -44.6253   58.4869   66.3133 C   0  0  0  0  0  0  0  0  0  0  0  0
  -45.9678   57.9960   66.8546 C   0  0  0  0  0  0  0  0  0  0  0  0
  -47.0561   57.8970   65.7854 C   0  0  0  0  0  0  0  0  0  0  0  0
  -46.9700   58.9446   64.6755 C   0  0  0  0  0  0  0  0  0  0  0  0
  -48.0271   60.0497   64.7483 C   0  0  0  0  0  0  0  0  0  0  0  0
  -49.2194   59.6627   65.5748 C   0  0  0  0  0  0  0  0  0  0  0  0
  -50.4185   59.3532   65.1142 C   0  0  0  0  0  0  0  0  0  0  0  0
  -50.8289   59.3232   63.6732 C   0  0  0  0  0  0  0  0  0  0  0  0
  -50.2203   58.1615   62.8849 C   0  0  0  0  0  0  0  0  0  0  0  0
  -49.6886   58.5741   61.5187 C   0  0  0  0  0  0  0  0  0  0  0  0
  -50.5040   58.0150   60.3582 C   0  0  0  0  0  0  0  0  0  0  0  0
  -49.6825   57.6529   59.1262 C   0  0  0  0  0  0  0  0  0  0  0  0
  -48.1784   57.7206   59.3508 C   0  0  0  0  0  0  0  0  0  0  0  0
  -47.3563   57.0395   58.2682 C   0  0  0  0  0  0  0  0  0  0  0  0
  -47.0003   57.9693   57.1260 C   0  0  0  0  0  0  0  0  0  0  0  0
  -36.3388   58.1884   64.6108 O   0  0  0  0  0  0  0  0  0  0  0  0
  -36.1811   58.0633   63.1946 C   0  0  0  0  0  0  0  0  0  0  0  0
  -37.2819   58.2601   64.8261 H   0  0  0  0  0  0  0  0  0  0  0  0
  -34.7340   57.9502   62.8245 C   0  0  0  0  0  0  0  0  0  0  0  0
  -33.7490   58.6040   63.4078 C   0  0  0  0  0  0  0  0  0  0  0  0
  -32.3126   58.4581   63.0253 C   0  0  0  0  0  0  0  0  0  0  0  0
  -31.8843   59.5673   62.0623 C   0  0  0  0  0  0  0  0  0  0  0  0
  -30.5580   60.2208   62.4148 C   0  0  0  0  0  0  0  0  0  0  0  0
  -30.1531   61.3529   61.4862 C   0  0  0  0  0  0  0  0  0  0  0  0
  -29.6067   62.5777   62.2053 C   0  0  0  0  0  0  0  0  0  0  0  0
  -29.7411   63.8653   61.4070 C   0  0  0  0  0  0  0  0  0  0  0  0
  -31.0367   63.9655   60.6211 C   0  0  0  0  0  0  0  0  0  0  0  0
  -31.7587   65.2898   60.7858 C   0  0  0  0  0  0  0  0  0  0  0  0
  -31.1626   66.4219   59.9669 C   0  0  0  0  0  0  0  0  0  0  0  0
  -30.2937   65.9330   58.8229 C   0  0  0  0  0  0  0  0  0  0  0  0
  -30.0435   66.9659   57.7409 C   0  0  0  0  0  0  0  0  0  0  0  0
  -31.3178   67.3988   57.0429 C   0  0  0  0  0  0  0  0  0  0  0  0
  -31.2744   68.8472   56.6015 C   0  0  0  0  0  0  0  0  0  0  0  0
  -36.9660   60.4564   63.4452 C   0  0  0  0  0  0  0  0  0  0  0  0
  -35.9800   61.4262   63.0739 O   0  0  0  0  0  0  0  0  0  0  0  0
  -33.3538   62.2108   62.5005 O   0  0  0  0  0  0  0  0  0  0  0  0
  -34.6950   64.9588   65.5290 O   0  0  0  0  0  0  0  0  0  0  0  0
  -35.8196   62.3323   65.1910 O   0  0  0  0  0  0  0  0  0  0  0  0
  -35.1025   61.7783   64.1036 C   0  0  0  0  0  0  0  0  0  0  0  0
  -34.1119   62.7954   63.5520 C   0  0  0  0  0  0  0  0  0  0  0  0
  -33.1881   63.2745   64.6646 C   0  0  0  0  0  0  0  0  0  0  0  0
  -33.9857   63.7699   65.8620 C   0  0  0  0  0  0  0  0  0  0  0  0
  -34.9779   62.6944   66.2974 C   0  0  0  0  0  0  0  0  0  0  0  0
  -33.9524   61.9100   61.7989 H   0  0  0  0  0  0  0  0  0  0  0  0
  -34.0662   65.6435   65.2520 H   0  0  0  0  0  0  0  0  0  0  0  0
  -36.9803   63.9164   66.9187 O   0  0  0  0  0  0  0  0  0  0  0  0
  -35.8916   63.1450   67.4131 C   0  0  0  0  0  0  0  0  0  0  0  0
  -37.5457   64.1889   67.6583 H   0  0  0  0  0  0  0  0  0  0  0  0
  -32.4483   64.3904   64.0757 O   0  0  0  0  0  0  0  0  0  0  0  0
  -31.7847   65.4407   66.1405 O   0  0  0  0  0  0  0  0  0  0  0  0
  -30.4781   65.8324   64.0299 O   0  0  0  0  0  0  0  0  0  0  0  0
  -30.4298   63.7472   65.1639 O   0  0  0  0  0  0  0  0  0  0  0  0
  -31.2461   65.0230   64.8993 S   0  0  0  0  0  0  0  0  0  0  0  0
  -32.3082   66.2469   66.0108 H   0  0  0  0  0  0  0  0  0  0  0  0
  -30.9257   63.1637   65.7592 H   0  0  0  0  0  0  0  0  0  0  0  0
  2  1  1  0  0  0
  2  4  1  0  0  0
  2  5  1  0  0  0
 47 48  1  0  0  0
 47  1  1  0  0  0
 48 52  1  0  0  0
  1 30  1  0  0  0
 29 30  1  0  0  0
 29 31  1  0  0  0
 30 32  1  0  0  0
  3  4  2  0  0  0
 32 33  2  0  0  0
 49 53  1  0  0  0
 49 57  1  0  0  0
 33 34  1  0  0  0
 62 54  1  0  0  0
 62 66  1  0  0  0
 34 35  1  0  0  0
 50 55  1  0  0  0
 50 58  1  0  0  0
 35 36  1  0  0  0
 51 52  1  0  0  0
 51 56  1  0  0  0
 36 37  1  0  0  0
 59 60  1  0  0  0
 59 61  1  0  0  0
 37 38  1  0  0  0
 63 66  1  0  0  0
 63 67  1  0  0  0
 38 39  1  0  0  0
 64 66  1  0  0  0
 39 40  1  0  0  0
 65 66  1  0  0  0
 65 68  1  0  0  0
 40 41  1  0  0  0
 41 42  1  0  0  0
 42 43  1  0  0  0
 43 44  1  0  0  0
 44 45  1  0  0  0
 45 46  1  0  0  0
  4  6  1  0  0  0
  6  7  1  0  0  0
  7  8  1  0  0  0
  8  9  1  0  0  0
  9 10  1  0  0  0
 10 11  1  0  0  0
 11 12  1  0  0  0
 12 13  1  0  0  0
 13 14  1  0  0  0
 14 15  1  0  0  0
 15 16  1  0  0  0
 16 17  1  0  0  0
 17 18  1  0  0  0
 18 19  1  0  0  0
 19 20  2  0  0  0
 20 21  1  0  0  0
 21 22  1  0  0  0
 22 23  1  0  0  0
 23 24  1  0  0  0
 24 25  1  0  0  0
 25 26  1  0  0  0
 26 27  1  0  0  0
 27 28  1  0  0  0
 52 53  1  0  0  0
 53 54  1  0  0  0
 54 55  1  0  0  0
 55 56  1  0  0  0
 56 60  1  0  0  0
M  CHG 1  64  -1
M  END
> <minimizedAffinity>
-8.72195

> <CNNscore>
0.2429426163

> <CNNaffinity>
6.9351601601

> <CNN_VS>
1.6848459244

> <CNNaffinity_variance>
0.3184810281

$$$$
/media/chris/experiments/cd1a-new-docking/inputs/ligands/7ryn_ligand.pdb


 68 68  0  0  0  0  0  0  0  0999 V2000
  -37.2324   59.9083   62.9787 C   0  0  0  0  0  0  0  0  0  0  0  0
  -38.4856   59.9533   62.2312 N   0  0  0  0  0  0  0  0  0  0  0  0
  -37.6229   59.2251   60.2836 O   0  0  0  0  0  0  0  0  0  0  0  0
  -38.5836   59.6091   60.9443 C   0  0  0  0  0  0  0  0  0  0  0  0
  -39.2987   60.2522   62.6988 H   0  0  0  0  0  0  0  0  0  0  0  0
  -39.9636   59.7136   60.3444 C   0  0  0  0  0  0  0  0  0  0  0  0
  -40.4774   58.3778   59.8228 C   0  0  0  0  0  0  0  0  0  0  0  0
  -40.8599   57.4199   60.9396 C   0  0  0  0  0  0  0  0  0  0  0  0
  -42.1023   57.8358   61.7094 C   0  0  0  0  0  0  0  0  0  0  0  0
  -41.8459   58.1273   63.1804 C   0  0  0  0  0  0  0  0  0  0  0  0
  -42.1402   56.9532   64.1054 C   0  0  0  0  0  0  0  0  0  0  0  0
  -43.2954   57.2001   65.0671 C   0  0  0  0  0  0  0  0  0  0  0  0
  -44.3003   58.2478   64.5948 C   0  0  0  0  0  0  0  0  0  0  0  0
  -45.5881   58.2891   65.4158 C   0  0  0  0  0  0  0  0  0  0  0  0
  -46.8006   58.8481   64.6715 C   0  0  0  0  0  0  0  0  0  0  0  0
  -48.1050   58.1217   65.0003 C   0  0  0  0  0  0  0  0  0  0  0  0
  -49.0259   58.8548   65.9755 C   0  0  0  0  0  0  0  0  0  0  0  0
  -50.5227   58.6526   65.7250 C   0  0  0  0  0  0  0  0  0  0  0  0
  -51.1636   59.8261   65.0421 C   0  0  0  0  0  0  0  0  0  0  0  0
  -51.2345   60.0244   63.7377 C   0  0  0  0  0  0  0  0  0  0  0  0
  -50.6916   59.1156   62.6769 C   0  0  0  0  0  0  0  0  0  0  0  0
  -49.9060   59.8455   61.5853 C   0  0  0  0  0  0  0  0  0  0  0  0
  -49.5187   58.9464   60.4189 C   0  0  0  0  0  0  0  0  0  0  0  0
  -48.9780   57.5892   60.8548 C   0  0  0  0  0  0  0  0  0  0  0  0
  -48.8626   56.5652   59.7314 C   0  0  0  0  0  0  0  0  0  0  0  0
  -47.4528   56.4218   59.1753 C   0  0  0  0  0  0  0  0  0  0  0  0
  -47.3698   56.5104   57.6597 C   0  0  0  0  0  0  0  0  0  0  0  0
  -47.2015   57.9312   57.1607 C   0  0  0  0  0  0  0  0  0  0  0  0
  -37.4394   58.5379   64.9571 O   0  0  0  0  0  0  0  0  0  0  0  0
  -37.0487   58.5062   63.5813 C   0  0  0  0  0  0  0  0  0  0  0  0
  -38.3555   58.8496   65.0259 H   0  0  0  0  0  0  0  0  0  0  0  0
  -35.6363   58.0285   63.4364 C   0  0  0  0  0  0  0  0  0  0  0  0
  -34.8794   58.2121   62.3727 C   0  0  0  0  0  0  0  0  0  0  0  0
  -33.4679   57.7360   62.2644 C   0  0  0  0  0  0  0  0  0  0  0  0
  -32.5933   58.3545   63.3570 C   0  0  0  0  0  0  0  0  0  0  0  0
  -32.1853   59.7940   63.0882 C   0  0  0  0  0  0  0  0  0  0  0  0
  -31.8709   60.0926   61.6322 C   0  0  0  0  0  0  0  0  0  0  0  0
  -30.9948   61.3199   61.4276 C   0  0  0  0  0  0  0  0  0  0  0  0
  -29.5379   61.1002   61.8047 C   0  0  0  0  0  0  0  0  0  0  0  0
  -29.0712   61.9569   62.9685 C   0  0  0  0  0  0  0  0  0  0  0  0
  -29.9080   63.2025   63.1936 C   0  0  0  0  0  0  0  0  0  0  0  0
  -29.0918   64.4770   63.3241 C   0  0  0  0  0  0  0  0  0  0  0  0
  -29.3776   65.4802   62.2220 C   0  0  0  0  0  0  0  0  0  0  0  0
  -29.7776   64.8586   60.8977 C   0  0  0  0  0  0  0  0  0  0  0  0
  -30.7872   65.6991   60.1409 C   0  0  0  0  0  0  0  0  0  0  0  0
  -31.3225   66.8488   60.9695 C   0  0  0  0  0  0  0  0  0  0  0  0
  -37.2212   60.9892   64.0397 C   0  0  0  0  0  0  0  0  0  0  0  0
  -35.8595   61.3397   64.3114 O   0  0  0  0  0  0  0  0  0  0  0  0
  -34.3885   62.4111   66.4396 O   0  0  0  0  0  0  0  0  0  0  0  0
  -32.9580   64.4835   62.9495 O   0  0  0  0  0  0  0  0  0  0  0  0
  -35.5668   63.2791   63.0942 O   0  0  0  0  0  0  0  0  0  0  0  0
  -35.6241   62.7153   64.3912 C   0  0  0  0  0  0  0  0  0  0  0  0
  -34.3016   62.9261   65.1170 C   0  0  0  0  0  0  0  0  0  0  0  0
  -33.9603   64.4105   65.1506 C   0  0  0  0  0  0  0  0  0  0  0  0
  -34.0062   65.0136   63.7543 C   0  0  0  0  0  0  0  0  0  0  0  0
  -35.3512   64.6993   63.1041 C   0  0  0  0  0  0  0  0  0  0  0  0
  -34.6060   61.4664   66.4051 H   0  0  0  0  0  0  0  0  0  0  0  0
  -32.1024   64.6822   63.3610 H   0  0  0  0  0  0  0  0  0  0  0  0
  -35.2554   64.0902   60.7571 O   0  0  0  0  0  0  0  0  0  0  0  0
  -35.4417   65.1657   61.6700 C   0  0  0  0  0  0  0  0  0  0  0  0
  -35.3193   64.4228   59.8481 H   0  0  0  0  0  0  0  0  0  0  0  0
  -32.5903   64.4631   65.6600 O   0  0  0  0  0  0  0  0  0  0  0  0
  -32.6436   66.1437   67.3861 O   0  0  0  0  0  0  0  0  0  0  0  0
  -31.9610   66.7403   65.0423 O   0  0  0  0  0  0  0  0  0  0  0  0
  -30.5698   65.4386   66.4589 O   0  0  0  0  0  0  0  0  0  0  0  0
  -32.0153   65.8610   66.1490 S   0  0  0  0  0  0  0  0  0  0  0  0
  -33.5614   66.4148   67.2281 H   0  0  0  0  0  0  0  0  0  0  0  0
  -30.5654   64.8322   67.2159 H   0  0  0  0  0  0  0  0  0  0  0  0
  2  1  1  0  0  0
  2  4  1  0  0  0
  2  5  1  0  0  0
 47 48  1  0  0  0
 47  1  1  0  0  0
 48 52  1  0  0  0
  1 30  1  0  0  0
 29 30  1  0  0  0
 29 31  1  0  0  0
 30 32  1  0  0  0
  3  4  2  0  0  0
 32 33  2  0  0  0
 49 53  1  0  0  0
 49 57  1  0  0  0
 33 34  1  0  0  0
 62 54  1  0  0  0
 62 66  1  0  0  0
 34 35  1  0  0  0
 50 55  1  0  0  0
 50 58  1  0  0  0
 35 36  1  0  0  0
 51 52  1  0  0  0
 51 56  1  0  0  0
 36 37  1  0  0  0
 59 60  1  0  0  0
 59 61  1  0  0  0
 37 38  1  0  0  0
 63 66  1  0  0  0
 63 67  1  0  0  0
 38 39  1  0  0  0
 64 66  1  0  0  0
 39 40  1  0  0  0
 65 66  1  0  0  0
 65 68  1  0  0  0
 40 41  1  0  0  0
 41 42  1  0  0  0
 42 43  1  0  0  0
 43 44  1  0  0  0
 44 45  1  0  0  0
 45 46  1  0  0  0
  4  6  1  0  0  0
  6  7  1  0  0  0
  7  8  1  0  0  0
  8  9  1  0  0  0
  9 10  1  0  0  0
 10 11  1  0  0  0
 11 12  1  0  0  0
 12 13  1  0  0  0
 13 14  1  0  0  0
 14 15  1  0  0  0
 15 16  1  0  0  0
 16 17  1  0  0  0
 17 18  1  0  0  0
 18 19  1  0  0  0
 19 20  2  0  0  0
 20 21  1  0  0  0
 21 22  1  0  0  0
 22 23  1  0  0  0
 23 24  1  0  0  0
 24 25  1  0  0  0
 25 26  1  0  0  0
 26 27  1  0  0  0
 27 28  1  0  0  0
 52 53  1  0  0  0
 53 54  1  0  0  0
 54 55  1  0  0  0
 55 56  1  0  0  0
 56 60  1  0  0  0
M  CHG 1  64  -1
M  END
> <minimizedAffinity>
-9.63850

> <CNNscore>
0.1615525633

> <CNNaffinity>
6.7422895432

> <CNN_VS>
1.0892341137

> <CNNaffinity_variance>
0.8387920260

$$$$
/media/chris/experiments/cd1a-new-docking/inputs/ligands/7ryn_ligand.pdb


 68 68  0  0  0  0  0  0  0  0999 V2000
  -38.0076   59.1777   62.9035 C   0  0  0  0  0  0  0  0  0  0  0  0
  -39.2152   58.4962   62.4469 N   0  0  0  0  0  0  0  0  0  0  0  0
  -38.6160   58.3848   60.2798 O   0  0  0  0  0  0  0  0  0  0  0  0
  -39.4255   58.1533   61.1732 C   0  0  0  0  0  0  0  0  0  0  0  0
  -39.9089   58.2787   63.1107 H   0  0  0  0  0  0  0  0  0  0  0  0
  -40.7297   57.4487   60.8941 C   0  0  0  0  0  0  0  0  0  0  0  0
  -41.9415   58.3269   61.1786 C   0  0  0  0  0  0  0  0  0  0  0  0
  -42.5302   58.0849   62.5591 C   0  0  0  0  0  0  0  0  0  0  0  0
  -43.0304   59.3451   63.2453 C   0  0  0  0  0  0  0  0  0  0  0  0
  -41.9610   60.0778   64.0415 C   0  0  0  0  0  0  0  0  0  0  0  0
  -41.3116   59.2335   65.1306 C   0  0  0  0  0  0  0  0  0  0  0  0
  -42.0690   59.2426   66.4522 C   0  0  0  0  0  0  0  0  0  0  0  0
  -43.0198   58.0641   66.6459 C   0  0  0  0  0  0  0  0  0  0  0  0
  -44.4990   58.4436   66.5960 C   0  0  0  0  0  0  0  0  0  0  0  0
  -45.3040   57.7281   65.5112 C   0  0  0  0  0  0  0  0  0  0  0  0
  -46.8080   57.9884   65.5978 C   0  0  0  0  0  0  0  0  0  0  0  0
  -47.3021   59.1984   64.8050 C   0  0  0  0  0  0  0  0  0  0  0  0
  -48.3430   60.0598   65.5250 C   0  0  0  0  0  0  0  0  0  0  0  0
  -49.5125   59.2634   66.0274 C   0  0  0  0  0  0  0  0  0  0  0  0
  -50.7351   59.2751   65.5266 C   0  0  0  0  0  0  0  0  0  0  0  0
  -51.1998   60.0841   64.3537 C   0  0  0  0  0  0  0  0  0  0  0  0
  -51.4009   59.2605   63.0799 C   0  0  0  0  0  0  0  0  0  0  0  0
  -50.2757   59.4321   62.0681 C   0  0  0  0  0  0  0  0  0  0  0  0
  -49.3730   58.2089   61.9539 C   0  0  0  0  0  0  0  0  0  0  0  0
  -49.7251   57.2694   60.8061 C   0  0  0  0  0  0  0  0  0  0  0  0
  -49.5962   57.9077   59.4302 C   0  0  0  0  0  0  0  0  0  0  0  0
  -48.1901   57.8641   58.8533 C   0  0  0  0  0  0  0  0  0  0  0  0
  -47.5198   56.5174   59.0357 C   0  0  0  0  0  0  0  0  0  0  0  0
  -37.5664   59.2513   65.2773 O   0  0  0  0  0  0  0  0  0  0  0  0
  -37.4274   58.4297   64.1146 C   0  0  0  0  0  0  0  0  0  0  0  0
  -38.5007   59.4810   65.4011 H   0  0  0  0  0  0  0  0  0  0  0  0
  -35.9943   58.0548   63.8916 C   0  0  0  0  0  0  0  0  0  0  0  0
  -35.4690   57.7262   62.7280 C   0  0  0  0  0  0  0  0  0  0  0  0
  -34.0310   57.3714   62.5353 C   0  0  0  0  0  0  0  0  0  0  0  0
  -33.1419   58.1172   63.5325 C   0  0  0  0  0  0  0  0  0  0  0  0
  -32.2755   59.1985   62.9074 C   0  0  0  0  0  0  0  0  0  0  0  0
  -32.8910   60.5870   62.9373 C   0  0  0  0  0  0  0  0  0  0  0  0
  -32.1090   61.6276   62.1489 C   0  0  0  0  0  0  0  0  0  0  0  0
  -30.8168   61.0952   61.5489 C   0  0  0  0  0  0  0  0  0  0  0  0
  -29.6117   61.2446   62.4608 C   0  0  0  0  0  0  0  0  0  0  0  0
  -29.1809   62.6821   62.6854 C   0  0  0  0  0  0  0  0  0  0  0  0
  -29.4639   63.1978   64.0860 C   0  0  0  0  0  0  0  0  0  0  0  0
  -30.2565   64.4917   64.0930 C   0  0  0  0  0  0  0  0  0  0  0  0
  -30.6470   64.9944   62.7164 C   0  0  0  0  0  0  0  0  0  0  0  0
  -29.8729   66.2320   62.3071 C   0  0  0  0  0  0  0  0  0  0  0  0
  -30.0716   66.5843   60.8473 C   0  0  0  0  0  0  0  0  0  0  0  0
  -38.3177   60.6252   63.2244 C   0  0  0  0  0  0  0  0  0  0  0  0
  -37.4243   61.4546   62.4729 O   0  0  0  0  0  0  0  0  0  0  0  0
  -35.8810   63.5444   61.4280 O   0  0  0  0  0  0  0  0  0  0  0  0
  -36.6772   64.6843   65.5009 O   0  0  0  0  0  0  0  0  0  0  0  0
  -36.7010   61.9492   64.6086 O   0  0  0  0  0  0  0  0  0  0  0  0
  -36.3959   62.0252   63.2285 C   0  0  0  0  0  0  0  0  0  0  0  0
  -36.2472   63.4794   62.8005 C   0  0  0  0  0  0  0  0  0  0  0  0
  -35.1942   64.1672   63.6602 C   0  0  0  0  0  0  0  0  0  0  0  0
  -35.4918   63.9824   65.1410 C   0  0  0  0  0  0  0  0  0  0  0  0
  -35.6709   62.4974   65.4464 C   0  0  0  0  0  0  0  0  0  0  0  0
  -36.5583   63.1037   60.8914 H   0  0  0  0  0  0  0  0  0  0  0  0
  -36.5654   65.6282   65.3075 H   0  0  0  0  0  0  0  0  0  0  0  0
  -35.5878   63.2314   67.7579 O   0  0  0  0  0  0  0  0  0  0  0  0
  -36.0807   62.2296   66.8757 C   0  0  0  0  0  0  0  0  0  0  0  0
  -35.8679   63.0300   68.6646 H   0  0  0  0  0  0  0  0  0  0  0  0
  -35.3024   65.5841   63.3139 O   0  0  0  0  0  0  0  0  0  0  0  0
  -33.7357   65.1954   61.5248 O   0  0  0  0  0  0  0  0  0  0  0  0
  -33.3499   67.0447   63.1820 O   0  0  0  0  0  0  0  0  0  0  0  0
  -35.0683   67.1654   61.5483 O   0  0  0  0  0  0  0  0  0  0  0  0
  -34.1845   66.2262   62.3856 S   0  0  0  0  0  0  0  0  0  0  0  0
  -33.1726   64.5815   62.0218 H   0  0  0  0  0  0  0  0  0  0  0  0
  -35.6577   66.6388   60.9861 H   0  0  0  0  0  0  0  0  0  0  0  0
  2  1  1  0  0  0
  2  4  1  0  0  0
  2  5  1  0  0  0
 47 48  1  0  0  0
 47  1  1  0  0  0
 48 52  1  0  0  0
  1 30  1  0  0  0
 29 30  1  0  0  0
 29 31  1  0  0  0
 30 32  1  0  0  0
  3  4  2  0  0  0
 32 33  2  0  0  0
 49 53  1  0  0  0
 49 57  1  0  0  0
 33 34  1  0  0  0
 62 54  1  0  0  0
 62 66  1  0  0  0
 34 35  1  0  0  0
 50 55  1  0  0  0
 50 58  1  0  0  0
 35 36  1  0  0  0
 51 52  1  0  0  0
 51 56  1  0  0  0
 36 37  1  0  0  0
 59 60  1  0  0  0
 59 61  1  0  0  0
 37 38  1  0  0  0
 63 66  1  0  0  0
 63 67  1  0  0  0
 38 39  1  0  0  0
 64 66  1  0  0  0
 39 40  1  0  0  0
 65 66  1  0  0  0
 65 68  1  0  0  0
 40 41  1  0  0  0
 41 42  1  0  0  0
 42 43  1  0  0  0
 43 44  1  0  0  0
 44 45  1  0  0  0
 45 46  1  0  0  0
  4  6  1  0  0  0
  6  7  1  0  0  0
  7  8  1  0  0  0
  8  9  1  0  0  0
  9 10  1  0  0  0
 10 11  1  0  0  0
 11 12  1  0  0  0
 12 13  1  0  0  0
 13 14  1  0  0  0
 14 15  1  0  0  0
 15 16  1  0  0  0
 16 17  1  0  0  0
 17 18  1  0  0  0
 18 19  1  0  0  0
 19 20  2  0  0  0
 20 21  1  0  0  0
 21 22  1  0  0  0
 22 23  1  0  0  0
 23 24  1  0  0  0
 24 25  1  0  0  0
 25 26  1  0  0  0
 26 27  1  0  0  0
 27 28  1  0  0  0
 52 53  1  0  0  0
 53 54  1  0  0  0
 54 55  1  0  0  0
 55 56  1  0  0  0
 56 60  1  0  0  0
M  CHG 1  64  -1
M  END
> <minimizedAffinity>
-8.78040

> <CNNscore>
0.1614890546

> <CNNaffinity>
6.9116997719

> <CNN_VS>
1.1161638498

> <CNNaffinity_variance>
1.4584795237

$$$$
/media/chris/experiments/cd1a-new-docking/inputs/ligands/7ryn_ligand.pdb


 68 68  0  0  0  0  0  0  0  0999 V2000
  -39.9333   58.8001   65.3588 C   0  0  0  0  0  0  0  0  0  0  0  0
  -40.3272   57.9649   64.2281 N   0  0  0  0  0  0  0  0  0  0  0  0
  -41.4892   56.4643   65.4388 O   0  0  0  0  0  0  0  0  0  0  0  0
  -41.0730   56.8640   64.3553 C   0  0  0  0  0  0  0  0  0  0  0  0
  -40.0284   58.2260   63.3271 H   0  0  0  0  0  0  0  0  0  0  0  0
  -41.3845   56.1352   63.0719 C   0  0  0  0  0  0  0  0  0  0  0  0
  -40.8882   56.8816   61.8402 C   0  0  0  0  0  0  0  0  0  0  0  0
  -42.0056   57.5969   61.0979 C   0  0  0  0  0  0  0  0  0  0  0  0
  -41.5212   58.4927   59.9701 C   0  0  0  0  0  0  0  0  0  0  0  0
  -40.0388   58.3460   59.6612 C   0  0  0  0  0  0  0  0  0  0  0  0
  -39.1956   59.5408   60.0879 C   0  0  0  0  0  0  0  0  0  0  0  0
  -38.3178   59.2735   61.3038 C   0  0  0  0  0  0  0  0  0  0  0  0
  -37.3817   58.0763   61.1588 C   0  0  0  0  0  0  0  0  0  0  0  0
  -37.0303   57.3977   62.4818 C   0  0  0  0  0  0  0  0  0  0  0  0
  -35.5613   57.5148   62.8875 C   0  0  0  0  0  0  0  0  0  0  0  0
  -34.7686   58.4990   62.0270 C   0  0  0  0  0  0  0  0  0  0  0  0
  -33.2497   58.4091   62.1737 C   0  0  0  0  0  0  0  0  0  0  0  0
  -32.5184   59.7540   62.1459 C   0  0  0  0  0  0  0  0  0  0  0  0
  -31.0701   59.6382   62.5242 C   0  0  0  0  0  0  0  0  0  0  0  0
  -30.1694   60.6030   62.4609 C   0  0  0  0  0  0  0  0  0  0  0  0
  -30.4135   62.0083   62.0012 C   0  0  0  0  0  0  0  0  0  0  0  0
  -29.4869   63.0375   62.6520 C   0  0  0  0  0  0  0  0  0  0  0  0
  -29.8135   64.4731   62.2623 C   0  0  0  0  0  0  0  0  0  0  0  0
  -30.7649   64.5762   61.0755 C   0  0  0  0  0  0  0  0  0  0  0  0
  -30.7370   65.9215   60.3591 C   0  0  0  0  0  0  0  0  0  0  0  0
  -31.7557   66.9201   60.8904 C   0  0  0  0  0  0  0  0  0  0  0  0
  -31.5442   67.3107   62.3446 C   0  0  0  0  0  0  0  0  0  0  0  0
  -32.6757   68.1523   62.8992 C   0  0  0  0  0  0  0  0  0  0  0  0
  -40.1180   61.0467   66.2268 O   0  0  0  0  0  0  0  0  0  0  0  0
  -40.7144   60.1231   65.3115 C   0  0  0  0  0  0  0  0  0  0  0  0
  -39.1817   61.1652   66.0026 H   0  0  0  0  0  0  0  0  0  0  0  0
  -42.1637   59.9152   65.6281 C   0  0  0  0  0  0  0  0  0  0  0  0
  -42.6260   59.3407   66.7209 C   0  0  0  0  0  0  0  0  0  0  0  0
  -44.0793   59.1613   67.0149 C   0  0  0  0  0  0  0  0  0  0  0  0
  -44.6185   57.8851   66.3655 C   0  0  0  0  0  0  0  0  0  0  0  0
  -45.0824   58.0649   64.9291 C   0  0  0  0  0  0  0  0  0  0  0  0
  -46.4029   58.8024   64.7869 C   0  0  0  0  0  0  0  0  0  0  0  0
  -47.4797   58.3357   65.7556 C   0  0  0  0  0  0  0  0  0  0  0  0
  -48.2806   59.4721   66.3723 C   0  0  0  0  0  0  0  0  0  0  0  0
  -49.7809   59.3385   66.1789 C   0  0  0  0  0  0  0  0  0  0  0  0
  -50.1784   58.6407   64.8915 C   0  0  0  0  0  0  0  0  0  0  0  0
  -50.9961   59.5071   63.9489 C   0  0  0  0  0  0  0  0  0  0  0  0
  -51.1193   58.9166   62.5566 C   0  0  0  0  0  0  0  0  0  0  0  0
  -49.8193   58.8754   61.7765 C   0  0  0  0  0  0  0  0  0  0  0  0
  -49.9824   58.2498   60.4052 C   0  0  0  0  0  0  0  0  0  0  0  0
  -48.7324   57.5293   59.9437 C   0  0  0  0  0  0  0  0  0  0  0  0
  -38.4352   59.0231   65.3429 C   0  0  0  0  0  0  0  0  0  0  0  0
  -38.1590   60.1684   64.5288 O   0  0  0  0  0  0  0  0  0  0  0  0
  -36.4528   61.3013   62.6192 O   0  0  0  0  0  0  0  0  0  0  0  0
  -36.8960   64.3298   65.6448 O   0  0  0  0  0  0  0  0  0  0  0  0
  -37.2708   61.5262   66.1708 O   0  0  0  0  0  0  0  0  0  0  0  0
  -37.0343   60.8982   64.9245 C   0  0  0  0  0  0  0  0  0  0  0  0
  -36.7490   61.9428   63.8532 C   0  0  0  0  0  0  0  0  0  0  0  0
  -35.5813   62.8211   64.2845 C   0  0  0  0  0  0  0  0  0  0  0  0
  -35.8167   63.4013   65.6713 C   0  0  0  0  0  0  0  0  0  0  0  0
  -36.1424   62.2753   66.6495 C   0  0  0  0  0  0  0  0  0  0  0  0
  -37.2028   60.7456   62.3555 H   0  0  0  0  0  0  0  0  0  0  0  0
  -36.6910   65.0461   65.0237 H   0  0  0  0  0  0  0  0  0  0  0  0
  -36.0700   64.1135   68.2322 O   0  0  0  0  0  0  0  0  0  0  0  0
  -36.5012   62.7725   68.0303 C   0  0  0  0  0  0  0  0  0  0  0  0
  -36.3153   64.4009   69.1256 H   0  0  0  0  0  0  0  0  0  0  0  0
  -35.5506   63.9038   63.3014 O   0  0  0  0  0  0  0  0  0  0  0  0
  -34.4718   65.2223   61.5972 O   0  0  0  0  0  0  0  0  0  0  0  0
  -33.7403   62.8590   62.0388 O   0  0  0  0  0  0  0  0  0  0  0  0
  -33.2940   64.6154   63.5726 O   0  0  0  0  0  0  0  0  0  0  0  0
  -34.2252   64.1215   62.4532 S   0  0  0  0  0  0  0  0  0  0  0  0
  -35.0585   64.9459   60.8760 H   0  0  0  0  0  0  0  0  0  0  0  0
  -33.5953   65.4830   63.8845 H   0  0  0  0  0  0  0  0  0  0  0  0
  2  1  1  0  0  0
  2  4  1  0  0  0
  2  5  1  0  0  0
 47 48  1  0  0  0
 47  1  1  0  0  0
 48 52  1  0  0  0
  1 30  1  0  0  0
 29 30  1  0  0  0
 29 31  1  0  0  0
 30 32  1  0  0  0
  3  4  2  0  0  0
 32 33  2  0  0  0
 49 53  1  0  0  0
 49 57  1  0  0  0
 33 34  1  0  0  0
 62 54  1  0  0  0
 62 66  1  0  0  0
 34 35  1  0  0  0
 50 55  1  0  0  0
 50 58  1  0  0  0
 35 36  1  0  0  0
 51 52  1  0  0  0
 51 56  1  0  0  0
 36 37  1  0  0  0
 59 60  1  0  0  0
 59 61  1  0  0  0
 37 38  1  0  0  0
 63 66  1  0  0  0
 63 67  1  0  0  0
 38 39  1  0  0  0
 64 66  1  0  0  0
 39 40  1  0  0  0
 65 66  1  0  0  0
 65 68  1  0  0  0
 40 41  1  0  0  0
 41 42  1  0  0  0
 42 43  1  0  0  0
 43 44  1  0  0  0
 44 45  1  0  0  0
 45 46  1  0  0  0
  4  6  1  0  0  0
  6  7  1  0  0  0
  7  8  1  0  0  0
  8  9  1  0  0  0
  9 10  1  0  0  0
 10 11  1  0  0  0
 11 12  1  0  0  0
 12 13  1  0  0  0
 13 14  1  0  0  0
 14 15  1  0  0  0
 15 16  1  0  0  0
 16 17  1  0  0  0
 17 18  1  0  0  0
 18 19  1  0  0  0
 19 20  2  0  0  0
 20 21  1  0  0  0
 21 22  1  0  0  0
 22 23  1  0  0  0
 23 24  1  0  0  0
 24 25  1  0  0  0
 25 26  1  0  0  0
 26 27  1  0  0  0
 27 28  1  0  0  0
 52 53  1  0  0  0
 53 54  1  0  0  0
 54 55  1  0  0  0
 55 56  1  0  0  0
 56 60  1  0  0  0
M  CHG 1  64  -1
M  END
> <minimizedAffinity>
-8.46524

> <CNNscore>
0.1516335607

> <CNNaffinity>
7.1262884140

> <CNN_VS>
1.0805845261

> <CNNaffinity_variance>
1.3991692066

$$$$
/media/chris/experiments/cd1a-new-docking/inputs/ligands/7ryn_ligand.pdb


 68 68  0  0  0  0  0  0  0  0999 V2000
  -34.9832   61.3272   64.3446 C   0  0  0  0  0  0  0  0  0  0  0  0
  -35.0291   60.2866   63.3217 N   0  0  0  0  0  0  0  0  0  0  0  0
  -34.6497   58.5651   64.7218 O   0  0  0  0  0  0  0  0  0  0  0  0
  -34.8591   58.9889   63.5889 C   0  0  0  0  0  0  0  0  0  0  0  0
  -35.1934   60.5546   62.3888 H   0  0  0  0  0  0  0  0  0  0  0  0
  -34.9483   58.0616   62.4025 C   0  0  0  0  0  0  0  0  0  0  0  0
  -36.3253   58.0757   61.7514 C   0  0  0  0  0  0  0  0  0  0  0  0
  -37.3722   57.3454   62.5772 C   0  0  0  0  0  0  0  0  0  0  0  0
  -38.7502   57.3147   61.9375 C   0  0  0  0  0  0  0  0  0  0  0  0
  -39.2491   58.6789   61.4851 C   0  0  0  0  0  0  0  0  0  0  0  0
  -40.2409   58.6244   60.3301 C   0  0  0  0  0  0  0  0  0  0  0  0
  -41.4745   59.4942   60.5348 C   0  0  0  0  0  0  0  0  0  0  0  0
  -41.4923   60.2692   61.8499 C   0  0  0  0  0  0  0  0  0  0  0  0
  -42.6616   59.9125   62.7663 C   0  0  0  0  0  0  0  0  0  0  0  0
  -42.9832   58.4198   62.8371 C   0  0  0  0  0  0  0  0  0  0  0  0
  -44.2263   58.1036   63.6691 C   0  0  0  0  0  0  0  0  0  0  0  0
  -45.0795   59.3152   64.0440 C   0  0  0  0  0  0  0  0  0  0  0  0
  -46.5898   59.1106   63.8974 C   0  0  0  0  0  0  0  0  0  0  0  0
  -47.3905   60.2374   64.4835 C   0  0  0  0  0  0  0  0  0  0  0  0
  -48.5057   60.7414   63.9851 C   0  0  0  0  0  0  0  0  0  0  0  0
  -49.1972   60.2873   62.7355 C   0  0  0  0  0  0  0  0  0  0  0  0
  -49.3310   58.7671   62.6249 C   0  0  0  0  0  0  0  0  0  0  0  0
  -50.7033   58.3170   62.1415 C   0  0  0  0  0  0  0  0  0  0  0  0
  -50.6502   57.4648   60.8784 C   0  0  0  0  0  0  0  0  0  0  0  0
  -49.8939   58.1021   59.7183 C   0  0  0  0  0  0  0  0  0  0  0  0
  -49.0647   57.1137   58.9105 C   0  0  0  0  0  0  0  0  0  0  0  0
  -47.6976   57.6377   58.5002 C   0  0  0  0  0  0  0  0  0  0  0  0
  -47.5408   57.7623   56.9982 C   0  0  0  0  0  0  0  0  0  0  0  0
  -36.1690   63.3673   64.8611 O   0  0  0  0  0  0  0  0  0  0  0  0
  -36.3551   62.0148   64.4337 C   0  0  0  0  0  0  0  0  0  0  0  0
  -35.5705   63.8209   64.2471 H   0  0  0  0  0  0  0  0  0  0  0  0
  -37.2758   61.2819   65.3605 C   0  0  0  0  0  0  0  0  0  0  0  0
  -38.1459   60.3619   64.9938 C   0  0  0  0  0  0  0  0  0  0  0  0
  -39.0408   59.6374   65.9451 C   0  0  0  0  0  0  0  0  0  0  0  0
  -39.7656   58.4838   65.2486 C   0  0  0  0  0  0  0  0  0  0  0  0
  -41.1756   58.2350   65.7591 C   0  0  0  0  0  0  0  0  0  0  0  0
  -41.9080   59.4882   66.2071 C   0  0  0  0  0  0  0  0  0  0  0  0
  -42.8433   59.2697   67.3874 C   0  0  0  0  0  0  0  0  0  0  0  0
  -44.0312   58.3751   67.0681 C   0  0  0  0  0  0  0  0  0  0  0  0
  -45.3749   59.0020   67.3963 C   0  0  0  0  0  0  0  0  0  0  0  0
  -46.4668   57.9957   67.7082 C   0  0  0  0  0  0  0  0  0  0  0  0
  -46.7710   57.0433   66.5645 C   0  0  0  0  0  0  0  0  0  0  0  0
  -48.2498   56.9671   66.2331 C   0  0  0  0  0  0  0  0  0  0  0  0
  -49.0000   58.2728   66.4133 C   0  0  0  0  0  0  0  0  0  0  0  0
  -50.4328   58.1938   65.9239 C   0  0  0  0  0  0  0  0  0  0  0  0
  -51.1007   59.5520   65.8622 C   0  0  0  0  0  0  0  0  0  0  0  0
  -33.8732   62.3106   64.0359 C   0  0  0  0  0  0  0  0  0  0  0  0
  -34.1495   62.9186   62.7691 O   0  0  0  0  0  0  0  0  0  0  0  0
  -33.4230   65.2230   61.3538 O   0  0  0  0  0  0  0  0  0  0  0  0
  -29.6972   63.4755   62.6134 O   0  0  0  0  0  0  0  0  0  0  0  0
  -32.1120   61.9457   62.2887 O   0  0  0  0  0  0  0  0  0  0  0  0
  -33.0774   62.8935   61.8725 C   0  0  0  0  0  0  0  0  0  0  0  0
  -32.4644   64.2873   61.8310 C   0  0  0  0  0  0  0  0  0  0  0  0
  -31.2355   64.2859   60.9306 C   0  0  0  0  0  0  0  0  0  0  0  0
  -30.2611   63.1903   61.3375 C   0  0  0  0  0  0  0  0  0  0  0  0
  -30.9911   61.8507   61.3953 C   0  0  0  0  0  0  0  0  0  0  0  0
  -34.1999   65.2146   61.9346 H   0  0  0  0  0  0  0  0  0  0  0  0
  -29.2328   64.3264   62.5787 H   0  0  0  0  0  0  0  0  0  0  0  0
  -28.8101   60.7876   61.3566 O   0  0  0  0  0  0  0  0  0  0  0  0
  -30.1233   60.7220   61.9007 C   0  0  0  0  0  0  0  0  0  0  0  0
  -28.2806   60.0510   61.7003 H   0  0  0  0  0  0  0  0  0  0  0  0
  -30.6173   65.5937   61.1473 O   0  0  0  0  0  0  0  0  0  0  0  0
  -31.0570   65.9335   58.8025 O   0  0  0  0  0  0  0  0  0  0  0  0
  -29.3966   67.3793   60.0141 O   0  0  0  0  0  0  0  0  0  0  0  0
  -31.7320   67.5612   60.4000 O   0  0  0  0  0  0  0  0  0  0  0  0
  -30.5952   66.6315   59.9448 S   0  0  0  0  0  0  0  0  0  0  0  0
  -30.3621   65.3349   58.4867 H   0  0  0  0  0  0  0  0  0  0  0  0
  -32.5747   67.0821   60.3661 H   0  0  0  0  0  0  0  0  0  0  0  0
  2  1  1  0  0  0
  2  4  1  0  0  0
  2  5  1  0  0  0
 47 48  1  0  0  0
 47  1  1  0  0  0
 48 52  1  0  0  0
  1 30  1  0  0  0
 29 30  1  0  0  0
 29 31  1  0  0  0
 30 32  1  0  0  0
  3  4  2  0  0  0
 32 33  2  0  0  0
 49 53  1  0  0  0
 49 57  1  0  0  0
 33 34  1  0  0  0
 62 54  1  0  0  0
 62 66  1  0  0  0
 34 35  1  0  0  0
 50 55  1  0  0  0
 50 58  1  0  0  0
 35 36  1  0  0  0
 51 52  1  0  0  0
 51 56  1  0  0  0
 36 37  1  0  0  0
 59 60  1  0  0  0
 59 61  1  0  0  0
 37 38  1  0  0  0
 63 66  1  0  0  0
 63 67  1  0  0  0
 38 39  1  0  0  0
 64 66  1  0  0  0
 39 40  1  0  0  0
 65 66  1  0  0  0
 65 68  1  0  0  0
 40 41  1  0  0  0
 41 42  1  0  0  0
 42 43  1  0  0  0
 43 44  1  0  0  0
 44 45  1  0  0  0
 45 46  1  0  0  0
  4  6  1  0  0  0
  6  7  1  0  0  0
  7  8  1  0  0  0
  8  9  1  0  0  0
  9 10  1  0  0  0
 10 11  1  0  0  0
 11 12  1  0  0  0
 12 13  1  0  0  0
 13 14  1  0  0  0
 14 15  1  0  0  0
 15 16  1  0  0  0
 16 17  1  0  0  0
 17 18  1  0  0  0
 18 19  1  0  0  0
 19 20  2  0  0  0
 20 21  1  0  0  0
 21 22  1  0  0  0
 22 23  1  0  0  0
 23 24  1  0  0  0
 24 25  1  0  0  0
 25 26  1  0  0  0
 26 27  1  0  0  0
 27 28  1  0  0  0
 52 53  1  0  0  0
 53 54  1  0  0  0
 54 55  1  0  0  0
 55 56  1  0  0  0
 56 60  1  0  0  0
M  CHG 1  64  -1
M  END
> <minimizedAffinity>
-8.49727

> <CNNscore>
0.1316687018

> <CNNaffinity>
6.9972686768

> <CNN_VS>
0.9213212729

> <CNNaffinity_variance>
0.7750789523

$$$$
/media/chris/experiments/cd1a-new-docking/inputs/ligands/7ryn_ligand.pdb


 68 68  0  0  0  0  0  0  0  0999 V2000
  -34.8634   61.7010   64.5805 C   0  0  0  0  0  0  0  0  0  0  0  0
  -34.6600   60.7074   63.5305 N   0  0  0  0  0  0  0  0  0  0  0  0
  -33.4262   59.2972   64.7781 O   0  0  0  0  0  0  0  0  0  0  0  0
  -33.9587   59.5849   63.7101 C   0  0  0  0  0  0  0  0  0  0  0  0
  -35.0597   60.8729   62.6461 H   0  0  0  0  0  0  0  0  0  0  0  0
  -33.8644   58.6755   62.5103 C   0  0  0  0  0  0  0  0  0  0  0  0
  -35.0482   57.7226   62.4043 C   0  0  0  0  0  0  0  0  0  0  0  0
  -35.6478   57.3791   63.7584 C   0  0  0  0  0  0  0  0  0  0  0  0
  -37.1673   57.3789   63.7772 C   0  0  0  0  0  0  0  0  0  0  0  0
  -37.7657   57.6825   65.1425 C   0  0  0  0  0  0  0  0  0  0  0  0
  -39.2159   58.1466   65.0943 C   0  0  0  0  0  0  0  0  0  0  0  0
  -40.0471   57.4621   64.0169 C   0  0  0  0  0  0  0  0  0  0  0  0
  -41.2131   56.6320   64.5479 C   0  0  0  0  0  0  0  0  0  0  0  0
  -42.5586   56.9679   63.9067 C   0  0  0  0  0  0  0  0  0  0  0  0
  -43.6633   57.3331   64.8981 C   0  0  0  0  0  0  0  0  0  0  0  0
  -44.6862   58.3194   64.3338 C   0  0  0  0  0  0  0  0  0  0  0  0
  -45.9231   58.5380   65.2048 C   0  0  0  0  0  0  0  0  0  0  0  0
  -47.1910   58.9251   64.4389 C   0  0  0  0  0  0  0  0  0  0  0  0
  -48.1180   59.7892   65.2441 C   0  0  0  0  0  0  0  0  0  0  0  0
  -49.4331   59.6760   65.3033 C   0  0  0  0  0  0  0  0  0  0  0  0
  -50.2640   58.6597   64.5803 C   0  0  0  0  0  0  0  0  0  0  0  0
  -51.0223   59.2281   63.3789 C   0  0  0  0  0  0  0  0  0  0  0  0
  -50.9906   58.3153   62.1602 C   0  0  0  0  0  0  0  0  0  0  0  0
  -49.6805   58.3881   61.3839 C   0  0  0  0  0  0  0  0  0  0  0  0
  -49.5587   57.3714   60.2545 C   0  0  0  0  0  0  0  0  0  0  0  0
  -48.1837   57.3420   59.6020 C   0  0  0  0  0  0  0  0  0  0  0  0
  -48.2162   57.2011   58.0884 C   0  0  0  0  0  0  0  0  0  0  0  0
  -47.1908   58.0736   57.3932 C   0  0  0  0  0  0  0  0  0  0  0  0
  -36.7228   62.6419   65.8020 O   0  0  0  0  0  0  0  0  0  0  0  0
  -36.2976   62.2472   64.4944 C   0  0  0  0  0  0  0  0  0  0  0  0
  -36.1021   63.2958   66.1601 H   0  0  0  0  0  0  0  0  0  0  0  0
  -37.2346   61.2357   63.9089 C   0  0  0  0  0  0  0  0  0  0  0  0
  -37.7756   61.3088   62.7089 C   0  0  0  0  0  0  0  0  0  0  0  0
  -38.6957   60.2751   62.1472 C   0  0  0  0  0  0  0  0  0  0  0  0
  -37.9566   59.3479   61.1801 C   0  0  0  0  0  0  0  0  0  0  0  0
  -38.8347   58.2818   60.5453 C   0  0  0  0  0  0  0  0  0  0  0  0
  -40.1013   58.8183   59.9005 C   0  0  0  0  0  0  0  0  0  0  0  0
  -41.3722   58.1150   60.3541 C   0  0  0  0  0  0  0  0  0  0  0  0
  -42.1770   58.9056   61.3741 C   0  0  0  0  0  0  0  0  0  0  0  0
  -41.8146   60.3793   61.4301 C   0  0  0  0  0  0  0  0  0  0  0  0
  -42.7721   61.2204   62.2536 C   0  0  0  0  0  0  0  0  0  0  0  0
  -42.1800   61.7287   63.5569 C   0  0  0  0  0  0  0  0  0  0  0  0
  -41.7200   60.6117   64.4752 C   0  0  0  0  0  0  0  0  0  0  0  0
  -41.3144   61.0690   65.8632 C   0  0  0  0  0  0  0  0  0  0  0  0
  -41.5334   60.0002   66.9159 C   0  0  0  0  0  0  0  0  0  0  0  0
  -42.9941   59.8380   67.2829 C   0  0  0  0  0  0  0  0  0  0  0  0
  -33.8281   62.8005   64.4628 C   0  0  0  0  0  0  0  0  0  0  0  0
  -34.0559   63.5043   63.2366 O   0  0  0  0  0  0  0  0  0  0  0  0
  -32.5696   65.8770   63.2803 O   0  0  0  0  0  0  0  0  0  0  0  0
  -29.6334   62.7306   63.2566 O   0  0  0  0  0  0  0  0  0  0  0  0
  -32.3009   62.3888   62.2343 O   0  0  0  0  0  0  0  0  0  0  0  0
  -32.9197   63.6460   62.4347 C   0  0  0  0  0  0  0  0  0  0  0  0
  -31.9621   64.5993   63.1378 C   0  0  0  0  0  0  0  0  0  0  0  0
  -30.6693   64.7161   62.3403 C   0  0  0  0  0  0  0  0  0  0  0  0
  -30.0795   63.3435   62.0513 C   0  0  0  0  0  0  0  0  0  0  0  0
  -31.1369   62.4590   61.3954 C   0  0  0  0  0  0  0  0  0  0  0  0
  -33.3908   65.7897   63.7891 H   0  0  0  0  0  0  0  0  0  0  0  0
  -28.9614   63.2911   63.6749 H   0  0  0  0  0  0  0  0  0  0  0  0
  -30.7164   60.2801   62.3773 O   0  0  0  0  0  0  0  0  0  0  0  0
  -30.6705   61.0391   61.1746 C   0  0  0  0  0  0  0  0  0  0  0  0
  -30.4115   59.3762   62.2010 H   0  0  0  0  0  0  0  0  0  0  0  0
  -29.7632   65.4626   63.2128 O   0  0  0  0  0  0  0  0  0  0  0  0
  -30.3102   67.4897   62.0304 O   0  0  0  0  0  0  0  0  0  0  0  0
  -27.9230   66.7299   62.2277 O   0  0  0  0  0  0  0  0  0  0  0  0
  -29.1239   67.5826   64.0898 O   0  0  0  0  0  0  0  0  0  0  0  0
  -29.2380   66.8808   62.7265 S   0  0  0  0  0  0  0  0  0  0  0  0
  -30.4116   67.0700   61.1618 H   0  0  0  0  0  0  0  0  0  0  0  0
  -30.0097   67.7045   64.4658 H   0  0  0  0  0  0  0  0  0  0  0  0
  2  1  1  0  0  0
  2  4  1  0  0  0
  2  5  1  0  0  0
 47 48  1  0  0  0
 47  1  1  0  0  0
 48 52  1  0  0  0
  1 30  1  0  0  0
 29 30  1  0  0  0
 29 31  1  0  0  0
 30 32  1  0  0  0
  3  4  2  0  0  0
 32 33  2  0  0  0
 49 53  1  0  0  0
 49 57  1  0  0  0
 33 34  1  0  0  0
 62 54  1  0  0  0
 62 66  1  0  0  0
 34 35  1  0  0  0
 50 55  1  0  0  0
 50 58  1  0  0  0
 35 36  1  0  0  0
 51 52  1  0  0  0
 51 56  1  0  0  0
 36 37  1  0  0  0
 59 60  1  0  0  0
 59 61  1  0  0  0
 37 38  1  0  0  0
 63 66  1  0  0  0
 63 67  1  0  0  0
 38 39  1  0  0  0
 64 66  1  0  0  0
 39 40  1  0  0  0
 65 66  1  0  0  0
 65 68  1  0  0  0
 40 41  1  0  0  0
 41 42  1  0  0  0
 42 43  1  0  0  0
 43 44  1  0  0  0
 44 45  1  0  0  0
 45 46  1  0  0  0
  4  6  1  0  0  0
  6  7  1  0  0  0
  7  8  1  0  0  0
  8  9  1  0  0  0
  9 10  1  0  0  0
 10 11  1  0  0  0
 11 12  1  0  0  0
 12 13  1  0  0  0
 13 14  1  0  0  0
 14 15  1  0  0  0
 15 16  1  0  0  0
 16 17  1  0  0  0
 17 18  1  0  0  0
 18 19  1  0  0  0
 19 20  2  0  0  0
 20 21  1  0  0  0
 21 22  1  0  0  0
 22 23  1  0  0  0
 23 24  1  0  0  0
 24 25  1  0  0  0
 25 26  1  0  0  0
 26 27  1  0  0  0
 27 28  1  0  0  0
 52 53  1  0  0  0
 53 54  1  0  0  0
 54 55  1  0  0  0
 55 56  1  0  0  0
 56 60  1  0  0  0
M  CHG 1  64  -1
M  END
> <minimizedAffinity>
-8.92601

> <CNNscore>
0.1197240800

> <CNNaffinity>
7.1243829727

> <CNN_VS>
0.8529601693

> <CNNaffinity_variance>
1.2904088497

$$$$
/media/chris/experiments/cd1a-new-docking/inputs/ligands/7ryn_ligand.pdb


 68 68  0  0  0  0  0  0  0  0999 V2000
  -34.9824   61.6069   64.4273 C   0  0  0  0  0  0  0  0  0  0  0  0
  -34.9127   60.4300   63.5663 N   0  0  0  0  0  0  0  0  0  0  0  0
  -33.9535   59.0804   65.0916 O   0  0  0  0  0  0  0  0  0  0  0  0
  -34.4047   59.2604   63.9642 C   0  0  0  0  0  0  0  0  0  0  0  0
  -35.2571   60.5019   62.6469 H   0  0  0  0  0  0  0  0  0  0  0  0
  -34.4251   58.1568   62.9362 C   0  0  0  0  0  0  0  0  0  0  0  0
  -35.6925   58.1681   62.0911 C   0  0  0  0  0  0  0  0  0  0  0  0
  -36.6613   57.0602   62.4718 C   0  0  0  0  0  0  0  0  0  0  0  0
  -37.8419   57.5330   63.3036 C   0  0  0  0  0  0  0  0  0  0  0  0
  -37.5764   57.5378   64.8016 C   0  0  0  0  0  0  0  0  0  0  0  0
  -38.0563   58.7971   65.5120 C   0  0  0  0  0  0  0  0  0  0  0  0
  -39.5659   58.9953   65.4636 C   0  0  0  0  0  0  0  0  0  0  0  0
  -40.0406   60.3663   65.9388 C   0  0  0  0  0  0  0  0  0  0  0  0
  -41.5098   60.4055   66.3561 C   0  0  0  0  0  0  0  0  0  0  0  0
  -42.0588   59.0789   66.8807 C   0  0  0  0  0  0  0  0  0  0  0  0
  -43.5827   59.0557   67.0015 C   0  0  0  0  0  0  0  0  0  0  0  0
  -44.2443   57.7397   66.5930 C   0  0  0  0  0  0  0  0  0  0  0  0
  -45.7752   57.7592   66.5965 C   0  0  0  0  0  0  0  0  0  0  0  0
  -46.3512   58.5363   65.4482 C   0  0  0  0  0  0  0  0  0  0  0  0
  -47.6129   58.5255   65.0559 C   0  0  0  0  0  0  0  0  0  0  0  0
  -48.7238   57.7371   65.6805 C   0  0  0  0  0  0  0  0  0  0  0  0
  -50.0059   58.5446   65.8941 C   0  0  0  0  0  0  0  0  0  0  0  0
  -50.0499   59.8309   65.0802 C   0  0  0  0  0  0  0  0  0  0  0  0
  -51.3959   60.0752   64.4072 C   0  0  0  0  0  0  0  0  0  0  0  0
  -51.4907   59.5543   62.9777 C   0  0  0  0  0  0  0  0  0  0  0  0
  -50.1566   59.5283   62.2451 C   0  0  0  0  0  0  0  0  0  0  0  0
  -49.8143   58.1836   61.6234 C   0  0  0  0  0  0  0  0  0  0  0  0
  -49.1946   58.3116   60.2466 C   0  0  0  0  0  0  0  0  0  0  0  0
  -36.7616   62.8445   65.4938 O   0  0  0  0  0  0  0  0  0  0  0  0
  -36.3444   62.2947   64.2409 C   0  0  0  0  0  0  0  0  0  0  0  0
  -36.0833   63.4564   65.8203 H   0  0  0  0  0  0  0  0  0  0  0  0
  -37.3698   61.3429   63.7054 C   0  0  0  0  0  0  0  0  0  0  0  0
  -37.8792   61.3824   62.4901 C   0  0  0  0  0  0  0  0  0  0  0  0
  -38.8904   60.4087   61.9803 C   0  0  0  0  0  0  0  0  0  0  0  0
  -38.5894   60.0092   60.5343 C   0  0  0  0  0  0  0  0  0  0  0  0
  -39.1948   58.6789   60.1164 C   0  0  0  0  0  0  0  0  0  0  0  0
  -40.7137   58.6549   60.1213 C   0  0  0  0  0  0  0  0  0  0  0  0
  -41.3099   57.2807   60.3895 C   0  0  0  0  0  0  0  0  0  0  0  0
  -40.6506   56.5437   61.5451 C   0  0  0  0  0  0  0  0  0  0  0  0
  -41.5900   56.2569   62.7033 C   0  0  0  0  0  0  0  0  0  0  0  0
  -41.9448   57.4797   63.5287 C   0  0  0  0  0  0  0  0  0  0  0  0
  -43.3270   58.0387   63.2378 C   0  0  0  0  0  0  0  0  0  0  0  0
  -43.3970   59.5485   63.3727 C   0  0  0  0  0  0  0  0  0  0  0  0
  -42.2543   60.2904   62.7063 C   0  0  0  0  0  0  0  0  0  0  0  0
  -42.3022   61.7841   62.9615 C   0  0  0  0  0  0  0  0  0  0  0  0
  -43.0628   62.5324   61.8863 C   0  0  0  0  0  0  0  0  0  0  0  0
  -33.8280   62.5401   64.1260 C   0  0  0  0  0  0  0  0  0  0  0  0
  -34.0936   63.1979   62.8819 O   0  0  0  0  0  0  0  0  0  0  0  0
  -33.3179   65.3993   61.3350 O   0  0  0  0  0  0  0  0  0  0  0  0
  -29.6313   63.5030   62.4905 O   0  0  0  0  0  0  0  0  0  0  0  0
  -32.1368   62.0959   62.3478 O   0  0  0  0  0  0  0  0  0  0  0  0
  -33.0703   63.0774   61.9372 C   0  0  0  0  0  0  0  0  0  0  0  0
  -32.3874   64.4327   61.8061 C   0  0  0  0  0  0  0  0  0  0  0  0
  -31.2067   64.3272   60.8493 C   0  0  0  0  0  0  0  0  0  0  0  0
  -30.2724   63.1973   61.2564 C   0  0  0  0  0  0  0  0  0  0  0  0
  -31.0684   61.9032   61.4070 C   0  0  0  0  0  0  0  0  0  0  0  0
  -34.0642   65.4573   61.9518 H   0  0  0  0  0  0  0  0  0  0  0  0
  -29.1250   64.3250   62.3969 H   0  0  0  0  0  0  0  0  0  0  0  0
  -28.9493   60.7243   61.3145 O   0  0  0  0  0  0  0  0  0  0  0  0
  -30.2372   60.7502   61.9190 C   0  0  0  0  0  0  0  0  0  0  0  0
  -28.4430   59.9743   61.6641 H   0  0  0  0  0  0  0  0  0  0  0  0
  -30.5103   65.6069   60.9793 O   0  0  0  0  0  0  0  0  0  0  0  0
  -30.3471   65.6662   58.5759 O   0  0  0  0  0  0  0  0  0  0  0  0
  -29.4316   67.5491   59.9658 O   0  0  0  0  0  0  0  0  0  0  0  0
  -31.7662   67.1926   59.7221 O   0  0  0  0  0  0  0  0  0  0  0  0
  -30.3776   66.5328   59.6953 S   0  0  0  0  0  0  0  0  0  0  0  0
  -29.4816   65.2309   58.5275 H   0  0  0  0  0  0  0  0  0  0  0  0
  -32.4452   66.5243   59.5400 H   0  0  0  0  0  0  0  0  0  0  0  0
  2  1  1  0  0  0
  2  4  1  0  0  0
  2  5  1  0  0  0
 47 48  1  0  0  0
 47  1  1  0  0  0
 48 52  1  0  0  0
  1 30  1  0  0  0
 29 30  1  0  0  0
 29 31  1  0  0  0
 30 32  1  0  0  0
  3  4  2  0  0  0
 32 33  2  0  0  0
 49 53  1  0  0  0
 49 57  1  0  0  0
 33 34  1  0  0  0
 62 54  1  0  0  0
 62 66  1  0  0  0
 34 35  1  0  0  0
 50 55  1  0  0  0
 50 58  1  0  0  0
 35 36  1  0  0  0
 51 52  1  0  0  0
 51 56  1  0  0  0
 36 37  1  0  0  0
 59 60  1  0  0  0
 59 61  1  0  0  0
 37 38  1  0  0  0
 63 66  1  0  0  0
 63 67  1  0  0  0
 38 39  1  0  0  0
 64 66  1  0  0  0
 39 40  1  0  0  0
 65 66  1  0  0  0
 65 68  1  0  0  0
 40 41  1  0  0  0
 41 42  1  0  0  0
 42 43  1  0  0  0
 43 44  1  0  0  0
 44 45  1  0  0  0
 45 46  1  0  0  0
  4  6  1  0  0  0
  6  7  1  0  0  0
  7  8  1  0  0  0
  8  9  1  0  0  0
  9 10  1  0  0  0
 10 11  1  0  0  0
 11 12  1  0  0  0
 12 13  1  0  0  0
 13 14  1  0  0  0
 14 15  1  0  0  0
 15 16  1  0  0  0
 16 17  1  0  0  0
 17 18  1  0  0  0
 18 19  1  0  0  0
 19 20  2  0  0  0
 20 21  1  0  0  0
 21 22  1  0  0  0
 22 23  1  0  0  0
 23 24  1  0  0  0
 24 25  1  0  0  0
 25 26  1  0  0  0
 26 27  1  0  0  0
 27 28  1  0  0  0
 52 53  1  0  0  0
 53 54  1  0  0  0
 54 55  1  0  0  0
 55 56  1  0  0  0
 56 60  1  0  0  0
M  CHG 1  64  -1
M  END
> <minimizedAffinity>
-9.02554

> <CNNscore>
0.1148573682

> <CNNaffinity>
7.2056989670

> <CNN_VS>
0.8276275992

> <CNNaffinity_variance>
1.3058534861

$$$$
