/media/chris/experiments/cd1a-new-docking/inputs/ligands/7ryn_ligand.pdb


 68 68  0  0  0  0  0  0  0  0999 V2000
  -38.8417   60.1276   61.4973 C   0  0  0  0  0  0  0  0  0  0  0  0
  -39.7469   59.0437   61.8678 N   0  0  0  0  0  0  0  0  0  0  0  0
  -41.0130   59.1504   60.0094 O   0  0  0  0  0  0  0  0  0  0  0  0
  -40.7603   58.6400   61.0968 C   0  0  0  0  0  0  0  0  0  0  0  0
  -39.6034   58.5879   62.7284 H   0  0  0  0  0  0  0  0  0  0  0  0
  -41.5823   57.4999   61.6443 C   0  0  0  0  0  0  0  0  0  0  0  0
  -40.8165   56.6617   62.6599 C   0  0  0  0  0  0  0  0  0  0  0  0
  -41.6950   55.6318   63.3520 C   0  0  0  0  0  0  0  0  0  0  0  0
  -41.9660   55.9371   64.8158 C   0  0  0  0  0  0  0  0  0  0  0  0
  -43.1270   56.8945   65.0399 C   0  0  0  0  0  0  0  0  0  0  0  0
  -43.1129   57.5778   66.4012 C   0  0  0  0  0  0  0  0  0  0  0  0
  -44.2408   58.5824   66.5990 C   0  0  0  0  0  0  0  0  0  0  0  0
  -45.6418   57.9772   66.5629 C   0  0  0  0  0  0  0  0  0  0  0  0
  -46.6447   58.6751   67.4802 C   0  0  0  0  0  0  0  0  0  0  0  0
  -47.8492   59.2831   66.7619 C   0  0  0  0  0  0  0  0  0  0  0  0
  -48.4682   58.3538   65.7175 C   0  0  0  0  0  0  0  0  0  0  0  0
  -49.9928   58.2538   65.7626 C   0  0  0  0  0  0  0  0  0  0  0  0
  -50.7357   59.4903   65.2496 C   0  0  0  0  0  0  0  0  0  0  0  0
  -50.1711   60.0177   63.9623 C   0  0  0  0  0  0  0  0  0  0  0  0
  -50.4736   59.5936   62.7480 C   0  0  0  0  0  0  0  0  0  0  0  0
  -51.4440   58.5022   62.4114 C   0  0  0  0  0  0  0  0  0  0  0  0
  -50.9484   57.5554   61.3162 C   0  0  0  0  0  0  0  0  0  0  0  0
  -49.9541   58.2051   60.3631 C   0  0  0  0  0  0  0  0  0  0  0  0
  -48.5477   57.6263   60.4690 C   0  0  0  0  0  0  0  0  0  0  0  0
  -48.2317   56.5436   59.4435 C   0  0  0  0  0  0  0  0  0  0  0  0
  -48.5019   56.9638   58.0056 C   0  0  0  0  0  0  0  0  0  0  0  0
  -47.6640   58.1414   57.5335 C   0  0  0  0  0  0  0  0  0  0  0  0
  -46.2779   57.7333   57.0775 C   0  0  0  0  0  0  0  0  0  0  0  0
  -37.8567   58.6917   59.8230 O   0  0  0  0  0  0  0  0  0  0  0  0
  -37.5399   59.5344   60.9348 C   0  0  0  0  0  0  0  0  0  0  0  0
  -38.3440   59.2031   59.1584 H   0  0  0  0  0  0  0  0  0  0  0  0
  -36.7853   58.7765   61.9837 C   0  0  0  0  0  0  0  0  0  0  0  0
  -35.9253   57.8059   61.7463 C   0  0  0  0  0  0  0  0  0  0  0  0
  -35.1766   57.0787   62.8146 C   0  0  0  0  0  0  0  0  0  0  0  0
  -33.6894   57.4369   62.7853 C   0  0  0  0  0  0  0  0  0  0  0  0
  -33.2028   58.1787   64.0197 C   0  0  0  0  0  0  0  0  0  0  0  0
  -32.7337   59.5985   63.7509 C   0  0  0  0  0  0  0  0  0  0  0  0
  -32.5569   59.9225   62.2746 C   0  0  0  0  0  0  0  0  0  0  0  0
  -31.2596   60.6515   61.9604 C   0  0  0  0  0  0  0  0  0  0  0  0
  -31.3198   62.1467   62.2192 C   0  0  0  0  0  0  0  0  0  0  0  0
  -29.9908   62.8581   62.0454 C   0  0  0  0  0  0  0  0  0  0  0  0
  -30.0480   64.0472   61.1019 C   0  0  0  0  0  0  0  0  0  0  0  0
  -31.4548   64.3617   60.6280 C   0  0  0  0  0  0  0  0  0  0  0  0
  -31.9031   65.7852   60.8983 C   0  0  0  0  0  0  0  0  0  0  0  0
  -31.4646   66.7499   59.8140 C   0  0  0  0  0  0  0  0  0  0  0  0
  -30.1918   67.4880   60.1740 C   0  0  0  0  0  0  0  0  0  0  0  0
  -38.5886   61.0242   62.6916 C   0  0  0  0  0  0  0  0  0  0  0  0
  -37.4030   61.7866   62.4392 O   0  0  0  0  0  0  0  0  0  0  0  0
  -35.1035   63.3785   62.3005 O   0  0  0  0  0  0  0  0  0  0  0  0
  -36.7277   64.1170   66.2170 O   0  0  0  0  0  0  0  0  0  0  0  0
  -37.2410   61.7017   64.7404 O   0  0  0  0  0  0  0  0  0  0  0  0
  -36.5303   61.8711   63.5280 C   0  0  0  0  0  0  0  0  0  0  0  0
  -35.8646   63.2406   63.4937 C   0  0  0  0  0  0  0  0  0  0  0  0
  -34.9680   63.4112   64.7136 C   0  0  0  0  0  0  0  0  0  0  0  0
  -35.7318   63.1233   65.9978 C   0  0  0  0  0  0  0  0  0  0  0  0
  -36.3974   61.7526   65.9021 C   0  0  0  0  0  0  0  0  0  0  0  0
  -35.6846   63.2679   61.5318 H   0  0  0  0  0  0  0  0  0  0  0  0
  -36.3068   64.9888   66.2780 H   0  0  0  0  0  0  0  0  0  0  0  0
  -36.8203   62.0956   68.2669 O   0  0  0  0  0  0  0  0  0  0  0  0
  -37.2714   61.4317   67.0919 C   0  0  0  0  0  0  0  0  0  0  0  0
  -37.4015   61.8687   69.0096 H   0  0  0  0  0  0  0  0  0  0  0  0
  -34.5716   64.8188   64.6868 O   0  0  0  0  0  0  0  0  0  0  0  0
  -32.9626   65.1273   66.4541 O   0  0  0  0  0  0  0  0  0  0  0  0
  -32.6730   66.2896   64.2449 O   0  0  0  0  0  0  0  0  0  0  0  0
  -32.3652   63.9470   64.4774 O   0  0  0  0  0  0  0  0  0  0  0  0
  -33.0690   65.1912   65.0435 S   0  0  0  0  0  0  0  0  0  0  0  0
  -33.3979   65.9003   66.8465 H   0  0  0  0  0  0  0  0  0  0  0  0
  -32.6128   63.1691   65.0012 H   0  0  0  0  0  0  0  0  0  0  0  0
  2  1  1  0  0  0
  2  4  1  0  0  0
  2  5  1  0  0  0
 47 48  1  0  0  0
 47  1  1  0  0  0
 48 52  1  0  0  0
  1 30  1  0  0  0
 29 30  1  0  0  0
 29 31  1  0  0  0
 30 32  1  0  0  0
  3  4  2  0  0  0
 32 33  2  0  0  0
 49 53  1  0  0  0
 49 57  1  0  0  0
 33 34  1  0  0  0
 62 54  1  0  0  0
 62 66  1  0  0  0
 34 35  1  0  0  0
 50 55  1  0  0  0
 50 58  1  0  0  0
 35 36  1  0  0  0
 51 52  1  0  0  0
 51 56  1  0  0  0
 36 37  1  0  0  0
 59 60  1  0  0  0
 59 61  1  0  0  0
 37 38  1  0  0  0
 63 66  1  0  0  0
 63 67  1  0  0  0
 38 39  1  0  0  0
 64 66  1  0  0  0
 39 40  1  0  0  0
 65 66  1  0  0  0
 65 68  1  0  0  0
 40 41  1  0  0  0
 41 42  1  0  0  0
 42 43  1  0  0  0
 43 44  1  0  0  0
 44 45  1  0  0  0
 45 46  1  0  0  0
  4  6  1  0  0  0
  6  7  1  0  0  0
  7  8  1  0  0  0
  8  9  1  0  0  0
  9 10  1  0  0  0
 10 11  1  0  0  0
 11 12  1  0  0  0
 12 13  1  0  0  0
 13 14  1  0  0  0
 14 15  1  0  0  0
 15 16  1  0  0  0
 16 17  1  0  0  0
 17 18  1  0  0  0
 18 19  1  0  0  0
 19 20  2  0  0  0
 20 21  1  0  0  0
 21 22  1  0  0  0
 22 23  1  0  0  0
 23 24  1  0  0  0
 24 25  1  0  0  0
 25 26  1  0  0  0
 26 27  1  0  0  0
 27 28  1  0  0  0
 52 53  1  0  0  0
 53 54  1  0  0  0
 54 55  1  0  0  0
 55 56  1  0  0  0
 56 60  1  0  0  0
M  CHG 1  64  -1
M  END
> <minimizedAffinity>
-8.49127

> <CNNscore>
0.2272333354

> <CNNaffinity>
6.9852271080

> <CNN_VS>
1.5872764587

> <CNNaffinity_variance>
0.3616232574

$$$$
/media/chris/experiments/cd1a-new-docking/inputs/ligands/7ryn_ligand.pdb


 68 68  0  0  0  0  0  0  0  0999 V2000
  -37.9218   59.7101   62.0567 C   0  0  0  0  0  0  0  0  0  0  0  0
  -39.2279   59.2840   61.5631 N   0  0  0  0  0  0  0  0  0  0  0  0
  -38.5592   58.8764   59.4525 O   0  0  0  0  0  0  0  0  0  0  0  0
  -39.4450   58.9011   60.3019 C   0  0  0  0  0  0  0  0  0  0  0  0
  -39.9863   59.2787   62.1908 H   0  0  0  0  0  0  0  0  0  0  0  0
  -40.8596   58.4877   59.9801 C   0  0  0  0  0  0  0  0  0  0  0  0
  -41.3292   57.3067   60.8198 C   0  0  0  0  0  0  0  0  0  0  0  0
  -42.3619   57.7025   61.8629 C   0  0  0  0  0  0  0  0  0  0  0  0
  -42.1957   56.9913   63.1955 C   0  0  0  0  0  0  0  0  0  0  0  0
  -40.8116   57.1473   63.8076 C   0  0  0  0  0  0  0  0  0  0  0  0
  -40.7123   58.2637   64.8392 C   0  0  0  0  0  0  0  0  0  0  0  0
  -42.0619   58.7811   65.3202 C   0  0  0  0  0  0  0  0  0  0  0  0
  -42.4954   58.2483   66.6835 C   0  0  0  0  0  0  0  0  0  0  0  0
  -43.9348   57.7375   66.7227 C   0  0  0  0  0  0  0  0  0  0  0  0
  -44.7115   57.9203   65.4190 C   0  0  0  0  0  0  0  0  0  0  0  0
  -46.2128   57.6704   65.5644 C   0  0  0  0  0  0  0  0  0  0  0  0
  -47.0686   58.9297   65.6990 C   0  0  0  0  0  0  0  0  0  0  0  0
  -47.5634   59.5179   64.3750 C   0  0  0  0  0  0  0  0  0  0  0  0
  -48.6358   60.5522   64.5609 C   0  0  0  0  0  0  0  0  0  0  0  0
  -49.9384   60.3462   64.4795 C   0  0  0  0  0  0  0  0  0  0  0  0
  -50.6077   59.0373   64.1881 C   0  0  0  0  0  0  0  0  0  0  0  0
  -51.1699   58.9371   62.7684 C   0  0  0  0  0  0  0  0  0  0  0  0
  -50.3807   57.9907   61.8736 C   0  0  0  0  0  0  0  0  0  0  0  0
  -49.5654   58.7084   60.8039 C   0  0  0  0  0  0  0  0  0  0  0  0
  -49.4326   57.9434   59.4920 C   0  0  0  0  0  0  0  0  0  0  0  0
  -47.9976   57.5803   59.1369 C   0  0  0  0  0  0  0  0  0  0  0  0
  -47.6242   57.8625   57.6903 C   0  0  0  0  0  0  0  0  0  0  0  0
  -47.1818   56.6209   56.9429 C   0  0  0  0  0  0  0  0  0  0  0  0
  -37.2555   58.9276   64.2427 O   0  0  0  0  0  0  0  0  0  0  0  0
  -37.2821   58.5655   62.8590 C   0  0  0  0  0  0  0  0  0  0  0  0
  -38.1563   59.1267   64.5422 H   0  0  0  0  0  0  0  0  0  0  0  0
  -35.9049   58.2505   62.3610 C   0  0  0  0  0  0  0  0  0  0  0  0
  -34.8546   58.0280   63.1261 C   0  0  0  0  0  0  0  0  0  0  0  0
  -33.4960   57.7012   62.5987 C   0  0  0  0  0  0  0  0  0  0  0  0
  -32.9279   58.8644   61.7831 C   0  0  0  0  0  0  0  0  0  0  0  0
  -32.2743   59.9518   62.6205 C   0  0  0  0  0  0  0  0  0  0  0  0
  -30.7555   59.9370   62.5883 C   0  0  0  0  0  0  0  0  0  0  0  0
  -30.1325   61.2624   62.1752 C   0  0  0  0  0  0  0  0  0  0  0  0
  -30.7667   61.8756   60.9362 C   0  0  0  0  0  0  0  0  0  0  0  0
  -30.9352   63.3827   61.0173 C   0  0  0  0  0  0  0  0  0  0  0  0
  -30.2641   64.0158   62.2219 C   0  0  0  0  0  0  0  0  0  0  0  0
  -29.9910   65.5017   62.0639 C   0  0  0  0  0  0  0  0  0  0  0  0
  -30.6652   66.1028   60.8446 C   0  0  0  0  0  0  0  0  0  0  0  0
  -31.8385   67.0103   61.1615 C   0  0  0  0  0  0  0  0  0  0  0  0
  -33.1649   66.2761   61.1411 C   0  0  0  0  0  0  0  0  0  0  0  0
  -34.1635   66.8546   62.1221 C   0  0  0  0  0  0  0  0  0  0  0  0
  -38.0647   60.9723   62.8817 C   0  0  0  0  0  0  0  0  0  0  0  0
  -36.9053   61.7848   62.6664 O   0  0  0  0  0  0  0  0  0  0  0  0
  -34.4945   63.1994   62.4978 O   0  0  0  0  0  0  0  0  0  0  0  0
  -36.2401   64.4263   66.2355 O   0  0  0  0  0  0  0  0  0  0  0  0
  -36.8554   61.9165   64.9705 O   0  0  0  0  0  0  0  0  0  0  0  0
  -36.0796   61.9181   63.7865 C   0  0  0  0  0  0  0  0  0  0  0  0
  -35.3174   63.2305   63.6571 C   0  0  0  0  0  0  0  0  0  0  0  0
  -34.4679   63.4606   64.9007 C   0  0  0  0  0  0  0  0  0  0  0  0
  -35.3083   63.3519   66.1644 C   0  0  0  0  0  0  0  0  0  0  0  0
  -36.0645   62.0257   66.1648 C   0  0  0  0  0  0  0  0  0  0  0  0
  -35.0462   63.0523   61.7136 H   0  0  0  0  0  0  0  0  0  0  0  0
  -35.7615   65.2699   66.2353 H   0  0  0  0  0  0  0  0  0  0  0  0
  -36.5704   62.6279   68.4605 O   0  0  0  0  0  0  0  0  0  0  0  0
  -37.0127   61.8822   67.3321 C   0  0  0  0  0  0  0  0  0  0  0  0
  -37.1996   62.5143   69.1898 H   0  0  0  0  0  0  0  0  0  0  0  0
  -33.9716   64.8294   64.7609 O   0  0  0  0  0  0  0  0  0  0  0  0
  -32.8888   65.4513   66.8219 O   0  0  0  0  0  0  0  0  0  0  0  0
  -31.8901   66.0971   64.6081 O   0  0  0  0  0  0  0  0  0  0  0  0
  -31.8892   63.8502   65.3747 O   0  0  0  0  0  0  0  0  0  0  0  0
  -32.5962   65.2130   65.4571 S   0  0  0  0  0  0  0  0  0  0  0  0
  -33.3373   66.3067   66.9118 H   0  0  0  0  0  0  0  0  0  0  0  0
  -32.3464   63.2137   65.9464 H   0  0  0  0  0  0  0  0  0  0  0  0
  2  1  1  0  0  0
  2  4  1  0  0  0
  2  5  1  0  0  0
 47 48  1  0  0  0
 47  1  1  0  0  0
 48 52  1  0  0  0
  1 30  1  0  0  0
 29 30  1  0  0  0
 29 31  1  0  0  0
 30 32  1  0  0  0
  3  4  2  0  0  0
 32 33  2  0  0  0
 49 53  1  0  0  0
 49 57  1  0  0  0
 33 34  1  0  0  0
 62 54  1  0  0  0
 62 66  1  0  0  0
 34 35  1  0  0  0
 50 55  1  0  0  0
 50 58  1  0  0  0
 35 36  1  0  0  0
 51 52  1  0  0  0
 51 56  1  0  0  0
 36 37  1  0  0  0
 59 60  1  0  0  0
 59 61  1  0  0  0
 37 38  1  0  0  0
 63 66  1  0  0  0
 63 67  1  0  0  0
 38 39  1  0  0  0
 64 66  1  0  0  0
 39 40  1  0  0  0
 65 66  1  0  0  0
 65 68  1  0  0  0
 40 41  1  0  0  0
 41 42  1  0  0  0
 42 43  1  0  0  0
 43 44  1  0  0  0
 44 45  1  0  0  0
 45 46  1  0  0  0
  4  6  1  0  0  0
  6  7  1  0  0  0
  7  8  1  0  0  0
  8  9  1  0  0  0
  9 10  1  0  0  0
 10 11  1  0  0  0
 11 12  1  0  0  0
 12 13  1  0  0  0
 13 14  1  0  0  0
 14 15  1  0  0  0
 15 16  1  0  0  0
 16 17  1  0  0  0
 17 18  1  0  0  0
 18 19  1  0  0  0
 19 20  2  0  0  0
 20 21  1  0  0  0
 21 22  1  0  0  0
 22 23  1  0  0  0
 23 24  1  0  0  0
 24 25  1  0  0  0
 25 26  1  0  0  0
 26 27  1  0  0  0
 27 28  1  0  0  0
 52 53  1  0  0  0
 53 54  1  0  0  0
 54 55  1  0  0  0
 55 56  1  0  0  0
 56 60  1  0  0  0
M  CHG 1  64  -1
M  END
> <minimizedAffinity>
-8.81401

> <CNNscore>
0.1600276232

> <CNNaffinity>
7.0353407860

> <CNN_VS>
1.1258488894

> <CNNaffinity_variance>
0.7284186482

$$$$
/media/chris/experiments/cd1a-new-docking/inputs/ligands/7ryn_ligand.pdb


 68 68  0  0  0  0  0  0  0  0999 V2000
  -37.7138   61.4174   64.8807 C   0  0  0  0  0  0  0  0  0  0  0  0
  -38.6643   60.5508   65.5712 N   0  0  0  0  0  0  0  0  0  0  0  0
  -37.6306   58.6168   65.0626 O   0  0  0  0  0  0  0  0  0  0  0  0
  -38.5494   59.2205   65.6086 C   0  0  0  0  0  0  0  0  0  0  0  0
  -39.4279   60.9675   66.0321 H   0  0  0  0  0  0  0  0  0  0  0  0
  -39.6248   58.4942   66.3776 C   0  0  0  0  0  0  0  0  0  0  0  0
  -40.8461   58.1824   65.5222 C   0  0  0  0  0  0  0  0  0  0  0  0
  -40.5029   57.3705   64.2836 C   0  0  0  0  0  0  0  0  0  0  0  0
  -41.5924   56.3985   63.8624 C   0  0  0  0  0  0  0  0  0  0  0  0
  -42.9413   56.6668   64.5129 C   0  0  0  0  0  0  0  0  0  0  0  0
  -43.7032   57.8352   63.9007 C   0  0  0  0  0  0  0  0  0  0  0  0
  -44.9871   58.1897   64.6399 C   0  0  0  0  0  0  0  0  0  0  0  0
  -44.9266   57.9808   66.1509 C   0  0  0  0  0  0  0  0  0  0  0  0
  -46.2806   57.6811   66.7921 C   0  0  0  0  0  0  0  0  0  0  0  0
  -46.9569   58.8862   67.4454 C   0  0  0  0  0  0  0  0  0  0  0  0
  -48.1065   59.4619   66.6181 C   0  0  0  0  0  0  0  0  0  0  0  0
  -48.8556   58.4459   65.7560 C   0  0  0  0  0  0  0  0  0  0  0  0
  -50.3813   58.5048   65.8686 C   0  0  0  0  0  0  0  0  0  0  0  0
  -50.9784   59.6536   65.1083 C   0  0  0  0  0  0  0  0  0  0  0  0
  -51.1695   59.7071   63.8020 C   0  0  0  0  0  0  0  0  0  0  0  0
  -50.8311   58.6299   62.8164 C   0  0  0  0  0  0  0  0  0  0  0  0
  -49.5150   58.8683   62.0731 C   0  0  0  0  0  0  0  0  0  0  0  0
  -49.7104   59.2944   60.6241 C   0  0  0  0  0  0  0  0  0  0  0  0
  -50.1650   58.1578   59.7154 C   0  0  0  0  0  0  0  0  0  0  0  0
  -49.0586   57.1888   59.3147 C   0  0  0  0  0  0  0  0  0  0  0  0
  -47.8134   57.8725   58.7678 C   0  0  0  0  0  0  0  0  0  0  0  0
  -47.4205   57.4238   57.3693 C   0  0  0  0  0  0  0  0  0  0  0  0
  -47.4844   55.9203   57.1930 C   0  0  0  0  0  0  0  0  0  0  0  0
  -36.2967   61.4961   62.9260 O   0  0  0  0  0  0  0  0  0  0  0  0
  -37.4704   60.8783   63.4619 C   0  0  0  0  0  0  0  0  0  0  0  0
  -35.5452   61.3287   63.5159 H   0  0  0  0  0  0  0  0  0  0  0  0
  -38.6539   61.1165   62.5750 C   0  0  0  0  0  0  0  0  0  0  0  0
  -39.8085   60.4868   62.6662 C   0  0  0  0  0  0  0  0  0  0  0  0
  -40.9761   60.7579   61.7752 C   0  0  0  0  0  0  0  0  0  0  0  0
  -41.9080   59.5464   61.7055 C   0  0  0  0  0  0  0  0  0  0  0  0
  -41.6181   58.6030   60.5494 C   0  0  0  0  0  0  0  0  0  0  0  0
  -40.2004   58.0573   60.5289 C   0  0  0  0  0  0  0  0  0  0  0  0
  -39.3105   58.6866   59.4669 C   0  0  0  0  0  0  0  0  0  0  0  0
  -37.8795   58.9170   59.9274 C   0  0  0  0  0  0  0  0  0  0  0  0
  -37.4918   58.1043   61.1503 C   0  0  0  0  0  0  0  0  0  0  0  0
  -36.0073   58.1283   61.4633 C   0  0  0  0  0  0  0  0  0  0  0  0
  -35.6374   57.4067   62.7478 C   0  0  0  0  0  0  0  0  0  0  0  0
  -34.1418   57.3781   63.0029 C   0  0  0  0  0  0  0  0  0  0  0  0
  -33.3288   58.2427   62.0585 C   0  0  0  0  0  0  0  0  0  0  0  0
  -32.7412   59.4607   62.7438 C   0  0  0  0  0  0  0  0  0  0  0  0
  -31.9000   60.3039   61.8080 C   0  0  0  0  0  0  0  0  0  0  0  0
  -36.4300   61.5197   65.6781 C   0  0  0  0  0  0  0  0  0  0  0  0
  -36.4747   62.7245   66.4509 O   0  0  0  0  0  0  0  0  0  0  0  0
  -34.2624   63.8785   67.7218 O   0  0  0  0  0  0  0  0  0  0  0  0
  -33.1627   63.6575   63.5668 O   0  0  0  0  0  0  0  0  0  0  0  0
  -35.8966   63.7386   64.4594 O   0  0  0  0  0  0  0  0  0  0  0  0
  -35.8057   63.8060   65.8704 C   0  0  0  0  0  0  0  0  0  0  0  0
  -34.3480   63.7489   66.3083 C   0  0  0  0  0  0  0  0  0  0  0  0
  -33.5591   64.8609   65.6282 C   0  0  0  0  0  0  0  0  0  0  0  0
  -33.7567   64.8274   64.1199 C   0  0  0  0  0  0  0  0  0  0  0  0
  -35.2491   64.8373   63.7980 C   0  0  0  0  0  0  0  0  0  0  0  0
  -34.7680   63.1659   68.1430 H   0  0  0  0  0  0  0  0  0  0  0  0
  -32.2143   63.6493   63.7703 H   0  0  0  0  0  0  0  0  0  0  0  0
  -35.4967   65.9486   61.6550 O   0  0  0  0  0  0  0  0  0  0  0  0
  -35.5401   64.6927   62.3226 C   0  0  0  0  0  0  0  0  0  0  0  0
  -35.6873   65.8205   60.7126 H   0  0  0  0  0  0  0  0  0  0  0  0
  -32.1612   64.5683   65.9438 O   0  0  0  0  0  0  0  0  0  0  0  0
  -30.5923   65.9916   67.0928 O   0  0  0  0  0  0  0  0  0  0  0  0
  -31.6017   66.7064   64.9051 O   0  0  0  0  0  0  0  0  0  0  0  0
  -29.9962   64.9622   65.0331 O   0  0  0  0  0  0  0  0  0  0  0  0
  -31.0895   65.7312   65.7927 S   0  0  0  0  0  0  0  0  0  0  0  0
  -31.2591   66.4778   67.6026 H   0  0  0  0  0  0  0  0  0  0  0  0
  -29.6187   64.2810   65.6115 H   0  0  0  0  0  0  0  0  0  0  0  0
  2  1  1  0  0  0
  2  4  1  0  0  0
  2  5  1  0  0  0
 47 48  1  0  0  0
 47  1  1  0  0  0
 48 52  1  0  0  0
  1 30  1  0  0  0
 29 30  1  0  0  0
 29 31  1  0  0  0
 30 32  1  0  0  0
  3  4  2  0  0  0
 32 33  2  0  0  0
 49 53  1  0  0  0
 49 57  1  0  0  0
 33 34  1  0  0  0
 62 54  1  0  0  0
 62 66  1  0  0  0
 34 35  1  0  0  0
 50 55  1  0  0  0
 50 58  1  0  0  0
 35 36  1  0  0  0
 51 52  1  0  0  0
 51 56  1  0  0  0
 36 37  1  0  0  0
 59 60  1  0  0  0
 59 61  1  0  0  0
 37 38  1  0  0  0
 63 66  1  0  0  0
 63 67  1  0  0  0
 38 39  1  0  0  0
 64 66  1  0  0  0
 39 40  1  0  0  0
 65 66  1  0  0  0
 65 68  1  0  0  0
 40 41  1  0  0  0
 41 42  1  0  0  0
 42 43  1  0  0  0
 43 44  1  0  0  0
 44 45  1  0  0  0
 45 46  1  0  0  0
  4  6  1  0  0  0
  6  7  1  0  0  0
  7  8  1  0  0  0
  8  9  1  0  0  0
  9 10  1  0  0  0
 10 11  1  0  0  0
 11 12  1  0  0  0
 12 13  1  0  0  0
 13 14  1  0  0  0
 14 15  1  0  0  0
 15 16  1  0  0  0
 16 17  1  0  0  0
 17 18  1  0  0  0
 18 19  1  0  0  0
 19 20  2  0  0  0
 20 21  1  0  0  0
 21 22  1  0  0  0
 22 23  1  0  0  0
 23 24  1  0  0  0
 24 25  1  0  0  0
 25 26  1  0  0  0
 26 27  1  0  0  0
 27 28  1  0  0  0
 52 53  1  0  0  0
 53 54  1  0  0  0
 54 55  1  0  0  0
 55 56  1  0  0  0
 56 60  1  0  0  0
M  CHG 1  64  -1
M  END
> <minimizedAffinity>
-9.30834

> <CNNscore>
0.1598433852

> <CNNaffinity>
7.2161760330

> <CNN_VS>
1.1534579992

> <CNNaffinity_variance>
0.6896131635

$$$$
/media/chris/experiments/cd1a-new-docking/inputs/ligands/7ryn_ligand.pdb


 68 68  0  0  0  0  0  0  0  0999 V2000
  -38.8238   59.9373   61.3476 C   0  0  0  0  0  0  0  0  0  0  0  0
  -39.6816   58.8209   61.7339 N   0  0  0  0  0  0  0  0  0  0  0  0
  -40.8999   58.7957   59.8411 O   0  0  0  0  0  0  0  0  0  0  0  0
  -40.6511   58.3377   60.9524 C   0  0  0  0  0  0  0  0  0  0  0  0
  -39.5384   58.4036   62.6140 H   0  0  0  0  0  0  0  0  0  0  0  0
  -41.4279   57.1757   61.5198 C   0  0  0  0  0  0  0  0  0  0  0  0
  -40.7562   56.5647   62.7430 C   0  0  0  0  0  0  0  0  0  0  0  0
  -41.7065   55.7138   63.5701 C   0  0  0  0  0  0  0  0  0  0  0  0
  -41.9476   56.2459   64.9730 C   0  0  0  0  0  0  0  0  0  0  0  0
  -43.3288   56.8519   65.1722 C   0  0  0  0  0  0  0  0  0  0  0  0
  -43.5330   57.4934   66.5386 C   0  0  0  0  0  0  0  0  0  0  0  0
  -44.5843   58.5956   66.5518 C   0  0  0  0  0  0  0  0  0  0  0  0
  -45.9712   58.1430   67.0012 C   0  0  0  0  0  0  0  0  0  0  0  0
  -46.9473   57.8949   65.8523 C   0  0  0  0  0  0  0  0  0  0  0  0
  -46.9286   58.9625   64.7585 C   0  0  0  0  0  0  0  0  0  0  0  0
  -48.1265   59.9109   64.8129 C   0  0  0  0  0  0  0  0  0  0  0  0
  -49.1138   59.6421   65.9484 C   0  0  0  0  0  0  0  0  0  0  0  0
  -50.4764   59.1036   65.5044 C   0  0  0  0  0  0  0  0  0  0  0  0
  -51.1468   59.9807   64.4868 C   0  0  0  0  0  0  0  0  0  0  0  0
  -51.4242   59.6519   63.2375 C   0  0  0  0  0  0  0  0  0  0  0  0
  -51.1278   58.3352   62.5856 C   0  0  0  0  0  0  0  0  0  0  0  0
  -49.7731   58.2921   61.8754 C   0  0  0  0  0  0  0  0  0  0  0  0
  -49.8084   58.8884   60.4745 C   0  0  0  0  0  0  0  0  0  0  0  0
  -48.7532   58.3046   59.5418 C   0  0  0  0  0  0  0  0  0  0  0  0
  -48.4078   56.8451   59.8141 C   0  0  0  0  0  0  0  0  0  0  0  0
  -47.6518   56.1718   58.6773 C   0  0  0  0  0  0  0  0  0  0  0  0
  -47.8867   56.8029   57.3142 C   0  0  0  0  0  0  0  0  0  0  0  0
  -46.8060   57.7926   56.9288 C   0  0  0  0  0  0  0  0  0  0  0  0
  -37.9737   58.9081   59.3343 O   0  0  0  0  0  0  0  0  0  0  0  0
  -37.5819   59.3976   60.6201 C   0  0  0  0  0  0  0  0  0  0  0  0
  -38.4104   59.6176   58.8376 H   0  0  0  0  0  0  0  0  0  0  0  0
  -36.9026   58.3264   61.4171 C   0  0  0  0  0  0  0  0  0  0  0  0
  -35.6821   58.4063   61.9091 C   0  0  0  0  0  0  0  0  0  0  0  0
  -35.0375   57.3255   62.7135 C   0  0  0  0  0  0  0  0  0  0  0  0
  -34.9794   57.7026   64.1952 C   0  0  0  0  0  0  0  0  0  0  0  0
  -35.9486   56.9281   65.0736 C   0  0  0  0  0  0  0  0  0  0  0  0
  -37.4137   57.1890   64.7682 C   0  0  0  0  0  0  0  0  0  0  0  0
  -37.8699   58.6050   65.0887 C   0  0  0  0  0  0  0  0  0  0  0  0
  -39.2985   58.6846   65.6042 C   0  0  0  0  0  0  0  0  0  0  0  0
  -39.6562   60.0303   66.2104 C   0  0  0  0  0  0  0  0  0  0  0  0
  -41.1285   60.3825   66.1084 C   0  0  0  0  0  0  0  0  0  0  0  0
  -41.5521   60.8645   64.7316 C   0  0  0  0  0  0  0  0  0  0  0  0
  -42.2885   59.8053   63.9325 C   0  0  0  0  0  0  0  0  0  0  0  0
  -43.0610   60.3426   62.7430 C   0  0  0  0  0  0  0  0  0  0  0  0
  -42.3505   61.4940   62.0589 C   0  0  0  0  0  0  0  0  0  0  0  0
  -43.2055   62.7421   61.9854 C   0  0  0  0  0  0  0  0  0  0  0  0
  -38.4570   60.7569   62.5674 C   0  0  0  0  0  0  0  0  0  0  0  0
  -37.5126   61.7576   62.1704 O   0  0  0  0  0  0  0  0  0  0  0  0
  -35.4235   63.5296   61.5905 O   0  0  0  0  0  0  0  0  0  0  0  0
  -36.5980   64.4820   65.6199 O   0  0  0  0  0  0  0  0  0  0  0  0
  -37.0488   61.9030   64.4271 O   0  0  0  0  0  0  0  0  0  0  0  0
  -36.5205   62.0214   63.1192 C   0  0  0  0  0  0  0  0  0  0  0  0
  -36.0071   63.4360   62.8838 C   0  0  0  0  0  0  0  0  0  0  0  0
  -34.9833   63.7997   63.9518 C   0  0  0  0  0  0  0  0  0  0  0  0
  -35.5427   63.5657   65.3474 C   0  0  0  0  0  0  0  0  0  0  0  0
  -36.0726   62.1378   65.4545 C   0  0  0  0  0  0  0  0  0  0  0  0
  -36.0842   63.2959   60.9199 H   0  0  0  0  0  0  0  0  0  0  0  0
  -36.2633   65.3900   65.5522 H   0  0  0  0  0  0  0  0  0  0  0  0
  -36.3430   62.7725   67.7811 O   0  0  0  0  0  0  0  0  0  0  0  0
  -36.7495   61.8523   66.7746 C   0  0  0  0  0  0  0  0  0  0  0  0
  -36.7947   62.5617   68.6132 H   0  0  0  0  0  0  0  0  0  0  0  0
  -34.7385   65.2286   63.7576 O   0  0  0  0  0  0  0  0  0  0  0  0
  -32.4163   64.9709   64.3475 O   0  0  0  0  0  0  0  0  0  0  0  0
  -33.2507   67.1218   63.3510 O   0  0  0  0  0  0  0  0  0  0  0  0
  -33.0656   65.1346   62.0651 O   0  0  0  0  0  0  0  0  0  0  0  0
  -33.2517   65.7128   63.4775 S   0  0  0  0  0  0  0  0  0  0  0  0
  -32.5086   65.3100   65.2516 H   0  0  0  0  0  0  0  0  0  0  0  0
  -33.0609   64.1657   62.1105 H   0  0  0  0  0  0  0  0  0  0  0  0
  2  1  1  0  0  0
  2  4  1  0  0  0
  2  5  1  0  0  0
 47 48  1  0  0  0
 47  1  1  0  0  0
 48 52  1  0  0  0
  1 30  1  0  0  0
 29 30  1  0  0  0
 29 31  1  0  0  0
 30 32  1  0  0  0
  3  4  2  0  0  0
 32 33  2  0  0  0
 49 53  1  0  0  0
 49 57  1  0  0  0
 33 34  1  0  0  0
 62 54  1  0  0  0
 62 66  1  0  0  0
 34 35  1  0  0  0
 50 55  1  0  0  0
 50 58  1  0  0  0
 35 36  1  0  0  0
 51 52  1  0  0  0
 51 56  1  0  0  0
 36 37  1  0  0  0
 59 60  1  0  0  0
 59 61  1  0  0  0
 37 38  1  0  0  0
 63 66  1  0  0  0
 63 67  1  0  0  0
 38 39  1  0  0  0
 64 66  1  0  0  0
 39 40  1  0  0  0
 65 66  1  0  0  0
 65 68  1  0  0  0
 40 41  1  0  0  0
 41 42  1  0  0  0
 42 43  1  0  0  0
 43 44  1  0  0  0
 44 45  1  0  0  0
 45 46  1  0  0  0
  4  6  1  0  0  0
  6  7  1  0  0  0
  7  8  1  0  0  0
  8  9  1  0  0  0
  9 10  1  0  0  0
 10 11  1  0  0  0
 11 12  1  0  0  0
 12 13  1  0  0  0
 13 14  1  0  0  0
 14 15  1  0  0  0
 15 16  1  0  0  0
 16 17  1  0  0  0
 17 18  1  0  0  0
 18 19  1  0  0  0
 19 20  2  0  0  0
 20 21  1  0  0  0
 21 22  1  0  0  0
 22 23  1  0  0  0
 23 24  1  0  0  0
 24 25  1  0  0  0
 25 26  1  0  0  0
 26 27  1  0  0  0
 27 28  1  0  0  0
 52 53  1  0  0  0
 53 54  1  0  0  0
 54 55  1  0  0  0
 55 56  1  0  0  0
 56 60  1  0  0  0
M  CHG 1  64  -1
M  END
> <minimizedAffinity>
-9.11151

> <CNNscore>
0.1440981477

> <CNNaffinity>
7.5519704819

> <CNN_VS>
1.0882250071

> <CNNaffinity_variance>
1.9931558371

$$$$
/media/chris/experiments/cd1a-new-docking/inputs/ligands/7ryn_ligand.pdb


 68 68  0  0  0  0  0  0  0  0999 V2000
  -37.3607   61.1968   64.4400 C   0  0  0  0  0  0  0  0  0  0  0  0
  -38.4977   60.6949   65.2057 N   0  0  0  0  0  0  0  0  0  0  0  0
  -37.7241   58.5920   65.4227 O   0  0  0  0  0  0  0  0  0  0  0  0
  -38.5912   59.4341   65.6368 C   0  0  0  0  0  0  0  0  0  0  0  0
  -39.2320   61.3164   65.4147 H   0  0  0  0  0  0  0  0  0  0  0  0
  -39.8377   59.1029   66.4191 C   0  0  0  0  0  0  0  0  0  0  0  0
  -41.0786   59.7863   65.8589 C   0  0  0  0  0  0  0  0  0  0  0  0
  -42.3219   59.5188   66.6919 C   0  0  0  0  0  0  0  0  0  0  0  0
  -42.8029   58.0784   66.6360 C   0  0  0  0  0  0  0  0  0  0  0  0
  -42.9008   57.5167   65.2255 C   0  0  0  0  0  0  0  0  0  0  0  0
  -44.0449   58.0981   64.4049 C   0  0  0  0  0  0  0  0  0  0  0  0
  -45.2815   58.4404   65.2260 C   0  0  0  0  0  0  0  0  0  0  0  0
  -46.0895   57.2307   65.6888 C   0  0  0  0  0  0  0  0  0  0  0  0
  -47.0889   57.5393   66.8025 C   0  0  0  0  0  0  0  0  0  0  0  0
  -47.1840   59.0170   67.1818 C   0  0  0  0  0  0  0  0  0  0  0  0
  -48.4339   59.7069   66.6347 C   0  0  0  0  0  0  0  0  0  0  0  0
  -49.2200   58.8986   65.6027 C   0  0  0  0  0  0  0  0  0  0  0  0
  -50.7372   59.0984   65.6465 C   0  0  0  0  0  0  0  0  0  0  0  0
  -51.2286   60.0641   64.6072 C   0  0  0  0  0  0  0  0  0  0  0  0
  -51.5093   59.7768   63.3484 C   0  0  0  0  0  0  0  0  0  0  0  0
  -51.3963   58.4276   62.7055 C   0  0  0  0  0  0  0  0  0  0  0  0
  -50.0560   58.1902   62.0065 C   0  0  0  0  0  0  0  0  0  0  0  0
  -50.2026   57.6405   60.5939 C   0  0  0  0  0  0  0  0  0  0  0  0
  -49.3448   56.4076   60.3324 C   0  0  0  0  0  0  0  0  0  0  0  0
  -48.1008   56.6708   59.4914 C   0  0  0  0  0  0  0  0  0  0  0  0
  -48.1903   57.9312   58.6426 C   0  0  0  0  0  0  0  0  0  0  0  0
  -47.2789   57.9278   57.4256 C   0  0  0  0  0  0  0  0  0  0  0  0
  -46.9541   56.5310   56.9365 C   0  0  0  0  0  0  0  0  0  0  0  0
  -37.0244   62.1557   62.2486 O   0  0  0  0  0  0  0  0  0  0  0  0
  -37.6658   61.0788   62.9381 C   0  0  0  0  0  0  0  0  0  0  0  0
  -36.0722   62.1356   62.4321 H   0  0  0  0  0  0  0  0  0  0  0  0
  -39.1409   61.0785   62.6772 C   0  0  0  0  0  0  0  0  0  0  0  0
  -39.7505   60.3385   61.7724 C   0  0  0  0  0  0  0  0  0  0  0  0
  -41.2268   60.3499   61.5463 C   0  0  0  0  0  0  0  0  0  0  0  0
  -41.5866   59.6653   60.2261 C   0  0  0  0  0  0  0  0  0  0  0  0
  -40.7952   58.3982   59.9454 C   0  0  0  0  0  0  0  0  0  0  0  0
  -41.4909   57.1186   60.3776 C   0  0  0  0  0  0  0  0  0  0  0  0
  -41.6896   57.0001   61.8817 C   0  0  0  0  0  0  0  0  0  0  0  0
  -40.5223   56.3432   62.6021 C   0  0  0  0  0  0  0  0  0  0  0  0
  -39.3510   57.2780   62.8483 C   0  0  0  0  0  0  0  0  0  0  0  0
  -38.0519   56.8224   62.2101 C   0  0  0  0  0  0  0  0  0  0  0  0
  -36.9986   57.9126   62.1127 C   0  0  0  0  0  0  0  0  0  0  0  0
  -35.6364   57.4681   62.6121 C   0  0  0  0  0  0  0  0  0  0  0  0
  -34.4656   58.1208   61.9024 C   0  0  0  0  0  0  0  0  0  0  0  0
  -33.1282   57.5707   62.3577 C   0  0  0  0  0  0  0  0  0  0  0  0
  -32.5769   58.3075   63.5607 C   0  0  0  0  0  0  0  0  0  0  0  0
  -36.1028   60.4462   64.8255 C   0  0  0  0  0  0  0  0  0  0  0  0
  -35.0778   60.7689   63.8789 O   0  0  0  0  0  0  0  0  0  0  0  0
  -32.9790   61.6239   62.2341 O   0  0  0  0  0  0  0  0  0  0  0  0
  -33.9182   65.0293   64.6925 O   0  0  0  0  0  0  0  0  0  0  0  0
  -34.4935   62.3233   65.4824 O   0  0  0  0  0  0  0  0  0  0  0  0
  -34.0314   61.5341   64.4019 C   0  0  0  0  0  0  0  0  0  0  0  0
  -33.4966   62.4254   63.2886 C   0  0  0  0  0  0  0  0  0  0  0  0
  -32.4099   63.3422   63.8361 C   0  0  0  0  0  0  0  0  0  0  0  0
  -32.9014   64.1025   65.0591 C   0  0  0  0  0  0  0  0  0  0  0  0
  -33.4596   63.1186   66.0843 C   0  0  0  0  0  0  0  0  0  0  0  0
  -33.6793   61.0452   61.8943 H   0  0  0  0  0  0  0  0  0  0  0  0
  -33.5655   65.6554   64.0410 H   0  0  0  0  0  0  0  0  0  0  0  0
  -35.4948   63.7354   67.2532 O   0  0  0  0  0  0  0  0  0  0  0  0
  -34.0735   63.7970   67.2865 C   0  0  0  0  0  0  0  0  0  0  0  0
  -35.8560   64.1787   68.0367 H   0  0  0  0  0  0  0  0  0  0  0  0
  -32.1407   64.2852   62.7509 O   0  0  0  0  0  0  0  0  0  0  0  0
  -30.1296   62.9919   62.4510 O   0  0  0  0  0  0  0  0  0  0  0  0
  -30.2386   65.3820   61.6822 O   0  0  0  0  0  0  0  0  0  0  0  0
  -31.4252   63.6530   60.5691 O   0  0  0  0  0  0  0  0  0  0  0  0
  -30.8094   64.1066   61.9029 S   0  0  0  0  0  0  0  0  0  0  0  0
  -29.7269   63.2429   63.2971 H   0  0  0  0  0  0  0  0  0  0  0  0
  -31.8286   62.7779   60.6802 H   0  0  0  0  0  0  0  0  0  0  0  0
  2  1  1  0  0  0
  2  4  1  0  0  0
  2  5  1  0  0  0
 47 48  1  0  0  0
 47  1  1  0  0  0
 48 52  1  0  0  0
  1 30  1  0  0  0
 29 30  1  0  0  0
 29 31  1  0  0  0
 30 32  1  0  0  0
  3  4  2  0  0  0
 32 33  2  0  0  0
 49 53  1  0  0  0
 49 57  1  0  0  0
 33 34  1  0  0  0
 62 54  1  0  0  0
 62 66  1  0  0  0
 34 35  1  0  0  0
 50 55  1  0  0  0
 50 58  1  0  0  0
 35 36  1  0  0  0
 51 52  1  0  0  0
 51 56  1  0  0  0
 36 37  1  0  0  0
 59 60  1  0  0  0
 59 61  1  0  0  0
 37 38  1  0  0  0
 63 66  1  0  0  0
 63 67  1  0  0  0
 38 39  1  0  0  0
 64 66  1  0  0  0
 39 40  1  0  0  0
 65 66  1  0  0  0
 65 68  1  0  0  0
 40 41  1  0  0  0
 41 42  1  0  0  0
 42 43  1  0  0  0
 43 44  1  0  0  0
 44 45  1  0  0  0
 45 46  1  0  0  0
  4  6  1  0  0  0
  6  7  1  0  0  0
  7  8  1  0  0  0
  8  9  1  0  0  0
  9 10  1  0  0  0
 10 11  1  0  0  0
 11 12  1  0  0  0
 12 13  1  0  0  0
 13 14  1  0  0  0
 14 15  1  0  0  0
 15 16  1  0  0  0
 16 17  1  0  0  0
 17 18  1  0  0  0
 18 19  1  0  0  0
 19 20  2  0  0  0
 20 21  1  0  0  0
 21 22  1  0  0  0
 22 23  1  0  0  0
 23 24  1  0  0  0
 24 25  1  0  0  0
 25 26  1  0  0  0
 26 27  1  0  0  0
 27 28  1  0  0  0
 52 53  1  0  0  0
 53 54  1  0  0  0
 54 55  1  0  0  0
 55 56  1  0  0  0
 56 60  1  0  0  0
M  CHG 1  64  -1
M  END
> <minimizedAffinity>
-9.19940

> <CNNscore>
0.1424255073

> <CNNaffinity>
7.3056602478

> <CNN_VS>
1.0405123234

> <CNNaffinity_variance>
1.1568409204

$$$$
/media/chris/experiments/cd1a-new-docking/inputs/ligands/7ryn_ligand.pdb


 68 68  0  0  0  0  0  0  0  0999 V2000
  -39.2842   59.6880   60.6347 C   0  0  0  0  0  0  0  0  0  0  0  0
  -40.0022   58.5265   61.1511 N   0  0  0  0  0  0  0  0  0  0  0  0
  -41.5484   58.4609   59.5163 O   0  0  0  0  0  0  0  0  0  0  0  0
  -41.0764   58.0041   60.5533 C   0  0  0  0  0  0  0  0  0  0  0  0
  -39.6786   58.1075   61.9812 H   0  0  0  0  0  0  0  0  0  0  0  0
  -41.6791   56.7992   61.2317 C   0  0  0  0  0  0  0  0  0  0  0  0
  -40.8425   56.3105   62.4073 C   0  0  0  0  0  0  0  0  0  0  0  0
  -41.6010   55.3477   63.3067 C   0  0  0  0  0  0  0  0  0  0  0  0
  -41.7323   55.8215   64.7446 C   0  0  0  0  0  0  0  0  0  0  0  0
  -42.7060   56.9763   64.9254 C   0  0  0  0  0  0  0  0  0  0  0  0
  -43.0096   57.3091   66.3805 C   0  0  0  0  0  0  0  0  0  0  0  0
  -43.5187   58.7286   66.5956 C   0  0  0  0  0  0  0  0  0  0  0  0
  -45.0235   58.8333   66.8300 C   0  0  0  0  0  0  0  0  0  0  0  0
  -45.8358   57.7252   66.1617 C   0  0  0  0  0  0  0  0  0  0  0  0
  -47.1262   57.3526   66.8914 C   0  0  0  0  0  0  0  0  0  0  0  0
  -48.3184   57.1511   65.9556 C   0  0  0  0  0  0  0  0  0  0  0  0
  -49.3707   58.2589   66.0003 C   0  0  0  0  0  0  0  0  0  0  0  0
  -48.8157   59.6809   65.8835 C   0  0  0  0  0  0  0  0  0  0  0  0
  -48.4281   60.0422   64.4788 C   0  0  0  0  0  0  0  0  0  0  0  0
  -49.2546   60.2072   63.4612 C   0  0  0  0  0  0  0  0  0  0  0  0
  -50.7464   60.0698   63.5056 C   0  0  0  0  0  0  0  0  0  0  0  0
  -51.2629   58.7720   62.8808 C   0  0  0  0  0  0  0  0  0  0  0  0
  -50.1872   57.9922   62.1365 C   0  0  0  0  0  0  0  0  0  0  0  0
  -50.6112   57.5616   60.7368 C   0  0  0  0  0  0  0  0  0  0  0  0
  -49.8602   58.2576   59.6075 C   0  0  0  0  0  0  0  0  0  0  0  0
  -48.4154   57.8017   59.4601 C   0  0  0  0  0  0  0  0  0  0  0  0
  -47.9569   57.6432   58.0192 C   0  0  0  0  0  0  0  0  0  0  0  0
  -47.7651   56.1948   57.6177 C   0  0  0  0  0  0  0  0  0  0  0  0
  -37.8914   58.9016   58.8246 O   0  0  0  0  0  0  0  0  0  0  0  0
  -37.8695   59.2643   60.2082 C   0  0  0  0  0  0  0  0  0  0  0  0
  -38.2249   59.6464   58.3004 H   0  0  0  0  0  0  0  0  0  0  0  0
  -37.3587   58.1354   61.0500 C   0  0  0  0  0  0  0  0  0  0  0  0
  -36.2100   58.1317   61.6970 C   0  0  0  0  0  0  0  0  0  0  0  0
  -35.7350   56.9951   62.5414 C   0  0  0  0  0  0  0  0  0  0  0  0
  -34.2931   57.2172   63.0025 C   0  0  0  0  0  0  0  0  0  0  0  0
  -33.9575   58.6648   63.3230 C   0  0  0  0  0  0  0  0  0  0  0  0
  -32.4915   59.0207   63.1432 C   0  0  0  0  0  0  0  0  0  0  0  0
  -32.2251   59.9844   61.9960 C   0  0  0  0  0  0  0  0  0  0  0  0
  -31.6012   61.2999   62.4357 C   0  0  0  0  0  0  0  0  0  0  0  0
  -31.1190   62.1638   61.2835 C   0  0  0  0  0  0  0  0  0  0  0  0
  -29.9911   63.1102   61.6503 C   0  0  0  0  0  0  0  0  0  0  0  0
  -30.2599   64.5595   61.2833 C   0  0  0  0  0  0  0  0  0  0  0  0
  -31.6779   64.7956   60.7974 C   0  0  0  0  0  0  0  0  0  0  0  0
  -32.6228   65.3276   61.8579 C   0  0  0  0  0  0  0  0  0  0  0  0
  -34.0778   65.0521   61.5328 C   0  0  0  0  0  0  0  0  0  0  0  0
  -35.0187   66.0241   62.2142 C   0  0  0  0  0  0  0  0  0  0  0  0
  -39.2588   60.7881   61.6756 C   0  0  0  0  0  0  0  0  0  0  0  0
  -37.8958   61.1676   61.8967 O   0  0  0  0  0  0  0  0  0  0  0  0
  -36.1233   62.8035   63.3191 O   0  0  0  0  0  0  0  0  0  0  0  0
  -38.8067   61.2288   66.2927 O   0  0  0  0  0  0  0  0  0  0  0  0
  -38.2968   59.9071   63.7886 O   0  0  0  0  0  0  0  0  0  0  0  0
  -37.3743   60.7511   63.1250 C   0  0  0  0  0  0  0  0  0  0  0  0
  -37.0962   61.9915   63.9642 C   0  0  0  0  0  0  0  0  0  0  0  0
  -36.6073   61.5816   65.3478 C   0  0  0  0  0  0  0  0  0  0  0  0
  -37.5668   60.5946   65.9963 C   0  0  0  0  0  0  0  0  0  0  0  0
  -37.8121   59.4214   65.0507 C   0  0  0  0  0  0  0  0  0  0  0  0
  -36.4457   63.0577   62.4403 H   0  0  0  0  0  0  0  0  0  0  0  0
  -38.6529   61.9747   66.8935 H   0  0  0  0  0  0  0  0  0  0  0  0
  -40.1510   59.0041   65.5449 O   0  0  0  0  0  0  0  0  0  0  0  0
  -38.8425   58.4455   65.5688 C   0  0  0  0  0  0  0  0  0  0  0  0
  -40.7863   58.3537   65.8828 H   0  0  0  0  0  0  0  0  0  0  0  0
  -36.5922   62.8251   66.1177 O   0  0  0  0  0  0  0  0  0  0  0  0
  -35.3881   63.9926   67.8481 O   0  0  0  0  0  0  0  0  0  0  0  0
  -34.6053   64.0843   65.4618 O   0  0  0  0  0  0  0  0  0  0  0  0
  -34.4153   62.1104   66.7673 O   0  0  0  0  0  0  0  0  0  0  0  0
  -35.1906   63.4228   66.5669 S   0  0  0  0  0  0  0  0  0  0  0  0
  -35.8766   64.8260   67.7595 H   0  0  0  0  0  0  0  0  0  0  0  0
  -34.7888   61.6259   67.5200 H   0  0  0  0  0  0  0  0  0  0  0  0
  2  1  1  0  0  0
  2  4  1  0  0  0
  2  5  1  0  0  0
 47 48  1  0  0  0
 47  1  1  0  0  0
 48 52  1  0  0  0
  1 30  1  0  0  0
 29 30  1  0  0  0
 29 31  1  0  0  0
 30 32  1  0  0  0
  3  4  2  0  0  0
 32 33  2  0  0  0
 49 53  1  0  0  0
 49 57  1  0  0  0
 33 34  1  0  0  0
 62 54  1  0  0  0
 62 66  1  0  0  0
 34 35  1  0  0  0
 50 55  1  0  0  0
 50 58  1  0  0  0
 35 36  1  0  0  0
 51 52  1  0  0  0
 51 56  1  0  0  0
 36 37  1  0  0  0
 59 60  1  0  0  0
 59 61  1  0  0  0
 37 38  1  0  0  0
 63 66  1  0  0  0
 63 67  1  0  0  0
 38 39  1  0  0  0
 64 66  1  0  0  0
 39 40  1  0  0  0
 65 66  1  0  0  0
 65 68  1  0  0  0
 40 41  1  0  0  0
 41 42  1  0  0  0
 42 43  1  0  0  0
 43 44  1  0  0  0
 44 45  1  0  0  0
 45 46  1  0  0  0
  4  6  1  0  0  0
  6  7  1  0  0  0
  7  8  1  0  0  0
  8  9  1  0  0  0
  9 10  1  0  0  0
 10 11  1  0  0  0
 11 12  1  0  0  0
 12 13  1  0  0  0
 13 14  1  0  0  0
 14 15  1  0  0  0
 15 16  1  0  0  0
 16 17  1  0  0  0
 17 18  1  0  0  0
 18 19  1  0  0  0
 19 20  2  0  0  0
 20 21  1  0  0  0
 21 22  1  0  0  0
 22 23  1  0  0  0
 23 24  1  0  0  0
 24 25  1  0  0  0
 25 26  1  0  0  0
 26 27  1  0  0  0
 27 28  1  0  0  0
 52 53  1  0  0  0
 53 54  1  0  0  0
 54 55  1  0  0  0
 55 56  1  0  0  0
 56 60  1  0  0  0
M  CHG 1  64  -1
M  END
> <minimizedAffinity>
-9.12055

> <CNNscore>
0.1418123841

> <CNNaffinity>
7.0477585793

> <CNN_VS>
0.9994594455

> <CNNaffinity_variance>
1.2731783390

$$$$
/media/chris/experiments/cd1a-new-docking/inputs/ligands/7ryn_ligand.pdb


 68 68  0  0  0  0  0  0  0  0999 V2000
  -40.8502   61.0322   63.9085 C   0  0  0  0  0  0  0  0  0  0  0  0
  -41.2413   60.3382   65.1319 N   0  0  0  0  0  0  0  0  0  0  0  0
  -41.5933   62.1964   66.3530 O   0  0  0  0  0  0  0  0  0  0  0  0
  -41.5818   60.9727   66.2570 C   0  0  0  0  0  0  0  0  0  0  0  0
  -41.2546   59.3539   65.1276 H   0  0  0  0  0  0  0  0  0  0  0  0
  -41.9638   60.0859   67.4159 C   0  0  0  0  0  0  0  0  0  0  0  0
  -43.0661   59.0975   67.0574 C   0  0  0  0  0  0  0  0  0  0  0  0
  -42.5959   57.6525   67.1040 C   0  0  0  0  0  0  0  0  0  0  0  0
  -42.7715   56.9048   65.7927 C   0  0  0  0  0  0  0  0  0  0  0  0
  -41.4783   56.7165   65.0139 C   0  0  0  0  0  0  0  0  0  0  0  0
  -41.6235   55.8455   63.7727 C   0  0  0  0  0  0  0  0  0  0  0  0
  -40.9349   56.4117   62.5375 C   0  0  0  0  0  0  0  0  0  0  0  0
  -41.7345   56.2693   61.2450 C   0  0  0  0  0  0  0  0  0  0  0  0
  -41.9460   57.5842   60.4962 C   0  0  0  0  0  0  0  0  0  0  0  0
  -40.7739   58.0095   59.6120 C   0  0  0  0  0  0  0  0  0  0  0  0
  -39.9252   59.1257   60.2213 C   0  0  0  0  0  0  0  0  0  0  0  0
  -38.5066   59.2383   59.6631 C   0  0  0  0  0  0  0  0  0  0  0  0
  -37.4582   58.3930   60.3912 C   0  0  0  0  0  0  0  0  0  0  0  0
  -38.0007   57.7216   61.6195 C   0  0  0  0  0  0  0  0  0  0  0  0
  -37.2961   57.3195   62.6624 C   0  0  0  0  0  0  0  0  0  0  0  0
  -35.8130   57.4556   62.8301 C   0  0  0  0  0  0  0  0  0  0  0  0
  -35.3746   57.6582   64.2821 C   0  0  0  0  0  0  0  0  0  0  0  0
  -34.4190   58.8297   64.4648 C   0  0  0  0  0  0  0  0  0  0  0  0
  -32.9535   58.4482   64.2888 C   0  0  0  0  0  0  0  0  0  0  0  0
  -32.4885   58.3806   62.8386 C   0  0  0  0  0  0  0  0  0  0  0  0
  -32.2738   59.7454   62.1996 C   0  0  0  0  0  0  0  0  0  0  0  0
  -30.9764   60.4258   62.6064 C   0  0  0  0  0  0  0  0  0  0  0  0
  -30.1864   60.9446   61.4221 C   0  0  0  0  0  0  0  0  0  0  0  0
  -42.5966   61.8597   62.4594 O   0  0  0  0  0  0  0  0  0  0  0  0
  -41.8442   60.6882   62.7876 C   0  0  0  0  0  0  0  0  0  0  0  0
  -41.9902   62.5729   62.2058 H   0  0  0  0  0  0  0  0  0  0  0  0
  -42.7501   59.5633   63.1851 C   0  0  0  0  0  0  0  0  0  0  0  0
  -43.9596   59.7063   63.6897 C   0  0  0  0  0  0  0  0  0  0  0  0
  -44.8454   58.5630   64.0626 C   0  0  0  0  0  0  0  0  0  0  0  0
  -46.1858   59.0605   64.6077 C   0  0  0  0  0  0  0  0  0  0  0  0
  -46.8192   58.1403   65.6386 C   0  0  0  0  0  0  0  0  0  0  0  0
  -48.0149   58.7392   66.3595 C   0  0  0  0  0  0  0  0  0  0  0  0
  -48.8871   59.6245   65.4813 C   0  0  0  0  0  0  0  0  0  0  0  0
  -50.1888   58.9658   65.0516 C   0  0  0  0  0  0  0  0  0  0  0  0
  -50.7802   59.5506   63.7810 C   0  0  0  0  0  0  0  0  0  0  0  0
  -50.7236   58.6171   62.5861 C   0  0  0  0  0  0  0  0  0  0  0  0
  -49.3245   58.1286   62.2524 C   0  0  0  0  0  0  0  0  0  0  0  0
  -49.2622   57.3504   60.9512 C   0  0  0  0  0  0  0  0  0  0  0  0
  -49.3959   58.2035   59.7043 C   0  0  0  0  0  0  0  0  0  0  0  0
  -48.4424   57.7805   58.6041 C   0  0  0  0  0  0  0  0  0  0  0  0
  -47.6773   56.5204   58.9519 C   0  0  0  0  0  0  0  0  0  0  0  0
  -39.4271   60.6694   63.5377 C   0  0  0  0  0  0  0  0  0  0  0  0
  -38.7569   60.2116   64.7177 O   0  0  0  0  0  0  0  0  0  0  0  0
  -37.0854   60.7257   62.5307 O   0  0  0  0  0  0  0  0  0  0  0  0
  -36.6713   64.1714   65.0760 O   0  0  0  0  0  0  0  0  0  0  0  0
  -37.4777   61.5897   66.0568 O   0  0  0  0  0  0  0  0  0  0  0  0
  -37.4863   60.7624   64.9083 C   0  0  0  0  0  0  0  0  0  0  0  0
  -37.1342   61.5758   63.6696 C   0  0  0  0  0  0  0  0  0  0  0  0
  -35.7915   62.2677   63.8690 C   0  0  0  0  0  0  0  0  0  0  0  0
  -35.7758   63.0678   65.1632 C   0  0  0  0  0  0  0  0  0  0  0  0
  -36.1914   62.1700   66.3260 C   0  0  0  0  0  0  0  0  0  0  0  0
  -37.9449   60.2914   62.4145 H   0  0  0  0  0  0  0  0  0  0  0  0
  -36.4090   64.7431   64.3376 H   0  0  0  0  0  0  0  0  0  0  0  0
  -35.3201   63.9254   67.7572 O   0  0  0  0  0  0  0  0  0  0  0  0
  -36.3117   62.9119   67.6365 C   0  0  0  0  0  0  0  0  0  0  0  0
  -35.4253   64.3809   68.6070 H   0  0  0  0  0  0  0  0  0  0  0  0
  -35.6727   63.1786   62.7308 O   0  0  0  0  0  0  0  0  0  0  0  0
  -33.2763   63.1141   62.9760 O   0  0  0  0  0  0  0  0  0  0  0  0
  -34.5006   65.3087   62.9590 O   0  0  0  0  0  0  0  0  0  0  0  0
  -34.2587   63.9944   60.9967 O   0  0  0  0  0  0  0  0  0  0  0  0
  -34.3113   63.9730   62.5332 S   0  0  0  0  0  0  0  0  0  0  0  0
  -33.2798   63.0765   63.9453 H   0  0  0  0  0  0  0  0  0  0  0  0
  -34.1291   63.0921   60.6651 H   0  0  0  0  0  0  0  0  0  0  0  0
  2  1  1  0  0  0
  2  4  1  0  0  0
  2  5  1  0  0  0
 47 48  1  0  0  0
 47  1  1  0  0  0
 48 52  1  0  0  0
  1 30  1  0  0  0
 29 30  1  0  0  0
 29 31  1  0  0  0
 30 32  1  0  0  0
  3  4  2  0  0  0
 32 33  2  0  0  0
 49 53  1  0  0  0
 49 57  1  0  0  0
 33 34  1  0  0  0
 62 54  1  0  0  0
 62 66  1  0  0  0
 34 35  1  0  0  0
 50 55  1  0  0  0
 50 58  1  0  0  0
 35 36  1  0  0  0
 51 52  1  0  0  0
 51 56  1  0  0  0
 36 37  1  0  0  0
 59 60  1  0  0  0
 59 61  1  0  0  0
 37 38  1  0  0  0
 63 66  1  0  0  0
 63 67  1  0  0  0
 38 39  1  0  0  0
 64 66  1  0  0  0
 39 40  1  0  0  0
 65 66  1  0  0  0
 65 68  1  0  0  0
 40 41  1  0  0  0
 41 42  1  0  0  0
 42 43  1  0  0  0
 43 44  1  0  0  0
 44 45  1  0  0  0
 45 46  1  0  0  0
  4  6  1  0  0  0
  6  7  1  0  0  0
  7  8  1  0  0  0
  8  9  1  0  0  0
  9 10  1  0  0  0
 10 11  1  0  0  0
 11 12  1  0  0  0
 12 13  1  0  0  0
 13 14  1  0  0  0
 14 15  1  0  0  0
 15 16  1  0  0  0
 16 17  1  0  0  0
 17 18  1  0  0  0
 18 19  1  0  0  0
 19 20  2  0  0  0
 20 21  1  0  0  0
 21 22  1  0  0  0
 22 23  1  0  0  0
 23 24  1  0  0  0
 24 25  1  0  0  0
 25 26  1  0  0  0
 26 27  1  0  0  0
 27 28  1  0  0  0
 52 53  1  0  0  0
 53 54  1  0  0  0
 54 55  1  0  0  0
 55 56  1  0  0  0
 56 60  1  0  0  0
M  CHG 1  64  -1
M  END
> <minimizedAffinity>
-9.18418

> <CNNscore>
0.1355908662

> <CNNaffinity>
7.4403562546

> <CNN_VS>
1.0088443756

> <CNNaffinity_variance>
2.3440918922

$$$$
/media/chris/experiments/cd1a-new-docking/inputs/ligands/7ryn_ligand.pdb


 68 68  0  0  0  0  0  0  0  0999 V2000
  -37.7143   58.1009   62.2784 C   0  0  0  0  0  0  0  0  0  0  0  0
  -38.7794   57.5138   61.4709 N   0  0  0  0  0  0  0  0  0  0  0  0
  -40.3862   58.9495   62.1229 O   0  0  0  0  0  0  0  0  0  0  0  0
  -40.0302   57.9825   61.4558 C   0  0  0  0  0  0  0  0  0  0  0  0
  -38.5653   56.7337   60.9098 H   0  0  0  0  0  0  0  0  0  0  0  0
  -40.9907   57.2491   60.5531 C   0  0  0  0  0  0  0  0  0  0  0  0
  -41.9770   56.3845   61.3278 C   0  0  0  0  0  0  0  0  0  0  0  0
  -41.2997   55.5223   62.3810 C   0  0  0  0  0  0  0  0  0  0  0  0
  -41.7908   55.7785   63.7961 C   0  0  0  0  0  0  0  0  0  0  0  0
  -42.7071   56.9866   63.9200 C   0  0  0  0  0  0  0  0  0  0  0  0
  -43.2606   57.2035   65.3225 C   0  0  0  0  0  0  0  0  0  0  0  0
  -44.4861   58.1069   65.3693 C   0  0  0  0  0  0  0  0  0  0  0  0
  -45.3675   57.9159   66.6010 C   0  0  0  0  0  0  0  0  0  0  0  0
  -46.8630   58.0623   66.3246 C   0  0  0  0  0  0  0  0  0  0  0  0
  -47.2030   58.6617   64.9602 C   0  0  0  0  0  0  0  0  0  0  0  0
  -48.1284   59.8760   65.0421 C   0  0  0  0  0  0  0  0  0  0  0  0
  -49.2659   59.7556   66.0560 C   0  0  0  0  0  0  0  0  0  0  0  0
  -50.5275   59.0653   65.5310 C   0  0  0  0  0  0  0  0  0  0  0  0
  -51.2817   59.9038   64.5399 C   0  0  0  0  0  0  0  0  0  0  0  0
  -51.4395   59.6375   63.2554 C   0  0  0  0  0  0  0  0  0  0  0  0
  -50.8994   58.4425   62.5298 C   0  0  0  0  0  0  0  0  0  0  0  0
  -49.5186   58.6713   61.9112 C   0  0  0  0  0  0  0  0  0  0  0  0
  -49.5670   58.9407   60.4132 C   0  0  0  0  0  0  0  0  0  0  0  0
  -49.7892   57.6839   59.5793 C   0  0  0  0  0  0  0  0  0  0  0  0
  -48.8808   56.5153   59.9443 C   0  0  0  0  0  0  0  0  0  0  0  0
  -47.8880   56.1461   58.8511 C   0  0  0  0  0  0  0  0  0  0  0  0
  -47.1414   57.3323   58.2621 C   0  0  0  0  0  0  0  0  0  0  0  0
  -47.5087   57.6014   56.8169 C   0  0  0  0  0  0  0  0  0  0  0  0
  -37.0427   58.5010   59.9929 O   0  0  0  0  0  0  0  0  0  0  0  0
  -36.6393   58.6917   61.3520 C   0  0  0  0  0  0  0  0  0  0  0  0
  -37.9116   58.9087   59.8533 H   0  0  0  0  0  0  0  0  0  0  0  0
  -35.2984   58.0736   61.6048 C   0  0  0  0  0  0  0  0  0  0  0  0
  -34.2919   58.6689   62.2135 C   0  0  0  0  0  0  0  0  0  0  0  0
  -32.9704   58.0196   62.4640 C   0  0  0  0  0  0  0  0  0  0  0  0
  -32.0472   58.9413   63.2635 C   0  0  0  0  0  0  0  0  0  0  0  0
  -31.3668   60.0160   62.4313 C   0  0  0  0  0  0  0  0  0  0  0  0
  -31.9893   61.3956   62.5630 C   0  0  0  0  0  0  0  0  0  0  0  0
  -31.7421   62.3026   61.3664 C   0  0  0  0  0  0  0  0  0  0  0  0
  -31.5432   63.7639   61.7383 C   0  0  0  0  0  0  0  0  0  0  0  0
  -32.6238   64.6849   61.1996 C   0  0  0  0  0  0  0  0  0  0  0  0
  -33.3317   65.4981   62.2673 C   0  0  0  0  0  0  0  0  0  0  0  0
  -34.0009   64.6558   63.3398 C   0  0  0  0  0  0  0  0  0  0  0  0
  -33.4732   64.9409   64.7336 C   0  0  0  0  0  0  0  0  0  0  0  0
  -32.4683   63.9253   65.2426 C   0  0  0  0  0  0  0  0  0  0  0  0
  -31.0707   64.5000   65.3659 C   0  0  0  0  0  0  0  0  0  0  0  0
  -31.0501   66.0089   65.2346 C   0  0  0  0  0  0  0  0  0  0  0  0
  -37.1439   57.0614   63.2210 C   0  0  0  0  0  0  0  0  0  0  0  0
  -37.0300   57.6477   64.5225 O   0  0  0  0  0  0  0  0  0  0  0  0
  -39.7264   58.2860   64.9267 O   0  0  0  0  0  0  0  0  0  0  0  0
  -37.5524   61.0084   67.4535 O   0  0  0  0  0  0  0  0  0  0  0  0
  -36.4039   59.7893   65.1142 O   0  0  0  0  0  0  0  0  0  0  0  0
  -37.4420   58.9817   64.5909 C   0  0  0  0  0  0  0  0  0  0  0  0
  -38.6688   59.0509   65.4911 C   0  0  0  0  0  0  0  0  0  0  0  0
  -39.1018   60.5011   65.6656 C   0  0  0  0  0  0  0  0  0  0  0  0
  -37.9399   61.3663   66.1309 C   0  0  0  0  0  0  0  0  0  0  0  0
  -36.7530   61.1808   65.1886 C   0  0  0  0  0  0  0  0  0  0  0  0
  -39.4388   57.3658   64.8205 H   0  0  0  0  0  0  0  0  0  0  0  0
  -38.3052   61.1255   68.0539 H   0  0  0  0  0  0  0  0  0  0  0  0
  -35.8265   62.9356   66.5855 O   0  0  0  0  0  0  0  0  0  0  0  0
  -35.5146   61.9191   65.6398 C   0  0  0  0  0  0  0  0  0  0  0  0
  -35.0119   63.3887   66.8535 H   0  0  0  0  0  0  0  0  0  0  0  0
  -40.1263   60.4578   66.7087 O   0  0  0  0  0  0  0  0  0  0  0  0
  -42.4378   60.2917   67.3693 O   0  0  0  0  0  0  0  0  0  0  0  0
  -41.8110   60.4513   64.9409 O   0  0  0  0  0  0  0  0  0  0  0  0
  -41.6028   62.3028   66.4124 O   0  0  0  0  0  0  0  0  0  0  0  0
  -41.6315   60.7692   66.3077 S   0  0  0  0  0  0  0  0  0  0  0  0
  -42.4784   59.3232   67.3341 H   0  0  0  0  0  0  0  0  0  0  0  0
  -41.4808   62.5613   67.3393 H   0  0  0  0  0  0  0  0  0  0  0  0
  2  1  1  0  0  0
  2  4  1  0  0  0
  2  5  1  0  0  0
 47 48  1  0  0  0
 47  1  1  0  0  0
 48 52  1  0  0  0
  1 30  1  0  0  0
 29 30  1  0  0  0
 29 31  1  0  0  0
 30 32  1  0  0  0
  3  4  2  0  0  0
 32 33  2  0  0  0
 49 53  1  0  0  0
 49 57  1  0  0  0
 33 34  1  0  0  0
 62 54  1  0  0  0
 62 66  1  0  0  0
 34 35  1  0  0  0
 50 55  1  0  0  0
 50 58  1  0  0  0
 35 36  1  0  0  0
 51 52  1  0  0  0
 51 56  1  0  0  0
 36 37  1  0  0  0
 59 60  1  0  0  0
 59 61  1  0  0  0
 37 38  1  0  0  0
 63 66  1  0  0  0
 63 67  1  0  0  0
 38 39  1  0  0  0
 64 66  1  0  0  0
 39 40  1  0  0  0
 65 66  1  0  0  0
 65 68  1  0  0  0
 40 41  1  0  0  0
 41 42  1  0  0  0
 42 43  1  0  0  0
 43 44  1  0  0  0
 44 45  1  0  0  0
 45 46  1  0  0  0
  4  6  1  0  0  0
  6  7  1  0  0  0
  7  8  1  0  0  0
  8  9  1  0  0  0
  9 10  1  0  0  0
 10 11  1  0  0  0
 11 12  1  0  0  0
 12 13  1  0  0  0
 13 14  1  0  0  0
 14 15  1  0  0  0
 15 16  1  0  0  0
 16 17  1  0  0  0
 17 18  1  0  0  0
 18 19  1  0  0  0
 19 20  2  0  0  0
 20 21  1  0  0  0
 21 22  1  0  0  0
 22 23  1  0  0  0
 23 24  1  0  0  0
 24 25  1  0  0  0
 25 26  1  0  0  0
 26 27  1  0  0  0
 27 28  1  0  0  0
 52 53  1  0  0  0
 53 54  1  0  0  0
 54 55  1  0  0  0
 55 56  1  0  0  0
 56 60  1  0  0  0
M  CHG 1  64  -1
M  END
> <minimizedAffinity>
-8.40406

> <CNNscore>
0.1350204051

> <CNNaffinity>
7.0182585716

> <CNN_VS>
0.9476081133

> <CNNaffinity_variance>
1.0873757601

$$$$
/media/chris/experiments/cd1a-new-docking/inputs/ligands/7ryn_ligand.pdb


 68 68  0  0  0  0  0  0  0  0999 V2000
  -35.8328   59.0418   63.7147 C   0  0  0  0  0  0  0  0  0  0  0  0
  -36.8292   59.2444   64.7622 N   0  0  0  0  0  0  0  0  0  0  0  0
  -37.6941   61.1356   63.9002 O   0  0  0  0  0  0  0  0  0  0  0  0
  -37.6808   60.2734   64.7738 C   0  0  0  0  0  0  0  0  0  0  0  0
  -36.8758   58.5903   65.4964 H   0  0  0  0  0  0  0  0  0  0  0  0
  -38.6433   60.3105   65.9347 C   0  0  0  0  0  0  0  0  0  0  0  0
  -39.8584   59.4182   65.7156 C   0  0  0  0  0  0  0  0  0  0  0  0
  -41.1353   60.0161   66.2842 C   0  0  0  0  0  0  0  0  0  0  0  0
  -42.0779   58.9912   66.8929 C   0  0  0  0  0  0  0  0  0  0  0  0
  -43.3891   59.5806   67.3907 C   0  0  0  0  0  0  0  0  0  0  0  0
  -44.6117   59.1241   66.6050 C   0  0  0  0  0  0  0  0  0  0  0  0
  -45.1401   57.7584   67.0245 C   0  0  0  0  0  0  0  0  0  0  0  0
  -46.6331   57.7266   67.3412 C   0  0  0  0  0  0  0  0  0  0  0  0
  -47.4671   56.9426   66.3292 C   0  0  0  0  0  0  0  0  0  0  0  0
  -48.4747   57.7838   65.5459 C   0  0  0  0  0  0  0  0  0  0  0  0
  -47.8645   58.4983   64.3399 C   0  0  0  0  0  0  0  0  0  0  0  0
  -47.7086   60.0110   64.4945 C   0  0  0  0  0  0  0  0  0  0  0  0
  -48.8960   60.8365   63.9920 C   0  0  0  0  0  0  0  0  0  0  0  0
  -50.1361   60.6346   64.8138 C   0  0  0  0  0  0  0  0  0  0  0  0
  -51.2690   60.0991   64.3949 C   0  0  0  0  0  0  0  0  0  0  0  0
  -51.5429   59.5824   63.0149 C   0  0  0  0  0  0  0  0  0  0  0  0
  -50.9897   58.1781   62.7633 C   0  0  0  0  0  0  0  0  0  0  0  0
  -50.7802   57.8690   61.2870 C   0  0  0  0  0  0  0  0  0  0  0  0
  -49.3161   57.9044   60.8633 C   0  0  0  0  0  0  0  0  0  0  0  0
  -49.0947   57.8876   59.3552 C   0  0  0  0  0  0  0  0  0  0  0  0
  -47.9352   57.0046   58.9157 C   0  0  0  0  0  0  0  0  0  0  0  0
  -47.6893   57.0015   57.4154 C   0  0  0  0  0  0  0  0  0  0  0  0
  -46.6934   58.0569   56.9792 C   0  0  0  0  0  0  0  0  0  0  0  0
  -34.7350   57.1413   62.7058 O   0  0  0  0  0  0  0  0  0  0  0  0
  -36.0144   57.6438   63.1022 C   0  0  0  0  0  0  0  0  0  0  0  0
  -34.1400   57.1317   63.4717 H   0  0  0  0  0  0  0  0  0  0  0  0
  -36.9616   57.6729   61.9420 C   0  0  0  0  0  0  0  0  0  0  0  0
  -37.2866   58.7506   61.2557 C   0  0  0  0  0  0  0  0  0  0  0  0
  -38.2239   58.7445   60.0928 C   0  0  0  0  0  0  0  0  0  0  0  0
  -39.2614   59.8621   60.2165 C   0  0  0  0  0  0  0  0  0  0  0  0
  -40.6978   59.3720   60.3031 C   0  0  0  0  0  0  0  0  0  0  0  0
  -40.9459   58.0401   59.6157 C   0  0  0  0  0  0  0  0  0  0  0  0
  -41.4268   56.9410   60.5517 C   0  0  0  0  0  0  0  0  0  0  0  0
  -40.5263   56.7294   61.7590 C   0  0  0  0  0  0  0  0  0  0  0  0
  -41.2041   56.0044   62.9084 C   0  0  0  0  0  0  0  0  0  0  0  0
  -41.7287   56.9237   63.9956 C   0  0  0  0  0  0  0  0  0  0  0  0
  -43.2445   57.0001   64.0586 C   0  0  0  0  0  0  0  0  0  0  0  0
  -43.7949   58.3132   63.5337 C   0  0  0  0  0  0  0  0  0  0  0  0
  -42.7353   59.3038   63.0906 C   0  0  0  0  0  0  0  0  0  0  0  0
  -43.1387   60.7424   63.3483 C   0  0  0  0  0  0  0  0  0  0  0  0
  -42.7794   61.6607   62.1985 C   0  0  0  0  0  0  0  0  0  0  0  0
  -34.4403   59.2398   64.2770 C   0  0  0  0  0  0  0  0  0  0  0  0
  -33.7856   60.2573   63.5110 O   0  0  0  0  0  0  0  0  0  0  0  0
  -33.0088   62.5345   62.0785 O   0  0  0  0  0  0  0  0  0  0  0  0
  -36.3787   63.8042   64.4351 O   0  0  0  0  0  0  0  0  0  0  0  0
  -34.7100   61.5768   65.1643 O   0  0  0  0  0  0  0  0  0  0  0  0
  -33.7422   61.5082   64.1336 C   0  0  0  0  0  0  0  0  0  0  0  0
  -34.0197   62.5704   63.0779 C   0  0  0  0  0  0  0  0  0  0  0  0
  -34.0689   63.9470   63.7288 C   0  0  0  0  0  0  0  0  0  0  0  0
  -35.0419   63.9640   64.8985 C   0  0  0  0  0  0  0  0  0  0  0  0
  -34.7025   62.8313   65.8643 C   0  0  0  0  0  0  0  0  0  0  0  0
  -32.9873   61.6541   61.6719 H   0  0  0  0  0  0  0  0  0  0  0  0
  -36.5963   64.5230   63.8212 H   0  0  0  0  0  0  0  0  0  0  0  0
  -35.5403   63.7592   67.9442 O   0  0  0  0  0  0  0  0  0  0  0  0
  -35.6890   62.7038   67.0013 C   0  0  0  0  0  0  0  0  0  0  0  0
  -36.1865   63.6475   68.6588 H   0  0  0  0  0  0  0  0  0  0  0  0
  -34.5567   64.8366   62.6753 O   0  0  0  0  0  0  0  0  0  0  0  0
  -34.3888   67.1788   62.1337 O   0  0  0  0  0  0  0  0  0  0  0  0
  -32.8290   65.5098   61.0862 O   0  0  0  0  0  0  0  0  0  0  0  0
  -32.6688   66.1068   63.3785 O   0  0  0  0  0  0  0  0  0  0  0  0
  -33.6043   66.0003   62.1631 S   0  0  0  0  0  0  0  0  0  0  0  0
  -34.9935   67.1458   61.3760 H   0  0  0  0  0  0  0  0  0  0  0  0
  -33.1662   66.4414   64.1411 H   0  0  0  0  0  0  0  0  0  0  0  0
  2  1  1  0  0  0
  2  4  1  0  0  0
  2  5  1  0  0  0
 47 48  1  0  0  0
 47  1  1  0  0  0
 48 52  1  0  0  0
  1 30  1  0  0  0
 29 30  1  0  0  0
 29 31  1  0  0  0
 30 32  1  0  0  0
  3  4  2  0  0  0
 32 33  2  0  0  0
 49 53  1  0  0  0
 49 57  1  0  0  0
 33 34  1  0  0  0
 62 54  1  0  0  0
 62 66  1  0  0  0
 34 35  1  0  0  0
 50 55  1  0  0  0
 50 58  1  0  0  0
 35 36  1  0  0  0
 51 52  1  0  0  0
 51 56  1  0  0  0
 36 37  1  0  0  0
 59 60  1  0  0  0
 59 61  1  0  0  0
 37 38  1  0  0  0
 63 66  1  0  0  0
 63 67  1  0  0  0
 38 39  1  0  0  0
 64 66  1  0  0  0
 39 40  1  0  0  0
 65 66  1  0  0  0
 65 68  1  0  0  0
 40 41  1  0  0  0
 41 42  1  0  0  0
 42 43  1  0  0  0
 43 44  1  0  0  0
 44 45  1  0  0  0
 45 46  1  0  0  0
  4  6  1  0  0  0
  6  7  1  0  0  0
  7  8  1  0  0  0
  8  9  1  0  0  0
  9 10  1  0  0  0
 10 11  1  0  0  0
 11 12  1  0  0  0
 12 13  1  0  0  0
 13 14  1  0  0  0
 14 15  1  0  0  0
 15 16  1  0  0  0
 16 17  1  0  0  0
 17 18  1  0  0  0
 18 19  1  0  0  0
 19 20  2  0  0  0
 20 21  1  0  0  0
 21 22  1  0  0  0
 22 23  1  0  0  0
 23 24  1  0  0  0
 24 25  1  0  0  0
 25 26  1  0  0  0
 26 27  1  0  0  0
 27 28  1  0  0  0
 52 53  1  0  0  0
 53 54  1  0  0  0
 54 55  1  0  0  0
 55 56  1  0  0  0
 56 60  1  0  0  0
M  CHG 1  64  -1
M  END
> <minimizedAffinity>
-9.23890

> <CNNscore>
0.1342888027

> <CNNaffinity>
7.4602117538

> <CNN_VS>
1.0018229485

> <CNNaffinity_variance>
2.1181781292

$$$$
