/media/chris/experiments/cd1a-new-docking/inputs/ligands/7ryn_ligand.pdb


 68 68  0  0  0  0  0  0  0  0999 V2000
  -39.0087   60.5654   65.3473 C   0  0  0  0  0  0  0  0  0  0  0  0
  -40.0369   60.0463   66.2443 N   0  0  0  0  0  0  0  0  0  0  0  0
  -41.4556   61.7772   66.0010 O   0  0  0  0  0  0  0  0  0  0  0  0
  -41.1782   60.6909   66.5012 C   0  0  0  0  0  0  0  0  0  0  0  0
  -39.8813   59.1781   66.6817 H   0  0  0  0  0  0  0  0  0  0  0  0
  -42.1224   59.9936   67.4485 C   0  0  0  0  0  0  0  0  0  0  0  0
  -43.2995   59.3463   66.7301 C   0  0  0  0  0  0  0  0  0  0  0  0
  -43.0075   57.9199   66.2930 C   0  0  0  0  0  0  0  0  0  0  0  0
  -43.9953   57.3725   65.2761 C   0  0  0  0  0  0  0  0  0  0  0  0
  -44.6240   58.4399   64.3929 C   0  0  0  0  0  0  0  0  0  0  0  0
  -46.1326   58.5717   64.5585 C   0  0  0  0  0  0  0  0  0  0  0  0
  -46.6262   58.2792   65.9695 C   0  0  0  0  0  0  0  0  0  0  0  0
  -47.8075   57.3148   66.0404 C   0  0  0  0  0  0  0  0  0  0  0  0
  -49.1726   57.9964   65.9631 C   0  0  0  0  0  0  0  0  0  0  0  0
  -49.1334   59.5185   66.0975 C   0  0  0  0  0  0  0  0  0  0  0  0
  -49.6476   60.2525   64.8589 C   0  0  0  0  0  0  0  0  0  0  0  0
  -51.1693   60.3391   64.7431 C   0  0  0  0  0  0  0  0  0  0  0  0
  -51.7387   59.9089   63.3886 C   0  0  0  0  0  0  0  0  0  0  0  0
  -51.2711   58.5463   62.9655 C   0  0  0  0  0  0  0  0  0  0  0  0
  -50.4244   58.2833   61.9859 C   0  0  0  0  0  0  0  0  0  0  0  0
  -49.7577   59.2931   61.1016 C   0  0  0  0  0  0  0  0  0  0  0  0
  -49.0103   58.6752   59.9179 C   0  0  0  0  0  0  0  0  0  0  0  0
  -49.6109   57.3569   59.4484 C   0  0  0  0  0  0  0  0  0  0  0  0
  -48.6988   56.1584   59.6848 C   0  0  0  0  0  0  0  0  0  0  0  0
  -47.3348   56.2608   59.0118 C   0  0  0  0  0  0  0  0  0  0  0  0
  -47.3688   55.9929   57.5136 C   0  0  0  0  0  0  0  0  0  0  0  0
  -47.5603   57.2385   56.6630 C   0  0  0  0  0  0  0  0  0  0  0  0
  -46.6879   58.3952   57.1069 C   0  0  0  0  0  0  0  0  0  0  0  0
  -39.8753   61.2461   63.1978 O   0  0  0  0  0  0  0  0  0  0  0  0
  -39.3238   60.1325   63.9064 C   0  0  0  0  0  0  0  0  0  0  0  0
  -39.2533   61.9898   63.2297 H   0  0  0  0  0  0  0  0  0  0  0  0
  -40.2594   58.9629   63.8781 C   0  0  0  0  0  0  0  0  0  0  0  0
  -39.9374   57.7440   63.4924 C   0  0  0  0  0  0  0  0  0  0  0  0
  -40.8904   56.5940   63.4898 C   0  0  0  0  0  0  0  0  0  0  0  0
  -41.2994   56.2216   62.0631 C   0  0  0  0  0  0  0  0  0  0  0  0
  -41.9754   57.3459   61.2952 C   0  0  0  0  0  0  0  0  0  0  0  0
  -41.1782   57.8590   60.1081 C   0  0  0  0  0  0  0  0  0  0  0  0
  -40.9165   59.3577   60.1397 C   0  0  0  0  0  0  0  0  0  0  0  0
  -39.4424   59.7182   60.2425 C   0  0  0  0  0  0  0  0  0  0  0  0
  -38.5162   58.5148   60.2345 C   0  0  0  0  0  0  0  0  0  0  0  0
  -37.2584   58.6973   61.0634 C   0  0  0  0  0  0  0  0  0  0  0  0
  -36.9105   57.4965   61.9264 C   0  0  0  0  0  0  0  0  0  0  0  0
  -35.7802   57.7732   62.9002 C   0  0  0  0  0  0  0  0  0  0  0  0
  -34.5695   56.8765   62.7254 C   0  0  0  0  0  0  0  0  0  0  0  0
  -33.2765   57.6597   62.6095 C   0  0  0  0  0  0  0  0  0  0  0  0
  -32.8929   58.3418   63.9064 C   0  0  0  0  0  0  0  0  0  0  0  0
  -37.6411   60.0938   65.7965 C   0  0  0  0  0  0  0  0  0  0  0  0
  -36.7216   60.2835   64.7152 O   0  0  0  0  0  0  0  0  0  0  0  0
  -34.6743   60.6715   62.8447 O   0  0  0  0  0  0  0  0  0  0  0  0
  -35.1649   64.4945   64.7594 O   0  0  0  0  0  0  0  0  0  0  0  0
  -35.9061   62.0118   66.0101 O   0  0  0  0  0  0  0  0  0  0  0  0
  -35.5835   61.0226   65.0504 C   0  0  0  0  0  0  0  0  0  0  0  0
  -35.0528   61.6738   63.7798 C   0  0  0  0  0  0  0  0  0  0  0  0
  -33.8605   62.5620   64.1121 C   0  0  0  0  0  0  0  0  0  0  0  0
  -34.2052   63.5480   65.2185 C   0  0  0  0  0  0  0  0  0  0  0  0
  -34.7726   62.7942   66.4187 C   0  0  0  0  0  0  0  0  0  0  0  0
  -35.4409   60.1130   62.6413 H   0  0  0  0  0  0  0  0  0  0  0  0
  -34.8063   64.9747   63.9968 H   0  0  0  0  0  0  0  0  0  0  0  0
  -36.6495   63.9373   67.4479 O   0  0  0  0  0  0  0  0  0  0  0  0
  -35.2472   63.7076   67.5245 C   0  0  0  0  0  0  0  0  0  0  0  0
  -36.9206   64.5257   68.1698 H   0  0  0  0  0  0  0  0  0  0  0  0
  -33.5880   63.2928   62.8746 O   0  0  0  0  0  0  0  0  0  0  0  0
  -32.0307   61.7830   61.8250 O   0  0  0  0  0  0  0  0  0  0  0  0
  -31.2158   63.8632   62.9757 O   0  0  0  0  0  0  0  0  0  0  0  0
  -32.3987   63.9512   60.9191 O   0  0  0  0  0  0  0  0  0  0  0  0
  -32.1561   63.1417   62.2035 S   0  0  0  0  0  0  0  0  0  0  0  0
  -31.8761   61.2405   62.6141 H   0  0  0  0  0  0  0  0  0  0  0  0
  -33.0413   63.4866   60.3605 H   0  0  0  0  0  0  0  0  0  0  0  0
  2  1  1  0  0  0
  2  4  1  0  0  0
  2  5  1  0  0  0
 47 48  1  0  0  0
 47  1  1  0  0  0
 48 52  1  0  0  0
  1 30  1  0  0  0
 29 30  1  0  0  0
 29 31  1  0  0  0
 30 32  1  0  0  0
  3  4  2  0  0  0
 32 33  2  0  0  0
 49 53  1  0  0  0
 49 57  1  0  0  0
 33 34  1  0  0  0
 62 54  1  0  0  0
 62 66  1  0  0  0
 34 35  1  0  0  0
 50 55  1  0  0  0
 50 58  1  0  0  0
 35 36  1  0  0  0
 51 52  1  0  0  0
 51 56  1  0  0  0
 36 37  1  0  0  0
 59 60  1  0  0  0
 59 61  1  0  0  0
 37 38  1  0  0  0
 63 66  1  0  0  0
 63 67  1  0  0  0
 38 39  1  0  0  0
 64 66  1  0  0  0
 39 40  1  0  0  0
 65 66  1  0  0  0
 65 68  1  0  0  0
 40 41  1  0  0  0
 41 42  1  0  0  0
 42 43  1  0  0  0
 43 44  1  0  0  0
 44 45  1  0  0  0
 45 46  1  0  0  0
  4  6  1  0  0  0
  6  7  1  0  0  0
  7  8  1  0  0  0
  8  9  1  0  0  0
  9 10  1  0  0  0
 10 11  1  0  0  0
 11 12  1  0  0  0
 12 13  1  0  0  0
 13 14  1  0  0  0
 14 15  1  0  0  0
 15 16  1  0  0  0
 16 17  1  0  0  0
 17 18  1  0  0  0
 18 19  1  0  0  0
 19 20  2  0  0  0
 20 21  1  0  0  0
 21 22  1  0  0  0
 22 23  1  0  0  0
 23 24  1  0  0  0
 24 25  1  0  0  0
 25 26  1  0  0  0
 26 27  1  0  0  0
 27 28  1  0  0  0
 52 53  1  0  0  0
 53 54  1  0  0  0
 54 55  1  0  0  0
 55 56  1  0  0  0
 56 60  1  0  0  0
M  CHG 1  64  -1
M  END
> <minimizedAffinity>
-9.43846

> <CNNscore>
0.2111316770

> <CNNaffinity>
7.5058531761

> <CNN_VS>
1.5847233534

> <CNNaffinity_variance>
1.9750931263

$$$$
/media/chris/experiments/cd1a-new-docking/inputs/ligands/7ryn_ligand.pdb


 68 68  0  0  0  0  0  0  0  0999 V2000
  -38.7755   60.8655   65.3270 C   0  0  0  0  0  0  0  0  0  0  0  0
  -39.7082   60.1599   66.2008 N   0  0  0  0  0  0  0  0  0  0  0  0
  -41.3100   61.7411   66.1593 O   0  0  0  0  0  0  0  0  0  0  0  0
  -40.9006   60.6511   66.5485 C   0  0  0  0  0  0  0  0  0  0  0  0
  -39.4453   59.2782   66.5511 H   0  0  0  0  0  0  0  0  0  0  0  0
  -41.7291   59.7736   67.4534 C   0  0  0  0  0  0  0  0  0  0  0  0
  -42.9847   59.2482   66.7691 C   0  0  0  0  0  0  0  0  0  0  0  0
  -42.9278   57.7517   66.5080 C   0  0  0  0  0  0  0  0  0  0  0  0
  -43.7749   57.2990   65.3302 C   0  0  0  0  0  0  0  0  0  0  0  0
  -44.3649   58.4441   64.5207 C   0  0  0  0  0  0  0  0  0  0  0  0
  -45.8692   58.6133   64.6918 C   0  0  0  0  0  0  0  0  0  0  0  0
  -46.3199   58.6916   66.1447 C   0  0  0  0  0  0  0  0  0  0  0  0
  -46.7948   57.3655   66.7332 C   0  0  0  0  0  0  0  0  0  0  0  0
  -48.1718   56.9237   66.2401 C   0  0  0  0  0  0  0  0  0  0  0  0
  -48.9492   57.9954   65.4764 C   0  0  0  0  0  0  0  0  0  0  0  0
  -50.3833   58.1778   65.9735 C   0  0  0  0  0  0  0  0  0  0  0  0
  -50.9427   59.5932   65.8310 C   0  0  0  0  0  0  0  0  0  0  0  0
  -51.0773   60.0916   64.3897 C   0  0  0  0  0  0  0  0  0  0  0  0
  -49.7782   60.5813   63.8181 C   0  0  0  0  0  0  0  0  0  0  0  0
  -49.3192   60.3331   62.6042 C   0  0  0  0  0  0  0  0  0  0  0  0
  -50.0049   59.5149   61.5523 C   0  0  0  0  0  0  0  0  0  0  0  0
  -50.1005   58.0270   61.8963 C   0  0  0  0  0  0  0  0  0  0  0  0
  -50.3697   57.1448   60.6846 C   0  0  0  0  0  0  0  0  0  0  0  0
  -49.1867   56.2616   60.3045 C   0  0  0  0  0  0  0  0  0  0  0  0
  -48.0757   56.9842   59.5512 C   0  0  0  0  0  0  0  0  0  0  0  0
  -47.2870   56.0841   58.6105 C   0  0  0  0  0  0  0  0  0  0  0  0
  -47.2566   56.5654   57.1686 C   0  0  0  0  0  0  0  0  0  0  0  0
  -47.0514   58.0621   57.0510 C   0  0  0  0  0  0  0  0  0  0  0  0
  -38.8295   61.2607   62.9447 O   0  0  0  0  0  0  0  0  0  0  0  0
  -38.8012   60.2243   63.9303 C   0  0  0  0  0  0  0  0  0  0  0  0
  -38.0640   61.8438   63.0665 H   0  0  0  0  0  0  0  0  0  0  0  0
  -39.9715   59.3025   63.7723 C   0  0  0  0  0  0  0  0  0  0  0  0
  -39.8913   57.9963   63.6129 C   0  0  0  0  0  0  0  0  0  0  0  0
  -41.0788   57.1014   63.4728 C   0  0  0  0  0  0  0  0  0  0  0  0
  -40.8547   56.0571   62.3772 C   0  0  0  0  0  0  0  0  0  0  0  0
  -41.6452   56.3106   61.1038 C   0  0  0  0  0  0  0  0  0  0  0  0
  -42.0699   57.7562   60.9095 C   0  0  0  0  0  0  0  0  0  0  0  0
  -41.3378   58.4702   59.7826 C   0  0  0  0  0  0  0  0  0  0  0  0
  -40.6427   59.7502   60.2205 C   0  0  0  0  0  0  0  0  0  0  0  0
  -39.1297   59.6965   60.1012 C   0  0  0  0  0  0  0  0  0  0  0  0
  -38.5305   58.3446   60.4414 C   0  0  0  0  0  0  0  0  0  0  0  0
  -37.1126   58.4183   60.9817 C   0  0  0  0  0  0  0  0  0  0  0  0
  -36.8831   57.5060   62.1723 C   0  0  0  0  0  0  0  0  0  0  0  0
  -35.4691   57.5354   62.7202 C   0  0  0  0  0  0  0  0  0  0  0  0
  -35.4317   57.6901   64.2280 C   0  0  0  0  0  0  0  0  0  0  0  0
  -36.7350   57.2855   64.8854 C   0  0  0  0  0  0  0  0  0  0  0  0
  -37.3870   60.8546   65.9324 C   0  0  0  0  0  0  0  0  0  0  0  0
  -36.8203   62.1612   65.7832 O   0  0  0  0  0  0  0  0  0  0  0  0
  -36.4898   64.6779   64.6008 O   0  0  0  0  0  0  0  0  0  0  0  0
  -32.5607   62.9217   64.5854 O   0  0  0  0  0  0  0  0  0  0  0  0
  -34.9736   61.3564   64.6560 O   0  0  0  0  0  0  0  0  0  0  0  0
  -36.0161   62.3139   64.6501 C   0  0  0  0  0  0  0  0  0  0  0  0
  -35.4381   63.7231   64.6684 C   0  0  0  0  0  0  0  0  0  0  0  0
  -34.4834   63.9064   63.4953 C   0  0  0  0  0  0  0  0  0  0  0  0
  -33.4344   62.8047   63.4671 C   0  0  0  0  0  0  0  0  0  0  0  0
  -34.1212   61.4417   63.5026 C   0  0  0  0  0  0  0  0  0  0  0  0
  -37.0903   64.5510   65.3520 H   0  0  0  0  0  0  0  0  0  0  0  0
  -32.1231   63.7872   64.5647 H   0  0  0  0  0  0  0  0  0  0  0  0
  -32.3569   60.1806   62.4137 O   0  0  0  0  0  0  0  0  0  0  0  0
  -33.1495   60.2883   63.5906 C   0  0  0  0  0  0  0  0  0  0  0  0
  -31.7457   59.4327   62.5027 H   0  0  0  0  0  0  0  0  0  0  0  0
  -33.8335   65.1928   63.7456 O   0  0  0  0  0  0  0  0  0  0  0  0
  -32.9546   67.3007   62.9770 O   0  0  0  0  0  0  0  0  0  0  0  0
  -35.2538   66.5498   62.2949 O   0  0  0  0  0  0  0  0  0  0  0  0
  -33.2943   65.5109   61.4478 O   0  0  0  0  0  0  0  0  0  0  0  0
  -33.8975   66.3079   62.6160 S   0  0  0  0  0  0  0  0  0  0  0  0
  -33.3035   67.8251   63.7146 H   0  0  0  0  0  0  0  0  0  0  0  0
  -32.3602   65.3246   61.6315 H   0  0  0  0  0  0  0  0  0  0  0  0
  2  1  1  0  0  0
  2  4  1  0  0  0
  2  5  1  0  0  0
 47 48  1  0  0  0
 47  1  1  0  0  0
 48 52  1  0  0  0
  1 30  1  0  0  0
 29 30  1  0  0  0
 29 31  1  0  0  0
 30 32  1  0  0  0
  3  4  2  0  0  0
 32 33  2  0  0  0
 49 53  1  0  0  0
 49 57  1  0  0  0
 33 34  1  0  0  0
 62 54  1  0  0  0
 62 66  1  0  0  0
 34 35  1  0  0  0
 50 55  1  0  0  0
 50 58  1  0  0  0
 35 36  1  0  0  0
 51 52  1  0  0  0
 51 56  1  0  0  0
 36 37  1  0  0  0
 59 60  1  0  0  0
 59 61  1  0  0  0
 37 38  1  0  0  0
 63 66  1  0  0  0
 63 67  1  0  0  0
 38 39  1  0  0  0
 64 66  1  0  0  0
 39 40  1  0  0  0
 65 66  1  0  0  0
 65 68  1  0  0  0
 40 41  1  0  0  0
 41 42  1  0  0  0
 42 43  1  0  0  0
 43 44  1  0  0  0
 44 45  1  0  0  0
 45 46  1  0  0  0
  4  6  1  0  0  0
  6  7  1  0  0  0
  7  8  1  0  0  0
  8  9  1  0  0  0
  9 10  1  0  0  0
 10 11  1  0  0  0
 11 12  1  0  0  0
 12 13  1  0  0  0
 13 14  1  0  0  0
 14 15  1  0  0  0
 15 16  1  0  0  0
 16 17  1  0  0  0
 17 18  1  0  0  0
 18 19  1  0  0  0
 19 20  2  0  0  0
 20 21  1  0  0  0
 21 22  1  0  0  0
 22 23  1  0  0  0
 23 24  1  0  0  0
 24 25  1  0  0  0
 25 26  1  0  0  0
 26 27  1  0  0  0
 27 28  1  0  0  0
 52 53  1  0  0  0
 53 54  1  0  0  0
 54 55  1  0  0  0
 55 56  1  0  0  0
 56 60  1  0  0  0
M  CHG 1  64  -1
M  END
> <minimizedAffinity>
-9.25038

> <CNNscore>
0.1799142957

> <CNNaffinity>
7.4896898270

> <CNN_VS>
1.3475022316

> <CNNaffinity_variance>
1.7801345587

$$$$
/media/chris/experiments/cd1a-new-docking/inputs/ligands/7ryn_ligand.pdb


 68 68  0  0  0  0  0  0  0  0999 V2000
  -36.0818   59.4634   63.8954 C   0  0  0  0  0  0  0  0  0  0  0  0
  -37.1381   60.0690   64.7009 N   0  0  0  0  0  0  0  0  0  0  0  0
  -38.0400   58.1290   65.4014 O   0  0  0  0  0  0  0  0  0  0  0  0
  -38.0334   59.3565   65.3900 C   0  0  0  0  0  0  0  0  0  0  0  0
  -37.1933   61.0512   64.7380 H   0  0  0  0  0  0  0  0  0  0  0  0
  -39.0449   60.1589   66.1700 C   0  0  0  0  0  0  0  0  0  0  0  0
  -40.4767   59.7112   65.9047 C   0  0  0  0  0  0  0  0  0  0  0  0
  -41.4956   60.4906   66.7203 C   0  0  0  0  0  0  0  0  0  0  0  0
  -42.7191   59.6802   67.1149 C   0  0  0  0  0  0  0  0  0  0  0  0
  -42.5226   58.1757   67.0031 C   0  0  0  0  0  0  0  0  0  0  0  0
  -43.7708   57.4183   66.5681 C   0  0  0  0  0  0  0  0  0  0  0  0
  -45.0202   58.2855   66.4829 C   0  0  0  0  0  0  0  0  0  0  0  0
  -46.0081   57.8684   65.3964 C   0  0  0  0  0  0  0  0  0  0  0  0
  -46.8884   59.0078   64.8854 C   0  0  0  0  0  0  0  0  0  0  0  0
  -48.0525   59.3755   65.8052 C   0  0  0  0  0  0  0  0  0  0  0  0
  -49.0093   58.2131   66.0706 C   0  0  0  0  0  0  0  0  0  0  0  0
  -50.4890   58.5305   65.8548 C   0  0  0  0  0  0  0  0  0  0  0  0
  -50.7747   59.9295   65.3024 C   0  0  0  0  0  0  0  0  0  0  0  0
  -51.6201   59.9053   64.0619 C   0  0  0  0  0  0  0  0  0  0  0  0
  -51.1957   59.6583   62.8353 C   0  0  0  0  0  0  0  0  0  0  0  0
  -49.7846   59.3493   62.4359 C   0  0  0  0  0  0  0  0  0  0  0  0
  -49.5835   57.9115   61.9527 C   0  0  0  0  0  0  0  0  0  0  0  0
  -50.4230   57.5638   60.7306 C   0  0  0  0  0  0  0  0  0  0  0  0
  -49.6180   57.5180   59.4368 C   0  0  0  0  0  0  0  0  0  0  0  0
  -48.1545   57.1314   59.6173 C   0  0  0  0  0  0  0  0  0  0  0  0
  -47.6531   56.1306   58.5856 C   0  0  0  0  0  0  0  0  0  0  0  0
  -47.5797   56.6803   57.1700 C   0  0  0  0  0  0  0  0  0  0  0  0
  -46.8835   58.0241   57.0948 C   0  0  0  0  0  0  0  0  0  0  0  0
  -35.3995   57.1470   63.8350 O   0  0  0  0  0  0  0  0  0  0  0  0
  -36.4839   58.0268   63.5247 C   0  0  0  0  0  0  0  0  0  0  0  0
  -35.1715   57.2334   64.7739 H   0  0  0  0  0  0  0  0  0  0  0  0
  -36.8639   57.9200   62.0795 C   0  0  0  0  0  0  0  0  0  0  0  0
  -37.5000   58.8481   61.3926 C   0  0  0  0  0  0  0  0  0  0  0  0
  -37.8519   58.7178   59.9469 C   0  0  0  0  0  0  0  0  0  0  0  0
  -39.0921   59.5464   59.6056 C   0  0  0  0  0  0  0  0  0  0  0  0
  -40.3437   59.1364   60.3647 C   0  0  0  0  0  0  0  0  0  0  0  0
  -41.0356   57.9034   59.8090 C   0  0  0  0  0  0  0  0  0  0  0  0
  -41.4627   56.9016   60.8718 C   0  0  0  0  0  0  0  0  0  0  0  0
  -40.6126   56.9487   62.1322 C   0  0  0  0  0  0  0  0  0  0  0  0
  -41.3740   57.3971   63.3673 C   0  0  0  0  0  0  0  0  0  0  0  0
  -42.8247   57.7551   63.1030 C   0  0  0  0  0  0  0  0  0  0  0  0
  -43.1776   59.1909   63.4518 C   0  0  0  0  0  0  0  0  0  0  0  0
  -42.6344   60.1951   62.4523 C   0  0  0  0  0  0  0  0  0  0  0  0
  -41.7321   61.2542   63.0561 C   0  0  0  0  0  0  0  0  0  0  0  0
  -42.3965   62.6153   63.1245 C   0  0  0  0  0  0  0  0  0  0  0  0
  -43.3499   62.8543   61.9721 C   0  0  0  0  0  0  0  0  0  0  0  0
  -34.7659   59.5103   64.6441 C   0  0  0  0  0  0  0  0  0  0  0  0
  -33.8913   60.4158   63.9615 O   0  0  0  0  0  0  0  0  0  0  0  0
  -32.0051   62.2464   62.9962 O   0  0  0  0  0  0  0  0  0  0  0  0
  -35.2962   64.6614   64.3594 O   0  0  0  0  0  0  0  0  0  0  0  0
  -34.7705   62.0195   65.3700 O   0  0  0  0  0  0  0  0  0  0  0  0
  -33.6201   61.5936   64.6638 C   0  0  0  0  0  0  0  0  0  0  0  0
  -33.1956   62.6555   63.6576 C   0  0  0  0  0  0  0  0  0  0  0  0
  -32.9733   63.9840   64.3695 C   0  0  0  0  0  0  0  0  0  0  0  0
  -34.1873   64.3673   65.2029 C   0  0  0  0  0  0  0  0  0  0  0  0
  -34.5533   63.2155   66.1358 C   0  0  0  0  0  0  0  0  0  0  0  0
  -32.1590   61.4004   62.5473 H   0  0  0  0  0  0  0  0  0  0  0  0
  -35.0658   65.3931   63.7658 H   0  0  0  0  0  0  0  0  0  0  0  0
  -36.9531   62.8895   66.2878 O   0  0  0  0  0  0  0  0  0  0  0  0
  -35.8180   63.4666   66.9230 C   0  0  0  0  0  0  0  0  0  0  0  0
  -37.7458   63.0685   66.8175 H   0  0  0  0  0  0  0  0  0  0  0  0
  -32.7953   64.9558   63.2909 O   0  0  0  0  0  0  0  0  0  0  0  0
  -30.4604   64.8122   63.8691 O   0  0  0  0  0  0  0  0  0  0  0  0
  -31.4066   66.9238   62.8887 O   0  0  0  0  0  0  0  0  0  0  0  0
  -31.1277   64.9556   61.5907 O   0  0  0  0  0  0  0  0  0  0  0  0
  -31.3361   65.5159   63.0072 S   0  0  0  0  0  0  0  0  0  0  0  0
  -30.5654   65.1412   64.7756 H   0  0  0  0  0  0  0  0  0  0  0  0
  -31.0741   63.9878   61.6303 H   0  0  0  0  0  0  0  0  0  0  0  0
  2  1  1  0  0  0
  2  4  1  0  0  0
  2  5  1  0  0  0
 47 48  1  0  0  0
 47  1  1  0  0  0
 48 52  1  0  0  0
  1 30  1  0  0  0
 29 30  1  0  0  0
 29 31  1  0  0  0
 30 32  1  0  0  0
  3  4  2  0  0  0
 32 33  2  0  0  0
 49 53  1  0  0  0
 49 57  1  0  0  0
 33 34  1  0  0  0
 62 54  1  0  0  0
 62 66  1  0  0  0
 34 35  1  0  0  0
 50 55  1  0  0  0
 50 58  1  0  0  0
 35 36  1  0  0  0
 51 52  1  0  0  0
 51 56  1  0  0  0
 36 37  1  0  0  0
 59 60  1  0  0  0
 59 61  1  0  0  0
 37 38  1  0  0  0
 63 66  1  0  0  0
 63 67  1  0  0  0
 38 39  1  0  0  0
 64 66  1  0  0  0
 39 40  1  0  0  0
 65 66  1  0  0  0
 65 68  1  0  0  0
 40 41  1  0  0  0
 41 42  1  0  0  0
 42 43  1  0  0  0
 43 44  1  0  0  0
 44 45  1  0  0  0
 45 46  1  0  0  0
  4  6  1  0  0  0
  6  7  1  0  0  0
  7  8  1  0  0  0
  8  9  1  0  0  0
  9 10  1  0  0  0
 10 11  1  0  0  0
 11 12  1  0  0  0
 12 13  1  0  0  0
 13 14  1  0  0  0
 14 15  1  0  0  0
 15 16  1  0  0  0
 16 17  1  0  0  0
 17 18  1  0  0  0
 18 19  1  0  0  0
 19 20  2  0  0  0
 20 21  1  0  0  0
 21 22  1  0  0  0
 22 23  1  0  0  0
 23 24  1  0  0  0
 24 25  1  0  0  0
 25 26  1  0  0  0
 26 27  1  0  0  0
 27 28  1  0  0  0
 52 53  1  0  0  0
 53 54  1  0  0  0
 54 55  1  0  0  0
 55 56  1  0  0  0
 56 60  1  0  0  0
M  CHG 1  64  -1
M  END
> <minimizedAffinity>
-9.50149

> <CNNscore>
0.1466076225

> <CNNaffinity>
7.2409934998

> <CNN_VS>
1.0615848303

> <CNNaffinity_variance>
2.0982973576

$$$$
/media/chris/experiments/cd1a-new-docking/inputs/ligands/7ryn_ligand.pdb


 68 68  0  0  0  0  0  0  0  0999 V2000
  -38.5089   59.2999   62.3553 C   0  0  0  0  0  0  0  0  0  0  0  0
  -39.8271   59.8948   62.5542 N   0  0  0  0  0  0  0  0  0  0  0  0
  -40.9606   58.3558   61.3650 O   0  0  0  0  0  0  0  0  0  0  0  0
  -40.9485   59.3779   62.0448 C   0  0  0  0  0  0  0  0  0  0  0  0
  -39.8929   60.7179   63.0904 H   0  0  0  0  0  0  0  0  0  0  0  0
  -42.2170   60.1290   62.3642 C   0  0  0  0  0  0  0  0  0  0  0  0
  -42.8407   59.6896   63.6827 C   0  0  0  0  0  0  0  0  0  0  0  0
  -42.0019   60.0822   64.8881 C   0  0  0  0  0  0  0  0  0  0  0  0
  -41.7815   58.9522   65.8800 C   0  0  0  0  0  0  0  0  0  0  0  0
  -42.9663   58.7024   66.8011 C   0  0  0  0  0  0  0  0  0  0  0  0
  -43.9565   57.6728   66.2718 C   0  0  0  0  0  0  0  0  0  0  0  0
  -45.3687   57.8373   66.8185 C   0  0  0  0  0  0  0  0  0  0  0  0
  -46.2375   58.8241   66.0426 C   0  0  0  0  0  0  0  0  0  0  0  0
  -47.0676   58.1824   64.9320 C   0  0  0  0  0  0  0  0  0  0  0  0
  -48.4213   57.6347   65.3835 C   0  0  0  0  0  0  0  0  0  0  0  0
  -49.2596   58.6491   66.1616 C   0  0  0  0  0  0  0  0  0  0  0  0
  -50.4123   59.2745   65.3762 C   0  0  0  0  0  0  0  0  0  0  0  0
  -50.0398   60.5176   64.5639 C   0  0  0  0  0  0  0  0  0  0  0  0
  -49.4324   60.1837   63.2321 C   0  0  0  0  0  0  0  0  0  0  0  0
  -49.9646   59.4047   62.3071 C   0  0  0  0  0  0  0  0  0  0  0  0
  -51.2839   58.6998   62.4002 C   0  0  0  0  0  0  0  0  0  0  0  0
  -51.3912   57.4739   61.4907 C   0  0  0  0  0  0  0  0  0  0  0  0
  -50.1008   57.1631   60.7442 C   0  0  0  0  0  0  0  0  0  0  0  0
  -49.8618   58.0730   59.5446 C   0  0  0  0  0  0  0  0  0  0  0  0
  -48.4316   58.0593   59.0170 C   0  0  0  0  0  0  0  0  0  0  0  0
  -47.7450   56.7064   59.1422 C   0  0  0  0  0  0  0  0  0  0  0  0
  -47.3118   56.1034   57.8154 C   0  0  0  0  0  0  0  0  0  0  0  0
  -46.7395   57.1309   56.8599 C   0  0  0  0  0  0  0  0  0  0  0  0
  -38.4764   59.3640   64.7697 O   0  0  0  0  0  0  0  0  0  0  0  0
  -38.0752   58.5801   63.6424 C   0  0  0  0  0  0  0  0  0  0  0  0
  -39.4347   59.5110   64.7368 H   0  0  0  0  0  0  0  0  0  0  0  0
  -36.5978   58.3327   63.6603 C   0  0  0  0  0  0  0  0  0  0  0  0
  -35.9510   57.5453   62.8238 C   0  0  0  0  0  0  0  0  0  0  0  0
  -34.4734   57.3306   62.8582 C   0  0  0  0  0  0  0  0  0  0  0  0
  -33.8638   57.9033   64.1395 C   0  0  0  0  0  0  0  0  0  0  0  0
  -32.5551   58.6473   63.9284 C   0  0  0  0  0  0  0  0  0  0  0  0
  -32.7076   60.0011   63.2562 C   0  0  0  0  0  0  0  0  0  0  0  0
  -32.1416   60.0584   61.8449 C   0  0  0  0  0  0  0  0  0  0  0  0
  -30.7350   60.6329   61.7739 C   0  0  0  0  0  0  0  0  0  0  0  0
  -30.6099   61.8325   60.8512 C   0  0  0  0  0  0  0  0  0  0  0  0
  -30.2046   63.1142   61.5552 C   0  0  0  0  0  0  0  0  0  0  0  0
  -30.1778   63.0023   63.0699 C   0  0  0  0  0  0  0  0  0  0  0  0
  -30.7076   64.2421   63.7660 C   0  0  0  0  0  0  0  0  0  0  0  0
  -31.1501   64.0149   65.1988 C   0  0  0  0  0  0  0  0  0  0  0  0
  -31.9443   65.1805   65.7550 C   0  0  0  0  0  0  0  0  0  0  0  0
  -31.0567   66.2784   66.3036 C   0  0  0  0  0  0  0  0  0  0  0  0
  -37.5161   60.3648   61.9371 C   0  0  0  0  0  0  0  0  0  0  0  0
  -37.7756   61.5477   62.7014 O   0  0  0  0  0  0  0  0  0  0  0  0
  -36.0459   63.4199   61.5421 O   0  0  0  0  0  0  0  0  0  0  0  0
  -36.6005   64.7799   65.5875 O   0  0  0  0  0  0  0  0  0  0  0  0
  -36.9441   62.0344   64.7991 O   0  0  0  0  0  0  0  0  0  0  0  0
  -36.6711   62.0289   63.4102 C   0  0  0  0  0  0  0  0  0  0  0  0
  -36.3785   63.4427   62.9246 C   0  0  0  0  0  0  0  0  0  0  0  0
  -35.2339   64.0412   63.7324 C   0  0  0  0  0  0  0  0  0  0  0  0
  -35.5081   63.9412   65.2257 C   0  0  0  0  0  0  0  0  0  0  0  0
  -35.8377   62.4960   65.5909 C   0  0  0  0  0  0  0  0  0  0  0  0
  -36.7815   63.0370   61.0389 H   0  0  0  0  0  0  0  0  0  0  0  0
  -36.3931   65.6988   65.3563 H   0  0  0  0  0  0  0  0  0  0  0  0
  -35.5813   63.2715   67.8760 O   0  0  0  0  0  0  0  0  0  0  0  0
  -36.2340   62.3240   67.0385 C   0  0  0  0  0  0  0  0  0  0  0  0
  -35.8569   63.1340   68.7957 H   0  0  0  0  0  0  0  0  0  0  0  0
  -35.1984   65.4488   63.3359 O   0  0  0  0  0  0  0  0  0  0  0  0
  -33.5022   64.8405   61.7361 O   0  0  0  0  0  0  0  0  0  0  0  0
  -33.1737   66.8118   63.2597 O   0  0  0  0  0  0  0  0  0  0  0  0
  -34.7353   66.8572   61.4721 O   0  0  0  0  0  0  0  0  0  0  0  0
  -33.9742   65.9606   62.4624 S   0  0  0  0  0  0  0  0  0  0  0  0
  -33.0149   64.2505   62.3322 H   0  0  0  0  0  0  0  0  0  0  0  0
  -35.2982   66.3073   60.9048 H   0  0  0  0  0  0  0  0  0  0  0  0
  2  1  1  0  0  0
  2  4  1  0  0  0
  2  5  1  0  0  0
 47 48  1  0  0  0
 47  1  1  0  0  0
 48 52  1  0  0  0
  1 30  1  0  0  0
 29 30  1  0  0  0
 29 31  1  0  0  0
 30 32  1  0  0  0
  3  4  2  0  0  0
 32 33  2  0  0  0
 49 53  1  0  0  0
 49 57  1  0  0  0
 33 34  1  0  0  0
 62 54  1  0  0  0
 62 66  1  0  0  0
 34 35  1  0  0  0
 50 55  1  0  0  0
 50 58  1  0  0  0
 35 36  1  0  0  0
 51 52  1  0  0  0
 51 56  1  0  0  0
 36 37  1  0  0  0
 59 60  1  0  0  0
 59 61  1  0  0  0
 37 38  1  0  0  0
 63 66  1  0  0  0
 63 67  1  0  0  0
 38 39  1  0  0  0
 64 66  1  0  0  0
 39 40  1  0  0  0
 65 66  1  0  0  0
 65 68  1  0  0  0
 40 41  1  0  0  0
 41 42  1  0  0  0
 42 43  1  0  0  0
 43 44  1  0  0  0
 44 45  1  0  0  0
 45 46  1  0  0  0
  4  6  1  0  0  0
  6  7  1  0  0  0
  7  8  1  0  0  0
  8  9  1  0  0  0
  9 10  1  0  0  0
 10 11  1  0  0  0
 11 12  1  0  0  0
 12 13  1  0  0  0
 13 14  1  0  0  0
 14 15  1  0  0  0
 15 16  1  0  0  0
 16 17  1  0  0  0
 17 18  1  0  0  0
 18 19  1  0  0  0
 19 20  2  0  0  0
 20 21  1  0  0  0
 21 22  1  0  0  0
 22 23  1  0  0  0
 23 24  1  0  0  0
 24 25  1  0  0  0
 25 26  1  0  0  0
 26 27  1  0  0  0
 27 28  1  0  0  0
 52 53  1  0  0  0
 53 54  1  0  0  0
 54 55  1  0  0  0
 55 56  1  0  0  0
 56 60  1  0  0  0
M  CHG 1  64  -1
M  END
> <minimizedAffinity>
-8.29584

> <CNNscore>
0.1449023634

> <CNNaffinity>
6.9314107895

> <CNN_VS>
1.0043778419

> <CNNaffinity_variance>
0.8359389305

$$$$
/media/chris/experiments/cd1a-new-docking/inputs/ligands/7ryn_ligand.pdb


 68 68  0  0  0  0  0  0  0  0999 V2000
  -38.1072   58.2672   60.8495 C   0  0  0  0  0  0  0  0  0  0  0  0
  -39.5375   58.1429   61.1142 N   0  0  0  0  0  0  0  0  0  0  0  0
  -40.1925   58.3667   58.9721 O   0  0  0  0  0  0  0  0  0  0  0  0
  -40.4674   58.2021   60.1572 C   0  0  0  0  0  0  0  0  0  0  0  0
  -39.8313   58.0089   62.0443 H   0  0  0  0  0  0  0  0  0  0  0  0
  -41.8936   58.0454   60.6226 C   0  0  0  0  0  0  0  0  0  0  0  0
  -42.1454   58.7100   61.9700 C   0  0  0  0  0  0  0  0  0  0  0  0
  -42.7941   57.7717   62.9749 C   0  0  0  0  0  0  0  0  0  0  0  0
  -43.6250   58.4798   64.0321 C   0  0  0  0  0  0  0  0  0  0  0  0
  -44.1867   57.5504   65.0975 C   0  0  0  0  0  0  0  0  0  0  0  0
  -44.4095   58.2188   66.4481 C   0  0  0  0  0  0  0  0  0  0  0  0
  -45.8650   58.5679   66.7310 C   0  0  0  0  0  0  0  0  0  0  0  0
  -46.8681   57.9221   65.7785 C   0  0  0  0  0  0  0  0  0  0  0  0
  -47.3000   58.8249   64.6241 C   0  0  0  0  0  0  0  0  0  0  0  0
  -48.1941   59.9959   65.0310 C   0  0  0  0  0  0  0  0  0  0  0  0
  -48.9833   59.7417   66.3154 C   0  0  0  0  0  0  0  0  0  0  0  0
  -50.3957   59.1943   66.1097 C   0  0  0  0  0  0  0  0  0  0  0  0
  -50.6586   58.5907   64.7276 C   0  0  0  0  0  0  0  0  0  0  0  0
  -51.2195   59.5859   63.7534 C   0  0  0  0  0  0  0  0  0  0  0  0
  -50.8688   59.7177   62.4864 C   0  0  0  0  0  0  0  0  0  0  0  0
  -49.8420   58.8977   61.7657 C   0  0  0  0  0  0  0  0  0  0  0  0
  -50.4375   57.7597   60.9340 C   0  0  0  0  0  0  0  0  0  0  0  0
  -49.6526   57.4690   59.6618 C   0  0  0  0  0  0  0  0  0  0  0  0
  -48.8277   56.1893   59.7391 C   0  0  0  0  0  0  0  0  0  0  0  0
  -47.4439   56.2912   59.1078 C   0  0  0  0  0  0  0  0  0  0  0  0
  -47.4228   55.9643   57.6211 C   0  0  0  0  0  0  0  0  0  0  0  0
  -47.6382   57.1671   56.7164 C   0  0  0  0  0  0  0  0  0  0  0  0
  -46.7702   58.3507   57.0929 C   0  0  0  0  0  0  0  0  0  0  0  0
  -38.2115   56.8463   62.8002 O   0  0  0  0  0  0  0  0  0  0  0  0
  -37.3335   57.3098   61.7702 C   0  0  0  0  0  0  0  0  0  0  0  0
  -38.9862   56.4228   62.3984 H   0  0  0  0  0  0  0  0  0  0  0  0
  -36.1232   57.9709   62.3551 C   0  0  0  0  0  0  0  0  0  0  0  0
  -35.4499   57.5314   63.3998 C   0  0  0  0  0  0  0  0  0  0  0  0
  -34.2365   58.2059   63.9507 C   0  0  0  0  0  0  0  0  0  0  0  0
  -33.0421   58.0458   63.0079 C   0  0  0  0  0  0  0  0  0  0  0  0
  -32.8320   59.2186   62.0638 C   0  0  0  0  0  0  0  0  0  0  0  0
  -31.5074   59.9393   62.2482 C   0  0  0  0  0  0  0  0  0  0  0  0
  -31.6481   61.4204   62.5680 C   0  0  0  0  0  0  0  0  0  0  0  0
  -32.8099   61.7369   63.4972 C   0  0  0  0  0  0  0  0  0  0  0  0
  -32.9483   63.2137   63.8226 C   0  0  0  0  0  0  0  0  0  0  0  0
  -32.2626   63.6297   65.1107 C   0  0  0  0  0  0  0  0  0  0  0  0
  -31.1398   64.6338   64.9137 C   0  0  0  0  0  0  0  0  0  0  0  0
  -31.3831   65.5751   63.7487 C   0  0  0  0  0  0  0  0  0  0  0  0
  -30.1813   65.7781   62.8461 C   0  0  0  0  0  0  0  0  0  0  0  0
  -30.5646   65.9003   61.3843 C   0  0  0  0  0  0  0  0  0  0  0  0
  -31.4387   64.7554   60.9159 C   0  0  0  0  0  0  0  0  0  0  0  0
  -37.6689   59.7061   61.0281 C   0  0  0  0  0  0  0  0  0  0  0  0
  -38.5400   60.3275   61.9798 O   0  0  0  0  0  0  0  0  0  0  0  0
  -36.6658   61.8153   63.4341 O   0  0  0  0  0  0  0  0  0  0  0  0
  -39.9370   61.1867   66.1592 O   0  0  0  0  0  0  0  0  0  0  0  0
  -39.3993   59.4461   63.9325 O   0  0  0  0  0  0  0  0  0  0  0  0
  -38.2587   60.0090   63.3114 C   0  0  0  0  0  0  0  0  0  0  0  0
  -37.8472   61.2897   64.0260 C   0  0  0  0  0  0  0  0  0  0  0  0
  -37.6146   61.0058   65.5047 C   0  0  0  0  0  0  0  0  0  0  0  0
  -38.8171   60.3081   66.1229 C   0  0  0  0  0  0  0  0  0  0  0  0
  -39.1712   59.0715   65.3006 C   0  0  0  0  0  0  0  0  0  0  0  0
  -36.8263   61.9916   62.4938 H   0  0  0  0  0  0  0  0  0  0  0  0
  -39.7142   61.9732   66.6813 H   0  0  0  0  0  0  0  0  0  0  0  0
  -41.2632   59.2614   66.5156 O   0  0  0  0  0  0  0  0  0  0  0  0
  -40.4251   58.3780   65.7792 C   0  0  0  0  0  0  0  0  0  0  0  0
  -42.0569   58.7862   66.8072 H   0  0  0  0  0  0  0  0  0  0  0  0
  -37.4505   62.3260   66.1128 O   0  0  0  0  0  0  0  0  0  0  0  0
  -35.1120   61.7467   66.1644 O   0  0  0  0  0  0  0  0  0  0  0  0
  -36.0259   63.5104   67.7037 O   0  0  0  0  0  0  0  0  0  0  0  0
  -35.8048   63.8784   65.3687 O   0  0  0  0  0  0  0  0  0  0  0  0
  -35.9835   62.8202   66.4696 S   0  0  0  0  0  0  0  0  0  0  0  0
  -35.1986   61.0574   66.8413 H   0  0  0  0  0  0  0  0  0  0  0  0
  -35.7711   63.4420   64.5031 H   0  0  0  0  0  0  0  0  0  0  0  0
  2  1  1  0  0  0
  2  4  1  0  0  0
  2  5  1  0  0  0
 47 48  1  0  0  0
 47  1  1  0  0  0
 48 52  1  0  0  0
  1 30  1  0  0  0
 29 30  1  0  0  0
 29 31  1  0  0  0
 30 32  1  0  0  0
  3  4  2  0  0  0
 32 33  2  0  0  0
 49 53  1  0  0  0
 49 57  1  0  0  0
 33 34  1  0  0  0
 62 54  1  0  0  0
 62 66  1  0  0  0
 34 35  1  0  0  0
 50 55  1  0  0  0
 50 58  1  0  0  0
 35 36  1  0  0  0
 51 52  1  0  0  0
 51 56  1  0  0  0
 36 37  1  0  0  0
 59 60  1  0  0  0
 59 61  1  0  0  0
 37 38  1  0  0  0
 63 66  1  0  0  0
 63 67  1  0  0  0
 38 39  1  0  0  0
 64 66  1  0  0  0
 39 40  1  0  0  0
 65 66  1  0  0  0
 65 68  1  0  0  0
 40 41  1  0  0  0
 41 42  1  0  0  0
 42 43  1  0  0  0
 43 44  1  0  0  0
 44 45  1  0  0  0
 45 46  1  0  0  0
  4  6  1  0  0  0
  6  7  1  0  0  0
  7  8  1  0  0  0
  8  9  1  0  0  0
  9 10  1  0  0  0
 10 11  1  0  0  0
 11 12  1  0  0  0
 12 13  1  0  0  0
 13 14  1  0  0  0
 14 15  1  0  0  0
 15 16  1  0  0  0
 16 17  1  0  0  0
 17 18  1  0  0  0
 18 19  1  0  0  0
 19 20  2  0  0  0
 20 21  1  0  0  0
 21 22  1  0  0  0
 22 23  1  0  0  0
 23 24  1  0  0  0
 24 25  1  0  0  0
 25 26  1  0  0  0
 26 27  1  0  0  0
 27 28  1  0  0  0
 52 53  1  0  0  0
 53 54  1  0  0  0
 54 55  1  0  0  0
 55 56  1  0  0  0
 56 60  1  0  0  0
M  CHG 1  64  -1
M  END
> <minimizedAffinity>
-8.79339

> <CNNscore>
0.1346738786

> <CNNaffinity>
6.8420343399

> <CNN_VS>
0.9214432836

> <CNNaffinity_variance>
1.6823161840

$$$$
/media/chris/experiments/cd1a-new-docking/inputs/ligands/7ryn_ligand.pdb


 68 68  0  0  0  0  0  0  0  0999 V2000
  -36.6720   61.1395   64.3791 C   0  0  0  0  0  0  0  0  0  0  0  0
  -37.8534   60.4094   64.8292 N   0  0  0  0  0  0  0  0  0  0  0  0
  -37.8778   61.2643   66.9116 O   0  0  0  0  0  0  0  0  0  0  0  0
  -38.3637   60.5280   66.0579 C   0  0  0  0  0  0  0  0  0  0  0  0
  -38.2959   59.7993   64.1958 H   0  0  0  0  0  0  0  0  0  0  0  0
  -39.5928   59.6993   66.3367 C   0  0  0  0  0  0  0  0  0  0  0  0
  -40.7884   60.1245   65.4938 C   0  0  0  0  0  0  0  0  0  0  0  0
  -42.1091   59.6197   66.0524 C   0  0  0  0  0  0  0  0  0  0  0  0
  -42.1732   58.1099   66.2135 C   0  0  0  0  0  0  0  0  0  0  0  0
  -43.1059   57.4249   65.2259 C   0  0  0  0  0  0  0  0  0  0  0  0
  -43.9559   58.3874   64.4063 C   0  0  0  0  0  0  0  0  0  0  0  0
  -45.4029   58.4830   64.8726 C   0  0  0  0  0  0  0  0  0  0  0  0
  -45.8431   57.3587   65.8068 C   0  0  0  0  0  0  0  0  0  0  0  0
  -47.2021   57.5927   66.4646 C   0  0  0  0  0  0  0  0  0  0  0  0
  -47.3955   58.9925   67.0472 C   0  0  0  0  0  0  0  0  0  0  0  0
  -48.5778   59.7471   66.4390 C   0  0  0  0  0  0  0  0  0  0  0  0
  -49.7879   58.8809   66.0896 C   0  0  0  0  0  0  0  0  0  0  0  0
  -50.5247   59.2877   64.8107 C   0  0  0  0  0  0  0  0  0  0  0  0
  -49.7305   60.2319   63.9552 C   0  0  0  0  0  0  0  0  0  0  0  0
  -49.5997   60.1697   62.6419 C   0  0  0  0  0  0  0  0  0  0  0  0
  -50.2206   59.1451   61.7414 C   0  0  0  0  0  0  0  0  0  0  0  0
  -49.2950   57.9708   61.4164 C   0  0  0  0  0  0  0  0  0  0  0  0
  -49.6468   57.2701   60.1109 C   0  0  0  0  0  0  0  0  0  0  0  0
  -48.8649   55.9808   59.8865 C   0  0  0  0  0  0  0  0  0  0  0  0
  -47.5548   56.1609   59.1282 C   0  0  0  0  0  0  0  0  0  0  0  0
  -47.6745   55.9150   57.6307 C   0  0  0  0  0  0  0  0  0  0  0  0
  -47.0882   57.0223   56.7695 C   0  0  0  0  0  0  0  0  0  0  0  0
  -47.1565   58.3832   57.4323 C   0  0  0  0  0  0  0  0  0  0  0  0
  -36.5570   62.8395   62.6670 O   0  0  0  0  0  0  0  0  0  0  0  0
  -36.8037   61.4464   62.8787 C   0  0  0  0  0  0  0  0  0  0  0  0
  -35.6802   63.0688   63.0127 H   0  0  0  0  0  0  0  0  0  0  0  0
  -38.1520   61.0554   62.3559 C   0  0  0  0  0  0  0  0  0  0  0  0
  -38.3746   60.4704   61.1957 C   0  0  0  0  0  0  0  0  0  0  0  0
  -39.7312   60.0791   60.7087 C   0  0  0  0  0  0  0  0  0  0  0  0
  -40.7983   60.3585   61.7691 C   0  0  0  0  0  0  0  0  0  0  0  0
  -42.0046   59.4364   61.6972 C   0  0  0  0  0  0  0  0  0  0  0  0
  -41.7533   58.1358   60.9535 C   0  0  0  0  0  0  0  0  0  0  0  0
  -41.5838   56.9265   61.8615 C   0  0  0  0  0  0  0  0  0  0  0  0
  -40.1364   56.6358   62.2278 C   0  0  0  0  0  0  0  0  0  0  0  0
  -39.6829   57.3095   63.5110 C   0  0  0  0  0  0  0  0  0  0  0  0
  -38.1955   57.6055   63.5614 C   0  0  0  0  0  0  0  0  0  0  0  0
  -37.4466   57.2116   62.2998 C   0  0  0  0  0  0  0  0  0  0  0  0
  -36.0638   57.8304   62.2129 C   0  0  0  0  0  0  0  0  0  0  0  0
  -35.0318   57.1869   63.1191 C   0  0  0  0  0  0  0  0  0  0  0  0
  -33.6132   57.5844   62.7608 C   0  0  0  0  0  0  0  0  0  0  0  0
  -33.5340   58.3277   61.4434 C   0  0  0  0  0  0  0  0  0  0  0  0
  -35.4205   60.3444   64.6893 C   0  0  0  0  0  0  0  0  0  0  0  0
  -34.3694   61.2641   65.0055 O   0  0  0  0  0  0  0  0  0  0  0  0
  -34.5467   64.0143   64.5095 O   0  0  0  0  0  0  0  0  0  0  0  0
  -30.4420   63.0048   63.7004 O   0  0  0  0  0  0  0  0  0  0  0  0
  -32.5825   61.0878   63.5549 O   0  0  0  0  0  0  0  0  0  0  0  0
  -33.7421   61.8269   63.8904 C   0  0  0  0  0  0  0  0  0  0  0  0
  -33.3708   63.2639   64.2333 C   0  0  0  0  0  0  0  0  0  0  0  0
  -32.6050   63.8912   63.0753 C   0  0  0  0  0  0  0  0  0  0  0  0
  -31.4228   63.0240   62.6683 C   0  0  0  0  0  0  0  0  0  0  0  0
  -31.9008   61.5995   62.3984 C   0  0  0  0  0  0  0  0  0  0  0  0
  -35.0252   63.6054   65.2476 H   0  0  0  0  0  0  0  0  0  0  0  0
  -30.1369   63.9091   63.8735 H   0  0  0  0  0  0  0  0  0  0  0  0
  -30.3779   60.7120   60.7306 O   0  0  0  0  0  0  0  0  0  0  0  0
  -30.7729   60.6411   62.0958 C   0  0  0  0  0  0  0  0  0  0  0  0
  -29.6543   60.0862   60.5704 H   0  0  0  0  0  0  0  0  0  0  0  0
  -32.1169   65.1654   63.6024 O   0  0  0  0  0  0  0  0  0  0  0  0
  -32.8276   66.0449   61.4746 O   0  0  0  0  0  0  0  0  0  0  0  0
  -30.9267   67.1096   62.7269 O   0  0  0  0  0  0  0  0  0  0  0  0
  -33.1745   67.2950   63.4681 O   0  0  0  0  0  0  0  0  0  0  0  0
  -32.1748   66.4467   62.6651 S   0  0  0  0  0  0  0  0  0  0  0  0
  -32.2236   65.5053   60.9409 H   0  0  0  0  0  0  0  0  0  0  0  0
  -34.0468   66.8711   63.4493 H   0  0  0  0  0  0  0  0  0  0  0  0
  2  1  1  0  0  0
  2  4  1  0  0  0
  2  5  1  0  0  0
 47 48  1  0  0  0
 47  1  1  0  0  0
 48 52  1  0  0  0
  1 30  1  0  0  0
 29 30  1  0  0  0
 29 31  1  0  0  0
 30 32  1  0  0  0
  3  4  2  0  0  0
 32 33  2  0  0  0
 49 53  1  0  0  0
 49 57  1  0  0  0
 33 34  1  0  0  0
 62 54  1  0  0  0
 62 66  1  0  0  0
 34 35  1  0  0  0
 50 55  1  0  0  0
 50 58  1  0  0  0
 35 36  1  0  0  0
 51 52  1  0  0  0
 51 56  1  0  0  0
 36 37  1  0  0  0
 59 60  1  0  0  0
 59 61  1  0  0  0
 37 38  1  0  0  0
 63 66  1  0  0  0
 63 67  1  0  0  0
 38 39  1  0  0  0
 64 66  1  0  0  0
 39 40  1  0  0  0
 65 66  1  0  0  0
 65 68  1  0  0  0
 40 41  1  0  0  0
 41 42  1  0  0  0
 42 43  1  0  0  0
 43 44  1  0  0  0
 44 45  1  0  0  0
 45 46  1  0  0  0
  4  6  1  0  0  0
  6  7  1  0  0  0
  7  8  1  0  0  0
  8  9  1  0  0  0
  9 10  1  0  0  0
 10 11  1  0  0  0
 11 12  1  0  0  0
 12 13  1  0  0  0
 13 14  1  0  0  0
 14 15  1  0  0  0
 15 16  1  0  0  0
 16 17  1  0  0  0
 17 18  1  0  0  0
 18 19  1  0  0  0
 19 20  2  0  0  0
 20 21  1  0  0  0
 21 22  1  0  0  0
 22 23  1  0  0  0
 23 24  1  0  0  0
 24 25  1  0  0  0
 25 26  1  0  0  0
 26 27  1  0  0  0
 27 28  1  0  0  0
 52 53  1  0  0  0
 53 54  1  0  0  0
 54 55  1  0  0  0
 55 56  1  0  0  0
 56 60  1  0  0  0
M  CHG 1  64  -1
M  END
> <minimizedAffinity>
-8.57949

> <CNNscore>
0.1328138113

> <CNNaffinity>
7.2802023888

> <CNN_VS>
0.9669114351

> <CNNaffinity_variance>
1.3114058971

$$$$
/media/chris/experiments/cd1a-new-docking/inputs/ligands/7ryn_ligand.pdb


 68 68  0  0  0  0  0  0  0  0999 V2000
  -33.6633   60.9200   63.1415 C   0  0  0  0  0  0  0  0  0  0  0  0
  -35.0051   61.2033   63.6420 N   0  0  0  0  0  0  0  0  0  0  0  0
  -34.5153   60.8886   65.8165 O   0  0  0  0  0  0  0  0  0  0  0  0
  -35.3266   61.1658   64.9379 C   0  0  0  0  0  0  0  0  0  0  0  0
  -35.7080   61.4333   62.9921 H   0  0  0  0  0  0  0  0  0  0  0  0
  -36.7620   61.4956   65.2638 C   0  0  0  0  0  0  0  0  0  0  0  0
  -37.6666   60.2705   65.2260 C   0  0  0  0  0  0  0  0  0  0  0  0
  -38.7957   60.3435   66.2413 C   0  0  0  0  0  0  0  0  0  0  0  0
  -40.0558   59.6083   65.8155 C   0  0  0  0  0  0  0  0  0  0  0  0
  -41.3435   60.3243   66.1945 C   0  0  0  0  0  0  0  0  0  0  0  0
  -42.2562   59.5161   67.1080 C   0  0  0  0  0  0  0  0  0  0  0  0
  -42.3891   58.0521   66.7087 C   0  0  0  0  0  0  0  0  0  0  0  0
  -43.7643   57.6642   66.1715 C   0  0  0  0  0  0  0  0  0  0  0  0
  -44.8151   58.7661   66.2978 C   0  0  0  0  0  0  0  0  0  0  0  0
  -46.1049   58.3394   66.9982 C   0  0  0  0  0  0  0  0  0  0  0  0
  -46.9406   57.3504   66.1855 C   0  0  0  0  0  0  0  0  0  0  0  0
  -48.2162   57.9300   65.5742 C   0  0  0  0  0  0  0  0  0  0  0  0
  -48.4331   59.4237   65.8302 C   0  0  0  0  0  0  0  0  0  0  0  0
  -48.3172   60.2520   64.5834 C   0  0  0  0  0  0  0  0  0  0  0  0
  -49.2437   60.3899   63.6515 C   0  0  0  0  0  0  0  0  0  0  0  0
  -50.5985   59.7491   63.6533 C   0  0  0  0  0  0  0  0  0  0  0  0
  -50.8477   58.8351   62.4517 C   0  0  0  0  0  0  0  0  0  0  0  0
  -49.8158   59.0017   61.3442 C   0  0  0  0  0  0  0  0  0  0  0  0
  -50.0282   58.0509   60.1715 C   0  0  0  0  0  0  0  0  0  0  0  0
  -49.1751   56.7885   60.2200 C   0  0  0  0  0  0  0  0  0  0  0  0
  -48.2892   56.5999   58.9964 C   0  0  0  0  0  0  0  0  0  0  0  0
  -47.8134   57.8993   58.3666 C   0  0  0  0  0  0  0  0  0  0  0  0
  -47.3613   57.7273   56.9305 C   0  0  0  0  0  0  0  0  0  0  0  0
  -32.0535   59.1517   62.8000 O   0  0  0  0  0  0  0  0  0  0  0  0
  -33.3604   59.4229   63.3145 C   0  0  0  0  0  0  0  0  0  0  0  0
  -31.4046   59.7121   63.2538 H   0  0  0  0  0  0  0  0  0  0  0  0
  -34.3906   58.5736   62.6352 C   0  0  0  0  0  0  0  0  0  0  0  0
  -35.3693   57.9355   63.2459 C   0  0  0  0  0  0  0  0  0  0  0  0
  -36.3910   57.1075   62.5379 C   0  0  0  0  0  0  0  0  0  0  0  0
  -37.7876   57.7160   62.6809 C   0  0  0  0  0  0  0  0  0  0  0  0
  -38.0174   58.9550   61.8307 C   0  0  0  0  0  0  0  0  0  0  0  0
  -38.3486   58.6625   60.3771 C   0  0  0  0  0  0  0  0  0  0  0  0
  -39.7077   59.1849   59.9350 C   0  0  0  0  0  0  0  0  0  0  0  0
  -40.7238   58.0871   59.6596 C   0  0  0  0  0  0  0  0  0  0  0  0
  -41.0178   57.2095   60.8636 C   0  0  0  0  0  0  0  0  0  0  0  0
  -42.3488   57.5016   61.5311 C   0  0  0  0  0  0  0  0  0  0  0  0
  -42.2219   58.0677   62.9351 C   0  0  0  0  0  0  0  0  0  0  0  0
  -42.7140   59.4989   63.0446 C   0  0  0  0  0  0  0  0  0  0  0  0
  -41.7479   60.5362   62.5051 C   0  0  0  0  0  0  0  0  0  0  0  0
  -42.4208   61.5366   61.5860 C   0  0  0  0  0  0  0  0  0  0  0  0
  -43.2405   62.5607   62.3435 C   0  0  0  0  0  0  0  0  0  0  0  0
  -32.6488   61.7914   63.8527 C   0  0  0  0  0  0  0  0  0  0  0  0
  -31.5691   62.0547   62.9496 O   0  0  0  0  0  0  0  0  0  0  0  0
  -32.9266   63.3878   60.8951 O   0  0  0  0  0  0  0  0  0  0  0  0
  -32.9740   66.1271   64.2141 O   0  0  0  0  0  0  0  0  0  0  0  0
  -30.9853   64.0701   63.9116 O   0  0  0  0  0  0  0  0  0  0  0  0
  -31.3379   63.4121   62.7090 C   0  0  0  0  0  0  0  0  0  0  0  0
  -32.6136   64.0131   62.1333 C   0  0  0  0  0  0  0  0  0  0  0  0
  -32.4361   65.5134   61.9362 C   0  0  0  0  0  0  0  0  0  0  0  0
  -31.9582   66.1801   63.2177 C   0  0  0  0  0  0  0  0  0  0  0  0
  -30.7089   65.4683   63.7309 C   0  0  0  0  0  0  0  0  0  0  0  0
  -33.0370   62.4341   61.0334 H   0  0  0  0  0  0  0  0  0  0  0  0
  -33.7687   66.5789   63.8900 H   0  0  0  0  0  0  0  0  0  0  0  0
  -30.8031   65.2749   66.1480 O   0  0  0  0  0  0  0  0  0  0  0  0
  -30.2293   65.9951   65.0631 C   0  0  0  0  0  0  0  0  0  0  0  0
  -30.4754   65.6372   66.9860 H   0  0  0  0  0  0  0  0  0  0  0  0
  -33.7732   66.0026   61.6010 O   0  0  0  0  0  0  0  0  0  0  0  0
  -34.7443   64.4057   63.1220 O   0  0  0  0  0  0  0  0  0  0  0  0
  -35.4082   64.4293   60.6984 O   0  0  0  0  0  0  0  0  0  0  0  0
  -36.0747   66.1465   62.1962 O   0  0  0  0  0  0  0  0  0  0  0  0
  -35.0212   65.0664   61.9006 S   0  0  0  0  0  0  0  0  0  0  0  0
  -34.0804   63.7145   62.9725 H   0  0  0  0  0  0  0  0  0  0  0  0
  -35.8431   66.6080   63.0174 H   0  0  0  0  0  0  0  0  0  0  0  0
  2  1  1  0  0  0
  2  4  1  0  0  0
  2  5  1  0  0  0
 47 48  1  0  0  0
 47  1  1  0  0  0
 48 52  1  0  0  0
  1 30  1  0  0  0
 29 30  1  0  0  0
 29 31  1  0  0  0
 30 32  1  0  0  0
  3  4  2  0  0  0
 32 33  2  0  0  0
 49 53  1  0  0  0
 49 57  1  0  0  0
 33 34  1  0  0  0
 62 54  1  0  0  0
 62 66  1  0  0  0
 34 35  1  0  0  0
 50 55  1  0  0  0
 50 58  1  0  0  0
 35 36  1  0  0  0
 51 52  1  0  0  0
 51 56  1  0  0  0
 36 37  1  0  0  0
 59 60  1  0  0  0
 59 61  1  0  0  0
 37 38  1  0  0  0
 63 66  1  0  0  0
 63 67  1  0  0  0
 38 39  1  0  0  0
 64 66  1  0  0  0
 39 40  1  0  0  0
 65 66  1  0  0  0
 65 68  1  0  0  0
 40 41  1  0  0  0
 41 42  1  0  0  0
 42 43  1  0  0  0
 43 44  1  0  0  0
 44 45  1  0  0  0
 45 46  1  0  0  0
  4  6  1  0  0  0
  6  7  1  0  0  0
  7  8  1  0  0  0
  8  9  1  0  0  0
  9 10  1  0  0  0
 10 11  1  0  0  0
 11 12  1  0  0  0
 12 13  1  0  0  0
 13 14  1  0  0  0
 14 15  1  0  0  0
 15 16  1  0  0  0
 16 17  1  0  0  0
 17 18  1  0  0  0
 18 19  1  0  0  0
 19 20  2  0  0  0
 20 21  1  0  0  0
 21 22  1  0  0  0
 22 23  1  0  0  0
 23 24  1  0  0  0
 24 25  1  0  0  0
 25 26  1  0  0  0
 26 27  1  0  0  0
 27 28  1  0  0  0
 52 53  1  0  0  0
 53 54  1  0  0  0
 54 55  1  0  0  0
 55 56  1  0  0  0
 56 60  1  0  0  0
M  CHG 1  64  -1
M  END
> <minimizedAffinity>
-9.36089

> <CNNscore>
0.1282889992

> <CNNaffinity>
7.0634355545

> <CNN_VS>
0.9061610699

> <CNNaffinity_variance>
2.1167511940

$$$$
/media/chris/experiments/cd1a-new-docking/inputs/ligands/7ryn_ligand.pdb


 68 68  0  0  0  0  0  0  0  0999 V2000
  -34.1417   59.9679   63.1496 C   0  0  0  0  0  0  0  0  0  0  0  0
  -35.0539   60.2604   64.2513 N   0  0  0  0  0  0  0  0  0  0  0  0
  -36.4301   61.5927   63.0686 O   0  0  0  0  0  0  0  0  0  0  0  0
  -36.1251   61.0484   64.1258 C   0  0  0  0  0  0  0  0  0  0  0  0
  -34.8703   59.8569   65.1303 H   0  0  0  0  0  0  0  0  0  0  0  0
  -36.9535   61.2268   65.3737 C   0  0  0  0  0  0  0  0  0  0  0  0
  -37.8157   60.0095   65.6823 C   0  0  0  0  0  0  0  0  0  0  0  0
  -39.1812   60.0740   65.0172 C   0  0  0  0  0  0  0  0  0  0  0  0
  -40.2781   59.3623   65.7916 C   0  0  0  0  0  0  0  0  0  0  0  0
  -41.3181   60.2995   66.3869 C   0  0  0  0  0  0  0  0  0  0  0  0
  -42.4634   59.5857   67.0937 C   0  0  0  0  0  0  0  0  0  0  0  0
  -42.5704   58.1046   66.7541 C   0  0  0  0  0  0  0  0  0  0  0  0
  -43.9992   57.5958   66.5810 C   0  0  0  0  0  0  0  0  0  0  0  0
  -45.0373   58.7034   66.4083 C   0  0  0  0  0  0  0  0  0  0  0  0
  -46.3035   58.5262   67.2460 C   0  0  0  0  0  0  0  0  0  0  0  0
  -47.2429   57.4464   66.7085 C   0  0  0  0  0  0  0  0  0  0  0  0
  -48.1291   57.8818   65.5416 C   0  0  0  0  0  0  0  0  0  0  0  0
  -48.6045   59.3359   65.6001 C   0  0  0  0  0  0  0  0  0  0  0  0
  -48.4270   60.0605   64.2972 C   0  0  0  0  0  0  0  0  0  0  0  0
  -49.3612   60.2617   63.3848 C   0  0  0  0  0  0  0  0  0  0  0  0
  -50.7876   59.8091   63.4685 C   0  0  0  0  0  0  0  0  0  0  0  0
  -51.0423   58.4539   62.8052 C   0  0  0  0  0  0  0  0  0  0  0  0
  -49.8749   57.9707   61.9550 C   0  0  0  0  0  0  0  0  0  0  0  0
  -50.3085   57.3172   60.6476 C   0  0  0  0  0  0  0  0  0  0  0  0
  -49.6227   57.8746   59.4055 C   0  0  0  0  0  0  0  0  0  0  0  0
  -48.1387   57.5450   59.3247 C   0  0  0  0  0  0  0  0  0  0  0  0
  -47.8410   56.1124   58.9116 C   0  0  0  0  0  0  0  0  0  0  0  0
  -47.6226   55.9625   57.4196 C   0  0  0  0  0  0  0  0  0  0  0  0
  -33.1671   58.1462   61.8980 O   0  0  0  0  0  0  0  0  0  0  0  0
  -34.2290   58.4739   62.7987 C   0  0  0  0  0  0  0  0  0  0  0  0
  -32.3167   58.3790   62.3024 H   0  0  0  0  0  0  0  0  0  0  0  0
  -35.5605   58.1274   62.2061 C   0  0  0  0  0  0  0  0  0  0  0  0
  -36.5566   57.5620   62.8588 C   0  0  0  0  0  0  0  0  0  0  0  0
  -37.8791   57.2422   62.2427 C   0  0  0  0  0  0  0  0  0  0  0  0
  -38.1188   58.0828   60.9869 C   0  0  0  0  0  0  0  0  0  0  0  0
  -38.7197   59.4523   61.2592 C   0  0  0  0  0  0  0  0  0  0  0  0
  -39.7994   59.8677   60.2745 C   0  0  0  0  0  0  0  0  0  0  0  0
  -40.3944   58.7112   59.4845 C   0  0  0  0  0  0  0  0  0  0  0  0
  -41.6684   58.1466   60.0941 C   0  0  0  0  0  0  0  0  0  0  0  0
  -41.5068   56.7478   60.6627 C   0  0  0  0  0  0  0  0  0  0  0  0
  -41.5592   56.6867   62.1780 C   0  0  0  0  0  0  0  0  0  0  0  0
  -41.6843   58.0459   62.8447 C   0  0  0  0  0  0  0  0  0  0  0  0
  -43.1192   58.4181   63.1688 C   0  0  0  0  0  0  0  0  0  0  0  0
  -43.3433   59.8990   63.4078 C   0  0  0  0  0  0  0  0  0  0  0  0
  -42.2636   60.7600   62.7822 C   0  0  0  0  0  0  0  0  0  0  0  0
  -42.8324   61.8947   61.9556 C   0  0  0  0  0  0  0  0  0  0  0  0
  -32.7326   60.3843   63.5173 C   0  0  0  0  0  0  0  0  0  0  0  0
  -32.4342   61.6107   62.8409 O   0  0  0  0  0  0  0  0  0  0  0  0
  -30.9471   63.8214   61.9794 O   0  0  0  0  0  0  0  0  0  0  0  0
  -34.3057   65.4976   64.0848 O   0  0  0  0  0  0  0  0  0  0  0  0
  -33.3129   62.8437   64.5833 O   0  0  0  0  0  0  0  0  0  0  0  0
  -32.2238   62.7004   63.6907 C   0  0  0  0  0  0  0  0  0  0  0  0
  -32.0796   63.9489   62.8300 C   0  0  0  0  0  0  0  0  0  0  0  0
  -31.9353   65.1773   63.7195 C   0  0  0  0  0  0  0  0  0  0  0  0
  -33.0642   65.2509   64.7370 C   0  0  0  0  0  0  0  0  0  0  0  0
  -33.1493   63.9339   65.5046 C   0  0  0  0  0  0  0  0  0  0  0  0
  -31.0505   63.0367   61.4187 H   0  0  0  0  0  0  0  0  0  0  0  0
  -34.2537   66.3341   63.5965 H   0  0  0  0  0  0  0  0  0  0  0  0
  -33.9937   63.1493   67.6400 O   0  0  0  0  0  0  0  0  0  0  0  0
  -34.3173   63.8775   66.4610 C   0  0  0  0  0  0  0  0  0  0  0  0
  -34.7628   63.1322   68.2308 H   0  0  0  0  0  0  0  0  0  0  0  0
  -32.0314   66.3117   62.8011 O   0  0  0  0  0  0  0  0  0  0  0  0
  -34.1054   67.2868   62.0567 O   0  0  0  0  0  0  0  0  0  0  0  0
  -33.4781   64.9485   61.3827 O   0  0  0  0  0  0  0  0  0  0  0  0
  -32.3579   66.8484   60.5039 O   0  0  0  0  0  0  0  0  0  0  0  0
  -33.1655   66.2938   61.6889 S   0  0  0  0  0  0  0  0  0  0  0  0
  -34.6348   66.9696   62.8050 H   0  0  0  0  0  0  0  0  0  0  0  0
  -32.1235   67.7736   60.6770 H   0  0  0  0  0  0  0  0  0  0  0  0
  2  1  1  0  0  0
  2  4  1  0  0  0
  2  5  1  0  0  0
 47 48  1  0  0  0
 47  1  1  0  0  0
 48 52  1  0  0  0
  1 30  1  0  0  0
 29 30  1  0  0  0
 29 31  1  0  0  0
 30 32  1  0  0  0
  3  4  2  0  0  0
 32 33  2  0  0  0
 49 53  1  0  0  0
 49 57  1  0  0  0
 33 34  1  0  0  0
 62 54  1  0  0  0
 62 66  1  0  0  0
 34 35  1  0  0  0
 50 55  1  0  0  0
 50 58  1  0  0  0
 35 36  1  0  0  0
 51 52  1  0  0  0
 51 56  1  0  0  0
 36 37  1  0  0  0
 59 60  1  0  0  0
 59 61  1  0  0  0
 37 38  1  0  0  0
 63 66  1  0  0  0
 63 67  1  0  0  0
 38 39  1  0  0  0
 64 66  1  0  0  0
 39 40  1  0  0  0
 65 66  1  0  0  0
 65 68  1  0  0  0
 40 41  1  0  0  0
 41 42  1  0  0  0
 42 43  1  0  0  0
 43 44  1  0  0  0
 44 45  1  0  0  0
 45 46  1  0  0  0
  4  6  1  0  0  0
  6  7  1  0  0  0
  7  8  1  0  0  0
  8  9  1  0  0  0
  9 10  1  0  0  0
 10 11  1  0  0  0
 11 12  1  0  0  0
 12 13  1  0  0  0
 13 14  1  0  0  0
 14 15  1  0  0  0
 15 16  1  0  0  0
 16 17  1  0  0  0
 17 18  1  0  0  0
 18 19  1  0  0  0
 19 20  2  0  0  0
 20 21  1  0  0  0
 21 22  1  0  0  0
 22 23  1  0  0  0
 23 24  1  0  0  0
 24 25  1  0  0  0
 25 26  1  0  0  0
 26 27  1  0  0  0
 27 28  1  0  0  0
 52 53  1  0  0  0
 53 54  1  0  0  0
 54 55  1  0  0  0
 55 56  1  0  0  0
 56 60  1  0  0  0
M  CHG 1  64  -1
M  END
> <minimizedAffinity>
-9.49154

> <CNNscore>
0.1186454594

> <CNNaffinity>
7.2182073593

> <CNN_VS>
0.8564075232

> <CNNaffinity_variance>
1.8437502384

$$$$
/media/chris/experiments/cd1a-new-docking/inputs/ligands/7ryn_ligand.pdb


 68 68  0  0  0  0  0  0  0  0999 V2000
  -38.8171   60.1611   61.3635 C   0  0  0  0  0  0  0  0  0  0  0  0
  -39.9186   59.2400   61.6272 N   0  0  0  0  0  0  0  0  0  0  0  0
  -41.1630   59.8489   59.8528 O   0  0  0  0  0  0  0  0  0  0  0  0
  -41.0039   59.1554   60.8532 C   0  0  0  0  0  0  0  0  0  0  0  0
  -39.8586   58.6522   62.4147 H   0  0  0  0  0  0  0  0  0  0  0  0
  -42.0330   58.1391   61.2814 C   0  0  0  0  0  0  0  0  0  0  0  0
  -41.4471   56.7410   61.4316 C   0  0  0  0  0  0  0  0  0  0  0  0
  -40.9083   56.4777   62.8285 C   0  0  0  0  0  0  0  0  0  0  0  0
  -41.8127   55.6059   63.6837 C   0  0  0  0  0  0  0  0  0  0  0  0
  -42.1442   56.2086   65.0407 C   0  0  0  0  0  0  0  0  0  0  0  0
  -43.4771   56.9449   65.0829 C   0  0  0  0  0  0  0  0  0  0  0  0
  -43.7763   57.6025   66.4239 C   0  0  0  0  0  0  0  0  0  0  0  0
  -45.0989   58.3632   66.4756 C   0  0  0  0  0  0  0  0  0  0  0  0
  -45.6685   58.7145   65.1021 C   0  0  0  0  0  0  0  0  0  0  0  0
  -47.1557   58.4058   64.9311 C   0  0  0  0  0  0  0  0  0  0  0  0
  -47.9600   58.5500   66.2232 C   0  0  0  0  0  0  0  0  0  0  0  0
  -49.1109   59.5541   66.1606 C   0  0  0  0  0  0  0  0  0  0  0  0
  -50.4503   58.9722   65.7010 C   0  0  0  0  0  0  0  0  0  0  0  0
  -51.1137   59.8024   64.6404 C   0  0  0  0  0  0  0  0  0  0  0  0
  -51.0638   59.5862   63.3379 C   0  0  0  0  0  0  0  0  0  0  0  0
  -50.3368   58.4662   62.6572 C   0  0  0  0  0  0  0  0  0  0  0  0
  -51.1581   57.7727   61.5681 C   0  0  0  0  0  0  0  0  0  0  0  0
  -50.4454   57.7113   60.2237 C   0  0  0  0  0  0  0  0  0  0  0  0
  -49.3524   56.6501   60.1664 C   0  0  0  0  0  0  0  0  0  0  0  0
  -48.0070   57.1565   59.6590 C   0  0  0  0  0  0  0  0  0  0  0  0
  -48.1155   58.0904   58.4618 C   0  0  0  0  0  0  0  0  0  0  0  0
  -47.4280   57.5761   57.2070 C   0  0  0  0  0  0  0  0  0  0  0  0
  -47.2448   56.0719   57.2099 C   0  0  0  0  0  0  0  0  0  0  0  0
  -38.2637   58.6785   59.5386 O   0  0  0  0  0  0  0  0  0  0  0  0
  -37.6945   59.4147   60.6251 C   0  0  0  0  0  0  0  0  0  0  0  0
  -38.7466   59.2846   58.9552 H   0  0  0  0  0  0  0  0  0  0  0  0
  -36.9393   58.5088   61.5488 C   0  0  0  0  0  0  0  0  0  0  0  0
  -35.6304   58.3513   61.5535 C   0  0  0  0  0  0  0  0  0  0  0  0
  -34.9048   57.4505   62.4983 C   0  0  0  0  0  0  0  0  0  0  0  0
  -34.4090   58.2220   63.7230 C   0  0  0  0  0  0  0  0  0  0  0  0
  -35.4080   58.2835   64.8671 C   0  0  0  0  0  0  0  0  0  0  0  0
  -36.2149   57.0110   65.0610 C   0  0  0  0  0  0  0  0  0  0  0  0
  -37.7214   57.2231   65.0325 C   0  0  0  0  0  0  0  0  0  0  0  0
  -38.1472   58.6316   65.4175 C   0  0  0  0  0  0  0  0  0  0  0  0
  -39.6517   58.8383   65.4146 C   0  0  0  0  0  0  0  0  0  0  0  0
  -40.0979   60.1407   66.0527 C   0  0  0  0  0  0  0  0  0  0  0  0
  -41.5054   60.5637   65.6684 C   0  0  0  0  0  0  0  0  0  0  0  0
  -41.9843   59.9278   64.3766 C   0  0  0  0  0  0  0  0  0  0  0  0
  -42.9504   60.7823   63.5786 C   0  0  0  0  0  0  0  0  0  0  0  0
  -42.2766   61.9801   62.9383 C   0  0  0  0  0  0  0  0  0  0  0  0
  -43.0286   62.4899   61.7264 C   0  0  0  0  0  0  0  0  0  0  0  0
  -38.3334   60.7772   62.6600 C   0  0  0  0  0  0  0  0  0  0  0  0
  -37.3353   61.7558   62.3489 O   0  0  0  0  0  0  0  0  0  0  0  0
  -35.1701   63.4873   61.9557 O   0  0  0  0  0  0  0  0  0  0  0  0
  -36.6054   64.3885   65.9117 O   0  0  0  0  0  0  0  0  0  0  0  0
  -37.0296   61.8453   64.6351 O   0  0  0  0  0  0  0  0  0  0  0  0
  -36.4073   61.9765   63.3706 C   0  0  0  0  0  0  0  0  0  0  0  0
  -35.8461   63.3826   63.2024 C   0  0  0  0  0  0  0  0  0  0  0  0
  -34.8925   63.6999   64.3475 C   0  0  0  0  0  0  0  0  0  0  0  0
  -35.5548   63.4521   65.6947 C   0  0  0  0  0  0  0  0  0  0  0  0
  -36.1236   62.0359   65.7337 C   0  0  0  0  0  0  0  0  0  0  0  0
  -35.7868   63.2831   61.2354 H   0  0  0  0  0  0  0  0  0  0  0  0
  -36.2460   65.2890   65.8874 H   0  0  0  0  0  0  0  0  0  0  0  0
  -36.5125   62.6024   68.0611 O   0  0  0  0  0  0  0  0  0  0  0  0
  -36.8989   61.7410   66.9963 C   0  0  0  0  0  0  0  0  0  0  0  0
  -37.0276   62.3872   68.8542 H   0  0  0  0  0  0  0  0  0  0  0  0
  -34.6018   65.1261   64.2016 O   0  0  0  0  0  0  0  0  0  0  0  0
  -33.7838   66.3519   62.2951 O   0  0  0  0  0  0  0  0  0  0  0  0
  -32.4613   64.4392   63.2479 O   0  0  0  0  0  0  0  0  0  0  0  0
  -32.6721   66.5088   64.3920 O   0  0  0  0  0  0  0  0  0  0  0  0
  -33.3183   65.5579   63.3711 S   0  0  0  0  0  0  0  0  0  0  0  0
  -34.1993   65.7823   61.6290 H   0  0  0  0  0  0  0  0  0  0  0  0
  -33.2330   67.2922   64.5044 H   0  0  0  0  0  0  0  0  0  0  0  0
  2  1  1  0  0  0
  2  4  1  0  0  0
  2  5  1  0  0  0
 47 48  1  0  0  0
 47  1  1  0  0  0
 48 52  1  0  0  0
  1 30  1  0  0  0
 29 30  1  0  0  0
 29 31  1  0  0  0
 30 32  1  0  0  0
  3  4  2  0  0  0
 32 33  2  0  0  0
 49 53  1  0  0  0
 49 57  1  0  0  0
 33 34  1  0  0  0
 62 54  1  0  0  0
 62 66  1  0  0  0
 34 35  1  0  0  0
 50 55  1  0  0  0
 50 58  1  0  0  0
 35 36  1  0  0  0
 51 52  1  0  0  0
 51 56  1  0  0  0
 36 37  1  0  0  0
 59 60  1  0  0  0
 59 61  1  0  0  0
 37 38  1  0  0  0
 63 66  1  0  0  0
 63 67  1  0  0  0
 38 39  1  0  0  0
 64 66  1  0  0  0
 39 40  1  0  0  0
 65 66  1  0  0  0
 65 68  1  0  0  0
 40 41  1  0  0  0
 41 42  1  0  0  0
 42 43  1  0  0  0
 43 44  1  0  0  0
 44 45  1  0  0  0
 45 46  1  0  0  0
  4  6  1  0  0  0
  6  7  1  0  0  0
  7  8  1  0  0  0
  8  9  1  0  0  0
  9 10  1  0  0  0
 10 11  1  0  0  0
 11 12  1  0  0  0
 12 13  1  0  0  0
 13 14  1  0  0  0
 14 15  1  0  0  0
 15 16  1  0  0  0
 16 17  1  0  0  0
 17 18  1  0  0  0
 18 19  1  0  0  0
 19 20  2  0  0  0
 20 21  1  0  0  0
 21 22  1  0  0  0
 22 23  1  0  0  0
 23 24  1  0  0  0
 24 25  1  0  0  0
 25 26  1  0  0  0
 26 27  1  0  0  0
 27 28  1  0  0  0
 52 53  1  0  0  0
 53 54  1  0  0  0
 54 55  1  0  0  0
 55 56  1  0  0  0
 56 60  1  0  0  0
M  CHG 1  64  -1
M  END
> <minimizedAffinity>
-8.98226

> <CNNscore>
0.1133748144

> <CNNaffinity>
7.5191092491

> <CNN_VS>
0.8524776101

> <CNNaffinity_variance>
1.7809747458

$$$$
