/media/chris/experiments/cd1a-new-docking/inputs/ligands/7ryn_ligand.pdb


 68 68  0  0  0  0  0  0  0  0999 V2000
  -33.4546   62.4004   63.2864 C   0  0  0  0  0  0  0  0  0  0  0  0
  -34.5489   62.1018   64.2055 N   0  0  0  0  0  0  0  0  0  0  0  0
  -35.6056   64.0744   63.9604 O   0  0  0  0  0  0  0  0  0  0  0  0
  -35.5374   62.9600   64.4708 C   0  0  0  0  0  0  0  0  0  0  0  0
  -34.5586   61.2244   64.6519 H   0  0  0  0  0  0  0  0  0  0  0  0
  -36.5833   62.4705   65.4413 C   0  0  0  0  0  0  0  0  0  0  0  0
  -36.7931   60.9636   65.3642 C   0  0  0  0  0  0  0  0  0  0  0  0
  -38.1187   60.5246   65.9653 C   0  0  0  0  0  0  0  0  0  0  0  0
  -39.1943   60.2266   64.9339 C   0  0  0  0  0  0  0  0  0  0  0  0
  -40.6045   60.2047   65.5044 C   0  0  0  0  0  0  0  0  0  0  0  0
  -41.1224   58.8079   65.8233 C   0  0  0  0  0  0  0  0  0  0  0  0
  -42.3175   58.7937   66.7675 C   0  0  0  0  0  0  0  0  0  0  0  0
  -43.4751   57.9092   66.3111 C   0  0  0  0  0  0  0  0  0  0  0  0
  -44.0146   58.2570   64.9247 C   0  0  0  0  0  0  0  0  0  0  0  0
  -45.5319   58.4292   64.8561 C   0  0  0  0  0  0  0  0  0  0  0  0
  -46.1802   58.6653   66.2204 C   0  0  0  0  0  0  0  0  0  0  0  0
  -47.0220   57.5030   66.7469 C   0  0  0  0  0  0  0  0  0  0  0  0
  -48.1728   57.0742   65.8327 C   0  0  0  0  0  0  0  0  0  0  0  0
  -49.2920   58.0743   65.7957 C   0  0  0  0  0  0  0  0  0  0  0  0
  -49.6963   58.7513   64.7355 C   0  0  0  0  0  0  0  0  0  0  0  0
  -49.1202   58.6549   63.3553 C   0  0  0  0  0  0  0  0  0  0  0  0
  -50.1680   58.4071   62.2680 C   0  0  0  0  0  0  0  0  0  0  0  0
  -49.7200   58.8616   60.8852 C   0  0  0  0  0  0  0  0  0  0  0  0
  -49.9306   57.8072   59.8043 C   0  0  0  0  0  0  0  0  0  0  0  0
  -49.1179   56.5323   59.9993 C   0  0  0  0  0  0  0  0  0  0  0  0
  -47.9497   56.3965   59.0329 C   0  0  0  0  0  0  0  0  0  0  0  0
  -48.2098   56.9851   57.6554 C   0  0  0  0  0  0  0  0  0  0  0  0
  -47.1979   58.0437   57.2662 C   0  0  0  0  0  0  0  0  0  0  0  0
  -32.0899   61.2389   61.6668 O   0  0  0  0  0  0  0  0  0  0  0  0
  -32.7006   61.1030   62.9533 C   0  0  0  0  0  0  0  0  0  0  0  0
  -31.5057   62.0131   61.6664 H   0  0  0  0  0  0  0  0  0  0  0  0
  -33.6119   59.9147   62.9910 C   0  0  0  0  0  0  0  0  0  0  0  0
  -33.2803   58.6931   62.6229 C   0  0  0  0  0  0  0  0  0  0  0  0
  -34.2084   57.5247   62.6866 C   0  0  0  0  0  0  0  0  0  0  0  0
  -35.1458   57.6317   63.8911 C   0  0  0  0  0  0  0  0  0  0  0  0
  -36.6084   57.8292   63.5268 C   0  0  0  0  0  0  0  0  0  0  0  0
  -36.8887   57.8076   62.0339 C   0  0  0  0  0  0  0  0  0  0  0  0
  -38.3561   57.9956   61.6772 C   0  0  0  0  0  0  0  0  0  0  0  0
  -39.3096   57.2580   62.6045 C   0  0  0  0  0  0  0  0  0  0  0  0
  -40.5784   56.7782   61.9219 C   0  0  0  0  0  0  0  0  0  0  0  0
  -41.6818   57.8182   61.8666 C   0  0  0  0  0  0  0  0  0  0  0  0
  -41.7579   58.5651   60.5460 C   0  0  0  0  0  0  0  0  0  0  0  0
  -41.4977   60.0530   60.6899 C   0  0  0  0  0  0  0  0  0  0  0  0
  -41.4457   60.5439   62.1241 C   0  0  0  0  0  0  0  0  0  0  0  0
  -42.7622   61.1387   62.5843 C   0  0  0  0  0  0  0  0  0  0  0  0
  -43.0811   62.4477   61.8921 C   0  0  0  0  0  0  0  0  0  0  0  0
  -32.5427   63.4498   63.8878 C   0  0  0  0  0  0  0  0  0  0  0  0
  -31.2394   63.2959   63.3148 O   0  0  0  0  0  0  0  0  0  0  0  0
  -30.8589   63.8099   60.5886 O   0  0  0  0  0  0  0  0  0  0  0  0
  -32.2876   67.5240   62.2276 O   0  0  0  0  0  0  0  0  0  0  0  0
  -30.9423   65.5312   63.8078 O   0  0  0  0  0  0  0  0  0  0  0  0
  -30.6515   64.4916   62.8924 C   0  0  0  0  0  0  0  0  0  0  0  0
  -31.2080   64.8302   61.5154 C   0  0  0  0  0  0  0  0  0  0  0  0
  -30.6600   66.1739   61.0515 C   0  0  0  0  0  0  0  0  0  0  0  0
  -30.8958   67.2516   62.0995 C   0  0  0  0  0  0  0  0  0  0  0  0
  -30.3456   66.7869   63.4456 C   0  0  0  0  0  0  0  0  0  0  0  0
  -31.2129   62.9602   60.8946 H   0  0  0  0  0  0  0  0  0  0  0  0
  -32.6392   67.8195   61.3732 H   0  0  0  0  0  0  0  0  0  0  0  0
  -30.5718   69.1030   64.1335 O   0  0  0  0  0  0  0  0  0  0  0  0
  -30.6369   67.7508   64.5718 C   0  0  0  0  0  0  0  0  0  0  0  0
  -30.7632   69.6939   64.8784 H   0  0  0  0  0  0  0  0  0  0  0  0
  -31.4264   66.4892   59.8463 O   0  0  0  0  0  0  0  0  0  0  0  0
  -29.4714   67.5429   58.9109 O   0  0  0  0  0  0  0  0  0  0  0  0
  -31.5620   67.2826   57.5408 O   0  0  0  0  0  0  0  0  0  0  0  0
  -30.1961   65.4250   58.1067 O   0  0  0  0  0  0  0  0  0  0  0  0
  -30.6355   66.8410   58.5142 S   0  0  0  0  0  0  0  0  0  0  0  0
  -29.7121   68.4445   59.1758 H   0  0  0  0  0  0  0  0  0  0  0  0
  -29.5573   65.0861   58.7532 H   0  0  0  0  0  0  0  0  0  0  0  0
  2  1  1  0  0  0
  2  4  1  0  0  0
  2  5  1  0  0  0
 47 48  1  0  0  0
 47  1  1  0  0  0
 48 52  1  0  0  0
  1 30  1  0  0  0
 29 30  1  0  0  0
 29 31  1  0  0  0
 30 32  1  0  0  0
  3  4  2  0  0  0
 32 33  2  0  0  0
 49 53  1  0  0  0
 49 57  1  0  0  0
 33 34  1  0  0  0
 62 54  1  0  0  0
 62 66  1  0  0  0
 34 35  1  0  0  0
 50 55  1  0  0  0
 50 58  1  0  0  0
 35 36  1  0  0  0
 51 52  1  0  0  0
 51 56  1  0  0  0
 36 37  1  0  0  0
 59 60  1  0  0  0
 59 61  1  0  0  0
 37 38  1  0  0  0
 63 66  1  0  0  0
 63 67  1  0  0  0
 38 39  1  0  0  0
 64 66  1  0  0  0
 39 40  1  0  0  0
 65 66  1  0  0  0
 65 68  1  0  0  0
 40 41  1  0  0  0
 41 42  1  0  0  0
 42 43  1  0  0  0
 43 44  1  0  0  0
 44 45  1  0  0  0
 45 46  1  0  0  0
  4  6  1  0  0  0
  6  7  1  0  0  0
  7  8  1  0  0  0
  8  9  1  0  0  0
  9 10  1  0  0  0
 10 11  1  0  0  0
 11 12  1  0  0  0
 12 13  1  0  0  0
 13 14  1  0  0  0
 14 15  1  0  0  0
 15 16  1  0  0  0
 16 17  1  0  0  0
 17 18  1  0  0  0
 18 19  1  0  0  0
 19 20  2  0  0  0
 20 21  1  0  0  0
 21 22  1  0  0  0
 22 23  1  0  0  0
 23 24  1  0  0  0
 24 25  1  0  0  0
 25 26  1  0  0  0
 26 27  1  0  0  0
 27 28  1  0  0  0
 52 53  1  0  0  0
 53 54  1  0  0  0
 54 55  1  0  0  0
 55 56  1  0  0  0
 56 60  1  0  0  0
M  CHG 1  64  -1
M  END
> <minimizedAffinity>
-9.06466

> <CNNscore>
0.3878049850

> <CNNaffinity>
7.0484099388

> <CNN_VS>
2.7334084511

> <CNNaffinity_variance>
1.3224598169

$$$$
/media/chris/experiments/cd1a-new-docking/inputs/ligands/7ryn_ligand.pdb


 68 68  0  0  0  0  0  0  0  0999 V2000
  -37.2288   59.7959   62.7057 C   0  0  0  0  0  0  0  0  0  0  0  0
  -38.5410   59.9340   62.0811 N   0  0  0  0  0  0  0  0  0  0  0  0
  -37.8548   59.4664   59.9887 O   0  0  0  0  0  0  0  0  0  0  0  0
  -38.7520   59.7590   60.7738 C   0  0  0  0  0  0  0  0  0  0  0  0
  -39.3084   60.1677   62.6517 H   0  0  0  0  0  0  0  0  0  0  0  0
  -40.1774   59.9367   60.3135 C   0  0  0  0  0  0  0  0  0  0  0  0
  -41.1734   59.1930   61.1942 C   0  0  0  0  0  0  0  0  0  0  0  0
  -41.5447   57.8284   60.6362 C   0  0  0  0  0  0  0  0  0  0  0  0
  -41.3852   56.6915   61.6320 C   0  0  0  0  0  0  0  0  0  0  0  0
  -41.1637   57.1546   63.0642 C   0  0  0  0  0  0  0  0  0  0  0  0
  -41.7499   56.2206   64.1152 C   0  0  0  0  0  0  0  0  0  0  0  0
  -43.0568   56.7160   64.7210 C   0  0  0  0  0  0  0  0  0  0  0  0
  -43.6582   57.9325   64.0218 C   0  0  0  0  0  0  0  0  0  0  0  0
  -44.9980   58.3837   64.6009 C   0  0  0  0  0  0  0  0  0  0  0  0
  -45.2857   57.8745   66.0131 C   0  0  0  0  0  0  0  0  0  0  0  0
  -46.3271   58.7079   66.7604 C   0  0  0  0  0  0  0  0  0  0  0  0
  -47.7744   58.4754   66.3271 C   0  0  0  0  0  0  0  0  0  0  0  0
  -48.6169   59.7458   66.1840 C   0  0  0  0  0  0  0  0  0  0  0  0
  -48.4478   60.4104   64.8485 C   0  0  0  0  0  0  0  0  0  0  0  0
  -49.3713   60.5170   63.9095 C   0  0  0  0  0  0  0  0  0  0  0  0
  -50.7749   59.9979   63.9901 C   0  0  0  0  0  0  0  0  0  0  0  0
  -51.1122   58.9679   62.9100 C   0  0  0  0  0  0  0  0  0  0  0  0
  -49.9371   58.0699   62.5463 C   0  0  0  0  0  0  0  0  0  0  0  0
  -50.0197   57.5094   61.1309 C   0  0  0  0  0  0  0  0  0  0  0  0
  -49.3840   58.3933   60.0638 C   0  0  0  0  0  0  0  0  0  0  0  0
  -49.0350   57.6512   58.7814 C   0  0  0  0  0  0  0  0  0  0  0  0
  -47.6910   58.0378   58.1848 C   0  0  0  0  0  0  0  0  0  0  0  0
  -47.4907   57.4968   56.7837 C   0  0  0  0  0  0  0  0  0  0  0  0
  -37.5532   58.5119   64.7259 O   0  0  0  0  0  0  0  0  0  0  0  0
  -37.1218   58.4117   63.3657 C   0  0  0  0  0  0  0  0  0  0  0  0
  -38.4571   58.8625   64.7534 H   0  0  0  0  0  0  0  0  0  0  0  0
  -35.7265   57.8725   63.2844 C   0  0  0  0  0  0  0  0  0  0  0  0
  -34.8455   58.1863   62.3552 C   0  0  0  0  0  0  0  0  0  0  0  0
  -33.4553   57.6423   62.3100 C   0  0  0  0  0  0  0  0  0  0  0  0
  -32.5815   58.2747   63.3952 C   0  0  0  0  0  0  0  0  0  0  0  0
  -32.1768   59.7119   63.1103 C   0  0  0  0  0  0  0  0  0  0  0  0
  -31.9393   60.0145   61.6406 C   0  0  0  0  0  0  0  0  0  0  0  0
  -30.8636   61.0614   61.3904 C   0  0  0  0  0  0  0  0  0  0  0  0
  -29.5844   60.8232   62.1779 C   0  0  0  0  0  0  0  0  0  0  0  0
  -29.1292   62.0267   62.9843 C   0  0  0  0  0  0  0  0  0  0  0  0
  -29.9818   63.2653   62.7813 C   0  0  0  0  0  0  0  0  0  0  0  0
  -29.2625   64.5659   63.0952 C   0  0  0  0  0  0  0  0  0  0  0  0
  -29.3525   65.5803   61.9704 C   0  0  0  0  0  0  0  0  0  0  0  0
  -29.7420   64.9931   60.6272 C   0  0  0  0  0  0  0  0  0  0  0  0
  -30.6795   65.8940   59.8474 C   0  0  0  0  0  0  0  0  0  0  0  0
  -31.2038   67.0456   60.6798 C   0  0  0  0  0  0  0  0  0  0  0  0
  -37.0052   60.9180   63.6983 C   0  0  0  0  0  0  0  0  0  0  0  0
  -35.6687   61.4052   63.5340 O   0  0  0  0  0  0  0  0  0  0  0  0
  -34.1575   62.1627   65.7664 O   0  0  0  0  0  0  0  0  0  0  0  0
  -33.0100   64.9172   62.6651 O   0  0  0  0  0  0  0  0  0  0  0  0
  -35.5399   63.5471   62.6832 O   0  0  0  0  0  0  0  0  0  0  0  0
  -35.5045   62.7554   63.8561 C   0  0  0  0  0  0  0  0  0  0  0  0
  -34.1621   62.9130   64.5584 C   0  0  0  0  0  0  0  0  0  0  0  0
  -33.9003   64.3850   64.8511 C   0  0  0  0  0  0  0  0  0  0  0  0
  -34.0456   65.2269   63.5919 C   0  0  0  0  0  0  0  0  0  0  0  0
  -35.4013   64.9528   62.9456 C   0  0  0  0  0  0  0  0  0  0  0  0
  -34.3250   61.2282   65.5673 H   0  0  0  0  0  0  0  0  0  0  0  0
  -32.1476   65.0906   63.0739 H   0  0  0  0  0  0  0  0  0  0  0  0
  -35.6442   67.0759   61.7958 O   0  0  0  0  0  0  0  0  0  0  0  0
  -35.5854   65.6644   61.6257 C   0  0  0  0  0  0  0  0  0  0  0  0
  -35.7625   67.5010   60.9321 H   0  0  0  0  0  0  0  0  0  0  0  0
  -32.5124   64.4293   65.3102 O   0  0  0  0  0  0  0  0  0  0  0  0
  -32.6756   65.9690   67.1569 O   0  0  0  0  0  0  0  0  0  0  0  0
  -31.8326   66.7420   64.9191 O   0  0  0  0  0  0  0  0  0  0  0  0
  -30.5467   65.3192   66.3185 O   0  0  0  0  0  0  0  0  0  0  0  0
  -31.9660   65.7787   65.9464 S   0  0  0  0  0  0  0  0  0  0  0  0
  -33.5795   66.2605   66.9594 H   0  0  0  0  0  0  0  0  0  0  0  0
  -30.5964   64.6548   67.0236 H   0  0  0  0  0  0  0  0  0  0  0  0
  2  1  1  0  0  0
  2  4  1  0  0  0
  2  5  1  0  0  0
 47 48  1  0  0  0
 47  1  1  0  0  0
 48 52  1  0  0  0
  1 30  1  0  0  0
 29 30  1  0  0  0
 29 31  1  0  0  0
 30 32  1  0  0  0
  3  4  2  0  0  0
 32 33  2  0  0  0
 49 53  1  0  0  0
 49 57  1  0  0  0
 33 34  1  0  0  0
 62 54  1  0  0  0
 62 66  1  0  0  0
 34 35  1  0  0  0
 50 55  1  0  0  0
 50 58  1  0  0  0
 35 36  1  0  0  0
 51 52  1  0  0  0
 51 56  1  0  0  0
 36 37  1  0  0  0
 59 60  1  0  0  0
 59 61  1  0  0  0
 37 38  1  0  0  0
 63 66  1  0  0  0
 63 67  1  0  0  0
 38 39  1  0  0  0
 64 66  1  0  0  0
 39 40  1  0  0  0
 65 66  1  0  0  0
 65 68  1  0  0  0
 40 41  1  0  0  0
 41 42  1  0  0  0
 42 43  1  0  0  0
 43 44  1  0  0  0
 44 45  1  0  0  0
 45 46  1  0  0  0
  4  6  1  0  0  0
  6  7  1  0  0  0
  7  8  1  0  0  0
  8  9  1  0  0  0
  9 10  1  0  0  0
 10 11  1  0  0  0
 11 12  1  0  0  0
 12 13  1  0  0  0
 13 14  1  0  0  0
 14 15  1  0  0  0
 15 16  1  0  0  0
 16 17  1  0  0  0
 17 18  1  0  0  0
 18 19  1  0  0  0
 19 20  2  0  0  0
 20 21  1  0  0  0
 21 22  1  0  0  0
 22 23  1  0  0  0
 23 24  1  0  0  0
 24 25  1  0  0  0
 25 26  1  0  0  0
 26 27  1  0  0  0
 27 28  1  0  0  0
 52 53  1  0  0  0
 53 54  1  0  0  0
 54 55  1  0  0  0
 55 56  1  0  0  0
 56 60  1  0  0  0
M  CHG 1  64  -1
M  END
> <minimizedAffinity>
-9.61482

> <CNNscore>
0.2145410478

> <CNNaffinity>
6.8468604088

> <CNN_VS>
1.4689326286

> <CNNaffinity_variance>
0.8367077112

$$$$
/media/chris/experiments/cd1a-new-docking/inputs/ligands/7ryn_ligand.pdb


 68 68  0  0  0  0  0  0  0  0999 V2000
  -36.2117   62.9913   63.6790 C   0  0  0  0  0  0  0  0  0  0  0  0
  -35.2796   63.0657   64.8001 N   0  0  0  0  0  0  0  0  0  0  0  0
  -36.7434   63.9506   66.2636 O   0  0  0  0  0  0  0  0  0  0  0  0
  -35.6168   63.5386   66.0029 C   0  0  0  0  0  0  0  0  0  0  0  0
  -34.3567   62.7517   64.6628 H   0  0  0  0  0  0  0  0  0  0  0  0
  -34.5200   63.5294   67.0385 C   0  0  0  0  0  0  0  0  0  0  0  0
  -33.1487   63.2524   66.4356 C   0  0  0  0  0  0  0  0  0  0  0  0
  -32.4372   64.5198   65.9897 C   0  0  0  0  0  0  0  0  0  0  0  0
  -31.0844   64.2719   65.3432 C   0  0  0  0  0  0  0  0  0  0  0  0
  -31.1462   63.3873   64.1069 C   0  0  0  0  0  0  0  0  0  0  0  0
  -29.7980   63.1718   63.4312 C   0  0  0  0  0  0  0  0  0  0  0  0
  -29.7002   61.8668   62.6516 C   0  0  0  0  0  0  0  0  0  0  0  0
  -30.7511   61.7026   61.5566 C   0  0  0  0  0  0  0  0  0  0  0  0
  -31.5546   60.4068   61.6546 C   0  0  0  0  0  0  0  0  0  0  0  0
  -32.2666   60.1980   62.9910 C   0  0  0  0  0  0  0  0  0  0  0  0
  -32.6502   58.7419   63.2555 C   0  0  0  0  0  0  0  0  0  0  0  0
  -33.6392   58.5311   64.4018 C   0  0  0  0  0  0  0  0  0  0  0  0
  -35.0492   58.1197   63.9697 C   0  0  0  0  0  0  0  0  0  0  0  0
  -35.2475   58.1903   62.4831 C   0  0  0  0  0  0  0  0  0  0  0  0
  -36.3416   57.8470   61.8265 C   0  0  0  0  0  0  0  0  0  0  0  0
  -37.6061   57.3203   62.4344 C   0  0  0  0  0  0  0  0  0  0  0  0
  -38.8724   57.9876   61.8935 C   0  0  0  0  0  0  0  0  0  0  0  0
  -40.1194   57.1271   62.0478 C   0  0  0  0  0  0  0  0  0  0  0  0
  -41.4178   57.9065   61.8708 C   0  0  0  0  0  0  0  0  0  0  0  0
  -41.2565   59.4215   61.9215 C   0  0  0  0  0  0  0  0  0  0  0  0
  -42.4789   60.1502   62.4617 C   0  0  0  0  0  0  0  0  0  0  0  0
  -42.2163   61.5929   62.8633 C   0  0  0  0  0  0  0  0  0  0  0  0
  -43.1657   62.5710   62.2015 C   0  0  0  0  0  0  0  0  0  0  0  0
  -37.4352   61.4484   62.2800 O   0  0  0  0  0  0  0  0  0  0  0  0
  -36.6252   61.5277   63.4564 C   0  0  0  0  0  0  0  0  0  0  0  0
  -36.9452   61.8100   61.5251 H   0  0  0  0  0  0  0  0  0  0  0  0
  -37.3515   60.9769   64.6452 C   0  0  0  0  0  0  0  0  0  0  0  0
  -38.4371   60.2308   64.5915 C   0  0  0  0  0  0  0  0  0  0  0  0
  -39.1304   59.6837   65.7959 C   0  0  0  0  0  0  0  0  0  0  0  0
  -40.6302   59.9829   65.7508 C   0  0  0  0  0  0  0  0  0  0  0  0
  -41.5016   58.8922   66.3523 C   0  0  0  0  0  0  0  0  0  0  0  0
  -42.0791   57.9223   65.3356 C   0  0  0  0  0  0  0  0  0  0  0  0
  -43.3887   57.2794   65.7683 C   0  0  0  0  0  0  0  0  0  0  0  0
  -44.6185   57.9134   65.1367 C   0  0  0  0  0  0  0  0  0  0  0  0
  -45.7969   58.0412   66.0858 C   0  0  0  0  0  0  0  0  0  0  0  0
  -47.1289   58.2576   65.3921 C   0  0  0  0  0  0  0  0  0  0  0  0
  -47.1952   59.5344   64.5717 C   0  0  0  0  0  0  0  0  0  0  0  0
  -48.5869   59.8288   64.0436 C   0  0  0  0  0  0  0  0  0  0  0  0
  -49.6176   58.7640   64.3666 C   0  0  0  0  0  0  0  0  0  0  0  0
  -50.7288   58.6975   63.3373 C   0  0  0  0  0  0  0  0  0  0  0  0
  -51.7021   59.8517   63.4585 C   0  0  0  0  0  0  0  0  0  0  0  0
  -35.5853   63.5998   62.4414 C   0  0  0  0  0  0  0  0  0  0  0  0
  -35.3002   64.9770   62.7114 O   0  0  0  0  0  0  0  0  0  0  0  0
  -33.5118   63.7503   60.9400 O   0  0  0  0  0  0  0  0  0  0  0  0
  -32.3170   67.8838   61.0355 O   0  0  0  0  0  0  0  0  0  0  0  0
  -33.7491   66.6190   63.1867 O   0  0  0  0  0  0  0  0  0  0  0  0
  -33.9375   65.2859   62.7499 C   0  0  0  0  0  0  0  0  0  0  0  0
  -33.3732   65.1059   61.3465 C   0  0  0  0  0  0  0  0  0  0  0  0
  -31.9064   65.5165   61.3216 C   0  0  0  0  0  0  0  0  0  0  0  0
  -31.7204   66.9150   61.8917 C   0  0  0  0  0  0  0  0  0  0  0  0
  -32.3653   66.9954   63.2731 C   0  0  0  0  0  0  0  0  0  0  0  0
  -34.4490   63.5010   60.9599 H   0  0  0  0  0  0  0  0  0  0  0  0
  -31.9087   67.8343   60.1571 H   0  0  0  0  0  0  0  0  0  0  0  0
  -33.2908   69.2387   63.2656 O   0  0  0  0  0  0  0  0  0  0  0  0
  -32.3258   68.3836   63.8677 C   0  0  0  0  0  0  0  0  0  0  0  0
  -33.2390   70.1193   63.6689 H   0  0  0  0  0  0  0  0  0  0  0  0
  -31.5465   65.5156   59.9039 O   0  0  0  0  0  0  0  0  0  0  0  0
  -29.2299   64.9528   60.2562 O   0  0  0  0  0  0  0  0  0  0  0  0
  -29.8795   67.2373   59.4347 O   0  0  0  0  0  0  0  0  0  0  0  0
  -30.0580   65.3129   58.0557 O   0  0  0  0  0  0  0  0  0  0  0  0
  -30.0427   65.8338   59.5023 S   0  0  0  0  0  0  0  0  0  0  0  0
  -29.1974   65.2523   61.1783 H   0  0  0  0  0  0  0  0  0  0  0  0
  -30.1688   64.3493   58.0602 H   0  0  0  0  0  0  0  0  0  0  0  0
  2  1  1  0  0  0
  2  4  1  0  0  0
  2  5  1  0  0  0
 47 48  1  0  0  0
 47  1  1  0  0  0
 48 52  1  0  0  0
  1 30  1  0  0  0
 29 30  1  0  0  0
 29 31  1  0  0  0
 30 32  1  0  0  0
  3  4  2  0  0  0
 32 33  2  0  0  0
 49 53  1  0  0  0
 49 57  1  0  0  0
 33 34  1  0  0  0
 62 54  1  0  0  0
 62 66  1  0  0  0
 34 35  1  0  0  0
 50 55  1  0  0  0
 50 58  1  0  0  0
 35 36  1  0  0  0
 51 52  1  0  0  0
 51 56  1  0  0  0
 36 37  1  0  0  0
 59 60  1  0  0  0
 59 61  1  0  0  0
 37 38  1  0  0  0
 63 66  1  0  0  0
 63 67  1  0  0  0
 38 39  1  0  0  0
 64 66  1  0  0  0
 39 40  1  0  0  0
 65 66  1  0  0  0
 65 68  1  0  0  0
 40 41  1  0  0  0
 41 42  1  0  0  0
 42 43  1  0  0  0
 43 44  1  0  0  0
 44 45  1  0  0  0
 45 46  1  0  0  0
  4  6  1  0  0  0
  6  7  1  0  0  0
  7  8  1  0  0  0
  8  9  1  0  0  0
  9 10  1  0  0  0
 10 11  1  0  0  0
 11 12  1  0  0  0
 12 13  1  0  0  0
 13 14  1  0  0  0
 14 15  1  0  0  0
 15 16  1  0  0  0
 16 17  1  0  0  0
 17 18  1  0  0  0
 18 19  1  0  0  0
 19 20  2  0  0  0
 20 21  1  0  0  0
 21 22  1  0  0  0
 22 23  1  0  0  0
 23 24  1  0  0  0
 24 25  1  0  0  0
 25 26  1  0  0  0
 26 27  1  0  0  0
 27 28  1  0  0  0
 52 53  1  0  0  0
 53 54  1  0  0  0
 54 55  1  0  0  0
 55 56  1  0  0  0
 56 60  1  0  0  0
M  CHG 1  64  -1
M  END
> <minimizedAffinity>
-8.66116

> <CNNscore>
0.1890580356

> <CNNaffinity>
7.1905775070

> <CNN_VS>
1.3594365120

> <CNNaffinity_variance>
2.2800376415

$$$$
/media/chris/experiments/cd1a-new-docking/inputs/ligands/7ryn_ligand.pdb


 68 68  0  0  0  0  0  0  0  0999 V2000
  -33.2746   60.7220   62.9985 C   0  0  0  0  0  0  0  0  0  0  0  0
  -33.9944   61.3084   64.1251 N   0  0  0  0  0  0  0  0  0  0  0  0
  -35.1390   62.8195   62.9109 O   0  0  0  0  0  0  0  0  0  0  0  0
  -34.8689   62.3096   63.9944 C   0  0  0  0  0  0  0  0  0  0  0  0
  -33.8270   60.9481   65.0258 H   0  0  0  0  0  0  0  0  0  0  0  0
  -35.5198   62.7782   65.2720 C   0  0  0  0  0  0  0  0  0  0  0  0
  -36.4078   61.7123   65.9011 C   0  0  0  0  0  0  0  0  0  0  0  0
  -37.2186   60.9420   64.8714 C   0  0  0  0  0  0  0  0  0  0  0  0
  -38.1154   59.8706   65.4694 C   0  0  0  0  0  0  0  0  0  0  0  0
  -39.3393   60.4220   66.1854 C   0  0  0  0  0  0  0  0  0  0  0  0
  -40.6310   59.6806   65.8651 C   0  0  0  0  0  0  0  0  0  0  0  0
  -41.5790   59.5524   67.0504 C   0  0  0  0  0  0  0  0  0  0  0  0
  -43.0490   59.3914   66.6715 C   0  0  0  0  0  0  0  0  0  0  0  0
  -43.5116   57.9384   66.5769 C   0  0  0  0  0  0  0  0  0  0  0  0
  -44.8090   57.7322   65.7955 C   0  0  0  0  0  0  0  0  0  0  0  0
  -46.0385   57.5687   66.6894 C   0  0  0  0  0  0  0  0  0  0  0  0
  -46.7694   58.8676   67.0289 C   0  0  0  0  0  0  0  0  0  0  0  0
  -47.8455   59.2842   66.0227 C   0  0  0  0  0  0  0  0  0  0  0  0
  -48.4037   58.1232   65.2515 C   0  0  0  0  0  0  0  0  0  0  0  0
  -49.1740   58.1981   64.1806 C   0  0  0  0  0  0  0  0  0  0  0  0
  -49.6434   59.4580   63.5185 C   0  0  0  0  0  0  0  0  0  0  0  0
  -50.4390   59.2173   62.2337 C   0  0  0  0  0  0  0  0  0  0  0  0
  -49.7768   59.8078   60.9959 C   0  0  0  0  0  0  0  0  0  0  0  0
  -49.5020   58.7767   59.9069 C   0  0  0  0  0  0  0  0  0  0  0  0
  -48.7039   57.5643   60.3725 C   0  0  0  0  0  0  0  0  0  0  0  0
  -47.9832   56.8359   59.2469 C   0  0  0  0  0  0  0  0  0  0  0  0
  -48.2275   57.4259   57.8671 C   0  0  0  0  0  0  0  0  0  0  0  0
  -46.9745   58.0079   57.2446 C   0  0  0  0  0  0  0  0  0  0  0  0
  -32.9519   58.6180   61.8566 O   0  0  0  0  0  0  0  0  0  0  0  0
  -33.2965   59.1900   63.1217 C   0  0  0  0  0  0  0  0  0  0  0  0
  -32.0851   58.9512   61.5765 H   0  0  0  0  0  0  0  0  0  0  0  0
  -34.6324   58.6969   63.5867 C   0  0  0  0  0  0  0  0  0  0  0  0
  -35.3154   57.7176   63.0278 C   0  0  0  0  0  0  0  0  0  0  0  0
  -36.6399   57.2385   63.5247 C   0  0  0  0  0  0  0  0  0  0  0  0
  -37.6489   57.1255   62.3801 C   0  0  0  0  0  0  0  0  0  0  0  0
  -38.1729   58.4609   61.8773 C   0  0  0  0  0  0  0  0  0  0  0  0
  -37.9214   58.7147   60.4007 C   0  0  0  0  0  0  0  0  0  0  0  0
  -39.1817   59.0078   59.5998 C   0  0  0  0  0  0  0  0  0  0  0  0
  -40.3673   58.1369   59.9860 C   0  0  0  0  0  0  0  0  0  0  0  0
  -41.6319   58.9225   60.2854 C   0  0  0  0  0  0  0  0  0  0  0  0
  -41.4933   59.9024   61.4355 C   0  0  0  0  0  0  0  0  0  0  0  0
  -42.4277   59.6210   62.5997 C   0  0  0  0  0  0  0  0  0  0  0  0
  -42.6422   58.1388   62.8438 C   0  0  0  0  0  0  0  0  0  0  0  0
  -41.5166   57.4594   63.6000 C   0  0  0  0  0  0  0  0  0  0  0  0
  -41.6629   55.9506   63.6307 C   0  0  0  0  0  0  0  0  0  0  0  0
  -41.2951   55.3049   62.3109 C   0  0  0  0  0  0  0  0  0  0  0  0
  -31.8628   61.2681   62.9431 C   0  0  0  0  0  0  0  0  0  0  0  0
  -31.8276   62.3291   61.9820 O   0  0  0  0  0  0  0  0  0  0  0  0
  -31.0488   64.3457   60.2022 O   0  0  0  0  0  0  0  0  0  0  0  0
  -32.9789   66.4147   63.4450 O   0  0  0  0  0  0  0  0  0  0  0  0
  -31.7707   63.8206   63.7429 O   0  0  0  0  0  0  0  0  0  0  0  0
  -31.2641   63.5170   62.4565 C   0  0  0  0  0  0  0  0  0  0  0  0
  -31.6133   64.6293   61.4761 C   0  0  0  0  0  0  0  0  0  0  0  0
  -31.0927   65.9624   61.9985 C   0  0  0  0  0  0  0  0  0  0  0  0
  -31.5691   66.2156   63.4212 C   0  0  0  0  0  0  0  0  0  0  0  0
  -31.2124   65.0205   64.3017 C   0  0  0  0  0  0  0  0  0  0  0  0
  -31.3874   63.4955   59.8805 H   0  0  0  0  0  0  0  0  0  0  0  0
  -33.2078   67.1737   62.8860 H   0  0  0  0  0  0  0  0  0  0  0  0
  -30.8198   65.7874   66.5703 O   0  0  0  0  0  0  0  0  0  0  0  0
  -31.7482   65.1381   65.7093 C   0  0  0  0  0  0  0  0  0  0  0  0
  -31.1937   65.8464   67.4633 H   0  0  0  0  0  0  0  0  0  0  0  0
  -31.6746   66.9625   61.1038 O   0  0  0  0  0  0  0  0  0  0  0  0
  -31.4894   68.0327   58.9526 O   0  0  0  0  0  0  0  0  0  0  0  0
  -29.4577   67.0833   60.0869 O   0  0  0  0  0  0  0  0  0  0  0  0
  -30.5360   69.0427   60.8835 O   0  0  0  0  0  0  0  0  0  0  0  0
  -30.7146   67.7324   60.0991 S   0  0  0  0  0  0  0  0  0  0  0  0
  -31.6225   67.2252   58.4317 H   0  0  0  0  0  0  0  0  0  0  0  0
  -31.3806   69.5188   60.9141 H   0  0  0  0  0  0  0  0  0  0  0  0
  2  1  1  0  0  0
  2  4  1  0  0  0
  2  5  1  0  0  0
 47 48  1  0  0  0
 47  1  1  0  0  0
 48 52  1  0  0  0
  1 30  1  0  0  0
 29 30  1  0  0  0
 29 31  1  0  0  0
 30 32  1  0  0  0
  3  4  2  0  0  0
 32 33  2  0  0  0
 49 53  1  0  0  0
 49 57  1  0  0  0
 33 34  1  0  0  0
 62 54  1  0  0  0
 62 66  1  0  0  0
 34 35  1  0  0  0
 50 55  1  0  0  0
 50 58  1  0  0  0
 35 36  1  0  0  0
 51 52  1  0  0  0
 51 56  1  0  0  0
 36 37  1  0  0  0
 59 60  1  0  0  0
 59 61  1  0  0  0
 37 38  1  0  0  0
 63 66  1  0  0  0
 63 67  1  0  0  0
 38 39  1  0  0  0
 64 66  1  0  0  0
 39 40  1  0  0  0
 65 66  1  0  0  0
 65 68  1  0  0  0
 40 41  1  0  0  0
 41 42  1  0  0  0
 42 43  1  0  0  0
 43 44  1  0  0  0
 44 45  1  0  0  0
 45 46  1  0  0  0
  4  6  1  0  0  0
  6  7  1  0  0  0
  7  8  1  0  0  0
  8  9  1  0  0  0
  9 10  1  0  0  0
 10 11  1  0  0  0
 11 12  1  0  0  0
 12 13  1  0  0  0
 13 14  1  0  0  0
 14 15  1  0  0  0
 15 16  1  0  0  0
 16 17  1  0  0  0
 17 18  1  0  0  0
 18 19  1  0  0  0
 19 20  2  0  0  0
 20 21  1  0  0  0
 21 22  1  0  0  0
 22 23  1  0  0  0
 23 24  1  0  0  0
 24 25  1  0  0  0
 25 26  1  0  0  0
 26 27  1  0  0  0
 27 28  1  0  0  0
 52 53  1  0  0  0
 53 54  1  0  0  0
 54 55  1  0  0  0
 55 56  1  0  0  0
 56 60  1  0  0  0
M  CHG 1  64  -1
M  END
> <minimizedAffinity>
-8.99545

> <CNNscore>
0.1870085597

> <CNNaffinity>
7.0704560280

> <CNN_VS>
1.3222358227

> <CNNaffinity_variance>
1.2515704632

$$$$
/media/chris/experiments/cd1a-new-docking/inputs/ligands/7ryn_ligand.pdb


 68 68  0  0  0  0  0  0  0  0999 V2000
  -30.2506   64.0094   64.3920 C   0  0  0  0  0  0  0  0  0  0  0  0
  -30.8564   63.2001   63.3388 N   0  0  0  0  0  0  0  0  0  0  0  0
  -29.1519   61.7412   63.1547 O   0  0  0  0  0  0  0  0  0  0  0  0
  -30.2615   62.1310   62.8028 C   0  0  0  0  0  0  0  0  0  0  0  0
  -31.7476   63.4550   63.0072 H   0  0  0  0  0  0  0  0  0  0  0  0
  -31.0464   61.4166   61.7310 C   0  0  0  0  0  0  0  0  0  0  0  0
  -32.3007   60.7443   62.2745 C   0  0  0  0  0  0  0  0  0  0  0  0
  -32.0384   59.3347   62.7797 C   0  0  0  0  0  0  0  0  0  0  0  0
  -33.2206   58.7089   63.5012 C   0  0  0  0  0  0  0  0  0  0  0  0
  -33.9934   57.7044   62.6596 C   0  0  0  0  0  0  0  0  0  0  0  0
  -35.3007   58.2451   62.0945 C   0  0  0  0  0  0  0  0  0  0  0  0
  -36.5248   57.4230   62.4763 C   0  0  0  0  0  0  0  0  0  0  0  0
  -37.7828   57.7503   61.6757 C   0  0  0  0  0  0  0  0  0  0  0  0
  -39.0461   57.0655   62.1945 C   0  0  0  0  0  0  0  0  0  0  0  0
  -40.3501   57.6025   61.6048 C   0  0  0  0  0  0  0  0  0  0  0  0
  -41.5909   56.8491   62.0844 C   0  0  0  0  0  0  0  0  0  0  0  0
  -41.4924   56.2720   63.4964 C   0  0  0  0  0  0  0  0  0  0  0  0
  -42.5667   56.7631   64.4704 C   0  0  0  0  0  0  0  0  0  0  0  0
  -43.3715   57.9062   63.9231 C   0  0  0  0  0  0  0  0  0  0  0  0
  -44.5612   58.2942   64.3472 C   0  0  0  0  0  0  0  0  0  0  0  0
  -45.3457   57.6723   65.4625 C   0  0  0  0  0  0  0  0  0  0  0  0
  -46.6733   58.3776   65.7478 C   0  0  0  0  0  0  0  0  0  0  0  0
  -47.0811   59.3579   64.6560 C   0  0  0  0  0  0  0  0  0  0  0  0
  -48.3493   60.1372   64.9858 C   0  0  0  0  0  0  0  0  0  0  0  0
  -49.2858   60.3491   63.8018 C   0  0  0  0  0  0  0  0  0  0  0  0
  -50.7275   59.9486   64.0814 C   0  0  0  0  0  0  0  0  0  0  0  0
  -51.3404   59.0486   63.0202 C   0  0  0  0  0  0  0  0  0  0  0  0
  -50.3599   58.6738   61.9274 C   0  0  0  0  0  0  0  0  0  0  0  0
  -30.7653   65.3011   66.3672 O   0  0  0  0  0  0  0  0  0  0  0  0
  -31.3585   64.6669   65.2304 C   0  0  0  0  0  0  0  0  0  0  0  0
  -30.1011   65.9422   66.0697 H   0  0  0  0  0  0  0  0  0  0  0  0
  -32.3918   63.6678   65.6527 C   0  0  0  0  0  0  0  0  0  0  0  0
  -33.5541   63.9644   66.1994 C   0  0  0  0  0  0  0  0  0  0  0  0
  -34.5707   62.9447   66.5963 C   0  0  0  0  0  0  0  0  0  0  0  0
  -35.9050   63.1944   65.8906 C   0  0  0  0  0  0  0  0  0  0  0  0
  -35.8680   62.9645   64.3884 C   0  0  0  0  0  0  0  0  0  0  0  0
  -35.6091   61.5234   63.9832 C   0  0  0  0  0  0  0  0  0  0  0  0
  -36.2326   60.4965   64.9173 C   0  0  0  0  0  0  0  0  0  0  0  0
  -37.6775   60.1621   64.5805 C   0  0  0  0  0  0  0  0  0  0  0  0
  -38.2119   58.9464   65.3169 C   0  0  0  0  0  0  0  0  0  0  0  0
  -39.7202   58.9373   65.4823 C   0  0  0  0  0  0  0  0  0  0  0  0
  -40.3524   60.3179   65.4386 C   0  0  0  0  0  0  0  0  0  0  0  0
  -41.4860   60.4201   64.4352 C   0  0  0  0  0  0  0  0  0  0  0  0
  -41.0707   60.9392   63.0719 C   0  0  0  0  0  0  0  0  0  0  0  0
  -42.2245   60.9838   62.0893 C   0  0  0  0  0  0  0  0  0  0  0  0
  -42.9864   62.2916   62.1477 C   0  0  0  0  0  0  0  0  0  0  0  0
  -29.3127   65.0329   63.7861 C   0  0  0  0  0  0  0  0  0  0  0  0
  -29.9424   66.3172   63.8546 O   0  0  0  0  0  0  0  0  0  0  0  0
  -28.5725   66.7012   61.4427 O   0  0  0  0  0  0  0  0  0  0  0  0
  -32.1255   64.5248   60.3647 O   0  0  0  0  0  0  0  0  0  0  0  0
  -31.9490   66.1618   62.7242 O   0  0  0  0  0  0  0  0  0  0  0  0
  -30.6330   66.6823   62.6954 C   0  0  0  0  0  0  0  0  0  0  0  0
  -29.8721   66.1267   61.4984 C   0  0  0  0  0  0  0  0  0  0  0  0
  -30.6363   66.4260   60.2149 C   0  0  0  0  0  0  0  0  0  0  0  0
  -32.0773   65.9470   60.3123 C   0  0  0  0  0  0  0  0  0  0  0  0
  -32.7247   66.5216   61.5698 C   0  0  0  0  0  0  0  0  0  0  0  0
  -28.0964   66.5040   62.2646 H   0  0  0  0  0  0  0  0  0  0  0  0
  -31.7146   64.1576   59.5665 H   0  0  0  0  0  0  0  0  0  0  0  0
  -35.0684   67.0697   61.8786 O   0  0  0  0  0  0  0  0  0  0  0  0
  -34.1252   66.0067   61.8058 C   0  0  0  0  0  0  0  0  0  0  0  0
  -35.9546   66.7058   62.0303 H   0  0  0  0  0  0  0  0  0  0  0  0
  -29.9369   65.6623   59.1820 O   0  0  0  0  0  0  0  0  0  0  0  0
  -28.6588   65.5463   57.1423 O   0  0  0  0  0  0  0  0  0  0  0  0
  -29.3940   67.7651   58.0655 O   0  0  0  0  0  0  0  0  0  0  0  0
  -30.9337   66.2393   57.0973 O   0  0  0  0  0  0  0  0  0  0  0  0
  -29.5809   66.3858   57.8132 S   0  0  0  0  0  0  0  0  0  0  0  0
  -27.7903   65.6139   57.5691 H   0  0  0  0  0  0  0  0  0  0  0  0
  -31.0987   65.3027   56.9063 H   0  0  0  0  0  0  0  0  0  0  0  0
  2  1  1  0  0  0
  2  4  1  0  0  0
  2  5  1  0  0  0
 47 48  1  0  0  0
 47  1  1  0  0  0
 48 52  1  0  0  0
  1 30  1  0  0  0
 29 30  1  0  0  0
 29 31  1  0  0  0
 30 32  1  0  0  0
  3  4  2  0  0  0
 32 33  2  0  0  0
 49 53  1  0  0  0
 49 57  1  0  0  0
 33 34  1  0  0  0
 62 54  1  0  0  0
 62 66  1  0  0  0
 34 35  1  0  0  0
 50 55  1  0  0  0
 50 58  1  0  0  0
 35 36  1  0  0  0
 51 52  1  0  0  0
 51 56  1  0  0  0
 36 37  1  0  0  0
 59 60  1  0  0  0
 59 61  1  0  0  0
 37 38  1  0  0  0
 63 66  1  0  0  0
 63 67  1  0  0  0
 38 39  1  0  0  0
 64 66  1  0  0  0
 39 40  1  0  0  0
 65 66  1  0  0  0
 65 68  1  0  0  0
 40 41  1  0  0  0
 41 42  1  0  0  0
 42 43  1  0  0  0
 43 44  1  0  0  0
 44 45  1  0  0  0
 45 46  1  0  0  0
  4  6  1  0  0  0
  6  7  1  0  0  0
  7  8  1  0  0  0
  8  9  1  0  0  0
  9 10  1  0  0  0
 10 11  1  0  0  0
 11 12  1  0  0  0
 12 13  1  0  0  0
 13 14  1  0  0  0
 14 15  1  0  0  0
 15 16  1  0  0  0
 16 17  1  0  0  0
 17 18  1  0  0  0
 18 19  1  0  0  0
 19 20  2  0  0  0
 20 21  1  0  0  0
 21 22  1  0  0  0
 22 23  1  0  0  0
 23 24  1  0  0  0
 24 25  1  0  0  0
 25 26  1  0  0  0
 26 27  1  0  0  0
 27 28  1  0  0  0
 52 53  1  0  0  0
 53 54  1  0  0  0
 54 55  1  0  0  0
 55 56  1  0  0  0
 56 60  1  0  0  0
M  CHG 1  64  -1
M  END
> <minimizedAffinity>
-9.08602

> <CNNscore>
0.1853635162

> <CNNaffinity>
6.9581465721

> <CNN_VS>
1.2897864580

> <CNNaffinity_variance>
2.0768587589

$$$$
/media/chris/experiments/cd1a-new-docking/inputs/ligands/7ryn_ligand.pdb


 68 68  0  0  0  0  0  0  0  0999 V2000
  -37.1131   59.9374   63.8582 C   0  0  0  0  0  0  0  0  0  0  0  0
  -37.9699   59.8016   65.0324 N   0  0  0  0  0  0  0  0  0  0  0  0
  -39.7973   60.7254   64.0968 O   0  0  0  0  0  0  0  0  0  0  0  0
  -39.2429   60.2053   65.0608 C   0  0  0  0  0  0  0  0  0  0  0  0
  -37.5907   59.3923   65.8434 H   0  0  0  0  0  0  0  0  0  0  0  0
  -39.9715   59.9747   66.3612 C   0  0  0  0  0  0  0  0  0  0  0  0
  -41.4530   60.3176   66.2704 C   0  0  0  0  0  0  0  0  0  0  0  0
  -42.3499   59.1336   66.5945 C   0  0  0  0  0  0  0  0  0  0  0  0
  -42.0000   57.8680   65.8294 C   0  0  0  0  0  0  0  0  0  0  0  0
  -43.2117   57.0593   65.3909 C   0  0  0  0  0  0  0  0  0  0  0  0
  -44.4585   57.8978   65.1396 C   0  0  0  0  0  0  0  0  0  0  0  0
  -45.7249   57.3215   65.7594 C   0  0  0  0  0  0  0  0  0  0  0  0
  -46.1113   57.9388   67.1011 C   0  0  0  0  0  0  0  0  0  0  0  0
  -47.1604   59.0446   66.9980 C   0  0  0  0  0  0  0  0  0  0  0  0
  -48.0285   58.9844   65.7414 C   0  0  0  0  0  0  0  0  0  0  0  0
  -49.3059   58.1641   65.9226 C   0  0  0  0  0  0  0  0  0  0  0  0
  -50.6032   58.9721   65.8963 C   0  0  0  0  0  0  0  0  0  0  0  0
  -50.6123   60.1458   64.9132 C   0  0  0  0  0  0  0  0  0  0  0  0
  -51.7105   60.0449   63.8945 C   0  0  0  0  0  0  0  0  0  0  0  0
  -51.6842   59.3187   62.7909 C   0  0  0  0  0  0  0  0  0  0  0  0
  -50.5534   58.4471   62.3355 C   0  0  0  0  0  0  0  0  0  0  0  0
  -50.8968   57.5777   61.1241 C   0  0  0  0  0  0  0  0  0  0  0  0
  -50.2202   58.0394   59.8403 C   0  0  0  0  0  0  0  0  0  0  0  0
  -48.7228   57.7544   59.8094 C   0  0  0  0  0  0  0  0  0  0  0  0
  -48.3634   56.2911   59.5781 C   0  0  0  0  0  0  0  0  0  0  0  0
  -47.5241   56.0560   58.3302 C   0  0  0  0  0  0  0  0  0  0  0  0
  -47.8357   57.0039   57.1830 C   0  0  0  0  0  0  0  0  0  0  0  0
  -46.7210   57.9956   56.9186 C   0  0  0  0  0  0  0  0  0  0  0  0
  -36.9783   57.5708   64.3230 O   0  0  0  0  0  0  0  0  0  0  0  0
  -36.8050   58.5434   63.2884 C   0  0  0  0  0  0  0  0  0  0  0  0
  -37.8795   57.6317   64.6763 H   0  0  0  0  0  0  0  0  0  0  0  0
  -35.4214   58.4783   62.7180 C   0  0  0  0  0  0  0  0  0  0  0  0
  -34.5837   57.4724   62.8741 C   0  0  0  0  0  0  0  0  0  0  0  0
  -33.2142   57.4309   62.2794 C   0  0  0  0  0  0  0  0  0  0  0  0
  -32.9164   58.7099   61.4943 C   0  0  0  0  0  0  0  0  0  0  0  0
  -32.4788   59.8828   62.3565 C   0  0  0  0  0  0  0  0  0  0  0  0
  -30.9731   60.0245   62.5009 C   0  0  0  0  0  0  0  0  0  0  0  0
  -30.3739   61.1444   61.6626 C   0  0  0  0  0  0  0  0  0  0  0  0
  -29.3994   62.0261   62.4283 C   0  0  0  0  0  0  0  0  0  0  0  0
  -29.5935   63.5116   62.1801 C   0  0  0  0  0  0  0  0  0  0  0  0
  -30.3866   63.8305   60.9265 C   0  0  0  0  0  0  0  0  0  0  0  0
  -30.0554   65.1814   60.3158 C   0  0  0  0  0  0  0  0  0  0  0  0
  -31.2881   66.0061   59.9952 C   0  0  0  0  0  0  0  0  0  0  0  0
  -31.3969   67.3003   60.7785 C   0  0  0  0  0  0  0  0  0  0  0  0
  -30.5868   67.2756   62.0598 C   0  0  0  0  0  0  0  0  0  0  0  0
  -29.6110   68.4304   62.1518 C   0  0  0  0  0  0  0  0  0  0  0  0
  -35.8524   60.6952   64.2199 C   0  0  0  0  0  0  0  0  0  0  0  0
  -36.1781   61.6542   65.2323 O   0  0  0  0  0  0  0  0  0  0  0  0
  -34.5527   63.0877   67.0055 O   0  0  0  0  0  0  0  0  0  0  0  0
  -32.9564   63.9427   63.1012 O   0  0  0  0  0  0  0  0  0  0  0  0
  -35.6845   63.1378   63.5342 O   0  0  0  0  0  0  0  0  0  0  0  0
  -35.7828   62.9616   64.9352 C   0  0  0  0  0  0  0  0  0  0  0  0
  -34.4313   63.2069   65.5937 C   0  0  0  0  0  0  0  0  0  0  0  0
  -33.9190   64.5931   65.2237 C   0  0  0  0  0  0  0  0  0  0  0  0
  -33.9206   64.7918   63.7151 C   0  0  0  0  0  0  0  0  0  0  0  0
  -35.3050   64.4711   63.1573 C   0  0  0  0  0  0  0  0  0  0  0  0
  -34.8793   62.2019   67.2283 H   0  0  0  0  0  0  0  0  0  0  0  0
  -32.0759   64.1448   63.4543 H   0  0  0  0  0  0  0  0  0  0  0  0
  -34.1402   64.1244   61.0568 O   0  0  0  0  0  0  0  0  0  0  0  0
  -35.3675   64.5340   61.6491 C   0  0  0  0  0  0  0  0  0  0  0  0
  -34.2141   64.1764   60.0911 H   0  0  0  0  0  0  0  0  0  0  0  0
  -32.5428   64.6226   65.7183 O   0  0  0  0  0  0  0  0  0  0  0  0
  -32.5552   66.2066   67.5344 O   0  0  0  0  0  0  0  0  0  0  0  0
  -31.9459   66.9347   65.2075 O   0  0  0  0  0  0  0  0  0  0  0  0
  -30.5055   65.5688   66.5098 O   0  0  0  0  0  0  0  0  0  0  0  0
  -31.9622   65.9963   66.2658 S   0  0  0  0  0  0  0  0  0  0  0  0
  -33.4790   66.4787   67.4183 H   0  0  0  0  0  0  0  0  0  0  0  0
  -30.4750   64.9222   67.2322 H   0  0  0  0  0  0  0  0  0  0  0  0
  2  1  1  0  0  0
  2  4  1  0  0  0
  2  5  1  0  0  0
 47 48  1  0  0  0
 47  1  1  0  0  0
 48 52  1  0  0  0
  1 30  1  0  0  0
 29 30  1  0  0  0
 29 31  1  0  0  0
 30 32  1  0  0  0
  3  4  2  0  0  0
 32 33  2  0  0  0
 49 53  1  0  0  0
 49 57  1  0  0  0
 33 34  1  0  0  0
 62 54  1  0  0  0
 62 66  1  0  0  0
 34 35  1  0  0  0
 50 55  1  0  0  0
 50 58  1  0  0  0
 35 36  1  0  0  0
 51 52  1  0  0  0
 51 56  1  0  0  0
 36 37  1  0  0  0
 59 60  1  0  0  0
 59 61  1  0  0  0
 37 38  1  0  0  0
 63 66  1  0  0  0
 63 67  1  0  0  0
 38 39  1  0  0  0
 64 66  1  0  0  0
 39 40  1  0  0  0
 65 66  1  0  0  0
 65 68  1  0  0  0
 40 41  1  0  0  0
 41 42  1  0  0  0
 42 43  1  0  0  0
 43 44  1  0  0  0
 44 45  1  0  0  0
 45 46  1  0  0  0
  4  6  1  0  0  0
  6  7  1  0  0  0
  7  8  1  0  0  0
  8  9  1  0  0  0
  9 10  1  0  0  0
 10 11  1  0  0  0
 11 12  1  0  0  0
 12 13  1  0  0  0
 13 14  1  0  0  0
 14 15  1  0  0  0
 15 16  1  0  0  0
 16 17  1  0  0  0
 17 18  1  0  0  0
 18 19  1  0  0  0
 19 20  2  0  0  0
 20 21  1  0  0  0
 21 22  1  0  0  0
 22 23  1  0  0  0
 23 24  1  0  0  0
 24 25  1  0  0  0
 25 26  1  0  0  0
 26 27  1  0  0  0
 27 28  1  0  0  0
 52 53  1  0  0  0
 53 54  1  0  0  0
 54 55  1  0  0  0
 55 56  1  0  0  0
 56 60  1  0  0  0
M  CHG 1  64  -1
M  END
> <minimizedAffinity>
-9.32443

> <CNNscore>
0.1717416942

> <CNNaffinity>
6.4916620255

> <CNN_VS>
1.1148890257

> <CNNaffinity_variance>
0.4884467125

$$$$
/media/chris/experiments/cd1a-new-docking/inputs/ligands/7ryn_ligand.pdb


 68 68  0  0  0  0  0  0  0  0999 V2000
  -36.1564   59.1349   63.5732 C   0  0  0  0  0  0  0  0  0  0  0  0
  -36.9373   59.2738   64.7989 N   0  0  0  0  0  0  0  0  0  0  0  0
  -38.3474   60.8374   64.0023 O   0  0  0  0  0  0  0  0  0  0  0  0
  -37.9700   60.1125   64.9183 C   0  0  0  0  0  0  0  0  0  0  0  0
  -36.6904   58.7220   65.5759 H   0  0  0  0  0  0  0  0  0  0  0  0
  -38.6596   60.1112   66.2599 C   0  0  0  0  0  0  0  0  0  0  0  0
  -40.0251   59.4375   66.2150 C   0  0  0  0  0  0  0  0  0  0  0  0
  -41.1518   60.3670   66.6367 C   0  0  0  0  0  0  0  0  0  0  0  0
  -42.3344   59.6535   67.2707 C   0  0  0  0  0  0  0  0  0  0  0  0
  -42.4140   58.1728   66.9306 C   0  0  0  0  0  0  0  0  0  0  0  0
  -43.8171   57.6910   66.5845 C   0  0  0  0  0  0  0  0  0  0  0  0
  -44.8182   58.8169   66.3599 C   0  0  0  0  0  0  0  0  0  0  0  0
  -46.1074   58.6889   67.1674 C   0  0  0  0  0  0  0  0  0  0  0  0
  -46.7644   57.3125   67.0765 C   0  0  0  0  0  0  0  0  0  0  0  0
  -47.9388   57.2301   66.1016 C   0  0  0  0  0  0  0  0  0  0  0  0
  -48.0511   58.4445   65.1796 C   0  0  0  0  0  0  0  0  0  0  0  0
  -49.1996   59.3996   65.5041 C   0  0  0  0  0  0  0  0  0  0  0  0
  -49.5200   60.4192   64.4078 C   0  0  0  0  0  0  0  0  0  0  0  0
  -50.9837   60.4825   64.0799 C   0  0  0  0  0  0  0  0  0  0  0  0
  -51.6581   59.6058   63.3571 C   0  0  0  0  0  0  0  0  0  0  0  0
  -51.0977   58.3697   62.7214 C   0  0  0  0  0  0  0  0  0  0  0  0
  -50.1670   58.6540   61.5405 C   0  0  0  0  0  0  0  0  0  0  0  0
  -50.3913   57.7201   60.3586 C   0  0  0  0  0  0  0  0  0  0  0  0
  -49.4738   56.5026   60.3670 C   0  0  0  0  0  0  0  0  0  0  0  0
  -48.3646   56.5408   59.3221 C   0  0  0  0  0  0  0  0  0  0  0  0
  -48.1876   57.9028   58.6657 C   0  0  0  0  0  0  0  0  0  0  0  0
  -47.2400   57.9022   57.4768 C   0  0  0  0  0  0  0  0  0  0  0  0
  -46.9760   56.5122   56.9342 C   0  0  0  0  0  0  0  0  0  0  0  0
  -35.4018   57.0027   62.7254 O   0  0  0  0  0  0  0  0  0  0  0  0
  -36.5578   57.8349   62.8579 C   0  0  0  0  0  0  0  0  0  0  0  0
  -35.0208   56.8366   63.6017 H   0  0  0  0  0  0  0  0  0  0  0  0
  -37.1740   58.1131   61.5212 C   0  0  0  0  0  0  0  0  0  0  0  0
  -38.4622   58.2876   61.3018 C   0  0  0  0  0  0  0  0  0  0  0  0
  -39.0448   58.5786   59.9578 C   0  0  0  0  0  0  0  0  0  0  0  0
  -40.4327   57.9513   59.8121 C   0  0  0  0  0  0  0  0  0  0  0  0
  -41.5807   58.9358   59.9653 C   0  0  0  0  0  0  0  0  0  0  0  0
  -41.1489   60.3489   60.3185 C   0  0  0  0  0  0  0  0  0  0  0  0
  -42.2993   61.3395   60.4228 C   0  0  0  0  0  0  0  0  0  0  0  0
  -42.5569   61.8297   61.8393 C   0  0  0  0  0  0  0  0  0  0  0  0
  -41.5958   61.2604   62.8681 C   0  0  0  0  0  0  0  0  0  0  0  0
  -42.2236   60.2462   63.8059 C   0  0  0  0  0  0  0  0  0  0  0  0
  -43.3452   59.4378   63.1765 C   0  0  0  0  0  0  0  0  0  0  0  0
  -43.0300   57.9564   63.0852 C   0  0  0  0  0  0  0  0  0  0  0  0
  -41.6271   57.5861   63.5272 C   0  0  0  0  0  0  0  0  0  0  0  0
  -41.4391   56.0891   63.6758 C   0  0  0  0  0  0  0  0  0  0  0  0
  -41.3720   55.3773   62.3405 C   0  0  0  0  0  0  0  0  0  0  0  0
  -34.6763   59.1745   63.8930 C   0  0  0  0  0  0  0  0  0  0  0  0
  -34.1632   60.4504   63.4936 O   0  0  0  0  0  0  0  0  0  0  0  0
  -31.8052   61.9608   63.4836 O   0  0  0  0  0  0  0  0  0  0  0  0
  -34.8448   64.6612   64.8946 O   0  0  0  0  0  0  0  0  0  0  0  0
  -35.0568   61.8021   65.1375 O   0  0  0  0  0  0  0  0  0  0  0  0
  -33.8645   61.3088   64.5556 C   0  0  0  0  0  0  0  0  0  0  0  0
  -33.0279   62.4594   64.0112 C   0  0  0  0  0  0  0  0  0  0  0  0
  -32.7517   63.4682   65.1189 C   0  0  0  0  0  0  0  0  0  0  0  0
  -34.0429   63.9043   65.7955 C   0  0  0  0  0  0  0  0  0  0  0  0
  -34.8219   62.6742   66.2547 C   0  0  0  0  0  0  0  0  0  0  0  0
  -31.9940   61.3202   62.7801 H   0  0  0  0  0  0  0  0  0  0  0  0
  -34.3516   65.4433   64.6015 H   0  0  0  0  0  0  0  0  0  0  0  0
  -36.0775   63.3573   68.2157 O   0  0  0  0  0  0  0  0  0  0  0  0
  -36.1739   63.0106   66.8390 C   0  0  0  0  0  0  0  0  0  0  0  0
  -36.9602   63.5669   68.5589 H   0  0  0  0  0  0  0  0  0  0  0  0
  -32.1487   64.6119   64.4351 O   0  0  0  0  0  0  0  0  0  0  0  0
  -30.9383   65.4834   66.3279 O   0  0  0  0  0  0  0  0  0  0  0  0
  -30.2128   66.0307   63.9848 O   0  0  0  0  0  0  0  0  0  0  0  0
  -29.9385   63.8598   64.9060 O   0  0  0  0  0  0  0  0  0  0  0  0
  -30.7542   65.1620   64.9612 S   0  0  0  0  0  0  0  0  0  0  0  0
  -31.4514   66.3034   66.4009 H   0  0  0  0  0  0  0  0  0  0  0  0
  -30.2813   63.2354   65.5644 H   0  0  0  0  0  0  0  0  0  0  0  0
  2  1  1  0  0  0
  2  4  1  0  0  0
  2  5  1  0  0  0
 47 48  1  0  0  0
 47  1  1  0  0  0
 48 52  1  0  0  0
  1 30  1  0  0  0
 29 30  1  0  0  0
 29 31  1  0  0  0
 30 32  1  0  0  0
  3  4  2  0  0  0
 32 33  2  0  0  0
 49 53  1  0  0  0
 49 57  1  0  0  0
 33 34  1  0  0  0
 62 54  1  0  0  0
 62 66  1  0  0  0
 34 35  1  0  0  0
 50 55  1  0  0  0
 50 58  1  0  0  0
 35 36  1  0  0  0
 51 52  1  0  0  0
 51 56  1  0  0  0
 36 37  1  0  0  0
 59 60  1  0  0  0
 59 61  1  0  0  0
 37 38  1  0  0  0
 63 66  1  0  0  0
 63 67  1  0  0  0
 38 39  1  0  0  0
 64 66  1  0  0  0
 39 40  1  0  0  0
 65 66  1  0  0  0
 65 68  1  0  0  0
 40 41  1  0  0  0
 41 42  1  0  0  0
 42 43  1  0  0  0
 43 44  1  0  0  0
 44 45  1  0  0  0
 45 46  1  0  0  0
  4  6  1  0  0  0
  6  7  1  0  0  0
  7  8  1  0  0  0
  8  9  1  0  0  0
  9 10  1  0  0  0
 10 11  1  0  0  0
 11 12  1  0  0  0
 12 13  1  0  0  0
 13 14  1  0  0  0
 14 15  1  0  0  0
 15 16  1  0  0  0
 16 17  1  0  0  0
 17 18  1  0  0  0
 18 19  1  0  0  0
 19 20  2  0  0  0
 20 21  1  0  0  0
 21 22  1  0  0  0
 22 23  1  0  0  0
 23 24  1  0  0  0
 24 25  1  0  0  0
 25 26  1  0  0  0
 26 27  1  0  0  0
 27 28  1  0  0  0
 52 53  1  0  0  0
 53 54  1  0  0  0
 54 55  1  0  0  0
 55 56  1  0  0  0
 56 60  1  0  0  0
M  CHG 1  64  -1
M  END
> <minimizedAffinity>
-9.39690

> <CNNscore>
0.1447739601

> <CNNaffinity>
7.4056906700

> <CNN_VS>
1.0721511841

> <CNNaffinity_variance>
1.6231863499

$$$$
/media/chris/experiments/cd1a-new-docking/inputs/ligands/7ryn_ligand.pdb


 68 68  0  0  0  0  0  0  0  0999 V2000
  -38.3696   59.6906   64.0221 C   0  0  0  0  0  0  0  0  0  0  0  0
  -39.7907   59.9684   63.8360 N   0  0  0  0  0  0  0  0  0  0  0  0
  -39.6717   60.3206   61.6157 O   0  0  0  0  0  0  0  0  0  0  0  0
  -40.3305   60.2613   62.6499 C   0  0  0  0  0  0  0  0  0  0  0  0
  -40.3803   59.9384   64.6238 H   0  0  0  0  0  0  0  0  0  0  0  0
  -41.8182   60.5107   62.6539 C   0  0  0  0  0  0  0  0  0  0  0  0
  -42.6167   59.2782   63.0588 C   0  0  0  0  0  0  0  0  0  0  0  0
  -42.3437   58.0817   62.1614 C   0  0  0  0  0  0  0  0  0  0  0  0
  -42.0300   56.8023   62.9191 C   0  0  0  0  0  0  0  0  0  0  0  0
  -41.6819   57.0240   64.3834 C   0  0  0  0  0  0  0  0  0  0  0  0
  -42.7974   56.6464   65.3497 C   0  0  0  0  0  0  0  0  0  0  0  0
  -43.0816   57.7045   66.4079 C   0  0  0  0  0  0  0  0  0  0  0  0
  -44.5619   58.0202   66.6067 C   0  0  0  0  0  0  0  0  0  0  0  0
  -45.4150   57.8161   65.3558 C   0  0  0  0  0  0  0  0  0  0  0  0
  -46.3124   59.0001   64.9962 C   0  0  0  0  0  0  0  0  0  0  0  0
  -47.7638   58.6037   64.7249 C   0  0  0  0  0  0  0  0  0  0  0  0
  -48.6371   58.4525   65.9704 C   0  0  0  0  0  0  0  0  0  0  0  0
  -50.1422   58.3833   65.6982 C   0  0  0  0  0  0  0  0  0  0  0  0
  -50.7159   59.6984   65.2559 C   0  0  0  0  0  0  0  0  0  0  0  0
  -51.2572   59.9548   64.0782 C   0  0  0  0  0  0  0  0  0  0  0  0
  -51.4098   58.9832   62.9474 C   0  0  0  0  0  0  0  0  0  0  0  0
  -50.2513   59.0159   61.9484 C   0  0  0  0  0  0  0  0  0  0  0  0
  -49.5479   57.6735   61.7977 C   0  0  0  0  0  0  0  0  0  0  0  0
  -49.8605   56.9713   60.4811 C   0  0  0  0  0  0  0  0  0  0  0  0
  -49.5885   57.8107   59.2379 C   0  0  0  0  0  0  0  0  0  0  0  0
  -48.1119   57.9240   58.8859 C   0  0  0  0  0  0  0  0  0  0  0  0
  -47.3971   56.5877   58.7634 C   0  0  0  0  0  0  0  0  0  0  0  0
  -47.6282   55.9162   57.4248 C   0  0  0  0  0  0  0  0  0  0  0  0
  -38.5654   57.8391   65.5611 O   0  0  0  0  0  0  0  0  0  0  0  0
  -38.1685   58.1809   64.2299 C   0  0  0  0  0  0  0  0  0  0  0  0
  -39.4859   58.1096   65.7036 H   0  0  0  0  0  0  0  0  0  0  0  0
  -36.7489   57.7770   63.9737 C   0  0  0  0  0  0  0  0  0  0  0  0
  -36.1629   57.7745   62.7927 C   0  0  0  0  0  0  0  0  0  0  0  0
  -34.7395   57.3801   62.5717 C   0  0  0  0  0  0  0  0  0  0  0  0
  -33.8023   58.1619   63.4945 C   0  0  0  0  0  0  0  0  0  0  0  0
  -32.4156   58.3989   62.9186 C   0  0  0  0  0  0  0  0  0  0  0  0
  -32.3061   59.6349   62.0422 C   0  0  0  0  0  0  0  0  0  0  0  0
  -31.2345   60.6181   62.4903 C   0  0  0  0  0  0  0  0  0  0  0  0
  -30.5983   61.3918   61.3459 C   0  0  0  0  0  0  0  0  0  0  0  0
  -29.6655   62.5005   61.8007 C   0  0  0  0  0  0  0  0  0  0  0  0
  -30.0162   63.8692   61.2476 C   0  0  0  0  0  0  0  0  0  0  0  0
  -29.3314   65.0180   61.9680 C   0  0  0  0  0  0  0  0  0  0  0  0
  -29.1172   64.7484   63.4457 C   0  0  0  0  0  0  0  0  0  0  0  0
  -29.9022   65.6605   64.3690 C   0  0  0  0  0  0  0  0  0  0  0  0
  -31.3451   65.2241   64.5304 C   0  0  0  0  0  0  0  0  0  0  0  0
  -31.4702   63.7665   64.9230 C   0  0  0  0  0  0  0  0  0  0  0  0
  -37.8294   60.5013   65.1820 C   0  0  0  0  0  0  0  0  0  0  0  0
  -36.4465   60.1725   65.3560 O   0  0  0  0  0  0  0  0  0  0  0  0
  -35.5796   61.2340   62.9141 O   0  0  0  0  0  0  0  0  0  0  0  0
  -36.4943   64.6620   65.3502 O   0  0  0  0  0  0  0  0  0  0  0  0
  -35.8020   62.0973   66.4551 O   0  0  0  0  0  0  0  0  0  0  0  0
  -35.5849   61.2728   65.3252 C   0  0  0  0  0  0  0  0  0  0  0  0
  -35.8586   62.0505   64.0444 C   0  0  0  0  0  0  0  0  0  0  0  0
  -35.0014   63.3095   64.0098 C   0  0  0  0  0  0  0  0  0  0  0  0
  -35.1771   64.1255   65.2820 C   0  0  0  0  0  0  0  0  0  0  0  0
  -34.9292   63.2376   66.4989 C   0  0  0  0  0  0  0  0  0  0  0  0
  -36.1308   60.4366   62.9473 H   0  0  0  0  0  0  0  0  0  0  0  0
  -36.6539   65.2265   64.5777 H   0  0  0  0  0  0  0  0  0  0  0  0
  -36.5260   63.7288   68.2590 O   0  0  0  0  0  0  0  0  0  0  0  0
  -35.1921   63.9396   67.8106 C   0  0  0  0  0  0  0  0  0  0  0  0
  -36.6611   64.1915   69.1007 H   0  0  0  0  0  0  0  0  0  0  0  0
  -35.5083   64.0704   62.8682 O   0  0  0  0  0  0  0  0  0  0  0  0
  -35.4616   64.2422   60.4649 O   0  0  0  0  0  0  0  0  0  0  0  0
  -33.4788   63.3439   61.7208 O   0  0  0  0  0  0  0  0  0  0  0  0
  -34.0736   65.6410   61.7970 O   0  0  0  0  0  0  0  0  0  0  0  0
  -34.5892   64.2088   61.5798 S   0  0  0  0  0  0  0  0  0  0  0  0
  -35.8072   63.3513   60.2981 H   0  0  0  0  0  0  0  0  0  0  0  0
  -34.8096   66.2665   61.7079 H   0  0  0  0  0  0  0  0  0  0  0  0
  2  1  1  0  0  0
  2  4  1  0  0  0
  2  5  1  0  0  0
 47 48  1  0  0  0
 47  1  1  0  0  0
 48 52  1  0  0  0
  1 30  1  0  0  0
 29 30  1  0  0  0
 29 31  1  0  0  0
 30 32  1  0  0  0
  3  4  2  0  0  0
 32 33  2  0  0  0
 49 53  1  0  0  0
 49 57  1  0  0  0
 33 34  1  0  0  0
 62 54  1  0  0  0
 62 66  1  0  0  0
 34 35  1  0  0  0
 50 55  1  0  0  0
 50 58  1  0  0  0
 35 36  1  0  0  0
 51 52  1  0  0  0
 51 56  1  0  0  0
 36 37  1  0  0  0
 59 60  1  0  0  0
 59 61  1  0  0  0
 37 38  1  0  0  0
 63 66  1  0  0  0
 63 67  1  0  0  0
 38 39  1  0  0  0
 64 66  1  0  0  0
 39 40  1  0  0  0
 65 66  1  0  0  0
 65 68  1  0  0  0
 40 41  1  0  0  0
 41 42  1  0  0  0
 42 43  1  0  0  0
 43 44  1  0  0  0
 44 45  1  0  0  0
 45 46  1  0  0  0
  4  6  1  0  0  0
  6  7  1  0  0  0
  7  8  1  0  0  0
  8  9  1  0  0  0
  9 10  1  0  0  0
 10 11  1  0  0  0
 11 12  1  0  0  0
 12 13  1  0  0  0
 13 14  1  0  0  0
 14 15  1  0  0  0
 15 16  1  0  0  0
 16 17  1  0  0  0
 17 18  1  0  0  0
 18 19  1  0  0  0
 19 20  2  0  0  0
 20 21  1  0  0  0
 21 22  1  0  0  0
 22 23  1  0  0  0
 23 24  1  0  0  0
 24 25  1  0  0  0
 25 26  1  0  0  0
 26 27  1  0  0  0
 27 28  1  0  0  0
 52 53  1  0  0  0
 53 54  1  0  0  0
 54 55  1  0  0  0
 55 56  1  0  0  0
 56 60  1  0  0  0
M  CHG 1  64  -1
M  END
> <minimizedAffinity>
-9.11553

> <CNNscore>
0.1177827716

> <CNNaffinity>
6.8723359108

> <CNN_VS>
0.8094427586

> <CNNaffinity_variance>
1.0479161739

$$$$
/media/chris/experiments/cd1a-new-docking/inputs/ligands/7ryn_ligand.pdb


 68 68  0  0  0  0  0  0  0  0999 V2000
  -37.4189   59.2575   62.5319 C   0  0  0  0  0  0  0  0  0  0  0  0
  -38.6236   58.7300   61.8980 N   0  0  0  0  0  0  0  0  0  0  0  0
  -38.2643   59.6771   59.8876 O   0  0  0  0  0  0  0  0  0  0  0  0
  -38.9523   58.9801   60.6278 C   0  0  0  0  0  0  0  0  0  0  0  0
  -39.2234   58.1618   62.4333 H   0  0  0  0  0  0  0  0  0  0  0  0
  -40.2314   58.3413   60.1471 C   0  0  0  0  0  0  0  0  0  0  0  0
  -41.4673   58.9361   60.8099 C   0  0  0  0  0  0  0  0  0  0  0  0
  -42.3085   57.8919   61.5263 C   0  0  0  0  0  0  0  0  0  0  0  0
  -41.5073   56.7164   62.0609 C   0  0  0  0  0  0  0  0  0  0  0  0
  -41.5336   56.5925   63.5770 C   0  0  0  0  0  0  0  0  0  0  0  0
  -40.6742   57.6233   64.2980 C   0  0  0  0  0  0  0  0  0  0  0  0
  -41.2734   58.1186   65.6079 C   0  0  0  0  0  0  0  0  0  0  0  0
  -42.4430   59.0858   65.4439 C   0  0  0  0  0  0  0  0  0  0  0  0
  -43.5248   58.9410   66.5130 C   0  0  0  0  0  0  0  0  0  0  0  0
  -44.7737   58.1864   66.0579 C   0  0  0  0  0  0  0  0  0  0  0  0
  -45.2517   58.5864   64.6619 C   0  0  0  0  0  0  0  0  0  0  0  0
  -46.7602   58.4800   64.4390 C   0  0  0  0  0  0  0  0  0  0  0  0
  -47.6135   59.3280   65.3860 C   0  0  0  0  0  0  0  0  0  0  0  0
  -48.3280   60.4463   64.6837 C   0  0  0  0  0  0  0  0  0  0  0  0
  -49.5354   60.3851   64.1504 C   0  0  0  0  0  0  0  0  0  0  0  0
  -50.4359   59.1873   64.1419 C   0  0  0  0  0  0  0  0  0  0  0  0
  -51.2337   59.0275   62.8460 C   0  0  0  0  0  0  0  0  0  0  0  0
  -50.5713   58.0930   61.8423 C   0  0  0  0  0  0  0  0  0  0  0  0
  -49.6168   58.8058   60.8908 C   0  0  0  0  0  0  0  0  0  0  0  0
  -49.4109   58.0985   59.5562 C   0  0  0  0  0  0  0  0  0  0  0  0
  -48.0549   57.4193   59.4254 C   0  0  0  0  0  0  0  0  0  0  0  0
  -47.8828   56.6143   58.1470 C   0  0  0  0  0  0  0  0  0  0  0  0
  -47.6721   57.4860   56.9256 C   0  0  0  0  0  0  0  0  0  0  0  0
  -37.0905   58.8290   64.8864 O   0  0  0  0  0  0  0  0  0  0  0  0
  -36.9184   58.2573   63.5864 C   0  0  0  0  0  0  0  0  0  0  0  0
  -38.0229   59.0627   65.0159 H   0  0  0  0  0  0  0  0  0  0  0  0
  -35.4870   57.8834   63.3507 C   0  0  0  0  0  0  0  0  0  0  0  0
  -34.8024   58.1562   62.2576 C   0  0  0  0  0  0  0  0  0  0  0  0
  -33.3701   57.7824   62.0587 C   0  0  0  0  0  0  0  0  0  0  0  0
  -32.4781   58.4407   63.1131 C   0  0  0  0  0  0  0  0  0  0  0  0
  -32.4361   59.9582   63.0343 C   0  0  0  0  0  0  0  0  0  0  0  0
  -31.5865   60.5014   61.8981 C   0  0  0  0  0  0  0  0  0  0  0  0
  -30.1011   60.5804   62.2194 C   0  0  0  0  0  0  0  0  0  0  0  0
  -29.4775   61.9298   61.8978 C   0  0  0  0  0  0  0  0  0  0  0  0
  -29.4651   62.8934   63.0714 C   0  0  0  0  0  0  0  0  0  0  0  0
  -29.4318   64.3563   62.6699 C   0  0  0  0  0  0  0  0  0  0  0  0
  -29.9641   64.6231   61.2724 C   0  0  0  0  0  0  0  0  0  0  0  0
  -30.2396   66.0925   61.0128 C   0  0  0  0  0  0  0  0  0  0  0  0
  -31.5957   66.3759   60.3956 C   0  0  0  0  0  0  0  0  0  0  0  0
  -32.7154   65.6095   61.0721 C   0  0  0  0  0  0  0  0  0  0  0  0
  -33.7714   66.5227   61.6596 C   0  0  0  0  0  0  0  0  0  0  0  0
  -37.7007   60.6205   63.1295 C   0  0  0  0  0  0  0  0  0  0  0  0
  -36.5741   61.4665   62.8727 O   0  0  0  0  0  0  0  0  0  0  0  0
  -34.1702   62.8812   62.6250 O   0  0  0  0  0  0  0  0  0  0  0  0
  -36.0619   64.5155   66.1283 O   0  0  0  0  0  0  0  0  0  0  0  0
  -36.6101   61.8676   65.1456 O   0  0  0  0  0  0  0  0  0  0  0  0
  -35.7914   61.7401   63.9980 C   0  0  0  0  0  0  0  0  0  0  0  0
  -35.0354   63.0377   63.7426 C   0  0  0  0  0  0  0  0  0  0  0  0
  -34.2341   63.4222   64.9799 C   0  0  0  0  0  0  0  0  0  0  0  0
  -35.1194   63.4518   66.2172 C   0  0  0  0  0  0  0  0  0  0  0  0
  -35.8645   62.1256   66.3462 C   0  0  0  0  0  0  0  0  0  0  0  0
  -34.6915   62.6367   61.8444 H   0  0  0  0  0  0  0  0  0  0  0  0
  -35.5904   65.3592   66.0462 H   0  0  0  0  0  0  0  0  0  0  0  0
  -36.4439   62.9632   68.5488 O   0  0  0  0  0  0  0  0  0  0  0  0
  -36.8538   62.1080   67.4879 C   0  0  0  0  0  0  0  0  0  0  0  0
  -37.0990   62.9286   69.2633 H   0  0  0  0  0  0  0  0  0  0  0  0
  -33.7441   64.7712   64.6982 O   0  0  0  0  0  0  0  0  0  0  0  0
  -31.8709   66.2669   64.4501 O   0  0  0  0  0  0  0  0  0  0  0  0
  -31.5778   64.0213   65.5398 O   0  0  0  0  0  0  0  0  0  0  0  0
  -32.7492   65.7884   66.6082 O   0  0  0  0  0  0  0  0  0  0  0  0
  -32.3183   65.1931   65.2576 S   0  0  0  0  0  0  0  0  0  0  0  0
  -31.5899   65.9265   63.5864 H   0  0  0  0  0  0  0  0  0  0  0  0
  -33.2621   66.5976   66.4560 H   0  0  0  0  0  0  0  0  0  0  0  0
  2  1  1  0  0  0
  2  4  1  0  0  0
  2  5  1  0  0  0
 47 48  1  0  0  0
 47  1  1  0  0  0
 48 52  1  0  0  0
  1 30  1  0  0  0
 29 30  1  0  0  0
 29 31  1  0  0  0
 30 32  1  0  0  0
  3  4  2  0  0  0
 32 33  2  0  0  0
 49 53  1  0  0  0
 49 57  1  0  0  0
 33 34  1  0  0  0
 62 54  1  0  0  0
 62 66  1  0  0  0
 34 35  1  0  0  0
 50 55  1  0  0  0
 50 58  1  0  0  0
 35 36  1  0  0  0
 51 52  1  0  0  0
 51 56  1  0  0  0
 36 37  1  0  0  0
 59 60  1  0  0  0
 59 61  1  0  0  0
 37 38  1  0  0  0
 63 66  1  0  0  0
 63 67  1  0  0  0
 38 39  1  0  0  0
 64 66  1  0  0  0
 39 40  1  0  0  0
 65 66  1  0  0  0
 65 68  1  0  0  0
 40 41  1  0  0  0
 41 42  1  0  0  0
 42 43  1  0  0  0
 43 44  1  0  0  0
 44 45  1  0  0  0
 45 46  1  0  0  0
  4  6  1  0  0  0
  6  7  1  0  0  0
  7  8  1  0  0  0
  8  9  1  0  0  0
  9 10  1  0  0  0
 10 11  1  0  0  0
 11 12  1  0  0  0
 12 13  1  0  0  0
 13 14  1  0  0  0
 14 15  1  0  0  0
 15 16  1  0  0  0
 16 17  1  0  0  0
 17 18  1  0  0  0
 18 19  1  0  0  0
 19 20  2  0  0  0
 20 21  1  0  0  0
 21 22  1  0  0  0
 22 23  1  0  0  0
 23 24  1  0  0  0
 24 25  1  0  0  0
 25 26  1  0  0  0
 26 27  1  0  0  0
 27 28  1  0  0  0
 52 53  1  0  0  0
 53 54  1  0  0  0
 54 55  1  0  0  0
 55 56  1  0  0  0
 56 60  1  0  0  0
M  CHG 1  64  -1
M  END
> <minimizedAffinity>
-8.95592

> <CNNscore>
0.1064119563

> <CNNaffinity>
6.9749040604

> <CNN_VS>
0.7422131896

> <CNNaffinity_variance>
0.9078229666

$$$$
