/media/chris/experiments/cd1a-new-docking/inputs/ligands/7ryn_ligand.pdb


 68 68  0  0  0  0  0  0  0  0999 V2000
  -35.2546   62.4804   64.3956 C   0  0  0  0  0  0  0  0  0  0  0  0
  -36.3679   62.0964   63.5328 N   0  0  0  0  0  0  0  0  0  0  0  0
  -38.3293   61.0370   63.2189 O   0  0  0  0  0  0  0  0  0  0  0  0
  -37.4034   61.3659   63.9549 C   0  0  0  0  0  0  0  0  0  0  0  0
  -36.3547   62.3904   62.5934 H   0  0  0  0  0  0  0  0  0  0  0  0
  -37.3648   60.9568   65.4063 C   0  0  0  0  0  0  0  0  0  0  0  0
  -38.6003   60.1702   65.8252 C   0  0  0  0  0  0  0  0  0  0  0  0
  -38.5120   58.6984   65.4549 C   0  0  0  0  0  0  0  0  0  0  0  0
  -39.8409   58.0852   65.0458 C   0  0  0  0  0  0  0  0  0  0  0  0
  -41.0492   58.9327   65.4149 C   0  0  0  0  0  0  0  0  0  0  0  0
  -42.0745   58.2078   66.2775 C   0  0  0  0  0  0  0  0  0  0  0  0
  -43.0435   57.3394   65.4854 C   0  0  0  0  0  0  0  0  0  0  0  0
  -43.7544   58.0622   64.3440 C   0  0  0  0  0  0  0  0  0  0  0  0
  -45.1861   58.4838   64.6706 C   0  0  0  0  0  0  0  0  0  0  0  0
  -45.8480   57.6787   65.7887 C   0  0  0  0  0  0  0  0  0  0  0  0
  -46.6859   58.5331   66.7402 C   0  0  0  0  0  0  0  0  0  0  0  0
  -48.1766   58.5993   66.4081 C   0  0  0  0  0  0  0  0  0  0  0  0
  -48.7029   59.9992   66.0808 C   0  0  0  0  0  0  0  0  0  0  0  0
  -48.4671   60.3914   64.6509 C   0  0  0  0  0  0  0  0  0  0  0  0
  -49.3669   60.3850   63.6834 C   0  0  0  0  0  0  0  0  0  0  0  0
  -50.8055   59.9877   63.8197 C   0  0  0  0  0  0  0  0  0  0  0  0
  -51.2383   58.8985   62.8359 C   0  0  0  0  0  0  0  0  0  0  0  0
  -50.0828   58.0352   62.3470 C   0  0  0  0  0  0  0  0  0  0  0  0
  -50.2309   57.5916   60.8960 C   0  0  0  0  0  0  0  0  0  0  0  0
  -49.3486   58.3501   59.9109 C   0  0  0  0  0  0  0  0  0  0  0  0
  -48.8397   57.4945   58.7594 C   0  0  0  0  0  0  0  0  0  0  0  0
  -47.7004   58.1234   57.9730 C   0  0  0  0  0  0  0  0  0  0  0  0
  -46.9628   57.1250   57.1040 C   0  0  0  0  0  0  0  0  0  0  0  0
  -34.2412   61.7619   66.4672 O   0  0  0  0  0  0  0  0  0  0  0  0
  -34.8445   61.2796   65.2632 C   0  0  0  0  0  0  0  0  0  0  0  0
  -34.8604   62.3512   66.9256 H   0  0  0  0  0  0  0  0  0  0  0  0
  -33.9147   60.3643   64.5272 C   0  0  0  0  0  0  0  0  0  0  0  0
  -34.0614   59.0583   64.4232 C   0  0  0  0  0  0  0  0  0  0  0  0
  -33.1239   58.1737   63.6688 C   0  0  0  0  0  0  0  0  0  0  0  0
  -33.8589   57.4021   62.5707 C   0  0  0  0  0  0  0  0  0  0  0  0
  -35.1887   58.0150   62.1620 C   0  0  0  0  0  0  0  0  0  0  0  0
  -36.4050   57.3049   62.7314 C   0  0  0  0  0  0  0  0  0  0  0  0
  -37.7034   57.6219   62.0038 C   0  0  0  0  0  0  0  0  0  0  0  0
  -37.5269   58.5612   60.8206 C   0  0  0  0  0  0  0  0  0  0  0  0
  -38.8194   58.8685   60.0851 C   0  0  0  0  0  0  0  0  0  0  0  0
  -40.0361   58.1603   60.6511 C   0  0  0  0  0  0  0  0  0  0  0  0
  -41.3592   58.7286   60.1678 C   0  0  0  0  0  0  0  0  0  0  0  0
  -41.5880   60.1611   60.6131 C   0  0  0  0  0  0  0  0  0  0  0  0
  -41.6279   60.3505   62.1173 C   0  0  0  0  0  0  0  0  0  0  0  0
  -42.8553   61.1131   62.5761 C   0  0  0  0  0  0  0  0  0  0  0  0
  -43.0090   62.4442   61.8699 C   0  0  0  0  0  0  0  0  0  0  0  0
  -35.6374   63.6829   65.2333 C   0  0  0  0  0  0  0  0  0  0  0  0
  -34.4371   64.3534   65.6338 O   0  0  0  0  0  0  0  0  0  0  0  0
  -31.8756   63.4216   64.9923 O   0  0  0  0  0  0  0  0  0  0  0  0
  -33.8316   63.9848   61.2003 O   0  0  0  0  0  0  0  0  0  0  0  0
  -34.6014   65.4011   63.5834 O   0  0  0  0  0  0  0  0  0  0  0  0
  -33.7169   64.9230   64.5798 C   0  0  0  0  0  0  0  0  0  0  0  0
  -32.8005   63.8524   64.0019 C   0  0  0  0  0  0  0  0  0  0  0  0
  -32.0578   64.4047   62.7916 C   0  0  0  0  0  0  0  0  0  0  0  0
  -33.0264   65.0044   61.7830 C   0  0  0  0  0  0  0  0  0  0  0  0
  -33.9256   66.0232   62.4788 C   0  0  0  0  0  0  0  0  0  0  0  0
  -32.3599   63.0726   65.7569 H   0  0  0  0  0  0  0  0  0  0  0  0
  -33.2620   63.3363   60.7577 H   0  0  0  0  0  0  0  0  0  0  0  0
  -36.2991   66.2327   62.0190 O   0  0  0  0  0  0  0  0  0  0  0  0
  -34.9952   66.5884   61.5738 C   0  0  0  0  0  0  0  0  0  0  0  0
  -36.9601   66.6101   61.4178 H   0  0  0  0  0  0  0  0  0  0  0  0
  -31.3968   63.2412   62.2012 O   0  0  0  0  0  0  0  0  0  0  0  0
  -29.5712   64.5298   61.2993 O   0  0  0  0  0  0  0  0  0  0  0  0
  -29.3897   62.0324   61.5130 O   0  0  0  0  0  0  0  0  0  0  0  0
  -29.3572   63.4576   63.4116 O   0  0  0  0  0  0  0  0  0  0  0  0
  -29.8284   63.3022   61.9564 S   0  0  0  0  0  0  0  0  0  0  0  0
  -29.8574   64.4678   60.3745 H   0  0  0  0  0  0  0  0  0  0  0  0
  -29.6403   64.3203   63.7527 H   0  0  0  0  0  0  0  0  0  0  0  0
  2  1  1  0  0  0
  2  4  1  0  0  0
  2  5  1  0  0  0
 47 48  1  0  0  0
 47  1  1  0  0  0
 48 52  1  0  0  0
  1 30  1  0  0  0
 29 30  1  0  0  0
 29 31  1  0  0  0
 30 32  1  0  0  0
  3  4  2  0  0  0
 32 33  2  0  0  0
 49 53  1  0  0  0
 49 57  1  0  0  0
 33 34  1  0  0  0
 62 54  1  0  0  0
 62 66  1  0  0  0
 34 35  1  0  0  0
 50 55  1  0  0  0
 50 58  1  0  0  0
 35 36  1  0  0  0
 51 52  1  0  0  0
 51 56  1  0  0  0
 36 37  1  0  0  0
 59 60  1  0  0  0
 59 61  1  0  0  0
 37 38  1  0  0  0
 63 66  1  0  0  0
 63 67  1  0  0  0
 38 39  1  0  0  0
 64 66  1  0  0  0
 39 40  1  0  0  0
 65 66  1  0  0  0
 65 68  1  0  0  0
 40 41  1  0  0  0
 41 42  1  0  0  0
 42 43  1  0  0  0
 43 44  1  0  0  0
 44 45  1  0  0  0
 45 46  1  0  0  0
  4  6  1  0  0  0
  6  7  1  0  0  0
  7  8  1  0  0  0
  8  9  1  0  0  0
  9 10  1  0  0  0
 10 11  1  0  0  0
 11 12  1  0  0  0
 12 13  1  0  0  0
 13 14  1  0  0  0
 14 15  1  0  0  0
 15 16  1  0  0  0
 16 17  1  0  0  0
 17 18  1  0  0  0
 18 19  1  0  0  0
 19 20  2  0  0  0
 20 21  1  0  0  0
 21 22  1  0  0  0
 22 23  1  0  0  0
 23 24  1  0  0  0
 24 25  1  0  0  0
 25 26  1  0  0  0
 26 27  1  0  0  0
 27 28  1  0  0  0
 52 53  1  0  0  0
 53 54  1  0  0  0
 54 55  1  0  0  0
 55 56  1  0  0  0
 56 60  1  0  0  0
M  CHG 1  64  -1
M  END
> <minimizedAffinity>
-9.90829

> <CNNscore>
0.4788965285

> <CNNaffinity>
7.4326109886

> <CNN_VS>
3.5594515800

> <CNNaffinity_variance>
1.9429953098

$$$$
/media/chris/experiments/cd1a-new-docking/inputs/ligands/7ryn_ligand.pdb


 68 68  0  0  0  0  0  0  0  0999 V2000
  -35.3309   62.5655   63.9517 C   0  0  0  0  0  0  0  0  0  0  0  0
  -36.4256   62.0349   63.1447 N   0  0  0  0  0  0  0  0  0  0  0  0
  -38.3210   60.8345   62.9595 O   0  0  0  0  0  0  0  0  0  0  0  0
  -37.4111   61.2871   63.6482 C   0  0  0  0  0  0  0  0  0  0  0  0
  -36.4380   62.2383   62.1815 H   0  0  0  0  0  0  0  0  0  0  0  0
  -37.3358   61.0211   65.1311 C   0  0  0  0  0  0  0  0  0  0  0  0
  -38.2798   59.9109   65.5748 C   0  0  0  0  0  0  0  0  0  0  0  0
  -39.6882   60.4135   65.8492 C   0  0  0  0  0  0  0  0  0  0  0  0
  -40.7045   59.3064   66.0744 C   0  0  0  0  0  0  0  0  0  0  0  0
  -40.7204   58.2532   64.9767 C   0  0  0  0  0  0  0  0  0  0  0  0
  -41.7866   57.1808   65.1621 C   0  0  0  0  0  0  0  0  0  0  0  0
  -42.8303   57.5245   66.2170 C   0  0  0  0  0  0  0  0  0  0  0  0
  -44.2460   57.7011   65.6737 C   0  0  0  0  0  0  0  0  0  0  0  0
  -45.1428   58.5772   66.5469 C   0  0  0  0  0  0  0  0  0  0  0  0
  -46.4337   57.9037   67.0118 C   0  0  0  0  0  0  0  0  0  0  0  0
  -47.3883   57.5618   65.8677 C   0  0  0  0  0  0  0  0  0  0  0  0
  -48.8478   57.9496   66.1048 C   0  0  0  0  0  0  0  0  0  0  0  0
  -49.1114   59.4559   66.1775 C   0  0  0  0  0  0  0  0  0  0  0  0
  -48.5171   60.2085   65.0223 C   0  0  0  0  0  0  0  0  0  0  0  0
  -48.9786   60.2257   63.7843 C   0  0  0  0  0  0  0  0  0  0  0  0
  -50.1906   59.4994   63.2850 C   0  0  0  0  0  0  0  0  0  0  0  0
  -49.8637   58.2569   62.4538 C   0  0  0  0  0  0  0  0  0  0  0  0
  -50.8412   58.0238   61.3094 C   0  0  0  0  0  0  0  0  0  0  0  0
  -50.1681   57.5513   60.0257 C   0  0  0  0  0  0  0  0  0  0  0  0
  -48.8862   56.7550   60.2414 C   0  0  0  0  0  0  0  0  0  0  0  0
  -48.0181   56.6417   58.9962 C   0  0  0  0  0  0  0  0  0  0  0  0
  -47.9042   57.9305   58.1976 C   0  0  0  0  0  0  0  0  0  0  0  0
  -46.8328   57.8682   57.1279 C   0  0  0  0  0  0  0  0  0  0  0  0
  -34.1356   62.0002   65.9732 O   0  0  0  0  0  0  0  0  0  0  0  0
  -34.7293   61.4344   64.8011 C   0  0  0  0  0  0  0  0  0  0  0  0
  -34.8025   62.5094   66.4598 H   0  0  0  0  0  0  0  0  0  0  0  0
  -33.7263   60.6391   64.0229 C   0  0  0  0  0  0  0  0  0  0  0  0
  -33.4821   59.3546   64.1911 C   0  0  0  0  0  0  0  0  0  0  0  0
  -32.4851   58.5856   63.3880 C   0  0  0  0  0  0  0  0  0  0  0  0
  -33.1804   57.6668   62.3812 C   0  0  0  0  0  0  0  0  0  0  0  0
  -34.6785   57.8948   62.2610 C   0  0  0  0  0  0  0  0  0  0  0  0
  -35.5095   57.1389   63.2838 C   0  0  0  0  0  0  0  0  0  0  0  0
  -36.9584   57.5969   63.3642 C   0  0  0  0  0  0  0  0  0  0  0  0
  -37.6744   57.5969   62.0223 C   0  0  0  0  0  0  0  0  0  0  0  0
  -38.9802   56.8219   62.0255 C   0  0  0  0  0  0  0  0  0  0  0  0
  -40.1955   57.6569   61.6674 C   0  0  0  0  0  0  0  0  0  0  0  0
  -39.9561   58.6364   60.5313 C   0  0  0  0  0  0  0  0  0  0  0  0
  -40.7615   59.9148   60.6702 C   0  0  0  0  0  0  0  0  0  0  0  0
  -41.8365   59.8648   61.7390 C   0  0  0  0  0  0  0  0  0  0  0  0
  -41.8823   61.1262   62.5788 C   0  0  0  0  0  0  0  0  0  0  0  0
  -42.9515   62.0936   62.1148 C   0  0  0  0  0  0  0  0  0  0  0  0
  -35.8244   63.7161   64.8043 C   0  0  0  0  0  0  0  0  0  0  0  0
  -35.3178   64.9361   64.2513 O   0  0  0  0  0  0  0  0  0  0  0  0
  -34.2362   65.3214   61.6973 O   0  0  0  0  0  0  0  0  0  0  0  0
  -31.8010   67.7267   64.3063 O   0  0  0  0  0  0  0  0  0  0  0  0
  -33.2833   65.4366   65.2205 O   0  0  0  0  0  0  0  0  0  0  0  0
  -33.9330   64.9503   64.0607 C   0  0  0  0  0  0  0  0  0  0  0  0
  -33.6301   65.8505   62.8699 C   0  0  0  0  0  0  0  0  0  0  0  0
  -32.1231   65.9660   62.6782 C   0  0  0  0  0  0  0  0  0  0  0  0
  -31.4390   66.3916   63.9690 C   0  0  0  0  0  0  0  0  0  0  0  0
  -31.8518   65.4543   65.1012 C   0  0  0  0  0  0  0  0  0  0  0  0
  -35.1943   65.2526   61.8316 H   0  0  0  0  0  0  0  0  0  0  0  0
  -31.5396   68.3239   63.5881 H   0  0  0  0  0  0  0  0  0  0  0  0
  -32.3345   66.3572   67.3013 O   0  0  0  0  0  0  0  0  0  0  0  0
  -31.3058   65.8708   66.4469 C   0  0  0  0  0  0  0  0  0  0  0  0
  -31.9512   66.6152   68.1542 H   0  0  0  0  0  0  0  0  0  0  0  0
  -31.9580   67.0129   61.6703 O   0  0  0  0  0  0  0  0  0  0  0  0
  -31.5372   65.4916   59.8494 O   0  0  0  0  0  0  0  0  0  0  0  0
  -29.7083   66.9785   60.7211 O   0  0  0  0  0  0  0  0  0  0  0  0
  -31.5375   67.8408   59.4772 O   0  0  0  0  0  0  0  0  0  0  0  0
  -31.0583   66.7062   60.3975 S   0  0  0  0  0  0  0  0  0  0  0  0
  -31.2523   64.7507   60.4071 H   0  0  0  0  0  0  0  0  0  0  0  0
  -32.4637   67.6890   59.2322 H   0  0  0  0  0  0  0  0  0  0  0  0
  2  1  1  0  0  0
  2  4  1  0  0  0
  2  5  1  0  0  0
 47 48  1  0  0  0
 47  1  1  0  0  0
 48 52  1  0  0  0
  1 30  1  0  0  0
 29 30  1  0  0  0
 29 31  1  0  0  0
 30 32  1  0  0  0
  3  4  2  0  0  0
 32 33  2  0  0  0
 49 53  1  0  0  0
 49 57  1  0  0  0
 33 34  1  0  0  0
 62 54  1  0  0  0
 62 66  1  0  0  0
 34 35  1  0  0  0
 50 55  1  0  0  0
 50 58  1  0  0  0
 35 36  1  0  0  0
 51 52  1  0  0  0
 51 56  1  0  0  0
 36 37  1  0  0  0
 59 60  1  0  0  0
 59 61  1  0  0  0
 37 38  1  0  0  0
 63 66  1  0  0  0
 63 67  1  0  0  0
 38 39  1  0  0  0
 64 66  1  0  0  0
 39 40  1  0  0  0
 65 66  1  0  0  0
 65 68  1  0  0  0
 40 41  1  0  0  0
 41 42  1  0  0  0
 42 43  1  0  0  0
 43 44  1  0  0  0
 44 45  1  0  0  0
 45 46  1  0  0  0
  4  6  1  0  0  0
  6  7  1  0  0  0
  7  8  1  0  0  0
  8  9  1  0  0  0
  9 10  1  0  0  0
 10 11  1  0  0  0
 11 12  1  0  0  0
 12 13  1  0  0  0
 13 14  1  0  0  0
 14 15  1  0  0  0
 15 16  1  0  0  0
 16 17  1  0  0  0
 17 18  1  0  0  0
 18 19  1  0  0  0
 19 20  2  0  0  0
 20 21  1  0  0  0
 21 22  1  0  0  0
 22 23  1  0  0  0
 23 24  1  0  0  0
 24 25  1  0  0  0
 25 26  1  0  0  0
 26 27  1  0  0  0
 27 28  1  0  0  0
 52 53  1  0  0  0
 53 54  1  0  0  0
 54 55  1  0  0  0
 55 56  1  0  0  0
 56 60  1  0  0  0
M  CHG 1  64  -1
M  END
> <minimizedAffinity>
-9.45924

> <CNNscore>
0.4253935814

> <CNNaffinity>
7.3970794678

> <CNN_VS>
3.1466701031

> <CNNaffinity_variance>
1.2451701164

$$$$
/media/chris/experiments/cd1a-new-docking/inputs/ligands/7ryn_ligand.pdb


 68 68  0  0  0  0  0  0  0  0999 V2000
  -37.2069   59.1057   63.0963 C   0  0  0  0  0  0  0  0  0  0  0  0
  -37.3061   59.2269   61.6449 N   0  0  0  0  0  0  0  0  0  0  0  0
  -38.2626   58.6486   59.6907 O   0  0  0  0  0  0  0  0  0  0  0  0
  -38.1947   58.5500   60.9125 C   0  0  0  0  0  0  0  0  0  0  0  0
  -36.6875   59.8378   61.1830 H   0  0  0  0  0  0  0  0  0  0  0  0
  -39.1172   57.6392   61.6836 C   0  0  0  0  0  0  0  0  0  0  0  0
  -40.4981   57.5322   61.0493 C   0  0  0  0  0  0  0  0  0  0  0  0
  -41.5858   57.2130   62.0624 C   0  0  0  0  0  0  0  0  0  0  0  0
  -41.0831   56.4830   63.2967 C   0  0  0  0  0  0  0  0  0  0  0  0
  -41.3983   57.1951   64.6036 C   0  0  0  0  0  0  0  0  0  0  0  0
  -42.7091   56.7596   65.2463 C   0  0  0  0  0  0  0  0  0  0  0  0
  -43.8959   57.6445   64.8874 C   0  0  0  0  0  0  0  0  0  0  0  0
  -45.1296   57.4353   65.7620 C   0  0  0  0  0  0  0  0  0  0  0  0
  -45.9824   58.6896   65.9450 C   0  0  0  0  0  0  0  0  0  0  0  0
  -46.8216   59.0729   64.7264 C   0  0  0  0  0  0  0  0  0  0  0  0
  -48.1852   59.6626   65.0872 C   0  0  0  0  0  0  0  0  0  0  0  0
  -48.9939   58.8514   66.0995 C   0  0  0  0  0  0  0  0  0  0  0  0
  -50.4737   58.6740   65.7494 C   0  0  0  0  0  0  0  0  0  0  0  0
  -51.0713   59.8927   65.1077 C   0  0  0  0  0  0  0  0  0  0  0  0
  -51.4063   60.0176   63.8357 C   0  0  0  0  0  0  0  0  0  0  0  0
  -51.2598   58.9661   62.7779 C   0  0  0  0  0  0  0  0  0  0  0  0
  -50.0480   59.1751   61.8672 C   0  0  0  0  0  0  0  0  0  0  0  0
  -49.3397   57.8778   61.5004 C   0  0  0  0  0  0  0  0  0  0  0  0
  -49.5816   57.4430   60.0594 C   0  0  0  0  0  0  0  0  0  0  0  0
  -48.7591   56.2380   59.6171 C   0  0  0  0  0  0  0  0  0  0  0  0
  -47.4131   56.6047   59.0083 C   0  0  0  0  0  0  0  0  0  0  0  0
  -47.3135   56.3415   57.5141 C   0  0  0  0  0  0  0  0  0  0  0  0
  -47.3898   57.6083   56.6862 C   0  0  0  0  0  0  0  0  0  0  0  0
  -37.3918   57.3042   64.6948 O   0  0  0  0  0  0  0  0  0  0  0  0
  -36.7732   57.6766   63.4599 C   0  0  0  0  0  0  0  0  0  0  0  0
  -38.3547   57.3853   64.6114 H   0  0  0  0  0  0  0  0  0  0  0  0
  -35.2823   57.5633   63.5519 C   0  0  0  0  0  0  0  0  0  0  0  0
  -34.4924   58.4268   64.1589 C   0  0  0  0  0  0  0  0  0  0  0  0
  -33.0090   58.2778   64.2464 C   0  0  0  0  0  0  0  0  0  0  0  0
  -32.3847   58.1608   62.8543 C   0  0  0  0  0  0  0  0  0  0  0  0
  -32.5081   59.4179   62.0085 C   0  0  0  0  0  0  0  0  0  0  0  0
  -31.6712   60.5864   62.5005 C   0  0  0  0  0  0  0  0  0  0  0  0
  -30.1704   60.3704   62.3714 C   0  0  0  0  0  0  0  0  0  0  0  0
  -29.4217   61.5848   61.8441 C   0  0  0  0  0  0  0  0  0  0  0  0
  -30.2707   62.8415   61.7679 C   0  0  0  0  0  0  0  0  0  0  0  0
  -29.5354   64.1090   62.1617 C   0  0  0  0  0  0  0  0  0  0  0  0
  -29.9534   64.6692   63.5103 C   0  0  0  0  0  0  0  0  0  0  0  0
  -30.7042   63.6639   64.3637 C   0  0  0  0  0  0  0  0  0  0  0  0
  -32.0350   64.1622   64.8935 C   0  0  0  0  0  0  0  0  0  0  0  0
  -32.0740   65.6702   65.0450 C   0  0  0  0  0  0  0  0  0  0  0  0
  -31.2350   66.1585   66.2077 C   0  0  0  0  0  0  0  0  0  0  0  0
  -38.5255   59.4810   63.7403 C   0  0  0  0  0  0  0  0  0  0  0  0
  -38.5101   60.8870   64.0118 O   0  0  0  0  0  0  0  0  0  0  0  0
  -36.9230   62.0383   62.0127 O   0  0  0  0  0  0  0  0  0  0  0  0
  -36.4996   64.6517   65.4059 O   0  0  0  0  0  0  0  0  0  0  0  0
  -37.2175   61.8763   65.6488 O   0  0  0  0  0  0  0  0  0  0  0  0
  -37.2460   61.4008   64.3158 C   0  0  0  0  0  0  0  0  0  0  0  0
  -36.9525   62.5366   63.3442 C   0  0  0  0  0  0  0  0  0  0  0  0
  -35.6193   63.1856   63.6941 C   0  0  0  0  0  0  0  0  0  0  0  0
  -35.5782   63.5946   65.1591 C   0  0  0  0  0  0  0  0  0  0  0  0
  -35.9358   62.3970   66.0359 C   0  0  0  0  0  0  0  0  0  0  0  0
  -37.7762   61.6279   61.8021 H   0  0  0  0  0  0  0  0  0  0  0  0
  -36.2741   65.4137   64.8496 H   0  0  0  0  0  0  0  0  0  0  0  0
  -34.9766   63.6115   67.9050 O   0  0  0  0  0  0  0  0  0  0  0  0
  -36.0289   62.7416   67.5039 C   0  0  0  0  0  0  0  0  0  0  0  0
  -35.0656   63.8123   68.8498 H   0  0  0  0  0  0  0  0  0  0  0  0
  -35.5577   64.3800   62.8521 O   0  0  0  0  0  0  0  0  0  0  0  0
  -35.6141   64.3179   60.4438 O   0  0  0  0  0  0  0  0  0  0  0  0
  -33.6415   63.3979   61.7001 O   0  0  0  0  0  0  0  0  0  0  0  0
  -34.0691   65.7298   61.5737 O   0  0  0  0  0  0  0  0  0  0  0  0
  -34.6939   64.3260   61.5200 S   0  0  0  0  0  0  0  0  0  0  0  0
  -36.0291   63.4435   60.3799 H   0  0  0  0  0  0  0  0  0  0  0  0
  -34.7627   66.3972   61.4535 H   0  0  0  0  0  0  0  0  0  0  0  0
  2  1  1  0  0  0
  2  4  1  0  0  0
  2  5  1  0  0  0
 47 48  1  0  0  0
 47  1  1  0  0  0
 48 52  1  0  0  0
  1 30  1  0  0  0
 29 30  1  0  0  0
 29 31  1  0  0  0
 30 32  1  0  0  0
  3  4  2  0  0  0
 32 33  2  0  0  0
 49 53  1  0  0  0
 49 57  1  0  0  0
 33 34  1  0  0  0
 62 54  1  0  0  0
 62 66  1  0  0  0
 34 35  1  0  0  0
 50 55  1  0  0  0
 50 58  1  0  0  0
 35 36  1  0  0  0
 51 52  1  0  0  0
 51 56  1  0  0  0
 36 37  1  0  0  0
 59 60  1  0  0  0
 59 61  1  0  0  0
 37 38  1  0  0  0
 63 66  1  0  0  0
 63 67  1  0  0  0
 38 39  1  0  0  0
 64 66  1  0  0  0
 39 40  1  0  0  0
 65 66  1  0  0  0
 65 68  1  0  0  0
 40 41  1  0  0  0
 41 42  1  0  0  0
 42 43  1  0  0  0
 43 44  1  0  0  0
 44 45  1  0  0  0
 45 46  1  0  0  0
  4  6  1  0  0  0
  6  7  1  0  0  0
  7  8  1  0  0  0
  8  9  1  0  0  0
  9 10  1  0  0  0
 10 11  1  0  0  0
 11 12  1  0  0  0
 12 13  1  0  0  0
 13 14  1  0  0  0
 14 15  1  0  0  0
 15 16  1  0  0  0
 16 17  1  0  0  0
 17 18  1  0  0  0
 18 19  1  0  0  0
 19 20  2  0  0  0
 20 21  1  0  0  0
 21 22  1  0  0  0
 22 23  1  0  0  0
 23 24  1  0  0  0
 24 25  1  0  0  0
 25 26  1  0  0  0
 26 27  1  0  0  0
 27 28  1  0  0  0
 52 53  1  0  0  0
 53 54  1  0  0  0
 54 55  1  0  0  0
 55 56  1  0  0  0
 56 60  1  0  0  0
M  CHG 1  64  -1
M  END
> <minimizedAffinity>
-9.14497

> <CNNscore>
0.2946880162

> <CNNaffinity>
7.2287836075

> <CNN_VS>
2.1302359104

> <CNNaffinity_variance>
0.7755013704

$$$$
/media/chris/experiments/cd1a-new-docking/inputs/ligands/7ryn_ligand.pdb


 68 68  0  0  0  0  0  0  0  0999 V2000
  -38.2698   60.4308   62.0354 C   0  0  0  0  0  0  0  0  0  0  0  0
  -38.0328   60.3153   60.5995 N   0  0  0  0  0  0  0  0  0  0  0  0
  -38.1496   59.1418   58.6819 O   0  0  0  0  0  0  0  0  0  0  0  0
  -38.3642   59.2352   59.8870 C   0  0  0  0  0  0  0  0  0  0  0  0
  -37.6078   61.0710   60.1332 H   0  0  0  0  0  0  0  0  0  0  0  0
  -39.0194   58.1186   60.6612 C   0  0  0  0  0  0  0  0  0  0  0  0
  -40.4655   57.8867   60.2423 C   0  0  0  0  0  0  0  0  0  0  0  0
  -41.1483   56.8059   61.0652 C   0  0  0  0  0  0  0  0  0  0  0  0
  -40.9573   56.9603   62.5648 C   0  0  0  0  0  0  0  0  0  0  0  0
  -41.6651   55.8946   63.3881 C   0  0  0  0  0  0  0  0  0  0  0  0
  -41.9898   56.3260   64.8127 C   0  0  0  0  0  0  0  0  0  0  0  0
  -43.2825   57.1222   64.9366 C   0  0  0  0  0  0  0  0  0  0  0  0
  -43.7060   57.4235   66.3720 C   0  0  0  0  0  0  0  0  0  0  0  0
  -44.6590   58.6104   66.5035 C   0  0  0  0  0  0  0  0  0  0  0  0
  -46.0920   58.2380   66.8828 C   0  0  0  0  0  0  0  0  0  0  0  0
  -46.9706   57.8943   65.6797 C   0  0  0  0  0  0  0  0  0  0  0  0
  -47.2023   59.0431   64.6982 C   0  0  0  0  0  0  0  0  0  0  0  0
  -48.2957   60.0325   65.1098 C   0  0  0  0  0  0  0  0  0  0  0  0
  -49.4301   59.3765   65.8425 C   0  0  0  0  0  0  0  0  0  0  0  0
  -50.6916   59.3392   65.4511 C   0  0  0  0  0  0  0  0  0  0  0  0
  -51.2432   59.9418   64.1948 C   0  0  0  0  0  0  0  0  0  0  0  0
  -51.1498   59.0188   62.9778 C   0  0  0  0  0  0  0  0  0  0  0  0
  -50.0704   59.4355   61.9876 C   0  0  0  0  0  0  0  0  0  0  0  0
  -49.3511   58.2551   61.3446 C   0  0  0  0  0  0  0  0  0  0  0  0
  -49.0215   58.4448   59.8683 C   0  0  0  0  0  0  0  0  0  0  0  0
  -48.1964   57.3122   59.2740 C   0  0  0  0  0  0  0  0  0  0  0  0
  -47.8754   57.4843   57.7978 C   0  0  0  0  0  0  0  0  0  0  0  0
  -47.1949   56.2709   57.1974 C   0  0  0  0  0  0  0  0  0  0  0  0
  -40.4893   61.2586   61.5628 O   0  0  0  0  0  0  0  0  0  0  0  0
  -39.7730   60.2771   62.3177 C   0  0  0  0  0  0  0  0  0  0  0  0
  -40.2808   61.1577   60.6209 H   0  0  0  0  0  0  0  0  0  0  0  0
  -40.0713   60.4032   63.7802 C   0  0  0  0  0  0  0  0  0  0  0  0
  -41.2639   60.2663   64.3252 C   0  0  0  0  0  0  0  0  0  0  0  0
  -41.5268   60.3832   65.7907 C   0  0  0  0  0  0  0  0  0  0  0  0
  -40.6669   59.3973   66.5844 C   0  0  0  0  0  0  0  0  0  0  0  0
  -39.1849   59.4544   66.2508 C   0  0  0  0  0  0  0  0  0  0  0  0
  -38.6373   58.1856   65.6200 C   0  0  0  0  0  0  0  0  0  0  0  0
  -37.2920   58.3674   64.9323 C   0  0  0  0  0  0  0  0  0  0  0  0
  -37.1607   57.5894   63.6320 C   0  0  0  0  0  0  0  0  0  0  0  0
  -35.7261   57.2616   63.2572 C   0  0  0  0  0  0  0  0  0  0  0  0
  -35.0386   58.3403   62.4410 C   0  0  0  0  0  0  0  0  0  0  0  0
  -33.5586   58.0881   62.2103 C   0  0  0  0  0  0  0  0  0  0  0  0
  -32.6818   58.6491   63.3144 C   0  0  0  0  0  0  0  0  0  0  0  0
  -31.5086   59.4755   62.8235 C   0  0  0  0  0  0  0  0  0  0  0  0
  -31.8607   60.3311   61.6224 C   0  0  0  0  0  0  0  0  0  0  0  0
  -30.8172   61.3920   61.3398 C   0  0  0  0  0  0  0  0  0  0  0  0
  -37.7269   61.7490   62.5471 C   0  0  0  0  0  0  0  0  0  0  0  0
  -36.4320   61.5141   63.1117 O   0  0  0  0  0  0  0  0  0  0  0  0
  -34.1924   61.3672   64.7861 O   0  0  0  0  0  0  0  0  0  0  0  0
  -33.1255   64.2327   61.7574 O   0  0  0  0  0  0  0  0  0  0  0  0
  -35.8514   63.6554   62.4740 O   0  0  0  0  0  0  0  0  0  0  0  0
  -35.7496   62.6742   63.4892 C   0  0  0  0  0  0  0  0  0  0  0  0
  -34.2900   62.3075   63.7239 C   0  0  0  0  0  0  0  0  0  0  0  0
  -33.4879   63.5603   64.0533 C   0  0  0  0  0  0  0  0  0  0  0  0
  -33.6966   64.6361   62.9978 C   0  0  0  0  0  0  0  0  0  0  0  0
  -35.1908   64.8863   62.8090 C   0  0  0  0  0  0  0  0  0  0  0  0
  -34.7066   60.5751   64.5649 H   0  0  0  0  0  0  0  0  0  0  0  0
  -32.1760   64.0732   61.8752 H   0  0  0  0  0  0  0  0  0  0  0  0
  -34.5726   66.9465   61.6858 O   0  0  0  0  0  0  0  0  0  0  0  0
  -35.4944   65.8626   61.6968 C   0  0  0  0  0  0  0  0  0  0  0  0
  -34.7951   67.5528   60.9621 H   0  0  0  0  0  0  0  0  0  0  0  0
  -32.0928   63.1215   64.0337 O   0  0  0  0  0  0  0  0  0  0  0  0
  -29.8042   63.3048   64.7658 O   0  0  0  0  0  0  0  0  0  0  0  0
  -31.5751   64.8130   65.7172 O   0  0  0  0  0  0  0  0  0  0  0  0
  -30.7995   65.0447   63.4853 O   0  0  0  0  0  0  0  0  0  0  0  0
  -30.9884   64.0744   64.6628 S   0  0  0  0  0  0  0  0  0  0  0  0
  -29.8883   62.6789   65.5020 H   0  0  0  0  0  0  0  0  0  0  0  0
  -30.3975   64.5731   62.7390 H   0  0  0  0  0  0  0  0  0  0  0  0
  2  1  1  0  0  0
  2  4  1  0  0  0
  2  5  1  0  0  0
 47 48  1  0  0  0
 47  1  1  0  0  0
 48 52  1  0  0  0
  1 30  1  0  0  0
 29 30  1  0  0  0
 29 31  1  0  0  0
 30 32  1  0  0  0
  3  4  2  0  0  0
 32 33  2  0  0  0
 49 53  1  0  0  0
 49 57  1  0  0  0
 33 34  1  0  0  0
 62 54  1  0  0  0
 62 66  1  0  0  0
 34 35  1  0  0  0
 50 55  1  0  0  0
 50 58  1  0  0  0
 35 36  1  0  0  0
 51 52  1  0  0  0
 51 56  1  0  0  0
 36 37  1  0  0  0
 59 60  1  0  0  0
 59 61  1  0  0  0
 37 38  1  0  0  0
 63 66  1  0  0  0
 63 67  1  0  0  0
 38 39  1  0  0  0
 64 66  1  0  0  0
 39 40  1  0  0  0
 65 66  1  0  0  0
 65 68  1  0  0  0
 40 41  1  0  0  0
 41 42  1  0  0  0
 42 43  1  0  0  0
 43 44  1  0  0  0
 44 45  1  0  0  0
 45 46  1  0  0  0
  4  6  1  0  0  0
  6  7  1  0  0  0
  7  8  1  0  0  0
  8  9  1  0  0  0
  9 10  1  0  0  0
 10 11  1  0  0  0
 11 12  1  0  0  0
 12 13  1  0  0  0
 13 14  1  0  0  0
 14 15  1  0  0  0
 15 16  1  0  0  0
 16 17  1  0  0  0
 17 18  1  0  0  0
 18 19  1  0  0  0
 19 20  2  0  0  0
 20 21  1  0  0  0
 21 22  1  0  0  0
 22 23  1  0  0  0
 23 24  1  0  0  0
 24 25  1  0  0  0
 25 26  1  0  0  0
 26 27  1  0  0  0
 27 28  1  0  0  0
 52 53  1  0  0  0
 53 54  1  0  0  0
 54 55  1  0  0  0
 55 56  1  0  0  0
 56 60  1  0  0  0
M  CHG 1  64  -1
M  END
> <minimizedAffinity>
-8.87323

> <CNNscore>
0.2222495824

> <CNNaffinity>
7.3350157738

> <CNN_VS>
1.6302042007

> <CNNaffinity_variance>
1.0855289698

$$$$
/media/chris/experiments/cd1a-new-docking/inputs/ligands/7ryn_ligand.pdb


 68 68  0  0  0  0  0  0  0  0999 V2000
  -33.7098   60.8373   63.4937 C   0  0  0  0  0  0  0  0  0  0  0  0
  -33.5561   61.3520   64.8512 N   0  0  0  0  0  0  0  0  0  0  0  0
  -34.4367   62.2509   66.7179 O   0  0  0  0  0  0  0  0  0  0  0  0
  -34.5772   61.8081   65.5815 C   0  0  0  0  0  0  0  0  0  0  0  0
  -32.6552   61.3635   65.2479 H   0  0  0  0  0  0  0  0  0  0  0  0
  -35.9303   61.7536   64.9170 C   0  0  0  0  0  0  0  0  0  0  0  0
  -37.0503   61.4276   65.8967 C   0  0  0  0  0  0  0  0  0  0  0  0
  -38.2520   60.7863   65.2214 C   0  0  0  0  0  0  0  0  0  0  0  0
  -38.9710   59.7633   66.0850 C   0  0  0  0  0  0  0  0  0  0  0  0
  -40.3934   59.4679   65.6336 C   0  0  0  0  0  0  0  0  0  0  0  0
  -41.4657   59.9956   66.5784 C   0  0  0  0  0  0  0  0  0  0  0  0
  -42.7640   59.1996   66.5441 C   0  0  0  0  0  0  0  0  0  0  0  0
  -42.6223   57.7791   66.0030 C   0  0  0  0  0  0  0  0  0  0  0  0
  -43.8736   57.2527   65.3020 C   0  0  0  0  0  0  0  0  0  0  0  0
  -45.0942   58.1669   65.4054 C   0  0  0  0  0  0  0  0  0  0  0  0
  -45.9973   57.8446   66.5961 C   0  0  0  0  0  0  0  0  0  0  0  0
  -47.0529   58.9037   66.9132 C   0  0  0  0  0  0  0  0  0  0  0  0
  -48.0534   59.1748   65.7865 C   0  0  0  0  0  0  0  0  0  0  0  0
  -49.4103   58.5927   66.0588 C   0  0  0  0  0  0  0  0  0  0  0  0
  -50.5154   58.8432   65.3792 C   0  0  0  0  0  0  0  0  0  0  0  0
  -50.6359   59.7568   64.1974 C   0  0  0  0  0  0  0  0  0  0  0  0
  -51.2399   59.0867   62.9615 C   0  0  0  0  0  0  0  0  0  0  0  0
  -50.2067   58.7468   61.8955 C   0  0  0  0  0  0  0  0  0  0  0  0
  -50.6170   57.5784   61.0061 C   0  0  0  0  0  0  0  0  0  0  0  0
  -49.4635   56.9182   60.2594 C   0  0  0  0  0  0  0  0  0  0  0  0
  -49.1884   57.5291   58.8927 C   0  0  0  0  0  0  0  0  0  0  0  0
  -47.7116   57.6734   58.5613 C   0  0  0  0  0  0  0  0  0  0  0  0
  -47.4506   57.7940   57.0736 C   0  0  0  0  0  0  0  0  0  0  0  0
  -32.3799   59.3130   62.1736 O   0  0  0  0  0  0  0  0  0  0  0  0
  -33.0920   59.4324   63.4086 C   0  0  0  0  0  0  0  0  0  0  0  0
  -31.7101   60.0123   62.1178 H   0  0  0  0  0  0  0  0  0  0  0  0
  -34.1372   58.3661   63.5297 C   0  0  0  0  0  0  0  0  0  0  0  0
  -35.0565   58.3094   64.4728 C   0  0  0  0  0  0  0  0  0  0  0  0
  -36.0957   57.2401   64.5578 C   0  0  0  0  0  0  0  0  0  0  0  0
  -37.3579   57.6371   63.7894 C   0  0  0  0  0  0  0  0  0  0  0  0
  -37.3582   57.2124   62.3298 C   0  0  0  0  0  0  0  0  0  0  0  0
  -37.1421   58.3511   61.3477 C   0  0  0  0  0  0  0  0  0  0  0  0
  -37.9780   59.5884   61.6413 C   0  0  0  0  0  0  0  0  0  0  0  0
  -38.9733   59.9277   60.5425 C   0  0  0  0  0  0  0  0  0  0  0  0
  -39.3854   58.7335   59.6999 C   0  0  0  0  0  0  0  0  0  0  0  0
  -40.7966   58.2449   59.9685 C   0  0  0  0  0  0  0  0  0  0  0  0
  -40.9401   57.4584   61.2600 C   0  0  0  0  0  0  0  0  0  0  0  0
  -41.7171   58.2065   62.3274 C   0  0  0  0  0  0  0  0  0  0  0  0
  -42.2041   59.5783   61.9016 C   0  0  0  0  0  0  0  0  0  0  0  0
  -42.7913   60.3712   63.0527 C   0  0  0  0  0  0  0  0  0  0  0  0
  -42.2220   61.7720   63.1425 C   0  0  0  0  0  0  0  0  0  0  0  0
  -33.0838   61.7950   62.5011 C   0  0  0  0  0  0  0  0  0  0  0  0
  -31.6739   61.8412   62.7474 O   0  0  0  0  0  0  0  0  0  0  0  0
  -30.8876   63.4412   60.5881 O   0  0  0  0  0  0  0  0  0  0  0  0
  -33.0156   66.0997   63.2200 O   0  0  0  0  0  0  0  0  0  0  0  0
  -31.7378   63.6881   64.1307 O   0  0  0  0  0  0  0  0  0  0  0  0
  -31.1689   63.1268   62.9623 C   0  0  0  0  0  0  0  0  0  0  0  0
  -31.5130   63.9779   61.7469 C   0  0  0  0  0  0  0  0  0  0  0  0
  -31.0576   65.4139   61.9746 C   0  0  0  0  0  0  0  0  0  0  0  0
  -31.6004   65.9576   63.2880 C   0  0  0  0  0  0  0  0  0  0  0  0
  -31.2419   65.0039   64.4250 C   0  0  0  0  0  0  0  0  0  0  0  0
  -31.1851   62.5278   60.4539 H   0  0  0  0  0  0  0  0  0  0  0  0
  -33.2454   66.7053   62.4981 H   0  0  0  0  0  0  0  0  0  0  0  0
  -30.8632   65.9917   66.6089 O   0  0  0  0  0  0  0  0  0  0  0  0
  -31.8389   65.4097   65.7521 C   0  0  0  0  0  0  0  0  0  0  0  0
  -31.2781   66.2402   67.4496 H   0  0  0  0  0  0  0  0  0  0  0  0
  -31.6339   66.1654   60.8600 O   0  0  0  0  0  0  0  0  0  0  0  0
  -30.6349   65.8139   58.6954 O   0  0  0  0  0  0  0  0  0  0  0  0
  -29.5128   67.2835   60.3974 O   0  0  0  0  0  0  0  0  0  0  0  0
  -31.5028   67.9481   59.2863 O   0  0  0  0  0  0  0  0  0  0  0  0
  -30.6561   66.7533   59.7547 S   0  0  0  0  0  0  0  0  0  0  0  0
  -30.1070   65.0433   58.9572 H   0  0  0  0  0  0  0  0  0  0  0  0
  -32.2997   67.6238   58.8384 H   0  0  0  0  0  0  0  0  0  0  0  0
  2  1  1  0  0  0
  2  4  1  0  0  0
  2  5  1  0  0  0
 47 48  1  0  0  0
 47  1  1  0  0  0
 48 52  1  0  0  0
  1 30  1  0  0  0
 29 30  1  0  0  0
 29 31  1  0  0  0
 30 32  1  0  0  0
  3  4  2  0  0  0
 32 33  2  0  0  0
 49 53  1  0  0  0
 49 57  1  0  0  0
 33 34  1  0  0  0
 62 54  1  0  0  0
 62 66  1  0  0  0
 34 35  1  0  0  0
 50 55  1  0  0  0
 50 58  1  0  0  0
 35 36  1  0  0  0
 51 52  1  0  0  0
 51 56  1  0  0  0
 36 37  1  0  0  0
 59 60  1  0  0  0
 59 61  1  0  0  0
 37 38  1  0  0  0
 63 66  1  0  0  0
 63 67  1  0  0  0
 38 39  1  0  0  0
 64 66  1  0  0  0
 39 40  1  0  0  0
 65 66  1  0  0  0
 65 68  1  0  0  0
 40 41  1  0  0  0
 41 42  1  0  0  0
 42 43  1  0  0  0
 43 44  1  0  0  0
 44 45  1  0  0  0
 45 46  1  0  0  0
  4  6  1  0  0  0
  6  7  1  0  0  0
  7  8  1  0  0  0
  8  9  1  0  0  0
  9 10  1  0  0  0
 10 11  1  0  0  0
 11 12  1  0  0  0
 12 13  1  0  0  0
 13 14  1  0  0  0
 14 15  1  0  0  0
 15 16  1  0  0  0
 16 17  1  0  0  0
 17 18  1  0  0  0
 18 19  1  0  0  0
 19 20  2  0  0  0
 20 21  1  0  0  0
 21 22  1  0  0  0
 22 23  1  0  0  0
 23 24  1  0  0  0
 24 25  1  0  0  0
 25 26  1  0  0  0
 26 27  1  0  0  0
 27 28  1  0  0  0
 52 53  1  0  0  0
 53 54  1  0  0  0
 54 55  1  0  0  0
 55 56  1  0  0  0
 56 60  1  0  0  0
M  CHG 1  64  -1
M  END
> <minimizedAffinity>
-9.32738

> <CNNscore>
0.1705901325

> <CNNaffinity>
7.1535329819

> <CNN_VS>
1.2203221321

> <CNNaffinity_variance>
1.4580074549

$$$$
/media/chris/experiments/cd1a-new-docking/inputs/ligands/7ryn_ligand.pdb


 68 68  0  0  0  0  0  0  0  0999 V2000
  -38.9579   59.4227   62.5108 C   0  0  0  0  0  0  0  0  0  0  0  0
  -39.2165   58.2761   63.3766 N   0  0  0  0  0  0  0  0  0  0  0  0
  -40.6440   56.8029   64.3039 O   0  0  0  0  0  0  0  0  0  0  0  0
  -40.4340   57.7596   63.5639 C   0  0  0  0  0  0  0  0  0  0  0  0
  -38.4559   57.8631   63.8457 H   0  0  0  0  0  0  0  0  0  0  0  0
  -41.5521   58.4343   62.8089 C   0  0  0  0  0  0  0  0  0  0  0  0
  -42.6497   58.9528   63.7292 C   0  0  0  0  0  0  0  0  0  0  0  0
  -42.1089   59.8120   64.8609 C   0  0  0  0  0  0  0  0  0  0  0  0
  -42.5541   59.3627   66.2426 C   0  0  0  0  0  0  0  0  0  0  0  0
  -43.3149   58.0453   66.2457 C   0  0  0  0  0  0  0  0  0  0  0  0
  -44.7804   58.1768   66.6402 C   0  0  0  0  0  0  0  0  0  0  0  0
  -45.7529   57.6996   65.5692 C   0  0  0  0  0  0  0  0  0  0  0  0
  -46.3443   58.8134   64.7088 C   0  0  0  0  0  0  0  0  0  0  0  0
  -47.7023   59.3190   65.1929 C   0  0  0  0  0  0  0  0  0  0  0  0
  -48.4647   58.3411   66.0864 C   0  0  0  0  0  0  0  0  0  0  0  0
  -49.9746   58.3473   65.8464 C   0  0  0  0  0  0  0  0  0  0  0  0
  -50.6128   59.7345   65.7744 C   0  0  0  0  0  0  0  0  0  0  0  0
  -51.0843   60.1560   64.3801 C   0  0  0  0  0  0  0  0  0  0  0  0
  -51.3925   58.9867   63.4903 C   0  0  0  0  0  0  0  0  0  0  0  0
  -50.8500   58.7419   62.3106 C   0  0  0  0  0  0  0  0  0  0  0  0
  -49.8152   59.5812   61.6247 C   0  0  0  0  0  0  0  0  0  0  0  0
  -49.3480   59.0080   60.2851 C   0  0  0  0  0  0  0  0  0  0  0  0
  -50.1102   57.7577   59.8666 C   0  0  0  0  0  0  0  0  0  0  0  0
  -49.2923   56.4779   59.9989 C   0  0  0  0  0  0  0  0  0  0  0  0
  -47.7947   56.6606   59.7806 C   0  0  0  0  0  0  0  0  0  0  0  0
  -47.3138   56.1988   58.4123 C   0  0  0  0  0  0  0  0  0  0  0  0
  -47.7929   57.0660   57.2589 C   0  0  0  0  0  0  0  0  0  0  0  0
  -46.8007   58.1479   56.8834 C   0  0  0  0  0  0  0  0  0  0  0  0
  -38.7266   58.5448   60.2723 O   0  0  0  0  0  0  0  0  0  0  0  0
  -37.9791   59.0113   61.3993 C   0  0  0  0  0  0  0  0  0  0  0  0
  -39.3406   59.2375   59.9826 H   0  0  0  0  0  0  0  0  0  0  0  0
  -37.0182   57.9652   61.8751 C   0  0  0  0  0  0  0  0  0  0  0  0
  -35.7574   58.1825   62.1934 C   0  0  0  0  0  0  0  0  0  0  0  0
  -34.8276   57.1197   62.6796 C   0  0  0  0  0  0  0  0  0  0  0  0
  -33.3744   57.5966   62.6330 C   0  0  0  0  0  0  0  0  0  0  0  0
  -33.2073   59.0440   62.1993 C   0  0  0  0  0  0  0  0  0  0  0  0
  -31.8420   59.6347   62.5075 C   0  0  0  0  0  0  0  0  0  0  0  0
  -31.5940   60.9899   61.8611 C   0  0  0  0  0  0  0  0  0  0  0  0
  -30.1387   61.2332   61.4919 C   0  0  0  0  0  0  0  0  0  0  0  0
  -29.7434   62.6994   61.4959 C   0  0  0  0  0  0  0  0  0  0  0  0
  -30.8522   63.6398   61.0617 C   0  0  0  0  0  0  0  0  0  0  0  0
  -30.4283   65.0963   60.9832 C   0  0  0  0  0  0  0  0  0  0  0  0
  -30.1976   65.5714   59.5607 C   0  0  0  0  0  0  0  0  0  0  0  0
  -30.7226   66.9650   59.2730 C   0  0  0  0  0  0  0  0  0  0  0  0
  -30.2347   67.5086   57.9444 C   0  0  0  0  0  0  0  0  0  0  0  0
  -30.8451   66.7850   56.7620 C   0  0  0  0  0  0  0  0  0  0  0  0
  -38.4331   60.5840   63.3296 C   0  0  0  0  0  0  0  0  0  0  0  0
  -37.5889   60.0622   64.3619 O   0  0  0  0  0  0  0  0  0  0  0  0
  -36.1051   61.5134   62.4822 O   0  0  0  0  0  0  0  0  0  0  0  0
  -36.9378   64.3167   65.6398 O   0  0  0  0  0  0  0  0  0  0  0  0
  -36.8823   61.4696   66.0498 O   0  0  0  0  0  0  0  0  0  0  0  0
  -36.5780   60.9349   64.7749 C   0  0  0  0  0  0  0  0  0  0  0  0
  -36.4707   62.0529   63.7460 C   0  0  0  0  0  0  0  0  0  0  0  0
  -35.4387   63.0775   64.2004 C   0  0  0  0  0  0  0  0  0  0  0  0
  -35.7324   63.5593   65.6135 C   0  0  0  0  0  0  0  0  0  0  0  0
  -35.8691   62.3586   66.5466 C   0  0  0  0  0  0  0  0  0  0  0  0
  -36.7690   60.8632   62.2040 H   0  0  0  0  0  0  0  0  0  0  0  0
  -36.8529   65.0802   65.0475 H   0  0  0  0  0  0  0  0  0  0  0  0
  -36.2067   64.1477   68.1509 O   0  0  0  0  0  0  0  0  0  0  0  0
  -36.2726   62.7403   67.9515 C   0  0  0  0  0  0  0  0  0  0  0  0
  -36.4710   64.3581   69.0601 H   0  0  0  0  0  0  0  0  0  0  0  0
  -35.5871   64.1915   63.2643 O   0  0  0  0  0  0  0  0  0  0  0  0
  -33.1904   64.4240   63.3583 O   0  0  0  0  0  0  0  0  0  0  0  0
  -34.5777   66.0248   62.0061 O   0  0  0  0  0  0  0  0  0  0  0  0
  -34.2561   63.7703   61.3349 O   0  0  0  0  0  0  0  0  0  0  0  0
  -34.2919   64.7409   62.5268 S   0  0  0  0  0  0  0  0  0  0  0  0
  -33.1816   65.0195   64.1241 H   0  0  0  0  0  0  0  0  0  0  0  0
  -34.0618   62.8748   61.6529 H   0  0  0  0  0  0  0  0  0  0  0  0
  2  1  1  0  0  0
  2  4  1  0  0  0
  2  5  1  0  0  0
 47 48  1  0  0  0
 47  1  1  0  0  0
 48 52  1  0  0  0
  1 30  1  0  0  0
 29 30  1  0  0  0
 29 31  1  0  0  0
 30 32  1  0  0  0
  3  4  2  0  0  0
 32 33  2  0  0  0
 49 53  1  0  0  0
 49 57  1  0  0  0
 33 34  1  0  0  0
 62 54  1  0  0  0
 62 66  1  0  0  0
 34 35  1  0  0  0
 50 55  1  0  0  0
 50 58  1  0  0  0
 35 36  1  0  0  0
 51 52  1  0  0  0
 51 56  1  0  0  0
 36 37  1  0  0  0
 59 60  1  0  0  0
 59 61  1  0  0  0
 37 38  1  0  0  0
 63 66  1  0  0  0
 63 67  1  0  0  0
 38 39  1  0  0  0
 64 66  1  0  0  0
 39 40  1  0  0  0
 65 66  1  0  0  0
 65 68  1  0  0  0
 40 41  1  0  0  0
 41 42  1  0  0  0
 42 43  1  0  0  0
 43 44  1  0  0  0
 44 45  1  0  0  0
 45 46  1  0  0  0
  4  6  1  0  0  0
  6  7  1  0  0  0
  7  8  1  0  0  0
  8  9  1  0  0  0
  9 10  1  0  0  0
 10 11  1  0  0  0
 11 12  1  0  0  0
 12 13  1  0  0  0
 13 14  1  0  0  0
 14 15  1  0  0  0
 15 16  1  0  0  0
 16 17  1  0  0  0
 17 18  1  0  0  0
 18 19  1  0  0  0
 19 20  2  0  0  0
 20 21  1  0  0  0
 21 22  1  0  0  0
 22 23  1  0  0  0
 23 24  1  0  0  0
 24 25  1  0  0  0
 25 26  1  0  0  0
 26 27  1  0  0  0
 27 28  1  0  0  0
 52 53  1  0  0  0
 53 54  1  0  0  0
 54 55  1  0  0  0
 55 56  1  0  0  0
 56 60  1  0  0  0
M  CHG 1  64  -1
M  END
> <minimizedAffinity>
-8.64820

> <CNNscore>
0.1602348238

> <CNNaffinity>
6.8972406387

> <CNN_VS>
1.1051781178

> <CNNaffinity_variance>
0.6113762259

$$$$
/media/chris/experiments/cd1a-new-docking/inputs/ligands/7ryn_ligand.pdb


 68 68  0  0  0  0  0  0  0  0999 V2000
  -34.8708   61.3687   63.9090 C   0  0  0  0  0  0  0  0  0  0  0  0
  -36.1362   61.4946   63.1919 N   0  0  0  0  0  0  0  0  0  0  0  0
  -38.3852   61.4014   63.1539 O   0  0  0  0  0  0  0  0  0  0  0  0
  -37.3264   61.3057   63.7679 C   0  0  0  0  0  0  0  0  0  0  0  0
  -36.1110   61.7306   62.2365 H   0  0  0  0  0  0  0  0  0  0  0  0
  -37.2931   60.9556   65.2348 C   0  0  0  0  0  0  0  0  0  0  0  0
  -38.1203   59.7183   65.5597 C   0  0  0  0  0  0  0  0  0  0  0  0
  -39.5879   60.0388   65.7936 C   0  0  0  0  0  0  0  0  0  0  0  0
  -40.4545   58.8147   66.0380 C   0  0  0  0  0  0  0  0  0  0  0  0
  -41.9205   59.0184   65.6861 C   0  0  0  0  0  0  0  0  0  0  0  0
  -42.8260   57.8706   66.1143 C   0  0  0  0  0  0  0  0  0  0  0  0
  -43.9935   57.6200   65.1685 C   0  0  0  0  0  0  0  0  0  0  0  0
  -45.2274   58.4756   65.4444 C   0  0  0  0  0  0  0  0  0  0  0  0
  -45.5158   58.6910   66.9291 C   0  0  0  0  0  0  0  0  0  0  0  0
  -46.9144   58.2651   67.3749 C   0  0  0  0  0  0  0  0  0  0  0  0
  -47.6384   57.3881   66.3532 C   0  0  0  0  0  0  0  0  0  0  0  0
  -48.9714   57.9439   65.8521 C   0  0  0  0  0  0  0  0  0  0  0  0
  -49.0819   59.4708   65.8720 C   0  0  0  0  0  0  0  0  0  0  0  0
  -48.6434   60.1041   64.5833 C   0  0  0  0  0  0  0  0  0  0  0  0
  -49.3611   60.1971   63.4778 C   0  0  0  0  0  0  0  0  0  0  0  0
  -50.7592   59.6915   63.2891 C   0  0  0  0  0  0  0  0  0  0  0  0
  -50.8331   58.3410   62.5733 C   0  0  0  0  0  0  0  0  0  0  0  0
  -49.6089   58.0458   61.7169 C   0  0  0  0  0  0  0  0  0  0  0  0
  -49.8281   58.3203   60.2333 C   0  0  0  0  0  0  0  0  0  0  0  0
  -48.5761   58.1838   59.3744 C   0  0  0  0  0  0  0  0  0  0  0  0
  -48.0928   56.7489   59.2190 C   0  0  0  0  0  0  0  0  0  0  0  0
  -47.2899   56.4962   57.9528 C   0  0  0  0  0  0  0  0  0  0  0  0
  -47.3415   57.6575   56.9808 C   0  0  0  0  0  0  0  0  0  0  0  0
  -33.1800   59.6752   64.2375 O   0  0  0  0  0  0  0  0  0  0  0  0
  -34.5946   59.8845   64.1982 C   0  0  0  0  0  0  0  0  0  0  0  0
  -32.7853   60.2585   64.9044 H   0  0  0  0  0  0  0  0  0  0  0  0
  -35.2393   58.9982   63.1770 C   0  0  0  0  0  0  0  0  0  0  0  0
  -35.9420   57.9161   63.4477 C   0  0  0  0  0  0  0  0  0  0  0  0
  -36.5856   57.0606   62.4064 C   0  0  0  0  0  0  0  0  0  0  0  0
  -37.7866   57.7697   61.7770 C   0  0  0  0  0  0  0  0  0  0  0  0
  -39.0230   57.8045   62.6607 C   0  0  0  0  0  0  0  0  0  0  0  0
  -39.8625   56.5393   62.6105 C   0  0  0  0  0  0  0  0  0  0  0  0
  -41.3428   56.7679   62.8788 C   0  0  0  0  0  0  0  0  0  0  0  0
  -42.1716   56.9486   61.6164 C   0  0  0  0  0  0  0  0  0  0  0  0
  -41.3403   57.1722   60.3654 C   0  0  0  0  0  0  0  0  0  0  0  0
  -41.5949   58.5037   59.6839 C   0  0  0  0  0  0  0  0  0  0  0  0
  -40.6828   59.6220   60.1578 C   0  0  0  0  0  0  0  0  0  0  0  0
  -41.4278   60.7312   60.8768 C   0  0  0  0  0  0  0  0  0  0  0  0
  -41.8501   60.3867   62.2922 C   0  0  0  0  0  0  0  0  0  0  0  0
  -42.5530   61.5366   62.9867 C   0  0  0  0  0  0  0  0  0  0  0  0
  -43.1587   62.5220   62.0087 C   0  0  0  0  0  0  0  0  0  0  0  0
  -34.9070   62.1979   65.1761 C   0  0  0  0  0  0  0  0  0  0  0  0
  -33.5737   62.6298   65.4699 O   0  0  0  0  0  0  0  0  0  0  0  0
  -32.9339   65.3522   65.6125 O   0  0  0  0  0  0  0  0  0  0  0  0
  -29.4647   63.4882   63.8770 O   0  0  0  0  0  0  0  0  0  0  0  0
  -32.1000   62.3453   63.7159 O   0  0  0  0  0  0  0  0  0  0  0  0
  -32.9265   63.2645   64.4057 C   0  0  0  0  0  0  0  0  0  0  0  0
  -32.0893   64.4029   64.9742 C   0  0  0  0  0  0  0  0  0  0  0  0
  -31.2958   65.0698   63.8576 C   0  0  0  0  0  0  0  0  0  0  0  0
  -30.4960   64.0443   63.0678 C   0  0  0  0  0  0  0  0  0  0  0  0
  -31.4222   62.9281   62.5914 C   0  0  0  0  0  0  0  0  0  0  0  0
  -33.4333   64.9161   66.3205 H   0  0  0  0  0  0  0  0  0  0  0  0
  -28.8750   64.1960   64.1808 H   0  0  0  0  0  0  0  0  0  0  0  0
  -30.8867   60.5616   62.5532 O   0  0  0  0  0  0  0  0  0  0  0  0
  -30.6907   61.8063   61.8921 C   0  0  0  0  0  0  0  0  0  0  0  0
  -30.4053   59.8650   62.0802 H   0  0  0  0  0  0  0  0  0  0  0  0
  -30.3794   65.9776   64.5470 O   0  0  0  0  0  0  0  0  0  0  0  0
  -29.4715   68.1607   65.0128 O   0  0  0  0  0  0  0  0  0  0  0  0
  -31.8561   67.9017   64.2630 O   0  0  0  0  0  0  0  0  0  0  0  0
  -30.0327   67.5426   62.7856 O   0  0  0  0  0  0  0  0  0  0  0  0
  -30.4898   67.5349   64.2535 S   0  0  0  0  0  0  0  0  0  0  0  0
  -29.7274   68.1736   65.9484 H   0  0  0  0  0  0  0  0  0  0  0  0
  -29.0961   67.2950   62.7374 H   0  0  0  0  0  0  0  0  0  0  0  0
  2  1  1  0  0  0
  2  4  1  0  0  0
  2  5  1  0  0  0
 47 48  1  0  0  0
 47  1  1  0  0  0
 48 52  1  0  0  0
  1 30  1  0  0  0
 29 30  1  0  0  0
 29 31  1  0  0  0
 30 32  1  0  0  0
  3  4  2  0  0  0
 32 33  2  0  0  0
 49 53  1  0  0  0
 49 57  1  0  0  0
 33 34  1  0  0  0
 62 54  1  0  0  0
 62 66  1  0  0  0
 34 35  1  0  0  0
 50 55  1  0  0  0
 50 58  1  0  0  0
 35 36  1  0  0  0
 51 52  1  0  0  0
 51 56  1  0  0  0
 36 37  1  0  0  0
 59 60  1  0  0  0
 59 61  1  0  0  0
 37 38  1  0  0  0
 63 66  1  0  0  0
 63 67  1  0  0  0
 38 39  1  0  0  0
 64 66  1  0  0  0
 39 40  1  0  0  0
 65 66  1  0  0  0
 65 68  1  0  0  0
 40 41  1  0  0  0
 41 42  1  0  0  0
 42 43  1  0  0  0
 43 44  1  0  0  0
 44 45  1  0  0  0
 45 46  1  0  0  0
  4  6  1  0  0  0
  6  7  1  0  0  0
  7  8  1  0  0  0
  8  9  1  0  0  0
  9 10  1  0  0  0
 10 11  1  0  0  0
 11 12  1  0  0  0
 12 13  1  0  0  0
 13 14  1  0  0  0
 14 15  1  0  0  0
 15 16  1  0  0  0
 16 17  1  0  0  0
 17 18  1  0  0  0
 18 19  1  0  0  0
 19 20  2  0  0  0
 20 21  1  0  0  0
 21 22  1  0  0  0
 22 23  1  0  0  0
 23 24  1  0  0  0
 24 25  1  0  0  0
 25 26  1  0  0  0
 26 27  1  0  0  0
 27 28  1  0  0  0
 52 53  1  0  0  0
 53 54  1  0  0  0
 54 55  1  0  0  0
 55 56  1  0  0  0
 56 60  1  0  0  0
M  CHG 1  64  -1
M  END
> <minimizedAffinity>
-9.02378

> <CNNscore>
0.1580895931

> <CNNaffinity>
7.1342329979

> <CNN_VS>
1.1278480291

> <CNNaffinity_variance>
1.3401215076

$$$$
/media/chris/experiments/cd1a-new-docking/inputs/ligands/7ryn_ligand.pdb


 68 68  0  0  0  0  0  0  0  0999 V2000
  -39.8133   58.7015   65.7589 C   0  0  0  0  0  0  0  0  0  0  0  0
  -40.2839   57.4589   65.1541 N   0  0  0  0  0  0  0  0  0  0  0  0
  -41.1165   56.3279   63.3947 O   0  0  0  0  0  0  0  0  0  0  0  0
  -40.7105   57.3747   63.8912 C   0  0  0  0  0  0  0  0  0  0  0  0
  -40.2868   56.6426   65.7044 H   0  0  0  0  0  0  0  0  0  0  0  0
  -40.6712   58.6597   63.1022 C   0  0  0  0  0  0  0  0  0  0  0  0
  -41.9100   58.8528   62.2369 C   0  0  0  0  0  0  0  0  0  0  0  0
  -41.8346   60.1034   61.3756 C   0  0  0  0  0  0  0  0  0  0  0  0
  -41.1172   59.8975   60.0519 C   0  0  0  0  0  0  0  0  0  0  0  0
  -39.6018   59.9865   60.1531 C   0  0  0  0  0  0  0  0  0  0  0  0
  -38.8854   58.6655   59.9032 C   0  0  0  0  0  0  0  0  0  0  0  0
  -37.5730   58.5220   60.6631 C   0  0  0  0  0  0  0  0  0  0  0  0
  -37.6343   57.5774   61.8608 C   0  0  0  0  0  0  0  0  0  0  0  0
  -36.3224   57.4705   62.6365 C   0  0  0  0  0  0  0  0  0  0  0  0
  -35.1571   58.2505   62.0284 C   0  0  0  0  0  0  0  0  0  0  0  0
  -33.7857   57.6971   62.4161 C   0  0  0  0  0  0  0  0  0  0  0  0
  -33.0476   58.4925   63.4928 C   0  0  0  0  0  0  0  0  0  0  0  0
  -31.7271   59.1207   63.0393 C   0  0  0  0  0  0  0  0  0  0  0  0
  -31.9047   60.1113   61.9253 C   0  0  0  0  0  0  0  0  0  0  0  0
  -30.9528   60.8466   61.3783 C   0  0  0  0  0  0  0  0  0  0  0  0
  -29.5032   60.8371   61.7582 C   0  0  0  0  0  0  0  0  0  0  0  0
  -29.1535   61.8252   62.8731 C   0  0  0  0  0  0  0  0  0  0  0  0
  -29.7971   63.1931   62.6890 C   0  0  0  0  0  0  0  0  0  0  0  0
  -29.7041   64.0770   63.9277 C   0  0  0  0  0  0  0  0  0  0  0  0
  -30.8214   63.8616   64.9422 C   0  0  0  0  0  0  0  0  0  0  0  0
  -31.6736   65.0987   65.1875 C   0  0  0  0  0  0  0  0  0  0  0  0
  -31.2233   66.3280   64.4141 C   0  0  0  0  0  0  0  0  0  0  0  0
  -30.3983   67.2825   65.2532 C   0  0  0  0  0  0  0  0  0  0  0  0
  -40.5350   60.8799   66.5127 O   0  0  0  0  0  0  0  0  0  0  0  0
  -40.9670   59.7163   65.8015 C   0  0  0  0  0  0  0  0  0  0  0  0
  -39.7426   61.2431   66.0875 H   0  0  0  0  0  0  0  0  0  0  0  0
  -42.1918   59.1272   66.4314 C   0  0  0  0  0  0  0  0  0  0  0  0
  -43.3771   59.0523   65.8593 C   0  0  0  0  0  0  0  0  0  0  0  0
  -44.5769   58.4446   66.5087 C   0  0  0  0  0  0  0  0  0  0  0  0
  -45.6513   58.1065   65.4730 C   0  0  0  0  0  0  0  0  0  0  0  0
  -47.0135   58.7135   65.7674 C   0  0  0  0  0  0  0  0  0  0  0  0
  -47.5537   59.6025   64.6603 C   0  0  0  0  0  0  0  0  0  0  0  0
  -49.0644   59.7828   64.6932 C   0  0  0  0  0  0  0  0  0  0  0  0
  -49.6784   60.0419   63.3260 C   0  0  0  0  0  0  0  0  0  0  0  0
  -50.9391   59.2385   63.0593 C   0  0  0  0  0  0  0  0  0  0  0  0
  -50.7810   58.1786   61.9851 C   0  0  0  0  0  0  0  0  0  0  0  0
  -49.3799   58.0950   61.4045 C   0  0  0  0  0  0  0  0  0  0  0  0
  -49.2996   58.5940   59.9737 C   0  0  0  0  0  0  0  0  0  0  0  0
  -48.9773   57.5195   58.9529 C   0  0  0  0  0  0  0  0  0  0  0  0
  -47.5645   57.6325   58.4145 C   0  0  0  0  0  0  0  0  0  0  0  0
  -47.5154   57.5930   56.9011 C   0  0  0  0  0  0  0  0  0  0  0  0
  -38.6178   59.2312   64.9943 C   0  0  0  0  0  0  0  0  0  0  0  0
  -38.5864   60.6557   65.1380 O   0  0  0  0  0  0  0  0  0  0  0  0
  -37.1054   60.9811   62.7839 O   0  0  0  0  0  0  0  0  0  0  0  0
  -36.4503   64.6029   65.0145 O   0  0  0  0  0  0  0  0  0  0  0  0
  -37.1874   62.1135   66.2544 O   0  0  0  0  0  0  0  0  0  0  0  0
  -37.3003   61.2021   65.1772 C   0  0  0  0  0  0  0  0  0  0  0  0
  -37.0503   61.9151   63.8546 C   0  0  0  0  0  0  0  0  0  0  0  0
  -35.6907   62.6020   63.8857 C   0  0  0  0  0  0  0  0  0  0  0  0
  -35.5584   63.4970   65.1091 C   0  0  0  0  0  0  0  0  0  0  0  0
  -35.8787   62.6950   66.3681 C   0  0  0  0  0  0  0  0  0  0  0  0
  -37.9747   60.5508   62.7747 H   0  0  0  0  0  0  0  0  0  0  0  0
  -36.2484   65.1137   64.2151 H   0  0  0  0  0  0  0  0  0  0  0  0
  -36.5263   62.8653   68.7005 O   0  0  0  0  0  0  0  0  0  0  0  0
  -35.8809   63.5352   67.6237 C   0  0  0  0  0  0  0  0  0  0  0  0
  -36.5103   63.4303   69.4888 H   0  0  0  0  0  0  0  0  0  0  0  0
  -35.6638   63.4228   62.6754 O   0  0  0  0  0  0  0  0  0  0  0  0
  -33.2679   63.2554   62.4790 O   0  0  0  0  0  0  0  0  0  0  0  0
  -34.3655   65.4816   62.8728 O   0  0  0  0  0  0  0  0  0  0  0  0
  -34.5385   64.3505   60.7926 O   0  0  0  0  0  0  0  0  0  0  0  0
  -34.3208   64.1863   62.3057 S   0  0  0  0  0  0  0  0  0  0  0  0
  -33.1026   63.1269   63.4261 H   0  0  0  0  0  0  0  0  0  0  0  0
  -34.5144   63.4796   60.3661 H   0  0  0  0  0  0  0  0  0  0  0  0
  2  1  1  0  0  0
  2  4  1  0  0  0
  2  5  1  0  0  0
 47 48  1  0  0  0
 47  1  1  0  0  0
 48 52  1  0  0  0
  1 30  1  0  0  0
 29 30  1  0  0  0
 29 31  1  0  0  0
 30 32  1  0  0  0
  3  4  2  0  0  0
 32 33  2  0  0  0
 49 53  1  0  0  0
 49 57  1  0  0  0
 33 34  1  0  0  0
 62 54  1  0  0  0
 62 66  1  0  0  0
 34 35  1  0  0  0
 50 55  1  0  0  0
 50 58  1  0  0  0
 35 36  1  0  0  0
 51 52  1  0  0  0
 51 56  1  0  0  0
 36 37  1  0  0  0
 59 60  1  0  0  0
 59 61  1  0  0  0
 37 38  1  0  0  0
 63 66  1  0  0  0
 63 67  1  0  0  0
 38 39  1  0  0  0
 64 66  1  0  0  0
 39 40  1  0  0  0
 65 66  1  0  0  0
 65 68  1  0  0  0
 40 41  1  0  0  0
 41 42  1  0  0  0
 42 43  1  0  0  0
 43 44  1  0  0  0
 44 45  1  0  0  0
 45 46  1  0  0  0
  4  6  1  0  0  0
  6  7  1  0  0  0
  7  8  1  0  0  0
  8  9  1  0  0  0
  9 10  1  0  0  0
 10 11  1  0  0  0
 11 12  1  0  0  0
 12 13  1  0  0  0
 13 14  1  0  0  0
 14 15  1  0  0  0
 15 16  1  0  0  0
 16 17  1  0  0  0
 17 18  1  0  0  0
 18 19  1  0  0  0
 19 20  2  0  0  0
 20 21  1  0  0  0
 21 22  1  0  0  0
 22 23  1  0  0  0
 23 24  1  0  0  0
 24 25  1  0  0  0
 25 26  1  0  0  0
 26 27  1  0  0  0
 27 28  1  0  0  0
 52 53  1  0  0  0
 53 54  1  0  0  0
 54 55  1  0  0  0
 55 56  1  0  0  0
 56 60  1  0  0  0
M  CHG 1  64  -1
M  END
> <minimizedAffinity>
-9.70439

> <CNNscore>
0.1504891217

> <CNNaffinity>
7.0697340965

> <CNN_VS>
1.0639181137

> <CNNaffinity_variance>
2.1255323887

$$$$
/media/chris/experiments/cd1a-new-docking/inputs/ligands/7ryn_ligand.pdb


 68 68  0  0  0  0  0  0  0  0999 V2000
  -38.6704   60.2721   62.2048 C   0  0  0  0  0  0  0  0  0  0  0  0
  -38.3127   60.3561   60.7919 N   0  0  0  0  0  0  0  0  0  0  0  0
  -38.1640   59.4224   58.7489 O   0  0  0  0  0  0  0  0  0  0  0  0
  -38.4795   59.3470   59.9329 C   0  0  0  0  0  0  0  0  0  0  0  0
  -37.9295   61.1983   60.4557 H   0  0  0  0  0  0  0  0  0  0  0  0
  -39.0792   58.0897   60.5118 C   0  0  0  0  0  0  0  0  0  0  0  0
  -40.4993   57.8393   60.0207 C   0  0  0  0  0  0  0  0  0  0  0  0
  -41.3734   57.1711   61.0699 C   0  0  0  0  0  0  0  0  0  0  0  0
  -40.5969   56.5917   62.2406 C   0  0  0  0  0  0  0  0  0  0  0  0
  -41.4327   55.7120   63.1582 C   0  0  0  0  0  0  0  0  0  0  0  0
  -41.6207   56.2801   64.5592 C   0  0  0  0  0  0  0  0  0  0  0  0
  -43.0551   56.6857   64.8731 C   0  0  0  0  0  0  0  0  0  0  0  0
  -43.6547   57.6981   63.9003 C   0  0  0  0  0  0  0  0  0  0  0  0
  -44.5581   58.7371   64.5623 C   0  0  0  0  0  0  0  0  0  0  0  0
  -45.2751   58.2490   65.8208 C   0  0  0  0  0  0  0  0  0  0  0  0
  -46.7355   58.6940   65.9009 C   0  0  0  0  0  0  0  0  0  0  0  0
  -47.3659   59.0893   64.5656 C   0  0  0  0  0  0  0  0  0  0  0  0
  -48.4796   60.1353   64.6626 C   0  0  0  0  0  0  0  0  0  0  0  0
  -49.7216   59.6058   65.3192 C   0  0  0  0  0  0  0  0  0  0  0  0
  -50.8825   59.3874   64.7272 C   0  0  0  0  0  0  0  0  0  0  0  0
  -51.1920   59.6216   63.2797 C   0  0  0  0  0  0  0  0  0  0  0  0
  -51.1247   58.3549   62.4240 C   0  0  0  0  0  0  0  0  0  0  0  0
  -49.7473   58.1063   61.8238 C   0  0  0  0  0  0  0  0  0  0  0  0
  -49.5455   58.7823   60.4722 C   0  0  0  0  0  0  0  0  0  0  0  0
  -49.2870   57.8207   59.3179 C   0  0  0  0  0  0  0  0  0  0  0  0
  -47.9738   57.0601   59.4359 C   0  0  0  0  0  0  0  0  0  0  0  0
  -47.0814   57.1651   58.2094 C   0  0  0  0  0  0  0  0  0  0  0  0
  -47.3755   56.0990   57.1737 C   0  0  0  0  0  0  0  0  0  0  0  0
  -40.5580   61.7791   62.2336 O   0  0  0  0  0  0  0  0  0  0  0  0
  -40.1950   60.4006   62.3529 C   0  0  0  0  0  0  0  0  0  0  0  0
  -40.2416   62.1244   61.3843 H   0  0  0  0  0  0  0  0  0  0  0  0
  -40.6686   59.8325   63.6556 C   0  0  0  0  0  0  0  0  0  0  0  0
  -41.0435   60.5431   64.7009 C   0  0  0  0  0  0  0  0  0  0  0  0
  -41.5257   59.9464   65.9823 C   0  0  0  0  0  0  0  0  0  0  0  0
  -40.4552   59.0508   66.6093 C   0  0  0  0  0  0  0  0  0  0  0  0
  -39.0809   59.1836   65.9732 C   0  0  0  0  0  0  0  0  0  0  0  0
  -38.4322   57.8600   65.6057 C   0  0  0  0  0  0  0  0  0  0  0  0
  -37.4932   57.9417   64.4110 C   0  0  0  0  0  0  0  0  0  0  0  0
  -36.1824   57.1971   64.6124 C   0  0  0  0  0  0  0  0  0  0  0  0
  -34.9737   57.9219   64.0470 C   0  0  0  0  0  0  0  0  0  0  0  0
  -34.8732   57.8691   62.5339 C   0  0  0  0  0  0  0  0  0  0  0  0
  -33.5332   58.3330   61.9896 C   0  0  0  0  0  0  0  0  0  0  0  0
  -32.4731   58.4769   63.0657 C   0  0  0  0  0  0  0  0  0  0  0  0
  -31.6107   59.7175   62.9333 C   0  0  0  0  0  0  0  0  0  0  0  0
  -31.7239   60.3626   61.5659 C   0  0  0  0  0  0  0  0  0  0  0  0
  -30.5501   61.2670   61.2520 C   0  0  0  0  0  0  0  0  0  0  0  0
  -37.9311   61.3342   62.9919 C   0  0  0  0  0  0  0  0  0  0  0  0
  -36.5318   61.0320   62.9522 O   0  0  0  0  0  0  0  0  0  0  0  0
  -34.3322   62.6817   62.4218 O   0  0  0  0  0  0  0  0  0  0  0  0
  -36.4243   64.6258   65.6414 O   0  0  0  0  0  0  0  0  0  0  0  0
  -36.6222   61.8021   65.1265 O   0  0  0  0  0  0  0  0  0  0  0  0
  -35.7926   61.5895   63.9995 C   0  0  0  0  0  0  0  0  0  0  0  0
  -35.2116   62.9116   63.5153 C   0  0  0  0  0  0  0  0  0  0  0  0
  -34.4685   63.5987   64.6541 C   0  0  0  0  0  0  0  0  0  0  0  0
  -35.3516   63.7222   65.8870 C   0  0  0  0  0  0  0  0  0  0  0  0
  -35.9180   62.3520   66.2514 C   0  0  0  0  0  0  0  0  0  0  0  0
  -34.8163   62.2442   61.7040 H   0  0  0  0  0  0  0  0  0  0  0  0
  -36.0665   65.4971   65.4096 H   0  0  0  0  0  0  0  0  0  0  0  0
  -36.4746   63.3070   68.4116 O   0  0  0  0  0  0  0  0  0  0  0  0
  -36.8979   62.4000   67.4002 C   0  0  0  0  0  0  0  0  0  0  0  0
  -37.1239   63.3137   69.1322 H   0  0  0  0  0  0  0  0  0  0  0  0
  -34.1578   64.9326   64.1408 O   0  0  0  0  0  0  0  0  0  0  0  0
  -32.5556   66.7324   64.1671 O   0  0  0  0  0  0  0  0  0  0  0  0
  -32.1261   64.6587   62.8140 O   0  0  0  0  0  0  0  0  0  0  0  0
  -32.0372   64.6469   65.1865 O   0  0  0  0  0  0  0  0  0  0  0  0
  -32.6334   65.3356   63.9479 S   0  0  0  0  0  0  0  0  0  0  0  0
  -32.9247   67.2008   63.4020 H   0  0  0  0  0  0  0  0  0  0  0  0
  -32.3631   65.0849   65.9882 H   0  0  0  0  0  0  0  0  0  0  0  0
  2  1  1  0  0  0
  2  4  1  0  0  0
  2  5  1  0  0  0
 47 48  1  0  0  0
 47  1  1  0  0  0
 48 52  1  0  0  0
  1 30  1  0  0  0
 29 30  1  0  0  0
 29 31  1  0  0  0
 30 32  1  0  0  0
  3  4  2  0  0  0
 32 33  2  0  0  0
 49 53  1  0  0  0
 49 57  1  0  0  0
 33 34  1  0  0  0
 62 54  1  0  0  0
 62 66  1  0  0  0
 34 35  1  0  0  0
 50 55  1  0  0  0
 50 58  1  0  0  0
 35 36  1  0  0  0
 51 52  1  0  0  0
 51 56  1  0  0  0
 36 37  1  0  0  0
 59 60  1  0  0  0
 59 61  1  0  0  0
 37 38  1  0  0  0
 63 66  1  0  0  0
 63 67  1  0  0  0
 38 39  1  0  0  0
 64 66  1  0  0  0
 39 40  1  0  0  0
 65 66  1  0  0  0
 65 68  1  0  0  0
 40 41  1  0  0  0
 41 42  1  0  0  0
 42 43  1  0  0  0
 43 44  1  0  0  0
 44 45  1  0  0  0
 45 46  1  0  0  0
  4  6  1  0  0  0
  6  7  1  0  0  0
  7  8  1  0  0  0
  8  9  1  0  0  0
  9 10  1  0  0  0
 10 11  1  0  0  0
 11 12  1  0  0  0
 12 13  1  0  0  0
 13 14  1  0  0  0
 14 15  1  0  0  0
 15 16  1  0  0  0
 16 17  1  0  0  0
 17 18  1  0  0  0
 18 19  1  0  0  0
 19 20  2  0  0  0
 20 21  1  0  0  0
 21 22  1  0  0  0
 22 23  1  0  0  0
 23 24  1  0  0  0
 24 25  1  0  0  0
 25 26  1  0  0  0
 26 27  1  0  0  0
 27 28  1  0  0  0
 52 53  1  0  0  0
 53 54  1  0  0  0
 54 55  1  0  0  0
 55 56  1  0  0  0
 56 60  1  0  0  0
M  CHG 1  64  -1
M  END
> <minimizedAffinity>
-8.79057

> <CNNscore>
0.1438163966

> <CNNaffinity>
7.5217943192

> <CNN_VS>
1.0817573071

> <CNNaffinity_variance>
1.3005377054

$$$$
