/media/chris/experiments/cd1a-new-docking/inputs/ligands/7ryn_ligand.pdb


 68 68  0  0  0  0  0  0  0  0999 V2000
  -37.4884   59.4359   61.4452 C   0  0  0  0  0  0  0  0  0  0  0  0
  -38.9401   59.3442   61.3208 N   0  0  0  0  0  0  0  0  0  0  0  0
  -38.9689   59.1076   59.0823 O   0  0  0  0  0  0  0  0  0  0  0  0
  -39.5666   59.1875   60.1516 C   0  0  0  0  0  0  0  0  0  0  0  0
  -39.4843   59.4007   62.1392 H   0  0  0  0  0  0  0  0  0  0  0  0
  -41.0711   59.1057   60.2233 C   0  0  0  0  0  0  0  0  0  0  0  0
  -41.5537   58.1404   61.2984 C   0  0  0  0  0  0  0  0  0  0  0  0
  -41.4118   56.6841   60.8857 C   0  0  0  0  0  0  0  0  0  0  0  0
  -41.3964   55.7116   62.0532 C   0  0  0  0  0  0  0  0  0  0  0  0
  -41.1464   56.3720   63.4008 C   0  0  0  0  0  0  0  0  0  0  0  0
  -42.1776   56.0184   64.4650 C   0  0  0  0  0  0  0  0  0  0  0  0
  -43.1728   57.1346   64.7546 C   0  0  0  0  0  0  0  0  0  0  0  0
  -43.2078   57.5902   66.2112 C   0  0  0  0  0  0  0  0  0  0  0  0
  -44.4510   58.3978   66.5807 C   0  0  0  0  0  0  0  0  0  0  0  0
  -45.4621   58.5655   65.4467 C   0  0  0  0  0  0  0  0  0  0  0  0
  -46.8530   58.0297   65.7868 C   0  0  0  0  0  0  0  0  0  0  0  0
  -48.0159   58.9026   65.3154 C   0  0  0  0  0  0  0  0  0  0  0  0
  -49.3619   58.1810   65.2081 C   0  0  0  0  0  0  0  0  0  0  0  0
  -50.5162   59.1239   65.0268 C   0  0  0  0  0  0  0  0  0  0  0  0
  -51.1288   59.3946   63.8878 C   0  0  0  0  0  0  0  0  0  0  0  0
  -50.7960   58.8121   62.5475 C   0  0  0  0  0  0  0  0  0  0  0  0
  -49.6058   59.4871   61.8626 C   0  0  0  0  0  0  0  0  0  0  0  0
  -49.6257   59.3484   60.3461 C   0  0  0  0  0  0  0  0  0  0  0  0
  -49.9499   57.9362   59.8720 C   0  0  0  0  0  0  0  0  0  0  0  0
  -48.7967   57.2245   59.1738 C   0  0  0  0  0  0  0  0  0  0  0  0
  -47.9901   58.1256   58.2493 C   0  0  0  0  0  0  0  0  0  0  0  0
  -47.1107   57.3759   57.2612 C   0  0  0  0  0  0  0  0  0  0  0  0
  -47.3621   55.8818   57.2641 C   0  0  0  0  0  0  0  0  0  0  0  0
  -37.8614   57.0863   61.8634 O   0  0  0  0  0  0  0  0  0  0  0  0
  -36.8832   58.0235   61.4039 C   0  0  0  0  0  0  0  0  0  0  0  0
  -38.6603   57.1592   61.3180 H   0  0  0  0  0  0  0  0  0  0  0  0
  -35.6331   57.9391   62.2248 C   0  0  0  0  0  0  0  0  0  0  0  0
  -34.4063   57.9921   61.7451 C   0  0  0  0  0  0  0  0  0  0  0  0
  -33.1784   57.9202   62.5924 C   0  0  0  0  0  0  0  0  0  0  0  0
  -33.2511   58.9155   63.7522 C   0  0  0  0  0  0  0  0  0  0  0  0
  -33.8417   58.3414   65.0297 C   0  0  0  0  0  0  0  0  0  0  0  0
  -35.3536   58.4554   65.1253 C   0  0  0  0  0  0  0  0  0  0  0  0
  -36.0758   57.1160   65.1345 C   0  0  0  0  0  0  0  0  0  0  0  0
  -37.5918   57.2395   65.1453 C   0  0  0  0  0  0  0  0  0  0  0  0
  -38.0894   58.6368   65.4705 C   0  0  0  0  0  0  0  0  0  0  0  0
  -39.5976   58.7881   65.3993 C   0  0  0  0  0  0  0  0  0  0  0  0
  -40.1234   60.0394   66.0814 C   0  0  0  0  0  0  0  0  0  0  0  0
  -41.3634   60.6032   65.4129 C   0  0  0  0  0  0  0  0  0  0  0  0
  -41.3489   60.5246   63.8983 C   0  0  0  0  0  0  0  0  0  0  0  0
  -42.7346   60.6465   63.2953 C   0  0  0  0  0  0  0  0  0  0  0  0
  -42.8208   61.7451   62.2563 C   0  0  0  0  0  0  0  0  0  0  0  0
  -37.1215   60.1748   62.7155 C   0  0  0  0  0  0  0  0  0  0  0  0
  -37.8803   61.3883   62.7660 O   0  0  0  0  0  0  0  0  0  0  0  0
  -37.3154   61.9213   65.4563 O   0  0  0  0  0  0  0  0  0  0  0  0
  -33.6455   62.7526   63.3677 O   0  0  0  0  0  0  0  0  0  0  0  0
  -36.2253   62.8521   62.0980 O   0  0  0  0  0  0  0  0  0  0  0  0
  -37.1382   62.5168   63.1262 C   0  0  0  0  0  0  0  0  0  0  0  0
  -36.3891   62.1974   64.4134 C   0  0  0  0  0  0  0  0  0  0  0  0
  -35.4967   63.3708   64.7978 C   0  0  0  0  0  0  0  0  0  0  0  0
  -34.5974   63.7762   63.6393 C   0  0  0  0  0  0  0  0  0  0  0  0
  -35.4452   64.0217   62.3937 C   0  0  0  0  0  0  0  0  0  0  0  0
  -37.8772   61.1732   65.2000 H   0  0  0  0  0  0  0  0  0  0  0  0
  -33.1056   62.5950   64.1579 H   0  0  0  0  0  0  0  0  0  0  0  0
  -33.3050   64.7400   61.5036 O   0  0  0  0  0  0  0  0  0  0  0  0
  -34.6215   64.3209   61.1631 C   0  0  0  0  0  0  0  0  0  0  0  0
  -32.8043   64.9235   60.6934 H   0  0  0  0  0  0  0  0  0  0  0  0
  -34.6766   62.8661   65.8988 O   0  0  0  0  0  0  0  0  0  0  0  0
  -35.9595   63.5000   67.8378 O   0  0  0  0  0  0  0  0  0  0  0  0
  -34.0248   64.9078   67.0692 O   0  0  0  0  0  0  0  0  0  0  0  0
  -33.7048   62.7794   68.0714 O   0  0  0  0  0  0  0  0  0  0  0  0
  -34.6725   63.6665   67.2711 S   0  0  0  0  0  0  0  0  0  0  0  0
  -36.5984   64.0476   67.3555 H   0  0  0  0  0  0  0  0  0  0  0  0
  -34.1151   61.9150   68.2307 H   0  0  0  0  0  0  0  0  0  0  0  0
  2  1  1  0  0  0
  2  4  1  0  0  0
  2  5  1  0  0  0
 47 48  1  0  0  0
 47  1  1  0  0  0
 48 52  1  0  0  0
  1 30  1  0  0  0
 29 30  1  0  0  0
 29 31  1  0  0  0
 30 32  1  0  0  0
  3  4  2  0  0  0
 32 33  2  0  0  0
 49 53  1  0  0  0
 49 57  1  0  0  0
 33 34  1  0  0  0
 62 54  1  0  0  0
 62 66  1  0  0  0
 34 35  1  0  0  0
 50 55  1  0  0  0
 50 58  1  0  0  0
 35 36  1  0  0  0
 51 52  1  0  0  0
 51 56  1  0  0  0
 36 37  1  0  0  0
 59 60  1  0  0  0
 59 61  1  0  0  0
 37 38  1  0  0  0
 63 66  1  0  0  0
 63 67  1  0  0  0
 38 39  1  0  0  0
 64 66  1  0  0  0
 39 40  1  0  0  0
 65 66  1  0  0  0
 65 68  1  0  0  0
 40 41  1  0  0  0
 41 42  1  0  0  0
 42 43  1  0  0  0
 43 44  1  0  0  0
 44 45  1  0  0  0
 45 46  1  0  0  0
  4  6  1  0  0  0
  6  7  1  0  0  0
  7  8  1  0  0  0
  8  9  1  0  0  0
  9 10  1  0  0  0
 10 11  1  0  0  0
 11 12  1  0  0  0
 12 13  1  0  0  0
 13 14  1  0  0  0
 14 15  1  0  0  0
 15 16  1  0  0  0
 16 17  1  0  0  0
 17 18  1  0  0  0
 18 19  1  0  0  0
 19 20  2  0  0  0
 20 21  1  0  0  0
 21 22  1  0  0  0
 22 23  1  0  0  0
 23 24  1  0  0  0
 24 25  1  0  0  0
 25 26  1  0  0  0
 26 27  1  0  0  0
 27 28  1  0  0  0
 52 53  1  0  0  0
 53 54  1  0  0  0
 54 55  1  0  0  0
 55 56  1  0  0  0
 56 60  1  0  0  0
M  CHG 1  64  -1
M  END
> <minimizedAffinity>
-8.24274

> <CNNscore>
0.2059005201

> <CNNaffinity>
7.5170121193

> <CNN_VS>
1.5477566719

> <CNNaffinity_variance>
1.7166156769

$$$$
/media/chris/experiments/cd1a-new-docking/inputs/ligands/7ryn_ligand.pdb


 68 68  0  0  0  0  0  0  0  0999 V2000
  -39.1585   60.5050   65.3699 C   0  0  0  0  0  0  0  0  0  0  0  0
  -40.2616   59.8640   66.0796 N   0  0  0  0  0  0  0  0  0  0  0  0
  -41.4766   61.7374   66.3652 O   0  0  0  0  0  0  0  0  0  0  0  0
  -41.3329   60.5283   66.5213 C   0  0  0  0  0  0  0  0  0  0  0  0
  -40.2135   58.8939   66.2407 H   0  0  0  0  0  0  0  0  0  0  0  0
  -42.3732   59.6939   67.2261 C   0  0  0  0  0  0  0  0  0  0  0  0
  -42.3823   58.2466   66.7508 C   0  0  0  0  0  0  0  0  0  0  0  0
  -43.7808   57.6521   66.7075 C   0  0  0  0  0  0  0  0  0  0  0  0
  -44.2624   57.3114   65.3071 C   0  0  0  0  0  0  0  0  0  0  0  0
  -44.8448   58.4964   64.5514 C   0  0  0  0  0  0  0  0  0  0  0  0
  -46.3413   58.6902   64.7612 C   0  0  0  0  0  0  0  0  0  0  0  0
  -46.7190   59.0819   66.1840 C   0  0  0  0  0  0  0  0  0  0  0  0
  -47.9722   58.3936   66.7191 C   0  0  0  0  0  0  0  0  0  0  0  0
  -48.9573   57.9635   65.6334 C   0  0  0  0  0  0  0  0  0  0  0  0
  -50.3909   58.4497   65.8451 C   0  0  0  0  0  0  0  0  0  0  0  0
  -50.8212   59.5282   64.8506 C   0  0  0  0  0  0  0  0  0  0  0  0
  -49.8112   60.6565   64.6423 C   0  0  0  0  0  0  0  0  0  0  0  0
  -48.9435   60.5221   63.3881 C   0  0  0  0  0  0  0  0  0  0  0  0
  -49.7440   60.5593   62.1184 C   0  0  0  0  0  0  0  0  0  0  0  0
  -50.0716   59.5180   61.3739 C   0  0  0  0  0  0  0  0  0  0  0  0
  -49.7122   58.0892   61.6492 C   0  0  0  0  0  0  0  0  0  0  0  0
  -50.2863   57.1037   60.6291 C   0  0  0  0  0  0  0  0  0  0  0  0
  -49.2568   56.1112   60.1053 C   0  0  0  0  0  0  0  0  0  0  0  0
  -47.8895   56.7356   59.8507 C   0  0  0  0  0  0  0  0  0  0  0  0
  -47.0685   56.0390   58.7716 C   0  0  0  0  0  0  0  0  0  0  0  0
  -47.7346   56.0332   57.4028 C   0  0  0  0  0  0  0  0  0  0  0  0
  -47.8195   57.4019   56.7462 C   0  0  0  0  0  0  0  0  0  0  0  0
  -46.6328   58.2862   57.0713 C   0  0  0  0  0  0  0  0  0  0  0  0
  -39.0685   61.1889   63.0550 O   0  0  0  0  0  0  0  0  0  0  0  0
  -39.1576   60.0413   63.9044 C   0  0  0  0  0  0  0  0  0  0  0  0
  -38.2730   61.6964   63.2797 H   0  0  0  0  0  0  0  0  0  0  0  0
  -40.3771   59.2319   63.5853 C   0  0  0  0  0  0  0  0  0  0  0  0
  -40.4042   57.9200   63.4585 C   0  0  0  0  0  0  0  0  0  0  0  0
  -41.6407   57.1395   63.1542 C   0  0  0  0  0  0  0  0  0  0  0  0
  -42.2845   57.6148   61.8500 C   0  0  0  0  0  0  0  0  0  0  0  0
  -41.5373   57.1913   60.5959 C   0  0  0  0  0  0  0  0  0  0  0  0
  -41.3591   58.2984   59.5710 C   0  0  0  0  0  0  0  0  0  0  0  0
  -41.0377   59.6568   60.1770 C   0  0  0  0  0  0  0  0  0  0  0  0
  -39.5590   60.0105   60.1336 C   0  0  0  0  0  0  0  0  0  0  0  0
  -38.6642   58.8514   59.7316 C   0  0  0  0  0  0  0  0  0  0  0  0
  -38.2433   57.9651   60.8891 C   0  0  0  0  0  0  0  0  0  0  0  0
  -36.8505   58.2630   61.4174 C   0  0  0  0  0  0  0  0  0  0  0  0
  -36.5231   57.5030   62.6892 C   0  0  0  0  0  0  0  0  0  0  0  0
  -35.0399   57.3808   62.9816 C   0  0  0  0  0  0  0  0  0  0  0  0
  -34.7116   57.6272   64.4410 C   0  0  0  0  0  0  0  0  0  0  0  0
  -33.3726   58.3102   64.6274 C   0  0  0  0  0  0  0  0  0  0  0  0
  -37.8471   60.1997   66.0638 C   0  0  0  0  0  0  0  0  0  0  0  0
  -36.8178   60.1290   65.0707 O   0  0  0  0  0  0  0  0  0  0  0  0
  -35.0495   60.7035   62.9769 O   0  0  0  0  0  0  0  0  0  0  0  0
  -35.9455   64.5214   64.7497 O   0  0  0  0  0  0  0  0  0  0  0  0
  -36.1616   62.0392   66.1882 O   0  0  0  0  0  0  0  0  0  0  0  0
  -35.7828   61.0517   65.2477 C   0  0  0  0  0  0  0  0  0  0  0  0
  -35.4877   61.6939   63.8984 C   0  0  0  0  0  0  0  0  0  0  0  0
  -34.4232   62.7718   64.0597 C   0  0  0  0  0  0  0  0  0  0  0  0
  -34.8088   63.7622   65.1486 C   0  0  0  0  0  0  0  0  0  0  0  0
  -35.1307   63.0085   66.4366 C   0  0  0  0  0  0  0  0  0  0  0  0
  -35.7349   60.0236   62.8828 H   0  0  0  0  0  0  0  0  0  0  0  0
  -35.7430   65.0012   63.9314 H   0  0  0  0  0  0  0  0  0  0  0  0
  -36.3871   63.1813   68.5055 O   0  0  0  0  0  0  0  0  0  0  0  0
  -35.6327   63.9075   67.5421 C   0  0  0  0  0  0  0  0  0  0  0  0
  -36.6936   63.7861   69.1991 H   0  0  0  0  0  0  0  0  0  0  0  0
  -34.3910   63.4557   62.7671 O   0  0  0  0  0  0  0  0  0  0  0  0
  -33.2699   64.2283   60.7788 O   0  0  0  0  0  0  0  0  0  0  0  0
  -32.4844   62.1572   61.9658 O   0  0  0  0  0  0  0  0  0  0  0  0
  -32.1762   64.3227   62.8889 O   0  0  0  0  0  0  0  0  0  0  0  0
  -33.0315   63.4615   61.9452 S   0  0  0  0  0  0  0  0  0  0  0  0
  -33.8093   63.7138   60.1583 H   0  0  0  0  0  0  0  0  0  0  0  0
  -32.5216   65.2290   62.9019 H   0  0  0  0  0  0  0  0  0  0  0  0
  2  1  1  0  0  0
  2  4  1  0  0  0
  2  5  1  0  0  0
 47 48  1  0  0  0
 47  1  1  0  0  0
 48 52  1  0  0  0
  1 30  1  0  0  0
 29 30  1  0  0  0
 29 31  1  0  0  0
 30 32  1  0  0  0
  3  4  2  0  0  0
 32 33  2  0  0  0
 49 53  1  0  0  0
 49 57  1  0  0  0
 33 34  1  0  0  0
 62 54  1  0  0  0
 62 66  1  0  0  0
 34 35  1  0  0  0
 50 55  1  0  0  0
 50 58  1  0  0  0
 35 36  1  0  0  0
 51 52  1  0  0  0
 51 56  1  0  0  0
 36 37  1  0  0  0
 59 60  1  0  0  0
 59 61  1  0  0  0
 37 38  1  0  0  0
 63 66  1  0  0  0
 63 67  1  0  0  0
 38 39  1  0  0  0
 64 66  1  0  0  0
 39 40  1  0  0  0
 65 66  1  0  0  0
 65 68  1  0  0  0
 40 41  1  0  0  0
 41 42  1  0  0  0
 42 43  1  0  0  0
 43 44  1  0  0  0
 44 45  1  0  0  0
 45 46  1  0  0  0
  4  6  1  0  0  0
  6  7  1  0  0  0
  7  8  1  0  0  0
  8  9  1  0  0  0
  9 10  1  0  0  0
 10 11  1  0  0  0
 11 12  1  0  0  0
 12 13  1  0  0  0
 13 14  1  0  0  0
 14 15  1  0  0  0
 15 16  1  0  0  0
 16 17  1  0  0  0
 17 18  1  0  0  0
 18 19  1  0  0  0
 19 20  2  0  0  0
 20 21  1  0  0  0
 21 22  1  0  0  0
 22 23  1  0  0  0
 23 24  1  0  0  0
 24 25  1  0  0  0
 25 26  1  0  0  0
 26 27  1  0  0  0
 27 28  1  0  0  0
 52 53  1  0  0  0
 53 54  1  0  0  0
 54 55  1  0  0  0
 55 56  1  0  0  0
 56 60  1  0  0  0
M  CHG 1  64  -1
M  END
> <minimizedAffinity>
-9.48398

> <CNNscore>
0.1553532034

> <CNNaffinity>
7.5344138145

> <CNN_VS>
1.1704952717

> <CNNaffinity_variance>
1.7570823431

$$$$
/media/chris/experiments/cd1a-new-docking/inputs/ligands/7ryn_ligand.pdb


 68 68  0  0  0  0  0  0  0  0999 V2000
  -36.6971   58.8275   63.9711 C   0  0  0  0  0  0  0  0  0  0  0  0
  -37.8433   58.7160   64.8684 N   0  0  0  0  0  0  0  0  0  0  0  0
  -38.2807   60.9221   64.9649 O   0  0  0  0  0  0  0  0  0  0  0  0
  -38.5448   59.7695   65.2949 C   0  0  0  0  0  0  0  0  0  0  0  0
  -38.1125   57.8198   65.1743 H   0  0  0  0  0  0  0  0  0  0  0  0
  -39.7006   59.4558   66.2119 C   0  0  0  0  0  0  0  0  0  0  0  0
  -40.8149   60.4908   66.1236 C   0  0  0  0  0  0  0  0  0  0  0  0
  -41.8872   60.2901   67.1823 C   0  0  0  0  0  0  0  0  0  0  0  0
  -42.6556   58.9867   67.0416 C   0  0  0  0  0  0  0  0  0  0  0  0
  -44.1660   59.1643   66.9986 C   0  0  0  0  0  0  0  0  0  0  0  0
  -44.9374   57.8651   66.8040 C   0  0  0  0  0  0  0  0  0  0  0  0
  -46.4026   57.9507   67.2118 C   0  0  0  0  0  0  0  0  0  0  0  0
  -47.3263   56.9954   66.4603 C   0  0  0  0  0  0  0  0  0  0  0  0
  -48.2716   57.6871   65.4794 C   0  0  0  0  0  0  0  0  0  0  0  0
  -47.6325   58.8102   64.6631 C   0  0  0  0  0  0  0  0  0  0  0  0
  -48.1786   60.1971   65.0034 C   0  0  0  0  0  0  0  0  0  0  0  0
  -49.1718   60.7678   63.9914 C   0  0  0  0  0  0  0  0  0  0  0  0
  -50.6336   60.3835   64.2349 C   0  0  0  0  0  0  0  0  0  0  0  0
  -51.0039   59.0710   63.6067 C   0  0  0  0  0  0  0  0  0  0  0  0
  -50.7134   58.6874   62.3762 C   0  0  0  0  0  0  0  0  0  0  0  0
  -49.9527   59.4849   61.3604 C   0  0  0  0  0  0  0  0  0  0  0  0
  -49.4287   58.6495   60.1904 C   0  0  0  0  0  0  0  0  0  0  0  0
  -50.0239   57.2488   60.1362 C   0  0  0  0  0  0  0  0  0  0  0  0
  -48.9730   56.1479   60.0473 C   0  0  0  0  0  0  0  0  0  0  0  0
  -47.6560   56.5823   59.4143 C   0  0  0  0  0  0  0  0  0  0  0  0
  -47.4727   56.0938   57.9843 C   0  0  0  0  0  0  0  0  0  0  0  0
  -47.7604   57.1464   56.9255 C   0  0  0  0  0  0  0  0  0  0  0  0
  -46.7371   58.2637   56.9118 C   0  0  0  0  0  0  0  0  0  0  0  0
  -35.2868   57.3380   62.6954 O   0  0  0  0  0  0  0  0  0  0  0  0
  -36.6478   57.5963   63.0520 C   0  0  0  0  0  0  0  0  0  0  0  0
  -34.7591   57.2163   63.5003 H   0  0  0  0  0  0  0  0  0  0  0  0
  -37.4940   57.7900   61.8312 C   0  0  0  0  0  0  0  0  0  0  0  0
  -37.7373   58.9499   61.2538 C   0  0  0  0  0  0  0  0  0  0  0  0
  -38.5742   59.1086   60.0270 C   0  0  0  0  0  0  0  0  0  0  0  0
  -39.7608   60.0390   60.2869 C   0  0  0  0  0  0  0  0  0  0  0  0
  -41.0917   59.5078   59.7801 C   0  0  0  0  0  0  0  0  0  0  0  0
  -41.1216   58.0050   59.5600 C   0  0  0  0  0  0  0  0  0  0  0  0
  -41.7897   57.2280   60.6850 C   0  0  0  0  0  0  0  0  0  0  0  0
  -40.8068   56.5975   61.6596 C   0  0  0  0  0  0  0  0  0  0  0  0
  -41.4103   56.2769   63.0157 C   0  0  0  0  0  0  0  0  0  0  0  0
  -41.7937   57.5007   63.8267 C   0  0  0  0  0  0  0  0  0  0  0  0
  -43.2734   57.8391   63.7678 C   0  0  0  0  0  0  0  0  0  0  0  0
  -43.5369   59.2870   63.3981 C   0  0  0  0  0  0  0  0  0  0  0  0
  -42.2883   60.0934   63.0964 C   0  0  0  0  0  0  0  0  0  0  0  0
  -42.5428   61.5880   63.1098 C   0  0  0  0  0  0  0  0  0  0  0  0
  -42.8706   62.1332   61.7352 C   0  0  0  0  0  0  0  0  0  0  0  0
  -35.4228   58.9893   64.7738 C   0  0  0  0  0  0  0  0  0  0  0  0
  -34.5317   59.8357   64.0386 O   0  0  0  0  0  0  0  0  0  0  0  0
  -32.3769   61.3414   63.0741 O   0  0  0  0  0  0  0  0  0  0  0  0
  -35.1777   64.2470   64.5691 O   0  0  0  0  0  0  0  0  0  0  0  0
  -35.0957   61.5274   65.5045 O   0  0  0  0  0  0  0  0  0  0  0  0
  -34.0490   60.9300   64.7622 C   0  0  0  0  0  0  0  0  0  0  0  0
  -33.4668   61.9304   63.7720 C   0  0  0  0  0  0  0  0  0  0  0  0
  -33.0063   63.1811   64.5100 C   0  0  0  0  0  0  0  0  0  0  0  0
  -34.1206   63.7440   65.3798 C   0  0  0  0  0  0  0  0  0  0  0  0
  -34.6619   62.6470   66.2932 C   0  0  0  0  0  0  0  0  0  0  0  0
  -32.6823   60.5470   62.6088 H   0  0  0  0  0  0  0  0  0  0  0  0
  -34.8359   64.9443   63.9880 H   0  0  0  0  0  0  0  0  0  0  0  0
  -36.9621   63.4204   66.2913 O   0  0  0  0  0  0  0  0  0  0  0  0
  -35.8498   63.0898   67.1149 C   0  0  0  0  0  0  0  0  0  0  0  0
  -37.7053   63.6998   66.8483 H   0  0  0  0  0  0  0  0  0  0  0  0
  -32.6836   64.1371   63.4510 O   0  0  0  0  0  0  0  0  0  0  0  0
  -31.0063   65.6467   62.6055 O   0  0  0  0  0  0  0  0  0  0  0  0
  -31.1323   65.1213   65.0598 O   0  0  0  0  0  0  0  0  0  0  0  0
  -32.7704   66.4578   63.9794 O   0  0  0  0  0  0  0  0  0  0  0  0
  -31.7186   65.3518   63.7933 S   0  0  0  0  0  0  0  0  0  0  0  0
  -30.3313   64.9664   62.4559 H   0  0  0  0  0  0  0  0  0  0  0  0
  -33.1967   66.6451   63.1285 H   0  0  0  0  0  0  0  0  0  0  0  0
  2  1  1  0  0  0
  2  4  1  0  0  0
  2  5  1  0  0  0
 47 48  1  0  0  0
 47  1  1  0  0  0
 48 52  1  0  0  0
  1 30  1  0  0  0
 29 30  1  0  0  0
 29 31  1  0  0  0
 30 32  1  0  0  0
  3  4  2  0  0  0
 32 33  2  0  0  0
 49 53  1  0  0  0
 49 57  1  0  0  0
 33 34  1  0  0  0
 62 54  1  0  0  0
 62 66  1  0  0  0
 34 35  1  0  0  0
 50 55  1  0  0  0
 50 58  1  0  0  0
 35 36  1  0  0  0
 51 52  1  0  0  0
 51 56  1  0  0  0
 36 37  1  0  0  0
 59 60  1  0  0  0
 59 61  1  0  0  0
 37 38  1  0  0  0
 63 66  1  0  0  0
 63 67  1  0  0  0
 38 39  1  0  0  0
 64 66  1  0  0  0
 39 40  1  0  0  0
 65 66  1  0  0  0
 65 68  1  0  0  0
 40 41  1  0  0  0
 41 42  1  0  0  0
 42 43  1  0  0  0
 43 44  1  0  0  0
 44 45  1  0  0  0
 45 46  1  0  0  0
  4  6  1  0  0  0
  6  7  1  0  0  0
  7  8  1  0  0  0
  8  9  1  0  0  0
  9 10  1  0  0  0
 10 11  1  0  0  0
 11 12  1  0  0  0
 12 13  1  0  0  0
 13 14  1  0  0  0
 14 15  1  0  0  0
 15 16  1  0  0  0
 16 17  1  0  0  0
 17 18  1  0  0  0
 18 19  1  0  0  0
 19 20  2  0  0  0
 20 21  1  0  0  0
 21 22  1  0  0  0
 22 23  1  0  0  0
 23 24  1  0  0  0
 24 25  1  0  0  0
 25 26  1  0  0  0
 26 27  1  0  0  0
 27 28  1  0  0  0
 52 53  1  0  0  0
 53 54  1  0  0  0
 54 55  1  0  0  0
 55 56  1  0  0  0
 56 60  1  0  0  0
M  CHG 1  64  -1
M  END
> <minimizedAffinity>
-9.34272

> <CNNscore>
0.1514535844

> <CNNaffinity>
7.3876905441

> <CNN_VS>
1.1188921928

> <CNNaffinity_variance>
2.3685936928

$$$$
/media/chris/experiments/cd1a-new-docking/inputs/ligands/7ryn_ligand.pdb


 68 68  0  0  0  0  0  0  0  0999 V2000
  -37.1615   59.5957   63.2188 C   0  0  0  0  0  0  0  0  0  0  0  0
  -37.7430   59.8127   61.8974 N   0  0  0  0  0  0  0  0  0  0  0  0
  -37.4123   57.7156   61.1487 O   0  0  0  0  0  0  0  0  0  0  0  0
  -37.8233   58.8579   60.9667 C   0  0  0  0  0  0  0  0  0  0  0  0
  -38.0934   60.7070   61.6815 H   0  0  0  0  0  0  0  0  0  0  0  0
  -38.4636   59.2687   59.6642 C   0  0  0  0  0  0  0  0  0  0  0  0
  -39.6083   58.3486   59.2596 C   0  0  0  0  0  0  0  0  0  0  0  0
  -40.8033   58.4534   60.1936 C   0  0  0  0  0  0  0  0  0  0  0  0
  -41.3522   57.1102   60.6448 C   0  0  0  0  0  0  0  0  0  0  0  0
  -40.7731   56.6203   61.9636 C   0  0  0  0  0  0  0  0  0  0  0  0
  -41.8004   55.9903   62.8955 C   0  0  0  0  0  0  0  0  0  0  0  0
  -42.3754   56.9564   63.9233 C   0  0  0  0  0  0  0  0  0  0  0  0
  -43.4654   57.8797   63.3846 C   0  0  0  0  0  0  0  0  0  0  0  0
  -44.7627   57.8469   64.1909 C   0  0  0  0  0  0  0  0  0  0  0  0
  -45.6219   59.1051   64.0668 C   0  0  0  0  0  0  0  0  0  0  0  0
  -47.0950   58.8721   64.4032 C   0  0  0  0  0  0  0  0  0  0  0  0
  -47.4292   58.8915   65.8946 C   0  0  0  0  0  0  0  0  0  0  0  0
  -48.7483   59.5820   66.2512 C   0  0  0  0  0  0  0  0  0  0  0  0
  -49.9420   58.6903   66.0661 C   0  0  0  0  0  0  0  0  0  0  0  0
  -50.9063   58.8547   65.1780 C   0  0  0  0  0  0  0  0  0  0  0  0
  -51.0008   59.9636   64.1741 C   0  0  0  0  0  0  0  0  0  0  0  0
  -51.0220   59.4786   62.7230 C   0  0  0  0  0  0  0  0  0  0  0  0
  -50.0751   58.3145   62.4632 C   0  0  0  0  0  0  0  0  0  0  0  0
  -49.2903   58.4516   61.1634 C   0  0  0  0  0  0  0  0  0  0  0  0
  -50.0430   57.9919   59.9201 C   0  0  0  0  0  0  0  0  0  0  0  0
  -49.1497   57.3613   58.8610 C   0  0  0  0  0  0  0  0  0  0  0  0
  -47.9599   58.2187   58.4596 C   0  0  0  0  0  0  0  0  0  0  0  0
  -47.1419   57.6051   57.3415 C   0  0  0  0  0  0  0  0  0  0  0  0
  -37.8638   59.3773   65.5196 O   0  0  0  0  0  0  0  0  0  0  0  0
  -38.1570   60.0569   64.2955 C   0  0  0  0  0  0  0  0  0  0  0  0
  -36.9434   59.5499   65.7729 H   0  0  0  0  0  0  0  0  0  0  0  0
  -39.5731   59.8124   63.8728 C   0  0  0  0  0  0  0  0  0  0  0  0
  -40.3014   60.6388   63.1484 C   0  0  0  0  0  0  0  0  0  0  0  0
  -41.7077   60.3592   62.7301 C   0  0  0  0  0  0  0  0  0  0  0  0
  -42.0676   61.1317   61.4593 C   0  0  0  0  0  0  0  0  0  0  0  0
  -43.0050   62.3061   61.6886 C   0  0  0  0  0  0  0  0  0  0  0  0
  -43.3770   62.5336   63.1438 C   0  0  0  0  0  0  0  0  0  0  0  0
  -42.4565   63.5009   63.8738 C   0  0  0  0  0  0  0  0  0  0  0  0
  -42.9381   63.8669   65.2693 C   0  0  0  0  0  0  0  0  0  0  0  0
  -42.1420   63.2100   66.3831 C   0  0  0  0  0  0  0  0  0  0  0  0
  -41.3589   61.9865   65.9446 C   0  0  0  0  0  0  0  0  0  0  0  0
  -41.5288   60.7863   66.8602 C   0  0  0  0  0  0  0  0  0  0  0  0
  -42.6625   59.8716   66.4354 C   0  0  0  0  0  0  0  0  0  0  0  0
  -42.5783   58.4663   66.9997 C   0  0  0  0  0  0  0  0  0  0  0  0
  -43.9435   57.8551   67.2471 C   0  0  0  0  0  0  0  0  0  0  0  0
  -44.9935   58.8951   67.5790 C   0  0  0  0  0  0  0  0  0  0  0  0
  -35.8333   60.3159   63.3264 C   0  0  0  0  0  0  0  0  0  0  0  0
  -35.1867   59.8907   64.5314 O   0  0  0  0  0  0  0  0  0  0  0  0
  -32.7430   60.9712   63.6936 O   0  0  0  0  0  0  0  0  0  0  0  0
  -35.1149   64.3678   64.8595 O   0  0  0  0  0  0  0  0  0  0  0  0
  -35.5632   61.7191   65.8893 O   0  0  0  0  0  0  0  0  0  0  0  0
  -34.5807   60.9223   65.2544 C   0  0  0  0  0  0  0  0  0  0  0  0
  -33.7662   61.7648   64.2813 C   0  0  0  0  0  0  0  0  0  0  0  0
  -33.1566   62.9548   65.0115 C   0  0  0  0  0  0  0  0  0  0  0  0
  -34.2208   63.7348   65.7692 C   0  0  0  0  0  0  0  0  0  0  0  0
  -35.0058   62.7867   66.6724 C   0  0  0  0  0  0  0  0  0  0  0  0
  -33.1432   60.2176   63.2323 H   0  0  0  0  0  0  0  0  0  0  0  0
  -34.6182   64.9708   64.2847 H   0  0  0  0  0  0  0  0  0  0  0  0
  -36.3901   62.8872   68.6630 O   0  0  0  0  0  0  0  0  0  0  0  0
  -36.1591   63.4583   67.3803 C   0  0  0  0  0  0  0  0  0  0  0  0
  -37.1347   63.3397   69.0891 H   0  0  0  0  0  0  0  0  0  0  0  0
  -32.5996   63.7935   63.9505 O   0  0  0  0  0  0  0  0  0  0  0  0
  -30.9280   64.7246   65.4155 O   0  0  0  0  0  0  0  0  0  0  0  0
  -32.6906   66.1938   64.3905 O   0  0  0  0  0  0  0  0  0  0  0  0
  -30.9299   65.2626   63.0985 O   0  0  0  0  0  0  0  0  0  0  0  0
  -31.7940   65.1001   64.3598 S   0  0  0  0  0  0  0  0  0  0  0  0
  -31.4416   64.6128   66.2306 H   0  0  0  0  0  0  0  0  0  0  0  0
  -30.2991   64.5279   63.0418 H   0  0  0  0  0  0  0  0  0  0  0  0
  2  1  1  0  0  0
  2  4  1  0  0  0
  2  5  1  0  0  0
 47 48  1  0  0  0
 47  1  1  0  0  0
 48 52  1  0  0  0
  1 30  1  0  0  0
 29 30  1  0  0  0
 29 31  1  0  0  0
 30 32  1  0  0  0
  3  4  2  0  0  0
 32 33  2  0  0  0
 49 53  1  0  0  0
 49 57  1  0  0  0
 33 34  1  0  0  0
 62 54  1  0  0  0
 62 66  1  0  0  0
 34 35  1  0  0  0
 50 55  1  0  0  0
 50 58  1  0  0  0
 35 36  1  0  0  0
 51 52  1  0  0  0
 51 56  1  0  0  0
 36 37  1  0  0  0
 59 60  1  0  0  0
 59 61  1  0  0  0
 37 38  1  0  0  0
 63 66  1  0  0  0
 63 67  1  0  0  0
 38 39  1  0  0  0
 64 66  1  0  0  0
 39 40  1  0  0  0
 65 66  1  0  0  0
 65 68  1  0  0  0
 40 41  1  0  0  0
 41 42  1  0  0  0
 42 43  1  0  0  0
 43 44  1  0  0  0
 44 45  1  0  0  0
 45 46  1  0  0  0
  4  6  1  0  0  0
  6  7  1  0  0  0
  7  8  1  0  0  0
  8  9  1  0  0  0
  9 10  1  0  0  0
 10 11  1  0  0  0
 11 12  1  0  0  0
 12 13  1  0  0  0
 13 14  1  0  0  0
 14 15  1  0  0  0
 15 16  1  0  0  0
 16 17  1  0  0  0
 17 18  1  0  0  0
 18 19  1  0  0  0
 19 20  2  0  0  0
 20 21  1  0  0  0
 21 22  1  0  0  0
 22 23  1  0  0  0
 23 24  1  0  0  0
 24 25  1  0  0  0
 25 26  1  0  0  0
 26 27  1  0  0  0
 27 28  1  0  0  0
 52 53  1  0  0  0
 53 54  1  0  0  0
 54 55  1  0  0  0
 55 56  1  0  0  0
 56 60  1  0  0  0
M  CHG 1  64  -1
M  END
> <minimizedAffinity>
-7.35838

> <CNNscore>
0.1463441104

> <CNNaffinity>
7.2470459938

> <CNN_VS>
1.0605624914

> <CNNaffinity_variance>
0.9967597723

$$$$
/media/chris/experiments/cd1a-new-docking/inputs/ligands/7ryn_ligand.pdb


 68 68  0  0  0  0  0  0  0  0999 V2000
  -40.9098   56.9479   64.5072 C   0  0  0  0  0  0  0  0  0  0  0  0
  -40.9978   57.0819   63.0562 N   0  0  0  0  0  0  0  0  0  0  0  0
  -41.2558   54.8860   62.6333 O   0  0  0  0  0  0  0  0  0  0  0  0
  -41.1637   56.0429   62.2333 C   0  0  0  0  0  0  0  0  0  0  0  0
  -40.9316   57.9828   62.6646 H   0  0  0  0  0  0  0  0  0  0  0  0
  -41.2396   56.3792   60.7648 C   0  0  0  0  0  0  0  0  0  0  0  0
  -41.9717   57.6890   60.5020 C   0  0  0  0  0  0  0  0  0  0  0  0
  -41.1858   58.6303   59.6033 C   0  0  0  0  0  0  0  0  0  0  0  0
  -39.6816   58.4219   59.6585 C   0  0  0  0  0  0  0  0  0  0  0  0
  -38.9434   59.4778   60.4676 C   0  0  0  0  0  0  0  0  0  0  0  0
  -39.8314   60.6126   60.9622 C   0  0  0  0  0  0  0  0  0  0  0  0
  -40.0809   60.5906   62.4647 C   0  0  0  0  0  0  0  0  0  0  0  0
  -41.5534   60.5214   62.8616 C   0  0  0  0  0  0  0  0  0  0  0  0
  -42.4890   61.2697   61.9134 C   0  0  0  0  0  0  0  0  0  0  0  0
  -43.1817   62.4850   62.5294 C   0  0  0  0  0  0  0  0  0  0  0  0
  -42.2981   63.2582   63.5086 C   0  0  0  0  0  0  0  0  0  0  0  0
  -42.9813   63.6659   64.8138 C   0  0  0  0  0  0  0  0  0  0  0  0
  -42.2142   63.2964   66.0861 C   0  0  0  0  0  0  0  0  0  0  0  0
  -41.4441   62.0145   65.9514 C   0  0  0  0  0  0  0  0  0  0  0  0
  -41.6948   60.8850   66.5896 C   0  0  0  0  0  0  0  0  0  0  0  0
  -42.8009   60.6556   67.5746 C   0  0  0  0  0  0  0  0  0  0  0  0
  -43.3515   59.2280   67.5587 C   0  0  0  0  0  0  0  0  0  0  0  0
  -44.8734   59.1696   67.5531 C   0  0  0  0  0  0  0  0  0  0  0  0
  -45.4242   57.7767   67.2688 C   0  0  0  0  0  0  0  0  0  0  0  0
  -46.8440   57.5445   67.7728 C   0  0  0  0  0  0  0  0  0  0  0  0
  -47.8975   58.3567   67.0328 C   0  0  0  0  0  0  0  0  0  0  0  0
  -48.8998   57.5164   66.2574 C   0  0  0  0  0  0  0  0  0  0  0  0
  -50.2492   58.1907   66.1153 C   0  0  0  0  0  0  0  0  0  0  0  0
  -42.9478   55.6869   64.8088 O   0  0  0  0  0  0  0  0  0  0  0  0
  -42.3259   56.9406   65.1050 C   0  0  0  0  0  0  0  0  0  0  0  0
  -42.4001   54.9646   65.1543 H   0  0  0  0  0  0  0  0  0  0  0  0
  -43.1457   58.0815   64.5852 C   0  0  0  0  0  0  0  0  0  0  0  0
  -44.4068   57.9994   64.2097 C   0  0  0  0  0  0  0  0  0  0  0  0
  -45.2024   59.1601   63.7091 C   0  0  0  0  0  0  0  0  0  0  0  0
  -46.6603   59.0648   64.1636 C   0  0  0  0  0  0  0  0  0  0  0  0
  -47.3716   60.4046   64.2605 C   0  0  0  0  0  0  0  0  0  0  0  0
  -48.8719   60.3334   64.0328 C   0  0  0  0  0  0  0  0  0  0  0  0
  -49.2735   59.5375   62.7994 C   0  0  0  0  0  0  0  0  0  0  0  0
  -50.7327   59.1082   62.7980 C   0  0  0  0  0  0  0  0  0  0  0  0
  -51.0430   57.9989   61.8085 C   0  0  0  0  0  0  0  0  0  0  0  0
  -50.0884   57.9361   60.6307 C   0  0  0  0  0  0  0  0  0  0  0  0
  -49.4750   56.5643   60.4082 C   0  0  0  0  0  0  0  0  0  0  0  0
  -48.4480   56.5475   59.2914 C   0  0  0  0  0  0  0  0  0  0  0  0
  -48.1263   57.9134   58.7158 C   0  0  0  0  0  0  0  0  0  0  0  0
  -47.3079   57.8308   57.4422 C   0  0  0  0  0  0  0  0  0  0  0  0
  -47.0189   56.4024   57.0296 C   0  0  0  0  0  0  0  0  0  0  0  0
  -40.0561   58.0598   65.0808 C   0  0  0  0  0  0  0  0  0  0  0  0
  -38.7009   57.6010   65.1429 O   0  0  0  0  0  0  0  0  0  0  0  0
  -38.3309   60.3364   65.6139 O   0  0  0  0  0  0  0  0  0  0  0  0
  -34.3738   58.7818   64.9458 O   0  0  0  0  0  0  0  0  0  0  0  0
  -36.7453   57.5172   63.9193 O   0  0  0  0  0  0  0  0  0  0  0  0
  -37.8062   58.3414   64.3649 C   0  0  0  0  0  0  0  0  0  0  0  0
  -37.2662   59.4794   65.2214 C   0  0  0  0  0  0  0  0  0  0  0  0
  -36.2189   60.2632   64.4405 C   0  0  0  0  0  0  0  0  0  0  0  0
  -35.1451   59.3386   63.8862 C   0  0  0  0  0  0  0  0  0  0  0  0
  -35.7993   58.2117   63.0908 C   0  0  0  0  0  0  0  0  0  0  0  0
  -38.9905   59.8264   66.1096 H   0  0  0  0  0  0  0  0  0  0  0  0
  -33.9570   59.4963   65.4525 H   0  0  0  0  0  0  0  0  0  0  0  0
  -33.6082   57.7872   62.1380 O   0  0  0  0  0  0  0  0  0  0  0  0
  -34.8112   57.1813   62.5966 C   0  0  0  0  0  0  0  0  0  0  0  0
  -32.9975   57.1001   61.8286 H   0  0  0  0  0  0  0  0  0  0  0  0
  -35.6243   61.1671   65.4246 O   0  0  0  0  0  0  0  0  0  0  0  0
  -34.7534   63.3981   65.1567 O   0  0  0  0  0  0  0  0  0  0  0  0
  -36.9322   63.0111   66.3478 O   0  0  0  0  0  0  0  0  0  0  0  0
  -36.7211   62.7290   63.9999 O   0  0  0  0  0  0  0  0  0  0  0  0
  -35.9786   62.7138   65.3462 S   0  0  0  0  0  0  0  0  0  0  0  0
  -34.2564   63.4079   65.9896 H   0  0  0  0  0  0  0  0  0  0  0  0
  -36.0976   62.5285   63.2845 H   0  0  0  0  0  0  0  0  0  0  0  0
  2  1  1  0  0  0
  2  4  1  0  0  0
  2  5  1  0  0  0
 47 48  1  0  0  0
 47  1  1  0  0  0
 48 52  1  0  0  0
  1 30  1  0  0  0
 29 30  1  0  0  0
 29 31  1  0  0  0
 30 32  1  0  0  0
  3  4  2  0  0  0
 32 33  2  0  0  0
 49 53  1  0  0  0
 49 57  1  0  0  0
 33 34  1  0  0  0
 62 54  1  0  0  0
 62 66  1  0  0  0
 34 35  1  0  0  0
 50 55  1  0  0  0
 50 58  1  0  0  0
 35 36  1  0  0  0
 51 52  1  0  0  0
 51 56  1  0  0  0
 36 37  1  0  0  0
 59 60  1  0  0  0
 59 61  1  0  0  0
 37 38  1  0  0  0
 63 66  1  0  0  0
 63 67  1  0  0  0
 38 39  1  0  0  0
 64 66  1  0  0  0
 39 40  1  0  0  0
 65 66  1  0  0  0
 65 68  1  0  0  0
 40 41  1  0  0  0
 41 42  1  0  0  0
 42 43  1  0  0  0
 43 44  1  0  0  0
 44 45  1  0  0  0
 45 46  1  0  0  0
  4  6  1  0  0  0
  6  7  1  0  0  0
  7  8  1  0  0  0
  8  9  1  0  0  0
  9 10  1  0  0  0
 10 11  1  0  0  0
 11 12  1  0  0  0
 12 13  1  0  0  0
 13 14  1  0  0  0
 14 15  1  0  0  0
 15 16  1  0  0  0
 16 17  1  0  0  0
 17 18  1  0  0  0
 18 19  1  0  0  0
 19 20  2  0  0  0
 20 21  1  0  0  0
 21 22  1  0  0  0
 22 23  1  0  0  0
 23 24  1  0  0  0
 24 25  1  0  0  0
 25 26  1  0  0  0
 26 27  1  0  0  0
 27 28  1  0  0  0
 52 53  1  0  0  0
 53 54  1  0  0  0
 54 55  1  0  0  0
 55 56  1  0  0  0
 56 60  1  0  0  0
M  CHG 1  64  -1
M  END
> <minimizedAffinity>
-7.05670

> <CNNscore>
0.1168619841

> <CNNaffinity>
7.4107208252

> <CNN_VS>
0.8660315275

> <CNNaffinity_variance>
2.1383008957

$$$$
/media/chris/experiments/cd1a-new-docking/inputs/ligands/7ryn_ligand.pdb


 68 68  0  0  0  0  0  0  0  0999 V2000
  -35.5559   59.0160   63.9255 C   0  0  0  0  0  0  0  0  0  0  0  0
  -36.8148   58.6873   64.5878 N   0  0  0  0  0  0  0  0  0  0  0  0
  -37.5964   60.7970   64.6654 O   0  0  0  0  0  0  0  0  0  0  0  0
  -37.7355   59.6012   64.9058 C   0  0  0  0  0  0  0  0  0  0  0  0
  -36.9939   57.7454   64.8112 H   0  0  0  0  0  0  0  0  0  0  0  0
  -38.9762   59.0703   65.5797 C   0  0  0  0  0  0  0  0  0  0  0  0
  -39.8008   58.1741   64.6646 C   0  0  0  0  0  0  0  0  0  0  0  0
  -41.0341   57.6101   65.3517 C   0  0  0  0  0  0  0  0  0  0  0  0
  -41.5300   56.3045   64.7529 C   0  0  0  0  0  0  0  0  0  0  0  0
  -42.9681   56.3610   64.2595 C   0  0  0  0  0  0  0  0  0  0  0  0
  -43.7209   57.6148   64.6861 C   0  0  0  0  0  0  0  0  0  0  0  0
  -44.9975   57.3319   65.4676 C   0  0  0  0  0  0  0  0  0  0  0  0
  -45.4969   58.5026   66.3106 C   0  0  0  0  0  0  0  0  0  0  0  0
  -46.8759   58.2799   66.9294 C   0  0  0  0  0  0  0  0  0  0  0  0
  -47.7473   57.2619   66.1940 C   0  0  0  0  0  0  0  0  0  0  0  0
  -48.6727   57.8919   65.1528 C   0  0  0  0  0  0  0  0  0  0  0  0
  -48.3813   59.3573   64.8302 C   0  0  0  0  0  0  0  0  0  0  0  0
  -49.6202   60.2459   64.6907 C   0  0  0  0  0  0  0  0  0  0  0  0
  -50.8023   59.5136   64.1243 C   0  0  0  0  0  0  0  0  0  0  0  0
  -51.0912   59.3755   62.8424 C   0  0  0  0  0  0  0  0  0  0  0  0
  -50.2949   59.9199   61.6954 C   0  0  0  0  0  0  0  0  0  0  0  0
  -49.4489   58.8651   60.9791 C   0  0  0  0  0  0  0  0  0  0  0  0
  -50.0070   57.4543   61.1109 C   0  0  0  0  0  0  0  0  0  0  0  0
  -49.3573   56.4554   60.1599 C   0  0  0  0  0  0  0  0  0  0  0  0
  -48.1806   57.0125   59.3670 C   0  0  0  0  0  0  0  0  0  0  0  0
  -47.3702   55.9468   58.6426 C   0  0  0  0  0  0  0  0  0  0  0  0
  -47.0475   56.2864   57.1961 C   0  0  0  0  0  0  0  0  0  0  0  0
  -47.4173   57.7089   56.8281 C   0  0  0  0  0  0  0  0  0  0  0  0
  -33.7252   57.9128   62.8004 O   0  0  0  0  0  0  0  0  0  0  0  0
  -35.1375   57.8479   63.0181 C   0  0  0  0  0  0  0  0  0  0  0  0
  -33.2653   57.8968   63.6544 H   0  0  0  0  0  0  0  0  0  0  0  0
  -35.8816   57.8705   61.7182 C   0  0  0  0  0  0  0  0  0  0  0  0
  -36.9077   58.6521   61.4457 C   0  0  0  0  0  0  0  0  0  0  0  0
  -37.6200   58.6617   60.1329 C   0  0  0  0  0  0  0  0  0  0  0  0
  -39.1372   58.6368   60.3299 C   0  0  0  0  0  0  0  0  0  0  0  0
  -39.6248   57.5517   61.2761 C   0  0  0  0  0  0  0  0  0  0  0  0
  -41.0130   57.0230   60.9579 C   0  0  0  0  0  0  0  0  0  0  0  0
  -42.0572   58.1106   60.7519 C   0  0  0  0  0  0  0  0  0  0  0  0
  -42.1669   59.0808   61.9181 C   0  0  0  0  0  0  0  0  0  0  0  0
  -41.9824   60.5355   61.5232 C   0  0  0  0  0  0  0  0  0  0  0  0
  -42.8199   61.5071   62.3338 C   0  0  0  0  0  0  0  0  0  0  0  0
  -42.1320   62.0129   63.5903 C   0  0  0  0  0  0  0  0  0  0  0  0
  -42.0747   60.9739   64.6946 C   0  0  0  0  0  0  0  0  0  0  0  0
  -41.3999   61.4490   65.9671 C   0  0  0  0  0  0  0  0  0  0  0  0
  -42.1739   61.0687   67.2140 C   0  0  0  0  0  0  0  0  0  0  0  0
  -42.4324   59.5791   67.3049 C   0  0  0  0  0  0  0  0  0  0  0  0
  -34.4960   59.3426   64.9572 C   0  0  0  0  0  0  0  0  0  0  0  0
  -33.4998   60.1624   64.3355 O   0  0  0  0  0  0  0  0  0  0  0  0
  -32.8027   62.1498   62.4903 O   0  0  0  0  0  0  0  0  0  0  0  0
  -36.3509   63.6295   64.4248 O   0  0  0  0  0  0  0  0  0  0  0  0
  -34.5807   61.7214   65.6507 O   0  0  0  0  0  0  0  0  0  0  0  0
  -33.5641   61.5135   64.6881 C   0  0  0  0  0  0  0  0  0  0  0  0
  -33.8588   62.3163   63.4277 C   0  0  0  0  0  0  0  0  0  0  0  0
  -34.0246   63.7895   63.7791 C   0  0  0  0  0  0  0  0  0  0  0  0
  -35.0495   63.9749   64.8882 C   0  0  0  0  0  0  0  0  0  0  0  0
  -34.6845   63.0893   66.0770 C   0  0  0  0  0  0  0  0  0  0  0  0
  -32.7070   61.2089   62.2747 H   0  0  0  0  0  0  0  0  0  0  0  0
  -36.5849   64.1911   63.6694 H   0  0  0  0  0  0  0  0  0  0  0  0
  -36.8946   62.4204   66.8235 O   0  0  0  0  0  0  0  0  0  0  0  0
  -35.7125   63.1259   67.1835 C   0  0  0  0  0  0  0  0  0  0  0  0
  -37.5318   62.4633   67.5534 H   0  0  0  0  0  0  0  0  0  0  0  0
  -34.5183   64.4092   62.5497 O   0  0  0  0  0  0  0  0  0  0  0  0
  -34.4062   66.5507   61.4502 O   0  0  0  0  0  0  0  0  0  0  0  0
  -32.7479   64.7439   60.9013 O   0  0  0  0  0  0  0  0  0  0  0  0
  -32.7058   65.8936   62.9781 O   0  0  0  0  0  0  0  0  0  0  0  0
  -33.5844   65.4507   61.7966 S   0  0  0  0  0  0  0  0  0  0  0  0
  -34.9765   66.3060   60.7048 H   0  0  0  0  0  0  0  0  0  0  0  0
  -33.2462   66.3841   63.6170 H   0  0  0  0  0  0  0  0  0  0  0  0
  2  1  1  0  0  0
  2  4  1  0  0  0
  2  5  1  0  0  0
 47 48  1  0  0  0
 47  1  1  0  0  0
 48 52  1  0  0  0
  1 30  1  0  0  0
 29 30  1  0  0  0
 29 31  1  0  0  0
 30 32  1  0  0  0
  3  4  2  0  0  0
 32 33  2  0  0  0
 49 53  1  0  0  0
 49 57  1  0  0  0
 33 34  1  0  0  0
 62 54  1  0  0  0
 62 66  1  0  0  0
 34 35  1  0  0  0
 50 55  1  0  0  0
 50 58  1  0  0  0
 35 36  1  0  0  0
 51 52  1  0  0  0
 51 56  1  0  0  0
 36 37  1  0  0  0
 59 60  1  0  0  0
 59 61  1  0  0  0
 37 38  1  0  0  0
 63 66  1  0  0  0
 63 67  1  0  0  0
 38 39  1  0  0  0
 64 66  1  0  0  0
 39 40  1  0  0  0
 65 66  1  0  0  0
 65 68  1  0  0  0
 40 41  1  0  0  0
 41 42  1  0  0  0
 42 43  1  0  0  0
 43 44  1  0  0  0
 44 45  1  0  0  0
 45 46  1  0  0  0
  4  6  1  0  0  0
  6  7  1  0  0  0
  7  8  1  0  0  0
  8  9  1  0  0  0
  9 10  1  0  0  0
 10 11  1  0  0  0
 11 12  1  0  0  0
 12 13  1  0  0  0
 13 14  1  0  0  0
 14 15  1  0  0  0
 15 16  1  0  0  0
 16 17  1  0  0  0
 17 18  1  0  0  0
 18 19  1  0  0  0
 19 20  2  0  0  0
 20 21  1  0  0  0
 21 22  1  0  0  0
 22 23  1  0  0  0
 23 24  1  0  0  0
 24 25  1  0  0  0
 25 26  1  0  0  0
 26 27  1  0  0  0
 27 28  1  0  0  0
 52 53  1  0  0  0
 53 54  1  0  0  0
 54 55  1  0  0  0
 55 56  1  0  0  0
 56 60  1  0  0  0
M  CHG 1  64  -1
M  END
> <minimizedAffinity>
-8.64604

> <CNNscore>
0.1098548546

> <CNNaffinity>
7.4548478127

> <CNN_VS>
0.8189512491

> <CNNaffinity_variance>
1.7229998112

$$$$
/media/chris/experiments/cd1a-new-docking/inputs/ligands/7ryn_ligand.pdb


 68 68  0  0  0  0  0  0  0  0999 V2000
  -38.8214   60.4789   61.4318 C   0  0  0  0  0  0  0  0  0  0  0  0
  -40.2061   60.0659   61.6402 N   0  0  0  0  0  0  0  0  0  0  0  0
  -40.7050   61.6679   63.1409 O   0  0  0  0  0  0  0  0  0  0  0  0
  -41.0389   60.6910   62.4767 C   0  0  0  0  0  0  0  0  0  0  0  0
  -40.5428   59.2881   61.1393 H   0  0  0  0  0  0  0  0  0  0  0  0
  -42.4344   60.1236   62.5532 C   0  0  0  0  0  0  0  0  0  0  0  0
  -42.4854   58.6452   62.1894 C   0  0  0  0  0  0  0  0  0  0  0  0
  -41.2579   57.8824   62.6613 C   0  0  0  0  0  0  0  0  0  0  0  0
  -41.1945   56.4483   62.1630 C   0  0  0  0  0  0  0  0  0  0  0  0
  -41.5008   55.4110   63.2329 C   0  0  0  0  0  0  0  0  0  0  0  0
  -41.6546   55.9916   64.6330 C   0  0  0  0  0  0  0  0  0  0  0  0
  -43.0891   56.3521   64.9972 C   0  0  0  0  0  0  0  0  0  0  0  0
  -43.2196   57.3496   66.1455 C   0  0  0  0  0  0  0  0  0  0  0  0
  -44.4927   58.1927   66.0952 C   0  0  0  0  0  0  0  0  0  0  0  0
  -45.2571   58.1144   64.7738 C   0  0  0  0  0  0  0  0  0  0  0  0
  -46.3808   59.1446   64.6584 C   0  0  0  0  0  0  0  0  0  0  0  0
  -47.4806   59.0236   65.7130 C   0  0  0  0  0  0  0  0  0  0  0  0
  -48.5688   57.9947   65.3950 C   0  0  0  0  0  0  0  0  0  0  0  0
  -49.9158   58.3860   65.9305 C   0  0  0  0  0  0  0  0  0  0  0  0
  -50.7806   59.1961   65.3459 C   0  0  0  0  0  0  0  0  0  0  0  0
  -50.5916   59.8852   64.0284 C   0  0  0  0  0  0  0  0  0  0  0  0
  -50.7504   58.9580   62.8216 C   0  0  0  0  0  0  0  0  0  0  0  0
  -50.0140   59.4504   61.5828 C   0  0  0  0  0  0  0  0  0  0  0  0
  -50.0162   58.4439   60.4377 C   0  0  0  0  0  0  0  0  0  0  0  0
  -48.6919   57.7170   60.2338 C   0  0  0  0  0  0  0  0  0  0  0  0
  -48.1191   57.8686   58.8317 C   0  0  0  0  0  0  0  0  0  0  0  0
  -47.1396   56.7743   58.4379 C   0  0  0  0  0  0  0  0  0  0  0  0
  -47.6661   55.8821   57.3322 C   0  0  0  0  0  0  0  0  0  0  0  0
  -39.0589   58.5246   60.0321 O   0  0  0  0  0  0  0  0  0  0  0  0
  -38.0914   59.4124   60.5997 C   0  0  0  0  0  0  0  0  0  0  0  0
  -39.6926   59.0330   59.5022 H   0  0  0  0  0  0  0  0  0  0  0  0
  -37.0941   58.6603   61.4266 C   0  0  0  0  0  0  0  0  0  0  0  0
  -35.8569   58.3892   61.0610 C   0  0  0  0  0  0  0  0  0  0  0  0
  -34.8807   57.6492   61.9156 C   0  0  0  0  0  0  0  0  0  0  0  0
  -33.4422   58.0471   61.5785 C   0  0  0  0  0  0  0  0  0  0  0  0
  -32.6446   58.5643   62.7646 C   0  0  0  0  0  0  0  0  0  0  0  0
  -33.0956   59.9215   63.2767 C   0  0  0  0  0  0  0  0  0  0  0  0
  -33.5675   59.9116   64.7234 C   0  0  0  0  0  0  0  0  0  0  0  0
  -34.3407   58.6586   65.1051 C   0  0  0  0  0  0  0  0  0  0  0  0
  -35.8223   58.7314   64.7803 C   0  0  0  0  0  0  0  0  0  0  0  0
  -36.5290   57.3890   64.8130 C   0  0  0  0  0  0  0  0  0  0  0  0
  -38.0275   57.4879   65.0420 C   0  0  0  0  0  0  0  0  0  0  0  0
  -38.4401   58.7807   65.7208 C   0  0  0  0  0  0  0  0  0  0  0  0
  -39.9272   59.0729   65.6603 C   0  0  0  0  0  0  0  0  0  0  0  0
  -40.2800   60.4238   66.2512 C   0  0  0  0  0  0  0  0  0  0  0  0
  -41.7756   60.6365   66.3610 C   0  0  0  0  0  0  0  0  0  0  0  0
  -38.1452   60.7208   62.7655 C   0  0  0  0  0  0  0  0  0  0  0  0
  -37.2745   61.8498   62.6309 O   0  0  0  0  0  0  0  0  0  0  0  0
  -34.9114   63.3043   62.2554 O   0  0  0  0  0  0  0  0  0  0  0  0
  -36.3461   64.5028   66.1319 O   0  0  0  0  0  0  0  0  0  0  0  0
  -37.0271   61.9829   64.9221 O   0  0  0  0  0  0  0  0  0  0  0  0
  -36.3572   61.9971   63.6753 C   0  0  0  0  0  0  0  0  0  0  0  0
  -35.6309   63.3219   63.4817 C   0  0  0  0  0  0  0  0  0  0  0  0
  -34.6807   63.5666   64.6472 C   0  0  0  0  0  0  0  0  0  0  0  0
  -35.4061   63.4441   65.9790 C   0  0  0  0  0  0  0  0  0  0  0  0
  -36.1374   62.1055   66.0434 C   0  0  0  0  0  0  0  0  0  0  0  0
  -35.5265   63.1479   61.5219 H   0  0  0  0  0  0  0  0  0  0  0  0
  -35.8834   65.3543   66.0914 H   0  0  0  0  0  0  0  0  0  0  0  0
  -36.4757   62.7317   68.3634 O   0  0  0  0  0  0  0  0  0  0  0  0
  -36.9782   61.9464   67.2884 C   0  0  0  0  0  0  0  0  0  0  0  0
  -37.0365   62.6069   69.1448 H   0  0  0  0  0  0  0  0  0  0  0  0
  -34.2212   64.9434   64.4665 O   0  0  0  0  0  0  0  0  0  0  0  0
  -32.8237   65.5759   66.3250 O   0  0  0  0  0  0  0  0  0  0  0  0
  -32.1788   66.1883   63.9745 O   0  0  0  0  0  0  0  0  0  0  0  0
  -32.0766   63.9495   64.7584 O   0  0  0  0  0  0  0  0  0  0  0  0
  -32.7504   65.3203   64.9342 S   0  0  0  0  0  0  0  0  0  0  0  0
  -33.2454   66.4366   66.4738 H   0  0  0  0  0  0  0  0  0  0  0  0
  -32.4439   63.3237   65.4021 H   0  0  0  0  0  0  0  0  0  0  0  0
  2  1  1  0  0  0
  2  4  1  0  0  0
  2  5  1  0  0  0
 47 48  1  0  0  0
 47  1  1  0  0  0
 48 52  1  0  0  0
  1 30  1  0  0  0
 29 30  1  0  0  0
 29 31  1  0  0  0
 30 32  1  0  0  0
  3  4  2  0  0  0
 32 33  2  0  0  0
 49 53  1  0  0  0
 49 57  1  0  0  0
 33 34  1  0  0  0
 62 54  1  0  0  0
 62 66  1  0  0  0
 34 35  1  0  0  0
 50 55  1  0  0  0
 50 58  1  0  0  0
 35 36  1  0  0  0
 51 52  1  0  0  0
 51 56  1  0  0  0
 36 37  1  0  0  0
 59 60  1  0  0  0
 59 61  1  0  0  0
 37 38  1  0  0  0
 63 66  1  0  0  0
 63 67  1  0  0  0
 38 39  1  0  0  0
 64 66  1  0  0  0
 39 40  1  0  0  0
 65 66  1  0  0  0
 65 68  1  0  0  0
 40 41  1  0  0  0
 41 42  1  0  0  0
 42 43  1  0  0  0
 43 44  1  0  0  0
 44 45  1  0  0  0
 45 46  1  0  0  0
  4  6  1  0  0  0
  6  7  1  0  0  0
  7  8  1  0  0  0
  8  9  1  0  0  0
  9 10  1  0  0  0
 10 11  1  0  0  0
 11 12  1  0  0  0
 12 13  1  0  0  0
 13 14  1  0  0  0
 14 15  1  0  0  0
 15 16  1  0  0  0
 16 17  1  0  0  0
 17 18  1  0  0  0
 18 19  1  0  0  0
 19 20  2  0  0  0
 20 21  1  0  0  0
 21 22  1  0  0  0
 22 23  1  0  0  0
 23 24  1  0  0  0
 24 25  1  0  0  0
 25 26  1  0  0  0
 26 27  1  0  0  0
 27 28  1  0  0  0
 52 53  1  0  0  0
 53 54  1  0  0  0
 54 55  1  0  0  0
 55 56  1  0  0  0
 56 60  1  0  0  0
M  CHG 1  64  -1
M  END
> <minimizedAffinity>
-8.61420

> <CNNscore>
0.1024821028

> <CNNaffinity>
7.4060792923

> <CNN_VS>
0.7589905858

> <CNNaffinity_variance>
1.4947592020

$$$$
/media/chris/experiments/cd1a-new-docking/inputs/ligands/7ryn_ligand.pdb


 68 68  0  0  0  0  0  0  0  0999 V2000
  -41.3009   57.8371   62.4862 C   0  0  0  0  0  0  0  0  0  0  0  0
  -42.5674   57.7410   63.2058 N   0  0  0  0  0  0  0  0  0  0  0  0
  -43.1421   59.9034   62.9585 O   0  0  0  0  0  0  0  0  0  0  0  0
  -43.3882   58.7792   63.3859 C   0  0  0  0  0  0  0  0  0  0  0  0
  -42.8295   56.8676   63.5769 H   0  0  0  0  0  0  0  0  0  0  0  0
  -44.6556   58.4843   64.1488 C   0  0  0  0  0  0  0  0  0  0  0  0
  -44.5078   57.2971   65.0918 C   0  0  0  0  0  0  0  0  0  0  0  0
  -44.2741   57.7188   66.5336 C   0  0  0  0  0  0  0  0  0  0  0  0
  -45.0476   58.9603   66.9454 C   0  0  0  0  0  0  0  0  0  0  0  0
  -46.4787   58.6784   67.3780 C   0  0  0  0  0  0  0  0  0  0  0  0
  -46.7788   57.2017   67.6021 C   0  0  0  0  0  0  0  0  0  0  0  0
  -47.6833   56.5881   66.5411 C   0  0  0  0  0  0  0  0  0  0  0  0
  -48.2888   57.5944   65.5658 C   0  0  0  0  0  0  0  0  0  0  0  0
  -49.6134   58.1947   66.0340 C   0  0  0  0  0  0  0  0  0  0  0  0
  -49.7005   59.7162   65.9157 C   0  0  0  0  0  0  0  0  0  0  0  0
  -48.5482   60.3322   65.1219 C   0  0  0  0  0  0  0  0  0  0  0  0
  -48.9705   61.2184   63.9502 C   0  0  0  0  0  0  0  0  0  0  0  0
  -49.3981   60.4614   62.6901 C   0  0  0  0  0  0  0  0  0  0  0  0
  -50.7597   59.8411   62.8163 C   0  0  0  0  0  0  0  0  0  0  0  0
  -51.0656   58.5789   62.5737 C   0  0  0  0  0  0  0  0  0  0  0  0
  -50.1136   57.5111   62.1265 C   0  0  0  0  0  0  0  0  0  0  0  0
  -50.4064   56.9752   60.7235 C   0  0  0  0  0  0  0  0  0  0  0  0
  -50.1428   57.9939   59.6226 C   0  0  0  0  0  0  0  0  0  0  0  0
  -48.6606   58.2683   59.3946 C   0  0  0  0  0  0  0  0  0  0  0  0
  -47.7732   57.0301   59.4529 C   0  0  0  0  0  0  0  0  0  0  0  0
  -47.7390   56.2388   58.1530 C   0  0  0  0  0  0  0  0  0  0  0  0
  -47.6790   57.1001   56.9015 C   0  0  0  0  0  0  0  0  0  0  0  0
  -46.5788   58.1406   56.9543 C   0  0  0  0  0  0  0  0  0  0  0  0
  -41.7522   56.1049   60.8643 O   0  0  0  0  0  0  0  0  0  0  0  0
  -41.5323   57.5118   61.0018 C   0  0  0  0  0  0  0  0  0  0  0  0
  -42.5020   55.8391   61.4193 H   0  0  0  0  0  0  0  0  0  0  0  0
  -40.3791   57.9589   60.1568 C   0  0  0  0  0  0  0  0  0  0  0  0
  -39.6015   58.9904   60.4202 C   0  0  0  0  0  0  0  0  0  0  0  0
  -38.4486   59.4025   59.5647 C   0  0  0  0  0  0  0  0  0  0  0  0
  -37.1511   58.7414   60.0342 C   0  0  0  0  0  0  0  0  0  0  0  0
  -37.0739   58.5172   61.5356 C   0  0  0  0  0  0  0  0  0  0  0  0
  -35.8240   57.7858   61.9946 C   0  0  0  0  0  0  0  0  0  0  0  0
  -34.7521   58.6967   62.5753 C   0  0  0  0  0  0  0  0  0  0  0  0
  -33.4775   57.9662   62.9691 C   0  0  0  0  0  0  0  0  0  0  0  0
  -32.2433   58.8509   62.9785 C   0  0  0  0  0  0  0  0  0  0  0  0
  -32.4357   60.1877   62.2869 C   0  0  0  0  0  0  0  0  0  0  0  0
  -31.1431   60.9495   62.0495 C   0  0  0  0  0  0  0  0  0  0  0  0
  -31.0356   62.2111   62.8856 C   0  0  0  0  0  0  0  0  0  0  0  0
  -32.3210   62.6108   63.5843 C   0  0  0  0  0  0  0  0  0  0  0  0
  -32.2503   64.0018   64.1832 C   0  0  0  0  0  0  0  0  0  0  0  0
  -32.8040   64.0559   65.5920 C   0  0  0  0  0  0  0  0  0  0  0  0
  -40.2743   56.9188   63.1163 C   0  0  0  0  0  0  0  0  0  0  0  0
  -40.6069   56.7528   64.4993 O   0  0  0  0  0  0  0  0  0  0  0  0
  -37.8650   57.2686   64.7374 O   0  0  0  0  0  0  0  0  0  0  0  0
  -39.7029   61.1504   64.4635 O   0  0  0  0  0  0  0  0  0  0  0  0
  -41.1037   58.8189   65.4010 O   0  0  0  0  0  0  0  0  0  0  0  0
  -40.1463   57.7790   65.3293 C   0  0  0  0  0  0  0  0  0  0  0  0
  -38.8395   58.3041   64.7492 C   0  0  0  0  0  0  0  0  0  0  0  0
  -38.3441   59.4850   65.5745 C   0  0  0  0  0  0  0  0  0  0  0  0
  -39.4284   60.5423   65.7214 C   0  0  0  0  0  0  0  0  0  0  0  0
  -40.7031   59.8980   66.2605 C   0  0  0  0  0  0  0  0  0  0  0  0
  -38.1915   56.5233   64.2095 H   0  0  0  0  0  0  0  0  0  0  0  0
  -38.8942   61.5606   64.1191 H   0  0  0  0  0  0  0  0  0  0  0  0
  -41.4338   62.2107   66.3412 O   0  0  0  0  0  0  0  0  0  0  0  0
  -41.8691   60.8560   66.3324 C   0  0  0  0  0  0  0  0  0  0  0  0
  -42.2046   62.7977   66.3878 H   0  0  0  0  0  0  0  0  0  0  0  0
  -37.2292   60.0332   64.8027 O   0  0  0  0  0  0  0  0  0  0  0  0
  -36.9568   61.5985   66.6147 O   0  0  0  0  0  0  0  0  0  0  0  0
  -36.8149   62.3700   64.2272 O   0  0  0  0  0  0  0  0  0  0  0  0
  -35.1130   61.0440   65.2181 O   0  0  0  0  0  0  0  0  0  0  0  0
  -36.6030   61.4215   65.2550 S   0  0  0  0  0  0  0  0  0  0  0  0
  -37.8946   61.8385   66.6761 H   0  0  0  0  0  0  0  0  0  0  0  0
  -34.9273   60.3921   65.9119 H   0  0  0  0  0  0  0  0  0  0  0  0
  2  1  1  0  0  0
  2  4  1  0  0  0
  2  5  1  0  0  0
 47 48  1  0  0  0
 47  1  1  0  0  0
 48 52  1  0  0  0
  1 30  1  0  0  0
 29 30  1  0  0  0
 29 31  1  0  0  0
 30 32  1  0  0  0
  3  4  2  0  0  0
 32 33  2  0  0  0
 49 53  1  0  0  0
 49 57  1  0  0  0
 33 34  1  0  0  0
 62 54  1  0  0  0
 62 66  1  0  0  0
 34 35  1  0  0  0
 50 55  1  0  0  0
 50 58  1  0  0  0
 35 36  1  0  0  0
 51 52  1  0  0  0
 51 56  1  0  0  0
 36 37  1  0  0  0
 59 60  1  0  0  0
 59 61  1  0  0  0
 37 38  1  0  0  0
 63 66  1  0  0  0
 63 67  1  0  0  0
 38 39  1  0  0  0
 64 66  1  0  0  0
 39 40  1  0  0  0
 65 66  1  0  0  0
 65 68  1  0  0  0
 40 41  1  0  0  0
 41 42  1  0  0  0
 42 43  1  0  0  0
 43 44  1  0  0  0
 44 45  1  0  0  0
 45 46  1  0  0  0
  4  6  1  0  0  0
  6  7  1  0  0  0
  7  8  1  0  0  0
  8  9  1  0  0  0
  9 10  1  0  0  0
 10 11  1  0  0  0
 11 12  1  0  0  0
 12 13  1  0  0  0
 13 14  1  0  0  0
 14 15  1  0  0  0
 15 16  1  0  0  0
 16 17  1  0  0  0
 17 18  1  0  0  0
 18 19  1  0  0  0
 19 20  2  0  0  0
 20 21  1  0  0  0
 21 22  1  0  0  0
 22 23  1  0  0  0
 23 24  1  0  0  0
 24 25  1  0  0  0
 25 26  1  0  0  0
 26 27  1  0  0  0
 27 28  1  0  0  0
 52 53  1  0  0  0
 53 54  1  0  0  0
 54 55  1  0  0  0
 55 56  1  0  0  0
 56 60  1  0  0  0
M  CHG 1  64  -1
M  END
> <minimizedAffinity>
-8.60677

> <CNNscore>
0.1003197655

> <CNNaffinity>
7.1198492050

> <CNN_VS>
0.7142615914

> <CNNaffinity_variance>
2.0222125053

$$$$
/media/chris/experiments/cd1a-new-docking/inputs/ligands/7ryn_ligand.pdb


 68 68  0  0  0  0  0  0  0  0999 V2000
  -35.3505   58.3740   63.8055 C   0  0  0  0  0  0  0  0  0  0  0  0
  -36.5779   58.0128   64.5086 N   0  0  0  0  0  0  0  0  0  0  0  0
  -37.5041   60.0631   64.4318 O   0  0  0  0  0  0  0  0  0  0  0  0
  -37.5575   58.8833   64.7667 C   0  0  0  0  0  0  0  0  0  0  0  0
  -36.6890   57.0813   64.8073 H   0  0  0  0  0  0  0  0  0  0  0  0
  -38.7525   58.3230   65.4970 C   0  0  0  0  0  0  0  0  0  0  0  0
  -39.6944   57.5575   64.5765 C   0  0  0  0  0  0  0  0  0  0  0  0
  -41.0389   57.2663   65.2236 C   0  0  0  0  0  0  0  0  0  0  0  0
  -41.8514   56.2027   64.5040 C   0  0  0  0  0  0  0  0  0  0  0  0
  -43.3230   56.5548   64.3460 C   0  0  0  0  0  0  0  0  0  0  0  0
  -43.7692   57.7447   65.1861 C   0  0  0  0  0  0  0  0  0  0  0  0
  -45.0753   57.5155   65.9357 C   0  0  0  0  0  0  0  0  0  0  0  0
  -45.5370   58.6999   66.7811 C   0  0  0  0  0  0  0  0  0  0  0  0
  -47.0511   58.7765   66.9701 C   0  0  0  0  0  0  0  0  0  0  0  0
  -47.8487   57.7730   66.1376 C   0  0  0  0  0  0  0  0  0  0  0  0
  -48.3373   58.3398   64.8044 C   0  0  0  0  0  0  0  0  0  0  0  0
  -48.7034   59.8237   64.8274 C   0  0  0  0  0  0  0  0  0  0  0  0
  -50.1634   60.1334   64.4860 C   0  0  0  0  0  0  0  0  0  0  0  0
  -50.8230   59.0384   63.6983 C   0  0  0  0  0  0  0  0  0  0  0  0
  -50.7727   58.8840   62.3871 C   0  0  0  0  0  0  0  0  0  0  0  0
  -50.0441   59.7697   61.4222 C   0  0  0  0  0  0  0  0  0  0  0  0
  -49.3033   59.0037   60.3240 C   0  0  0  0  0  0  0  0  0  0  0  0
  -50.0373   57.7514   59.8632 C   0  0  0  0  0  0  0  0  0  0  0  0
  -49.2103   56.4786   60.0057 C   0  0  0  0  0  0  0  0  0  0  0  0
  -47.7576   56.6172   59.5648 C   0  0  0  0  0  0  0  0  0  0  0  0
  -47.4665   55.9916   58.2080 C   0  0  0  0  0  0  0  0  0  0  0  0
  -47.7923   56.8902   57.0255 C   0  0  0  0  0  0  0  0  0  0  0  0
  -46.9526   58.1511   56.9947 C   0  0  0  0  0  0  0  0  0  0  0  0
  -33.8538   57.3563   62.2059 O   0  0  0  0  0  0  0  0  0  0  0  0
  -35.2374   57.5424   62.5177 C   0  0  0  0  0  0  0  0  0  0  0  0
  -33.4073   56.9334   62.9561 H   0  0  0  0  0  0  0  0  0  0  0  0
  -35.9602   58.1947   61.3792 C   0  0  0  0  0  0  0  0  0  0  0  0
  -37.2664   58.3566   61.3039 C   0  0  0  0  0  0  0  0  0  0  0  0
  -37.9567   59.0254   60.1607 C   0  0  0  0  0  0  0  0  0  0  0  0
  -39.3703   58.4713   59.9712 C   0  0  0  0  0  0  0  0  0  0  0  0
  -39.8154   57.5129   61.0639 C   0  0  0  0  0  0  0  0  0  0  0  0
  -41.2321   56.9904   60.8975 C   0  0  0  0  0  0  0  0  0  0  0  0
  -42.2869   58.0828   60.7977 C   0  0  0  0  0  0  0  0  0  0  0  0
  -42.1760   59.1401   61.8855 C   0  0  0  0  0  0  0  0  0  0  0  0
  -42.1663   60.5635   61.3564 C   0  0  0  0  0  0  0  0  0  0  0  0
  -42.6045   61.6032   62.3710 C   0  0  0  0  0  0  0  0  0  0  0  0
  -41.6445   61.7685   63.5366 C   0  0  0  0  0  0  0  0  0  0  0  0
  -41.7661   60.6615   64.5672 C   0  0  0  0  0  0  0  0  0  0  0  0
  -41.1928   61.0072   65.9282 C   0  0  0  0  0  0  0  0  0  0  0  0
  -42.2179   60.8899   67.0390 C   0  0  0  0  0  0  0  0  0  0  0  0
  -42.2136   59.5226   67.6906 C   0  0  0  0  0  0  0  0  0  0  0  0
  -34.1546   58.1800   64.7146 C   0  0  0  0  0  0  0  0  0  0  0  0
  -33.1589   59.1469   64.3618 O   0  0  0  0  0  0  0  0  0  0  0  0
  -35.0699   60.5096   65.8889 O   0  0  0  0  0  0  0  0  0  0  0  0
  -32.3424   63.5577   64.5504 O   0  0  0  0  0  0  0  0  0  0  0  0
  -32.7082   61.0656   63.1601 O   0  0  0  0  0  0  0  0  0  0  0  0
  -33.6741   60.3716   63.9273 C   0  0  0  0  0  0  0  0  0  0  0  0
  -34.0555   61.1857   65.1569 C   0  0  0  0  0  0  0  0  0  0  0  0
  -34.5418   62.5660   64.7336 C   0  0  0  0  0  0  0  0  0  0  0  0
  -33.5286   63.2480   63.8261 C   0  0  0  0  0  0  0  0  0  0  0  0
  -33.1826   62.3259   62.6597 C   0  0  0  0  0  0  0  0  0  0  0  0
  -34.7487   59.6331   66.1525 H   0  0  0  0  0  0  0  0  0  0  0  0
  -32.5600   64.1437   65.2921 H   0  0  0  0  0  0  0  0  0  0  0  0
  -31.1856   61.8638   61.3607 O   0  0  0  0  0  0  0  0  0  0  0  0
  -32.0968   62.8786   61.7665 C   0  0  0  0  0  0  0  0  0  0  0  0
  -30.5033   62.2510   60.7903 H   0  0  0  0  0  0  0  0  0  0  0  0
  -34.6596   63.3157   65.9839 O   0  0  0  0  0  0  0  0  0  0  0  0
  -35.9289   64.3231   67.7676 O   0  0  0  0  0  0  0  0  0  0  0  0
  -36.9300   62.4984   66.3590 O   0  0  0  0  0  0  0  0  0  0  0  0
  -36.5515   64.6790   65.4997 O   0  0  0  0  0  0  0  0  0  0  0  0
  -36.1118   63.6377   66.5420 S   0  0  0  0  0  0  0  0  0  0  0  0
  -35.6499   63.6941   68.4512 H   0  0  0  0  0  0  0  0  0  0  0  0
  -36.0109   65.4789   65.5937 H   0  0  0  0  0  0  0  0  0  0  0  0
  2  1  1  0  0  0
  2  4  1  0  0  0
  2  5  1  0  0  0
 47 48  1  0  0  0
 47  1  1  0  0  0
 48 52  1  0  0  0
  1 30  1  0  0  0
 29 30  1  0  0  0
 29 31  1  0  0  0
 30 32  1  0  0  0
  3  4  2  0  0  0
 32 33  2  0  0  0
 49 53  1  0  0  0
 49 57  1  0  0  0
 33 34  1  0  0  0
 62 54  1  0  0  0
 62 66  1  0  0  0
 34 35  1  0  0  0
 50 55  1  0  0  0
 50 58  1  0  0  0
 35 36  1  0  0  0
 51 52  1  0  0  0
 51 56  1  0  0  0
 36 37  1  0  0  0
 59 60  1  0  0  0
 59 61  1  0  0  0
 37 38  1  0  0  0
 63 66  1  0  0  0
 63 67  1  0  0  0
 38 39  1  0  0  0
 64 66  1  0  0  0
 39 40  1  0  0  0
 65 66  1  0  0  0
 65 68  1  0  0  0
 40 41  1  0  0  0
 41 42  1  0  0  0
 42 43  1  0  0  0
 43 44  1  0  0  0
 44 45  1  0  0  0
 45 46  1  0  0  0
  4  6  1  0  0  0
  6  7  1  0  0  0
  7  8  1  0  0  0
  8  9  1  0  0  0
  9 10  1  0  0  0
 10 11  1  0  0  0
 11 12  1  0  0  0
 12 13  1  0  0  0
 13 14  1  0  0  0
 14 15  1  0  0  0
 15 16  1  0  0  0
 16 17  1  0  0  0
 17 18  1  0  0  0
 18 19  1  0  0  0
 19 20  2  0  0  0
 20 21  1  0  0  0
 21 22  1  0  0  0
 22 23  1  0  0  0
 23 24  1  0  0  0
 24 25  1  0  0  0
 25 26  1  0  0  0
 26 27  1  0  0  0
 27 28  1  0  0  0
 52 53  1  0  0  0
 53 54  1  0  0  0
 54 55  1  0  0  0
 55 56  1  0  0  0
 56 60  1  0  0  0
M  CHG 1  64  -1
M  END
> <minimizedAffinity>
-8.68811

> <CNNscore>
0.0929399356

> <CNNaffinity>
7.4055852890

> <CNN_VS>
0.6882746220

> <CNNaffinity_variance>
1.6925461292

$$$$
