/media/chris/experiments/cd1a-new-docking/inputs/ligands/7ryn_ligand.pdb


 68 68  0  0  0  0  0  0  0  0999 V2000
  -38.9086   59.5340   64.2268 C   0  0  0  0  0  0  0  0  0  0  0  0
  -40.1103   60.1831   63.7110 N   0  0  0  0  0  0  0  0  0  0  0  0
  -42.1419   61.0942   64.0432 O   0  0  0  0  0  0  0  0  0  0  0  0
  -41.1295   60.5603   64.4874 C   0  0  0  0  0  0  0  0  0  0  0  0
  -40.1723   60.3510   62.7430 H   0  0  0  0  0  0  0  0  0  0  0  0
  -40.9655   60.2814   65.9607 C   0  0  0  0  0  0  0  0  0  0  0  0
  -42.2533   59.7909   66.6100 C   0  0  0  0  0  0  0  0  0  0  0  0
  -42.2033   58.3146   66.9700 C   0  0  0  0  0  0  0  0  0  0  0  0
  -43.2775   57.4789   66.2940 C   0  0  0  0  0  0  0  0  0  0  0  0
  -43.9772   58.1891   65.1448 C   0  0  0  0  0  0  0  0  0  0  0  0
  -45.4605   58.4414   65.3834 C   0  0  0  0  0  0  0  0  0  0  0  0
  -45.8125   58.7202   66.8389 C   0  0  0  0  0  0  0  0  0  0  0  0
  -47.0034   57.9239   67.3665 C   0  0  0  0  0  0  0  0  0  0  0  0
  -47.6571   57.0182   66.3242 C   0  0  0  0  0  0  0  0  0  0  0  0
  -48.9853   57.5364   65.7729 C   0  0  0  0  0  0  0  0  0  0  0  0
  -49.2917   58.9784   66.1779 C   0  0  0  0  0  0  0  0  0  0  0  0
  -49.3690   59.9734   65.0201 C   0  0  0  0  0  0  0  0  0  0  0  0
  -50.7668   60.1634   64.4251 C   0  0  0  0  0  0  0  0  0  0  0  0
  -51.1745   59.0358   63.5217 C   0  0  0  0  0  0  0  0  0  0  0  0
  -50.7784   58.8557   62.2741 C   0  0  0  0  0  0  0  0  0  0  0  0
  -49.8397   59.7400   61.5106 C   0  0  0  0  0  0  0  0  0  0  0  0
  -49.3639   59.1348   60.1882 C   0  0  0  0  0  0  0  0  0  0  0  0
  -50.1638   57.9103   59.7640 C   0  0  0  0  0  0  0  0  0  0  0  0
  -49.3161   56.6499   59.6322 C   0  0  0  0  0  0  0  0  0  0  0  0
  -47.8181   56.8762   59.8011 C   0  0  0  0  0  0  0  0  0  0  0  0
  -46.9780   56.2802   58.6803 C   0  0  0  0  0  0  0  0  0  0  0  0
  -47.6361   56.3384   57.3109 C   0  0  0  0  0  0  0  0  0  0  0  0
  -47.4763   57.6862   56.6371 C   0  0  0  0  0  0  0  0  0  0  0  0
  -38.1846   57.7569   65.6940 O   0  0  0  0  0  0  0  0  0  0  0  0
  -39.2985   58.2219   64.9262 C   0  0  0  0  0  0  0  0  0  0  0  0
  -37.9175   58.4436   66.3248 H   0  0  0  0  0  0  0  0  0  0  0  0
  -39.7392   57.1850   63.9391 C   0  0  0  0  0  0  0  0  0  0  0  0
  -40.9889   56.9560   63.5871 C   0  0  0  0  0  0  0  0  0  0  0  0
  -41.3954   55.9235   62.5875 C   0  0  0  0  0  0  0  0  0  0  0  0
  -41.3581   56.4891   61.1662 C   0  0  0  0  0  0  0  0  0  0  0  0
  -41.7898   57.9430   61.0626 C   0  0  0  0  0  0  0  0  0  0  0  0
  -41.1761   58.6950   59.8940 C   0  0  0  0  0  0  0  0  0  0  0  0
  -40.1766   59.7667   60.3042 C   0  0  0  0  0  0  0  0  0  0  0  0
  -38.7323   59.4061   59.9925 C   0  0  0  0  0  0  0  0  0  0  0  0
  -38.2257   58.1948   60.7554 C   0  0  0  0  0  0  0  0  0  0  0  0
  -36.8487   58.3798   61.3654 C   0  0  0  0  0  0  0  0  0  0  0  0
  -36.5030   57.3506   62.4280 C   0  0  0  0  0  0  0  0  0  0  0  0
  -35.1816   57.6317   63.1188 C   0  0  0  0  0  0  0  0  0  0  0  0
  -34.0257   57.9002   62.1741 C   0  0  0  0  0  0  0  0  0  0  0  0
  -32.7656   58.3258   62.9016 C   0  0  0  0  0  0  0  0  0  0  0  0
  -32.6841   59.8263   63.0919 C   0  0  0  0  0  0  0  0  0  0  0  0
  -38.1676   60.4746   65.1545 C   0  0  0  0  0  0  0  0  0  0  0  0
  -36.8028   60.0479   65.2325 O   0  0  0  0  0  0  0  0  0  0  0  0
  -36.0207   61.0919   62.7546 O   0  0  0  0  0  0  0  0  0  0  0  0
  -36.5366   64.5294   65.2922 O   0  0  0  0  0  0  0  0  0  0  0  0
  -35.9566   61.9033   66.3143 O   0  0  0  0  0  0  0  0  0  0  0  0
  -35.8700   61.0867   65.1613 C   0  0  0  0  0  0  0  0  0  0  0  0
  -36.1695   61.9047   63.9119 C   0  0  0  0  0  0  0  0  0  0  0  0
  -35.2302   63.1020   63.8395 C   0  0  0  0  0  0  0  0  0  0  0  0
  -35.2672   63.9047   65.1316 C   0  0  0  0  0  0  0  0  0  0  0  0
  -35.0051   62.9796   66.3175 C   0  0  0  0  0  0  0  0  0  0  0  0
  -36.6231   60.3338   62.8124 H   0  0  0  0  0  0  0  0  0  0  0  0
  -36.7051   65.1177   64.5396 H   0  0  0  0  0  0  0  0  0  0  0  0
  -36.4187   63.4652   68.2292 O   0  0  0  0  0  0  0  0  0  0  0  0
  -35.1344   63.6738   67.6531 C   0  0  0  0  0  0  0  0  0  0  0  0
  -36.4681   63.9228   69.0830 H   0  0  0  0  0  0  0  0  0  0  0  0
  -35.7541   63.9169   62.7436 O   0  0  0  0  0  0  0  0  0  0  0  0
  -35.5855   64.3398   60.3773 O   0  0  0  0  0  0  0  0  0  0  0  0
  -33.5886   63.5433   61.6786 O   0  0  0  0  0  0  0  0  0  0  0  0
  -34.4537   65.7396   61.9320 O   0  0  0  0  0  0  0  0  0  0  0  0
  -34.7830   64.2890   61.5428 S   0  0  0  0  0  0  0  0  0  0  0  0
  -35.8132   63.4380   60.1020 H   0  0  0  0  0  0  0  0  0  0  0  0
  -35.2517   66.2851   61.8513 H   0  0  0  0  0  0  0  0  0  0  0  0
  2  1  1  0  0  0
  2  4  1  0  0  0
  2  5  1  0  0  0
 47 48  1  0  0  0
 47  1  1  0  0  0
 48 52  1  0  0  0
  1 30  1  0  0  0
 29 30  1  0  0  0
 29 31  1  0  0  0
 30 32  1  0  0  0
  3  4  2  0  0  0
 32 33  2  0  0  0
 49 53  1  0  0  0
 49 57  1  0  0  0
 33 34  1  0  0  0
 62 54  1  0  0  0
 62 66  1  0  0  0
 34 35  1  0  0  0
 50 55  1  0  0  0
 50 58  1  0  0  0
 35 36  1  0  0  0
 51 52  1  0  0  0
 51 56  1  0  0  0
 36 37  1  0  0  0
 59 60  1  0  0  0
 59 61  1  0  0  0
 37 38  1  0  0  0
 63 66  1  0  0  0
 63 67  1  0  0  0
 38 39  1  0  0  0
 64 66  1  0  0  0
 39 40  1  0  0  0
 65 66  1  0  0  0
 65 68  1  0  0  0
 40 41  1  0  0  0
 41 42  1  0  0  0
 42 43  1  0  0  0
 43 44  1  0  0  0
 44 45  1  0  0  0
 45 46  1  0  0  0
  4  6  1  0  0  0
  6  7  1  0  0  0
  7  8  1  0  0  0
  8  9  1  0  0  0
  9 10  1  0  0  0
 10 11  1  0  0  0
 11 12  1  0  0  0
 12 13  1  0  0  0
 13 14  1  0  0  0
 14 15  1  0  0  0
 15 16  1  0  0  0
 16 17  1  0  0  0
 17 18  1  0  0  0
 18 19  1  0  0  0
 19 20  2  0  0  0
 20 21  1  0  0  0
 21 22  1  0  0  0
 22 23  1  0  0  0
 23 24  1  0  0  0
 24 25  1  0  0  0
 25 26  1  0  0  0
 26 27  1  0  0  0
 27 28  1  0  0  0
 52 53  1  0  0  0
 53 54  1  0  0  0
 54 55  1  0  0  0
 55 56  1  0  0  0
 56 60  1  0  0  0
M  CHG 1  64  -1
M  END
> <minimizedAffinity>
-9.40756

> <CNNscore>
0.2139903158

> <CNNaffinity>
7.6093149185

> <CNN_VS>
1.6283197403

> <CNNaffinity_variance>
1.9555561543

$$$$
/media/chris/experiments/cd1a-new-docking/inputs/ligands/7ryn_ligand.pdb


 68 68  0  0  0  0  0  0  0  0999 V2000
  -36.5607   58.3998   62.6510 C   0  0  0  0  0  0  0  0  0  0  0  0
  -36.3201   59.7882   63.0327 N   0  0  0  0  0  0  0  0  0  0  0  0
  -36.6889   61.5364   64.4022 O   0  0  0  0  0  0  0  0  0  0  0  0
  -36.8873   60.3643   64.0959 C   0  0  0  0  0  0  0  0  0  0  0  0
  -35.7095   60.3265   62.4790 H   0  0  0  0  0  0  0  0  0  0  0  0
  -37.8041   59.4810   64.9050 C   0  0  0  0  0  0  0  0  0  0  0  0
  -38.8258   60.2773   65.7068 C   0  0  0  0  0  0  0  0  0  0  0  0
  -40.1449   59.5397   65.8726 C   0  0  0  0  0  0  0  0  0  0  0  0
  -41.2626   60.3970   66.4428 C   0  0  0  0  0  0  0  0  0  0  0  0
  -42.4444   59.5965   66.9695 C   0  0  0  0  0  0  0  0  0  0  0  0
  -42.4988   58.1625   66.4583 C   0  0  0  0  0  0  0  0  0  0  0  0
  -43.8878   57.5399   66.5146 C   0  0  0  0  0  0  0  0  0  0  0  0
  -45.0229   58.5402   66.7188 C   0  0  0  0  0  0  0  0  0  0  0  0
  -46.4113   57.9741   66.4257 C   0  0  0  0  0  0  0  0  0  0  0  0
  -47.4916   59.0285   66.1853 C   0  0  0  0  0  0  0  0  0  0  0  0
  -47.7213   59.3388   64.7060 C   0  0  0  0  0  0  0  0  0  0  0  0
  -48.5414   60.5985   64.4287 C   0  0  0  0  0  0  0  0  0  0  0  0
  -50.0589   60.3958   64.4401 C   0  0  0  0  0  0  0  0  0  0  0  0
  -50.4754   59.0756   63.8592 C   0  0  0  0  0  0  0  0  0  0  0  0
  -50.4534   58.7464   62.5797 C   0  0  0  0  0  0  0  0  0  0  0  0
  -50.0053   59.6245   61.4509 C   0  0  0  0  0  0  0  0  0  0  0  0
  -49.5949   58.8508   60.1961 C   0  0  0  0  0  0  0  0  0  0  0  0
  -50.1501   57.4334   60.1541 C   0  0  0  0  0  0  0  0  0  0  0  0
  -49.0681   56.3619   60.0813 C   0  0  0  0  0  0  0  0  0  0  0  0
  -47.7688   56.8201   59.4288 C   0  0  0  0  0  0  0  0  0  0  0  0
  -47.3355   55.9561   58.2529 C   0  0  0  0  0  0  0  0  0  0  0  0
  -47.0821   56.7324   56.9703 C   0  0  0  0  0  0  0  0  0  0  0  0
  -46.9996   58.2289   57.1937 C   0  0  0  0  0  0  0  0  0  0  0  0
  -35.3178   57.2213   64.3543 O   0  0  0  0  0  0  0  0  0  0  0  0
  -35.3112   57.5612   62.9648 C   0  0  0  0  0  0  0  0  0  0  0  0
  -36.1386   56.7507   64.5681 H   0  0  0  0  0  0  0  0  0  0  0  0
  -34.0555   58.2908   62.5975 C   0  0  0  0  0  0  0  0  0  0  0  0
  -32.9516   58.3098   63.3179 C   0  0  0  0  0  0  0  0  0  0  0  0
  -31.7093   59.0354   62.9168 C   0  0  0  0  0  0  0  0  0  0  0  0
  -32.0442   60.3332   62.1787 C   0  0  0  0  0  0  0  0  0  0  0  0
  -30.9429   61.3800   62.2279 C   0  0  0  0  0  0  0  0  0  0  0  0
  -31.0403   62.4405   61.1445 C   0  0  0  0  0  0  0  0  0  0  0  0
  -31.3570   63.8335   61.6690 C   0  0  0  0  0  0  0  0  0  0  0  0
  -32.7712   64.2973   61.3553 C   0  0  0  0  0  0  0  0  0  0  0  0
  -33.1035   65.6692   61.9148 C   0  0  0  0  0  0  0  0  0  0  0  0
  -34.3976   65.7176   62.7055 C   0  0  0  0  0  0  0  0  0  0  0  0
  -34.8062   64.3805   63.2996 C   0  0  0  0  0  0  0  0  0  0  0  0
  -34.5025   64.2723   64.7824 C   0  0  0  0  0  0  0  0  0  0  0  0
  -33.4303   63.2573   65.1296 C   0  0  0  0  0  0  0  0  0  0  0  0
  -32.0364   63.8535   65.1125 C   0  0  0  0  0  0  0  0  0  0  0  0
  -32.0144   65.2912   65.5887 C   0  0  0  0  0  0  0  0  0  0  0  0
  -36.9449   58.3223   61.1879 C   0  0  0  0  0  0  0  0  0  0  0  0
  -38.1457   57.5498   61.0777 O   0  0  0  0  0  0  0  0  0  0  0  0
  -39.0447   60.1828   61.3941 O   0  0  0  0  0  0  0  0  0  0  0  0
  -42.5997   57.7658   61.6006 O   0  0  0  0  0  0  0  0  0  0  0  0
  -39.9810   56.7537   62.2295 O   0  0  0  0  0  0  0  0  0  0  0  0
  -39.1185   57.8587   62.0329 C   0  0  0  0  0  0  0  0  0  0  0  0
  -39.9076   59.0608   61.5306 C   0  0  0  0  0  0  0  0  0  0  0  0
  -41.0381   59.3801   62.5008 C   0  0  0  0  0  0  0  0  0  0  0  0
  -41.8886   58.1482   62.7735 C   0  0  0  0  0  0  0  0  0  0  0  0
  -40.9928   56.9954   63.2202 C   0  0  0  0  0  0  0  0  0  0  0  0
  -38.3299   59.9674   60.7748 H   0  0  0  0  0  0  0  0  0  0  0  0
  -43.1694   58.4970   61.3151 H   0  0  0  0  0  0  0  0  0  0  0  0
  -41.6570   55.2302   64.7471 O   0  0  0  0  0  0  0  0  0  0  0  0
  -41.7427   55.6971   63.4056 C   0  0  0  0  0  0  0  0  0  0  0  0
  -42.1474   54.3976   64.8315 H   0  0  0  0  0  0  0  0  0  0  0  0
  -41.8442   60.3865   61.8103 O   0  0  0  0  0  0  0  0  0  0  0  0
  -41.5687   62.1410   63.4391 O   0  0  0  0  0  0  0  0  0  0  0  0
  -43.7702   60.9526   63.2008 O   0  0  0  0  0  0  0  0  0  0  0  0
  -42.9783   62.4646   61.5507 O   0  0  0  0  0  0  0  0  0  0  0  0
  -42.5751   61.4991   62.6773 S   0  0  0  0  0  0  0  0  0  0  0  0
  -41.2893   61.5579   64.1622 H   0  0  0  0  0  0  0  0  0  0  0  0
  -42.1818   62.8616   61.1646 H   0  0  0  0  0  0  0  0  0  0  0  0
  2  1  1  0  0  0
  2  4  1  0  0  0
  2  5  1  0  0  0
 47 48  1  0  0  0
 47  1  1  0  0  0
 48 52  1  0  0  0
  1 30  1  0  0  0
 29 30  1  0  0  0
 29 31  1  0  0  0
 30 32  1  0  0  0
  3  4  2  0  0  0
 32 33  2  0  0  0
 49 53  1  0  0  0
 49 57  1  0  0  0
 33 34  1  0  0  0
 62 54  1  0  0  0
 62 66  1  0  0  0
 34 35  1  0  0  0
 50 55  1  0  0  0
 50 58  1  0  0  0
 35 36  1  0  0  0
 51 52  1  0  0  0
 51 56  1  0  0  0
 36 37  1  0  0  0
 59 60  1  0  0  0
 59 61  1  0  0  0
 37 38  1  0  0  0
 63 66  1  0  0  0
 63 67  1  0  0  0
 38 39  1  0  0  0
 64 66  1  0  0  0
 39 40  1  0  0  0
 65 66  1  0  0  0
 65 68  1  0  0  0
 40 41  1  0  0  0
 41 42  1  0  0  0
 42 43  1  0  0  0
 43 44  1  0  0  0
 44 45  1  0  0  0
 45 46  1  0  0  0
  4  6  1  0  0  0
  6  7  1  0  0  0
  7  8  1  0  0  0
  8  9  1  0  0  0
  9 10  1  0  0  0
 10 11  1  0  0  0
 11 12  1  0  0  0
 12 13  1  0  0  0
 13 14  1  0  0  0
 14 15  1  0  0  0
 15 16  1  0  0  0
 16 17  1  0  0  0
 17 18  1  0  0  0
 18 19  1  0  0  0
 19 20  2  0  0  0
 20 21  1  0  0  0
 21 22  1  0  0  0
 22 23  1  0  0  0
 23 24  1  0  0  0
 24 25  1  0  0  0
 25 26  1  0  0  0
 26 27  1  0  0  0
 27 28  1  0  0  0
 52 53  1  0  0  0
 53 54  1  0  0  0
 54 55  1  0  0  0
 55 56  1  0  0  0
 56 60  1  0  0  0
M  CHG 1  64  -1
M  END
> <minimizedAffinity>
-8.94116

> <CNNscore>
0.1717382967

> <CNNaffinity>
6.9738974571

> <CNN_VS>
1.1976852417

> <CNNaffinity_variance>
2.4585464001

$$$$
/media/chris/experiments/cd1a-new-docking/inputs/ligands/7ryn_ligand.pdb


 68 68  0  0  0  0  0  0  0  0999 V2000
  -38.9704   60.1004   61.0911 C   0  0  0  0  0  0  0  0  0  0  0  0
  -40.0040   59.0737   61.1847 N   0  0  0  0  0  0  0  0  0  0  0  0
  -42.1707   58.4820   61.3377 O   0  0  0  0  0  0  0  0  0  0  0  0
  -41.3090   59.3517   61.2464 C   0  0  0  0  0  0  0  0  0  0  0  0
  -39.7253   58.1297   61.2032 H   0  0  0  0  0  0  0  0  0  0  0  0
  -41.6667   60.8165   61.2046 C   0  0  0  0  0  0  0  0  0  0  0  0
  -42.5584   61.2342   62.3670 C   0  0  0  0  0  0  0  0  0  0  0  0
  -41.8199   61.2519   63.6957 C   0  0  0  0  0  0  0  0  0  0  0  0
  -42.2420   60.1472   64.6501 C   0  0  0  0  0  0  0  0  0  0  0  0
  -41.8541   60.4040   66.0986 C   0  0  0  0  0  0  0  0  0  0  0  0
  -42.4498   59.4082   67.0857 C   0  0  0  0  0  0  0  0  0  0  0  0
  -42.6592   58.0152   66.5061 C   0  0  0  0  0  0  0  0  0  0  0  0
  -44.1221   57.6137   66.3342 C   0  0  0  0  0  0  0  0  0  0  0  0
  -45.1164   58.7151   66.6981 C   0  0  0  0  0  0  0  0  0  0  0  0
  -46.5129   58.2160   67.0682 C   0  0  0  0  0  0  0  0  0  0  0  0
  -47.3530   57.8049   65.8589 C   0  0  0  0  0  0  0  0  0  0  0  0
  -47.2733   58.7534   64.6628 C   0  0  0  0  0  0  0  0  0  0  0  0
  -48.3265   59.8645   64.6493 C   0  0  0  0  0  0  0  0  0  0  0  0
  -49.6504   59.4200   65.2005 C   0  0  0  0  0  0  0  0  0  0  0  0
  -50.7721   59.2826   64.5159 C   0  0  0  0  0  0  0  0  0  0  0  0
  -50.9477   59.5403   63.0501 C   0  0  0  0  0  0  0  0  0  0  0  0
  -50.9925   58.2666   62.2031 C   0  0  0  0  0  0  0  0  0  0  0  0
  -49.6325   57.8643   61.6483 C   0  0  0  0  0  0  0  0  0  0  0  0
  -49.4400   58.2442   60.1845 C   0  0  0  0  0  0  0  0  0  0  0  0
  -48.2415   57.5832   59.5131 C   0  0  0  0  0  0  0  0  0  0  0  0
  -47.8874   58.1854   58.1607 C   0  0  0  0  0  0  0  0  0  0  0  0
  -46.9643   57.3207   57.3169 C   0  0  0  0  0  0  0  0  0  0  0  0
  -47.3988   55.8698   57.2665 C   0  0  0  0  0  0  0  0  0  0  0  0
  -38.1647   59.0424   59.0747 O   0  0  0  0  0  0  0  0  0  0  0  0
  -37.7488   59.5280   60.3544 C   0  0  0  0  0  0  0  0  0  0  0  0
  -38.5890   59.7599   58.5789 H   0  0  0  0  0  0  0  0  0  0  0  0
  -37.0877   58.4444   61.1498 C   0  0  0  0  0  0  0  0  0  0  0  0
  -35.7854   58.2926   61.2883 C   0  0  0  0  0  0  0  0  0  0  0  0
  -35.1564   57.2093   62.1014 C   0  0  0  0  0  0  0  0  0  0  0  0
  -33.6297   57.2906   62.0393 C   0  0  0  0  0  0  0  0  0  0  0  0
  -33.0816   58.7084   62.0173 C   0  0  0  0  0  0  0  0  0  0  0  0
  -32.7441   59.2690   63.3884 C   0  0  0  0  0  0  0  0  0  0  0  0
  -33.9602   59.5448   64.2606 C   0  0  0  0  0  0  0  0  0  0  0  0
  -34.1940   58.4920   65.3331 C   0  0  0  0  0  0  0  0  0  0  0  0
  -35.3773   57.5832   65.0509 C   0  0  0  0  0  0  0  0  0  0  0  0
  -36.6755   58.3228   64.7861 C   0  0  0  0  0  0  0  0  0  0  0  0
  -37.8945   57.6719   65.4170 C   0  0  0  0  0  0  0  0  0  0  0  0
  -39.1920   58.0460   64.7250 C   0  0  0  0  0  0  0  0  0  0  0  0
  -39.6075   57.0964   63.6176 C   0  0  0  0  0  0  0  0  0  0  0  0
  -40.9772   56.4907   63.8531 C   0  0  0  0  0  0  0  0  0  0  0  0
  -41.3849   55.5326   62.7530 C   0  0  0  0  0  0  0  0  0  0  0  0
  -38.6148   60.6071   62.4736 C   0  0  0  0  0  0  0  0  0  0  0  0
  -37.6819   61.6843   62.3324 O   0  0  0  0  0  0  0  0  0  0  0  0
  -35.4411   63.3473   62.0988 O   0  0  0  0  0  0  0  0  0  0  0  0
  -36.9135   64.0255   66.0857 O   0  0  0  0  0  0  0  0  0  0  0  0
  -37.4162   61.5989   64.6239 O   0  0  0  0  0  0  0  0  0  0  0  0
  -36.7651   61.7932   63.3821 C   0  0  0  0  0  0  0  0  0  0  0  0
  -36.1443   63.1829   63.3238 C   0  0  0  0  0  0  0  0  0  0  0  0
  -35.2006   63.3784   64.5038 C   0  0  0  0  0  0  0  0  0  0  0  0
  -35.8979   63.0637   65.8191 C   0  0  0  0  0  0  0  0  0  0  0  0
  -36.5243   61.6732   65.7476 C   0  0  0  0  0  0  0  0  0  0  0  0
  -36.0518   63.2205   61.3560 H   0  0  0  0  0  0  0  0  0  0  0  0
  -36.5175   64.9097   66.1314 H   0  0  0  0  0  0  0  0  0  0  0  0
  -38.6478   60.8966   66.6283 O   0  0  0  0  0  0  0  0  0  0  0  0
  -37.3347   61.3224   66.9734 C   0  0  0  0  0  0  0  0  0  0  0  0
  -39.1399   60.6797   67.4356 H   0  0  0  0  0  0  0  0  0  0  0  0
  -34.8496   64.7977   64.4650 O   0  0  0  0  0  0  0  0  0  0  0  0
  -32.7922   65.2584   65.6320 O   0  0  0  0  0  0  0  0  0  0  0  0
  -33.2086   66.2199   63.3478 O   0  0  0  0  0  0  0  0  0  0  0  0
  -32.7871   63.9065   63.6749 O   0  0  0  0  0  0  0  0  0  0  0  0
  -33.3190   65.1974   64.3190 S   0  0  0  0  0  0  0  0  0  0  0  0
  -33.1085   66.0640   66.0702 H   0  0  0  0  0  0  0  0  0  0  0  0
  -32.8465   63.1785   64.3132 H   0  0  0  0  0  0  0  0  0  0  0  0
  2  1  1  0  0  0
  2  4  1  0  0  0
  2  5  1  0  0  0
 47 48  1  0  0  0
 47  1  1  0  0  0
 48 52  1  0  0  0
  1 30  1  0  0  0
 29 30  1  0  0  0
 29 31  1  0  0  0
 30 32  1  0  0  0
  3  4  2  0  0  0
 32 33  2  0  0  0
 49 53  1  0  0  0
 49 57  1  0  0  0
 33 34  1  0  0  0
 62 54  1  0  0  0
 62 66  1  0  0  0
 34 35  1  0  0  0
 50 55  1  0  0  0
 50 58  1  0  0  0
 35 36  1  0  0  0
 51 52  1  0  0  0
 51 56  1  0  0  0
 36 37  1  0  0  0
 59 60  1  0  0  0
 59 61  1  0  0  0
 37 38  1  0  0  0
 63 66  1  0  0  0
 63 67  1  0  0  0
 38 39  1  0  0  0
 64 66  1  0  0  0
 39 40  1  0  0  0
 65 66  1  0  0  0
 65 68  1  0  0  0
 40 41  1  0  0  0
 41 42  1  0  0  0
 42 43  1  0  0  0
 43 44  1  0  0  0
 44 45  1  0  0  0
 45 46  1  0  0  0
  4  6  1  0  0  0
  6  7  1  0  0  0
  7  8  1  0  0  0
  8  9  1  0  0  0
  9 10  1  0  0  0
 10 11  1  0  0  0
 11 12  1  0  0  0
 12 13  1  0  0  0
 13 14  1  0  0  0
 14 15  1  0  0  0
 15 16  1  0  0  0
 16 17  1  0  0  0
 17 18  1  0  0  0
 18 19  1  0  0  0
 19 20  2  0  0  0
 20 21  1  0  0  0
 21 22  1  0  0  0
 22 23  1  0  0  0
 23 24  1  0  0  0
 24 25  1  0  0  0
 25 26  1  0  0  0
 26 27  1  0  0  0
 27 28  1  0  0  0
 52 53  1  0  0  0
 53 54  1  0  0  0
 54 55  1  0  0  0
 55 56  1  0  0  0
 56 60  1  0  0  0
M  CHG 1  64  -1
M  END
> <minimizedAffinity>
-8.45349

> <CNNscore>
0.1503955871

> <CNNaffinity>
7.3595008850

> <CNN_VS>
1.1068364382

> <CNNaffinity_variance>
2.0615837574

$$$$
/media/chris/experiments/cd1a-new-docking/inputs/ligands/7ryn_ligand.pdb


 68 68  0  0  0  0  0  0  0  0999 V2000
  -36.5599   59.3227   64.3255 C   0  0  0  0  0  0  0  0  0  0  0  0
  -36.9034   57.9993   63.8138 N   0  0  0  0  0  0  0  0  0  0  0  0
  -37.7819   56.6849   62.2110 O   0  0  0  0  0  0  0  0  0  0  0  0
  -37.4851   57.8009   62.6279 C   0  0  0  0  0  0  0  0  0  0  0  0
  -36.6959   57.2142   64.3703 H   0  0  0  0  0  0  0  0  0  0  0  0
  -37.7669   59.0452   61.8231 C   0  0  0  0  0  0  0  0  0  0  0  0
  -37.9868   58.7484   60.3452 C   0  0  0  0  0  0  0  0  0  0  0  0
  -39.4539   58.7962   59.9494 C   0  0  0  0  0  0  0  0  0  0  0  0
  -40.1533   60.0901   60.3313 C   0  0  0  0  0  0  0  0  0  0  0  0
  -41.4513   60.3340   59.5762 C   0  0  0  0  0  0  0  0  0  0  0  0
  -42.1368   59.0616   59.0945 C   0  0  0  0  0  0  0  0  0  0  0  0
  -42.3233   58.9952   57.5843 C   0  0  0  0  0  0  0  0  0  0  0  0
  -43.7220   59.3707   57.1014 C   0  0  0  0  0  0  0  0  0  0  0  0
  -44.6855   58.1888   57.0067 C   0  0  0  0  0  0  0  0  0  0  0  0
  -46.1653   58.5717   57.0043 C   0  0  0  0  0  0  0  0  0  0  0  0
  -47.1062   57.3667   57.0092 C   0  0  0  0  0  0  0  0  0  0  0  0
  -48.2996   57.4811   57.9575 C   0  0  0  0  0  0  0  0  0  0  0  0
  -48.0178   57.0611   59.4025 C   0  0  0  0  0  0  0  0  0  0  0  0
  -49.2681   56.7563   60.1757 C   0  0  0  0  0  0  0  0  0  0  0  0
  -50.0214   57.6337   60.8150 C   0  0  0  0  0  0  0  0  0  0  0  0
  -49.7804   59.1107   60.8944 C   0  0  0  0  0  0  0  0  0  0  0  0
  -50.0659   59.7067   62.2745 C   0  0  0  0  0  0  0  0  0  0  0  0
  -49.9639   58.6889   63.4028 C   0  0  0  0  0  0  0  0  0  0  0  0
  -50.1171   59.3051   64.7889 C   0  0  0  0  0  0  0  0  0  0  0  0
  -48.8162   59.8098   65.4026 C   0  0  0  0  0  0  0  0  0  0  0  0
  -47.5677   59.3120   64.6881 C   0  0  0  0  0  0  0  0  0  0  0  0
  -46.5518   58.6453   65.6020 C   0  0  0  0  0  0  0  0  0  0  0  0
  -46.8975   58.7874   67.0705 C   0  0  0  0  0  0  0  0  0  0  0  0
  -37.4574   61.5549   64.5414 O   0  0  0  0  0  0  0  0  0  0  0  0
  -37.8325   60.1801   64.4158 C   0  0  0  0  0  0  0  0  0  0  0  0
  -36.8977   61.8072   63.7906 H   0  0  0  0  0  0  0  0  0  0  0  0
  -38.6996   59.7545   65.5608 C   0  0  0  0  0  0  0  0  0  0  0  0
  -39.8938   60.2438   65.8300 C   0  0  0  0  0  0  0  0  0  0  0  0
  -40.7413   59.7873   66.9719 C   0  0  0  0  0  0  0  0  0  0  0  0
  -42.2003   60.2046   66.7756 C   0  0  0  0  0  0  0  0  0  0  0  0
  -43.1976   59.0651   66.9094 C   0  0  0  0  0  0  0  0  0  0  0  0
  -42.6004   57.6843   66.6985 C   0  0  0  0  0  0  0  0  0  0  0  0
  -43.2156   56.9147   65.5387 C   0  0  0  0  0  0  0  0  0  0  0  0
  -42.1903   56.2327   64.6460 C   0  0  0  0  0  0  0  0  0  0  0  0
  -41.0096   57.1165   64.2843 C   0  0  0  0  0  0  0  0  0  0  0  0
  -41.2287   57.9643   63.0452 C   0  0  0  0  0  0  0  0  0  0  0  0
  -42.6891   58.2689   62.7581 C   0  0  0  0  0  0  0  0  0  0  0  0
  -43.1067   59.6551   63.2125 C   0  0  0  0  0  0  0  0  0  0  0  0
  -42.0114   60.7003   63.1216 C   0  0  0  0  0  0  0  0  0  0  0  0
  -42.5514   62.1160   63.1742 C   0  0  0  0  0  0  0  0  0  0  0  0
  -43.0485   62.5978   61.8270 C   0  0  0  0  0  0  0  0  0  0  0  0
  -35.5048   59.9618   63.4465 C   0  0  0  0  0  0  0  0  0  0  0  0
  -34.2982   60.0846   64.2080 O   0  0  0  0  0  0  0  0  0  0  0  0
  -33.0910   61.8056   62.3582 O   0  0  0  0  0  0  0  0  0  0  0  0
  -36.0527   64.2152   64.3444 O   0  0  0  0  0  0  0  0  0  0  0  0
  -34.8784   61.8774   65.5416 O   0  0  0  0  0  0  0  0  0  0  0  0
  -33.9738   61.3968   64.5647 C   0  0  0  0  0  0  0  0  0  0  0  0
  -34.0454   62.2579   63.3103 C   0  0  0  0  0  0  0  0  0  0  0  0
  -33.7840   63.7157   63.6674 C   0  0  0  0  0  0  0  0  0  0  0  0
  -34.7011   64.1762   64.7908 C   0  0  0  0  0  0  0  0  0  0  0  0
  -34.5863   63.2163   65.9725 C   0  0  0  0  0  0  0  0  0  0  0  0
  -33.2677   60.8773   62.1392 H   0  0  0  0  0  0  0  0  0  0  0  0
  -36.1277   64.8246   63.5935 H   0  0  0  0  0  0  0  0  0  0  0  0
  -36.8928   63.2483   66.7258 O   0  0  0  0  0  0  0  0  0  0  0  0
  -35.5483   63.5350   67.0930 C   0  0  0  0  0  0  0  0  0  0  0  0
  -37.4827   63.4635   67.4651 H   0  0  0  0  0  0  0  0  0  0  0  0
  -34.0977   64.4572   62.4464 O   0  0  0  0  0  0  0  0  0  0  0  0
  -33.4932   66.5228   61.3626 O   0  0  0  0  0  0  0  0  0  0  0  0
  -32.2332   64.4049   60.8702 O   0  0  0  0  0  0  0  0  0  0  0  0
  -32.0311   65.5271   62.9526 O   0  0  0  0  0  0  0  0  0  0  0  0
  -32.9364   65.2755   61.7356 S   0  0  0  0  0  0  0  0  0  0  0  0
  -34.0727   66.4014   60.5941 H   0  0  0  0  0  0  0  0  0  0  0  0
  -32.4806   66.1228   63.5723 H   0  0  0  0  0  0  0  0  0  0  0  0
  2  1  1  0  0  0
  2  4  1  0  0  0
  2  5  1  0  0  0
 47 48  1  0  0  0
 47  1  1  0  0  0
 48 52  1  0  0  0
  1 30  1  0  0  0
 29 30  1  0  0  0
 29 31  1  0  0  0
 30 32  1  0  0  0
  3  4  2  0  0  0
 32 33  2  0  0  0
 49 53  1  0  0  0
 49 57  1  0  0  0
 33 34  1  0  0  0
 62 54  1  0  0  0
 62 66  1  0  0  0
 34 35  1  0  0  0
 50 55  1  0  0  0
 50 58  1  0  0  0
 35 36  1  0  0  0
 51 52  1  0  0  0
 51 56  1  0  0  0
 36 37  1  0  0  0
 59 60  1  0  0  0
 59 61  1  0  0  0
 37 38  1  0  0  0
 63 66  1  0  0  0
 63 67  1  0  0  0
 38 39  1  0  0  0
 64 66  1  0  0  0
 39 40  1  0  0  0
 65 66  1  0  0  0
 65 68  1  0  0  0
 40 41  1  0  0  0
 41 42  1  0  0  0
 42 43  1  0  0  0
 43 44  1  0  0  0
 44 45  1  0  0  0
 45 46  1  0  0  0
  4  6  1  0  0  0
  6  7  1  0  0  0
  7  8  1  0  0  0
  8  9  1  0  0  0
  9 10  1  0  0  0
 10 11  1  0  0  0
 11 12  1  0  0  0
 12 13  1  0  0  0
 13 14  1  0  0  0
 14 15  1  0  0  0
 15 16  1  0  0  0
 16 17  1  0  0  0
 17 18  1  0  0  0
 18 19  1  0  0  0
 19 20  2  0  0  0
 20 21  1  0  0  0
 21 22  1  0  0  0
 22 23  1  0  0  0
 23 24  1  0  0  0
 24 25  1  0  0  0
 25 26  1  0  0  0
 26 27  1  0  0  0
 27 28  1  0  0  0
 52 53  1  0  0  0
 53 54  1  0  0  0
 54 55  1  0  0  0
 55 56  1  0  0  0
 56 60  1  0  0  0
M  CHG 1  64  -1
M  END
> <minimizedAffinity>
-6.42246

> <CNNscore>
0.1475321651

> <CNNaffinity>
7.2660079002

> <CNN_VS>
1.0719698668

> <CNNaffinity_variance>
1.7645803690

$$$$
/media/chris/experiments/cd1a-new-docking/inputs/ligands/7ryn_ligand.pdb


 68 68  0  0  0  0  0  0  0  0999 V2000
  -39.8972   59.8297   63.4503 C   0  0  0  0  0  0  0  0  0  0  0  0
  -40.6879   60.9125   62.8727 N   0  0  0  0  0  0  0  0  0  0  0  0
  -42.4554   62.3047   62.9484 O   0  0  0  0  0  0  0  0  0  0  0  0
  -41.7894   61.4023   63.4478 C   0  0  0  0  0  0  0  0  0  0  0  0
  -40.3947   61.3008   62.0169 H   0  0  0  0  0  0  0  0  0  0  0  0
  -42.1770   60.7685   64.7606 C   0  0  0  0  0  0  0  0  0  0  0  0
  -41.8126   61.6356   65.9588 C   0  0  0  0  0  0  0  0  0  0  0  0
  -42.2987   61.0510   67.2754 C   0  0  0  0  0  0  0  0  0  0  0  0
  -42.0271   59.5635   67.4266 C   0  0  0  0  0  0  0  0  0  0  0  0
  -43.2477   58.6877   67.1865 C   0  0  0  0  0  0  0  0  0  0  0  0
  -42.9208   57.3079   66.6295 C   0  0  0  0  0  0  0  0  0  0  0  0
  -43.7045   56.9480   65.3740 C   0  0  0  0  0  0  0  0  0  0  0  0
  -45.1703   57.3740   65.3980 C   0  0  0  0  0  0  0  0  0  0  0  0
  -45.4902   58.5544   64.4824 C   0  0  0  0  0  0  0  0  0  0  0  0
  -46.7847   59.2925   64.8230 C   0  0  0  0  0  0  0  0  0  0  0  0
  -47.2740   59.0377   66.2488 C   0  0  0  0  0  0  0  0  0  0  0  0
  -48.6810   58.4498   66.3548 C   0  0  0  0  0  0  0  0  0  0  0  0
  -49.8156   59.4361   66.0649 C   0  0  0  0  0  0  0  0  0  0  0  0
  -50.8321   58.8897   65.1046 C   0  0  0  0  0  0  0  0  0  0  0  0
  -50.8663   59.1048   63.8013 C   0  0  0  0  0  0  0  0  0  0  0  0
  -49.8948   59.9355   63.0190 C   0  0  0  0  0  0  0  0  0  0  0  0
  -49.6301   59.4058   61.6080 C   0  0  0  0  0  0  0  0  0  0  0  0
  -50.6350   58.3521   61.1619 C   0  0  0  0  0  0  0  0  0  0  0  0
  -50.1839   57.5669   59.9355 C   0  0  0  0  0  0  0  0  0  0  0  0
  -48.9124   56.7514   60.1405 C   0  0  0  0  0  0  0  0  0  0  0  0
  -47.7513   57.1951   59.2619 C   0  0  0  0  0  0  0  0  0  0  0  0
  -48.1006   57.3251   57.7878 C   0  0  0  0  0  0  0  0  0  0  0  0
  -47.0819   56.6657   56.8803 C   0  0  0  0  0  0  0  0  0  0  0  0
  -40.1127   57.8885   64.8716 O   0  0  0  0  0  0  0  0  0  0  0  0
  -40.8395   58.7352   63.9764 C   0  0  0  0  0  0  0  0  0  0  0  0
  -39.7355   58.4231   65.5876 H   0  0  0  0  0  0  0  0  0  0  0  0
  -41.4375   57.9418   62.8552 C   0  0  0  0  0  0  0  0  0  0  0  0
  -40.8761   56.8947   62.2839 C   0  0  0  0  0  0  0  0  0  0  0  0
  -41.5053   56.1146   61.1766 C   0  0  0  0  0  0  0  0  0  0  0  0
  -41.7043   56.9852   59.9342 C   0  0  0  0  0  0  0  0  0  0  0  0
  -41.2609   58.4290   60.1075 C   0  0  0  0  0  0  0  0  0  0  0  0
  -40.1373   58.8533   59.1774 C   0  0  0  0  0  0  0  0  0  0  0  0
  -38.8370   59.1915   59.8920 C   0  0  0  0  0  0  0  0  0  0  0  0
  -38.3465   58.0915   60.8208 C   0  0  0  0  0  0  0  0  0  0  0  0
  -36.9279   58.3001   61.3208 C   0  0  0  0  0  0  0  0  0  0  0  0
  -36.4588   57.2467   62.3069 C   0  0  0  0  0  0  0  0  0  0  0  0
  -34.9565   57.2406   62.5326 C   0  0  0  0  0  0  0  0  0  0  0  0
  -34.2454   58.3789   61.8249 C   0  0  0  0  0  0  0  0  0  0  0  0
  -32.7363   58.3650   61.9761 C   0  0  0  0  0  0  0  0  0  0  0  0
  -32.1095   59.7151   61.6884 C   0  0  0  0  0  0  0  0  0  0  0  0
  -31.1402   60.1470   62.7692 C   0  0  0  0  0  0  0  0  0  0  0  0
  -38.9911   60.3707   64.5369 C   0  0  0  0  0  0  0  0  0  0  0  0
  -37.9249   59.4367   64.7406 O   0  0  0  0  0  0  0  0  0  0  0  0
  -37.6484   61.9674   63.5745 O   0  0  0  0  0  0  0  0  0  0  0  0
  -34.3124   61.6197   66.2712 O   0  0  0  0  0  0  0  0  0  0  0  0
  -35.6531   59.3398   65.1390 O   0  0  0  0  0  0  0  0  0  0  0  0
  -36.6708   59.8956   64.3272 C   0  0  0  0  0  0  0  0  0  0  0  0
  -36.6641   61.4146   64.4390 C   0  0  0  0  0  0  0  0  0  0  0  0
  -35.2849   61.9540   64.0810 C   0  0  0  0  0  0  0  0  0  0  0  0
  -34.2002   61.2659   64.8965 C   0  0  0  0  0  0  0  0  0  0  0  0
  -34.3326   59.7518   64.7516 C   0  0  0  0  0  0  0  0  0  0  0  0
  -38.5210   61.6168   63.8120 H   0  0  0  0  0  0  0  0  0  0  0  0
  -34.2286   62.5814   66.3654 H   0  0  0  0  0  0  0  0  0  0  0  0
  -33.5307   57.5788   65.4750 O   0  0  0  0  0  0  0  0  0  0  0  0
  -33.3626   58.9844   65.6191 C   0  0  0  0  0  0  0  0  0  0  0  0
  -32.8948   57.1172   66.0437 H   0  0  0  0  0  0  0  0  0  0  0  0
  -35.3385   63.3714   64.4378 O   0  0  0  0  0  0  0  0  0  0  0  0
  -35.8095   65.4577   63.3276 O   0  0  0  0  0  0  0  0  0  0  0  0
  -34.3021   63.7538   62.2600 O   0  0  0  0  0  0  0  0  0  0  0  0
  -33.6282   65.0056   64.1614 O   0  0  0  0  0  0  0  0  0  0  0  0
  -34.8260   64.4404   63.3804 S   0  0  0  0  0  0  0  0  0  0  0  0
  -36.5831   65.1345   62.8398 H   0  0  0  0  0  0  0  0  0  0  0  0
  -33.9482   65.4859   64.9411 H   0  0  0  0  0  0  0  0  0  0  0  0
  2  1  1  0  0  0
  2  4  1  0  0  0
  2  5  1  0  0  0
 47 48  1  0  0  0
 47  1  1  0  0  0
 48 52  1  0  0  0
  1 30  1  0  0  0
 29 30  1  0  0  0
 29 31  1  0  0  0
 30 32  1  0  0  0
  3  4  2  0  0  0
 32 33  2  0  0  0
 49 53  1  0  0  0
 49 57  1  0  0  0
 33 34  1  0  0  0
 62 54  1  0  0  0
 62 66  1  0  0  0
 34 35  1  0  0  0
 50 55  1  0  0  0
 50 58  1  0  0  0
 35 36  1  0  0  0
 51 52  1  0  0  0
 51 56  1  0  0  0
 36 37  1  0  0  0
 59 60  1  0  0  0
 59 61  1  0  0  0
 37 38  1  0  0  0
 63 66  1  0  0  0
 63 67  1  0  0  0
 38 39  1  0  0  0
 64 66  1  0  0  0
 39 40  1  0  0  0
 65 66  1  0  0  0
 65 68  1  0  0  0
 40 41  1  0  0  0
 41 42  1  0  0  0
 42 43  1  0  0  0
 43 44  1  0  0  0
 44 45  1  0  0  0
 45 46  1  0  0  0
  4  6  1  0  0  0
  6  7  1  0  0  0
  7  8  1  0  0  0
  8  9  1  0  0  0
  9 10  1  0  0  0
 10 11  1  0  0  0
 11 12  1  0  0  0
 12 13  1  0  0  0
 13 14  1  0  0  0
 14 15  1  0  0  0
 15 16  1  0  0  0
 16 17  1  0  0  0
 17 18  1  0  0  0
 18 19  1  0  0  0
 19 20  2  0  0  0
 20 21  1  0  0  0
 21 22  1  0  0  0
 22 23  1  0  0  0
 23 24  1  0  0  0
 24 25  1  0  0  0
 25 26  1  0  0  0
 26 27  1  0  0  0
 27 28  1  0  0  0
 52 53  1  0  0  0
 53 54  1  0  0  0
 54 55  1  0  0  0
 55 56  1  0  0  0
 56 60  1  0  0  0
M  CHG 1  64  -1
M  END
> <minimizedAffinity>
-7.26241

> <CNNscore>
0.1199289486

> <CNNaffinity>
7.2279410362

> <CNN_VS>
0.8668393493

> <CNNaffinity_variance>
1.6525681019

$$$$
/media/chris/experiments/cd1a-new-docking/inputs/ligands/7ryn_ligand.pdb


 68 68  0  0  0  0  0  0  0  0999 V2000
  -41.1628   61.1584   65.3992 C   0  0  0  0  0  0  0  0  0  0  0  0
  -42.1459   60.8358   66.4290 N   0  0  0  0  0  0  0  0  0  0  0  0
  -43.1612   59.3388   67.7693 O   0  0  0  0  0  0  0  0  0  0  0  0
  -42.3231   59.6032   66.9120 C   0  0  0  0  0  0  0  0  0  0  0  0
  -42.7061   61.5628   66.7852 H   0  0  0  0  0  0  0  0  0  0  0  0
  -41.4265   58.5391   66.3296 C   0  0  0  0  0  0  0  0  0  0  0  0
  -42.0196   57.1415   66.4554 C   0  0  0  0  0  0  0  0  0  0  0  0
  -42.5588   56.6123   65.1360 C   0  0  0  0  0  0  0  0  0  0  0  0
  -41.6308   55.6299   64.4409 C   0  0  0  0  0  0  0  0  0  0  0  0
  -41.5294   55.8379   62.9373 C   0  0  0  0  0  0  0  0  0  0  0  0
  -40.2339   56.5027   62.4895 C   0  0  0  0  0  0  0  0  0  0  0  0
  -39.6413   57.4555   63.5197 C   0  0  0  0  0  0  0  0  0  0  0  0
  -38.1183   57.5563   63.4874 C   0  0  0  0  0  0  0  0  0  0  0  0
  -37.4560   57.4102   64.8563 C   0  0  0  0  0  0  0  0  0  0  0  0
  -35.9291   57.4787   64.8360 C   0  0  0  0  0  0  0  0  0  0  0  0
  -35.3845   58.9047   64.7512 C   0  0  0  0  0  0  0  0  0  0  0  0
  -33.9026   59.0531   65.0951 C   0  0  0  0  0  0  0  0  0  0  0  0
  -32.9761   58.0495   64.4032 C   0  0  0  0  0  0  0  0  0  0  0  0
  -32.4532   58.5494   63.0877 C   0  0  0  0  0  0  0  0  0  0  0  0
  -33.0473   58.4214   61.9145 C   0  0  0  0  0  0  0  0  0  0  0  0
  -34.3648   57.7536   61.6615 C   0  0  0  0  0  0  0  0  0  0  0  0
  -35.5230   58.7341   61.4641 C   0  0  0  0  0  0  0  0  0  0  0  0
  -36.7944   58.0692   60.9536 C   0  0  0  0  0  0  0  0  0  0  0  0
  -37.5647   58.9245   59.9539 C   0  0  0  0  0  0  0  0  0  0  0  0
  -39.0638   58.6511   59.9124 C   0  0  0  0  0  0  0  0  0  0  0  0
  -39.9063   59.7599   60.5272 C   0  0  0  0  0  0  0  0  0  0  0  0
  -41.4038   59.5855   60.3303 C   0  0  0  0  0  0  0  0  0  0  0  0
  -41.7874   58.1696   59.9505 C   0  0  0  0  0  0  0  0  0  0  0  0
  -41.4239   61.6514   63.0489 O   0  0  0  0  0  0  0  0  0  0  0  0
  -41.6633   60.6468   64.0388 C   0  0  0  0  0  0  0  0  0  0  0  0
  -40.4793   61.8712   63.0332 H   0  0  0  0  0  0  0  0  0  0  0  0
  -43.1152   60.2816   64.0914 C   0  0  0  0  0  0  0  0  0  0  0  0
  -43.6237   59.1354   63.6844 C   0  0  0  0  0  0  0  0  0  0  0  0
  -45.0757   58.7950   63.7640 C   0  0  0  0  0  0  0  0  0  0  0  0
  -45.4908   58.4883   65.2045 C   0  0  0  0  0  0  0  0  0  0  0  0
  -46.9208   58.8817   65.5380 C   0  0  0  0  0  0  0  0  0  0  0  0
  -47.8292   59.0192   64.3282 C   0  0  0  0  0  0  0  0  0  0  0  0
  -48.5709   60.3462   64.2590 C   0  0  0  0  0  0  0  0  0  0  0  0
  -49.9178   60.2572   63.5583 C   0  0  0  0  0  0  0  0  0  0  0  0
  -50.5094   58.8587   63.5448 C   0  0  0  0  0  0  0  0  0  0  0  0
  -50.9078   58.3692   62.1650 C   0  0  0  0  0  0  0  0  0  0  0  0
  -49.7795   57.6980   61.4006 C   0  0  0  0  0  0  0  0  0  0  0  0
  -49.3816   58.4527   60.1458 C   0  0  0  0  0  0  0  0  0  0  0  0
  -49.1153   57.5697   58.9418 C   0  0  0  0  0  0  0  0  0  0  0  0
  -47.6870   57.6772   58.4450 C   0  0  0  0  0  0  0  0  0  0  0  0
  -47.5822   57.5223   56.9419 C   0  0  0  0  0  0  0  0  0  0  0  0
  -39.8149   60.5727   65.7661 C   0  0  0  0  0  0  0  0  0  0  0  0
  -38.9777   60.6070   64.6047 O   0  0  0  0  0  0  0  0  0  0  0  0
  -37.2210   61.1188   62.4851 O   0  0  0  0  0  0  0  0  0  0  0  0
  -36.5395   64.3151   65.2853 O   0  0  0  0  0  0  0  0  0  0  0  0
  -37.6032   61.7566   66.0601 O   0  0  0  0  0  0  0  0  0  0  0  0
  -37.6654   61.0197   64.8531 C   0  0  0  0  0  0  0  0  0  0  0  0
  -37.2136   61.8843   63.6833 C   0  0  0  0  0  0  0  0  0  0  0  0
  -35.8166   62.4298   63.9519 C   0  0  0  0  0  0  0  0  0  0  0  0
  -35.7529   63.1283   65.3022 C   0  0  0  0  0  0  0  0  0  0  0  0
  -36.2742   62.1915   66.3892 C   0  0  0  0  0  0  0  0  0  0  0  0
  -38.1147   60.7773   62.3251 H   0  0  0  0  0  0  0  0  0  0  0  0
  -36.2099   64.9117   64.5952 H   0  0  0  0  0  0  0  0  0  0  0  0
  -35.4515   63.9409   67.8558 O   0  0  0  0  0  0  0  0  0  0  0  0
  -36.3517   62.8440   67.7496 C   0  0  0  0  0  0  0  0  0  0  0  0
  -35.5262   64.3361   68.7385 H   0  0  0  0  0  0  0  0  0  0  0  0
  -35.5900   63.4059   62.8865 O   0  0  0  0  0  0  0  0  0  0  0  0
  -33.4658   64.4330   63.3760 O   0  0  0  0  0  0  0  0  0  0  0  0
  -34.1359   63.9520   61.0022 O   0  0  0  0  0  0  0  0  0  0  0  0
  -33.5598   62.2170   62.5168 O   0  0  0  0  0  0  0  0  0  0  0  0
  -34.1030   63.6492   62.3836 S   0  0  0  0  0  0  0  0  0  0  0  0
  -33.7859   65.3470   63.3211 H   0  0  0  0  0  0  0  0  0  0  0  0
  -33.5220   61.9715   63.4545 H   0  0  0  0  0  0  0  0  0  0  0  0
  2  1  1  0  0  0
  2  4  1  0  0  0
  2  5  1  0  0  0
 47 48  1  0  0  0
 47  1  1  0  0  0
 48 52  1  0  0  0
  1 30  1  0  0  0
 29 30  1  0  0  0
 29 31  1  0  0  0
 30 32  1  0  0  0
  3  4  2  0  0  0
 32 33  2  0  0  0
 49 53  1  0  0  0
 49 57  1  0  0  0
 33 34  1  0  0  0
 62 54  1  0  0  0
 62 66  1  0  0  0
 34 35  1  0  0  0
 50 55  1  0  0  0
 50 58  1  0  0  0
 35 36  1  0  0  0
 51 52  1  0  0  0
 51 56  1  0  0  0
 36 37  1  0  0  0
 59 60  1  0  0  0
 59 61  1  0  0  0
 37 38  1  0  0  0
 63 66  1  0  0  0
 63 67  1  0  0  0
 38 39  1  0  0  0
 64 66  1  0  0  0
 39 40  1  0  0  0
 65 66  1  0  0  0
 65 68  1  0  0  0
 40 41  1  0  0  0
 41 42  1  0  0  0
 42 43  1  0  0  0
 43 44  1  0  0  0
 44 45  1  0  0  0
 45 46  1  0  0  0
  4  6  1  0  0  0
  6  7  1  0  0  0
  7  8  1  0  0  0
  8  9  1  0  0  0
  9 10  1  0  0  0
 10 11  1  0  0  0
 11 12  1  0  0  0
 12 13  1  0  0  0
 13 14  1  0  0  0
 14 15  1  0  0  0
 15 16  1  0  0  0
 16 17  1  0  0  0
 17 18  1  0  0  0
 18 19  1  0  0  0
 19 20  2  0  0  0
 20 21  1  0  0  0
 21 22  1  0  0  0
 22 23  1  0  0  0
 23 24  1  0  0  0
 24 25  1  0  0  0
 25 26  1  0  0  0
 26 27  1  0  0  0
 27 28  1  0  0  0
 52 53  1  0  0  0
 53 54  1  0  0  0
 54 55  1  0  0  0
 55 56  1  0  0  0
 56 60  1  0  0  0
M  CHG 1  64  -1
M  END
> <minimizedAffinity>
-7.92651

> <CNNscore>
0.1142740324

> <CNNaffinity>
7.2460083961

> <CNN_VS>
0.8280305862

> <CNNaffinity_variance>
2.0461239815

$$$$
/media/chris/experiments/cd1a-new-docking/inputs/ligands/7ryn_ligand.pdb


 68 68  0  0  0  0  0  0  0  0999 V2000
  -39.3465   59.9302   60.6120 C   0  0  0  0  0  0  0  0  0  0  0  0
  -40.2252   58.8335   61.0075 N   0  0  0  0  0  0  0  0  0  0  0  0
  -42.2047   58.0885   61.7786 O   0  0  0  0  0  0  0  0  0  0  0  0
  -41.4770   59.0160   61.4361 C   0  0  0  0  0  0  0  0  0  0  0  0
  -39.8778   57.9138   60.9557 H   0  0  0  0  0  0  0  0  0  0  0  0
  -41.9484   60.4482   61.4826 C   0  0  0  0  0  0  0  0  0  0  0  0
  -42.8339   60.7335   62.6888 C   0  0  0  0  0  0  0  0  0  0  0  0
  -42.0561   61.2978   63.8669 C   0  0  0  0  0  0  0  0  0  0  0  0
  -41.5269   60.2389   64.8198 C   0  0  0  0  0  0  0  0  0  0  0  0
  -41.7630   60.5593   66.2882 C   0  0  0  0  0  0  0  0  0  0  0  0
  -42.2337   59.3690   67.1144 C   0  0  0  0  0  0  0  0  0  0  0  0
  -42.3182   58.0672   66.3282 C   0  0  0  0  0  0  0  0  0  0  0  0
  -43.7401   57.5989   66.0286 C   0  0  0  0  0  0  0  0  0  0  0  0
  -44.8263   58.5510   66.5261 C   0  0  0  0  0  0  0  0  0  0  0  0
  -46.1398   57.8722   66.9141 C   0  0  0  0  0  0  0  0  0  0  0  0
  -47.1158   57.7224   65.7470 C   0  0  0  0  0  0  0  0  0  0  0  0
  -47.2217   58.9416   64.8311 C   0  0  0  0  0  0  0  0  0  0  0  0
  -48.2778   59.9697   65.2453 C   0  0  0  0  0  0  0  0  0  0  0  0
  -49.4604   59.3478   65.9298 C   0  0  0  0  0  0  0  0  0  0  0  0
  -50.7014   59.3293   65.4765 C   0  0  0  0  0  0  0  0  0  0  0  0
  -51.1775   59.9235   64.1857 C   0  0  0  0  0  0  0  0  0  0  0  0
  -51.1772   58.9355   63.0172 C   0  0  0  0  0  0  0  0  0  0  0  0
  -50.0293   59.1573   62.0414 C   0  0  0  0  0  0  0  0  0  0  0  0
  -49.9850   58.1298   60.9160 C   0  0  0  0  0  0  0  0  0  0  0  0
  -49.1875   58.5674   59.6927 C   0  0  0  0  0  0  0  0  0  0  0  0
  -48.2210   57.5089   59.1802 C   0  0  0  0  0  0  0  0  0  0  0  0
  -47.5745   57.8498   57.8470 C   0  0  0  0  0  0  0  0  0  0  0  0
  -47.1269   56.6230   57.0783 C   0  0  0  0  0  0  0  0  0  0  0  0
  -38.2062   58.8199   58.7950 O   0  0  0  0  0  0  0  0  0  0  0  0
  -38.0127   59.3575   60.1065 C   0  0  0  0  0  0  0  0  0  0  0  0
  -38.5536   59.5113   58.2102 H   0  0  0  0  0  0  0  0  0  0  0  0
  -37.4755   58.3154   61.0390 C   0  0  0  0  0  0  0  0  0  0  0  0
  -36.2218   58.2283   61.4372 C   0  0  0  0  0  0  0  0  0  0  0  0
  -35.7196   57.1852   62.3806 C   0  0  0  0  0  0  0  0  0  0  0  0
  -34.3990   57.6144   63.0234 C   0  0  0  0  0  0  0  0  0  0  0  0
  -33.4766   58.3878   62.0950 C   0  0  0  0  0  0  0  0  0  0  0  0
  -32.5431   59.3538   62.8044 C   0  0  0  0  0  0  0  0  0  0  0  0
  -31.7567   60.2566   61.8651 C   0  0  0  0  0  0  0  0  0  0  0  0
  -32.1662   61.7195   61.9388 C   0  0  0  0  0  0  0  0  0  0  0  0
  -32.3256   62.2396   63.3566 C   0  0  0  0  0  0  0  0  0  0  0  0
  -31.3211   63.3108   63.7387 C   0  0  0  0  0  0  0  0  0  0  0  0
  -31.1952   64.4287   62.7177 C   0  0  0  0  0  0  0  0  0  0  0  0
  -31.3994   65.8069   63.3186 C   0  0  0  0  0  0  0  0  0  0  0  0
  -32.8168   66.3352   63.2066 C   0  0  0  0  0  0  0  0  0  0  0  0
  -33.5678   65.7431   62.0303 C   0  0  0  0  0  0  0  0  0  0  0  0
  -34.9983   66.2343   61.9485 C   0  0  0  0  0  0  0  0  0  0  0  0
  -39.1525   60.8846   61.7722 C   0  0  0  0  0  0  0  0  0  0  0  0
  -37.7574   61.1914   61.8745 O   0  0  0  0  0  0  0  0  0  0  0  0
  -35.9399   62.8754   63.1790 O   0  0  0  0  0  0  0  0  0  0  0  0
  -38.4498   61.3173   66.3088 O   0  0  0  0  0  0  0  0  0  0  0  0
  -38.0461   59.9589   63.8049 O   0  0  0  0  0  0  0  0  0  0  0  0
  -37.1698   60.8035   63.0821 C   0  0  0  0  0  0  0  0  0  0  0  0
  -36.8679   62.0619   63.8854 C   0  0  0  0  0  0  0  0  0  0  0  0
  -36.3052   61.6828   65.2495 C   0  0  0  0  0  0  0  0  0  0  0  0
  -37.2172   60.6947   65.9615 C   0  0  0  0  0  0  0  0  0  0  0  0
  -37.4925   59.5019   65.0492 C   0  0  0  0  0  0  0  0  0  0  0  0
  -36.3091   63.1098   62.3132 H   0  0  0  0  0  0  0  0  0  0  0  0
  -38.2770   62.0756   66.8885 H   0  0  0  0  0  0  0  0  0  0  0  0
  -37.8674   57.2737   65.9341 O   0  0  0  0  0  0  0  0  0  0  0  0
  -38.4820   58.5216   65.6344 C   0  0  0  0  0  0  0  0  0  0  0  0
  -38.5281   56.6692   66.3069 H   0  0  0  0  0  0  0  0  0  0  0  0
  -36.2696   62.9397   65.9967 O   0  0  0  0  0  0  0  0  0  0  0  0
  -35.0579   64.0205   67.7773 O   0  0  0  0  0  0  0  0  0  0  0  0
  -34.2606   64.1934   65.4004 O   0  0  0  0  0  0  0  0  0  0  0  0
  -34.1070   62.1675   66.6285 O   0  0  0  0  0  0  0  0  0  0  0  0
  -34.8618   63.4983   66.4758 S   0  0  0  0  0  0  0  0  0  0  0  0
  -35.5334   64.8641   67.7190 H   0  0  0  0  0  0  0  0  0  0  0  0
  -34.4919   61.6597   67.3600 H   0  0  0  0  0  0  0  0  0  0  0  0
  2  1  1  0  0  0
  2  4  1  0  0  0
  2  5  1  0  0  0
 47 48  1  0  0  0
 47  1  1  0  0  0
 48 52  1  0  0  0
  1 30  1  0  0  0
 29 30  1  0  0  0
 29 31  1  0  0  0
 30 32  1  0  0  0
  3  4  2  0  0  0
 32 33  2  0  0  0
 49 53  1  0  0  0
 49 57  1  0  0  0
 33 34  1  0  0  0
 62 54  1  0  0  0
 62 66  1  0  0  0
 34 35  1  0  0  0
 50 55  1  0  0  0
 50 58  1  0  0  0
 35 36  1  0  0  0
 51 52  1  0  0  0
 51 56  1  0  0  0
 36 37  1  0  0  0
 59 60  1  0  0  0
 59 61  1  0  0  0
 37 38  1  0  0  0
 63 66  1  0  0  0
 63 67  1  0  0  0
 38 39  1  0  0  0
 64 66  1  0  0  0
 39 40  1  0  0  0
 65 66  1  0  0  0
 65 68  1  0  0  0
 40 41  1  0  0  0
 41 42  1  0  0  0
 42 43  1  0  0  0
 43 44  1  0  0  0
 44 45  1  0  0  0
 45 46  1  0  0  0
  4  6  1  0  0  0
  6  7  1  0  0  0
  7  8  1  0  0  0
  8  9  1  0  0  0
  9 10  1  0  0  0
 10 11  1  0  0  0
 11 12  1  0  0  0
 12 13  1  0  0  0
 13 14  1  0  0  0
 14 15  1  0  0  0
 15 16  1  0  0  0
 16 17  1  0  0  0
 17 18  1  0  0  0
 18 19  1  0  0  0
 19 20  2  0  0  0
 20 21  1  0  0  0
 21 22  1  0  0  0
 22 23  1  0  0  0
 23 24  1  0  0  0
 24 25  1  0  0  0
 25 26  1  0  0  0
 26 27  1  0  0  0
 27 28  1  0  0  0
 52 53  1  0  0  0
 53 54  1  0  0  0
 54 55  1  0  0  0
 55 56  1  0  0  0
 56 60  1  0  0  0
M  CHG 1  64  -1
M  END
> <minimizedAffinity>
-8.96904

> <CNNscore>
0.1089201570

> <CNNaffinity>
6.9538145065

> <CNN_VS>
0.7574105859

> <CNNaffinity_variance>
1.9130599499

$$$$
/media/chris/experiments/cd1a-new-docking/inputs/ligands/7ryn_ligand.pdb


 68 68  0  0  0  0  0  0  0  0999 V2000
  -38.5192   59.9806   64.3036 C   0  0  0  0  0  0  0  0  0  0  0  0
  -39.6867   60.6500   63.7378 N   0  0  0  0  0  0  0  0  0  0  0  0
  -41.7788   61.4539   63.9490 O   0  0  0  0  0  0  0  0  0  0  0  0
  -40.7968   60.9016   64.4366 C   0  0  0  0  0  0  0  0  0  0  0  0
  -39.6541   60.9298   62.7945 H   0  0  0  0  0  0  0  0  0  0  0  0
  -40.7763   60.4549   65.8772 C   0  0  0  0  0  0  0  0  0  0  0  0
  -42.0923   60.7298   66.5936 C   0  0  0  0  0  0  0  0  0  0  0  0
  -42.6227   59.5123   67.3337 C   0  0  0  0  0  0  0  0  0  0  0  0
  -42.1658   58.1871   66.7468 C   0  0  0  0  0  0  0  0  0  0  0  0
  -43.3015   57.3247   66.2169 C   0  0  0  0  0  0  0  0  0  0  0  0
  -43.6783   57.6163   64.7699 C   0  0  0  0  0  0  0  0  0  0  0  0
  -45.0045   58.3490   64.6135 C   0  0  0  0  0  0  0  0  0  0  0  0
  -46.0854   57.9212   65.6031 C   0  0  0  0  0  0  0  0  0  0  0  0
  -47.4983   58.3408   65.2009 C   0  0  0  0  0  0  0  0  0  0  0  0
  -47.5596   59.4875   64.1921 C   0  0  0  0  0  0  0  0  0  0  0  0
  -48.5535   60.5839   64.5761 C   0  0  0  0  0  0  0  0  0  0  0  0
  -49.8839   60.0834   65.1384 C   0  0  0  0  0  0  0  0  0  0  0  0
  -51.0439   60.0742   64.1392 C   0  0  0  0  0  0  0  0  0  0  0  0
  -51.1732   58.7696   63.4076 C   0  0  0  0  0  0  0  0  0  0  0  0
  -50.7247   58.5112   62.1919 C   0  0  0  0  0  0  0  0  0  0  0  0
  -49.9939   59.4681   61.2997 C   0  0  0  0  0  0  0  0  0  0  0  0
  -49.1189   58.7821   60.2483 C   0  0  0  0  0  0  0  0  0  0  0  0
  -49.7524   57.5266   59.6639 C   0  0  0  0  0  0  0  0  0  0  0  0
  -48.9059   56.2741   59.8611 C   0  0  0  0  0  0  0  0  0  0  0  0
  -47.5894   56.2743   59.0924 C   0  0  0  0  0  0  0  0  0  0  0  0
  -47.7427   55.9445   57.6143 C   0  0  0  0  0  0  0  0  0  0  0  0
  -47.7113   57.1585   56.6993 C   0  0  0  0  0  0  0  0  0  0  0  0
  -46.7651   58.2380   57.1847 C   0  0  0  0  0  0  0  0  0  0  0  0
  -37.9441   58.2758   65.9154 O   0  0  0  0  0  0  0  0  0  0  0  0
  -38.9623   58.6819   64.9962 C   0  0  0  0  0  0  0  0  0  0  0  0
  -37.7768   58.9908   66.5490 H   0  0  0  0  0  0  0  0  0  0  0  0
  -39.2476   57.5998   64.0003 C   0  0  0  0  0  0  0  0  0  0  0  0
  -40.4274   57.3528   63.4664 C   0  0  0  0  0  0  0  0  0  0  0  0
  -40.6769   56.2748   62.4634 C   0  0  0  0  0  0  0  0  0  0  0  0
  -41.7246   56.7102   61.4367 C   0  0  0  0  0  0  0  0  0  0  0  0
  -41.9630   58.2108   61.3879 C   0  0  0  0  0  0  0  0  0  0  0  0
  -41.4102   58.8911   60.1472 C   0  0  0  0  0  0  0  0  0  0  0  0
  -40.3179   59.9106   60.4353 C   0  0  0  0  0  0  0  0  0  0  0  0
  -38.9486   59.5025   59.9139 C   0  0  0  0  0  0  0  0  0  0  0  0
  -37.8817   59.4247   60.9916 C   0  0  0  0  0  0  0  0  0  0  0  0
  -36.9908   58.2004   60.8924 C   0  0  0  0  0  0  0  0  0  0  0  0
  -36.9830   57.3418   62.1456 C   0  0  0  0  0  0  0  0  0  0  0  0
  -35.7171   57.5020   62.9668 C   0  0  0  0  0  0  0  0  0  0  0  0
  -34.9224   58.7556   62.6544 C   0  0  0  0  0  0  0  0  0  0  0  0
  -33.5740   58.4504   62.0323 C   0  0  0  0  0  0  0  0  0  0  0  0
  -32.5416   58.0348   63.0598 C   0  0  0  0  0  0  0  0  0  0  0  0
  -37.7951   60.9129   65.2528 C   0  0  0  0  0  0  0  0  0  0  0  0
  -36.4407   61.0463   64.8073 O   0  0  0  0  0  0  0  0  0  0  0  0
  -35.5724   62.6430   66.9375 O   0  0  0  0  0  0  0  0  0  0  0  0
  -32.8112   63.4642   63.7401 O   0  0  0  0  0  0  0  0  0  0  0  0
  -35.4839   62.4993   63.2899 O   0  0  0  0  0  0  0  0  0  0  0  0
  -36.0345   62.3657   64.5871 C   0  0  0  0  0  0  0  0  0  0  0  0
  -34.9937   62.7209   65.6409 C   0  0  0  0  0  0  0  0  0  0  0  0
  -34.4571   64.1239   65.3865 C   0  0  0  0  0  0  0  0  0  0  0  0
  -33.9658   64.2696   63.9538 C   0  0  0  0  0  0  0  0  0  0  0  0
  -35.0675   63.8406   62.9878 C   0  0  0  0  0  0  0  0  0  0  0  0
  -35.9101   61.7462   67.0874 H   0  0  0  0  0  0  0  0  0  0  0  0
  -32.1099   63.7353   64.3530 H   0  0  0  0  0  0  0  0  0  0  0  0
  -35.7174   64.1004   60.6643 O   0  0  0  0  0  0  0  0  0  0  0  0
  -34.6270   63.8470   61.5427 C   0  0  0  0  0  0  0  0  0  0  0  0
  -35.4012   64.0978   59.7473 H   0  0  0  0  0  0  0  0  0  0  0  0
  -33.3277   64.2598   66.3058 O   0  0  0  0  0  0  0  0  0  0  0  0
  -32.5149   66.1428   67.5710 O   0  0  0  0  0  0  0  0  0  0  0  0
  -32.7865   66.3000   65.0776 O   0  0  0  0  0  0  0  0  0  0  0  0
  -31.0731   64.9905   66.0707 O   0  0  0  0  0  0  0  0  0  0  0  0
  -32.4723   65.5978   66.2648 S   0  0  0  0  0  0  0  0  0  0  0  0
  -33.3873   66.5364   67.7288 H   0  0  0  0  0  0  0  0  0  0  0  0
  -30.8208   64.4986   66.8677 H   0  0  0  0  0  0  0  0  0  0  0  0
  2  1  1  0  0  0
  2  4  1  0  0  0
  2  5  1  0  0  0
 47 48  1  0  0  0
 47  1  1  0  0  0
 48 52  1  0  0  0
  1 30  1  0  0  0
 29 30  1  0  0  0
 29 31  1  0  0  0
 30 32  1  0  0  0
  3  4  2  0  0  0
 32 33  2  0  0  0
 49 53  1  0  0  0
 49 57  1  0  0  0
 33 34  1  0  0  0
 62 54  1  0  0  0
 62 66  1  0  0  0
 34 35  1  0  0  0
 50 55  1  0  0  0
 50 58  1  0  0  0
 35 36  1  0  0  0
 51 52  1  0  0  0
 51 56  1  0  0  0
 36 37  1  0  0  0
 59 60  1  0  0  0
 59 61  1  0  0  0
 37 38  1  0  0  0
 63 66  1  0  0  0
 63 67  1  0  0  0
 38 39  1  0  0  0
 64 66  1  0  0  0
 39 40  1  0  0  0
 65 66  1  0  0  0
 65 68  1  0  0  0
 40 41  1  0  0  0
 41 42  1  0  0  0
 42 43  1  0  0  0
 43 44  1  0  0  0
 44 45  1  0  0  0
 45 46  1  0  0  0
  4  6  1  0  0  0
  6  7  1  0  0  0
  7  8  1  0  0  0
  8  9  1  0  0  0
  9 10  1  0  0  0
 10 11  1  0  0  0
 11 12  1  0  0  0
 12 13  1  0  0  0
 13 14  1  0  0  0
 14 15  1  0  0  0
 15 16  1  0  0  0
 16 17  1  0  0  0
 17 18  1  0  0  0
 18 19  1  0  0  0
 19 20  2  0  0  0
 20 21  1  0  0  0
 21 22  1  0  0  0
 22 23  1  0  0  0
 23 24  1  0  0  0
 24 25  1  0  0  0
 25 26  1  0  0  0
 26 27  1  0  0  0
 27 28  1  0  0  0
 52 53  1  0  0  0
 53 54  1  0  0  0
 54 55  1  0  0  0
 55 56  1  0  0  0
 56 60  1  0  0  0
M  CHG 1  64  -1
M  END
> <minimizedAffinity>
-9.20949

> <CNNscore>
0.0982416347

> <CNNaffinity>
7.1818757057

> <CNN_VS>
0.7055591941

> <CNNaffinity_variance>
1.9975353479

$$$$
/media/chris/experiments/cd1a-new-docking/inputs/ligands/7ryn_ligand.pdb


 68 68  0  0  0  0  0  0  0  0999 V2000
  -41.1369   60.3786   65.4264 C   0  0  0  0  0  0  0  0  0  0  0  0
  -41.7527   61.6252   64.9815 N   0  0  0  0  0  0  0  0  0  0  0  0
  -42.3901   63.0164   63.3303 O   0  0  0  0  0  0  0  0  0  0  0  0
  -41.8821   61.9599   63.6949 C   0  0  0  0  0  0  0  0  0  0  0  0
  -42.0893   62.2502   65.6637 H   0  0  0  0  0  0  0  0  0  0  0  0
  -41.3537   60.9540   62.7028 C   0  0  0  0  0  0  0  0  0  0  0  0
  -42.1741   60.9113   61.4199 C   0  0  0  0  0  0  0  0  0  0  0  0
  -41.3181   60.6886   60.1834 C   0  0  0  0  0  0  0  0  0  0  0  0
  -39.9814   60.0253   60.4708 C   0  0  0  0  0  0  0  0  0  0  0  0
  -39.8120   58.6683   59.8041 C   0  0  0  0  0  0  0  0  0  0  0  0
  -41.1232   57.9384   59.5421 C   0  0  0  0  0  0  0  0  0  0  0  0
  -41.5344   56.9885   60.6595 C   0  0  0  0  0  0  0  0  0  0  0  0
  -42.6732   57.4994   61.5386 C   0  0  0  0  0  0  0  0  0  0  0  0
  -42.3501   57.5093   63.0317 C   0  0  0  0  0  0  0  0  0  0  0  0
  -41.3081   56.4783   63.4651 C   0  0  0  0  0  0  0  0  0  0  0  0
  -40.1599   57.0774   64.2776 C   0  0  0  0  0  0  0  0  0  0  0  0
  -39.0992   57.8100   63.4563 C   0  0  0  0  0  0  0  0  0  0  0  0
  -38.2691   56.9165   62.5307 C   0  0  0  0  0  0  0  0  0  0  0  0
  -37.2176   57.6765   61.7752 C   0  0  0  0  0  0  0  0  0  0  0  0
  -35.9774   57.8957   62.1749 C   0  0  0  0  0  0  0  0  0  0  0  0
  -35.3700   57.4269   63.4622 C   0  0  0  0  0  0  0  0  0  0  0  0
  -35.1484   58.5470   64.4810 C   0  0  0  0  0  0  0  0  0  0  0  0
  -33.7566   59.1608   64.4078 C   0  0  0  0  0  0  0  0  0  0  0  0
  -32.7423   58.2762   63.6918 C   0  0  0  0  0  0  0  0  0  0  0  0
  -31.6353   59.0391   62.9733 C   0  0  0  0  0  0  0  0  0  0  0  0
  -32.0689   60.4019   62.4518 C   0  0  0  0  0  0  0  0  0  0  0  0
  -30.9279   61.3900   62.2690 C   0  0  0  0  0  0  0  0  0  0  0  0
  -30.9677   62.0947   60.9281 C   0  0  0  0  0  0  0  0  0  0  0  0
  -41.2309   58.7231   67.1829 O   0  0  0  0  0  0  0  0  0  0  0  0
  -41.9803   59.7690   66.5577 C   0  0  0  0  0  0  0  0  0  0  0  0
  -40.3873   59.0776   67.5044 H   0  0  0  0  0  0  0  0  0  0  0  0
  -43.2925   59.2569   66.0478 C   0  0  0  0  0  0  0  0  0  0  0  0
  -43.7603   58.0405   66.2464 C   0  0  0  0  0  0  0  0  0  0  0  0
  -45.0809   57.5641   65.7369 C   0  0  0  0  0  0  0  0  0  0  0  0
  -45.7697   58.6438   64.8996 C   0  0  0  0  0  0  0  0  0  0  0  0
  -47.1291   59.0705   65.4295 C   0  0  0  0  0  0  0  0  0  0  0  0
  -48.1252   59.4614   64.3512 C   0  0  0  0  0  0  0  0  0  0  0  0
  -49.5112   59.7981   64.8818 C   0  0  0  0  0  0  0  0  0  0  0  0
  -50.6334   59.0546   64.1738 C   0  0  0  0  0  0  0  0  0  0  0  0
  -50.7835   59.4246   62.7087 C   0  0  0  0  0  0  0  0  0  0  0  0
  -50.6297   58.2534   61.7564 C   0  0  0  0  0  0  0  0  0  0  0  0
  -49.3028   58.2317   61.0169 C   0  0  0  0  0  0  0  0  0  0  0  0
  -49.4194   57.6893   59.6046 C   0  0  0  0  0  0  0  0  0  0  0  0
  -48.1276   57.1301   59.0399 C   0  0  0  0  0  0  0  0  0  0  0  0
  -48.0737   57.2028   57.5265 C   0  0  0  0  0  0  0  0  0  0  0  0
  -46.8989   58.0176   57.0262 C   0  0  0  0  0  0  0  0  0  0  0  0
  -39.7063   60.6301   65.8557 C   0  0  0  0  0  0  0  0  0  0  0  0
  -38.8546   60.4345   64.7212 O   0  0  0  0  0  0  0  0  0  0  0  0
  -37.2503   60.9665   62.4887 O   0  0  0  0  0  0  0  0  0  0  0  0
  -36.6251   64.3107   65.1246 O   0  0  0  0  0  0  0  0  0  0  0  0
  -37.4802   61.7254   66.0531 O   0  0  0  0  0  0  0  0  0  0  0  0
  -37.5599   60.9372   64.8800 C   0  0  0  0  0  0  0  0  0  0  0  0
  -37.2275   61.7795   63.6551 C   0  0  0  0  0  0  0  0  0  0  0  0
  -35.8559   62.4207   63.8243 C   0  0  0  0  0  0  0  0  0  0  0  0
  -35.7646   63.1764   65.1418 C   0  0  0  0  0  0  0  0  0  0  0  0
  -36.1660   62.2545   66.2906 C   0  0  0  0  0  0  0  0  0  0  0  0
  -38.1276   60.5643   62.3920 H   0  0  0  0  0  0  0  0  0  0  0  0
  -36.3717   64.8978   64.3952 H   0  0  0  0  0  0  0  0  0  0  0  0
  -35.0743   63.7889   67.8211 O   0  0  0  0  0  0  0  0  0  0  0  0
  -36.2118   62.9561   67.6278 C   0  0  0  0  0  0  0  0  0  0  0  0
  -35.1349   64.2231   68.6863 H   0  0  0  0  0  0  0  0  0  0  0  0
  -35.7495   63.3644   62.7120 O   0  0  0  0  0  0  0  0  0  0  0  0
  -34.5242   65.4074   63.0751 O   0  0  0  0  0  0  0  0  0  0  0  0
  -33.9242   63.8783   61.1732 O   0  0  0  0  0  0  0  0  0  0  0  0
  -33.4805   63.3002   63.4328 O   0  0  0  0  0  0  0  0  0  0  0  0
  -34.3729   64.1261   62.4917 S   0  0  0  0  0  0  0  0  0  0  0  0
  -35.0842   65.9579   62.5056 H   0  0  0  0  0  0  0  0  0  0  0  0
  -33.7584   63.4443   64.3509 H   0  0  0  0  0  0  0  0  0  0  0  0
  2  1  1  0  0  0
  2  4  1  0  0  0
  2  5  1  0  0  0
 47 48  1  0  0  0
 47  1  1  0  0  0
 48 52  1  0  0  0
  1 30  1  0  0  0
 29 30  1  0  0  0
 29 31  1  0  0  0
 30 32  1  0  0  0
  3  4  2  0  0  0
 32 33  2  0  0  0
 49 53  1  0  0  0
 49 57  1  0  0  0
 33 34  1  0  0  0
 62 54  1  0  0  0
 62 66  1  0  0  0
 34 35  1  0  0  0
 50 55  1  0  0  0
 50 58  1  0  0  0
 35 36  1  0  0  0
 51 52  1  0  0  0
 51 56  1  0  0  0
 36 37  1  0  0  0
 59 60  1  0  0  0
 59 61  1  0  0  0
 37 38  1  0  0  0
 63 66  1  0  0  0
 63 67  1  0  0  0
 38 39  1  0  0  0
 64 66  1  0  0  0
 39 40  1  0  0  0
 65 66  1  0  0  0
 65 68  1  0  0  0
 40 41  1  0  0  0
 41 42  1  0  0  0
 42 43  1  0  0  0
 43 44  1  0  0  0
 44 45  1  0  0  0
 45 46  1  0  0  0
  4  6  1  0  0  0
  6  7  1  0  0  0
  7  8  1  0  0  0
  8  9  1  0  0  0
  9 10  1  0  0  0
 10 11  1  0  0  0
 11 12  1  0  0  0
 12 13  1  0  0  0
 13 14  1  0  0  0
 14 15  1  0  0  0
 15 16  1  0  0  0
 16 17  1  0  0  0
 17 18  1  0  0  0
 18 19  1  0  0  0
 19 20  2  0  0  0
 20 21  1  0  0  0
 21 22  1  0  0  0
 22 23  1  0  0  0
 23 24  1  0  0  0
 24 25  1  0  0  0
 25 26  1  0  0  0
 26 27  1  0  0  0
 27 28  1  0  0  0
 52 53  1  0  0  0
 53 54  1  0  0  0
 54 55  1  0  0  0
 55 56  1  0  0  0
 56 60  1  0  0  0
M  CHG 1  64  -1
M  END
> <minimizedAffinity>
-8.66979

> <CNNscore>
0.0972483829

> <CNNaffinity>
7.3436050415

> <CNN_VS>
0.7141537070

> <CNNaffinity_variance>
2.2607283592

$$$$
