/media/chris/experiments/cd1a-new-docking/inputs/ligands/7ryn_ligand.pdb


 68 68  0  0  0  0  0  0  0  0999 V2000
  -31.6362   62.2777   62.4676 C   0  0  0  0  0  0  0  0  0  0  0  0
  -32.8675   62.7046   63.1257 N   0  0  0  0  0  0  0  0  0  0  0  0
  -33.7967   63.6391   61.3005 O   0  0  0  0  0  0  0  0  0  0  0  0
  -33.8502   63.3509   62.4926 C   0  0  0  0  0  0  0  0  0  0  0  0
  -32.9789   62.5064   64.0835 H   0  0  0  0  0  0  0  0  0  0  0  0
  -35.0490   63.7037   63.3375 C   0  0  0  0  0  0  0  0  0  0  0  0
  -35.6552   62.4892   64.0289 C   0  0  0  0  0  0  0  0  0  0  0  0
  -36.5385   61.6677   63.1038 C   0  0  0  0  0  0  0  0  0  0  0  0
  -37.6419   60.9071   63.8203 C   0  0  0  0  0  0  0  0  0  0  0  0
  -37.4651   60.8433   65.3300 C   0  0  0  0  0  0  0  0  0  0  0  0
  -38.5430   60.0402   66.0469 C   0  0  0  0  0  0  0  0  0  0  0  0
  -38.8341   58.6891   65.4066 C   0  0  0  0  0  0  0  0  0  0  0  0
  -40.3008   58.2682   65.4543 C   0  0  0  0  0  0  0  0  0  0  0  0
  -41.2600   59.3969   65.8283 C   0  0  0  0  0  0  0  0  0  0  0  0
  -42.3379   59.0081   66.8400 C   0  0  0  0  0  0  0  0  0  0  0  0
  -42.9472   57.6300   66.5813 C   0  0  0  0  0  0  0  0  0  0  0  0
  -43.6301   57.4689   65.2233 C   0  0  0  0  0  0  0  0  0  0  0  0
  -45.1601   57.5096   65.2618 C   0  0  0  0  0  0  0  0  0  0  0  0
  -45.7184   58.8435   64.8572 C   0  0  0  0  0  0  0  0  0  0  0  0
  -46.9987   59.1620   64.7851 C   0  0  0  0  0  0  0  0  0  0  0  0
  -48.1515   58.2562   65.0957 C   0  0  0  0  0  0  0  0  0  0  0  0
  -49.4428   58.6323   64.3658 C   0  0  0  0  0  0  0  0  0  0  0  0
  -49.2220   59.0092   62.9069 C   0  0  0  0  0  0  0  0  0  0  0  0
  -50.3956   58.6460   62.0040 C   0  0  0  0  0  0  0  0  0  0  0  0
  -50.1321   57.4725   61.0675 C   0  0  0  0  0  0  0  0  0  0  0  0
  -49.8183   57.8882   59.6372 C   0  0  0  0  0  0  0  0  0  0  0  0
  -48.6465   57.1447   59.0158 C   0  0  0  0  0  0  0  0  0  0  0  0
  -47.7557   58.0417   58.1804 C   0  0  0  0  0  0  0  0  0  0  0  0
  -31.8522   60.2466   61.1782 O   0  0  0  0  0  0  0  0  0  0  0  0
  -31.5542   60.7429   62.4863 C   0  0  0  0  0  0  0  0  0  0  0  0
  -31.2399   60.6389   60.5362 H   0  0  0  0  0  0  0  0  0  0  0  0
  -32.4823   60.1573   63.5059 C   0  0  0  0  0  0  0  0  0  0  0  0
  -32.6769   58.8681   63.7020 C   0  0  0  0  0  0  0  0  0  0  0  0
  -33.5992   58.3147   64.7382 C   0  0  0  0  0  0  0  0  0  0  0  0
  -35.0501   58.3394   64.2532 C   0  0  0  0  0  0  0  0  0  0  0  0
  -35.2989   57.5303   62.9907 C   0  0  0  0  0  0  0  0  0  0  0  0
  -36.7423   57.5397   62.5171 C   0  0  0  0  0  0  0  0  0  0  0  0
  -36.9419   58.1855   61.1536 C   0  0  0  0  0  0  0  0  0  0  0  0
  -38.2890   58.8735   60.9949 C   0  0  0  0  0  0  0  0  0  0  0  0
  -39.4443   57.9130   60.7741 C   0  0  0  0  0  0  0  0  0  0  0  0
  -40.1197   57.4540   62.0529 C   0  0  0  0  0  0  0  0  0  0  0  0
  -41.6370   57.4451   61.9786 C   0  0  0  0  0  0  0  0  0  0  0  0
  -42.2167   58.7717   61.5240 C   0  0  0  0  0  0  0  0  0  0  0  0
  -42.4604   59.7653   62.6436 C   0  0  0  0  0  0  0  0  0  0  0  0
  -41.8898   61.1367   62.3398 C   0  0  0  0  0  0  0  0  0  0  0  0
  -42.9660   62.1907   62.1798 C   0  0  0  0  0  0  0  0  0  0  0  0
  -30.4393   62.9194   63.1384 C   0  0  0  0  0  0  0  0  0  0  0  0
  -29.6875   63.6218   62.1423 O   0  0  0  0  0  0  0  0  0  0  0  0
  -29.5160   65.0415   59.7347 O   0  0  0  0  0  0  0  0  0  0  0  0
  -33.0095   66.6095   61.6995 O   0  0  0  0  0  0  0  0  0  0  0  0
  -30.8404   65.3651   63.1222 O   0  0  0  0  0  0  0  0  0  0  0  0
  -29.9186   65.0001   62.1120 C   0  0  0  0  0  0  0  0  0  0  0  0
  -30.4731   65.3553   60.7385 C   0  0  0  0  0  0  0  0  0  0  0  0
  -30.8228   66.8373   60.6887 C   0  0  0  0  0  0  0  0  0  0  0  0
  -31.7329   67.2233   61.8455 C   0  0  0  0  0  0  0  0  0  0  0  0
  -31.1048   66.7765   63.1632 C   0  0  0  0  0  0  0  0  0  0  0  0
  -29.3017   64.0963   59.7765 H   0  0  0  0  0  0  0  0  0  0  0  0
  -33.4103   66.8921   60.8626 H   0  0  0  0  0  0  0  0  0  0  0  0
  -32.8706   65.9231   64.5922 O   0  0  0  0  0  0  0  0  0  0  0  0
  -31.9951   67.0203   64.3592 C   0  0  0  0  0  0  0  0  0  0  0  0
  -33.4266   66.1113   65.3644 H   0  0  0  0  0  0  0  0  0  0  0  0
  -31.5410   67.0051   59.4257 O   0  0  0  0  0  0  0  0  0  0  0  0
  -30.8159   66.2268   57.2634 O   0  0  0  0  0  0  0  0  0  0  0  0
  -29.4939   67.9666   58.5048 O   0  0  0  0  0  0  0  0  0  0  0  0
  -31.6061   68.4536   57.5363 O   0  0  0  0  0  0  0  0  0  0  0  0
  -30.7072   67.3503   58.1183 S   0  0  0  0  0  0  0  0  0  0  0  0
  -30.2592   65.5080   57.6016 H   0  0  0  0  0  0  0  0  0  0  0  0
  -32.4519   68.0684   57.2584 H   0  0  0  0  0  0  0  0  0  0  0  0
  2  1  1  0  0  0
  2  4  1  0  0  0
  2  5  1  0  0  0
 47 48  1  0  0  0
 47  1  1  0  0  0
 48 52  1  0  0  0
  1 30  1  0  0  0
 29 30  1  0  0  0
 29 31  1  0  0  0
 30 32  1  0  0  0
  3  4  2  0  0  0
 32 33  2  0  0  0
 49 53  1  0  0  0
 49 57  1  0  0  0
 33 34  1  0  0  0
 62 54  1  0  0  0
 62 66  1  0  0  0
 34 35  1  0  0  0
 50 55  1  0  0  0
 50 58  1  0  0  0
 35 36  1  0  0  0
 51 52  1  0  0  0
 51 56  1  0  0  0
 36 37  1  0  0  0
 59 60  1  0  0  0
 59 61  1  0  0  0
 37 38  1  0  0  0
 63 66  1  0  0  0
 63 67  1  0  0  0
 38 39  1  0  0  0
 64 66  1  0  0  0
 39 40  1  0  0  0
 65 66  1  0  0  0
 65 68  1  0  0  0
 40 41  1  0  0  0
 41 42  1  0  0  0
 42 43  1  0  0  0
 43 44  1  0  0  0
 44 45  1  0  0  0
 45 46  1  0  0  0
  4  6  1  0  0  0
  6  7  1  0  0  0
  7  8  1  0  0  0
  8  9  1  0  0  0
  9 10  1  0  0  0
 10 11  1  0  0  0
 11 12  1  0  0  0
 12 13  1  0  0  0
 13 14  1  0  0  0
 14 15  1  0  0  0
 15 16  1  0  0  0
 16 17  1  0  0  0
 17 18  1  0  0  0
 18 19  1  0  0  0
 19 20  2  0  0  0
 20 21  1  0  0  0
 21 22  1  0  0  0
 22 23  1  0  0  0
 23 24  1  0  0  0
 24 25  1  0  0  0
 25 26  1  0  0  0
 26 27  1  0  0  0
 27 28  1  0  0  0
 52 53  1  0  0  0
 53 54  1  0  0  0
 54 55  1  0  0  0
 55 56  1  0  0  0
 56 60  1  0  0  0
M  CHG 1  64  -1
M  END
> <minimizedAffinity>
-8.71293

> <CNNscore>
0.2901308537

> <CNNaffinity>
7.0492830276

> <CNN_VS>
2.0452144146

> <CNNaffinity_variance>
1.4487730265

$$$$
/media/chris/experiments/cd1a-new-docking/inputs/ligands/7ryn_ligand.pdb


 68 68  0  0  0  0  0  0  0  0999 V2000
  -37.0987   58.7482   63.5728 C   0  0  0  0  0  0  0  0  0  0  0  0
  -38.1367   58.1526   62.7366 N   0  0  0  0  0  0  0  0  0  0  0  0
  -38.1882   59.8083   61.2122 O   0  0  0  0  0  0  0  0  0  0  0  0
  -38.6001   58.7275   61.6236 C   0  0  0  0  0  0  0  0  0  0  0  0
  -38.5137   57.2841   63.0065 H   0  0  0  0  0  0  0  0  0  0  0  0
  -39.6679   57.9572   60.8874 C   0  0  0  0  0  0  0  0  0  0  0  0
  -40.6408   57.2601   61.8297 C   0  0  0  0  0  0  0  0  0  0  0  0
  -42.0017   57.9363   61.8733 C   0  0  0  0  0  0  0  0  0  0  0  0
  -42.3168   58.6017   63.2026 C   0  0  0  0  0  0  0  0  0  0  0  0
  -41.6792   57.9148   64.4010 C   0  0  0  0  0  0  0  0  0  0  0  0
  -42.5789   56.8892   65.0788 C   0  0  0  0  0  0  0  0  0  0  0  0
  -43.3350   57.4327   66.2843 C   0  0  0  0  0  0  0  0  0  0  0  0
  -44.6013   58.2124   65.9392 C   0  0  0  0  0  0  0  0  0  0  0  0
  -45.8152   57.8335   66.7859 C   0  0  0  0  0  0  0  0  0  0  0  0
  -47.1650   58.1162   66.1269 C   0  0  0  0  0  0  0  0  0  0  0  0
  -47.1110   59.2313   65.0824 C   0  0  0  0  0  0  0  0  0  0  0  0
  -48.4605   59.8611   64.7376 C   0  0  0  0  0  0  0  0  0  0  0  0
  -49.6820   59.0633   65.2014 C   0  0  0  0  0  0  0  0  0  0  0  0
  -50.9757   59.6259   64.6873 C   0  0  0  0  0  0  0  0  0  0  0  0
  -51.4293   59.5296   63.4500 C   0  0  0  0  0  0  0  0  0  0  0  0
  -50.7445   58.8366   62.3112 C   0  0  0  0  0  0  0  0  0  0  0  0
  -49.9690   59.7833   61.3926 C   0  0  0  0  0  0  0  0  0  0  0  0
  -49.3550   59.0840   60.1871 C   0  0  0  0  0  0  0  0  0  0  0  0
  -48.7940   57.7035   60.5094 C   0  0  0  0  0  0  0  0  0  0  0  0
  -48.8095   56.7268   59.3391 C   0  0  0  0  0  0  0  0  0  0  0  0
  -47.4335   56.1901   58.9705 C   0  0  0  0  0  0  0  0  0  0  0  0
  -47.1329   56.2191   57.4803 C   0  0  0  0  0  0  0  0  0  0  0  0
  -47.6760   57.4558   56.7936 C   0  0  0  0  0  0  0  0  0  0  0  0
  -36.1811   57.0366   65.0092 O   0  0  0  0  0  0  0  0  0  0  0  0
  -35.9640   57.7317   63.7779 C   0  0  0  0  0  0  0  0  0  0  0  0
  -37.0539   56.6137   64.9922 H   0  0  0  0  0  0  0  0  0  0  0  0
  -34.6228   58.3988   63.7684 C   0  0  0  0  0  0  0  0  0  0  0  0
  -33.6352   58.1035   62.9465 C   0  0  0  0  0  0  0  0  0  0  0  0
  -32.3129   58.7981   62.9523 C   0  0  0  0  0  0  0  0  0  0  0  0
  -32.4291   60.2074   62.3680 C   0  0  0  0  0  0  0  0  0  0  0  0
  -31.1743   60.6945   61.6617 C   0  0  0  0  0  0  0  0  0  0  0  0
  -29.8907   60.4689   62.4423 C   0  0  0  0  0  0  0  0  0  0  0  0
  -29.1359   61.7477   62.7748 C   0  0  0  0  0  0  0  0  0  0  0  0
  -30.0417   62.9406   63.0389 C   0  0  0  0  0  0  0  0  0  0  0  0
  -29.2909   64.2420   63.2594 C   0  0  0  0  0  0  0  0  0  0  0  0
  -29.9446   65.1698   64.2664 C   0  0  0  0  0  0  0  0  0  0  0  0
  -30.2137   66.5663   63.7324 C   0  0  0  0  0  0  0  0  0  0  0  0
  -29.0869   67.0978   62.8662 C   0  0  0  0  0  0  0  0  0  0  0  0
  -29.5097   67.5019   61.4669 C   0  0  0  0  0  0  0  0  0  0  0  0
  -30.8848   66.9794   61.1001 C   0  0  0  0  0  0  0  0  0  0  0  0
  -30.8236   65.8015   60.1497 C   0  0  0  0  0  0  0  0  0  0  0  0
  -37.6924   59.2107   64.8873 C   0  0  0  0  0  0  0  0  0  0  0  0
  -37.9217   60.6220   64.8062 O   0  0  0  0  0  0  0  0  0  0  0  0
  -36.5550   61.6251   62.5775 O   0  0  0  0  0  0  0  0  0  0  0  0
  -36.6326   64.8831   65.3887 O   0  0  0  0  0  0  0  0  0  0  0  0
  -36.8396   62.1257   66.1834 O   0  0  0  0  0  0  0  0  0  0  0  0
  -36.7731   61.4021   64.9687 C   0  0  0  0  0  0  0  0  0  0  0  0
  -36.6828   62.3602   63.7881 C   0  0  0  0  0  0  0  0  0  0  0  0
  -35.4909   63.2920   63.9675 C   0  0  0  0  0  0  0  0  0  0  0  0
  -35.5339   63.9795   65.3243 C   0  0  0  0  0  0  0  0  0  0  0  0
  -35.6755   62.9319   66.4257 C   0  0  0  0  0  0  0  0  0  0  0  0
  -37.3189   61.0362   62.4747 H   0  0  0  0  0  0  0  0  0  0  0  0
  -36.5444   65.5496   64.6895 H   0  0  0  0  0  0  0  0  0  0  0  0
  -36.5840   62.6797   68.6617 O   0  0  0  0  0  0  0  0  0  0  0  0
  -35.8390   63.5341   67.8016 C   0  0  0  0  0  0  0  0  0  0  0  0
  -36.6702   63.0946   69.5341 H   0  0  0  0  0  0  0  0  0  0  0  0
  -35.6401   64.2907   62.9093 O   0  0  0  0  0  0  0  0  0  0  0  0
  -35.5517   64.1690   60.5043 O   0  0  0  0  0  0  0  0  0  0  0  0
  -33.6725   63.2549   61.9002 O   0  0  0  0  0  0  0  0  0  0  0  0
  -34.0573   65.5883   61.6916 O   0  0  0  0  0  0  0  0  0  0  0  0
  -34.6982   64.1919   61.6339 S   0  0  0  0  0  0  0  0  0  0  0  0
  -35.9749   63.2988   60.4364 H   0  0  0  0  0  0  0  0  0  0  0  0
  -34.7325   66.2616   61.5133 H   0  0  0  0  0  0  0  0  0  0  0  0
  2  1  1  0  0  0
  2  4  1  0  0  0
  2  5  1  0  0  0
 47 48  1  0  0  0
 47  1  1  0  0  0
 48 52  1  0  0  0
  1 30  1  0  0  0
 29 30  1  0  0  0
 29 31  1  0  0  0
 30 32  1  0  0  0
  3  4  2  0  0  0
 32 33  2  0  0  0
 49 53  1  0  0  0
 49 57  1  0  0  0
 33 34  1  0  0  0
 62 54  1  0  0  0
 62 66  1  0  0  0
 34 35  1  0  0  0
 50 55  1  0  0  0
 50 58  1  0  0  0
 35 36  1  0  0  0
 51 52  1  0  0  0
 51 56  1  0  0  0
 36 37  1  0  0  0
 59 60  1  0  0  0
 59 61  1  0  0  0
 37 38  1  0  0  0
 63 66  1  0  0  0
 63 67  1  0  0  0
 38 39  1  0  0  0
 64 66  1  0  0  0
 39 40  1  0  0  0
 65 66  1  0  0  0
 65 68  1  0  0  0
 40 41  1  0  0  0
 41 42  1  0  0  0
 42 43  1  0  0  0
 43 44  1  0  0  0
 44 45  1  0  0  0
 45 46  1  0  0  0
  4  6  1  0  0  0
  6  7  1  0  0  0
  7  8  1  0  0  0
  8  9  1  0  0  0
  9 10  1  0  0  0
 10 11  1  0  0  0
 11 12  1  0  0  0
 12 13  1  0  0  0
 13 14  1  0  0  0
 14 15  1  0  0  0
 15 16  1  0  0  0
 16 17  1  0  0  0
 17 18  1  0  0  0
 18 19  1  0  0  0
 19 20  2  0  0  0
 20 21  1  0  0  0
 21 22  1  0  0  0
 22 23  1  0  0  0
 23 24  1  0  0  0
 24 25  1  0  0  0
 25 26  1  0  0  0
 26 27  1  0  0  0
 27 28  1  0  0  0
 52 53  1  0  0  0
 53 54  1  0  0  0
 54 55  1  0  0  0
 55 56  1  0  0  0
 56 60  1  0  0  0
M  CHG 1  64  -1
M  END
> <minimizedAffinity>
-8.97544

> <CNNscore>
0.2564242780

> <CNNaffinity>
7.0756645203

> <CNN_VS>
1.8143721819

> <CNNaffinity_variance>
0.7957781553

$$$$
/media/chris/experiments/cd1a-new-docking/inputs/ligands/7ryn_ligand.pdb


 68 68  0  0  0  0  0  0  0  0999 V2000
  -33.1028   62.2904   63.0099 C   0  0  0  0  0  0  0  0  0  0  0  0
  -34.0631   61.8973   64.0368 N   0  0  0  0  0  0  0  0  0  0  0  0
  -35.8301   62.9483   63.1198 O   0  0  0  0  0  0  0  0  0  0  0  0
  -35.3495   62.2559   64.0124 C   0  0  0  0  0  0  0  0  0  0  0  0
  -33.7468   61.3402   64.7844 H   0  0  0  0  0  0  0  0  0  0  0  0
  -36.1904   61.7473   65.1568 C   0  0  0  0  0  0  0  0  0  0  0  0
  -36.7219   60.3408   64.9120 C   0  0  0  0  0  0  0  0  0  0  0  0
  -38.2383   60.2651   64.9890 C   0  0  0  0  0  0  0  0  0  0  0  0
  -38.7590   59.0062   65.6622 C   0  0  0  0  0  0  0  0  0  0  0  0
  -40.2635   58.8185   65.5367 C   0  0  0  0  0  0  0  0  0  0  0  0
  -41.0829   59.8712   66.2724 C   0  0  0  0  0  0  0  0  0  0  0  0
  -42.4502   59.3798   66.7302 C   0  0  0  0  0  0  0  0  0  0  0  0
  -42.6096   57.8615   66.7325 C   0  0  0  0  0  0  0  0  0  0  0  0
  -43.9831   57.3796   66.2682 C   0  0  0  0  0  0  0  0  0  0  0  0
  -45.1043   58.4069   66.4221 C   0  0  0  0  0  0  0  0  0  0  0  0
  -45.8806   58.6592   65.1294 C   0  0  0  0  0  0  0  0  0  0  0  0
  -47.3926   58.4600   65.2330 C   0  0  0  0  0  0  0  0  0  0  0  0
  -48.2020   59.7470   65.4135 C   0  0  0  0  0  0  0  0  0  0  0  0
  -48.3994   60.4970   64.1278 C   0  0  0  0  0  0  0  0  0  0  0  0
  -49.4979   60.5077   63.3937 C   0  0  0  0  0  0  0  0  0  0  0  0
  -50.7694   59.7752   63.6986 C   0  0  0  0  0  0  0  0  0  0  0  0
  -51.0206   58.5736   62.7851 C   0  0  0  0  0  0  0  0  0  0  0  0
  -49.7854   58.1396   62.0073 C   0  0  0  0  0  0  0  0  0  0  0  0
  -50.0207   58.0405   60.5043 C   0  0  0  0  0  0  0  0  0  0  0  0
  -48.7553   58.1351   59.6596 C   0  0  0  0  0  0  0  0  0  0  0  0
  -48.1057   56.7879   59.3759 C   0  0  0  0  0  0  0  0  0  0  0  0
  -47.0900   56.8127   58.2447 C   0  0  0  0  0  0  0  0  0  0  0  0
  -47.2486   58.0152   57.3365 C   0  0  0  0  0  0  0  0  0  0  0  0
  -31.3905   61.4198   61.5453 O   0  0  0  0  0  0  0  0  0  0  0  0
  -32.1749   61.1049   62.6994 C   0  0  0  0  0  0  0  0  0  0  0  0
  -30.8974   62.2400   61.7035 H   0  0  0  0  0  0  0  0  0  0  0  0
  -32.9519   59.8413   62.4907 C   0  0  0  0  0  0  0  0  0  0  0  0
  -32.5498   58.6369   62.8455 C   0  0  0  0  0  0  0  0  0  0  0  0
  -33.3552   57.3964   62.6369 C   0  0  0  0  0  0  0  0  0  0  0  0
  -34.7790   57.7336   62.1895 C   0  0  0  0  0  0  0  0  0  0  0  0
  -35.8440   57.4542   63.2375 C   0  0  0  0  0  0  0  0  0  0  0  0
  -37.2486   57.3090   62.6774 C   0  0  0  0  0  0  0  0  0  0  0  0
  -37.4717   58.0495   61.3667 C   0  0  0  0  0  0  0  0  0  0  0  0
  -38.0349   59.4510   61.5451 C   0  0  0  0  0  0  0  0  0  0  0  0
  -39.1633   59.7838   60.5849 C   0  0  0  0  0  0  0  0  0  0  0  0
  -39.7937   58.5702   59.9276 C   0  0  0  0  0  0  0  0  0  0  0  0
  -41.3102   58.6262   59.8580 C   0  0  0  0  0  0  0  0  0  0  0  0
  -41.9825   57.5384   60.6748 C   0  0  0  0  0  0  0  0  0  0  0  0
  -41.6123   57.5404   62.1456 C   0  0  0  0  0  0  0  0  0  0  0  0
  -42.7011   58.1313   63.0195 C   0  0  0  0  0  0  0  0  0  0  0  0
  -42.7579   59.6426   62.9338 C   0  0  0  0  0  0  0  0  0  0  0  0
  -32.3314   63.5135   63.4609 C   0  0  0  0  0  0  0  0  0  0  0  0
  -30.9448   63.1657   63.5453 O   0  0  0  0  0  0  0  0  0  0  0  0
  -29.6202   63.6926   61.1351 O   0  0  0  0  0  0  0  0  0  0  0  0
  -30.9037   67.5457   62.5595 O   0  0  0  0  0  0  0  0  0  0  0  0
  -30.4778   65.2961   64.3017 O   0  0  0  0  0  0  0  0  0  0  0  0
  -30.0713   64.2517   63.4371 C   0  0  0  0  0  0  0  0  0  0  0  0
  -30.0878   64.7279   61.9904 C   0  0  0  0  0  0  0  0  0  0  0  0
  -29.2148   65.9678   61.8434 C   0  0  0  0  0  0  0  0  0  0  0  0
  -29.6072   67.0356   62.8540 C   0  0  0  0  0  0  0  0  0  0  0  0
  -29.6063   66.4373   64.2585 C   0  0  0  0  0  0  0  0  0  0  0  0
  -30.1834   62.9095   61.2376 H   0  0  0  0  0  0  0  0  0  0  0  0
  -30.9064   67.9263   61.6673 H   0  0  0  0  0  0  0  0  0  0  0  0
  -30.8093   66.7286   66.3458 O   0  0  0  0  0  0  0  0  0  0  0  0
  -30.0939   67.4004   65.3154 C   0  0  0  0  0  0  0  0  0  0  0  0
  -31.1073   67.3736   67.0060 H   0  0  0  0  0  0  0  0  0  0  0  0
  -29.4866   66.4528   60.4905 O   0  0  0  0  0  0  0  0  0  0  0  0
  -31.3347   67.8831   59.9027 O   0  0  0  0  0  0  0  0  0  0  0  0
  -31.7391   65.5312   60.6906 O   0  0  0  0  0  0  0  0  0  0  0  0
  -30.8021   65.9942   58.5589 O   0  0  0  0  0  0  0  0  0  0  0  0
  -30.9945   66.5117   59.9939 S   0  0  0  0  0  0  0  0  0  0  0  0
  -31.4641   68.2441   60.7937 H   0  0  0  0  0  0  0  0  0  0  0  0
  -30.2932   66.6423   58.0470 H   0  0  0  0  0  0  0  0  0  0  0  0
  2  1  1  0  0  0
  2  4  1  0  0  0
  2  5  1  0  0  0
 47 48  1  0  0  0
 47  1  1  0  0  0
 48 52  1  0  0  0
  1 30  1  0  0  0
 29 30  1  0  0  0
 29 31  1  0  0  0
 30 32  1  0  0  0
  3  4  2  0  0  0
 32 33  2  0  0  0
 49 53  1  0  0  0
 49 57  1  0  0  0
 33 34  1  0  0  0
 62 54  1  0  0  0
 62 66  1  0  0  0
 34 35  1  0  0  0
 50 55  1  0  0  0
 50 58  1  0  0  0
 35 36  1  0  0  0
 51 52  1  0  0  0
 51 56  1  0  0  0
 36 37  1  0  0  0
 59 60  1  0  0  0
 59 61  1  0  0  0
 37 38  1  0  0  0
 63 66  1  0  0  0
 63 67  1  0  0  0
 38 39  1  0  0  0
 64 66  1  0  0  0
 39 40  1  0  0  0
 65 66  1  0  0  0
 65 68  1  0  0  0
 40 41  1  0  0  0
 41 42  1  0  0  0
 42 43  1  0  0  0
 43 44  1  0  0  0
 44 45  1  0  0  0
 45 46  1  0  0  0
  4  6  1  0  0  0
  6  7  1  0  0  0
  7  8  1  0  0  0
  8  9  1  0  0  0
  9 10  1  0  0  0
 10 11  1  0  0  0
 11 12  1  0  0  0
 12 13  1  0  0  0
 13 14  1  0  0  0
 14 15  1  0  0  0
 15 16  1  0  0  0
 16 17  1  0  0  0
 17 18  1  0  0  0
 18 19  1  0  0  0
 19 20  2  0  0  0
 20 21  1  0  0  0
 21 22  1  0  0  0
 22 23  1  0  0  0
 23 24  1  0  0  0
 24 25  1  0  0  0
 25 26  1  0  0  0
 26 27  1  0  0  0
 27 28  1  0  0  0
 52 53  1  0  0  0
 53 54  1  0  0  0
 54 55  1  0  0  0
 55 56  1  0  0  0
 56 60  1  0  0  0
M  CHG 1  64  -1
M  END
> <minimizedAffinity>
-9.37351

> <CNNscore>
0.2235417217

> <CNNaffinity>
6.8578147888

> <CNN_VS>
1.5330077410

> <CNNaffinity_variance>
1.4997559786

$$$$
/media/chris/experiments/cd1a-new-docking/inputs/ligands/7ryn_ligand.pdb


 68 68  0  0  0  0  0  0  0  0999 V2000
  -35.8615   62.2483   64.8841 C   0  0  0  0  0  0  0  0  0  0  0  0
  -37.1980   61.6775   64.7449 N   0  0  0  0  0  0  0  0  0  0  0  0
  -36.9316   60.9718   62.6239 O   0  0  0  0  0  0  0  0  0  0  0  0
  -37.6286   61.0848   63.6280 C   0  0  0  0  0  0  0  0  0  0  0  0
  -37.8122   61.7322   65.5123 H   0  0  0  0  0  0  0  0  0  0  0  0
  -39.0376   60.5484   63.6758 C   0  0  0  0  0  0  0  0  0  0  0  0
  -39.4403   60.0856   65.0702 C   0  0  0  0  0  0  0  0  0  0  0  0
  -39.7685   58.6022   65.1241 C   0  0  0  0  0  0  0  0  0  0  0  0
  -41.2437   58.3048   65.3346 C   0  0  0  0  0  0  0  0  0  0  0  0
  -41.6320   56.8669   65.0243 C   0  0  0  0  0  0  0  0  0  0  0  0
  -43.0585   56.7064   64.5143 C   0  0  0  0  0  0  0  0  0  0  0  0
  -44.0868   57.5175   65.2922 C   0  0  0  0  0  0  0  0  0  0  0  0
  -44.8999   58.4911   64.4429 C   0  0  0  0  0  0  0  0  0  0  0  0
  -46.3409   58.6756   64.9158 C   0  0  0  0  0  0  0  0  0  0  0  0
  -46.5078   58.7592   66.4328 C   0  0  0  0  0  0  0  0  0  0  0  0
  -47.9139   59.1719   66.8689 C   0  0  0  0  0  0  0  0  0  0  0  0
  -48.7888   59.7589   65.7614 C   0  0  0  0  0  0  0  0  0  0  0  0
  -50.1096   59.0219   65.5240 C   0  0  0  0  0  0  0  0  0  0  0  0
  -51.1115   59.8486   64.7708 C   0  0  0  0  0  0  0  0  0  0  0  0
  -51.4310   59.7136   63.4958 C   0  0  0  0  0  0  0  0  0  0  0  0
  -50.8592   58.7057   62.5455 C   0  0  0  0  0  0  0  0  0  0  0  0
  -49.7522   59.2649   61.6491 C   0  0  0  0  0  0  0  0  0  0  0  0
  -49.7110   58.6206   60.2699 C   0  0  0  0  0  0  0  0  0  0  0  0
  -50.0186   57.1275   60.2903 C   0  0  0  0  0  0  0  0  0  0  0  0
  -48.8368   56.2345   59.9302 C   0  0  0  0  0  0  0  0  0  0  0  0
  -47.7016   56.9716   59.2336 C   0  0  0  0  0  0  0  0  0  0  0  0
  -47.5423   56.6213   57.7626 C   0  0  0  0  0  0  0  0  0  0  0  0
  -47.2169   57.8253   56.9021 C   0  0  0  0  0  0  0  0  0  0  0  0
  -34.5977   62.3777   66.9385 O   0  0  0  0  0  0  0  0  0  0  0  0
  -35.0807   61.4632   65.9502 C   0  0  0  0  0  0  0  0  0  0  0  0
  -35.3440   62.8682   67.3174 H   0  0  0  0  0  0  0  0  0  0  0  0
  -33.9531   60.6868   65.3422 C   0  0  0  0  0  0  0  0  0  0  0  0
  -34.0691   59.8458   64.3335 C   0  0  0  0  0  0  0  0  0  0  0  0
  -32.9216   59.0969   63.7392 C   0  0  0  0  0  0  0  0  0  0  0  0
  -33.3229   58.4298   62.4220 C   0  0  0  0  0  0  0  0  0  0  0  0
  -34.4289   57.3960   62.5588 C   0  0  0  0  0  0  0  0  0  0  0  0
  -35.7877   57.8665   62.0687 C   0  0  0  0  0  0  0  0  0  0  0  0
  -36.9580   57.3281   62.8789 C   0  0  0  0  0  0  0  0  0  0  0  0
  -38.2661   57.2794   62.1043 C   0  0  0  0  0  0  0  0  0  0  0  0
  -38.3336   58.2692   60.9546 C   0  0  0  0  0  0  0  0  0  0  0  0
  -39.7018   58.3717   60.3068 C   0  0  0  0  0  0  0  0  0  0  0  0
  -40.7569   57.4913   60.9543 C   0  0  0  0  0  0  0  0  0  0  0  0
  -41.9760   58.2678   61.4162 C   0  0  0  0  0  0  0  0  0  0  0  0
  -41.7652   59.7668   61.5100 C   0  0  0  0  0  0  0  0  0  0  0  0
  -42.6157   60.4083   62.5885 C   0  0  0  0  0  0  0  0  0  0  0  0
  -42.3623   61.8960   62.7193 C   0  0  0  0  0  0  0  0  0  0  0  0
  -35.9585   63.7220   65.2204 C   0  0  0  0  0  0  0  0  0  0  0  0
  -34.6380   64.2135   65.4763 O   0  0  0  0  0  0  0  0  0  0  0  0
  -32.0090   63.5595   64.7683 O   0  0  0  0  0  0  0  0  0  0  0  0
  -34.1479   63.7441   61.0382 O   0  0  0  0  0  0  0  0  0  0  0  0
  -34.9948   65.1541   63.3987 O   0  0  0  0  0  0  0  0  0  0  0  0
  -34.0264   64.8208   64.3758 C   0  0  0  0  0  0  0  0  0  0  0  0
  -33.0117   63.8414   63.8002 C   0  0  0  0  0  0  0  0  0  0  0  0
  -32.3812   64.4280   62.5435 C   0  0  0  0  0  0  0  0  0  0  0  0
  -33.4476   64.8720   61.5531 C   0  0  0  0  0  0  0  0  0  0  0  0
  -34.4351   65.8064   62.2476 C   0  0  0  0  0  0  0  0  0  0  0  0
  -32.4223   63.1870   65.5629 H   0  0  0  0  0  0  0  0  0  0  0  0
  -33.5220   63.1490   60.5964 H   0  0  0  0  0  0  0  0  0  0  0  0
  -36.2331   67.3857   61.8456 O   0  0  0  0  0  0  0  0  0  0  0  0
  -35.5942   66.2083   61.3658 C   0  0  0  0  0  0  0  0  0  0  0  0
  -36.9703   67.6156   61.2587 H   0  0  0  0  0  0  0  0  0  0  0  0
  -31.6096   63.3264   61.9686 O   0  0  0  0  0  0  0  0  0  0  0  0
  -29.9864   64.5868   60.7103 O   0  0  0  0  0  0  0  0  0  0  0  0
  -29.4334   62.2918   61.5723 O   0  0  0  0  0  0  0  0  0  0  0  0
  -29.6436   64.1581   63.0246 O   0  0  0  0  0  0  0  0  0  0  0  0
  -30.0649   63.5535   61.6752 S   0  0  0  0  0  0  0  0  0  0  0  0
  -30.2465   64.2395   59.8427 H   0  0  0  0  0  0  0  0  0  0  0  0
  -30.0585   65.0283   63.1327 H   0  0  0  0  0  0  0  0  0  0  0  0
  2  1  1  0  0  0
  2  4  1  0  0  0
  2  5  1  0  0  0
 47 48  1  0  0  0
 47  1  1  0  0  0
 48 52  1  0  0  0
  1 30  1  0  0  0
 29 30  1  0  0  0
 29 31  1  0  0  0
 30 32  1  0  0  0
  3  4  2  0  0  0
 32 33  2  0  0  0
 49 53  1  0  0  0
 49 57  1  0  0  0
 33 34  1  0  0  0
 62 54  1  0  0  0
 62 66  1  0  0  0
 34 35  1  0  0  0
 50 55  1  0  0  0
 50 58  1  0  0  0
 35 36  1  0  0  0
 51 52  1  0  0  0
 51 56  1  0  0  0
 36 37  1  0  0  0
 59 60  1  0  0  0
 59 61  1  0  0  0
 37 38  1  0  0  0
 63 66  1  0  0  0
 63 67  1  0  0  0
 38 39  1  0  0  0
 64 66  1  0  0  0
 39 40  1  0  0  0
 65 66  1  0  0  0
 65 68  1  0  0  0
 40 41  1  0  0  0
 41 42  1  0  0  0
 42 43  1  0  0  0
 43 44  1  0  0  0
 44 45  1  0  0  0
 45 46  1  0  0  0
  4  6  1  0  0  0
  6  7  1  0  0  0
  7  8  1  0  0  0
  8  9  1  0  0  0
  9 10  1  0  0  0
 10 11  1  0  0  0
 11 12  1  0  0  0
 12 13  1  0  0  0
 13 14  1  0  0  0
 14 15  1  0  0  0
 15 16  1  0  0  0
 16 17  1  0  0  0
 17 18  1  0  0  0
 18 19  1  0  0  0
 19 20  2  0  0  0
 20 21  1  0  0  0
 21 22  1  0  0  0
 22 23  1  0  0  0
 23 24  1  0  0  0
 24 25  1  0  0  0
 25 26  1  0  0  0
 26 27  1  0  0  0
 27 28  1  0  0  0
 52 53  1  0  0  0
 53 54  1  0  0  0
 54 55  1  0  0  0
 55 56  1  0  0  0
 56 60  1  0  0  0
M  CHG 1  64  -1
M  END
> <minimizedAffinity>
-9.56217

> <CNNscore>
0.2006433457

> <CNNaffinity>
7.1803331375

> <CNN_VS>
1.4406861067

> <CNNaffinity_variance>
1.3090568781

$$$$
/media/chris/experiments/cd1a-new-docking/inputs/ligands/7ryn_ligand.pdb


 68 68  0  0  0  0  0  0  0  0999 V2000
  -35.7892   62.2212   64.6677 C   0  0  0  0  0  0  0  0  0  0  0  0
  -37.0762   61.5433   64.7928 N   0  0  0  0  0  0  0  0  0  0  0  0
  -37.3056   61.0706   62.6038 O   0  0  0  0  0  0  0  0  0  0  0  0
  -37.7333   61.0217   63.7534 C   0  0  0  0  0  0  0  0  0  0  0  0
  -37.4797   61.4669   65.6875 H   0  0  0  0  0  0  0  0  0  0  0  0
  -39.0455   60.3533   64.0802 C   0  0  0  0  0  0  0  0  0  0  0  0
  -39.0183   59.6372   65.4244 C   0  0  0  0  0  0  0  0  0  0  0  0
  -39.4898   58.1950   65.3304 C   0  0  0  0  0  0  0  0  0  0  0  0
  -40.9998   58.0442   65.2517 C   0  0  0  0  0  0  0  0  0  0  0  0
  -41.4721   57.1753   64.0956 C   0  0  0  0  0  0  0  0  0  0  0  0
  -42.7570   56.4084   64.3813 C   0  0  0  0  0  0  0  0  0  0  0  0
  -43.8165   57.2281   65.1066 C   0  0  0  0  0  0  0  0  0  0  0  0
  -44.4405   58.3408   64.2682 C   0  0  0  0  0  0  0  0  0  0  0  0
  -45.8743   58.6888   64.6645 C   0  0  0  0  0  0  0  0  0  0  0  0
  -46.3991   57.9334   65.8852 C   0  0  0  0  0  0  0  0  0  0  0  0
  -47.8960   57.6298   65.8164 C   0  0  0  0  0  0  0  0  0  0  0  0
  -48.8115   58.8304   66.0545 C   0  0  0  0  0  0  0  0  0  0  0  0
  -50.3069   58.5428   65.8964 C   0  0  0  0  0  0  0  0  0  0  0  0
  -51.1003   59.7640   65.5309 C   0  0  0  0  0  0  0  0  0  0  0  0
  -51.4448   60.1317   64.3095 C   0  0  0  0  0  0  0  0  0  0  0  0
  -51.1149   59.4018   63.0428 C   0  0  0  0  0  0  0  0  0  0  0  0
  -49.6563   59.5561   62.6066 C   0  0  0  0  0  0  0  0  0  0  0  0
  -49.1561   58.3960   61.7562 C   0  0  0  0  0  0  0  0  0  0  0  0
  -50.2332   57.7938   60.8609 C   0  0  0  0  0  0  0  0  0  0  0  0
  -49.9156   57.8426   59.3708 C   0  0  0  0  0  0  0  0  0  0  0  0
  -48.5971   57.1765   59.0031 C   0  0  0  0  0  0  0  0  0  0  0  0
  -47.8288   57.8848   57.8986 C   0  0  0  0  0  0  0  0  0  0  0  0
  -47.0098   56.9350   57.0481 C   0  0  0  0  0  0  0  0  0  0  0  0
  -34.1146   62.5198   66.3827 O   0  0  0  0  0  0  0  0  0  0  0  0
  -34.7591   61.5301   65.5755 C   0  0  0  0  0  0  0  0  0  0  0  0
  -34.7820   63.0077   66.8903 H   0  0  0  0  0  0  0  0  0  0  0  0
  -33.7569   60.7554   64.7758 C   0  0  0  0  0  0  0  0  0  0  0  0
  -33.8274   60.5390   63.4772 C   0  0  0  0  0  0  0  0  0  0  0  0
  -32.8030   59.7741   62.7050 C   0  0  0  0  0  0  0  0  0  0  0  0
  -33.3950   58.4844   62.1328 C   0  0  0  0  0  0  0  0  0  0  0  0
  -34.5793   57.9414   62.9159 C   0  0  0  0  0  0  0  0  0  0  0  0
  -35.8291   57.7164   62.0822 C   0  0  0  0  0  0  0  0  0  0  0  0
  -37.0851   57.4678   62.9046 C   0  0  0  0  0  0  0  0  0  0  0  0
  -38.2688   56.9843   62.0811 C   0  0  0  0  0  0  0  0  0  0  0  0
  -38.8697   58.0543   61.1865 C   0  0  0  0  0  0  0  0  0  0  0  0
  -40.2544   57.7181   60.6652 C   0  0  0  0  0  0  0  0  0  0  0  0
  -41.1143   58.9358   60.3727 C   0  0  0  0  0  0  0  0  0  0  0  0
  -40.9142   60.0581   61.3742 C   0  0  0  0  0  0  0  0  0  0  0  0
  -42.1627   60.4377   62.1471 C   0  0  0  0  0  0  0  0  0  0  0  0
  -42.7417   61.7663   61.7023 C   0  0  0  0  0  0  0  0  0  0  0  0
  -43.0509   62.6839   62.8673 C   0  0  0  0  0  0  0  0  0  0  0  0
  -35.9423   63.6915   64.9978 C   0  0  0  0  0  0  0  0  0  0  0  0
  -35.3201   64.4539   63.9574 O   0  0  0  0  0  0  0  0  0  0  0  0
  -33.8146   64.0554   61.6302 O   0  0  0  0  0  0  0  0  0  0  0  0
  -31.8171   67.2512   63.7086 O   0  0  0  0  0  0  0  0  0  0  0  0
  -33.4714   65.3113   65.0418 O   0  0  0  0  0  0  0  0  0  0  0  0
  -33.9230   64.4601   64.0050 C   0  0  0  0  0  0  0  0  0  0  0  0
  -33.4073   64.9497   62.6580 C   0  0  0  0  0  0  0  0  0  0  0  0
  -31.8880   65.0561   62.6929 C   0  0  0  0  0  0  0  0  0  0  0  0
  -31.4257   65.8925   63.8771 C   0  0  0  0  0  0  0  0  0  0  0  0
  -32.0404   65.3449   65.1627 C   0  0  0  0  0  0  0  0  0  0  0  0
  -34.7827   63.9961   61.6180 H   0  0  0  0  0  0  0  0  0  0  0  0
  -31.4275   67.6011   62.8921 H   0  0  0  0  0  0  0  0  0  0  0  0
  -30.3729   66.0163   66.7929 O   0  0  0  0  0  0  0  0  0  0  0  0
  -31.7236   66.1847   66.3780 C   0  0  0  0  0  0  0  0  0  0  0  0
  -30.2031   66.5675   67.5727 H   0  0  0  0  0  0  0  0  0  0  0  0
  -31.5367   65.7376   61.4473 O   0  0  0  0  0  0  0  0  0  0  0  0
  -31.0555   63.6697   60.3076 O   0  0  0  0  0  0  0  0  0  0  0  0
  -29.2392   65.3590   60.7114 O   0  0  0  0  0  0  0  0  0  0  0  0
  -30.9725   65.7366   59.1335 O   0  0  0  0  0  0  0  0  0  0  0  0
  -30.5757   64.9970   60.4218 S   0  0  0  0  0  0  0  0  0  0  0  0
  -30.8219   63.1716   61.1065 H   0  0  0  0  0  0  0  0  0  0  0  0
  -31.8873   65.5130   58.9010 H   0  0  0  0  0  0  0  0  0  0  0  0
  2  1  1  0  0  0
  2  4  1  0  0  0
  2  5  1  0  0  0
 47 48  1  0  0  0
 47  1  1  0  0  0
 48 52  1  0  0  0
  1 30  1  0  0  0
 29 30  1  0  0  0
 29 31  1  0  0  0
 30 32  1  0  0  0
  3  4  2  0  0  0
 32 33  2  0  0  0
 49 53  1  0  0  0
 49 57  1  0  0  0
 33 34  1  0  0  0
 62 54  1  0  0  0
 62 66  1  0  0  0
 34 35  1  0  0  0
 50 55  1  0  0  0
 50 58  1  0  0  0
 35 36  1  0  0  0
 51 52  1  0  0  0
 51 56  1  0  0  0
 36 37  1  0  0  0
 59 60  1  0  0  0
 59 61  1  0  0  0
 37 38  1  0  0  0
 63 66  1  0  0  0
 63 67  1  0  0  0
 38 39  1  0  0  0
 64 66  1  0  0  0
 39 40  1  0  0  0
 65 66  1  0  0  0
 65 68  1  0  0  0
 40 41  1  0  0  0
 41 42  1  0  0  0
 42 43  1  0  0  0
 43 44  1  0  0  0
 44 45  1  0  0  0
 45 46  1  0  0  0
  4  6  1  0  0  0
  6  7  1  0  0  0
  7  8  1  0  0  0
  8  9  1  0  0  0
  9 10  1  0  0  0
 10 11  1  0  0  0
 11 12  1  0  0  0
 12 13  1  0  0  0
 13 14  1  0  0  0
 14 15  1  0  0  0
 15 16  1  0  0  0
 16 17  1  0  0  0
 17 18  1  0  0  0
 18 19  1  0  0  0
 19 20  2  0  0  0
 20 21  1  0  0  0
 21 22  1  0  0  0
 22 23  1  0  0  0
 23 24  1  0  0  0
 24 25  1  0  0  0
 25 26  1  0  0  0
 26 27  1  0  0  0
 27 28  1  0  0  0
 52 53  1  0  0  0
 53 54  1  0  0  0
 54 55  1  0  0  0
 55 56  1  0  0  0
 56 60  1  0  0  0
M  CHG 1  64  -1
M  END
> <minimizedAffinity>
-9.63690

> <CNNscore>
0.1679888368

> <CNNaffinity>
7.1426649094

> <CNN_VS>
1.1998879910

> <CNNaffinity_variance>
0.8816055059

$$$$
/media/chris/experiments/cd1a-new-docking/inputs/ligands/7ryn_ligand.pdb


 68 68  0  0  0  0  0  0  0  0999 V2000
  -33.0074   62.1660   62.3876 C   0  0  0  0  0  0  0  0  0  0  0  0
  -33.9126   62.5037   63.4821 N   0  0  0  0  0  0  0  0  0  0  0  0
  -35.4453   60.9226   63.0148 O   0  0  0  0  0  0  0  0  0  0  0  0
  -35.0590   61.8573   63.7104 C   0  0  0  0  0  0  0  0  0  0  0  0
  -33.6658   63.2446   64.0816 H   0  0  0  0  0  0  0  0  0  0  0  0
  -35.8580   62.3444   64.8935 C   0  0  0  0  0  0  0  0  0  0  0  0
  -36.4727   61.2033   65.6939 C   0  0  0  0  0  0  0  0  0  0  0  0
  -37.8854   60.8661   65.2448 C   0  0  0  0  0  0  0  0  0  0  0  0
  -38.7037   60.1254   66.2893 C   0  0  0  0  0  0  0  0  0  0  0  0
  -40.0070   59.5501   65.7555 C   0  0  0  0  0  0  0  0  0  0  0  0
  -41.2374   60.3802   66.0988 C   0  0  0  0  0  0  0  0  0  0  0  0
  -42.3447   59.5884   66.7824 C   0  0  0  0  0  0  0  0  0  0  0  0
  -42.5660   58.1887   66.2145 C   0  0  0  0  0  0  0  0  0  0  0  0
  -44.0302   57.8565   65.9317 C   0  0  0  0  0  0  0  0  0  0  0  0
  -44.6228   58.5715   64.7176 C   0  0  0  0  0  0  0  0  0  0  0  0
  -46.1493   58.5092   64.6593 C   0  0  0  0  0  0  0  0  0  0  0  0
  -46.8637   58.9293   65.9437 C   0  0  0  0  0  0  0  0  0  0  0  0
  -48.2587   59.5264   65.7401 C   0  0  0  0  0  0  0  0  0  0  0  0
  -48.3182   60.4912   64.5912 C   0  0  0  0  0  0  0  0  0  0  0  0
  -49.1542   60.4346   63.5696 C   0  0  0  0  0  0  0  0  0  0  0  0
  -50.2137   59.3969   63.3538 C   0  0  0  0  0  0  0  0  0  0  0  0
  -49.7515   58.2152   62.4984 C   0  0  0  0  0  0  0  0  0  0  0  0
  -50.6777   57.9219   61.3257 C   0  0  0  0  0  0  0  0  0  0  0  0
  -49.9366   57.6770   60.0161 C   0  0  0  0  0  0  0  0  0  0  0  0
  -48.9305   56.5329   60.0644 C   0  0  0  0  0  0  0  0  0  0  0  0
  -48.0643   56.4254   58.8172 C   0  0  0  0  0  0  0  0  0  0  0  0
  -48.1371   57.6379   57.9026 C   0  0  0  0  0  0  0  0  0  0  0  0
  -46.8305   57.9158   57.1874 C   0  0  0  0  0  0  0  0  0  0  0  0
  -30.6844   61.5058   62.4366 O   0  0  0  0  0  0  0  0  0  0  0  0
  -31.9912   61.1191   62.8714 C   0  0  0  0  0  0  0  0  0  0  0  0
  -30.4826   62.3943   62.7697 H   0  0  0  0  0  0  0  0  0  0  0  0
  -32.3377   59.7491   62.3744 C   0  0  0  0  0  0  0  0  0  0  0  0
  -32.7492   58.7502   63.1301 C   0  0  0  0  0  0  0  0  0  0  0  0
  -33.1016   57.3984   62.6018 C   0  0  0  0  0  0  0  0  0  0  0  0
  -34.6099   57.1532   62.6797 C   0  0  0  0  0  0  0  0  0  0  0  0
  -35.2420   57.5719   63.9972 C   0  0  0  0  0  0  0  0  0  0  0  0
  -36.7580   57.6621   63.9618 C   0  0  0  0  0  0  0  0  0  0  0  0
  -37.3610   57.4095   62.5876 C   0  0  0  0  0  0  0  0  0  0  0  0
  -37.7439   58.6806   61.8455 C   0  0  0  0  0  0  0  0  0  0  0  0
  -38.4148   58.4290   60.5066 C   0  0  0  0  0  0  0  0  0  0  0  0
  -39.3145   59.5597   60.0438 C   0  0  0  0  0  0  0  0  0  0  0  0
  -40.0724   60.2431   61.1691 C   0  0  0  0  0  0  0  0  0  0  0  0
  -41.4954   59.7380   61.3187 C   0  0  0  0  0  0  0  0  0  0  0  0
  -41.7424   58.9244   62.5746 C   0  0  0  0  0  0  0  0  0  0  0  0
  -42.0204   57.4640   62.2774 C   0  0  0  0  0  0  0  0  0  0  0  0
  -41.0406   56.5351   62.9642 C   0  0  0  0  0  0  0  0  0  0  0  0
  -32.3308   63.4177   61.8681 C   0  0  0  0  0  0  0  0  0  0  0  0
  -33.3426   64.3869   61.5720 O   0  0  0  0  0  0  0  0  0  0  0  0
  -34.0118   65.5624   64.0239 O   0  0  0  0  0  0  0  0  0  0  0  0
  -29.9580   66.7974   63.2727 O   0  0  0  0  0  0  0  0  0  0  0  0
  -31.7750   66.0346   61.1765 O   0  0  0  0  0  0  0  0  0  0  0  0
  -32.9752   65.7064   61.8514 C   0  0  0  0  0  0  0  0  0  0  0  0
  -32.7856   65.8345   63.3573 C   0  0  0  0  0  0  0  0  0  0  0  0
  -32.2988   67.2367   63.7004 C   0  0  0  0  0  0  0  0  0  0  0  0
  -31.0669   67.6024   62.8854 C   0  0  0  0  0  0  0  0  0  0  0  0
  -31.3525   67.3892   61.4009 C   0  0  0  0  0  0  0  0  0  0  0  0
  -34.3112   64.6678   63.7977 H   0  0  0  0  0  0  0  0  0  0  0  0
  -29.7750   66.9314   64.2158 H   0  0  0  0  0  0  0  0  0  0  0  0
  -29.2666   66.5022   60.5343 O   0  0  0  0  0  0  0  0  0  0  0  0
  -30.1447   67.6218   60.5236 C   0  0  0  0  0  0  0  0  0  0  0  0
  -28.5042   66.6838   59.9630 H   0  0  0  0  0  0  0  0  0  0  0  0
  -31.9435   67.1679   65.1176 O   0  0  0  0  0  0  0  0  0  0  0  0
  -31.1360   64.9181   64.8130 O   0  0  0  0  0  0  0  0  0  0  0  0
  -32.9389   65.4124   66.4925 O   0  0  0  0  0  0  0  0  0  0  0  0
  -30.6898   66.0920   66.8330 O   0  0  0  0  0  0  0  0  0  0  0  0
  -31.7580   65.7384   65.7852 S   0  0  0  0  0  0  0  0  0  0  0  0
  -31.7836   64.6746   64.1331 H   0  0  0  0  0  0  0  0  0  0  0  0
  -29.8610   66.3225   66.3846 H   0  0  0  0  0  0  0  0  0  0  0  0
  2  1  1  0  0  0
  2  4  1  0  0  0
  2  5  1  0  0  0
 47 48  1  0  0  0
 47  1  1  0  0  0
 48 52  1  0  0  0
  1 30  1  0  0  0
 29 30  1  0  0  0
 29 31  1  0  0  0
 30 32  1  0  0  0
  3  4  2  0  0  0
 32 33  2  0  0  0
 49 53  1  0  0  0
 49 57  1  0  0  0
 33 34  1  0  0  0
 62 54  1  0  0  0
 62 66  1  0  0  0
 34 35  1  0  0  0
 50 55  1  0  0  0
 50 58  1  0  0  0
 35 36  1  0  0  0
 51 52  1  0  0  0
 51 56  1  0  0  0
 36 37  1  0  0  0
 59 60  1  0  0  0
 59 61  1  0  0  0
 37 38  1  0  0  0
 63 66  1  0  0  0
 63 67  1  0  0  0
 38 39  1  0  0  0
 64 66  1  0  0  0
 39 40  1  0  0  0
 65 66  1  0  0  0
 65 68  1  0  0  0
 40 41  1  0  0  0
 41 42  1  0  0  0
 42 43  1  0  0  0
 43 44  1  0  0  0
 44 45  1  0  0  0
 45 46  1  0  0  0
  4  6  1  0  0  0
  6  7  1  0  0  0
  7  8  1  0  0  0
  8  9  1  0  0  0
  9 10  1  0  0  0
 10 11  1  0  0  0
 11 12  1  0  0  0
 12 13  1  0  0  0
 13 14  1  0  0  0
 14 15  1  0  0  0
 15 16  1  0  0  0
 16 17  1  0  0  0
 17 18  1  0  0  0
 18 19  1  0  0  0
 19 20  2  0  0  0
 20 21  1  0  0  0
 21 22  1  0  0  0
 22 23  1  0  0  0
 23 24  1  0  0  0
 24 25  1  0  0  0
 25 26  1  0  0  0
 26 27  1  0  0  0
 27 28  1  0  0  0
 52 53  1  0  0  0
 53 54  1  0  0  0
 54 55  1  0  0  0
 55 56  1  0  0  0
 56 60  1  0  0  0
M  CHG 1  64  -1
M  END
> <minimizedAffinity>
-8.99931

> <CNNscore>
0.1578197479

> <CNNaffinity>
6.9385633469

> <CNN_VS>
1.0950423479

> <CNNaffinity_variance>
1.4964540005

$$$$
/media/chris/experiments/cd1a-new-docking/inputs/ligands/7ryn_ligand.pdb


 68 68  0  0  0  0  0  0  0  0999 V2000
  -38.0563   58.4753   63.8787 C   0  0  0  0  0  0  0  0  0  0  0  0
  -39.3858   57.9063   63.6784 N   0  0  0  0  0  0  0  0  0  0  0  0
  -39.2963   57.8880   61.4291 O   0  0  0  0  0  0  0  0  0  0  0  0
  -39.9017   57.6573   62.4717 C   0  0  0  0  0  0  0  0  0  0  0  0
  -39.9289   57.6957   64.4720 H   0  0  0  0  0  0  0  0  0  0  0  0
  -41.2872   57.0609   62.4651 C   0  0  0  0  0  0  0  0  0  0  0  0
  -42.3287   58.0073   61.8818 C   0  0  0  0  0  0  0  0  0  0  0  0
  -42.0266   59.4672   62.1794 C   0  0  0  0  0  0  0  0  0  0  0  0
  -42.6644   59.9799   63.4598 C   0  0  0  0  0  0  0  0  0  0  0  0
  -41.6601   60.3763   64.5316 C   0  0  0  0  0  0  0  0  0  0  0  0
  -41.9846   59.8317   65.9169 C   0  0  0  0  0  0  0  0  0  0  0  0
  -41.7338   58.3367   66.0664 C   0  0  0  0  0  0  0  0  0  0  0  0
  -42.9684   57.5217   66.4432 C   0  0  0  0  0  0  0  0  0  0  0  0
  -43.9054   57.2341   65.2713 C   0  0  0  0  0  0  0  0  0  0  0  0
  -45.2341   57.9883   65.3179 C   0  0  0  0  0  0  0  0  0  0  0  0
  -45.7311   58.2590   66.7382 C   0  0  0  0  0  0  0  0  0  0  0  0
  -47.0944   58.9445   66.8271 C   0  0  0  0  0  0  0  0  0  0  0  0
  -48.0413   58.6511   65.6604 C   0  0  0  0  0  0  0  0  0  0  0  0
  -48.5606   59.8973   65.0032 C   0  0  0  0  0  0  0  0  0  0  0  0
  -49.6383   59.9856   64.2438 C   0  0  0  0  0  0  0  0  0  0  0  0
  -50.5610   58.8595   63.8881 C   0  0  0  0  0  0  0  0  0  0  0  0
  -50.7853   58.7008   62.3827 C   0  0  0  0  0  0  0  0  0  0  0  0
  -50.0067   59.7091   61.5482 C   0  0  0  0  0  0  0  0  0  0  0  0
  -49.4119   59.1120   60.2778 C   0  0  0  0  0  0  0  0  0  0  0  0
  -49.1795   57.6066   60.3365 C   0  0  0  0  0  0  0  0  0  0  0  0
  -48.0343   57.1285   59.4549 C   0  0  0  0  0  0  0  0  0  0  0  0
  -47.8784   57.9091   58.1595 C   0  0  0  0  0  0  0  0  0  0  0  0
  -47.2300   57.0971   57.0566 C   0  0  0  0  0  0  0  0  0  0  0  0
  -36.4901   56.9690   64.9337 O   0  0  0  0  0  0  0  0  0  0  0  0
  -36.9967   57.3831   63.6615 C   0  0  0  0  0  0  0  0  0  0  0  0
  -37.2237   56.6630   65.4898 H   0  0  0  0  0  0  0  0  0  0  0  0
  -35.8893   57.8632   62.7743 C   0  0  0  0  0  0  0  0  0  0  0  0
  -34.6283   57.4892   62.8660 C   0  0  0  0  0  0  0  0  0  0  0  0
  -33.5487   57.9752   61.9555 C   0  0  0  0  0  0  0  0  0  0  0  0
  -32.2251   58.1330   62.7067 C   0  0  0  0  0  0  0  0  0  0  0  0
  -31.8599   59.5727   63.0300 C   0  0  0  0  0  0  0  0  0  0  0  0
  -31.9689   60.5246   61.8510 C   0  0  0  0  0  0  0  0  0  0  0  0
  -30.6298   60.9000   61.2331 C   0  0  0  0  0  0  0  0  0  0  0  0
  -29.4616   60.8044   62.2023 C   0  0  0  0  0  0  0  0  0  0  0  0
  -29.1879   62.0919   62.9596 C   0  0  0  0  0  0  0  0  0  0  0  0
  -29.5521   63.3494   62.1927 C   0  0  0  0  0  0  0  0  0  0  0  0
  -30.6186   64.1947   62.8677 C   0  0  0  0  0  0  0  0  0  0  0  0
  -31.0837   63.6174   64.1917 C   0  0  0  0  0  0  0  0  0  0  0  0
  -31.2606   64.6431   65.2947 C   0  0  0  0  0  0  0  0  0  0  0  0
  -32.3518   65.6490   64.9853 C   0  0  0  0  0  0  0  0  0  0  0  0
  -31.8039   67.0349   64.7142 C   0  0  0  0  0  0  0  0  0  0  0  0
  -37.9592   59.0960   65.2570 C   0  0  0  0  0  0  0  0  0  0  0  0
  -38.0897   60.5156   65.1219 O   0  0  0  0  0  0  0  0  0  0  0  0
  -37.1076   61.2910   62.6168 O   0  0  0  0  0  0  0  0  0  0  0  0
  -36.3843   64.6684   65.1844 O   0  0  0  0  0  0  0  0  0  0  0  0
  -36.6472   61.9795   66.1732 O   0  0  0  0  0  0  0  0  0  0  0  0
  -36.8742   61.1979   65.0151 C   0  0  0  0  0  0  0  0  0  0  0  0
  -36.9404   62.0892   63.7817 C   0  0  0  0  0  0  0  0  0  0  0  0
  -35.6675   62.9193   63.6739 C   0  0  0  0  0  0  0  0  0  0  0  0
  -35.3928   63.6694   64.9690 C   0  0  0  0  0  0  0  0  0  0  0  0
  -35.3991   62.6900   66.1400 C   0  0  0  0  0  0  0  0  0  0  0  0
  -37.9204   60.7677   62.6973 H   0  0  0  0  0  0  0  0  0  0  0  0
  -36.3820   65.2919   64.4412 H   0  0  0  0  0  0  0  0  0  0  0  0
  -36.4980   63.8062   67.9934 O   0  0  0  0  0  0  0  0  0  0  0  0
  -35.2450   63.3666   67.4820 C   0  0  0  0  0  0  0  0  0  0  0  0
  -36.3640   64.2347   68.8531 H   0  0  0  0  0  0  0  0  0  0  0  0
  -35.9411   63.8777   62.6034 O   0  0  0  0  0  0  0  0  0  0  0  0
  -33.7574   63.3304   61.7439 O   0  0  0  0  0  0  0  0  0  0  0  0
  -34.4980   65.7254   61.9201 O   0  0  0  0  0  0  0  0  0  0  0  0
  -35.4192   64.2449   60.3089 O   0  0  0  0  0  0  0  0  0  0  0  0
  -34.7365   64.3514   61.6824 S   0  0  0  0  0  0  0  0  0  0  0  0
  -33.3045   63.3678   62.6009 H   0  0  0  0  0  0  0  0  0  0  0  0
  -35.5999   63.3130   60.1090 H   0  0  0  0  0  0  0  0  0  0  0  0
  2  1  1  0  0  0
  2  4  1  0  0  0
  2  5  1  0  0  0
 47 48  1  0  0  0
 47  1  1  0  0  0
 48 52  1  0  0  0
  1 30  1  0  0  0
 29 30  1  0  0  0
 29 31  1  0  0  0
 30 32  1  0  0  0
  3  4  2  0  0  0
 32 33  2  0  0  0
 49 53  1  0  0  0
 49 57  1  0  0  0
 33 34  1  0  0  0
 62 54  1  0  0  0
 62 66  1  0  0  0
 34 35  1  0  0  0
 50 55  1  0  0  0
 50 58  1  0  0  0
 35 36  1  0  0  0
 51 52  1  0  0  0
 51 56  1  0  0  0
 36 37  1  0  0  0
 59 60  1  0  0  0
 59 61  1  0  0  0
 37 38  1  0  0  0
 63 66  1  0  0  0
 63 67  1  0  0  0
 38 39  1  0  0  0
 64 66  1  0  0  0
 39 40  1  0  0  0
 65 66  1  0  0  0
 65 68  1  0  0  0
 40 41  1  0  0  0
 41 42  1  0  0  0
 42 43  1  0  0  0
 43 44  1  0  0  0
 44 45  1  0  0  0
 45 46  1  0  0  0
  4  6  1  0  0  0
  6  7  1  0  0  0
  7  8  1  0  0  0
  8  9  1  0  0  0
  9 10  1  0  0  0
 10 11  1  0  0  0
 11 12  1  0  0  0
 12 13  1  0  0  0
 13 14  1  0  0  0
 14 15  1  0  0  0
 15 16  1  0  0  0
 16 17  1  0  0  0
 17 18  1  0  0  0
 18 19  1  0  0  0
 19 20  2  0  0  0
 20 21  1  0  0  0
 21 22  1  0  0  0
 22 23  1  0  0  0
 23 24  1  0  0  0
 24 25  1  0  0  0
 25 26  1  0  0  0
 26 27  1  0  0  0
 27 28  1  0  0  0
 52 53  1  0  0  0
 53 54  1  0  0  0
 54 55  1  0  0  0
 55 56  1  0  0  0
 56 60  1  0  0  0
M  CHG 1  64  -1
M  END
> <minimizedAffinity>
-9.25603

> <CNNscore>
0.1190153509

> <CNNaffinity>
6.9004287720

> <CNN_VS>
0.8212569356

> <CNNaffinity_variance>
1.9652655125

$$$$
/media/chris/experiments/cd1a-new-docking/inputs/ligands/7ryn_ligand.pdb


 68 68  0  0  0  0  0  0  0  0999 V2000
  -34.6231   58.5609   63.3066 C   0  0  0  0  0  0  0  0  0  0  0  0
  -35.8064   57.7262   63.1212 N   0  0  0  0  0  0  0  0  0  0  0  0
  -36.7307   58.9868   61.5013 O   0  0  0  0  0  0  0  0  0  0  0  0
  -36.7666   58.0032   62.2349 C   0  0  0  0  0  0  0  0  0  0  0  0
  -35.9015   56.9193   63.6771 H   0  0  0  0  0  0  0  0  0  0  0  0
  -37.9089   57.0196   62.1819 C   0  0  0  0  0  0  0  0  0  0  0  0
  -39.0267   57.3683   63.1563 C   0  0  0  0  0  0  0  0  0  0  0  0
  -39.9118   58.4976   62.6540 C   0  0  0  0  0  0  0  0  0  0  0  0
  -40.7286   58.1396   61.4236 C   0  0  0  0  0  0  0  0  0  0  0  0
  -41.9610   59.0100   61.2285 C   0  0  0  0  0  0  0  0  0  0  0  0
  -42.0308   60.2056   62.1699 C   0  0  0  0  0  0  0  0  0  0  0  0
  -43.1599   60.1234   63.1890 C   0  0  0  0  0  0  0  0  0  0  0  0
  -43.5238   58.7043   63.6184 C   0  0  0  0  0  0  0  0  0  0  0  0
  -42.8535   58.2559   64.9160 C   0  0  0  0  0  0  0  0  0  0  0  0
  -43.7851   57.5568   65.9059 C   0  0  0  0  0  0  0  0  0  0  0  0
  -44.7992   58.4980   66.5564 C   0  0  0  0  0  0  0  0  0  0  0  0
  -46.2072   57.9239   66.7132 C   0  0  0  0  0  0  0  0  0  0  0  0
  -47.0546   57.9368   65.4382 C   0  0  0  0  0  0  0  0  0  0  0  0
  -47.0508   59.2706   64.7488 C   0  0  0  0  0  0  0  0  0  0  0  0
  -48.1096   59.9088   64.2824 C   0  0  0  0  0  0  0  0  0  0  0  0
  -49.5283   59.4306   64.3506 C   0  0  0  0  0  0  0  0  0  0  0  0
  -50.3316   59.7061   63.0776 C   0  0  0  0  0  0  0  0  0  0  0  0
  -50.9197   58.4482   62.4526 C   0  0  0  0  0  0  0  0  0  0  0  0
  -49.8933   57.6112   61.6974 C   0  0  0  0  0  0  0  0  0  0  0  0
  -50.0851   57.5903   60.1853 C   0  0  0  0  0  0  0  0  0  0  0  0
  -48.8404   57.1716   59.4154 C   0  0  0  0  0  0  0  0  0  0  0  0
  -48.1441   58.3124   58.6904 C   0  0  0  0  0  0  0  0  0  0  0  0
  -47.3087   57.8421   57.5170 C   0  0  0  0  0  0  0  0  0  0  0  0
  -33.4556   56.7028   62.2972 O   0  0  0  0  0  0  0  0  0  0  0  0
  -33.5351   58.1310   62.3095 C   0  0  0  0  0  0  0  0  0  0  0  0
  -34.3241   56.3325   62.0746 H   0  0  0  0  0  0  0  0  0  0  0  0
  -32.2089   58.7386   62.6504 C   0  0  0  0  0  0  0  0  0  0  0  0
  -31.7023   59.8176   62.0873 C   0  0  0  0  0  0  0  0  0  0  0  0
  -30.3820   60.4081   62.4602 C   0  0  0  0  0  0  0  0  0  0  0  0
  -30.2336   61.8233   61.8977 C   0  0  0  0  0  0  0  0  0  0  0  0
  -29.2506   62.6968   62.6601 C   0  0  0  0  0  0  0  0  0  0  0  0
  -29.8271   64.0209   63.1316 C   0  0  0  0  0  0  0  0  0  0  0  0
  -30.7014   64.7178   62.0993 C   0  0  0  0  0  0  0  0  0  0  0  0
  -29.9125   65.4628   61.0336 C   0  0  0  0  0  0  0  0  0  0  0  0
  -30.4719   66.8361   60.7062 C   0  0  0  0  0  0  0  0  0  0  0  0
  -31.1064   66.9334   59.3313 C   0  0  0  0  0  0  0  0  0  0  0  0
  -30.3149   66.2369   58.2376 C   0  0  0  0  0  0  0  0  0  0  0  0
  -30.7941   66.5897   56.8418 C   0  0  0  0  0  0  0  0  0  0  0  0
  -31.5272   67.9141   56.7473 C   0  0  0  0  0  0  0  0  0  0  0  0
  -31.8993   68.2736   55.3223 C   0  0  0  0  0  0  0  0  0  0  0  0
  -32.4815   67.1006   54.5609 C   0  0  0  0  0  0  0  0  0  0  0  0
  -34.1458   58.4741   64.7416 C   0  0  0  0  0  0  0  0  0  0  0  0
  -33.6100   59.7482   65.1159 O   0  0  0  0  0  0  0  0  0  0  0  0
  -32.9738   62.2799   64.1026 O   0  0  0  0  0  0  0  0  0  0  0  0
  -36.9691   61.4993   62.7058 O   0  0  0  0  0  0  0  0  0  0  0  0
  -35.8610   60.2559   65.0518 O   0  0  0  0  0  0  0  0  0  0  0  0
  -34.5503   60.7822   65.1449 C   0  0  0  0  0  0  0  0  0  0  0  0
  -34.2691   61.7086   63.9690 C   0  0  0  0  0  0  0  0  0  0  0  0
  -35.3253   62.8049   63.9093 C   0  0  0  0  0  0  0  0  0  0  0  0
  -36.7275   62.2138   63.9136 C   0  0  0  0  0  0  0  0  0  0  0  0
  -36.8808   61.2664   65.1009 C   0  0  0  0  0  0  0  0  0  0  0  0
  -32.3107   61.5729   64.1394 H   0  0  0  0  0  0  0  0  0  0  0  0
  -36.8720   62.0996   61.9501 H   0  0  0  0  0  0  0  0  0  0  0  0
  -38.9682   60.8796   66.2764 O   0  0  0  0  0  0  0  0  0  0  0  0
  -38.2092   60.5469   65.1197 C   0  0  0  0  0  0  0  0  0  0  0  0
  -39.8124   60.4024   66.2575 H   0  0  0  0  0  0  0  0  0  0  0  0
  -35.0846   63.4808   62.6348 O   0  0  0  0  0  0  0  0  0  0  0  0
  -35.8963   65.7185   63.0097 O   0  0  0  0  0  0  0  0  0  0  0  0
  -33.9104   65.3116   61.5245 O   0  0  0  0  0  0  0  0  0  0  0  0
  -33.7884   65.0432   63.8802 O   0  0  0  0  0  0  0  0  0  0  0  0
  -34.7142   65.0256   62.6528 S   0  0  0  0  0  0  0  0  0  0  0  0
  -36.5063   65.7272   62.2554 H   0  0  0  0  0  0  0  0  0  0  0  0
  -34.3055   64.8503   64.6780 H   0  0  0  0  0  0  0  0  0  0  0  0
  2  1  1  0  0  0
  2  4  1  0  0  0
  2  5  1  0  0  0
 47 48  1  0  0  0
 47  1  1  0  0  0
 48 52  1  0  0  0
  1 30  1  0  0  0
 29 30  1  0  0  0
 29 31  1  0  0  0
 30 32  1  0  0  0
  3  4  2  0  0  0
 32 33  2  0  0  0
 49 53  1  0  0  0
 49 57  1  0  0  0
 33 34  1  0  0  0
 62 54  1  0  0  0
 62 66  1  0  0  0
 34 35  1  0  0  0
 50 55  1  0  0  0
 50 58  1  0  0  0
 35 36  1  0  0  0
 51 52  1  0  0  0
 51 56  1  0  0  0
 36 37  1  0  0  0
 59 60  1  0  0  0
 59 61  1  0  0  0
 37 38  1  0  0  0
 63 66  1  0  0  0
 63 67  1  0  0  0
 38 39  1  0  0  0
 64 66  1  0  0  0
 39 40  1  0  0  0
 65 66  1  0  0  0
 65 68  1  0  0  0
 40 41  1  0  0  0
 41 42  1  0  0  0
 42 43  1  0  0  0
 43 44  1  0  0  0
 44 45  1  0  0  0
 45 46  1  0  0  0
  4  6  1  0  0  0
  6  7  1  0  0  0
  7  8  1  0  0  0
  8  9  1  0  0  0
  9 10  1  0  0  0
 10 11  1  0  0  0
 11 12  1  0  0  0
 12 13  1  0  0  0
 13 14  1  0  0  0
 14 15  1  0  0  0
 15 16  1  0  0  0
 16 17  1  0  0  0
 17 18  1  0  0  0
 18 19  1  0  0  0
 19 20  2  0  0  0
 20 21  1  0  0  0
 21 22  1  0  0  0
 22 23  1  0  0  0
 23 24  1  0  0  0
 24 25  1  0  0  0
 25 26  1  0  0  0
 26 27  1  0  0  0
 27 28  1  0  0  0
 52 53  1  0  0  0
 53 54  1  0  0  0
 54 55  1  0  0  0
 55 56  1  0  0  0
 56 60  1  0  0  0
M  CHG 1  64  -1
M  END
> <minimizedAffinity>
-8.33308

> <CNNscore>
0.1140222624

> <CNNaffinity>
6.6958785057

> <CNN_VS>
0.7634792328

> <CNNaffinity_variance>
0.7632120848

$$$$
/media/chris/experiments/cd1a-new-docking/inputs/ligands/7ryn_ligand.pdb


 68 68  0  0  0  0  0  0  0  0999 V2000
  -34.7365   58.8384   62.8426 C   0  0  0  0  0  0  0  0  0  0  0  0
  -35.8559   58.2549   62.1092 N   0  0  0  0  0  0  0  0  0  0  0  0
  -37.2136   60.0410   62.2942 O   0  0  0  0  0  0  0  0  0  0  0  0
  -37.0053   58.8999   61.8923 C   0  0  0  0  0  0  0  0  0  0  0  0
  -35.7588   57.3407   61.7571 H   0  0  0  0  0  0  0  0  0  0  0  0
  -38.0434   58.1372   61.1075 C   0  0  0  0  0  0  0  0  0  0  0  0
  -38.7693   57.0985   61.9530 C   0  0  0  0  0  0  0  0  0  0  0  0
  -40.0969   57.6055   62.4929 C   0  0  0  0  0  0  0  0  0  0  0  0
  -40.9124   56.5470   63.2165 C   0  0  0  0  0  0  0  0  0  0  0  0
  -42.3441   56.9684   63.5118 C   0  0  0  0  0  0  0  0  0  0  0  0
  -42.5812   58.4700   63.4124 C   0  0  0  0  0  0  0  0  0  0  0  0
  -43.9606   58.9094   63.8862 C   0  0  0  0  0  0  0  0  0  0  0  0
  -44.6294   57.9493   64.8667 C   0  0  0  0  0  0  0  0  0  0  0  0
  -44.4803   58.3532   66.3325 C   0  0  0  0  0  0  0  0  0  0  0  0
  -45.7901   58.7239   67.0277 C   0  0  0  0  0  0  0  0  0  0  0  0
  -47.0328   58.3989   66.1985 C   0  0  0  0  0  0  0  0  0  0  0  0
  -48.2849   59.1929   66.5705 C   0  0  0  0  0  0  0  0  0  0  0  0
  -49.3908   59.1866   65.5119 C   0  0  0  0  0  0  0  0  0  0  0  0
  -49.0022   59.9157   64.2582 C   0  0  0  0  0  0  0  0  0  0  0  0
  -49.6827   59.9342   63.1257 C   0  0  0  0  0  0  0  0  0  0  0  0
  -50.9815   59.2330   62.8659 C   0  0  0  0  0  0  0  0  0  0  0  0
  -50.9212   58.2379   61.7050 C   0  0  0  0  0  0  0  0  0  0  0  0
  -49.7251   58.4543   60.7877 C   0  0  0  0  0  0  0  0  0  0  0  0
  -49.6392   57.4371   59.6554 C   0  0  0  0  0  0  0  0  0  0  0  0
  -48.5497   56.3857   59.8325 C   0  0  0  0  0  0  0  0  0  0  0  0
  -47.7083   56.1587   58.5844 C   0  0  0  0  0  0  0  0  0  0  0  0
  -48.0876   57.0449   57.4086 C   0  0  0  0  0  0  0  0  0  0  0  0
  -46.9743   57.9870   56.9975 C   0  0  0  0  0  0  0  0  0  0  0  0
  -32.9837   57.4781   61.8875 O   0  0  0  0  0  0  0  0  0  0  0  0
  -33.4807   58.8178   61.9564 C   0  0  0  0  0  0  0  0  0  0  0  0
  -33.6797   56.8920   61.5512 H   0  0  0  0  0  0  0  0  0  0  0  0
  -32.4306   59.7529   62.4729 C   0  0  0  0  0  0  0  0  0  0  0  0
  -31.5903   60.4379   61.7227 C   0  0  0  0  0  0  0  0  0  0  0  0
  -30.5630   61.3750   62.2679 C   0  0  0  0  0  0  0  0  0  0  0  0
  -30.4230   62.6143   61.3815 C   0  0  0  0  0  0  0  0  0  0  0  0
  -29.4563   63.6577   61.9176 C   0  0  0  0  0  0  0  0  0  0  0  0
  -29.7227   64.0769   63.3532 C   0  0  0  0  0  0  0  0  0  0  0  0
  -29.5064   65.5603   63.6150 C   0  0  0  0  0  0  0  0  0  0  0  0
  -30.2258   66.0734   64.8529 C   0  0  0  0  0  0  0  0  0  0  0  0
  -31.7147   65.7748   64.8632 C   0  0  0  0  0  0  0  0  0  0  0  0
  -32.4751   66.3830   63.6995 C   0  0  0  0  0  0  0  0  0  0  0  0
  -33.2654   65.3728   62.8856 C   0  0  0  0  0  0  0  0  0  0  0  0
  -32.9400   65.4193   61.4042 C   0  0  0  0  0  0  0  0  0  0  0  0
  -32.0162   66.5527   61.0012 C   0  0  0  0  0  0  0  0  0  0  0  0
  -31.1258   66.1897   59.8291 C   0  0  0  0  0  0  0  0  0  0  0  0
  -31.1429   67.2419   58.7395 C   0  0  0  0  0  0  0  0  0  0  0  0
  -34.5254   58.0954   64.1456 C   0  0  0  0  0  0  0  0  0  0  0  0
  -34.3747   59.0589   65.1942 O   0  0  0  0  0  0  0  0  0  0  0  0
  -37.1606   58.8917   64.9666 O   0  0  0  0  0  0  0  0  0  0  0  0
  -36.4608   62.2476   67.5688 O   0  0  0  0  0  0  0  0  0  0  0  0
  -34.5189   61.3148   65.6619 O   0  0  0  0  0  0  0  0  0  0  0  0
  -35.1449   60.2138   65.0299 C   0  0  0  0  0  0  0  0  0  0  0  0
  -36.5139   59.9596   65.6474 C   0  0  0  0  0  0  0  0  0  0  0  0
  -37.3601   61.2240   65.5691 C   0  0  0  0  0  0  0  0  0  0  0  0
  -36.6212   62.4140   66.1637 C   0  0  0  0  0  0  0  0  0  0  0  0
  -35.2477   62.5434   65.5098 C   0  0  0  0  0  0  0  0  0  0  0  0
  -36.6129   58.0932   65.0234 H   0  0  0  0  0  0  0  0  0  0  0  0
  -37.3326   62.1651   67.9862 H   0  0  0  0  0  0  0  0  0  0  0  0
  -33.9718   63.2915   67.4336 O   0  0  0  0  0  0  0  0  0  0  0  0
  -34.3990   63.6341   66.1202 C   0  0  0  0  0  0  0  0  0  0  0  0
  -33.4308   64.0107   67.7955 H   0  0  0  0  0  0  0  0  0  0  0  0
  -38.5415   60.9287   66.3794 O   0  0  0  0  0  0  0  0  0  0  0  0
  -40.8870   61.3477   66.0192 O   0  0  0  0  0  0  0  0  0  0  0  0
  -39.9448   59.0344   65.7427 O   0  0  0  0  0  0  0  0  0  0  0  0
  -39.4749   60.7715   64.1940 O   0  0  0  0  0  0  0  0  0  0  0  0
  -39.8638   60.4433   65.6449 S   0  0  0  0  0  0  0  0  0  0  0  0
  -41.1581   61.1689   66.9333 H   0  0  0  0  0  0  0  0  0  0  0  0
  -39.4091   61.7333   64.0865 H   0  0  0  0  0  0  0  0  0  0  0  0
  2  1  1  0  0  0
  2  4  1  0  0  0
  2  5  1  0  0  0
 47 48  1  0  0  0
 47  1  1  0  0  0
 48 52  1  0  0  0
  1 30  1  0  0  0
 29 30  1  0  0  0
 29 31  1  0  0  0
 30 32  1  0  0  0
  3  4  2  0  0  0
 32 33  2  0  0  0
 49 53  1  0  0  0
 49 57  1  0  0  0
 33 34  1  0  0  0
 62 54  1  0  0  0
 62 66  1  0  0  0
 34 35  1  0  0  0
 50 55  1  0  0  0
 50 58  1  0  0  0
 35 36  1  0  0  0
 51 52  1  0  0  0
 51 56  1  0  0  0
 36 37  1  0  0  0
 59 60  1  0  0  0
 59 61  1  0  0  0
 37 38  1  0  0  0
 63 66  1  0  0  0
 63 67  1  0  0  0
 38 39  1  0  0  0
 64 66  1  0  0  0
 39 40  1  0  0  0
 65 66  1  0  0  0
 65 68  1  0  0  0
 40 41  1  0  0  0
 41 42  1  0  0  0
 42 43  1  0  0  0
 43 44  1  0  0  0
 44 45  1  0  0  0
 45 46  1  0  0  0
  4  6  1  0  0  0
  6  7  1  0  0  0
  7  8  1  0  0  0
  8  9  1  0  0  0
  9 10  1  0  0  0
 10 11  1  0  0  0
 11 12  1  0  0  0
 12 13  1  0  0  0
 13 14  1  0  0  0
 14 15  1  0  0  0
 15 16  1  0  0  0
 16 17  1  0  0  0
 17 18  1  0  0  0
 18 19  1  0  0  0
 19 20  2  0  0  0
 20 21  1  0  0  0
 21 22  1  0  0  0
 22 23  1  0  0  0
 23 24  1  0  0  0
 24 25  1  0  0  0
 25 26  1  0  0  0
 26 27  1  0  0  0
 27 28  1  0  0  0
 52 53  1  0  0  0
 53 54  1  0  0  0
 54 55  1  0  0  0
 55 56  1  0  0  0
 56 60  1  0  0  0
M  CHG 1  64  -1
M  END
> <minimizedAffinity>
-8.75859

> <CNNscore>
0.1044616923

> <CNNaffinity>
6.6703424454

> <CNN_VS>
0.6967952847

> <CNNaffinity_variance>
0.8878752589

$$$$
