/media/chris/experiments/cd1a-new-docking/inputs/ligands/7ryn_ligand.pdb


 68 68  0  0  0  0  0  0  0  0999 V2000
  -39.2146   59.7865   60.1709 C   0  0  0  0  0  0  0  0  0  0  0  0
  -40.0873   58.6498   59.8926 N   0  0  0  0  0  0  0  0  0  0  0  0
  -42.0535   57.5817   60.1399 O   0  0  0  0  0  0  0  0  0  0  0  0
  -41.3311   58.5474   60.3689 C   0  0  0  0  0  0  0  0  0  0  0  0
  -39.7421   57.9227   59.3257 H   0  0  0  0  0  0  0  0  0  0  0  0
  -41.7997   59.6996   61.2222 C   0  0  0  0  0  0  0  0  0  0  0  0
  -42.0281   59.2973   62.6736 C   0  0  0  0  0  0  0  0  0  0  0  0
  -42.7251   57.9528   62.8070 C   0  0  0  0  0  0  0  0  0  0  0  0
  -42.9522   57.5166   64.2449 C   0  0  0  0  0  0  0  0  0  0  0  0
  -44.0710   58.2712   64.9473 C   0  0  0  0  0  0  0  0  0  0  0  0
  -44.2412   57.9020   66.4154 C   0  0  0  0  0  0  0  0  0  0  0  0
  -45.5487   58.3891   67.0264 C   0  0  0  0  0  0  0  0  0  0  0  0
  -46.7315   57.4444   66.8284 C   0  0  0  0  0  0  0  0  0  0  0  0
  -47.7323   57.9134   65.7736 C   0  0  0  0  0  0  0  0  0  0  0  0
  -47.5691   59.3712   65.3440 C   0  0  0  0  0  0  0  0  0  0  0  0
  -48.8464   60.1975   65.4963 C   0  0  0  0  0  0  0  0  0  0  0  0
  -50.0825   59.4059   65.9229 C   0  0  0  0  0  0  0  0  0  0  0  0
  -51.1259   59.1968   64.8222 C   0  0  0  0  0  0  0  0  0  0  0  0
  -50.8872   60.0638   63.6198 C   0  0  0  0  0  0  0  0  0  0  0  0
  -50.3708   59.6727   62.4683 C   0  0  0  0  0  0  0  0  0  0  0  0
  -49.9220   58.2835   62.1296 C   0  0  0  0  0  0  0  0  0  0  0  0
  -50.7677   57.6115   61.0458 C   0  0  0  0  0  0  0  0  0  0  0  0
  -50.2379   57.8452   59.6372 C   0  0  0  0  0  0  0  0  0  0  0  0
  -48.7155   57.8521   59.5570 C   0  0  0  0  0  0  0  0  0  0  0  0
  -48.0756   56.4688   59.5863 C   0  0  0  0  0  0  0  0  0  0  0  0
  -47.4067   56.0751   58.2769 C   0  0  0  0  0  0  0  0  0  0  0  0
  -47.7165   57.0059   57.1153 C   0  0  0  0  0  0  0  0  0  0  0  0
  -46.6195   58.0207   56.8646 C   0  0  0  0  0  0  0  0  0  0  0  0
  -37.6258   58.9886   58.5358 O   0  0  0  0  0  0  0  0  0  0  0  0
  -37.7549   59.3855   59.9040 C   0  0  0  0  0  0  0  0  0  0  0  0
  -37.9185   59.7125   57.9601 H   0  0  0  0  0  0  0  0  0  0  0  0
  -37.3110   58.2898   60.8239 C   0  0  0  0  0  0  0  0  0  0  0  0
  -36.2258   58.3209   61.5719 C   0  0  0  0  0  0  0  0  0  0  0  0
  -35.8178   57.2170   62.4913 C   0  0  0  0  0  0  0  0  0  0  0  0
  -34.3139   57.2608   62.7703 C   0  0  0  0  0  0  0  0  0  0  0  0
  -33.5483   58.2485   61.9050 C   0  0  0  0  0  0  0  0  0  0  0  0
  -32.6757   59.2170   62.6850 C   0  0  0  0  0  0  0  0  0  0  0  0
  -32.0501   60.3109   61.8321 C   0  0  0  0  0  0  0  0  0  0  0  0
  -31.3484   61.3904   62.6416 C   0  0  0  0  0  0  0  0  0  0  0  0
  -32.2932   62.4176   63.2403 C   0  0  0  0  0  0  0  0  0  0  0  0
  -31.6009   63.4916   64.0584 C   0  0  0  0  0  0  0  0  0  0  0  0
  -31.4440   64.8151   63.3296 C   0  0  0  0  0  0  0  0  0  0  0  0
  -32.3100   65.9181   63.9094 C   0  0  0  0  0  0  0  0  0  0  0  0
  -33.2681   66.5490   62.9174 C   0  0  0  0  0  0  0  0  0  0  0  0
  -33.6913   65.5877   61.8241 C   0  0  0  0  0  0  0  0  0  0  0  0
  -35.1959   65.4374   61.7339 C   0  0  0  0  0  0  0  0  0  0  0  0
  -39.4221   60.2648   61.5931 C   0  0  0  0  0  0  0  0  0  0  0  0
  -38.2794   61.0364   61.9801 O   0  0  0  0  0  0  0  0  0  0  0  0
  -36.3953   62.6531   63.2753 O   0  0  0  0  0  0  0  0  0  0  0  0
  -38.8594   61.0765   66.4320 O   0  0  0  0  0  0  0  0  0  0  0  0
  -38.5462   59.7669   63.8895 O   0  0  0  0  0  0  0  0  0  0  0  0
  -37.6705   60.6094   63.1637 C   0  0  0  0  0  0  0  0  0  0  0  0
  -37.3225   61.8430   63.9867 C   0  0  0  0  0  0  0  0  0  0  0  0
  -36.7344   61.4219   65.3275 C   0  0  0  0  0  0  0  0  0  0  0  0
  -37.6491   60.4367   66.0404 C   0  0  0  0  0  0  0  0  0  0  0  0
  -37.9718   59.2708   65.1092 C   0  0  0  0  0  0  0  0  0  0  0  0
  -36.7807   62.9145   62.4244 H   0  0  0  0  0  0  0  0  0  0  0  0
  -38.6565   61.8177   67.0238 H   0  0  0  0  0  0  0  0  0  0  0  0
  -40.2850   58.8339   65.6984 O   0  0  0  0  0  0  0  0  0  0  0  0
  -38.9669   58.2980   65.6974 C   0  0  0  0  0  0  0  0  0  0  0  0
  -40.8972   58.1861   66.0813 H   0  0  0  0  0  0  0  0  0  0  0  0
  -36.6541   62.6606   66.1011 O   0  0  0  0  0  0  0  0  0  0  0  0
  -35.3607   63.3141   68.0265 O   0  0  0  0  0  0  0  0  0  0  0  0
  -34.7141   64.0960   65.7274 O   0  0  0  0  0  0  0  0  0  0  0  0
  -34.4401   61.8372   66.4052 O   0  0  0  0  0  0  0  0  0  0  0  0
  -35.2326   63.1359   66.6277 S   0  0  0  0  0  0  0  0  0  0  0  0
  -35.8578   64.1278   68.2046 H   0  0  0  0  0  0  0  0  0  0  0  0
  -34.7679   61.1512   67.0075 H   0  0  0  0  0  0  0  0  0  0  0  0
  2  1  1  0  0  0
  2  4  1  0  0  0
  2  5  1  0  0  0
 47 48  1  0  0  0
 47  1  1  0  0  0
 48 52  1  0  0  0
  1 30  1  0  0  0
 29 30  1  0  0  0
 29 31  1  0  0  0
 30 32  1  0  0  0
  3  4  2  0  0  0
 32 33  2  0  0  0
 49 53  1  0  0  0
 49 57  1  0  0  0
 33 34  1  0  0  0
 62 54  1  0  0  0
 62 66  1  0  0  0
 34 35  1  0  0  0
 50 55  1  0  0  0
 50 58  1  0  0  0
 35 36  1  0  0  0
 51 52  1  0  0  0
 51 56  1  0  0  0
 36 37  1  0  0  0
 59 60  1  0  0  0
 59 61  1  0  0  0
 37 38  1  0  0  0
 63 66  1  0  0  0
 63 67  1  0  0  0
 38 39  1  0  0  0
 64 66  1  0  0  0
 39 40  1  0  0  0
 65 66  1  0  0  0
 65 68  1  0  0  0
 40 41  1  0  0  0
 41 42  1  0  0  0
 42 43  1  0  0  0
 43 44  1  0  0  0
 44 45  1  0  0  0
 45 46  1  0  0  0
  4  6  1  0  0  0
  6  7  1  0  0  0
  7  8  1  0  0  0
  8  9  1  0  0  0
  9 10  1  0  0  0
 10 11  1  0  0  0
 11 12  1  0  0  0
 12 13  1  0  0  0
 13 14  1  0  0  0
 14 15  1  0  0  0
 15 16  1  0  0  0
 16 17  1  0  0  0
 17 18  1  0  0  0
 18 19  1  0  0  0
 19 20  2  0  0  0
 20 21  1  0  0  0
 21 22  1  0  0  0
 22 23  1  0  0  0
 23 24  1  0  0  0
 24 25  1  0  0  0
 25 26  1  0  0  0
 26 27  1  0  0  0
 27 28  1  0  0  0
 52 53  1  0  0  0
 53 54  1  0  0  0
 54 55  1  0  0  0
 55 56  1  0  0  0
 56 60  1  0  0  0
M  CHG 1  64  -1
M  END
> <minimizedAffinity>
-8.93067

> <CNNscore>
0.1563524157

> <CNNaffinity>
6.9929933548

> <CNN_VS>
1.0933713913

> <CNNaffinity_variance>
1.5121819973

$$$$
/media/chris/experiments/cd1a-new-docking/inputs/ligands/7ryn_ligand.pdb


 68 68  0  0  0  0  0  0  0  0999 V2000
  -39.3617   60.3898   62.1903 C   0  0  0  0  0  0  0  0  0  0  0  0
  -38.7149   60.4146   60.8817 N   0  0  0  0  0  0  0  0  0  0  0  0
  -38.0736   59.3721   58.9923 O   0  0  0  0  0  0  0  0  0  0  0  0
  -38.6305   59.3451   60.0860 C   0  0  0  0  0  0  0  0  0  0  0  0
  -38.3215   61.2617   60.5702 H   0  0  0  0  0  0  0  0  0  0  0  0
  -39.2613   58.0833   60.6200 C   0  0  0  0  0  0  0  0  0  0  0  0
  -40.5864   57.7597   59.9419 C   0  0  0  0  0  0  0  0  0  0  0  0
  -41.4281   56.7756   60.7385 C   0  0  0  0  0  0  0  0  0  0  0  0
  -40.9395   56.5575   62.1609 C   0  0  0  0  0  0  0  0  0  0  0  0
  -41.4160   55.2529   62.7818 C   0  0  0  0  0  0  0  0  0  0  0  0
  -41.5820   55.3109   64.2950 C   0  0  0  0  0  0  0  0  0  0  0  0
  -41.8090   56.7161   64.8373 C   0  0  0  0  0  0  0  0  0  0  0  0
  -42.9454   56.8285   65.8505 C   0  0  0  0  0  0  0  0  0  0  0  0
  -42.6169   57.7034   67.0592 C   0  0  0  0  0  0  0  0  0  0  0  0
  -43.2341   59.1011   67.0207 C   0  0  0  0  0  0  0  0  0  0  0  0
  -42.3096   60.1902   67.5652 C   0  0  0  0  0  0  0  0  0  0  0  0
  -41.4838   60.9254   66.5098 C   0  0  0  0  0  0  0  0  0  0  0  0
  -40.5934   60.0274   65.6468 C   0  0  0  0  0  0  0  0  0  0  0  0
  -39.2491   59.7719   66.2648 C   0  0  0  0  0  0  0  0  0  0  0  0
  -38.3874   58.8403   65.8966 C   0  0  0  0  0  0  0  0  0  0  0  0
  -38.5777   57.8528   64.7854 C   0  0  0  0  0  0  0  0  0  0  0  0
  -37.3190   57.6215   63.9467 C   0  0  0  0  0  0  0  0  0  0  0  0
  -36.1965   58.6012   64.2623 C   0  0  0  0  0  0  0  0  0  0  0  0
  -34.9000   57.9197   64.6853 C   0  0  0  0  0  0  0  0  0  0  0  0
  -33.6558   58.7898   64.5486 C   0  0  0  0  0  0  0  0  0  0  0  0
  -32.7525   58.3900   63.3905 C   0  0  0  0  0  0  0  0  0  0  0  0
  -31.9753   59.5454   62.7799 C   0  0  0  0  0  0  0  0  0  0  0  0
  -32.7984   60.8121   62.6619 C   0  0  0  0  0  0  0  0  0  0  0  0
  -41.0121   62.0230   62.8563 O   0  0  0  0  0  0  0  0  0  0  0  0
  -40.8185   60.8590   62.0476 C   0  0  0  0  0  0  0  0  0  0  0  0
  -40.3784   62.7087   62.5931 H   0  0  0  0  0  0  0  0  0  0  0  0
  -41.7821   59.7767   62.4269 C   0  0  0  0  0  0  0  0  0  0  0  0
  -42.9427   59.9693   63.0219 C   0  0  0  0  0  0  0  0  0  0  0  0
  -43.8892   58.8690   63.3741 C   0  0  0  0  0  0  0  0  0  0  0  0
  -44.9823   59.3660   64.3225 C   0  0  0  0  0  0  0  0  0  0  0  0
  -46.1096   58.3718   64.5492 C   0  0  0  0  0  0  0  0  0  0  0  0
  -47.4687   59.0101   64.7797 C   0  0  0  0  0  0  0  0  0  0  0  0
  -48.6247   58.2508   64.1452 C   0  0  0  0  0  0  0  0  0  0  0  0
  -49.8916   59.0792   63.9972 C   0  0  0  0  0  0  0  0  0  0  0  0
  -50.6292   58.8411   62.6913 C   0  0  0  0  0  0  0  0  0  0  0  0
  -49.7889   59.0890   61.4525 C   0  0  0  0  0  0  0  0  0  0  0  0
  -49.6553   57.8769   60.5468 C   0  0  0  0  0  0  0  0  0  0  0  0
  -48.7222   58.1126   59.3736 C   0  0  0  0  0  0  0  0  0  0  0  0
  -47.6766   57.0316   59.1779 C   0  0  0  0  0  0  0  0  0  0  0  0
  -47.6712   56.4748   57.7678 C   0  0  0  0  0  0  0  0  0  0  0  0
  -47.4600   57.5487   56.7206 C   0  0  0  0  0  0  0  0  0  0  0  0
  -38.5831   61.2423   63.1708 C   0  0  0  0  0  0  0  0  0  0  0  0
  -37.3305   61.5898   62.5699 O   0  0  0  0  0  0  0  0  0  0  0  0
  -35.3458   63.3996   61.7786 O   0  0  0  0  0  0  0  0  0  0  0  0
  -36.5766   64.7402   65.6786 O   0  0  0  0  0  0  0  0  0  0  0  0
  -36.8778   62.0197   64.7923 O   0  0  0  0  0  0  0  0  0  0  0  0
  -36.3560   62.0170   63.4765 C   0  0  0  0  0  0  0  0  0  0  0  0
  -35.9243   63.4222   63.0774 C   0  0  0  0  0  0  0  0  0  0  0  0
  -34.9240   63.9640   64.0908 C   0  0  0  0  0  0  0  0  0  0  0  0
  -35.4703   63.8603   65.5072 C   0  0  0  0  0  0  0  0  0  0  0  0
  -35.9176   62.4264   65.7804 C   0  0  0  0  0  0  0  0  0  0  0  0
  -35.9914   63.0532   61.1430 H   0  0  0  0  0  0  0  0  0  0  0  0
  -36.2944   65.6519   65.5054 H   0  0  0  0  0  0  0  0  0  0  0  0
  -36.1867   63.2800   68.0360 O   0  0  0  0  0  0  0  0  0  0  0  0
  -36.5782   62.2564   67.1284 C   0  0  0  0  0  0  0  0  0  0  0  0
  -36.6273   63.1416   68.8891 H   0  0  0  0  0  0  0  0  0  0  0  0
  -34.7613   65.3727   63.7324 O   0  0  0  0  0  0  0  0  0  0  0  0
  -32.6660   66.3984   64.3366 O   0  0  0  0  0  0  0  0  0  0  0  0
  -33.5191   66.5287   61.9764 O   0  0  0  0  0  0  0  0  0  0  0  0
  -32.7060   64.5002   62.9039 O   0  0  0  0  0  0  0  0  0  0  0  0
  -33.3430   65.8650   63.2131 S   0  0  0  0  0  0  0  0  0  0  0  0
  -33.0436   67.2633   64.5609 H   0  0  0  0  0  0  0  0  0  0  0  0
  -32.5687   64.0126   63.7311 H   0  0  0  0  0  0  0  0  0  0  0  0
  2  1  1  0  0  0
  2  4  1  0  0  0
  2  5  1  0  0  0
 47 48  1  0  0  0
 47  1  1  0  0  0
 48 52  1  0  0  0
  1 30  1  0  0  0
 29 30  1  0  0  0
 29 31  1  0  0  0
 30 32  1  0  0  0
  3  4  2  0  0  0
 32 33  2  0  0  0
 49 53  1  0  0  0
 49 57  1  0  0  0
 33 34  1  0  0  0
 62 54  1  0  0  0
 62 66  1  0  0  0
 34 35  1  0  0  0
 50 55  1  0  0  0
 50 58  1  0  0  0
 35 36  1  0  0  0
 51 52  1  0  0  0
 51 56  1  0  0  0
 36 37  1  0  0  0
 59 60  1  0  0  0
 59 61  1  0  0  0
 37 38  1  0  0  0
 63 66  1  0  0  0
 63 67  1  0  0  0
 38 39  1  0  0  0
 64 66  1  0  0  0
 39 40  1  0  0  0
 65 66  1  0  0  0
 65 68  1  0  0  0
 40 41  1  0  0  0
 41 42  1  0  0  0
 42 43  1  0  0  0
 43 44  1  0  0  0
 44 45  1  0  0  0
 45 46  1  0  0  0
  4  6  1  0  0  0
  6  7  1  0  0  0
  7  8  1  0  0  0
  8  9  1  0  0  0
  9 10  1  0  0  0
 10 11  1  0  0  0
 11 12  1  0  0  0
 12 13  1  0  0  0
 13 14  1  0  0  0
 14 15  1  0  0  0
 15 16  1  0  0  0
 16 17  1  0  0  0
 17 18  1  0  0  0
 18 19  1  0  0  0
 19 20  2  0  0  0
 20 21  1  0  0  0
 21 22  1  0  0  0
 22 23  1  0  0  0
 23 24  1  0  0  0
 24 25  1  0  0  0
 25 26  1  0  0  0
 26 27  1  0  0  0
 27 28  1  0  0  0
 52 53  1  0  0  0
 53 54  1  0  0  0
 54 55  1  0  0  0
 55 56  1  0  0  0
 56 60  1  0  0  0
M  CHG 1  64  -1
M  END
> <minimizedAffinity>
-8.37972

> <CNNscore>
0.1208161265

> <CNNaffinity>
7.5288496017

> <CNN_VS>
0.9096064568

> <CNNaffinity_variance>
1.5755200386

$$$$
/media/chris/experiments/cd1a-new-docking/inputs/ligands/7ryn_ligand.pdb


 68 68  0  0  0  0  0  0  0  0999 V2000
  -36.7234   59.0165   62.7903 C   0  0  0  0  0  0  0  0  0  0  0  0
  -37.6596   59.9766   63.3675 N   0  0  0  0  0  0  0  0  0  0  0  0
  -39.2805   61.5203   63.1279 O   0  0  0  0  0  0  0  0  0  0  0  0
  -38.5054   60.7061   62.6349 C   0  0  0  0  0  0  0  0  0  0  0  0
  -37.6680   60.0921   64.3451 H   0  0  0  0  0  0  0  0  0  0  0  0
  -38.4465   60.4732   61.1457 C   0  0  0  0  0  0  0  0  0  0  0  0
  -39.4926   59.4742   60.6681 C   0  0  0  0  0  0  0  0  0  0  0  0
  -40.7137   60.1479   60.0627 C   0  0  0  0  0  0  0  0  0  0  0  0
  -41.8636   60.3315   61.0392 C   0  0  0  0  0  0  0  0  0  0  0  0
  -41.9857   59.2129   62.0631 C   0  0  0  0  0  0  0  0  0  0  0  0
  -42.9438   59.5212   63.2067 C   0  0  0  0  0  0  0  0  0  0  0  0
  -43.9828   58.4344   63.4509 C   0  0  0  0  0  0  0  0  0  0  0  0
  -45.0510   58.7985   64.4789 C   0  0  0  0  0  0  0  0  0  0  0  0
  -45.1807   57.7946   65.6233 C   0  0  0  0  0  0  0  0  0  0  0  0
  -46.0607   58.2606   66.7830 C   0  0  0  0  0  0  0  0  0  0  0  0
  -47.3503   58.9465   66.3314 C   0  0  0  0  0  0  0  0  0  0  0  0
  -48.4367   58.0049   65.8121 C   0  0  0  0  0  0  0  0  0  0  0  0
  -48.9004   58.2828   64.3797 C   0  0  0  0  0  0  0  0  0  0  0  0
  -50.3354   58.7182   64.3053 C   0  0  0  0  0  0  0  0  0  0  0  0
  -51.0036   59.0118   63.2039 C   0  0  0  0  0  0  0  0  0  0  0  0
  -50.4640   58.9665   61.8065 C   0  0  0  0  0  0  0  0  0  0  0  0
  -50.8069   57.6775   61.0568 C   0  0  0  0  0  0  0  0  0  0  0  0
  -49.5968   56.7885   60.8025 C   0  0  0  0  0  0  0  0  0  0  0  0
  -48.8766   57.1061   59.4969 C   0  0  0  0  0  0  0  0  0  0  0  0
  -47.8040   56.0960   59.1057 C   0  0  0  0  0  0  0  0  0  0  0  0
  -47.6335   55.9345   57.6017 C   0  0  0  0  0  0  0  0  0  0  0  0
  -47.7804   57.2281   56.8164 C   0  0  0  0  0  0  0  0  0  0  0  0
  -46.7387   58.2642   57.1873 C   0  0  0  0  0  0  0  0  0  0  0  0
  -36.0201   56.7069   62.8667 O   0  0  0  0  0  0  0  0  0  0  0  0
  -36.9600   57.6336   63.4183 C   0  0  0  0  0  0  0  0  0  0  0  0
  -35.1186   57.0304   63.0207 H   0  0  0  0  0  0  0  0  0  0  0  0
  -38.3659   57.1655   63.1985 C   0  0  0  0  0  0  0  0  0  0  0  0
  -38.9029   56.9042   62.0232 C   0  0  0  0  0  0  0  0  0  0  0  0
  -40.3049   56.4241   61.8379 C   0  0  0  0  0  0  0  0  0  0  0  0
  -40.6868   55.4104   62.9186 C   0  0  0  0  0  0  0  0  0  0  0  0
  -41.8986   55.8083   63.7455 C   0  0  0  0  0  0  0  0  0  0  0  0
  -41.6079   56.0101   65.2228 C   0  0  0  0  0  0  0  0  0  0  0  0
  -41.7178   57.4564   65.6832 C   0  0  0  0  0  0  0  0  0  0  0  0
  -40.4839   58.2906   65.3758 C   0  0  0  0  0  0  0  0  0  0  0  0
  -40.5581   59.7115   65.9065 C   0  0  0  0  0  0  0  0  0  0  0  0
  -41.8042   60.0026   66.7218 C   0  0  0  0  0  0  0  0  0  0  0  0
  -42.1869   61.4723   66.7574 C   0  0  0  0  0  0  0  0  0  0  0  0
  -41.5920   62.2684   65.6108 C   0  0  0  0  0  0  0  0  0  0  0  0
  -42.6142   62.9812   64.7465 C   0  0  0  0  0  0  0  0  0  0  0  0
  -42.2729   62.9209   63.2706 C   0  0  0  0  0  0  0  0  0  0  0  0
  -43.5050   62.9226   62.3895 C   0  0  0  0  0  0  0  0  0  0  0  0
  -35.3001   59.4952   62.9887 C   0  0  0  0  0  0  0  0  0  0  0  0
  -34.9703   59.3651   64.3761 O   0  0  0  0  0  0  0  0  0  0  0  0
  -32.6499   60.6454   63.4721 O   0  0  0  0  0  0  0  0  0  0  0  0
  -35.4814   63.8189   64.1303 O   0  0  0  0  0  0  0  0  0  0  0  0
  -35.6336   61.2818   65.4785 O   0  0  0  0  0  0  0  0  0  0  0  0
  -34.5316   60.5486   64.9770 C   0  0  0  0  0  0  0  0  0  0  0  0
  -33.7897   61.3642   63.9260 C   0  0  0  0  0  0  0  0  0  0  0  0
  -33.3679   62.7049   64.5138 C   0  0  0  0  0  0  0  0  0  0  0  0
  -34.5541   63.4260   65.1369 C   0  0  0  0  0  0  0  0  0  0  0  0
  -35.2503   62.5018   66.1329 C   0  0  0  0  0  0  0  0  0  0  0  0
  -32.9310   59.7946   63.1005 H   0  0  0  0  0  0  0  0  0  0  0  0
  -35.0409   64.4062   63.4964 H   0  0  0  0  0  0  0  0  0  0  0  0
  -36.2520   63.7505   67.9566 O   0  0  0  0  0  0  0  0  0  0  0  0
  -36.5088   63.0985   66.7182 C   0  0  0  0  0  0  0  0  0  0  0  0
  -37.0782   64.1213   68.3042 H   0  0  0  0  0  0  0  0  0  0  0  0
  -32.8769   63.4720   63.3693 O   0  0  0  0  0  0  0  0  0  0  0  0
  -31.2338   64.5980   64.7255 O   0  0  0  0  0  0  0  0  0  0  0  0
  -33.0451   65.9000   63.5682 O   0  0  0  0  0  0  0  0  0  0  0  0
  -31.2574   64.9017   62.3666 O   0  0  0  0  0  0  0  0  0  0  0  0
  -32.1135   64.8381   63.6423 S   0  0  0  0  0  0  0  0  0  0  0  0
  -31.7420   64.5517   65.5505 H   0  0  0  0  0  0  0  0  0  0  0  0
  -30.6032   64.1857   62.3803 H   0  0  0  0  0  0  0  0  0  0  0  0
  2  1  1  0  0  0
  2  4  1  0  0  0
  2  5  1  0  0  0
 47 48  1  0  0  0
 47  1  1  0  0  0
 48 52  1  0  0  0
  1 30  1  0  0  0
 29 30  1  0  0  0
 29 31  1  0  0  0
 30 32  1  0  0  0
  3  4  2  0  0  0
 32 33  2  0  0  0
 49 53  1  0  0  0
 49 57  1  0  0  0
 33 34  1  0  0  0
 62 54  1  0  0  0
 62 66  1  0  0  0
 34 35  1  0  0  0
 50 55  1  0  0  0
 50 58  1  0  0  0
 35 36  1  0  0  0
 51 52  1  0  0  0
 51 56  1  0  0  0
 36 37  1  0  0  0
 59 60  1  0  0  0
 59 61  1  0  0  0
 37 38  1  0  0  0
 63 66  1  0  0  0
 63 67  1  0  0  0
 38 39  1  0  0  0
 64 66  1  0  0  0
 39 40  1  0  0  0
 65 66  1  0  0  0
 65 68  1  0  0  0
 40 41  1  0  0  0
 41 42  1  0  0  0
 42 43  1  0  0  0
 43 44  1  0  0  0
 44 45  1  0  0  0
 45 46  1  0  0  0
  4  6  1  0  0  0
  6  7  1  0  0  0
  7  8  1  0  0  0
  8  9  1  0  0  0
  9 10  1  0  0  0
 10 11  1  0  0  0
 11 12  1  0  0  0
 12 13  1  0  0  0
 13 14  1  0  0  0
 14 15  1  0  0  0
 15 16  1  0  0  0
 16 17  1  0  0  0
 17 18  1  0  0  0
 18 19  1  0  0  0
 19 20  2  0  0  0
 20 21  1  0  0  0
 21 22  1  0  0  0
 22 23  1  0  0  0
 23 24  1  0  0  0
 24 25  1  0  0  0
 25 26  1  0  0  0
 26 27  1  0  0  0
 27 28  1  0  0  0
 52 53  1  0  0  0
 53 54  1  0  0  0
 54 55  1  0  0  0
 55 56  1  0  0  0
 56 60  1  0  0  0
M  CHG 1  64  -1
M  END
> <minimizedAffinity>
-7.47473

> <CNNscore>
0.1176150441

> <CNNaffinity>
7.4392929077

> <CNN_VS>
0.8749727607

> <CNNaffinity_variance>
1.0837280750

$$$$
/media/chris/experiments/cd1a-new-docking/inputs/ligands/7ryn_ligand.pdb


 68 68  0  0  0  0  0  0  0  0999 V2000
  -38.6106   60.1807   62.1025 C   0  0  0  0  0  0  0  0  0  0  0  0
  -38.1382   60.2410   60.7224 N   0  0  0  0  0  0  0  0  0  0  0  0
  -37.8817   59.2955   58.6956 O   0  0  0  0  0  0  0  0  0  0  0  0
  -38.2934   59.2409   59.8507 C   0  0  0  0  0  0  0  0  0  0  0  0
  -37.6827   61.0594   60.4192 H   0  0  0  0  0  0  0  0  0  0  0  0
  -39.0070   58.0210   60.3779 C   0  0  0  0  0  0  0  0  0  0  0  0
  -40.4070   57.8660   59.7975 C   0  0  0  0  0  0  0  0  0  0  0  0
  -41.3650   57.1737   60.7537 C   0  0  0  0  0  0  0  0  0  0  0  0
  -40.6955   56.6107   61.9963 C   0  0  0  0  0  0  0  0  0  0  0  0
  -41.4971   55.5160   62.6845 C   0  0  0  0  0  0  0  0  0  0  0  0
  -41.6151   55.6896   64.1934 C   0  0  0  0  0  0  0  0  0  0  0  0
  -42.8851   56.4058   64.6344 C   0  0  0  0  0  0  0  0  0  0  0  0
  -43.1639   57.7132   63.8972 C   0  0  0  0  0  0  0  0  0  0  0  0
  -44.5109   58.3465   64.2417 C   0  0  0  0  0  0  0  0  0  0  0  0
  -44.9336   58.1901   65.7022 C   0  0  0  0  0  0  0  0  0  0  0  0
  -46.4431   58.0316   65.8855 C   0  0  0  0  0  0  0  0  0  0  0  0
  -47.3017   58.8853   64.9525 C   0  0  0  0  0  0  0  0  0  0  0  0
  -48.3041   59.8028   65.6579 C   0  0  0  0  0  0  0  0  0  0  0  0
  -49.5778   59.0996   66.0286 C   0  0  0  0  0  0  0  0  0  0  0  0
  -50.7536   59.2613   65.4480 C   0  0  0  0  0  0  0  0  0  0  0  0
  -51.0517   60.1776   64.3001 C   0  0  0  0  0  0  0  0  0  0  0  0
  -51.1743   59.4582   62.9553 C   0  0  0  0  0  0  0  0  0  0  0  0
  -49.8521   59.3508   62.2071 C   0  0  0  0  0  0  0  0  0  0  0  0
  -49.3096   57.9277   62.1387 C   0  0  0  0  0  0  0  0  0  0  0  0
  -49.5373   57.2288   60.8033 C   0  0  0  0  0  0  0  0  0  0  0  0
  -49.2725   58.1152   59.5945 C   0  0  0  0  0  0  0  0  0  0  0  0
  -48.0206   57.7463   58.8146 C   0  0  0  0  0  0  0  0  0  0  0  0
  -47.7175   56.2621   58.8546 C   0  0  0  0  0  0  0  0  0  0  0  0
  -40.5617   61.0733   60.9929 O   0  0  0  0  0  0  0  0  0  0  0  0
  -40.1429   60.3017   62.1223 C   0  0  0  0  0  0  0  0  0  0  0  0
  -40.2371   60.6574   60.1788 H   0  0  0  0  0  0  0  0  0  0  0  0
  -40.6272   60.9156   63.4000 C   0  0  0  0  0  0  0  0  0  0  0  0
  -41.8927   61.0969   63.7219 C   0  0  0  0  0  0  0  0  0  0  0  0
  -42.3445   61.6990   65.0118 C   0  0  0  0  0  0  0  0  0  0  0  0
  -41.4465   61.2577   66.1694 C   0  0  0  0  0  0  0  0  0  0  0  0
  -41.8636   59.9472   66.8168 C   0  0  0  0  0  0  0  0  0  0  0  0
  -41.0865   58.7354   66.3314 C   0  0  0  0  0  0  0  0  0  0  0  0
  -39.6324   59.0282   65.9917 C   0  0  0  0  0  0  0  0  0  0  0  0
  -38.9912   57.9792   65.0963 C   0  0  0  0  0  0  0  0  0  0  0  0
  -37.4912   58.1494   64.9317 C   0  0  0  0  0  0  0  0  0  0  0  0
  -36.9394   57.5601   63.6471 C   0  0  0  0  0  0  0  0  0  0  0  0
  -35.4275   57.6489   63.5289 C   0  0  0  0  0  0  0  0  0  0  0  0
  -34.9611   57.9917   62.1263 C   0  0  0  0  0  0  0  0  0  0  0  0
  -33.4545   58.0023   61.9523 C   0  0  0  0  0  0  0  0  0  0  0  0
  -32.7362   58.6280   63.1317 C   0  0  0  0  0  0  0  0  0  0  0  0
  -32.0199   59.9102   62.7611 C   0  0  0  0  0  0  0  0  0  0  0  0
  -37.9440   61.2620   62.9275 C   0  0  0  0  0  0  0  0  0  0  0  0
  -36.5259   61.1382   62.7708 O   0  0  0  0  0  0  0  0  0  0  0  0
  -34.3285   62.8295   62.3811 O   0  0  0  0  0  0  0  0  0  0  0  0
  -36.4116   64.4815   65.7653 O   0  0  0  0  0  0  0  0  0  0  0  0
  -36.6100   61.7139   65.0047 O   0  0  0  0  0  0  0  0  0  0  0  0
  -35.7837   61.6018   63.8610 C   0  0  0  0  0  0  0  0  0  0  0  0
  -35.2047   62.9618   63.4932 C   0  0  0  0  0  0  0  0  0  0  0  0
  -34.4584   63.5465   64.6857 C   0  0  0  0  0  0  0  0  0  0  0  0
  -35.3378   63.5605   65.9274 C   0  0  0  0  0  0  0  0  0  0  0  0
  -35.9025   62.1633   66.1714 C   0  0  0  0  0  0  0  0  0  0  0  0
  -34.8146   62.4567   61.6290 H   0  0  0  0  0  0  0  0  0  0  0  0
  -36.0549   65.3700   65.6102 H   0  0  0  0  0  0  0  0  0  0  0  0
  -36.4843   62.9708   68.3846 O   0  0  0  0  0  0  0  0  0  0  0  0
  -36.8789   62.1094   67.3230 C   0  0  0  0  0  0  0  0  0  0  0  0
  -37.1306   62.9125   69.1056 H   0  0  0  0  0  0  0  0  0  0  0  0
  -34.1499   64.9206   64.2908 O   0  0  0  0  0  0  0  0  0  0  0  0
  -32.4766   66.2693   65.3810 O   0  0  0  0  0  0  0  0  0  0  0  0
  -32.2480   65.6653   62.9524 O   0  0  0  0  0  0  0  0  0  0  0  0
  -31.9641   64.0566   64.6751 O   0  0  0  0  0  0  0  0  0  0  0  0
  -32.6309   65.3860   64.2852 S   0  0  0  0  0  0  0  0  0  0  0  0
  -32.8875   67.1221   65.1692 H   0  0  0  0  0  0  0  0  0  0  0  0
  -32.2039   63.8298   65.5872 H   0  0  0  0  0  0  0  0  0  0  0  0
  2  1  1  0  0  0
  2  4  1  0  0  0
  2  5  1  0  0  0
 47 48  1  0  0  0
 47  1  1  0  0  0
 48 52  1  0  0  0
  1 30  1  0  0  0
 29 30  1  0  0  0
 29 31  1  0  0  0
 30 32  1  0  0  0
  3  4  2  0  0  0
 32 33  2  0  0  0
 49 53  1  0  0  0
 49 57  1  0  0  0
 33 34  1  0  0  0
 62 54  1  0  0  0
 62 66  1  0  0  0
 34 35  1  0  0  0
 50 55  1  0  0  0
 50 58  1  0  0  0
 35 36  1  0  0  0
 51 52  1  0  0  0
 51 56  1  0  0  0
 36 37  1  0  0  0
 59 60  1  0  0  0
 59 61  1  0  0  0
 37 38  1  0  0  0
 63 66  1  0  0  0
 63 67  1  0  0  0
 38 39  1  0  0  0
 64 66  1  0  0  0
 39 40  1  0  0  0
 65 66  1  0  0  0
 65 68  1  0  0  0
 40 41  1  0  0  0
 41 42  1  0  0  0
 42 43  1  0  0  0
 43 44  1  0  0  0
 44 45  1  0  0  0
 45 46  1  0  0  0
  4  6  1  0  0  0
  6  7  1  0  0  0
  7  8  1  0  0  0
  8  9  1  0  0  0
  9 10  1  0  0  0
 10 11  1  0  0  0
 11 12  1  0  0  0
 12 13  1  0  0  0
 13 14  1  0  0  0
 14 15  1  0  0  0
 15 16  1  0  0  0
 16 17  1  0  0  0
 17 18  1  0  0  0
 18 19  1  0  0  0
 19 20  2  0  0  0
 20 21  1  0  0  0
 21 22  1  0  0  0
 22 23  1  0  0  0
 23 24  1  0  0  0
 24 25  1  0  0  0
 25 26  1  0  0  0
 26 27  1  0  0  0
 27 28  1  0  0  0
 52 53  1  0  0  0
 53 54  1  0  0  0
 54 55  1  0  0  0
 55 56  1  0  0  0
 56 60  1  0  0  0
M  CHG 1  64  -1
M  END
> <minimizedAffinity>
-8.51702

> <CNNscore>
0.1123299971

> <CNNaffinity>
7.5296583176

> <CNN_VS>
0.8458064795

> <CNNaffinity_variance>
1.4971034527

$$$$
/media/chris/experiments/cd1a-new-docking/inputs/ligands/7ryn_ligand.pdb


 68 68  0  0  0  0  0  0  0  0999 V2000
  -39.1412   60.9233   61.8529 C   0  0  0  0  0  0  0  0  0  0  0  0
  -40.4879   60.3613   61.8967 N   0  0  0  0  0  0  0  0  0  0  0  0
  -42.3819   59.8960   63.0211 O   0  0  0  0  0  0  0  0  0  0  0  0
  -41.2552   60.3823   62.9899 C   0  0  0  0  0  0  0  0  0  0  0  0
  -40.8485   59.9463   61.0800 H   0  0  0  0  0  0  0  0  0  0  0  0
  -40.6454   61.0406   64.2023 C   0  0  0  0  0  0  0  0  0  0  0  0
  -41.6190   61.1313   65.3704 C   0  0  0  0  0  0  0  0  0  0  0  0
  -41.2619   60.1862   66.5064 C   0  0  0  0  0  0  0  0  0  0  0  0
  -42.4465   59.4104   67.0579 C   0  0  0  0  0  0  0  0  0  0  0  0
  -43.4471   58.9787   65.9964 C   0  0  0  0  0  0  0  0  0  0  0  0
  -44.5824   58.1142   66.5297 C   0  0  0  0  0  0  0  0  0  0  0  0
  -45.5000   58.8358   67.5083 C   0  0  0  0  0  0  0  0  0  0  0  0
  -46.9291   58.3007   67.5493 C   0  0  0  0  0  0  0  0  0  0  0  0
  -47.2345   57.2593   66.4739 C   0  0  0  0  0  0  0  0  0  0  0  0
  -48.5843   57.4375   65.7792 C   0  0  0  0  0  0  0  0  0  0  0  0
  -49.2888   58.7444   66.1438 C   0  0  0  0  0  0  0  0  0  0  0  0
  -50.7444   58.8442   65.6880 C   0  0  0  0  0  0  0  0  0  0  0  0
  -51.0294   59.9603   64.6795 C   0  0  0  0  0  0  0  0  0  0  0  0
  -49.7788   60.5912   64.1389 C   0  0  0  0  0  0  0  0  0  0  0  0
  -49.3079   60.4586   62.9116 C   0  0  0  0  0  0  0  0  0  0  0  0
  -49.9294   59.6535   61.8108 C   0  0  0  0  0  0  0  0  0  0  0  0
  -49.8299   58.1416   62.0237 C   0  0  0  0  0  0  0  0  0  0  0  0
  -50.5094   57.3329   60.9266 C   0  0  0  0  0  0  0  0  0  0  0  0
  -49.5280   56.6883   59.9542 C   0  0  0  0  0  0  0  0  0  0  0  0
  -48.1917   57.4119   59.8336 C   0  0  0  0  0  0  0  0  0  0  0  0
  -47.9214   57.9725   58.4444 C   0  0  0  0  0  0  0  0  0  0  0  0
  -48.2312   57.0061   57.3123 C   0  0  0  0  0  0  0  0  0  0  0  0
  -47.1189   56.0059   57.0704 C   0  0  0  0  0  0  0  0  0  0  0  0
  -39.0240   59.9120   59.6625 O   0  0  0  0  0  0  0  0  0  0  0  0
  -38.2825   60.1124   60.8692 C   0  0  0  0  0  0  0  0  0  0  0  0
  -39.2866   60.7716   59.2978 H   0  0  0  0  0  0  0  0  0  0  0  0
  -37.8595   58.8033   61.4619 C   0  0  0  0  0  0  0  0  0  0  0  0
  -36.6173   58.3662   61.5260 C   0  0  0  0  0  0  0  0  0  0  0  0
  -36.2257   57.0611   62.1374 C   0  0  0  0  0  0  0  0  0  0  0  0
  -34.9400   57.2003   62.9553 C   0  0  0  0  0  0  0  0  0  0  0  0
  -35.1630   57.6152   64.4006 C   0  0  0  0  0  0  0  0  0  0  0  0
  -36.5076   57.1969   64.9704 C   0  0  0  0  0  0  0  0  0  0  0  0
  -37.5108   58.3350   65.0884 C   0  0  0  0  0  0  0  0  0  0  0  0
  -38.9032   57.8817   65.4993 C   0  0  0  0  0  0  0  0  0  0  0  0
  -39.7719   57.4408   64.3344 C   0  0  0  0  0  0  0  0  0  0  0  0
  -41.1028   56.8411   64.7478 C   0  0  0  0  0  0  0  0  0  0  0  0
  -42.0093   56.4908   63.5803 C   0  0  0  0  0  0  0  0  0  0  0  0
  -41.3256   55.6274   62.5364 C   0  0  0  0  0  0  0  0  0  0  0  0
  -40.9852   56.3529   61.2489 C   0  0  0  0  0  0  0  0  0  0  0  0
  -42.0422   57.3653   60.8536 C   0  0  0  0  0  0  0  0  0  0  0  0
  -41.6662   58.1404   59.6076 C   0  0  0  0  0  0  0  0  0  0  0  0
  -38.5429   60.9472   63.2443 C   0  0  0  0  0  0  0  0  0  0  0  0
  -37.3793   61.7816   63.2198 O   0  0  0  0  0  0  0  0  0  0  0  0
  -34.8480   60.6344   62.8771 O   0  0  0  0  0  0  0  0  0  0  0  0
  -34.2145   63.9328   65.5682 O   0  0  0  0  0  0  0  0  0  0  0  0
  -36.7554   62.6141   65.2805 O   0  0  0  0  0  0  0  0  0  0  0  0
  -36.5238   61.6085   64.3117 C   0  0  0  0  0  0  0  0  0  0  0  0
  -35.0897   61.6853   63.8041 C   0  0  0  0  0  0  0  0  0  0  0  0
  -34.1200   61.5888   64.9752 C   0  0  0  0  0  0  0  0  0  0  0  0
  -34.4553   62.6141   66.0483 C   0  0  0  0  0  0  0  0  0  0  0  0
  -35.9237   62.4803   66.4442 C   0  0  0  0  0  0  0  0  0  0  0  0
  -35.4708   60.7065   62.1370 H   0  0  0  0  0  0  0  0  0  0  0  0
  -33.2819   64.0198   65.3161 H   0  0  0  0  0  0  0  0  0  0  0  0
  -36.4302   63.0257   68.7539 O   0  0  0  0  0  0  0  0  0  0  0  0
  -36.3731   63.5361   67.4269 C   0  0  0  0  0  0  0  0  0  0  0  0
  -36.7212   63.7268   69.3578 H   0  0  0  0  0  0  0  0  0  0  0  0
  -32.8118   61.8967   64.3979 O   0  0  0  0  0  0  0  0  0  0  0  0
  -31.6863   63.9075   63.6930 O   0  0  0  0  0  0  0  0  0  0  0  0
  -34.0311   63.4213   62.9310 O   0  0  0  0  0  0  0  0  0  0  0  0
  -32.1705   62.1878   62.1228 O   0  0  0  0  0  0  0  0  0  0  0  0
  -32.7196   63.0286   63.2871 S   0  0  0  0  0  0  0  0  0  0  0  0
  -31.9990   64.4559   64.4295 H   0  0  0  0  0  0  0  0  0  0  0  0
  -31.2683   61.8985   62.3303 H   0  0  0  0  0  0  0  0  0  0  0  0
  2  1  1  0  0  0
  2  4  1  0  0  0
  2  5  1  0  0  0
 47 48  1  0  0  0
 47  1  1  0  0  0
 48 52  1  0  0  0
  1 30  1  0  0  0
 29 30  1  0  0  0
 29 31  1  0  0  0
 30 32  1  0  0  0
  3  4  2  0  0  0
 32 33  2  0  0  0
 49 53  1  0  0  0
 49 57  1  0  0  0
 33 34  1  0  0  0
 62 54  1  0  0  0
 62 66  1  0  0  0
 34 35  1  0  0  0
 50 55  1  0  0  0
 50 58  1  0  0  0
 35 36  1  0  0  0
 51 52  1  0  0  0
 51 56  1  0  0  0
 36 37  1  0  0  0
 59 60  1  0  0  0
 59 61  1  0  0  0
 37 38  1  0  0  0
 63 66  1  0  0  0
 63 67  1  0  0  0
 38 39  1  0  0  0
 64 66  1  0  0  0
 39 40  1  0  0  0
 65 66  1  0  0  0
 65 68  1  0  0  0
 40 41  1  0  0  0
 41 42  1  0  0  0
 42 43  1  0  0  0
 43 44  1  0  0  0
 44 45  1  0  0  0
 45 46  1  0  0  0
  4  6  1  0  0  0
  6  7  1  0  0  0
  7  8  1  0  0  0
  8  9  1  0  0  0
  9 10  1  0  0  0
 10 11  1  0  0  0
 11 12  1  0  0  0
 12 13  1  0  0  0
 13 14  1  0  0  0
 14 15  1  0  0  0
 15 16  1  0  0  0
 16 17  1  0  0  0
 17 18  1  0  0  0
 18 19  1  0  0  0
 19 20  2  0  0  0
 20 21  1  0  0  0
 21 22  1  0  0  0
 22 23  1  0  0  0
 23 24  1  0  0  0
 24 25  1  0  0  0
 25 26  1  0  0  0
 26 27  1  0  0  0
 27 28  1  0  0  0
 52 53  1  0  0  0
 53 54  1  0  0  0
 54 55  1  0  0  0
 55 56  1  0  0  0
 56 60  1  0  0  0
M  CHG 1  64  -1
M  END
> <minimizedAffinity>
-8.59797

> <CNNscore>
0.1097074151

> <CNNaffinity>
7.5466547012

> <CNN_VS>
0.8279239535

> <CNNaffinity_variance>
1.3437085152

$$$$
/media/chris/experiments/cd1a-new-docking/inputs/ligands/7ryn_ligand.pdb


 68 68  0  0  0  0  0  0  0  0999 V2000
  -37.7235   60.9932   63.9768 C   0  0  0  0  0  0  0  0  0  0  0  0
  -37.6899   59.6306   64.4998 N   0  0  0  0  0  0  0  0  0  0  0  0
  -38.4557   58.0540   65.9124 O   0  0  0  0  0  0  0  0  0  0  0  0
  -38.4996   59.1982   65.4701 C   0  0  0  0  0  0  0  0  0  0  0  0
  -37.0380   58.9991   64.1184 H   0  0  0  0  0  0  0  0  0  0  0  0
  -39.4794   60.2138   66.0029 C   0  0  0  0  0  0  0  0  0  0  0  0
  -40.9194   59.8920   65.6240 C   0  0  0  0  0  0  0  0  0  0  0  0
  -41.8283   59.7567   66.8352 C   0  0  0  0  0  0  0  0  0  0  0  0
  -42.5648   58.4294   66.9075 C   0  0  0  0  0  0  0  0  0  0  0  0
  -42.2994   57.5133   65.7223 C   0  0  0  0  0  0  0  0  0  0  0  0
  -43.5516   57.1255   64.9460 C   0  0  0  0  0  0  0  0  0  0  0  0
  -44.2252   58.2941   64.2383 C   0  0  0  0  0  0  0  0  0  0  0  0
  -45.6109   58.6457   64.7740 C   0  0  0  0  0  0  0  0  0  0  0  0
  -46.0421   57.8113   65.9789 C   0  0  0  0  0  0  0  0  0  0  0  0
  -47.4320   58.1448   66.5204 C   0  0  0  0  0  0  0  0  0  0  0  0
  -48.1130   59.2969   65.7814 C   0  0  0  0  0  0  0  0  0  0  0  0
  -49.5684   59.5483   66.1753 C   0  0  0  0  0  0  0  0  0  0  0  0
  -50.5715   59.4708   65.0212 C   0  0  0  0  0  0  0  0  0  0  0  0
  -50.2873   58.3392   64.0763 C   0  0  0  0  0  0  0  0  0  0  0  0
  -49.9171   58.4540   62.8131 C   0  0  0  0  0  0  0  0  0  0  0  0
  -49.7037   59.7379   62.0701 C   0  0  0  0  0  0  0  0  0  0  0  0
  -49.6290   59.5640   60.5517 C   0  0  0  0  0  0  0  0  0  0  0  0
  -50.3249   58.3037   60.0549 C   0  0  0  0  0  0  0  0  0  0  0  0
  -49.4676   57.4733   59.1064 C   0  0  0  0  0  0  0  0  0  0  0  0
  -48.3467   56.6952   59.7860 C   0  0  0  0  0  0  0  0  0  0  0  0
  -47.2314   56.2742   58.8395 C   0  0  0  0  0  0  0  0  0  0  0  0
  -47.5056   56.5864   57.3769 C   0  0  0  0  0  0  0  0  0  0  0  0
  -46.8054   57.8432   56.9013 C   0  0  0  0  0  0  0  0  0  0  0  0
  -37.3412   62.2354   61.9408 O   0  0  0  0  0  0  0  0  0  0  0  0
  -37.7195   60.9495   62.4403 C   0  0  0  0  0  0  0  0  0  0  0  0
  -36.4755   62.4811   62.3030 H   0  0  0  0  0  0  0  0  0  0  0  0
  -39.0545   60.5366   61.9007 C   0  0  0  0  0  0  0  0  0  0  0  0
  -40.2073   60.7082   62.5169 C   0  0  0  0  0  0  0  0  0  0  0  0
  -41.5248   60.2986   61.9451 C   0  0  0  0  0  0  0  0  0  0  0  0
  -41.4827   60.2919   60.4156 C   0  0  0  0  0  0  0  0  0  0  0  0
  -41.4912   58.9029   59.7982 C   0  0  0  0  0  0  0  0  0  0  0  0
  -42.1761   57.8458   60.6473 C   0  0  0  0  0  0  0  0  0  0  0  0
  -41.3167   56.6204   60.9221 C   0  0  0  0  0  0  0  0  0  0  0  0
  -41.1363   56.3203   62.4021 C   0  0  0  0  0  0  0  0  0  0  0  0
  -39.8509   56.8783   62.9873 C   0  0  0  0  0  0  0  0  0  0  0  0
  -38.8136   57.2610   61.9483 C   0  0  0  0  0  0  0  0  0  0  0  0
  -37.3793   57.0760   62.4134 C   0  0  0  0  0  0  0  0  0  0  0  0
  -36.3988   57.9773   61.6864 C   0  0  0  0  0  0  0  0  0  0  0  0
  -35.0419   58.0938   62.3537 C   0  0  0  0  0  0  0  0  0  0  0  0
  -35.0279   57.5077   63.7518 C   0  0  0  0  0  0  0  0  0  0  0  0
  -34.1884   58.3224   64.7142 C   0  0  0  0  0  0  0  0  0  0  0  0
  -36.5579   61.7894   64.5261 C   0  0  0  0  0  0  0  0  0  0  0  0
  -35.3903   61.4627   63.7641 O   0  0  0  0  0  0  0  0  0  0  0  0
  -32.9629   61.1141   62.4124 O   0  0  0  0  0  0  0  0  0  0  0  0
  -32.7581   65.0886   64.0503 O   0  0  0  0  0  0  0  0  0  0  0  0
  -34.4207   63.0214   65.1638 O   0  0  0  0  0  0  0  0  0  0  0  0
  -34.1904   61.8978   64.3343 C   0  0  0  0  0  0  0  0  0  0  0  0
  -33.2364   62.2629   63.2044 C   0  0  0  0  0  0  0  0  0  0  0  0
  -31.9434   62.8263   63.7803 C   0  0  0  0  0  0  0  0  0  0  0  0
  -32.2268   63.9664   64.7473 C   0  0  0  0  0  0  0  0  0  0  0  0
  -33.2290   63.5060   65.8030 C   0  0  0  0  0  0  0  0  0  0  0  0
  -33.7929   60.7649   62.0518 H   0  0  0  0  0  0  0  0  0  0  0  0
  -32.1227   65.3828   63.3790 H   0  0  0  0  0  0  0  0  0  0  0  0
  -32.6537   65.6170   66.8526 O   0  0  0  0  0  0  0  0  0  0  0  0
  -33.6541   64.6112   66.7411 C   0  0  0  0  0  0  0  0  0  0  0  0
  -32.9576   66.3093   67.4604 H   0  0  0  0  0  0  0  0  0  0  0  0
  -31.2153   63.3400   62.6203 O   0  0  0  0  0  0  0  0  0  0  0  0
  -31.6425   65.4939   61.6275 O   0  0  0  0  0  0  0  0  0  0  0  0
  -33.3564   63.6611   61.4907 O   0  0  0  0  0  0  0  0  0  0  0  0
  -31.3319   63.5774   60.2534 O   0  0  0  0  0  0  0  0  0  0  0  0
  -32.0238   64.1355   61.5080 S   0  0  0  0  0  0  0  0  0  0  0  0
  -32.0625   65.8798   62.4121 H   0  0  0  0  0  0  0  0  0  0  0  0
  -30.4114   63.8822   60.2293 H   0  0  0  0  0  0  0  0  0  0  0  0
  2  1  1  0  0  0
  2  4  1  0  0  0
  2  5  1  0  0  0
 47 48  1  0  0  0
 47  1  1  0  0  0
 48 52  1  0  0  0
  1 30  1  0  0  0
 29 30  1  0  0  0
 29 31  1  0  0  0
 30 32  1  0  0  0
  3  4  2  0  0  0
 32 33  2  0  0  0
 49 53  1  0  0  0
 49 57  1  0  0  0
 33 34  1  0  0  0
 62 54  1  0  0  0
 62 66  1  0  0  0
 34 35  1  0  0  0
 50 55  1  0  0  0
 50 58  1  0  0  0
 35 36  1  0  0  0
 51 52  1  0  0  0
 51 56  1  0  0  0
 36 37  1  0  0  0
 59 60  1  0  0  0
 59 61  1  0  0  0
 37 38  1  0  0  0
 63 66  1  0  0  0
 63 67  1  0  0  0
 38 39  1  0  0  0
 64 66  1  0  0  0
 39 40  1  0  0  0
 65 66  1  0  0  0
 65 68  1  0  0  0
 40 41  1  0  0  0
 41 42  1  0  0  0
 42 43  1  0  0  0
 43 44  1  0  0  0
 44 45  1  0  0  0
 45 46  1  0  0  0
  4  6  1  0  0  0
  6  7  1  0  0  0
  7  8  1  0  0  0
  8  9  1  0  0  0
  9 10  1  0  0  0
 10 11  1  0  0  0
 11 12  1  0  0  0
 12 13  1  0  0  0
 13 14  1  0  0  0
 14 15  1  0  0  0
 15 16  1  0  0  0
 16 17  1  0  0  0
 17 18  1  0  0  0
 18 19  1  0  0  0
 19 20  2  0  0  0
 20 21  1  0  0  0
 21 22  1  0  0  0
 22 23  1  0  0  0
 23 24  1  0  0  0
 24 25  1  0  0  0
 25 26  1  0  0  0
 26 27  1  0  0  0
 27 28  1  0  0  0
 52 53  1  0  0  0
 53 54  1  0  0  0
 54 55  1  0  0  0
 55 56  1  0  0  0
 56 60  1  0  0  0
M  CHG 1  64  -1
M  END
> <minimizedAffinity>
-9.11357

> <CNNscore>
0.1051671281

> <CNNaffinity>
7.0797166824

> <CNN_VS>
0.7445534468

> <CNNaffinity_variance>
1.9653545618

$$$$
/media/chris/experiments/cd1a-new-docking/inputs/ligands/7ryn_ligand.pdb


 68 68  0  0  0  0  0  0  0  0999 V2000
  -38.2855   60.5910   62.3314 C   0  0  0  0  0  0  0  0  0  0  0  0
  -37.9970   60.5472   60.9010 N   0  0  0  0  0  0  0  0  0  0  0  0
  -38.1208   59.5087   58.9075 O   0  0  0  0  0  0  0  0  0  0  0  0
  -38.3788   59.5431   60.1071 C   0  0  0  0  0  0  0  0  0  0  0  0
  -37.4962   61.2948   60.5016 H   0  0  0  0  0  0  0  0  0  0  0  0
  -39.1494   58.4354   60.7813 C   0  0  0  0  0  0  0  0  0  0  0  0
  -40.2516   57.8673   59.8964 C   0  0  0  0  0  0  0  0  0  0  0  0
  -41.6441   58.1756   60.4230 C   0  0  0  0  0  0  0  0  0  0  0  0
  -41.9324   57.5768   61.7896 C   0  0  0  0  0  0  0  0  0  0  0  0
  -42.9679   58.3488   62.5934 C   0  0  0  0  0  0  0  0  0  0  0  0
  -43.4784   57.6066   63.8219 C   0  0  0  0  0  0  0  0  0  0  0  0
  -44.5394   58.3680   64.6060 C   0  0  0  0  0  0  0  0  0  0  0  0
  -44.8888   57.7548   65.9597 C   0  0  0  0  0  0  0  0  0  0  0  0
  -45.4920   58.7455   66.9542 C   0  0  0  0  0  0  0  0  0  0  0  0
  -46.8811   58.3671   67.4675 C   0  0  0  0  0  0  0  0  0  0  0  0
  -47.6251   57.3955   66.5510 C   0  0  0  0  0  0  0  0  0  0  0  0
  -48.9365   57.9267   65.9727 C   0  0  0  0  0  0  0  0  0  0  0  0
  -49.1727   59.4252   66.1799 C   0  0  0  0  0  0  0  0  0  0  0  0
  -48.8563   60.2398   64.9590 C   0  0  0  0  0  0  0  0  0  0  0  0
  -49.6369   60.3979   63.9048 C   0  0  0  0  0  0  0  0  0  0  0  0
  -50.9973   59.7977   63.7170 C   0  0  0  0  0  0  0  0  0  0  0  0
  -51.0217   58.6265   62.7327 C   0  0  0  0  0  0  0  0  0  0  0  0
  -49.7128   58.4497   61.9744 C   0  0  0  0  0  0  0  0  0  0  0  0
  -49.9015   58.2970   60.4694 C   0  0  0  0  0  0  0  0  0  0  0  0
  -49.3791   56.9840   59.8977 C   0  0  0  0  0  0  0  0  0  0  0  0
  -48.0058   57.1002   59.2514 C   0  0  0  0  0  0  0  0  0  0  0  0
  -48.0312   57.0969   57.7311 C   0  0  0  0  0  0  0  0  0  0  0  0
  -47.0188   58.0461   57.1228 C   0  0  0  0  0  0  0  0  0  0  0  0
  -40.4734   61.3309   61.6242 O   0  0  0  0  0  0  0  0  0  0  0  0
  -39.8024   60.4704   62.5492 C   0  0  0  0  0  0  0  0  0  0  0  0
  -40.2132   61.0985   60.7191 H   0  0  0  0  0  0  0  0  0  0  0  0
  -40.1811   60.8012   63.9603 C   0  0  0  0  0  0  0  0  0  0  0  0
  -41.4159   60.8772   64.4158 C   0  0  0  0  0  0  0  0  0  0  0  0
  -41.7608   61.1950   65.8337 C   0  0  0  0  0  0  0  0  0  0  0  0
  -41.9624   59.9170   66.6508 C   0  0  0  0  0  0  0  0  0  0  0  0
  -40.7633   58.9828   66.6520 C   0  0  0  0  0  0  0  0  0  0  0  0
  -40.8744   57.8222   65.6782 C   0  0  0  0  0  0  0  0  0  0  0  0
  -39.6108   57.5705   64.8685 C   0  0  0  0  0  0  0  0  0  0  0  0
  -38.3747   58.2486   65.4389 C   0  0  0  0  0  0  0  0  0  0  0  0
  -37.0981   57.9322   64.6798 C   0  0  0  0  0  0  0  0  0  0  0  0
  -37.3286   57.3623   63.2927 C   0  0  0  0  0  0  0  0  0  0  0  0
  -36.0583   57.1971   62.4762 C   0  0  0  0  0  0  0  0  0  0  0  0
  -35.2315   58.4672   62.4015 C   0  0  0  0  0  0  0  0  0  0  0  0
  -33.7718   58.2448   62.0554 C   0  0  0  0  0  0  0  0  0  0  0  0
  -32.8318   58.9443   63.0174 C   0  0  0  0  0  0  0  0  0  0  0  0
  -32.8627   58.3361   64.4044 C   0  0  0  0  0  0  0  0  0  0  0  0
  -37.7233   61.8609   62.9361 C   0  0  0  0  0  0  0  0  0  0  0  0
  -36.4376   61.5639   63.4926 O   0  0  0  0  0  0  0  0  0  0  0  0
  -36.2196   63.6814   65.3120 O   0  0  0  0  0  0  0  0  0  0  0  0
  -32.1604   62.5536   64.4326 O   0  0  0  0  0  0  0  0  0  0  0  0
  -34.3493   62.0466   62.6355 O   0  0  0  0  0  0  0  0  0  0  0  0
  -35.4830   62.5675   63.3040 C   0  0  0  0  0  0  0  0  0  0  0  0
  -35.0873   63.1054   64.6730 C   0  0  0  0  0  0  0  0  0  0  0  0
  -33.9824   64.1433   64.5220 C   0  0  0  0  0  0  0  0  0  0  0  0
  -32.8195   63.5897   63.7117 C   0  0  0  0  0  0  0  0  0  0  0  0
  -33.3362   63.0343   62.3869 C   0  0  0  0  0  0  0  0  0  0  0  0
  -36.9154   63.0116   65.4023 H   0  0  0  0  0  0  0  0  0  0  0  0
  -31.8313   62.9046   65.2748 H   0  0  0  0  0  0  0  0  0  0  0  0
  -31.5372   63.3023   60.7805 O   0  0  0  0  0  0  0  0  0  0  0  0
  -32.2619   62.3618   61.5647 C   0  0  0  0  0  0  0  0  0  0  0  0
  -30.8574   62.8391   60.2665 H   0  0  0  0  0  0  0  0  0  0  0  0
  -33.5395   64.4131   65.8896 O   0  0  0  0  0  0  0  0  0  0  0  0
  -31.1680   64.8321   65.9762 O   0  0  0  0  0  0  0  0  0  0  0  0
  -32.7733   66.3116   67.2208 O   0  0  0  0  0  0  0  0  0  0  0  0
  -32.6159   66.3478   64.8522 O   0  0  0  0  0  0  0  0  0  0  0  0
  -32.4067   65.5029   66.1196 S   0  0  0  0  0  0  0  0  0  0  0  0
  -31.0027   64.2870   66.7614 H   0  0  0  0  0  0  0  0  0  0  0  0
  -32.3740   65.8252   64.0717 H   0  0  0  0  0  0  0  0  0  0  0  0
  2  1  1  0  0  0
  2  4  1  0  0  0
  2  5  1  0  0  0
 47 48  1  0  0  0
 47  1  1  0  0  0
 48 52  1  0  0  0
  1 30  1  0  0  0
 29 30  1  0  0  0
 29 31  1  0  0  0
 30 32  1  0  0  0
  3  4  2  0  0  0
 32 33  2  0  0  0
 49 53  1  0  0  0
 49 57  1  0  0  0
 33 34  1  0  0  0
 62 54  1  0  0  0
 62 66  1  0  0  0
 34 35  1  0  0  0
 50 55  1  0  0  0
 50 58  1  0  0  0
 35 36  1  0  0  0
 51 52  1  0  0  0
 51 56  1  0  0  0
 36 37  1  0  0  0
 59 60  1  0  0  0
 59 61  1  0  0  0
 37 38  1  0  0  0
 63 66  1  0  0  0
 63 67  1  0  0  0
 38 39  1  0  0  0
 64 66  1  0  0  0
 39 40  1  0  0  0
 65 66  1  0  0  0
 65 68  1  0  0  0
 40 41  1  0  0  0
 41 42  1  0  0  0
 42 43  1  0  0  0
 43 44  1  0  0  0
 44 45  1  0  0  0
 45 46  1  0  0  0
  4  6  1  0  0  0
  6  7  1  0  0  0
  7  8  1  0  0  0
  8  9  1  0  0  0
  9 10  1  0  0  0
 10 11  1  0  0  0
 11 12  1  0  0  0
 12 13  1  0  0  0
 13 14  1  0  0  0
 14 15  1  0  0  0
 15 16  1  0  0  0
 16 17  1  0  0  0
 17 18  1  0  0  0
 18 19  1  0  0  0
 19 20  2  0  0  0
 20 21  1  0  0  0
 21 22  1  0  0  0
 22 23  1  0  0  0
 23 24  1  0  0  0
 24 25  1  0  0  0
 25 26  1  0  0  0
 26 27  1  0  0  0
 27 28  1  0  0  0
 52 53  1  0  0  0
 53 54  1  0  0  0
 54 55  1  0  0  0
 55 56  1  0  0  0
 56 60  1  0  0  0
M  CHG 1  64  -1
M  END
> <minimizedAffinity>
-8.31577

> <CNNscore>
0.1044635177

> <CNNaffinity>
7.1793861389

> <CNN_VS>
0.7499839067

> <CNNaffinity_variance>
1.3079235554

$$$$
/media/chris/experiments/cd1a-new-docking/inputs/ligands/7ryn_ligand.pdb


 68 68  0  0  0  0  0  0  0  0999 V2000
  -37.9848   60.2893   64.6461 C   0  0  0  0  0  0  0  0  0  0  0  0
  -39.0314   60.4380   65.6530 N   0  0  0  0  0  0  0  0  0  0  0  0
  -41.2013   60.6717   66.2048 O   0  0  0  0  0  0  0  0  0  0  0  0
  -40.3292   60.5342   65.3520 C   0  0  0  0  0  0  0  0  0  0  0  0
  -38.7675   60.4689   66.6010 H   0  0  0  0  0  0  0  0  0  0  0  0
  -40.6643   60.4707   63.8826 C   0  0  0  0  0  0  0  0  0  0  0  0
  -42.1467   60.6931   63.6108 C   0  0  0  0  0  0  0  0  0  0  0  0
  -42.8033   59.5028   62.9302 C   0  0  0  0  0  0  0  0  0  0  0  0
  -43.9553   58.9011   63.7178 C   0  0  0  0  0  0  0  0  0  0  0  0
  -43.6488   57.5327   64.3077 C   0  0  0  0  0  0  0  0  0  0  0  0
  -42.6572   57.5639   65.4637 C   0  0  0  0  0  0  0  0  0  0  0  0
  -43.2914   57.8801   66.8121 C   0  0  0  0  0  0  0  0  0  0  0  0
  -44.7049   58.4508   66.7292 C   0  0  0  0  0  0  0  0  0  0  0  0
  -45.7917   57.4937   67.2159 C   0  0  0  0  0  0  0  0  0  0  0  0
  -47.0197   57.4100   66.3096 C   0  0  0  0  0  0  0  0  0  0  0  0
  -47.4296   58.7569   65.7138 C   0  0  0  0  0  0  0  0  0  0  0  0
  -48.5383   59.4887   66.4700 C   0  0  0  0  0  0  0  0  0  0  0  0
  -49.6942   59.9859   65.5978 C   0  0  0  0  0  0  0  0  0  0  0  0
  -50.3933   58.8757   64.8676 C   0  0  0  0  0  0  0  0  0  0  0  0
  -50.5595   58.7878   63.5598 C   0  0  0  0  0  0  0  0  0  0  0  0
  -50.0809   59.7777   62.5415 C   0  0  0  0  0  0  0  0  0  0  0  0
  -50.0170   59.2150   61.1201 C   0  0  0  0  0  0  0  0  0  0  0  0
  -50.6703   57.8460   60.9844 C   0  0  0  0  0  0  0  0  0  0  0  0
  -49.7198   56.7704   60.4708 C   0  0  0  0  0  0  0  0  0  0  0  0
  -49.0457   57.1045   59.1450 C   0  0  0  0  0  0  0  0  0  0  0  0
  -47.5744   56.7178   59.0908 C   0  0  0  0  0  0  0  0  0  0  0  0
  -47.0460   56.4755   57.6859 C   0  0  0  0  0  0  0  0  0  0  0  0
  -47.3322   57.6259   56.7422 C   0  0  0  0  0  0  0  0  0  0  0  0
  -38.0186   58.1743   65.8125 O   0  0  0  0  0  0  0  0  0  0  0  0
  -37.3781   58.8805   64.7461 C   0  0  0  0  0  0  0  0  0  0  0  0
  -38.9757   58.1513   65.6561 H   0  0  0  0  0  0  0  0  0  0  0  0
  -35.8957   58.9362   64.9546 C   0  0  0  0  0  0  0  0  0  0  0  0
  -35.0647   57.9312   64.7611 C   0  0  0  0  0  0  0  0  0  0  0  0
  -33.5878   58.0228   64.9637 C   0  0  0  0  0  0  0  0  0  0  0  0
  -32.8768   58.4061   63.6642 C   0  0  0  0  0  0  0  0  0  0  0  0
  -33.4021   57.6884   62.4316 C   0  0  0  0  0  0  0  0  0  0  0  0
  -34.4266   58.4799   61.6368 C   0  0  0  0  0  0  0  0  0  0  0  0
  -35.7830   57.7993   61.5248 C   0  0  0  0  0  0  0  0  0  0  0  0
  -36.9541   58.7697   61.5141 C   0  0  0  0  0  0  0  0  0  0  0  0
  -37.7743   58.7248   60.2369 C   0  0  0  0  0  0  0  0  0  0  0  0
  -38.7469   59.8795   60.0858 C   0  0  0  0  0  0  0  0  0  0  0  0
  -40.1927   59.5072   60.3664 C   0  0  0  0  0  0  0  0  0  0  0  0
  -40.4605   58.0203   60.2258 C   0  0  0  0  0  0  0  0  0  0  0  0
  -40.4366   57.2532   61.5339 C   0  0  0  0  0  0  0  0  0  0  0  0
  -41.5055   56.1800   61.5996 C   0  0  0  0  0  0  0  0  0  0  0  0
  -41.3186   55.2462   62.7776 C   0  0  0  0  0  0  0  0  0  0  0  0
  -36.9399   61.3721   64.8190 C   0  0  0  0  0  0  0  0  0  0  0  0
  -36.9341   62.1849   63.6400 O   0  0  0  0  0  0  0  0  0  0  0  0
  -36.4065   64.5236   65.0867 O   0  0  0  0  0  0  0  0  0  0  0  0
  -32.6774   62.3755   65.0548 O   0  0  0  0  0  0  0  0  0  0  0  0
  -34.7090   62.0128   63.0501 O   0  0  0  0  0  0  0  0  0  0  0  0
  -35.7471   62.8944   63.4357 C   0  0  0  0  0  0  0  0  0  0  0  0
  -35.3866   63.5958   64.7389 C   0  0  0  0  0  0  0  0  0  0  0  0
  -34.0507   64.3124   64.5889 C   0  0  0  0  0  0  0  0  0  0  0  0
  -32.9766   63.3647   64.0754 C   0  0  0  0  0  0  0  0  0  0  0  0
  -33.4629   62.6821   62.7993 C   0  0  0  0  0  0  0  0  0  0  0  0
  -37.2513   64.0560   65.1792 H   0  0  0  0  0  0  0  0  0  0  0  0
  -32.3682   62.8072   65.8665 H   0  0  0  0  0  0  0  0  0  0  0  0
  -31.6684   62.1590   61.2518 O   0  0  0  0  0  0  0  0  0  0  0  0
  -32.5021   61.6380   62.2805 C   0  0  0  0  0  0  0  0  0  0  0  0
  -31.0654   61.4652   60.9418 H   0  0  0  0  0  0  0  0  0  0  0  0
  -33.7106   64.7473   65.9433 O   0  0  0  0  0  0  0  0  0  0  0  0
  -32.6209   66.2818   67.4484 O   0  0  0  0  0  0  0  0  0  0  0  0
  -32.3899   66.5509   64.9606 O   0  0  0  0  0  0  0  0  0  0  0  0
  -31.3365   64.7743   66.1312 O   0  0  0  0  0  0  0  0  0  0  0  0
  -32.5090   65.7690   66.1334 S   0  0  0  0  0  0  0  0  0  0  0  0
  -33.3542   66.9157   67.4869 H   0  0  0  0  0  0  0  0  0  0  0  0
  -31.3836   64.2174   66.9239 H   0  0  0  0  0  0  0  0  0  0  0  0
  2  1  1  0  0  0
  2  4  1  0  0  0
  2  5  1  0  0  0
 47 48  1  0  0  0
 47  1  1  0  0  0
 48 52  1  0  0  0
  1 30  1  0  0  0
 29 30  1  0  0  0
 29 31  1  0  0  0
 30 32  1  0  0  0
  3  4  2  0  0  0
 32 33  2  0  0  0
 49 53  1  0  0  0
 49 57  1  0  0  0
 33 34  1  0  0  0
 62 54  1  0  0  0
 62 66  1  0  0  0
 34 35  1  0  0  0
 50 55  1  0  0  0
 50 58  1  0  0  0
 35 36  1  0  0  0
 51 52  1  0  0  0
 51 56  1  0  0  0
 36 37  1  0  0  0
 59 60  1  0  0  0
 59 61  1  0  0  0
 37 38  1  0  0  0
 63 66  1  0  0  0
 63 67  1  0  0  0
 38 39  1  0  0  0
 64 66  1  0  0  0
 39 40  1  0  0  0
 65 66  1  0  0  0
 65 68  1  0  0  0
 40 41  1  0  0  0
 41 42  1  0  0  0
 42 43  1  0  0  0
 43 44  1  0  0  0
 44 45  1  0  0  0
 45 46  1  0  0  0
  4  6  1  0  0  0
  6  7  1  0  0  0
  7  8  1  0  0  0
  8  9  1  0  0  0
  9 10  1  0  0  0
 10 11  1  0  0  0
 11 12  1  0  0  0
 12 13  1  0  0  0
 13 14  1  0  0  0
 14 15  1  0  0  0
 15 16  1  0  0  0
 16 17  1  0  0  0
 17 18  1  0  0  0
 18 19  1  0  0  0
 19 20  2  0  0  0
 20 21  1  0  0  0
 21 22  1  0  0  0
 22 23  1  0  0  0
 23 24  1  0  0  0
 24 25  1  0  0  0
 25 26  1  0  0  0
 26 27  1  0  0  0
 27 28  1  0  0  0
 52 53  1  0  0  0
 53 54  1  0  0  0
 54 55  1  0  0  0
 55 56  1  0  0  0
 56 60  1  0  0  0
M  CHG 1  64  -1
M  END
> <minimizedAffinity>
-8.63392

> <CNNscore>
0.0951361060

> <CNNaffinity>
7.1869750023

> <CNN_VS>
0.6837407947

> <CNNaffinity_variance>
1.2963176966

$$$$
/media/chris/experiments/cd1a-new-docking/inputs/ligands/7ryn_ligand.pdb


 68 68  0  0  0  0  0  0  0  0999 V2000
  -38.0730   60.1339   60.8194 C   0  0  0  0  0  0  0  0  0  0  0  0
  -39.3262   60.2092   60.0745 N   0  0  0  0  0  0  0  0  0  0  0  0
  -41.5627   60.4604   60.0216 O   0  0  0  0  0  0  0  0  0  0  0  0
  -40.5123   60.4111   60.6548 C   0  0  0  0  0  0  0  0  0  0  0  0
  -39.2958   60.1061   59.0959 H   0  0  0  0  0  0  0  0  0  0  0  0
  -40.4861   60.5695   62.1546 C   0  0  0  0  0  0  0  0  0  0  0  0
  -41.8622   60.8694   62.7352 C   0  0  0  0  0  0  0  0  0  0  0  0
  -41.8864   60.7982   64.2536 C   0  0  0  0  0  0  0  0  0  0  0  0
  -42.8631   59.7736   64.8068 C   0  0  0  0  0  0  0  0  0  0  0  0
  -43.6561   59.0392   63.7363 C   0  0  0  0  0  0  0  0  0  0  0  0
  -44.9388   58.3954   64.2473 C   0  0  0  0  0  0  0  0  0  0  0  0
  -44.8041   57.7616   65.6259 C   0  0  0  0  0  0  0  0  0  0  0  0
  -45.8111   58.2662   66.6564 C   0  0  0  0  0  0  0  0  0  0  0  0
  -46.9420   57.2830   66.9541 C   0  0  0  0  0  0  0  0  0  0  0  0
  -48.1399   57.3850   66.0103 C   0  0  0  0  0  0  0  0  0  0  0  0
  -48.9010   58.7052   66.1328 C   0  0  0  0  0  0  0  0  0  0  0  0
  -50.3883   58.6294   65.7886 C   0  0  0  0  0  0  0  0  0  0  0  0
  -50.8556   59.6259   64.7243 C   0  0  0  0  0  0  0  0  0  0  0  0
  -49.7205   60.3749   64.0882 C   0  0  0  0  0  0  0  0  0  0  0  0
  -49.3586   60.3090   62.8191 C   0  0  0  0  0  0  0  0  0  0  0  0
  -50.0107   59.4751   61.7583 C   0  0  0  0  0  0  0  0  0  0  0  0
  -49.3300   58.1231   61.5345 C   0  0  0  0  0  0  0  0  0  0  0  0
  -49.2084   57.7462   60.0639 C   0  0  0  0  0  0  0  0  0  0  0  0
  -48.7685   56.3033   59.8437 C   0  0  0  0  0  0  0  0  0  0  0  0
  -47.4598   56.1524   59.0766 C   0  0  0  0  0  0  0  0  0  0  0  0
  -47.6466   55.9519   57.5793 C   0  0  0  0  0  0  0  0  0  0  0  0
  -47.8046   57.2439   56.7934 C   0  0  0  0  0  0  0  0  0  0  0  0
  -46.7509   58.2765   57.1393 C   0  0  0  0  0  0  0  0  0  0  0  0
  -38.7483   57.8204   60.9826 O   0  0  0  0  0  0  0  0  0  0  0  0
  -37.6031   58.6715   60.8796 C   0  0  0  0  0  0  0  0  0  0  0  0
  -39.3416   57.9845   60.2329 H   0  0  0  0  0  0  0  0  0  0  0  0
  -36.6626   58.4451   62.0234 C   0  0  0  0  0  0  0  0  0  0  0  0
  -35.4274   57.9980   61.9120 C   0  0  0  0  0  0  0  0  0  0  0  0
  -34.5084   57.7967   63.0719 C   0  0  0  0  0  0  0  0  0  0  0  0
  -35.2066   58.1309   64.3918 C   0  0  0  0  0  0  0  0  0  0  0  0
  -35.8327   56.9324   65.0862 C   0  0  0  0  0  0  0  0  0  0  0  0
  -37.3222   57.0713   65.3507 C   0  0  0  0  0  0  0  0  0  0  0  0
  -37.8262   58.5067   65.3128 C   0  0  0  0  0  0  0  0  0  0  0  0
  -39.3424   58.6208   65.2767 C   0  0  0  0  0  0  0  0  0  0  0  0
  -40.0187   57.5327   64.4614 C   0  0  0  0  0  0  0  0  0  0  0  0
  -41.1454   56.8243   65.1899 C   0  0  0  0  0  0  0  0  0  0  0  0
  -41.9029   55.8268   64.3303 C   0  0  0  0  0  0  0  0  0  0  0  0
  -41.0871   55.3136   63.1583 C   0  0  0  0  0  0  0  0  0  0  0  0
  -41.6999   55.5916   61.7991 C   0  0  0  0  0  0  0  0  0  0  0  0
  -41.6897   57.0659   61.4459 C   0  0  0  0  0  0  0  0  0  0  0  0
  -42.0816   57.3202   60.0050 C   0  0  0  0  0  0  0  0  0  0  0  0
  -38.2525   60.7308   62.1999 C   0  0  0  0  0  0  0  0  0  0  0  0
  -36.9594   60.8848   62.7957 O   0  0  0  0  0  0  0  0  0  0  0  0
  -36.5314   61.3746   65.5193 O   0  0  0  0  0  0  0  0  0  0  0  0
  -33.5349   63.7041   63.4903 O   0  0  0  0  0  0  0  0  0  0  0  0
  -36.0091   62.9168   62.2509 O   0  0  0  0  0  0  0  0  0  0  0  0
  -36.6856   62.1779   63.2508 C   0  0  0  0  0  0  0  0  0  0  0  0
  -35.8206   62.0652   64.4995 C   0  0  0  0  0  0  0  0  0  0  0  0
  -35.4239   63.4547   64.9818 C   0  0  0  0  0  0  0  0  0  0  0  0
  -34.7915   64.2633   63.8585 C   0  0  0  0  0  0  0  0  0  0  0  0
  -35.7182   64.2672   62.6452 C   0  0  0  0  0  0  0  0  0  0  0  0
  -36.7783   60.4923   65.2006 H   0  0  0  0  0  0  0  0  0  0  0  0
  -32.9446   63.7007   64.2600 H   0  0  0  0  0  0  0  0  0  0  0  0
  -34.3028   64.0684   60.6842 O   0  0  0  0  0  0  0  0  0  0  0  0
  -35.1185   64.9551   61.4412 C   0  0  0  0  0  0  0  0  0  0  0  0
  -33.9344   64.5401   59.9208 H   0  0  0  0  0  0  0  0  0  0  0  0
  -34.4306   63.2131   66.0279 O   0  0  0  0  0  0  0  0  0  0  0  0
  -33.9365   62.8618   68.3602 O   0  0  0  0  0  0  0  0  0  0  0  0
  -36.1923   63.7074   67.6451 O   0  0  0  0  0  0  0  0  0  0  0  0
  -34.2479   65.0635   67.5160 O   0  0  0  0  0  0  0  0  0  0  0  0
  -34.7857   63.6231   67.5211 S   0  0  0  0  0  0  0  0  0  0  0  0
  -34.2473   61.9433   68.3870 H   0  0  0  0  0  0  0  0  0  0  0  0
  -33.2817   65.0477   67.4321 H   0  0  0  0  0  0  0  0  0  0  0  0
  2  1  1  0  0  0
  2  4  1  0  0  0
  2  5  1  0  0  0
 47 48  1  0  0  0
 47  1  1  0  0  0
 48 52  1  0  0  0
  1 30  1  0  0  0
 29 30  1  0  0  0
 29 31  1  0  0  0
 30 32  1  0  0  0
  3  4  2  0  0  0
 32 33  2  0  0  0
 49 53  1  0  0  0
 49 57  1  0  0  0
 33 34  1  0  0  0
 62 54  1  0  0  0
 62 66  1  0  0  0
 34 35  1  0  0  0
 50 55  1  0  0  0
 50 58  1  0  0  0
 35 36  1  0  0  0
 51 52  1  0  0  0
 51 56  1  0  0  0
 36 37  1  0  0  0
 59 60  1  0  0  0
 59 61  1  0  0  0
 37 38  1  0  0  0
 63 66  1  0  0  0
 63 67  1  0  0  0
 38 39  1  0  0  0
 64 66  1  0  0  0
 39 40  1  0  0  0
 65 66  1  0  0  0
 65 68  1  0  0  0
 40 41  1  0  0  0
 41 42  1  0  0  0
 42 43  1  0  0  0
 43 44  1  0  0  0
 44 45  1  0  0  0
 45 46  1  0  0  0
  4  6  1  0  0  0
  6  7  1  0  0  0
  7  8  1  0  0  0
  8  9  1  0  0  0
  9 10  1  0  0  0
 10 11  1  0  0  0
 11 12  1  0  0  0
 12 13  1  0  0  0
 13 14  1  0  0  0
 14 15  1  0  0  0
 15 16  1  0  0  0
 16 17  1  0  0  0
 17 18  1  0  0  0
 18 19  1  0  0  0
 19 20  2  0  0  0
 20 21  1  0  0  0
 21 22  1  0  0  0
 22 23  1  0  0  0
 23 24  1  0  0  0
 24 25  1  0  0  0
 25 26  1  0  0  0
 26 27  1  0  0  0
 27 28  1  0  0  0
 52 53  1  0  0  0
 53 54  1  0  0  0
 54 55  1  0  0  0
 55 56  1  0  0  0
 56 60  1  0  0  0
M  CHG 1  64  -1
M  END
> <minimizedAffinity>
-8.05202

> <CNNscore>
0.0896708965

> <CNNaffinity>
7.3513298035

> <CNN_VS>
0.6592003107

> <CNNaffinity_variance>
1.3343721628

$$$$
