/media/chris/experiments/cd1a-new-docking/inputs/ligands/7ryn_ligand.pdb


 68 68  0  0  0  0  0  0  0  0999 V2000
  -32.3948   64.9716   64.3614 C   0  0  0  0  0  0  0  0  0  0  0  0
  -33.6523   64.3145   64.7051 N   0  0  0  0  0  0  0  0  0  0  0  0
  -34.4015   64.1217   62.5910 O   0  0  0  0  0  0  0  0  0  0  0  0
  -34.5562   63.9413   63.7954 C   0  0  0  0  0  0  0  0  0  0  0  0
  -33.8435   64.1377   65.6545 H   0  0  0  0  0  0  0  0  0  0  0  0
  -35.7917   63.2693   64.3407 C   0  0  0  0  0  0  0  0  0  0  0  0
  -36.0167   61.8858   63.7441 C   0  0  0  0  0  0  0  0  0  0  0  0
  -36.1246   60.8007   64.8034 C   0  0  0  0  0  0  0  0  0  0  0  0
  -37.3741   60.9004   65.6624 C   0  0  0  0  0  0  0  0  0  0  0  0
  -38.5250   60.0313   65.1776 C   0  0  0  0  0  0  0  0  0  0  0  0
  -39.7467   60.0569   66.0871 C   0  0  0  0  0  0  0  0  0  0  0  0
  -40.8986   59.1887   65.5974 C   0  0  0  0  0  0  0  0  0  0  0  0
  -42.1498   59.2445   66.4703 C   0  0  0  0  0  0  0  0  0  0  0  0
  -42.9381   57.9363   66.5121 C   0  0  0  0  0  0  0  0  0  0  0  0
  -44.0014   57.7981   65.4228 C   0  0  0  0  0  0  0  0  0  0  0  0
  -45.3846   58.2836   65.8570 C   0  0  0  0  0  0  0  0  0  0  0  0
  -46.2962   58.7425   64.7191 C   0  0  0  0  0  0  0  0  0  0  0  0
  -47.7760   58.8713   65.0901 C   0  0  0  0  0  0  0  0  0  0  0  0
  -48.3816   60.1667   64.6325 C   0  0  0  0  0  0  0  0  0  0  0  0
  -49.6257   60.3432   64.2244 C   0  0  0  0  0  0  0  0  0  0  0  0
  -50.6842   59.2857   64.1391 C   0  0  0  0  0  0  0  0  0  0  0  0
  -51.0465   58.8930   62.7053 C   0  0  0  0  0  0  0  0  0  0  0  0
  -49.8900   58.2588   61.9442 C   0  0  0  0  0  0  0  0  0  0  0  0
  -49.5917   58.9445   60.6156 C   0  0  0  0  0  0  0  0  0  0  0  0
  -49.4552   57.9944   59.4314 C   0  0  0  0  0  0  0  0  0  0  0  0
  -48.0335   57.5011   59.2019 C   0  0  0  0  0  0  0  0  0  0  0  0
  -47.6168   57.4616   57.7403 C   0  0  0  0  0  0  0  0  0  0  0  0
  -47.3098   56.0603   57.2526 C   0  0  0  0  0  0  0  0  0  0  0  0
  -30.4566   65.1353   65.7936 O   0  0  0  0  0  0  0  0  0  0  0  0
  -31.2286   64.2147   65.0171 C   0  0  0  0  0  0  0  0  0  0  0  0
  -31.0288   65.5656   66.4481 H   0  0  0  0  0  0  0  0  0  0  0  0
  -30.3756   63.5300   63.9937 C   0  0  0  0  0  0  0  0  0  0  0  0
  -30.8293   62.7914   63.0003 C   0  0  0  0  0  0  0  0  0  0  0  0
  -29.9527   62.1333   61.9859 C   0  0  0  0  0  0  0  0  0  0  0  0
  -30.4471   60.7214   61.6645 C   0  0  0  0  0  0  0  0  0  0  0  0
  -31.4591   60.1745   62.6581 C   0  0  0  0  0  0  0  0  0  0  0  0
  -32.5543   59.3278   62.0324 C   0  0  0  0  0  0  0  0  0  0  0  0
  -33.4522   58.6311   63.0444 C   0  0  0  0  0  0  0  0  0  0  0  0
  -34.3645   57.5805   62.4301 C   0  0  0  0  0  0  0  0  0  0  0  0
  -35.8400   57.8190   62.6987 C   0  0  0  0  0  0  0  0  0  0  0  0
  -36.5776   58.4837   61.5514 C   0  0  0  0  0  0  0  0  0  0  0  0
  -37.9715   57.9291   61.3124 C   0  0  0  0  0  0  0  0  0  0  0  0
  -38.4205   56.9655   62.3951 C   0  0  0  0  0  0  0  0  0  0  0  0
  -39.8086   57.2398   62.9413 C   0  0  0  0  0  0  0  0  0  0  0  0
  -40.8857   57.1217   61.8808 C   0  0  0  0  0  0  0  0  0  0  0  0
  -42.1391   57.8936   62.2382 C   0  0  0  0  0  0  0  0  0  0  0  0
  -32.4368   66.4262   64.7819 C   0  0  0  0  0  0  0  0  0  0  0  0
  -32.9587   67.1951   63.6923 O   0  0  0  0  0  0  0  0  0  0  0  0
  -31.1255   69.2471   64.2115 O   0  0  0  0  0  0  0  0  0  0  0  0
  -28.8179   66.1569   62.3016 O   0  0  0  0  0  0  0  0  0  0  0  0
  -31.6587   66.4367   61.9420 O   0  0  0  0  0  0  0  0  0  0  0  0
  -32.0065   67.5565   62.7348 C   0  0  0  0  0  0  0  0  0  0  0  0
  -30.7799   68.0865   63.4661 C   0  0  0  0  0  0  0  0  0  0  0  0
  -29.6799   68.4120   62.4636 C   0  0  0  0  0  0  0  0  0  0  0  0
  -29.3975   67.2231   61.5568 C   0  0  0  0  0  0  0  0  0  0  0  0
  -30.6991   66.7449   60.9183 C   0  0  0  0  0  0  0  0  0  0  0  0
  -31.8259   69.0274   64.8456 H   0  0  0  0  0  0  0  0  0  0  0  0
  -27.9906   66.4588   62.7082 H   0  0  0  0  0  0  0  0  0  0  0  0
  -29.2556   65.4562   59.4540 O   0  0  0  0  0  0  0  0  0  0  0  0
  -30.5294   65.4948   60.0871 C   0  0  0  0  0  0  0  0  0  0  0  0
  -29.1795   64.6434   58.9299 H   0  0  0  0  0  0  0  0  0  0  0  0
  -28.5019   68.6899   63.2849 O   0  0  0  0  0  0  0  0  0  0  0  0
  -26.6490   68.3532   61.7814 O   0  0  0  0  0  0  0  0  0  0  0  0
  -26.5465   70.1265   63.5590 O   0  0  0  0  0  0  0  0  0  0  0  0
  -27.9518   70.3393   61.6574 O   0  0  0  0  0  0  0  0  0  0  0  0
  -27.2345   69.3537   62.5945 S   0  0  0  0  0  0  0  0  0  0  0  0
  -26.1858   67.7112   62.3420 H   0  0  0  0  0  0  0  0  0  0  0  0
  -28.4373   69.8450   60.9786 H   0  0  0  0  0  0  0  0  0  0  0  0
  2  1  1  0  0  0
  2  4  1  0  0  0
  2  5  1  0  0  0
 47 48  1  0  0  0
 47  1  1  0  0  0
 48 52  1  0  0  0
  1 30  1  0  0  0
 29 30  1  0  0  0
 29 31  1  0  0  0
 30 32  1  0  0  0
  3  4  2  0  0  0
 32 33  2  0  0  0
 49 53  1  0  0  0
 49 57  1  0  0  0
 33 34  1  0  0  0
 62 54  1  0  0  0
 62 66  1  0  0  0
 34 35  1  0  0  0
 50 55  1  0  0  0
 50 58  1  0  0  0
 35 36  1  0  0  0
 51 52  1  0  0  0
 51 56  1  0  0  0
 36 37  1  0  0  0
 59 60  1  0  0  0
 59 61  1  0  0  0
 37 38  1  0  0  0
 63 66  1  0  0  0
 63 67  1  0  0  0
 38 39  1  0  0  0
 64 66  1  0  0  0
 39 40  1  0  0  0
 65 66  1  0  0  0
 65 68  1  0  0  0
 40 41  1  0  0  0
 41 42  1  0  0  0
 42 43  1  0  0  0
 43 44  1  0  0  0
 44 45  1  0  0  0
 45 46  1  0  0  0
  4  6  1  0  0  0
  6  7  1  0  0  0
  7  8  1  0  0  0
  8  9  1  0  0  0
  9 10  1  0  0  0
 10 11  1  0  0  0
 11 12  1  0  0  0
 12 13  1  0  0  0
 13 14  1  0  0  0
 14 15  1  0  0  0
 15 16  1  0  0  0
 16 17  1  0  0  0
 17 18  1  0  0  0
 18 19  1  0  0  0
 19 20  2  0  0  0
 20 21  1  0  0  0
 21 22  1  0  0  0
 22 23  1  0  0  0
 23 24  1  0  0  0
 24 25  1  0  0  0
 25 26  1  0  0  0
 26 27  1  0  0  0
 27 28  1  0  0  0
 52 53  1  0  0  0
 53 54  1  0  0  0
 54 55  1  0  0  0
 55 56  1  0  0  0
 56 60  1  0  0  0
M  CHG 1  64  -1
M  END
> <minimizedAffinity>
-8.71185

> <CNNscore>
0.5511952639

> <CNNaffinity>
7.1358833313

> <CNN_VS>
3.9332652092

> <CNNaffinity_variance>
0.6456481218

$$$$
/media/chris/experiments/cd1a-new-docking/inputs/ligands/7ryn_ligand.pdb


 68 68  0  0  0  0  0  0  0  0999 V2000
  -33.3890   63.2024   64.0764 C   0  0  0  0  0  0  0  0  0  0  0  0
  -34.4189   62.5182   64.8525 N   0  0  0  0  0  0  0  0  0  0  0  0
  -35.8118   64.2807   64.9987 O   0  0  0  0  0  0  0  0  0  0  0  0
  -35.5480   63.1090   65.2526 C   0  0  0  0  0  0  0  0  0  0  0  0
  -34.2740   61.5746   65.0928 H   0  0  0  0  0  0  0  0  0  0  0  0
  -36.4965   62.2387   66.0390 C   0  0  0  0  0  0  0  0  0  0  0  0
  -36.9847   61.0363   65.2413 C   0  0  0  0  0  0  0  0  0  0  0  0
  -38.2657   60.4406   65.8031 C   0  0  0  0  0  0  0  0  0  0  0  0
  -39.0427   59.5982   64.8052 C   0  0  0  0  0  0  0  0  0  0  0  0
  -39.3086   58.1761   65.2759 C   0  0  0  0  0  0  0  0  0  0  0  0
  -40.7684   57.7526   65.1749 C   0  0  0  0  0  0  0  0  0  0  0  0
  -41.7326   58.6846   65.8974 C   0  0  0  0  0  0  0  0  0  0  0  0
  -42.7945   57.9742   66.7329 C   0  0  0  0  0  0  0  0  0  0  0  0
  -44.0466   57.5860   65.9481 C   0  0  0  0  0  0  0  0  0  0  0  0
  -45.1939   58.5919   66.0405 C   0  0  0  0  0  0  0  0  0  0  0  0
  -46.4927   58.0939   65.4062 C   0  0  0  0  0  0  0  0  0  0  0  0
  -47.3448   59.1753   64.7418 C   0  0  0  0  0  0  0  0  0  0  0  0
  -48.3431   59.8711   65.6708 C   0  0  0  0  0  0  0  0  0  0  0  0
  -49.5088   58.9973   66.0340 C   0  0  0  0  0  0  0  0  0  0  0  0
  -50.7225   59.0635   65.5161 C   0  0  0  0  0  0  0  0  0  0  0  0
  -51.1791   60.0228   64.4591 C   0  0  0  0  0  0  0  0  0  0  0  0
  -51.3013   59.3937   63.0696 C   0  0  0  0  0  0  0  0  0  0  0  0
  -50.0602   59.5888   62.2090 C   0  0  0  0  0  0  0  0  0  0  0  0
  -49.5779   58.3050   61.5430 C   0  0  0  0  0  0  0  0  0  0  0  0
  -49.2576   58.4453   60.0593 C   0  0  0  0  0  0  0  0  0  0  0  0
  -48.8815   57.1326   59.3865 C   0  0  0  0  0  0  0  0  0  0  0  0
  -47.4979   57.1303   58.7563 C   0  0  0  0  0  0  0  0  0  0  0  0
  -47.4180   57.9836   57.5068 C   0  0  0  0  0  0  0  0  0  0  0  0
  -32.8313   62.6333   61.7961 O   0  0  0  0  0  0  0  0  0  0  0  0
  -32.6937   62.1920   63.1498 C   0  0  0  0  0  0  0  0  0  0  0  0
  -32.4623   63.5261   61.7079 H   0  0  0  0  0  0  0  0  0  0  0  0
  -33.2542   60.8138   63.3237 C   0  0  0  0  0  0  0  0  0  0  0  0
  -32.5458   59.7019   63.3237 C   0  0  0  0  0  0  0  0  0  0  0  0
  -33.1331   58.3420   63.5147 C   0  0  0  0  0  0  0  0  0  0  0  0
  -34.2052   58.3539   64.6063 C   0  0  0  0  0  0  0  0  0  0  0  0
  -35.5771   57.8972   64.1372 C   0  0  0  0  0  0  0  0  0  0  0  0
  -35.6776   57.6575   62.6404 C   0  0  0  0  0  0  0  0  0  0  0  0
  -36.9992   58.1013   62.0301 C   0  0  0  0  0  0  0  0  0  0  0  0
  -38.1198   57.0864   62.1959 C   0  0  0  0  0  0  0  0  0  0  0  0
  -39.4283   57.5092   61.5515 C   0  0  0  0  0  0  0  0  0  0  0  0
  -39.3631   58.8482   60.8407 C   0  0  0  0  0  0  0  0  0  0  0  0
  -40.5604   59.7447   61.1059 C   0  0  0  0  0  0  0  0  0  0  0  0
  -41.6597   59.0506   61.8883 C   0  0  0  0  0  0  0  0  0  0  0  0
  -42.5867   59.9908   62.6346 C   0  0  0  0  0  0  0  0  0  0  0  0
  -42.0872   61.4223   62.6353 C   0  0  0  0  0  0  0  0  0  0  0  0
  -43.1806   62.4186   62.3089 C   0  0  0  0  0  0  0  0  0  0  0  0
  -32.4096   63.8900   65.0050 C   0  0  0  0  0  0  0  0  0  0  0  0
  -31.1687   64.0543   64.3093 O   0  0  0  0  0  0  0  0  0  0  0  0
  -30.8080   66.6106   65.3938 O   0  0  0  0  0  0  0  0  0  0  0  0
  -28.2772   66.5161   61.9142 O   0  0  0  0  0  0  0  0  0  0  0  0
  -30.5888   64.8296   62.2137 O   0  0  0  0  0  0  0  0  0  0  0  0
  -31.1187   65.1779   63.4792 C   0  0  0  0  0  0  0  0  0  0  0  0
  -30.2363   66.2219   64.1513 C   0  0  0  0  0  0  0  0  0  0  0  0
  -30.0816   67.4331   63.2402 C   0  0  0  0  0  0  0  0  0  0  0  0
  -29.6084   67.0181   61.8548 C   0  0  0  0  0  0  0  0  0  0  0  0
  -30.5324   65.9368   61.3002 C   0  0  0  0  0  0  0  0  0  0  0  0
  -30.9014   65.8318   65.9645 H   0  0  0  0  0  0  0  0  0  0  0  0
  -27.6885   67.2018   62.2664 H   0  0  0  0  0  0  0  0  0  0  0  0
  -30.9411   65.7711   58.9139 O   0  0  0  0  0  0  0  0  0  0  0  0
  -30.0712   65.3848   59.9716 C   0  0  0  0  0  0  0  0  0  0  0  0
  -30.6173   65.4013   58.0776 H   0  0  0  0  0  0  0  0  0  0  0  0
  -29.0524   68.2498   63.8830 O   0  0  0  0  0  0  0  0  0  0  0  0
  -29.0071   70.6085   63.3911 O   0  0  0  0  0  0  0  0  0  0  0  0
  -29.1387   69.8008   65.7672 O   0  0  0  0  0  0  0  0  0  0  0  0
  -30.9734   69.6023   64.2735 O   0  0  0  0  0  0  0  0  0  0  0  0
  -29.4436   69.7039   64.3892 S   0  0  0  0  0  0  0  0  0  0  0  0
  -28.0421   70.6973   63.4350 H   0  0  0  0  0  0  0  0  0  0  0  0
  -31.2231   69.5340   63.3387 H   0  0  0  0  0  0  0  0  0  0  0  0
  2  1  1  0  0  0
  2  4  1  0  0  0
  2  5  1  0  0  0
 47 48  1  0  0  0
 47  1  1  0  0  0
 48 52  1  0  0  0
  1 30  1  0  0  0
 29 30  1  0  0  0
 29 31  1  0  0  0
 30 32  1  0  0  0
  3  4  2  0  0  0
 32 33  2  0  0  0
 49 53  1  0  0  0
 49 57  1  0  0  0
 33 34  1  0  0  0
 62 54  1  0  0  0
 62 66  1  0  0  0
 34 35  1  0  0  0
 50 55  1  0  0  0
 50 58  1  0  0  0
 35 36  1  0  0  0
 51 52  1  0  0  0
 51 56  1  0  0  0
 36 37  1  0  0  0
 59 60  1  0  0  0
 59 61  1  0  0  0
 37 38  1  0  0  0
 63 66  1  0  0  0
 63 67  1  0  0  0
 38 39  1  0  0  0
 64 66  1  0  0  0
 39 40  1  0  0  0
 65 66  1  0  0  0
 65 68  1  0  0  0
 40 41  1  0  0  0
 41 42  1  0  0  0
 42 43  1  0  0  0
 43 44  1  0  0  0
 44 45  1  0  0  0
 45 46  1  0  0  0
  4  6  1  0  0  0
  6  7  1  0  0  0
  7  8  1  0  0  0
  8  9  1  0  0  0
  9 10  1  0  0  0
 10 11  1  0  0  0
 11 12  1  0  0  0
 12 13  1  0  0  0
 13 14  1  0  0  0
 14 15  1  0  0  0
 15 16  1  0  0  0
 16 17  1  0  0  0
 17 18  1  0  0  0
 18 19  1  0  0  0
 19 20  2  0  0  0
 20 21  1  0  0  0
 21 22  1  0  0  0
 22 23  1  0  0  0
 23 24  1  0  0  0
 24 25  1  0  0  0
 25 26  1  0  0  0
 26 27  1  0  0  0
 27 28  1  0  0  0
 52 53  1  0  0  0
 53 54  1  0  0  0
 54 55  1  0  0  0
 55 56  1  0  0  0
 56 60  1  0  0  0
M  CHG 1  64  -1
M  END
> <minimizedAffinity>
-9.28086

> <CNNscore>
0.4237740934

> <CNNaffinity>
7.0985441208

> <CNN_VS>
3.0081791878

> <CNNaffinity_variance>
0.9998879433

$$$$
/media/chris/experiments/cd1a-new-docking/inputs/ligands/7ryn_ligand.pdb


 68 68  0  0  0  0  0  0  0  0999 V2000
  -33.8170   62.3307   64.2329 C   0  0  0  0  0  0  0  0  0  0  0  0
  -34.8757   61.6846   65.0029 N   0  0  0  0  0  0  0  0  0  0  0  0
  -36.3871   63.3343   64.7533 O   0  0  0  0  0  0  0  0  0  0  0  0
  -36.0761   62.2352   65.2030 C   0  0  0  0  0  0  0  0  0  0  0  0
  -34.6960   60.7992   65.3941 H   0  0  0  0  0  0  0  0  0  0  0  0
  -37.0430   61.4134   66.0186 C   0  0  0  0  0  0  0  0  0  0  0  0
  -37.7936   60.3885   65.1778 C   0  0  0  0  0  0  0  0  0  0  0  0
  -38.8541   59.6424   65.9714 C   0  0  0  0  0  0  0  0  0  0  0  0
  -40.2068   59.5768   65.2822 C   0  0  0  0  0  0  0  0  0  0  0  0
  -41.0876   58.4334   65.7632 C   0  0  0  0  0  0  0  0  0  0  0  0
  -42.3561   58.8854   66.4753 C   0  0  0  0  0  0  0  0  0  0  0  0
  -43.5011   57.8843   66.3910 C   0  0  0  0  0  0  0  0  0  0  0  0
  -44.7665   58.4231   65.7285 C   0  0  0  0  0  0  0  0  0  0  0  0
  -46.0613   57.8467   66.2993 C   0  0  0  0  0  0  0  0  0  0  0  0
  -46.8387   58.8011   67.2053 C   0  0  0  0  0  0  0  0  0  0  0  0
  -48.1636   59.2691   66.6028 C   0  0  0  0  0  0  0  0  0  0  0  0
  -48.9868   58.1760   65.9217 C   0  0  0  0  0  0  0  0  0  0  0  0
  -50.4894   58.4578   65.8381 C   0  0  0  0  0  0  0  0  0  0  0  0
  -50.8025   59.7508   65.1421 C   0  0  0  0  0  0  0  0  0  0  0  0
  -51.1548   59.8879   63.8761 C   0  0  0  0  0  0  0  0  0  0  0  0
  -51.3158   58.7794   62.8805 C   0  0  0  0  0  0  0  0  0  0  0  0
  -49.9902   58.2569   62.3228 C   0  0  0  0  0  0  0  0  0  0  0  0
  -50.1595   57.3814   61.0884 C   0  0  0  0  0  0  0  0  0  0  0  0
  -49.7929   58.0900   59.7892 C   0  0  0  0  0  0  0  0  0  0  0  0
  -48.8008   57.3319   58.9148 C   0  0  0  0  0  0  0  0  0  0  0  0
  -47.8404   58.2345   58.1531 C   0  0  0  0  0  0  0  0  0  0  0  0
  -46.9711   57.5052   57.1412 C   0  0  0  0  0  0  0  0  0  0  0  0
  -47.1962   56.0068   57.1423 C   0  0  0  0  0  0  0  0  0  0  0  0
  -32.7864   61.7610   62.1239 O   0  0  0  0  0  0  0  0  0  0  0  0
  -33.0401   61.2661   63.4418 C   0  0  0  0  0  0  0  0  0  0  0  0
  -32.3036   62.6004   62.1811 H   0  0  0  0  0  0  0  0  0  0  0  0
  -33.7859   59.9679   63.3923 C   0  0  0  0  0  0  0  0  0  0  0  0
  -33.3474   58.8631   62.8220 C   0  0  0  0  0  0  0  0  0  0  0  0
  -34.1094   57.5787   62.8024 C   0  0  0  0  0  0  0  0  0  0  0  0
  -35.2310   57.5883   63.8430 C   0  0  0  0  0  0  0  0  0  0  0  0
  -36.6304   57.5426   63.2512 C   0  0  0  0  0  0  0  0  0  0  0  0
  -36.7887   58.3279   61.9604 C   0  0  0  0  0  0  0  0  0  0  0  0
  -38.1733   58.9292   61.7679 C   0  0  0  0  0  0  0  0  0  0  0  0
  -38.7445   58.7135   60.3748 C   0  0  0  0  0  0  0  0  0  0  0  0
  -40.0357   59.4708   60.1190 C   0  0  0  0  0  0  0  0  0  0  0  0
  -40.5373   60.2590   61.3147 C   0  0  0  0  0  0  0  0  0  0  0  0
  -41.8987   59.8121   61.8192 C   0  0  0  0  0  0  0  0  0  0  0  0
  -42.1664   58.3381   61.5778 C   0  0  0  0  0  0  0  0  0  0  0  0
  -42.8273   57.6230   62.7406 C   0  0  0  0  0  0  0  0  0  0  0  0
  -42.0220   56.4340   63.2270 C   0  0  0  0  0  0  0  0  0  0  0  0
  -40.6483   56.3649   62.5924 C   0  0  0  0  0  0  0  0  0  0  0  0
  -32.9150   63.1251   65.1547 C   0  0  0  0  0  0  0  0  0  0  0  0
  -32.8960   64.4845   64.7047 O   0  0  0  0  0  0  0  0  0  0  0  0
  -32.4184   67.1025   63.8334 O   0  0  0  0  0  0  0  0  0  0  0  0
  -28.5356   65.2502   63.9575 O   0  0  0  0  0  0  0  0  0  0  0  0
  -30.9741   63.7535   63.6556 O   0  0  0  0  0  0  0  0  0  0  0  0
  -31.9943   64.7345   63.6661 C   0  0  0  0  0  0  0  0  0  0  0  0
  -31.3943   66.1173   63.8852 C   0  0  0  0  0  0  0  0  0  0  0  0
  -30.3387   66.3978   62.8231 C   0  0  0  0  0  0  0  0  0  0  0  0
  -29.3115   65.2768   62.7639 C   0  0  0  0  0  0  0  0  0  0  0  0
  -30.0239   63.9372   62.5940 C   0  0  0  0  0  0  0  0  0  0  0  0
  -33.0837   66.9133   64.5135 H   0  0  0  0  0  0  0  0  0  0  0  0
  -28.0821   66.1006   64.0673 H   0  0  0  0  0  0  0  0  0  0  0  0
  -29.6201   61.6352   61.9413 O   0  0  0  0  0  0  0  0  0  0  0  0
  -29.0848   62.7546   62.6377 C   0  0  0  0  0  0  0  0  0  0  0  0
  -28.9942   60.8955   61.9885 H   0  0  0  0  0  0  0  0  0  0  0  0
  -29.6892   67.6318   63.2647 O   0  0  0  0  0  0  0  0  0  0  0  0
  -28.6490   68.4118   61.2357 O   0  0  0  0  0  0  0  0  0  0  0  0
  -29.4744   70.0449   62.9582 O   0  0  0  0  0  0  0  0  0  0  0  0
  -30.9681   68.7791   61.6154 O   0  0  0  0  0  0  0  0  0  0  0  0
  -29.5612   68.8333   62.2333 S   0  0  0  0  0  0  0  0  0  0  0  0
  -27.7472   68.4336   61.5923 H   0  0  0  0  0  0  0  0  0  0  0  0
  -31.0669   67.9586   61.1077 H   0  0  0  0  0  0  0  0  0  0  0  0
  2  1  1  0  0  0
  2  4  1  0  0  0
  2  5  1  0  0  0
 47 48  1  0  0  0
 47  1  1  0  0  0
 48 52  1  0  0  0
  1 30  1  0  0  0
 29 30  1  0  0  0
 29 31  1  0  0  0
 30 32  1  0  0  0
  3  4  2  0  0  0
 32 33  2  0  0  0
 49 53  1  0  0  0
 49 57  1  0  0  0
 33 34  1  0  0  0
 62 54  1  0  0  0
 62 66  1  0  0  0
 34 35  1  0  0  0
 50 55  1  0  0  0
 50 58  1  0  0  0
 35 36  1  0  0  0
 51 52  1  0  0  0
 51 56  1  0  0  0
 36 37  1  0  0  0
 59 60  1  0  0  0
 59 61  1  0  0  0
 37 38  1  0  0  0
 63 66  1  0  0  0
 63 67  1  0  0  0
 38 39  1  0  0  0
 64 66  1  0  0  0
 39 40  1  0  0  0
 65 66  1  0  0  0
 65 68  1  0  0  0
 40 41  1  0  0  0
 41 42  1  0  0  0
 42 43  1  0  0  0
 43 44  1  0  0  0
 44 45  1  0  0  0
 45 46  1  0  0  0
  4  6  1  0  0  0
  6  7  1  0  0  0
  7  8  1  0  0  0
  8  9  1  0  0  0
  9 10  1  0  0  0
 10 11  1  0  0  0
 11 12  1  0  0  0
 12 13  1  0  0  0
 13 14  1  0  0  0
 14 15  1  0  0  0
 15 16  1  0  0  0
 16 17  1  0  0  0
 17 18  1  0  0  0
 18 19  1  0  0  0
 19 20  2  0  0  0
 20 21  1  0  0  0
 21 22  1  0  0  0
 22 23  1  0  0  0
 23 24  1  0  0  0
 24 25  1  0  0  0
 25 26  1  0  0  0
 26 27  1  0  0  0
 27 28  1  0  0  0
 52 53  1  0  0  0
 53 54  1  0  0  0
 54 55  1  0  0  0
 55 56  1  0  0  0
 56 60  1  0  0  0
M  CHG 1  64  -1
M  END
> <minimizedAffinity>
-9.03971

> <CNNscore>
0.4035623968

> <CNNaffinity>
7.2854700089

> <CNN_VS>
2.9401416779

> <CNNaffinity_variance>
0.7097360492

$$$$
/media/chris/experiments/cd1a-new-docking/inputs/ligands/7ryn_ligand.pdb


 68 68  0  0  0  0  0  0  0  0999 V2000
  -40.2387   58.9624   65.5620 C   0  0  0  0  0  0  0  0  0  0  0  0
  -40.2341   58.4426   64.1977 N   0  0  0  0  0  0  0  0  0  0  0  0
  -41.3008   56.5188   64.6763 O   0  0  0  0  0  0  0  0  0  0  0  0
  -40.7643   57.2638   63.8613 C   0  0  0  0  0  0  0  0  0  0  0  0
  -39.8196   58.9881   63.4907 H   0  0  0  0  0  0  0  0  0  0  0  0
  -40.6708   56.8995   62.4005 C   0  0  0  0  0  0  0  0  0  0  0  0
  -41.7790   57.5316   61.5680 C   0  0  0  0  0  0  0  0  0  0  0  0
  -41.2440   58.3504   60.4042 C   0  0  0  0  0  0  0  0  0  0  0  0
  -39.9902   59.1433   60.7336 C   0  0  0  0  0  0  0  0  0  0  0  0
  -38.8671   58.9663   59.7228 C   0  0  0  0  0  0  0  0  0  0  0  0
  -37.5357   58.5584   60.3406 C   0  0  0  0  0  0  0  0  0  0  0  0
  -37.6730   57.7666   61.6347 C   0  0  0  0  0  0  0  0  0  0  0  0
  -36.3659   57.5684   62.3980 C   0  0  0  0  0  0  0  0  0  0  0  0
  -36.5286   57.5543   63.9171 C   0  0  0  0  0  0  0  0  0  0  0  0
  -35.2735   57.9472   64.6961 C   0  0  0  0  0  0  0  0  0  0  0  0
  -34.3563   58.9020   63.9314 C   0  0  0  0  0  0  0  0  0  0  0  0
  -32.8630   58.5965   64.0470 C   0  0  0  0  0  0  0  0  0  0  0  0
  -32.0592   58.8124   62.7620 C   0  0  0  0  0  0  0  0  0  0  0  0
  -32.2947   60.1614   62.1463 C   0  0  0  0  0  0  0  0  0  0  0  0
  -31.3628   61.0222   61.7775 C   0  0  0  0  0  0  0  0  0  0  0  0
  -29.8821   60.8238   61.8968 C   0  0  0  0  0  0  0  0  0  0  0  0
  -29.2019   61.8220   62.8361 C   0  0  0  0  0  0  0  0  0  0  0  0
  -29.8608   63.1948   62.8352 C   0  0  0  0  0  0  0  0  0  0  0  0
  -29.4566   64.0606   64.0232 C   0  0  0  0  0  0  0  0  0  0  0  0
  -29.0454   65.4822   63.6575 C   0  0  0  0  0  0  0  0  0  0  0  0
  -29.8569   66.5568   64.3673 C   0  0  0  0  0  0  0  0  0  0  0  0
  -30.6011   66.0635   65.5979 C   0  0  0  0  0  0  0  0  0  0  0  0
  -32.1063   66.1632   65.4558 C   0  0  0  0  0  0  0  0  0  0  0  0
  -40.8447   61.1716   66.3279 O   0  0  0  0  0  0  0  0  0  0  0  0
  -41.3697   59.9927   65.7108 C   0  0  0  0  0  0  0  0  0  0  0  0
  -40.1059   61.5117   65.7991 H   0  0  0  0  0  0  0  0  0  0  0  0
  -42.5148   59.4385   66.5018 C   0  0  0  0  0  0  0  0  0  0  0  0
  -43.4950   58.7088   66.0070 C   0  0  0  0  0  0  0  0  0  0  0  0
  -44.6161   58.1576   66.8256 C   0  0  0  0  0  0  0  0  0  0  0  0
  -45.8221   57.8163   65.9481 C   0  0  0  0  0  0  0  0  0  0  0  0
  -46.8566   58.9259   65.8520 C   0  0  0  0  0  0  0  0  0  0  0  0
  -47.4062   59.1483   64.4533 C   0  0  0  0  0  0  0  0  0  0  0  0
  -48.4368   60.2644   64.3637 C   0  0  0  0  0  0  0  0  0  0  0  0
  -49.4650   60.0592   63.2618 C   0  0  0  0  0  0  0  0  0  0  0  0
  -50.0478   58.6575   63.2222 C   0  0  0  0  0  0  0  0  0  0  0  0
  -49.8996   57.9640   61.8808 C   0  0  0  0  0  0  0  0  0  0  0  0
  -49.7554   58.9181   60.7074 C   0  0  0  0  0  0  0  0  0  0  0  0
  -49.4809   58.2075   59.3951 C   0  0  0  0  0  0  0  0  0  0  0  0
  -48.1391   57.5033   59.3330 C   0  0  0  0  0  0  0  0  0  0  0  0
  -47.8594   56.9018   57.9696 C   0  0  0  0  0  0  0  0  0  0  0  0
  -47.0059   57.8033   57.1017 C   0  0  0  0  0  0  0  0  0  0  0  0
  -38.8845   59.5519   65.8979 C   0  0  0  0  0  0  0  0  0  0  0  0
  -38.5973   60.5882   64.9522 O   0  0  0  0  0  0  0  0  0  0  0  0
  -36.9351   60.8878   62.7186 O   0  0  0  0  0  0  0  0  0  0  0  0
  -36.5007   64.5583   64.9233 O   0  0  0  0  0  0  0  0  0  0  0  0
  -37.3083   62.0836   66.1486 O   0  0  0  0  0  0  0  0  0  0  0  0
  -37.3244   61.1510   65.0839 C   0  0  0  0  0  0  0  0  0  0  0  0
  -36.9764   61.8422   63.7719 C   0  0  0  0  0  0  0  0  0  0  0  0
  -35.6312   62.5462   63.8985 C   0  0  0  0  0  0  0  0  0  0  0  0
  -35.6074   63.4654   65.1108 C   0  0  0  0  0  0  0  0  0  0  0  0
  -36.0194   62.6832   66.3554 C   0  0  0  0  0  0  0  0  0  0  0  0
  -37.7962   60.4467   62.6480 H   0  0  0  0  0  0  0  0  0  0  0  0
  -36.2405   65.0566   64.1329 H   0  0  0  0  0  0  0  0  0  0  0  0
  -36.5160   62.7844   68.7286 O   0  0  0  0  0  0  0  0  0  0  0  0
  -36.1316   63.5466   67.5901 C   0  0  0  0  0  0  0  0  0  0  0  0
  -36.5786   63.3670   69.5016 H   0  0  0  0  0  0  0  0  0  0  0  0
  -35.5159   63.3446   62.6784 O   0  0  0  0  0  0  0  0  0  0  0  0
  -33.9983   64.0627   60.9497 O   0  0  0  0  0  0  0  0  0  0  0  0
  -33.1543   63.5579   63.2622 O   0  0  0  0  0  0  0  0  0  0  0  0
  -34.4689   65.4802   62.8007 O   0  0  0  0  0  0  0  0  0  0  0  0
  -34.1273   64.0475   62.3596 S   0  0  0  0  0  0  0  0  0  0  0  0
  -33.7820   63.1709   60.6351 H   0  0  0  0  0  0  0  0  0  0  0  0
  -35.1363   65.8521   62.2031 H   0  0  0  0  0  0  0  0  0  0  0  0
  2  1  1  0  0  0
  2  4  1  0  0  0
  2  5  1  0  0  0
 47 48  1  0  0  0
 47  1  1  0  0  0
 48 52  1  0  0  0
  1 30  1  0  0  0
 29 30  1  0  0  0
 29 31  1  0  0  0
 30 32  1  0  0  0
  3  4  2  0  0  0
 32 33  2  0  0  0
 49 53  1  0  0  0
 49 57  1  0  0  0
 33 34  1  0  0  0
 62 54  1  0  0  0
 62 66  1  0  0  0
 34 35  1  0  0  0
 50 55  1  0  0  0
 50 58  1  0  0  0
 35 36  1  0  0  0
 51 52  1  0  0  0
 51 56  1  0  0  0
 36 37  1  0  0  0
 59 60  1  0  0  0
 59 61  1  0  0  0
 37 38  1  0  0  0
 63 66  1  0  0  0
 63 67  1  0  0  0
 38 39  1  0  0  0
 64 66  1  0  0  0
 39 40  1  0  0  0
 65 66  1  0  0  0
 65 68  1  0  0  0
 40 41  1  0  0  0
 41 42  1  0  0  0
 42 43  1  0  0  0
 43 44  1  0  0  0
 44 45  1  0  0  0
 45 46  1  0  0  0
  4  6  1  0  0  0
  6  7  1  0  0  0
  7  8  1  0  0  0
  8  9  1  0  0  0
  9 10  1  0  0  0
 10 11  1  0  0  0
 11 12  1  0  0  0
 12 13  1  0  0  0
 13 14  1  0  0  0
 14 15  1  0  0  0
 15 16  1  0  0  0
 16 17  1  0  0  0
 17 18  1  0  0  0
 18 19  1  0  0  0
 19 20  2  0  0  0
 20 21  1  0  0  0
 21 22  1  0  0  0
 22 23  1  0  0  0
 23 24  1  0  0  0
 24 25  1  0  0  0
 25 26  1  0  0  0
 26 27  1  0  0  0
 27 28  1  0  0  0
 52 53  1  0  0  0
 53 54  1  0  0  0
 54 55  1  0  0  0
 55 56  1  0  0  0
 56 60  1  0  0  0
M  CHG 1  64  -1
M  END
> <minimizedAffinity>
-9.79649

> <CNNscore>
0.3586615324

> <CNNaffinity>
7.5047898293

> <CNN_VS>
2.6916794777

> <CNNaffinity_variance>
1.9593713284

$$$$
/media/chris/experiments/cd1a-new-docking/inputs/ligands/7ryn_ligand.pdb


 68 68  0  0  0  0  0  0  0  0999 V2000
  -34.8631   65.3950   62.9496 C   0  0  0  0  0  0  0  0  0  0  0  0
  -35.6765   64.6450   63.9020 N   0  0  0  0  0  0  0  0  0  0  0  0
  -34.0370   64.3283   65.4119 O   0  0  0  0  0  0  0  0  0  0  0  0
  -35.2015   64.1708   65.0568 C   0  0  0  0  0  0  0  0  0  0  0  0
  -36.6219   64.4806   63.6822 H   0  0  0  0  0  0  0  0  0  0  0  0
  -36.1947   63.4268   65.9144 C   0  0  0  0  0  0  0  0  0  0  0  0
  -36.0077   61.9163   65.8494 C   0  0  0  0  0  0  0  0  0  0  0  0
  -37.1318   61.2178   65.1014 C   0  0  0  0  0  0  0  0  0  0  0  0
  -38.1393   60.5290   66.0067 C   0  0  0  0  0  0  0  0  0  0  0  0
  -39.4062   60.0843   65.2912 C   0  0  0  0  0  0  0  0  0  0  0  0
  -40.6687   60.2019   66.1355 C   0  0  0  0  0  0  0  0  0  0  0  0
  -41.4618   58.9058   66.2432 C   0  0  0  0  0  0  0  0  0  0  0  0
  -42.9568   59.0961   66.4860 C   0  0  0  0  0  0  0  0  0  0  0  0
  -43.8468   58.4424   65.4301 C   0  0  0  0  0  0  0  0  0  0  0  0
  -45.1424   57.8399   65.9730 C   0  0  0  0  0  0  0  0  0  0  0  0
  -46.4019   58.5232   65.4399 C   0  0  0  0  0  0  0  0  0  0  0  0
  -47.6880   58.1913   66.1966 C   0  0  0  0  0  0  0  0  0  0  0  0
  -48.6442   59.3709   66.3917 C   0  0  0  0  0  0  0  0  0  0  0  0
  -50.0542   59.0522   65.9858 C   0  0  0  0  0  0  0  0  0  0  0  0
  -50.6161   59.3466   64.8268 C   0  0  0  0  0  0  0  0  0  0  0  0
  -49.9576   60.0556   63.6824 C   0  0  0  0  0  0  0  0  0  0  0  0
  -50.4784   59.6234   62.3101 C   0  0  0  0  0  0  0  0  0  0  0  0
  -50.8347   58.1445   62.2397 C   0  0  0  0  0  0  0  0  0  0  0  0
  -50.2339   57.4342   61.0319 C   0  0  0  0  0  0  0  0  0  0  0  0
  -49.9304   58.3468   59.8493 C   0  0  0  0  0  0  0  0  0  0  0  0
  -48.6959   57.9362   59.0590 C   0  0  0  0  0  0  0  0  0  0  0  0
  -48.1864   56.5405   59.3817 C   0  0  0  0  0  0  0  0  0  0  0  0
  -47.1601   56.0426   58.3843 C   0  0  0  0  0  0  0  0  0  0  0  0
  -35.7566   63.9198   61.2584 O   0  0  0  0  0  0  0  0  0  0  0  0
  -34.5422   64.5027   61.7398 C   0  0  0  0  0  0  0  0  0  0  0  0
  -36.3877   64.6229   61.0385 H   0  0  0  0  0  0  0  0  0  0  0  0
  -33.5419   63.4441   62.0902 C   0  0  0  0  0  0  0  0  0  0  0  0
  -33.8351   62.2600   62.5901 C   0  0  0  0  0  0  0  0  0  0  0  0
  -32.8146   61.2190   62.9154 C   0  0  0  0  0  0  0  0  0  0  0  0
  -33.4387   60.0627   63.6993 C   0  0  0  0  0  0  0  0  0  0  0  0
  -33.4725   58.7442   62.9435 C   0  0  0  0  0  0  0  0  0  0  0  0
  -34.6024   57.8164   63.3561 C   0  0  0  0  0  0  0  0  0  0  0  0
  -35.9919   58.3763   63.0881 C   0  0  0  0  0  0  0  0  0  0  0  0
  -36.4241   58.2674   61.6339 C   0  0  0  0  0  0  0  0  0  0  0  0
  -37.8825   57.8829   61.4563 C   0  0  0  0  0  0  0  0  0  0  0  0
  -38.5768   57.4800   62.7439 C   0  0  0  0  0  0  0  0  0  0  0  0
  -39.8606   56.6962   62.5316 C   0  0  0  0  0  0  0  0  0  0  0  0
  -41.0792   57.3828   63.1197 C   0  0  0  0  0  0  0  0  0  0  0  0
  -42.1034   57.8281   62.0935 C   0  0  0  0  0  0  0  0  0  0  0  0
  -41.7717   57.3494   60.6937 C   0  0  0  0  0  0  0  0  0  0  0  0
  -41.3400   58.4789   59.7813 C   0  0  0  0  0  0  0  0  0  0  0  0
  -33.6089   65.9068   63.6274 C   0  0  0  0  0  0  0  0  0  0  0  0
  -32.9457   66.8039   62.7296 O   0  0  0  0  0  0  0  0  0  0  0  0
  -31.1173   68.8363   62.1234 O   0  0  0  0  0  0  0  0  0  0  0  0
  -29.0615   66.2954   64.9233 O   0  0  0  0  0  0  0  0  0  0  0  0
  -31.2181   65.3677   63.2601 O   0  0  0  0  0  0  0  0  0  0  0  0
  -31.5983   66.5048   62.5078 C   0  0  0  0  0  0  0  0  0  0  0  0
  -30.7718   67.7141   62.9255 C   0  0  0  0  0  0  0  0  0  0  0  0
  -29.2876   67.4012   62.7829 C   0  0  0  0  0  0  0  0  0  0  0  0
  -28.9267   66.1181   63.5169 C   0  0  0  0  0  0  0  0  0  0  0  0
  -29.8470   64.9893   63.0590 C   0  0  0  0  0  0  0  0  0  0  0  0
  -32.0635   69.0255   62.2224 H   0  0  0  0  0  0  0  0  0  0  0  0
  -28.4775   67.0122   65.2162 H   0  0  0  0  0  0  0  0  0  0  0  0
  -30.3295   63.7040   65.0599 O   0  0  0  0  0  0  0  0  0  0  0  0
  -29.6324   63.7017   63.8194 C   0  0  0  0  0  0  0  0  0  0  0  0
  -30.1709   62.8656   65.5215 H   0  0  0  0  0  0  0  0  0  0  0  0
  -28.6092   68.5323   63.4152 O   0  0  0  0  0  0  0  0  0  0  0  0
  -26.7743   68.3163   61.8680 O   0  0  0  0  0  0  0  0  0  0  0  0
  -26.9042   70.2804   63.4302 O   0  0  0  0  0  0  0  0  0  0  0  0
  -28.3844   70.0445   61.5891 O   0  0  0  0  0  0  0  0  0  0  0  0
  -27.4881   69.3010   62.5930 S   0  0  0  0  0  0  0  0  0  0  0  0
  -26.1960   67.8255   62.4727 H   0  0  0  0  0  0  0  0  0  0  0  0
  -28.8046   69.4037   60.9945 H   0  0  0  0  0  0  0  0  0  0  0  0
  2  1  1  0  0  0
  2  4  1  0  0  0
  2  5  1  0  0  0
 47 48  1  0  0  0
 47  1  1  0  0  0
 48 52  1  0  0  0
  1 30  1  0  0  0
 29 30  1  0  0  0
 29 31  1  0  0  0
 30 32  1  0  0  0
  3  4  2  0  0  0
 32 33  2  0  0  0
 49 53  1  0  0  0
 49 57  1  0  0  0
 33 34  1  0  0  0
 62 54  1  0  0  0
 62 66  1  0  0  0
 34 35  1  0  0  0
 50 55  1  0  0  0
 50 58  1  0  0  0
 35 36  1  0  0  0
 51 52  1  0  0  0
 51 56  1  0  0  0
 36 37  1  0  0  0
 59 60  1  0  0  0
 59 61  1  0  0  0
 37 38  1  0  0  0
 63 66  1  0  0  0
 63 67  1  0  0  0
 38 39  1  0  0  0
 64 66  1  0  0  0
 39 40  1  0  0  0
 65 66  1  0  0  0
 65 68  1  0  0  0
 40 41  1  0  0  0
 41 42  1  0  0  0
 42 43  1  0  0  0
 43 44  1  0  0  0
 44 45  1  0  0  0
 45 46  1  0  0  0
  4  6  1  0  0  0
  6  7  1  0  0  0
  7  8  1  0  0  0
  8  9  1  0  0  0
  9 10  1  0  0  0
 10 11  1  0  0  0
 11 12  1  0  0  0
 12 13  1  0  0  0
 13 14  1  0  0  0
 14 15  1  0  0  0
 15 16  1  0  0  0
 16 17  1  0  0  0
 17 18  1  0  0  0
 18 19  1  0  0  0
 19 20  2  0  0  0
 20 21  1  0  0  0
 21 22  1  0  0  0
 22 23  1  0  0  0
 23 24  1  0  0  0
 24 25  1  0  0  0
 25 26  1  0  0  0
 26 27  1  0  0  0
 27 28  1  0  0  0
 52 53  1  0  0  0
 53 54  1  0  0  0
 54 55  1  0  0  0
 55 56  1  0  0  0
 56 60  1  0  0  0
M  CHG 1  64  -1
M  END
> <minimizedAffinity>
-8.71456

> <CNNscore>
0.3510895371

> <CNNaffinity>
6.9218750000

> <CNN_VS>
2.4301979542

> <CNNaffinity_variance>
0.7816532254

$$$$
/media/chris/experiments/cd1a-new-docking/inputs/ligands/7ryn_ligand.pdb


 68 68  0  0  0  0  0  0  0  0999 V2000
  -32.6548   64.2456   63.6325 C   0  0  0  0  0  0  0  0  0  0  0  0
  -33.8448   63.6669   64.2493 N   0  0  0  0  0  0  0  0  0  0  0  0
  -35.2786   64.3032   62.6345 O   0  0  0  0  0  0  0  0  0  0  0  0
  -35.0618   63.7404   63.7037 C   0  0  0  0  0  0  0  0  0  0  0  0
  -33.7453   63.1995   65.1099 H   0  0  0  0  0  0  0  0  0  0  0  0
  -36.1681   63.0760   64.4848 C   0  0  0  0  0  0  0  0  0  0  0  0
  -36.5951   61.7456   63.8780 C   0  0  0  0  0  0  0  0  0  0  0  0
  -36.5700   60.6067   64.8847 C   0  0  0  0  0  0  0  0  0  0  0  0
  -37.8551   60.4612   65.6825 C   0  0  0  0  0  0  0  0  0  0  0  0
  -39.0135   59.8838   64.8830 C   0  0  0  0  0  0  0  0  0  0  0  0
  -39.4095   58.4722   65.2969 C   0  0  0  0  0  0  0  0  0  0  0  0
  -40.9039   58.1955   65.1943 C   0  0  0  0  0  0  0  0  0  0  0  0
  -41.7788   59.1196   66.0376 C   0  0  0  0  0  0  0  0  0  0  0  0
  -43.0754   58.4748   66.5251 C   0  0  0  0  0  0  0  0  0  0  0  0
  -44.2009   58.4465   65.4913 C   0  0  0  0  0  0  0  0  0  0  0  0
  -45.5957   58.3639   66.1118 C   0  0  0  0  0  0  0  0  0  0  0  0
  -46.7520   58.5860   65.1370 C   0  0  0  0  0  0  0  0  0  0  0  0
  -47.8472   59.5302   65.6398 C   0  0  0  0  0  0  0  0  0  0  0  0
  -48.3242   60.4851   64.5839 C   0  0  0  0  0  0  0  0  0  0  0  0
  -49.3930   60.3329   63.8222 C   0  0  0  0  0  0  0  0  0  0  0  0
  -50.3463   59.1773   63.8612 C   0  0  0  0  0  0  0  0  0  0  0  0
  -50.6653   58.5968   62.4818 C   0  0  0  0  0  0  0  0  0  0  0  0
  -49.4279   58.3656   61.6249 C   0  0  0  0  0  0  0  0  0  0  0  0
  -49.7371   57.7271   60.2755 C   0  0  0  0  0  0  0  0  0  0  0  0
  -48.9998   56.4192   60.0121 C   0  0  0  0  0  0  0  0  0  0  0  0
  -48.0853   56.4651   58.7961 C   0  0  0  0  0  0  0  0  0  0  0  0
  -47.8196   57.8666   58.2699 C   0  0  0  0  0  0  0  0  0  0  0  0
  -47.0192   57.8712   56.9834 C   0  0  0  0  0  0  0  0  0  0  0  0
  -30.2475   64.0485   63.6575 O   0  0  0  0  0  0  0  0  0  0  0  0
  -31.4561   63.3113   63.8628 C   0  0  0  0  0  0  0  0  0  0  0  0
  -30.2329   64.8168   64.2496 H   0  0  0  0  0  0  0  0  0  0  0  0
  -31.5134   62.1149   62.9632 C   0  0  0  0  0  0  0  0  0  0  0  0
  -32.3757   61.1239   63.0740 C   0  0  0  0  0  0  0  0  0  0  0  0
  -32.4169   59.9505   62.1507 C   0  0  0  0  0  0  0  0  0  0  0  0
  -32.4412   58.6357   62.9328 C   0  0  0  0  0  0  0  0  0  0  0  0
  -33.7612   58.3500   63.6304 C   0  0  0  0  0  0  0  0  0  0  0  0
  -34.7036   57.4563   62.8423 C   0  0  0  0  0  0  0  0  0  0  0  0
  -36.0619   57.2577   63.4992 C   0  0  0  0  0  0  0  0  0  0  0  0
  -37.2297   57.3585   62.5299 C   0  0  0  0  0  0  0  0  0  0  0  0
  -37.2851   58.6741   61.7735 C   0  0  0  0  0  0  0  0  0  0  0  0
  -37.8894   58.5643   60.3859 C   0  0  0  0  0  0  0  0  0  0  0  0
  -38.9266   59.6313   60.0803 C   0  0  0  0  0  0  0  0  0  0  0  0
  -40.2203   59.4389   60.8496 C   0  0  0  0  0  0  0  0  0  0  0  0
  -40.6015   60.6088   61.7363 C   0  0  0  0  0  0  0  0  0  0  0  0
  -42.0741   60.9567   61.6406 C   0  0  0  0  0  0  0  0  0  0  0  0
  -42.8496   60.5423   62.8740 C   0  0  0  0  0  0  0  0  0  0  0  0
  -32.4073   65.6346   64.1835 C   0  0  0  0  0  0  0  0  0  0  0  0
  -32.4913   66.5697   63.1022 O   0  0  0  0  0  0  0  0  0  0  0  0
  -32.1536   65.7400   60.4492 O   0  0  0  0  0  0  0  0  0  0  0  0
  -30.3671   69.6515   60.6227 O   0  0  0  0  0  0  0  0  0  0  0  0
  -30.6563   67.9598   62.9318 O   0  0  0  0  0  0  0  0  0  0  0  0
  -31.2818   66.7905   62.4370 C   0  0  0  0  0  0  0  0  0  0  0  0
  -31.5814   66.9411   60.9511 C   0  0  0  0  0  0  0  0  0  0  0  0
  -30.3003   67.2708   60.1954 C   0  0  0  0  0  0  0  0  0  0  0  0
  -29.5953   68.4700   60.8120 C   0  0  0  0  0  0  0  0  0  0  0  0
  -29.3922   68.2327   62.3063 C   0  0  0  0  0  0  0  0  0  0  0  0
  -32.9676   65.5408   60.9376 H   0  0  0  0  0  0  0  0  0  0  0  0
  -30.4973   69.8041   59.6737 H   0  0  0  0  0  0  0  0  0  0  0  0
  -29.8050   70.3303   63.4544 O   0  0  0  0  0  0  0  0  0  0  0  0
  -28.7978   69.4230   63.0220 C   0  0  0  0  0  0  0  0  0  0  0  0
  -29.3908   71.0808   63.9086 H   0  0  0  0  0  0  0  0  0  0  0  0
  -30.7453   67.6084   58.8436 O   0  0  0  0  0  0  0  0  0  0  0  0
  -30.2841   65.4044   57.9853 O   0  0  0  0  0  0  0  0  0  0  0  0
  -28.9902   67.3940   57.1593 O   0  0  0  0  0  0  0  0  0  0  0  0
  -31.2694   67.0568   56.5868 O   0  0  0  0  0  0  0  0  0  0  0  0
  -30.1711   66.7686   57.6235 S   0  0  0  0  0  0  0  0  0  0  0  0
  -29.6034   65.1863   58.6411 H   0  0  0  0  0  0  0  0  0  0  0  0
  -32.0990   66.6422   56.8709 H   0  0  0  0  0  0  0  0  0  0  0  0
  2  1  1  0  0  0
  2  4  1  0  0  0
  2  5  1  0  0  0
 47 48  1  0  0  0
 47  1  1  0  0  0
 48 52  1  0  0  0
  1 30  1  0  0  0
 29 30  1  0  0  0
 29 31  1  0  0  0
 30 32  1  0  0  0
  3  4  2  0  0  0
 32 33  2  0  0  0
 49 53  1  0  0  0
 49 57  1  0  0  0
 33 34  1  0  0  0
 62 54  1  0  0  0
 62 66  1  0  0  0
 34 35  1  0  0  0
 50 55  1  0  0  0
 50 58  1  0  0  0
 35 36  1  0  0  0
 51 52  1  0  0  0
 51 56  1  0  0  0
 36 37  1  0  0  0
 59 60  1  0  0  0
 59 61  1  0  0  0
 37 38  1  0  0  0
 63 66  1  0  0  0
 63 67  1  0  0  0
 38 39  1  0  0  0
 64 66  1  0  0  0
 39 40  1  0  0  0
 65 66  1  0  0  0
 65 68  1  0  0  0
 40 41  1  0  0  0
 41 42  1  0  0  0
 42 43  1  0  0  0
 43 44  1  0  0  0
 44 45  1  0  0  0
 45 46  1  0  0  0
  4  6  1  0  0  0
  6  7  1  0  0  0
  7  8  1  0  0  0
  8  9  1  0  0  0
  9 10  1  0  0  0
 10 11  1  0  0  0
 11 12  1  0  0  0
 12 13  1  0  0  0
 13 14  1  0  0  0
 14 15  1  0  0  0
 15 16  1  0  0  0
 16 17  1  0  0  0
 17 18  1  0  0  0
 18 19  1  0  0  0
 19 20  2  0  0  0
 20 21  1  0  0  0
 21 22  1  0  0  0
 22 23  1  0  0  0
 23 24  1  0  0  0
 24 25  1  0  0  0
 25 26  1  0  0  0
 26 27  1  0  0  0
 27 28  1  0  0  0
 52 53  1  0  0  0
 53 54  1  0  0  0
 54 55  1  0  0  0
 55 56  1  0  0  0
 56 60  1  0  0  0
M  CHG 1  64  -1
M  END
> <minimizedAffinity>
-8.55837

> <CNNscore>
0.3482489884

> <CNNaffinity>
6.9340758324

> <CNN_VS>
2.4147849083

> <CNNaffinity_variance>
0.8148910403

$$$$
/media/chris/experiments/cd1a-new-docking/inputs/ligands/7ryn_ligand.pdb


 68 68  0  0  0  0  0  0  0  0999 V2000
  -40.1255   58.8963   65.4229 C   0  0  0  0  0  0  0  0  0  0  0  0
  -40.0842   58.2317   64.1237 N   0  0  0  0  0  0  0  0  0  0  0  0
  -41.1979   56.3850   64.7697 O   0  0  0  0  0  0  0  0  0  0  0  0
  -40.6224   57.0303   63.8983 C   0  0  0  0  0  0  0  0  0  0  0  0
  -39.6376   58.6920   63.3768 H   0  0  0  0  0  0  0  0  0  0  0  0
  -40.4867   56.5086   62.4894 C   0  0  0  0  0  0  0  0  0  0  0  0
  -41.2469   57.3551   61.4764 C   0  0  0  0  0  0  0  0  0  0  0  0
  -40.3370   57.9693   60.4248 C   0  0  0  0  0  0  0  0  0  0  0  0
  -39.1831   58.7723   61.0016 C   0  0  0  0  0  0  0  0  0  0  0  0
  -37.8971   58.6677   60.1954 C   0  0  0  0  0  0  0  0  0  0  0  0
  -36.6730   58.3035   61.0258 C   0  0  0  0  0  0  0  0  0  0  0  0
  -37.0052   57.6461   62.3591 C   0  0  0  0  0  0  0  0  0  0  0  0
  -35.7881   57.2307   63.1815 C   0  0  0  0  0  0  0  0  0  0  0  0
  -35.3850   58.2439   64.2517 C   0  0  0  0  0  0  0  0  0  0  0  0
  -33.8966   58.5912   64.2720 C   0  0  0  0  0  0  0  0  0  0  0  0
  -33.3024   58.8056   62.8798 C   0  0  0  0  0  0  0  0  0  0  0  0
  -31.9221   59.4621   62.8593 C   0  0  0  0  0  0  0  0  0  0  0  0
  -31.8160   60.7135   61.9835 C   0  0  0  0  0  0  0  0  0  0  0  0
  -30.4783   60.8457   61.3147 C   0  0  0  0  0  0  0  0  0  0  0  0
  -29.4605   61.5695   61.7458 C   0  0  0  0  0  0  0  0  0  0  0  0
  -29.4356   62.4021   62.9917 C   0  0  0  0  0  0  0  0  0  0  0  0
  -29.2982   63.9026   62.7254 C   0  0  0  0  0  0  0  0  0  0  0  0
  -30.4292   64.4699   61.8782 C   0  0  0  0  0  0  0  0  0  0  0  0
  -30.7050   65.9451   62.1468 C   0  0  0  0  0  0  0  0  0  0  0  0
  -30.0637   66.8997   61.1462 C   0  0  0  0  0  0  0  0  0  0  0  0
  -30.9980   67.3304   60.0243 C   0  0  0  0  0  0  0  0  0  0  0  0
  -30.8126   66.5567   58.7287 C   0  0  0  0  0  0  0  0  0  0  0  0
  -31.1895   67.3625   57.5020 C   0  0  0  0  0  0  0  0  0  0  0  0
  -40.8685   61.0072   66.3322 O   0  0  0  0  0  0  0  0  0  0  0  0
  -41.2229   59.9726   65.4100 C   0  0  0  0  0  0  0  0  0  0  0  0
  -39.9991   61.3669   66.0961 H   0  0  0  0  0  0  0  0  0  0  0  0
  -42.5629   59.3926   65.7446 C   0  0  0  0  0  0  0  0  0  0  0  0
  -43.4602   58.9993   64.8625 C   0  0  0  0  0  0  0  0  0  0  0  0
  -44.7831   58.4103   65.2282 C   0  0  0  0  0  0  0  0  0  0  0  0
  -45.0966   58.6382   66.7084 C   0  0  0  0  0  0  0  0  0  0  0  0
  -46.5814   58.6926   67.0295 C   0  0  0  0  0  0  0  0  0  0  0  0
  -47.3156   57.3802   66.8139 C   0  0  0  0  0  0  0  0  0  0  0  0
  -48.3645   57.4318   65.7125 C   0  0  0  0  0  0  0  0  0  0  0  0
  -48.7045   58.8431   65.2585 C   0  0  0  0  0  0  0  0  0  0  0  0
  -50.1738   59.1965   65.4078 C   0  0  0  0  0  0  0  0  0  0  0  0
  -50.7286   60.0281   64.2663 C   0  0  0  0  0  0  0  0  0  0  0  0
  -51.3563   59.2055   63.1540 C   0  0  0  0  0  0  0  0  0  0  0  0
  -50.3844   58.8813   62.0348 C   0  0  0  0  0  0  0  0  0  0  0  0
  -50.8245   57.7440   61.1330 C   0  0  0  0  0  0  0  0  0  0  0  0
  -50.2169   57.8313   59.7467 C   0  0  0  0  0  0  0  0  0  0  0  0
  -48.7949   58.3528   59.7681 C   0  0  0  0  0  0  0  0  0  0  0  0
  -38.7653   59.4749   65.7539 C   0  0  0  0  0  0  0  0  0  0  0  0
  -38.5693   60.6489   64.9577 O   0  0  0  0  0  0  0  0  0  0  0  0
  -36.9362   60.9951   62.7095 O   0  0  0  0  0  0  0  0  0  0  0  0
  -36.5159   64.6415   64.9565 O   0  0  0  0  0  0  0  0  0  0  0  0
  -37.2829   62.1427   66.1587 O   0  0  0  0  0  0  0  0  0  0  0  0
  -37.3012   61.2238   65.0822 C   0  0  0  0  0  0  0  0  0  0  0  0
  -36.9756   61.9355   63.7754 C   0  0  0  0  0  0  0  0  0  0  0  0
  -35.6367   62.6523   63.8959 C   0  0  0  0  0  0  0  0  0  0  0  0
  -35.6088   63.5561   65.1197 C   0  0  0  0  0  0  0  0  0  0  0  0
  -35.9982   62.7536   66.3587 C   0  0  0  0  0  0  0  0  0  0  0  0
  -37.7932   60.5457   62.6430 H   0  0  0  0  0  0  0  0  0  0  0  0
  -36.2702   65.1528   64.1697 H   0  0  0  0  0  0  0  0  0  0  0  0
  -36.5151   62.8277   68.7285 O   0  0  0  0  0  0  0  0  0  0  0  0
  -36.1054   63.5998   67.6056 C   0  0  0  0  0  0  0  0  0  0  0  0
  -36.5739   63.3994   69.5099 H   0  0  0  0  0  0  0  0  0  0  0  0
  -35.5439   63.4675   62.6850 O   0  0  0  0  0  0  0  0  0  0  0  0
  -34.2828   65.5085   62.9110 O   0  0  0  0  0  0  0  0  0  0  0  0
  -33.7915   63.9031   61.0412 O   0  0  0  0  0  0  0  0  0  0  0  0
  -33.2430   63.4044   63.2966 O   0  0  0  0  0  0  0  0  0  0  0  0
  -34.1726   64.2048   62.3696 S   0  0  0  0  0  0  0  0  0  0  0  0
  -34.8647   66.0438   62.3491 H   0  0  0  0  0  0  0  0  0  0  0  0
  -33.4741   63.5855   64.2210 H   0  0  0  0  0  0  0  0  0  0  0  0
  2  1  1  0  0  0
  2  4  1  0  0  0
  2  5  1  0  0  0
 47 48  1  0  0  0
 47  1  1  0  0  0
 48 52  1  0  0  0
  1 30  1  0  0  0
 29 30  1  0  0  0
 29 31  1  0  0  0
 30 32  1  0  0  0
  3  4  2  0  0  0
 32 33  2  0  0  0
 49 53  1  0  0  0
 49 57  1  0  0  0
 33 34  1  0  0  0
 62 54  1  0  0  0
 62 66  1  0  0  0
 34 35  1  0  0  0
 50 55  1  0  0  0
 50 58  1  0  0  0
 35 36  1  0  0  0
 51 52  1  0  0  0
 51 56  1  0  0  0
 36 37  1  0  0  0
 59 60  1  0  0  0
 59 61  1  0  0  0
 37 38  1  0  0  0
 63 66  1  0  0  0
 63 67  1  0  0  0
 38 39  1  0  0  0
 64 66  1  0  0  0
 39 40  1  0  0  0
 65 66  1  0  0  0
 65 68  1  0  0  0
 40 41  1  0  0  0
 41 42  1  0  0  0
 42 43  1  0  0  0
 43 44  1  0  0  0
 44 45  1  0  0  0
 45 46  1  0  0  0
  4  6  1  0  0  0
  6  7  1  0  0  0
  7  8  1  0  0  0
  8  9  1  0  0  0
  9 10  1  0  0  0
 10 11  1  0  0  0
 11 12  1  0  0  0
 12 13  1  0  0  0
 13 14  1  0  0  0
 14 15  1  0  0  0
 15 16  1  0  0  0
 16 17  1  0  0  0
 17 18  1  0  0  0
 18 19  1  0  0  0
 19 20  2  0  0  0
 20 21  1  0  0  0
 21 22  1  0  0  0
 22 23  1  0  0  0
 23 24  1  0  0  0
 24 25  1  0  0  0
 25 26  1  0  0  0
 26 27  1  0  0  0
 27 28  1  0  0  0
 52 53  1  0  0  0
 53 54  1  0  0  0
 54 55  1  0  0  0
 55 56  1  0  0  0
 56 60  1  0  0  0
M  CHG 1  64  -1
M  END
> <minimizedAffinity>
-9.32091

> <CNNscore>
0.3453728855

> <CNNaffinity>
7.2192816734

> <CNN_VS>
2.4933440685

> <CNNaffinity_variance>
1.2921282053

$$$$
/media/chris/experiments/cd1a-new-docking/inputs/ligands/7ryn_ligand.pdb


 68 68  0  0  0  0  0  0  0  0999 V2000
  -32.0284   64.6801   64.9406 C   0  0  0  0  0  0  0  0  0  0  0  0
  -32.8174   63.6182   65.5578 N   0  0  0  0  0  0  0  0  0  0  0  0
  -33.7074   62.8431   63.6407 O   0  0  0  0  0  0  0  0  0  0  0  0
  -33.5941   62.7838   64.8616 C   0  0  0  0  0  0  0  0  0  0  0  0
  -32.7749   63.5118   66.5356 H   0  0  0  0  0  0  0  0  0  0  0  0
  -34.3280   61.7454   65.6732 C   0  0  0  0  0  0  0  0  0  0  0  0
  -35.8372   61.8082   65.4758 C   0  0  0  0  0  0  0  0  0  0  0  0
  -36.3970   60.5508   64.8301 C   0  0  0  0  0  0  0  0  0  0  0  0
  -37.8673   60.3078   65.1275 C   0  0  0  0  0  0  0  0  0  0  0  0
  -38.2138   58.8453   65.3633 C   0  0  0  0  0  0  0  0  0  0  0  0
  -39.7099   58.5608   65.3989 C   0  0  0  0  0  0  0  0  0  0  0  0
  -40.5337   59.6698   66.0407 C   0  0  0  0  0  0  0  0  0  0  0  0
  -42.0379   59.4108   66.0615 C   0  0  0  0  0  0  0  0  0  0  0  0
  -42.4174   57.9773   66.4297 C   0  0  0  0  0  0  0  0  0  0  0  0
  -43.4257   57.3226   65.4857 C   0  0  0  0  0  0  0  0  0  0  0  0
  -44.0117   58.2886   64.4558 C   0  0  0  0  0  0  0  0  0  0  0  0
  -45.5159   58.5317   64.5789 C   0  0  0  0  0  0  0  0  0  0  0  0
  -46.1734   57.8970   65.8073 C   0  0  0  0  0  0  0  0  0  0  0  0
  -46.8619   58.9018   66.6850 C   0  0  0  0  0  0  0  0  0  0  0  0
  -48.0451   59.4469   66.4645 C   0  0  0  0  0  0  0  0  0  0  0  0
  -48.9397   59.1692   65.2947 C   0  0  0  0  0  0  0  0  0  0  0  0
  -48.6633   60.0627   64.0838 C   0  0  0  0  0  0  0  0  0  0  0  0
  -49.6384   59.8396   62.9356 C   0  0  0  0  0  0  0  0  0  0  0  0
  -50.0275   58.3776   62.7478 C   0  0  0  0  0  0  0  0  0  0  0  0
  -50.1820   57.9470   61.2937 C   0  0  0  0  0  0  0  0  0  0  0  0
  -49.4143   58.8200   60.3111 C   0  0  0  0  0  0  0  0  0  0  0  0
  -48.6226   58.0404   59.2732 C   0  0  0  0  0  0  0  0  0  0  0  0
  -48.3460   56.6114   59.6942 C   0  0  0  0  0  0  0  0  0  0  0  0
  -29.7978   65.4673   65.4303 O   0  0  0  0  0  0  0  0  0  0  0  0
  -30.5370   64.3153   65.0144 C   0  0  0  0  0  0  0  0  0  0  0  0
  -30.1411   65.7818   66.2814 H   0  0  0  0  0  0  0  0  0  0  0  0
  -30.0333   63.8011   63.7007 C   0  0  0  0  0  0  0  0  0  0  0  0
  -30.0674   62.5404   63.3168 C   0  0  0  0  0  0  0  0  0  0  0  0
  -29.5701   62.0607   61.9926 C   0  0  0  0  0  0  0  0  0  0  0  0
  -30.1708   60.6985   61.6398 C   0  0  0  0  0  0  0  0  0  0  0  0
  -31.6283   60.5376   62.0407 C   0  0  0  0  0  0  0  0  0  0  0  0
  -31.9307   59.2539   62.7948 C   0  0  0  0  0  0  0  0  0  0  0  0
  -33.2962   59.2380   63.4663 C   0  0  0  0  0  0  0  0  0  0  0  0
  -34.1084   57.9867   63.1692 C   0  0  0  0  0  0  0  0  0  0  0  0
  -35.0107   58.1171   61.9547 C   0  0  0  0  0  0  0  0  0  0  0  0
  -36.4364   57.6547   62.1914 C   0  0  0  0  0  0  0  0  0  0  0  0
  -37.4531   58.2938   61.2611 C   0  0  0  0  0  0  0  0  0  0  0  0
  -38.8761   58.1935   61.7783 C   0  0  0  0  0  0  0  0  0  0  0  0
  -39.6249   59.5120   61.8110 C   0  0  0  0  0  0  0  0  0  0  0  0
  -41.0985   59.3375   62.1222 C   0  0  0  0  0  0  0  0  0  0  0  0
  -41.6433   58.0137   61.6268 C   0  0  0  0  0  0  0  0  0  0  0  0
  -32.3238   66.0048   65.6132 C   0  0  0  0  0  0  0  0  0  0  0  0
  -31.8218   67.0552   64.7794 O   0  0  0  0  0  0  0  0  0  0  0  0
  -30.3059   67.6958   62.5138 O   0  0  0  0  0  0  0  0  0  0  0  0
  -32.8829   64.4882   61.2520 O   0  0  0  0  0  0  0  0  0  0  0  0
  -33.5196   66.2351   63.4476 O   0  0  0  0  0  0  0  0  0  0  0  0
  -32.4226   67.1267   63.5192 C   0  0  0  0  0  0  0  0  0  0  0  0
  -31.3753   66.7594   62.4759 C   0  0  0  0  0  0  0  0  0  0  0  0
  -32.0093   66.7389   61.0908 C   0  0  0  0  0  0  0  0  0  0  0  0
  -33.2461   65.8528   61.0688 C   0  0  0  0  0  0  0  0  0  0  0  0
  -34.2000   66.2762   62.1830 C   0  0  0  0  0  0  0  0  0  0  0  0
  -29.9108   67.6998   63.3997 H   0  0  0  0  0  0  0  0  0  0  0  0
  -32.2768   64.2172   60.5449 H   0  0  0  0  0  0  0  0  0  0  0  0
  -35.7571   65.1533   63.6673 O   0  0  0  0  0  0  0  0  0  0  0  0
  -35.4071   65.3762   62.3062 C   0  0  0  0  0  0  0  0  0  0  0  0
  -36.5336   64.5734   63.7108 H   0  0  0  0  0  0  0  0  0  0  0  0
  -30.9819   66.1643   60.2227 O   0  0  0  0  0  0  0  0  0  0  0  0
  -31.5358   67.8491   58.5912 O   0  0  0  0  0  0  0  0  0  0  0  0
  -29.7099   66.1830   58.1383 O   0  0  0  0  0  0  0  0  0  0  0  0
  -29.4510   67.9219   59.7337 O   0  0  0  0  0  0  0  0  0  0  0  0
  -30.4575   67.0249   58.9946 S   0  0  0  0  0  0  0  0  0  0  0  0
  -32.1931   67.3138   58.1195 H   0  0  0  0  0  0  0  0  0  0  0  0
  -29.9276   68.5167   60.3336 H   0  0  0  0  0  0  0  0  0  0  0  0
  2  1  1  0  0  0
  2  4  1  0  0  0
  2  5  1  0  0  0
 47 48  1  0  0  0
 47  1  1  0  0  0
 48 52  1  0  0  0
  1 30  1  0  0  0
 29 30  1  0  0  0
 29 31  1  0  0  0
 30 32  1  0  0  0
  3  4  2  0  0  0
 32 33  2  0  0  0
 49 53  1  0  0  0
 49 57  1  0  0  0
 33 34  1  0  0  0
 62 54  1  0  0  0
 62 66  1  0  0  0
 34 35  1  0  0  0
 50 55  1  0  0  0
 50 58  1  0  0  0
 35 36  1  0  0  0
 51 52  1  0  0  0
 51 56  1  0  0  0
 36 37  1  0  0  0
 59 60  1  0  0  0
 59 61  1  0  0  0
 37 38  1  0  0  0
 63 66  1  0  0  0
 63 67  1  0  0  0
 38 39  1  0  0  0
 64 66  1  0  0  0
 39 40  1  0  0  0
 65 66  1  0  0  0
 65 68  1  0  0  0
 40 41  1  0  0  0
 41 42  1  0  0  0
 42 43  1  0  0  0
 43 44  1  0  0  0
 44 45  1  0  0  0
 45 46  1  0  0  0
  4  6  1  0  0  0
  6  7  1  0  0  0
  7  8  1  0  0  0
  8  9  1  0  0  0
  9 10  1  0  0  0
 10 11  1  0  0  0
 11 12  1  0  0  0
 12 13  1  0  0  0
 13 14  1  0  0  0
 14 15  1  0  0  0
 15 16  1  0  0  0
 16 17  1  0  0  0
 17 18  1  0  0  0
 18 19  1  0  0  0
 19 20  2  0  0  0
 20 21  1  0  0  0
 21 22  1  0  0  0
 22 23  1  0  0  0
 23 24  1  0  0  0
 24 25  1  0  0  0
 25 26  1  0  0  0
 26 27  1  0  0  0
 27 28  1  0  0  0
 52 53  1  0  0  0
 53 54  1  0  0  0
 54 55  1  0  0  0
 55 56  1  0  0  0
 56 60  1  0  0  0
M  CHG 1  64  -1
M  END
> <minimizedAffinity>
-8.81561

> <CNNscore>
0.3278528452

> <CNNaffinity>
6.9704408646

> <CNN_VS>
2.2852787971

> <CNNaffinity_variance>
1.2923529148

$$$$
/media/chris/experiments/cd1a-new-docking/inputs/ligands/7ryn_ligand.pdb


 68 68  0  0  0  0  0  0  0  0999 V2000
  -37.1198   59.7497   62.9118 C   0  0  0  0  0  0  0  0  0  0  0  0
  -38.3087   59.7071   62.0657 N   0  0  0  0  0  0  0  0  0  0  0  0
  -37.3047   58.7376   60.2993 O   0  0  0  0  0  0  0  0  0  0  0  0
  -38.3091   59.2055   60.8279 C   0  0  0  0  0  0  0  0  0  0  0  0
  -39.1520   60.0658   62.4255 H   0  0  0  0  0  0  0  0  0  0  0  0
  -39.6353   59.2408   60.1100 C   0  0  0  0  0  0  0  0  0  0  0  0
  -40.8057   59.4814   61.0550 C   0  0  0  0  0  0  0  0  0  0  0  0
  -41.7807   58.3154   61.0899 C   0  0  0  0  0  0  0  0  0  0  0  0
  -42.2838   57.9745   62.4826 C   0  0  0  0  0  0  0  0  0  0  0  0
  -41.2282   58.1136   63.5693 C   0  0  0  0  0  0  0  0  0  0  0  0
  -41.3358   57.0712   64.6749 C   0  0  0  0  0  0  0  0  0  0  0  0
  -42.7665   56.6594   64.9975 C   0  0  0  0  0  0  0  0  0  0  0  0
  -43.3978   57.4198   66.1609 C   0  0  0  0  0  0  0  0  0  0  0  0
  -44.5722   58.3103   65.7579 C   0  0  0  0  0  0  0  0  0  0  0  0
  -45.9479   57.6659   65.9270 C   0  0  0  0  0  0  0  0  0  0  0  0
  -47.0966   58.6748   65.9302 C   0  0  0  0  0  0  0  0  0  0  0  0
  -47.2748   59.4568   64.6289 C   0  0  0  0  0  0  0  0  0  0  0  0
  -48.5667   60.2734   64.5390 C   0  0  0  0  0  0  0  0  0  0  0  0
  -49.7372   59.5861   65.1809 C   0  0  0  0  0  0  0  0  0  0  0  0
  -50.8697   59.2577   64.5850 C   0  0  0  0  0  0  0  0  0  0  0  0
  -51.2129   59.5028   63.1469 C   0  0  0  0  0  0  0  0  0  0  0  0
  -50.5499   58.5189   62.1806 C   0  0  0  0  0  0  0  0  0  0  0  0
  -49.7590   59.2027   61.0734 C   0  0  0  0  0  0  0  0  0  0  0  0
  -49.5133   58.3075   59.8640 C   0  0  0  0  0  0  0  0  0  0  0  0
  -48.3072   57.3848   59.9961 C   0  0  0  0  0  0  0  0  0  0  0  0
  -48.2207   56.3287   58.9033 C   0  0  0  0  0  0  0  0  0  0  0  0
  -47.0884   56.5495   57.9128 C   0  0  0  0  0  0  0  0  0  0  0  0
  -47.4137   57.5999   56.8704 C   0  0  0  0  0  0  0  0  0  0  0  0
  -37.3929   58.4861   64.9522 O   0  0  0  0  0  0  0  0  0  0  0  0
  -36.9353   58.3879   63.6004 C   0  0  0  0  0  0  0  0  0  0  0  0
  -38.3177   58.7789   64.9601 H   0  0  0  0  0  0  0  0  0  0  0  0
  -35.5076   57.9374   63.5494 C   0  0  0  0  0  0  0  0  0  0  0  0
  -34.7313   57.9978   62.4856 C   0  0  0  0  0  0  0  0  0  0  0  0
  -33.3053   57.5537   62.4707 C   0  0  0  0  0  0  0  0  0  0  0  0
  -32.3808   58.6542   62.9952 C   0  0  0  0  0  0  0  0  0  0  0  0
  -32.6560   60.0302   62.4108 C   0  0  0  0  0  0  0  0  0  0  0  0
  -31.4723   60.6502   61.6881 C   0  0  0  0  0  0  0  0  0  0  0  0
  -30.2782   60.9347   62.5875 C   0  0  0  0  0  0  0  0  0  0  0  0
  -29.4336   62.1128   62.1268 C   0  0  0  0  0  0  0  0  0  0  0  0
  -29.8156   63.4308   62.7772 C   0  0  0  0  0  0  0  0  0  0  0  0
  -29.1374   64.6420   62.1645 C   0  0  0  0  0  0  0  0  0  0  0  0
  -29.5279   65.9594   62.8122 C   0  0  0  0  0  0  0  0  0  0  0  0
  -30.0002   66.9963   61.8101 C   0  0  0  0  0  0  0  0  0  0  0  0
  -31.5079   67.1091   61.6892 C   0  0  0  0  0  0  0  0  0  0  0  0
  -32.0258   66.5949   60.3602 C   0  0  0  0  0  0  0  0  0  0  0  0
  -31.0350   66.7999   59.2328 C   0  0  0  0  0  0  0  0  0  0  0  0
  -37.2340   60.8818   63.9117 C   0  0  0  0  0  0  0  0  0  0  0  0
  -35.9150   61.2402   64.3390 O   0  0  0  0  0  0  0  0  0  0  0  0
  -34.5323   62.2952   66.5336 O   0  0  0  0  0  0  0  0  0  0  0  0
  -33.0067   64.4390   63.1279 O   0  0  0  0  0  0  0  0  0  0  0  0
  -35.6040   63.2019   63.1627 O   0  0  0  0  0  0  0  0  0  0  0  0
  -35.6995   62.6170   64.4481 C   0  0  0  0  0  0  0  0  0  0  0  0
  -34.4058   62.8320   65.2229 C   0  0  0  0  0  0  0  0  0  0  0  0
  -34.0842   64.3195   65.2912 C   0  0  0  0  0  0  0  0  0  0  0  0
  -34.0888   64.9440   63.9036 C   0  0  0  0  0  0  0  0  0  0  0  0
  -35.4064   64.6242   63.2019 C   0  0  0  0  0  0  0  0  0  0  0  0
  -34.7369   61.3487   66.4770 H   0  0  0  0  0  0  0  0  0  0  0  0
  -32.1685   64.6412   63.5721 H   0  0  0  0  0  0  0  0  0  0  0  0
  -35.8001   66.4899   61.7010 O   0  0  0  0  0  0  0  0  0  0  0  0
  -35.4526   65.1120   61.7728 C   0  0  0  0  0  0  0  0  0  0  0  0
  -35.8208   66.7703   60.7726 H   0  0  0  0  0  0  0  0  0  0  0  0
  -32.7335   64.3802   65.8491 O   0  0  0  0  0  0  0  0  0  0  0  0
  -32.6419   66.0819   67.5529 O   0  0  0  0  0  0  0  0  0  0  0  0
  -32.2314   66.6633   65.1428 O   0  0  0  0  0  0  0  0  0  0  0  0
  -30.6635   65.4136   66.4143 O   0  0  0  0  0  0  0  0  0  0  0  0
  -32.1441   65.7976   66.2582 S   0  0  0  0  0  0  0  0  0  0  0  0
  -33.5780   66.3290   67.4924 H   0  0  0  0  0  0  0  0  0  0  0  0
  -30.5623   64.8176   67.1728 H   0  0  0  0  0  0  0  0  0  0  0  0
  2  1  1  0  0  0
  2  4  1  0  0  0
  2  5  1  0  0  0
 47 48  1  0  0  0
 47  1  1  0  0  0
 48 52  1  0  0  0
  1 30  1  0  0  0
 29 30  1  0  0  0
 29 31  1  0  0  0
 30 32  1  0  0  0
  3  4  2  0  0  0
 32 33  2  0  0  0
 49 53  1  0  0  0
 49 57  1  0  0  0
 33 34  1  0  0  0
 62 54  1  0  0  0
 62 66  1  0  0  0
 34 35  1  0  0  0
 50 55  1  0  0  0
 50 58  1  0  0  0
 35 36  1  0  0  0
 51 52  1  0  0  0
 51 56  1  0  0  0
 36 37  1  0  0  0
 59 60  1  0  0  0
 59 61  1  0  0  0
 37 38  1  0  0  0
 63 66  1  0  0  0
 63 67  1  0  0  0
 38 39  1  0  0  0
 64 66  1  0  0  0
 39 40  1  0  0  0
 65 66  1  0  0  0
 65 68  1  0  0  0
 40 41  1  0  0  0
 41 42  1  0  0  0
 42 43  1  0  0  0
 43 44  1  0  0  0
 44 45  1  0  0  0
 45 46  1  0  0  0
  4  6  1  0  0  0
  6  7  1  0  0  0
  7  8  1  0  0  0
  8  9  1  0  0  0
  9 10  1  0  0  0
 10 11  1  0  0  0
 11 12  1  0  0  0
 12 13  1  0  0  0
 13 14  1  0  0  0
 14 15  1  0  0  0
 15 16  1  0  0  0
 16 17  1  0  0  0
 17 18  1  0  0  0
 18 19  1  0  0  0
 19 20  2  0  0  0
 20 21  1  0  0  0
 21 22  1  0  0  0
 22 23  1  0  0  0
 23 24  1  0  0  0
 24 25  1  0  0  0
 25 26  1  0  0  0
 26 27  1  0  0  0
 27 28  1  0  0  0
 52 53  1  0  0  0
 53 54  1  0  0  0
 54 55  1  0  0  0
 55 56  1  0  0  0
 56 60  1  0  0  0
M  CHG 1  64  -1
M  END
> <minimizedAffinity>
-9.16368

> <CNNscore>
0.3072683215

> <CNNaffinity>
7.0488562584

> <CNN_VS>
2.1658902168

> <CNNaffinity_variance>
0.8319455385

$$$$
