/media/chris/experiments/cd1a-new-docking/inputs/ligands/7ryn_ligand.pdb


 68 68  0  0  0  0  0  0  0  0999 V2000
  -35.6426   61.7565   64.3263 C   0  0  0  0  0  0  0  0  0  0  0  0
  -36.8729   60.9789   64.2117 N   0  0  0  0  0  0  0  0  0  0  0  0
  -37.6788   61.5147   66.2443 O   0  0  0  0  0  0  0  0  0  0  0  0
  -37.7937   60.9184   65.1774 C   0  0  0  0  0  0  0  0  0  0  0  0
  -37.0316   60.4741   63.3815 H   0  0  0  0  0  0  0  0  0  0  0  0
  -39.0027   60.0690   64.8736 C   0  0  0  0  0  0  0  0  0  0  0  0
  -38.7672   58.5920   65.1623 C   0  0  0  0  0  0  0  0  0  0  0  0
  -39.9204   57.7136   64.7040 C   0  0  0  0  0  0  0  0  0  0  0  0
  -41.2910   58.3317   64.9243 C   0  0  0  0  0  0  0  0  0  0  0  0
  -42.2579   57.4314   65.6784 C   0  0  0  0  0  0  0  0  0  0  0  0
  -43.5356   57.1141   64.9119 C   0  0  0  0  0  0  0  0  0  0  0  0
  -44.1844   58.3304   64.2639 C   0  0  0  0  0  0  0  0  0  0  0  0
  -45.5957   58.6353   64.7595 C   0  0  0  0  0  0  0  0  0  0  0  0
  -45.8486   58.2235   66.2089 C   0  0  0  0  0  0  0  0  0  0  0  0
  -46.9233   59.0408   66.9253 C   0  0  0  0  0  0  0  0  0  0  0  0
  -48.1806   59.2632   66.0845 C   0  0  0  0  0  0  0  0  0  0  0  0
  -49.0719   58.0330   65.9150 C   0  0  0  0  0  0  0  0  0  0  0  0
  -50.5738   58.3260   65.8688 C   0  0  0  0  0  0  0  0  0  0  0  0
  -50.8916   59.6425   65.2208 C   0  0  0  0  0  0  0  0  0  0  0  0
  -51.0723   59.8507   63.9286 C   0  0  0  0  0  0  0  0  0  0  0  0
  -50.9991   58.8132   62.8496 C   0  0  0  0  0  0  0  0  0  0  0  0
  -49.5904   58.6093   62.2878 C   0  0  0  0  0  0  0  0  0  0  0  0
  -49.4606   59.0150   60.8257 C   0  0  0  0  0  0  0  0  0  0  0  0
  -50.1139   58.0290   59.8640 C   0  0  0  0  0  0  0  0  0  0  0  0
  -49.2231   56.8616   59.4550 C   0  0  0  0  0  0  0  0  0  0  0  0
  -47.7389   57.1992   59.4398 C   0  0  0  0  0  0  0  0  0  0  0  0
  -47.0520   56.9258   58.1112 C   0  0  0  0  0  0  0  0  0  0  0  0
  -47.7227   57.6249   56.9461 C   0  0  0  0  0  0  0  0  0  0  0  0
  -33.8639   62.2241   65.8923 O   0  0  0  0  0  0  0  0  0  0  0  0
  -34.8119   61.2251   65.5053 C   0  0  0  0  0  0  0  0  0  0  0  0
  -34.3313   63.0449   66.1133 H   0  0  0  0  0  0  0  0  0  0  0  0
  -34.1244   59.9408   65.1561 C   0  0  0  0  0  0  0  0  0  0  0  0
  -33.4349   59.7257   64.0531 C   0  0  0  0  0  0  0  0  0  0  0  0
  -32.7475   58.4372   63.7402 C   0  0  0  0  0  0  0  0  0  0  0  0
  -33.2156   57.8762   62.3959 C   0  0  0  0  0  0  0  0  0  0  0  0
  -34.6668   58.1831   62.0639 C   0  0  0  0  0  0  0  0  0  0  0  0
  -35.6749   57.3736   62.8616 C   0  0  0  0  0  0  0  0  0  0  0  0
  -37.0633   57.3292   62.2405 C   0  0  0  0  0  0  0  0  0  0  0  0
  -37.2704   58.3518   61.1338 C   0  0  0  0  0  0  0  0  0  0  0  0
  -38.6439   58.9995   61.1486 C   0  0  0  0  0  0  0  0  0  0  0  0
  -39.7941   58.0107   61.1086 C   0  0  0  0  0  0  0  0  0  0  0  0
  -40.9139   58.4071   60.1618 C   0  0  0  0  0  0  0  0  0  0  0  0
  -41.3229   59.8616   60.3024 C   0  0  0  0  0  0  0  0  0  0  0  0
  -41.8828   60.2260   61.6641 C   0  0  0  0  0  0  0  0  0  0  0  0
  -42.5813   61.5716   61.6655 C   0  0  0  0  0  0  0  0  0  0  0  0
  -42.6451   62.1908   63.0465 C   0  0  0  0  0  0  0  0  0  0  0  0
  -35.9701   63.2275   64.4787 C   0  0  0  0  0  0  0  0  0  0  0  0
  -35.4823   63.9196   63.3238 O   0  0  0  0  0  0  0  0  0  0  0  0
  -33.9975   63.9578   60.9500 O   0  0  0  0  0  0  0  0  0  0  0  0
  -32.5683   67.3332   63.2052 O   0  0  0  0  0  0  0  0  0  0  0  0
  -33.7942   65.0377   64.4322 O   0  0  0  0  0  0  0  0  0  0  0  0
  -34.1100   64.1841   63.3481 C   0  0  0  0  0  0  0  0  0  0  0  0
  -33.7336   64.8458   62.0288 C   0  0  0  0  0  0  0  0  0  0  0  0
  -32.2601   65.2323   62.0451 C   0  0  0  0  0  0  0  0  0  0  0  0
  -31.9267   66.0639   63.2750 C   0  0  0  0  0  0  0  0  0  0  0  0
  -32.3913   65.3309   64.5309 C   0  0  0  0  0  0  0  0  0  0  0  0
  -34.9377   63.7192   60.9501 H   0  0  0  0  0  0  0  0  0  0  0  0
  -32.2745   67.8007   62.4077 H   0  0  0  0  0  0  0  0  0  0  0  0
  -31.0844   65.6747   66.5466 O   0  0  0  0  0  0  0  0  0  0  0  0
  -32.2006   66.1367   65.7945 C   0  0  0  0  0  0  0  0  0  0  0  0
  -30.9904   66.2116   67.3488 H   0  0  0  0  0  0  0  0  0  0  0  0
  -32.0778   66.0448   60.8426 O   0  0  0  0  0  0  0  0  0  0  0  0
  -30.4802   64.4852   59.9356 O   0  0  0  0  0  0  0  0  0  0  0  0
  -29.8096   66.8542   60.4391 O   0  0  0  0  0  0  0  0  0  0  0  0
  -31.2470   66.3178   58.6274 O   0  0  0  0  0  0  0  0  0  0  0  0
  -30.7363   65.8760   60.0086 S   0  0  0  0  0  0  0  0  0  0  0  0
  -30.1549   64.1709   60.7936 H   0  0  0  0  0  0  0  0  0  0  0  0
  -31.8881   65.6691   58.2971 H   0  0  0  0  0  0  0  0  0  0  0  0
  2  1  1  0  0  0
  2  4  1  0  0  0
  2  5  1  0  0  0
 47 48  1  0  0  0
 47  1  1  0  0  0
 48 52  1  0  0  0
  1 30  1  0  0  0
 29 30  1  0  0  0
 29 31  1  0  0  0
 30 32  1  0  0  0
  3  4  2  0  0  0
 32 33  2  0  0  0
 49 53  1  0  0  0
 49 57  1  0  0  0
 33 34  1  0  0  0
 62 54  1  0  0  0
 62 66  1  0  0  0
 34 35  1  0  0  0
 50 55  1  0  0  0
 50 58  1  0  0  0
 35 36  1  0  0  0
 51 52  1  0  0  0
 51 56  1  0  0  0
 36 37  1  0  0  0
 59 60  1  0  0  0
 59 61  1  0  0  0
 37 38  1  0  0  0
 63 66  1  0  0  0
 63 67  1  0  0  0
 38 39  1  0  0  0
 64 66  1  0  0  0
 39 40  1  0  0  0
 65 66  1  0  0  0
 65 68  1  0  0  0
 40 41  1  0  0  0
 41 42  1  0  0  0
 42 43  1  0  0  0
 43 44  1  0  0  0
 44 45  1  0  0  0
 45 46  1  0  0  0
  4  6  1  0  0  0
  6  7  1  0  0  0
  7  8  1  0  0  0
  8  9  1  0  0  0
  9 10  1  0  0  0
 10 11  1  0  0  0
 11 12  1  0  0  0
 12 13  1  0  0  0
 13 14  1  0  0  0
 14 15  1  0  0  0
 15 16  1  0  0  0
 16 17  1  0  0  0
 17 18  1  0  0  0
 18 19  1  0  0  0
 19 20  2  0  0  0
 20 21  1  0  0  0
 21 22  1  0  0  0
 22 23  1  0  0  0
 23 24  1  0  0  0
 24 25  1  0  0  0
 25 26  1  0  0  0
 26 27  1  0  0  0
 27 28  1  0  0  0
 52 53  1  0  0  0
 53 54  1  0  0  0
 54 55  1  0  0  0
 55 56  1  0  0  0
 56 60  1  0  0  0
M  CHG 1  64  -1
M  END
> <minimizedAffinity>
-9.85132

> <CNNscore>
0.3082036972

> <CNNaffinity>
7.2140779495

> <CNN_VS>
2.2234055996

> <CNNaffinity_variance>
1.3332762718

$$$$
/media/chris/experiments/cd1a-new-docking/inputs/ligands/7ryn_ligand.pdb


 68 68  0  0  0  0  0  0  0  0999 V2000
  -39.2192   59.9021   61.1278 C   0  0  0  0  0  0  0  0  0  0  0  0
  -39.9861   58.7731   61.6460 N   0  0  0  0  0  0  0  0  0  0  0  0
  -41.6552   58.9135   60.1419 O   0  0  0  0  0  0  0  0  0  0  0  0
  -41.1421   58.3671   61.1141 C   0  0  0  0  0  0  0  0  0  0  0  0
  -39.6337   58.2868   62.4261 H   0  0  0  0  0  0  0  0  0  0  0  0
  -41.7854   57.1774   61.7820 C   0  0  0  0  0  0  0  0  0  0  0  0
  -40.8772   56.5260   62.8171 C   0  0  0  0  0  0  0  0  0  0  0  0
  -41.5861   56.2615   64.1358 C   0  0  0  0  0  0  0  0  0  0  0  0
  -42.9813   56.8583   64.2159 C   0  0  0  0  0  0  0  0  0  0  0  0
  -43.0362   58.2011   64.9287 C   0  0  0  0  0  0  0  0  0  0  0  0
  -43.5733   58.1257   66.3522 C   0  0  0  0  0  0  0  0  0  0  0  0
  -45.0076   58.6179   66.4972 C   0  0  0  0  0  0  0  0  0  0  0  0
  -45.9083   58.3055   65.3051 C   0  0  0  0  0  0  0  0  0  0  0  0
  -47.3499   58.7832   65.4723 C   0  0  0  0  0  0  0  0  0  0  0  0
  -48.2968   57.7502   66.0825 C   0  0  0  0  0  0  0  0  0  0  0  0
  -49.7623   57.9711   65.7075 C   0  0  0  0  0  0  0  0  0  0  0  0
  -50.2039   59.4336   65.6562 C   0  0  0  0  0  0  0  0  0  0  0  0
  -51.0127   59.8200   64.4150 C   0  0  0  0  0  0  0  0  0  0  0  0
  -50.1506   60.2960   63.2818 C   0  0  0  0  0  0  0  0  0  0  0  0
  -49.7717   59.5800   62.2379 C   0  0  0  0  0  0  0  0  0  0  0  0
  -50.1290   58.1486   61.9739 C   0  0  0  0  0  0  0  0  0  0  0  0
  -50.1558   57.7860   60.4875 C   0  0  0  0  0  0  0  0  0  0  0  0
  -49.3803   56.5161   60.1634 C   0  0  0  0  0  0  0  0  0  0  0  0
  -47.8862   56.7517   59.9730 C   0  0  0  0  0  0  0  0  0  0  0  0
  -47.3042   56.1258   58.7108 C   0  0  0  0  0  0  0  0  0  0  0  0
  -48.1651   56.3303   57.4722 C   0  0  0  0  0  0  0  0  0  0  0  0
  -47.7646   57.5289   56.6268 C   0  0  0  0  0  0  0  0  0  0  0  0
  -46.4781   58.1776   57.0961 C   0  0  0  0  0  0  0  0  0  0  0  0
  -38.0816   58.9314   59.2308 O   0  0  0  0  0  0  0  0  0  0  0  0
  -37.8800   59.3949   60.5691 C   0  0  0  0  0  0  0  0  0  0  0  0
  -38.4556   59.6473   58.6936 H   0  0  0  0  0  0  0  0  0  0  0  0
  -37.3022   58.3132   61.4294 C   0  0  0  0  0  0  0  0  0  0  0  0
  -36.0665   58.2886   61.8884 C   0  0  0  0  0  0  0  0  0  0  0  0
  -35.5240   57.2020   62.7575 C   0  0  0  0  0  0  0  0  0  0  0  0
  -34.1147   57.5412   63.2474 C   0  0  0  0  0  0  0  0  0  0  0  0
  -34.0333   58.8098   64.0809 C   0  0  0  0  0  0  0  0  0  0  0  0
  -33.1387   59.8875   63.4927 C   0  0  0  0  0  0  0  0  0  0  0  0
  -31.9955   59.3483   62.6454 C   0  0  0  0  0  0  0  0  0  0  0  0
  -30.7741   60.2543   62.6196 C   0  0  0  0  0  0  0  0  0  0  0  0
  -30.7294   61.1870   61.4221 C   0  0  0  0  0  0  0  0  0  0  0  0
  -29.8070   62.3785   61.6006 C   0  0  0  0  0  0  0  0  0  0  0  0
  -29.8028   62.9480   63.0089 C   0  0  0  0  0  0  0  0  0  0  0  0
  -29.8079   64.4652   63.0356 C   0  0  0  0  0  0  0  0  0  0  0  0
  -31.0925   65.0961   62.5335 C   0  0  0  0  0  0  0  0  0  0  0  0
  -30.9387   65.7145   61.1578 C   0  0  0  0  0  0  0  0  0  0  0  0
  -31.3100   67.1829   61.1368 C   0  0  0  0  0  0  0  0  0  0  0  0
  -39.0258   60.9407   62.2133 C   0  0  0  0  0  0  0  0  0  0  0  0
  -37.6841   61.4342   62.1306 O   0  0  0  0  0  0  0  0  0  0  0  0
  -35.2995   62.8560   62.4960 O   0  0  0  0  0  0  0  0  0  0  0  0
  -37.3362   63.1175   66.2783 O   0  0  0  0  0  0  0  0  0  0  0  0
  -37.8030   60.9944   64.3935 O   0  0  0  0  0  0  0  0  0  0  0  0
  -36.9443   61.2906   63.3079 C   0  0  0  0  0  0  0  0  0  0  0  0
  -36.2041   62.5974   63.5622 C   0  0  0  0  0  0  0  0  0  0  0  0
  -35.4516   62.5174   64.8844 C   0  0  0  0  0  0  0  0  0  0  0  0
  -36.3780   62.0973   66.0161 C   0  0  0  0  0  0  0  0  0  0  0  0
  -37.1026   60.8091   65.6340 C   0  0  0  0  0  0  0  0  0  0  0  0
  -35.7899   62.9046   61.6605 H   0  0  0  0  0  0  0  0  0  0  0  0
  -36.8778   63.9370   66.5212 H   0  0  0  0  0  0  0  0  0  0  0  0
  -39.4175   60.9029   66.3564 O   0  0  0  0  0  0  0  0  0  0  0  0
  -38.1289   60.3787   66.6558 C   0  0  0  0  0  0  0  0  0  0  0  0
  -40.0507   60.6087   67.0296 H   0  0  0  0  0  0  0  0  0  0  0  0
  -34.9772   63.8803   65.1226 O   0  0  0  0  0  0  0  0  0  0  0  0
  -33.1583   65.4121   65.5132 O   0  0  0  0  0  0  0  0  0  0  0  0
  -32.7685   62.9297   65.5483 O   0  0  0  0  0  0  0  0  0  0  0  0
  -33.9680   64.0335   67.2743 O   0  0  0  0  0  0  0  0  0  0  0  0
  -33.5520   64.0813   65.7950 S   0  0  0  0  0  0  0  0  0  0  0  0
  -32.8881   65.4794   64.5840 H   0  0  0  0  0  0  0  0  0  0  0  0
  -34.5095   64.8107   67.4832 H   0  0  0  0  0  0  0  0  0  0  0  0
  2  1  1  0  0  0
  2  4  1  0  0  0
  2  5  1  0  0  0
 47 48  1  0  0  0
 47  1  1  0  0  0
 48 52  1  0  0  0
  1 30  1  0  0  0
 29 30  1  0  0  0
 29 31  1  0  0  0
 30 32  1  0  0  0
  3  4  2  0  0  0
 32 33  2  0  0  0
 49 53  1  0  0  0
 49 57  1  0  0  0
 33 34  1  0  0  0
 62 54  1  0  0  0
 62 66  1  0  0  0
 34 35  1  0  0  0
 50 55  1  0  0  0
 50 58  1  0  0  0
 35 36  1  0  0  0
 51 52  1  0  0  0
 51 56  1  0  0  0
 36 37  1  0  0  0
 59 60  1  0  0  0
 59 61  1  0  0  0
 37 38  1  0  0  0
 63 66  1  0  0  0
 63 67  1  0  0  0
 38 39  1  0  0  0
 64 66  1  0  0  0
 39 40  1  0  0  0
 65 66  1  0  0  0
 65 68  1  0  0  0
 40 41  1  0  0  0
 41 42  1  0  0  0
 42 43  1  0  0  0
 43 44  1  0  0  0
 44 45  1  0  0  0
 45 46  1  0  0  0
  4  6  1  0  0  0
  6  7  1  0  0  0
  7  8  1  0  0  0
  8  9  1  0  0  0
  9 10  1  0  0  0
 10 11  1  0  0  0
 11 12  1  0  0  0
 12 13  1  0  0  0
 13 14  1  0  0  0
 14 15  1  0  0  0
 15 16  1  0  0  0
 16 17  1  0  0  0
 17 18  1  0  0  0
 18 19  1  0  0  0
 19 20  2  0  0  0
 20 21  1  0  0  0
 21 22  1  0  0  0
 22 23  1  0  0  0
 23 24  1  0  0  0
 24 25  1  0  0  0
 25 26  1  0  0  0
 26 27  1  0  0  0
 27 28  1  0  0  0
 52 53  1  0  0  0
 53 54  1  0  0  0
 54 55  1  0  0  0
 55 56  1  0  0  0
 56 60  1  0  0  0
M  CHG 1  64  -1
M  END
> <minimizedAffinity>
-8.94447

> <CNNscore>
0.1294535100

> <CNNaffinity>
6.9180884361

> <CNN_VS>
0.8955708146

> <CNNaffinity_variance>
0.9284969568

$$$$
/media/chris/experiments/cd1a-new-docking/inputs/ligands/7ryn_ligand.pdb


 68 68  0  0  0  0  0  0  0  0999 V2000
  -34.5089   62.3181   64.1208 C   0  0  0  0  0  0  0  0  0  0  0  0
  -35.5877   62.1197   63.1574 N   0  0  0  0  0  0  0  0  0  0  0  0
  -37.1943   61.7224   64.6835 O   0  0  0  0  0  0  0  0  0  0  0  0
  -36.8442   61.8379   63.5126 C   0  0  0  0  0  0  0  0  0  0  0  0
  -35.3789   62.1975   62.1985 H   0  0  0  0  0  0  0  0  0  0  0  0
  -37.8224   61.6749   62.3760 C   0  0  0  0  0  0  0  0  0  0  0  0
  -38.1563   60.2151   62.0966 C   0  0  0  0  0  0  0  0  0  0  0  0
  -38.6494   59.9876   60.6766 C   0  0  0  0  0  0  0  0  0  0  0  0
  -39.9311   59.1757   60.5921 C   0  0  0  0  0  0  0  0  0  0  0  0
  -39.8237   57.7903   61.2111 C   0  0  0  0  0  0  0  0  0  0  0  0
  -41.1198   57.2875   61.8342 C   0  0  0  0  0  0  0  0  0  0  0  0
  -40.9665   55.9865   62.6116 C   0  0  0  0  0  0  0  0  0  0  0  0
  -41.5840   56.0060   64.0075 C   0  0  0  0  0  0  0  0  0  0  0  0
  -42.7524   56.9789   64.1575 C   0  0  0  0  0  0  0  0  0  0  0  0
  -43.2144   57.2028   65.5971 C   0  0  0  0  0  0  0  0  0  0  0  0
  -44.1935   58.3672   65.7483 C   0  0  0  0  0  0  0  0  0  0  0  0
  -45.3162   58.4075   64.7117 C   0  0  0  0  0  0  0  0  0  0  0  0
  -46.7185   58.6218   65.2875 C   0  0  0  0  0  0  0  0  0  0  0  0
  -47.4689   59.7255   64.5999 C   0  0  0  0  0  0  0  0  0  0  0  0
  -48.5732   59.5897   63.8872 C   0  0  0  0  0  0  0  0  0  0  0  0
  -49.3005   58.3059   63.6241 C   0  0  0  0  0  0  0  0  0  0  0  0
  -50.3841   58.4225   62.5499 C   0  0  0  0  0  0  0  0  0  0  0  0
  -49.8916   59.0781   61.2666 C   0  0  0  0  0  0  0  0  0  0  0  0
  -50.1059   58.2174   60.0268 C   0  0  0  0  0  0  0  0  0  0  0  0
  -49.2748   56.9399   59.9938 C   0  0  0  0  0  0  0  0  0  0  0  0
  -47.9186   57.1081   59.3234 C   0  0  0  0  0  0  0  0  0  0  0  0
  -47.9508   57.9470   58.0557 C   0  0  0  0  0  0  0  0  0  0  0  0
  -46.7486   57.7132   57.1635 C   0  0  0  0  0  0  0  0  0  0  0  0
  -34.1737   62.0321   66.4958 O   0  0  0  0  0  0  0  0  0  0  0  0
  -34.7401   61.4096   65.3390 C   0  0  0  0  0  0  0  0  0  0  0  0
  -34.5657   62.9115   66.6143 H   0  0  0  0  0  0  0  0  0  0  0  0
  -34.1569   60.0467   65.1243 C   0  0  0  0  0  0  0  0  0  0  0  0
  -33.7138   59.5847   63.9717 C   0  0  0  0  0  0  0  0  0  0  0  0
  -33.1233   58.2246   63.7928 C   0  0  0  0  0  0  0  0  0  0  0  0
  -33.9259   57.4051   62.7803 C   0  0  0  0  0  0  0  0  0  0  0  0
  -35.2722   58.0098   62.4166 C   0  0  0  0  0  0  0  0  0  0  0  0
  -36.4674   57.2489   62.9647 C   0  0  0  0  0  0  0  0  0  0  0  0
  -36.8042   57.5839   64.4104 C   0  0  0  0  0  0  0  0  0  0  0  0
  -38.2914   57.7803   64.6614 C   0  0  0  0  0  0  0  0  0  0  0  0
  -38.6019   58.8593   65.6838 C   0  0  0  0  0  0  0  0  0  0  0  0
  -40.0256   59.3803   65.6197 C   0  0  0  0  0  0  0  0  0  0  0  0
  -40.4788   59.7622   64.2209 C   0  0  0  0  0  0  0  0  0  0  0  0
  -41.6891   60.6775   64.2185 C   0  0  0  0  0  0  0  0  0  0  0  0
  -42.6590   60.4302   63.0790 C   0  0  0  0  0  0  0  0  0  0  0  0
  -42.4551   61.3888   61.9221 C   0  0  0  0  0  0  0  0  0  0  0  0
  -43.2194   62.6843   62.1004 C   0  0  0  0  0  0  0  0  0  0  0  0
  -34.4217   63.7795   64.5095 C   0  0  0  0  0  0  0  0  0  0  0  0
  -33.1245   64.0211   65.0658 O   0  0  0  0  0  0  0  0  0  0  0  0
  -30.6743   62.7565   64.5772 O   0  0  0  0  0  0  0  0  0  0  0  0
  -32.0581   64.0252   60.7045 O   0  0  0  0  0  0  0  0  0  0  0  0
  -32.8842   65.2905   63.1529 O   0  0  0  0  0  0  0  0  0  0  0  0
  -32.2066   64.5729   64.1675 C   0  0  0  0  0  0  0  0  0  0  0  0
  -31.3994   63.4337   63.5585 C   0  0  0  0  0  0  0  0  0  0  0  0
  -30.4435   63.9811   62.5062 C   0  0  0  0  0  0  0  0  0  0  0  0
  -31.1838   64.8332   61.4857 C   0  0  0  0  0  0  0  0  0  0  0  0
  -31.9960   65.9063   62.2065 C   0  0  0  0  0  0  0  0  0  0  0  0
  -31.2931   62.4128   65.2405 H   0  0  0  0  0  0  0  0  0  0  0  0
  -31.5440   63.3426   60.2457 H   0  0  0  0  0  0  0  0  0  0  0  0
  -32.1359   67.1145   60.1066 O   0  0  0  0  0  0  0  0  0  0  0  0
  -32.8529   66.7299   61.2740 C   0  0  0  0  0  0  0  0  0  0  0  0
  -32.7131   67.6403   59.5311 H   0  0  0  0  0  0  0  0  0  0  0  0
  -29.8995   62.7938   61.8477 O   0  0  0  0  0  0  0  0  0  0  0  0
  -32.0630   61.7957   62.2087 O   0  0  0  0  0  0  0  0  0  0  0  0
  -29.9626   60.4897   62.6541 O   0  0  0  0  0  0  0  0  0  0  0  0
  -30.6615   61.0233   60.4489 O   0  0  0  0  0  0  0  0  0  0  0  0
  -30.7221   61.4371   61.9284 S   0  0  0  0  0  0  0  0  0  0  0  0
  -32.1386   62.0635   63.1379 H   0  0  0  0  0  0  0  0  0  0  0  0
  -31.1732   61.6520   59.9161 H   0  0  0  0  0  0  0  0  0  0  0  0
  2  1  1  0  0  0
  2  4  1  0  0  0
  2  5  1  0  0  0
 47 48  1  0  0  0
 47  1  1  0  0  0
 48 52  1  0  0  0
  1 30  1  0  0  0
 29 30  1  0  0  0
 29 31  1  0  0  0
 30 32  1  0  0  0
  3  4  2  0  0  0
 32 33  2  0  0  0
 49 53  1  0  0  0
 49 57  1  0  0  0
 33 34  1  0  0  0
 62 54  1  0  0  0
 62 66  1  0  0  0
 34 35  1  0  0  0
 50 55  1  0  0  0
 50 58  1  0  0  0
 35 36  1  0  0  0
 51 52  1  0  0  0
 51 56  1  0  0  0
 36 37  1  0  0  0
 59 60  1  0  0  0
 59 61  1  0  0  0
 37 38  1  0  0  0
 63 66  1  0  0  0
 63 67  1  0  0  0
 38 39  1  0  0  0
 64 66  1  0  0  0
 39 40  1  0  0  0
 65 66  1  0  0  0
 65 68  1  0  0  0
 40 41  1  0  0  0
 41 42  1  0  0  0
 42 43  1  0  0  0
 43 44  1  0  0  0
 44 45  1  0  0  0
 45 46  1  0  0  0
  4  6  1  0  0  0
  6  7  1  0  0  0
  7  8  1  0  0  0
  8  9  1  0  0  0
  9 10  1  0  0  0
 10 11  1  0  0  0
 11 12  1  0  0  0
 12 13  1  0  0  0
 13 14  1  0  0  0
 14 15  1  0  0  0
 15 16  1  0  0  0
 16 17  1  0  0  0
 17 18  1  0  0  0
 18 19  1  0  0  0
 19 20  2  0  0  0
 20 21  1  0  0  0
 21 22  1  0  0  0
 22 23  1  0  0  0
 23 24  1  0  0  0
 24 25  1  0  0  0
 25 26  1  0  0  0
 26 27  1  0  0  0
 27 28  1  0  0  0
 52 53  1  0  0  0
 53 54  1  0  0  0
 54 55  1  0  0  0
 55 56  1  0  0  0
 56 60  1  0  0  0
M  CHG 1  64  -1
M  END
> <minimizedAffinity>
-9.10831

> <CNNscore>
0.1283740699

> <CNNaffinity>
7.0610556602

> <CNN_VS>
0.9064564705

> <CNNaffinity_variance>
1.7526550293

$$$$
/media/chris/experiments/cd1a-new-docking/inputs/ligands/7ryn_ligand.pdb


 68 68  0  0  0  0  0  0  0  0999 V2000
  -40.2640   60.0784   66.3102 C   0  0  0  0  0  0  0  0  0  0  0  0
  -40.7305   58.8502   65.6736 N   0  0  0  0  0  0  0  0  0  0  0  0
  -42.2596   58.3382   67.2445 O   0  0  0  0  0  0  0  0  0  0  0  0
  -41.6900   58.0769   66.1889 C   0  0  0  0  0  0  0  0  0  0  0  0
  -40.3173   58.5783   64.8224 H   0  0  0  0  0  0  0  0  0  0  0  0
  -42.0429   56.8513   65.3836 C   0  0  0  0  0  0  0  0  0  0  0  0
  -43.5397   56.7311   65.1270 C   0  0  0  0  0  0  0  0  0  0  0  0
  -44.1219   57.9681   64.4619 C   0  0  0  0  0  0  0  0  0  0  0  0
  -45.3752   58.4989   65.1377 C   0  0  0  0  0  0  0  0  0  0  0  0
  -45.4180   58.2491   66.6377 C   0  0  0  0  0  0  0  0  0  0  0  0
  -46.7339   57.6609   67.1308 C   0  0  0  0  0  0  0  0  0  0  0  0
  -47.4395   56.7823   66.1058 C   0  0  0  0  0  0  0  0  0  0  0  0
  -48.5856   57.4673   65.3658 C   0  0  0  0  0  0  0  0  0  0  0  0
  -49.3670   58.4665   66.2175 C   0  0  0  0  0  0  0  0  0  0  0  0
  -48.9963   59.9306   65.9829 C   0  0  0  0  0  0  0  0  0  0  0  0
  -48.2765   60.1714   64.6559 C   0  0  0  0  0  0  0  0  0  0  0  0
  -49.0691   60.9767   63.6264 C   0  0  0  0  0  0  0  0  0  0  0  0
  -49.6950   60.1474   62.5019 C   0  0  0  0  0  0  0  0  0  0  0  0
  -50.8563   59.3170   62.9664 C   0  0  0  0  0  0  0  0  0  0  0  0
  -51.3831   58.2881   62.3263 C   0  0  0  0  0  0  0  0  0  0  0  0
  -50.9248   57.7411   61.0084 C   0  0  0  0  0  0  0  0  0  0  0  0
  -49.6777   56.8600   61.1089 C   0  0  0  0  0  0  0  0  0  0  0  0
  -48.5827   57.2521   60.1259 C   0  0  0  0  0  0  0  0  0  0  0  0
  -47.9814   56.0635   59.3844 C   0  0  0  0  0  0  0  0  0  0  0  0
  -48.2785   56.0360   57.8895 C   0  0  0  0  0  0  0  0  0  0  0  0
  -47.0329   56.0876   57.0161 C   0  0  0  0  0  0  0  0  0  0  0  0
  -46.2695   57.4000   57.0976 C   0  0  0  0  0  0  0  0  0  0  0  0
  -47.1781   58.6125   57.0787 C   0  0  0  0  0  0  0  0  0  0  0  0
  -41.6274   62.0562   66.5636 O   0  0  0  0  0  0  0  0  0  0  0  0
  -40.8944   61.2894   65.6039 C   0  0  0  0  0  0  0  0  0  0  0  0
  -41.0365   62.3196   67.2864 H   0  0  0  0  0  0  0  0  0  0  0  0
  -41.7770   60.8643   64.4707 C   0  0  0  0  0  0  0  0  0  0  0  0
  -41.4065   60.7907   63.2076 C   0  0  0  0  0  0  0  0  0  0  0  0
  -42.3070   60.3483   62.1014 C   0  0  0  0  0  0  0  0  0  0  0  0
  -42.3330   61.3763   60.9684 C   0  0  0  0  0  0  0  0  0  0  0  0
  -41.4748   61.0047   59.7701 C   0  0  0  0  0  0  0  0  0  0  0  0
  -40.6372   59.7525   59.9658 C   0  0  0  0  0  0  0  0  0  0  0  0
  -39.1924   60.0291   60.3554 C   0  0  0  0  0  0  0  0  0  0  0  0
  -38.1814   59.1943   59.5845 C   0  0  0  0  0  0  0  0  0  0  0  0
  -37.2823   58.3503   60.4707 C   0  0  0  0  0  0  0  0  0  0  0  0
  -37.4442   58.6236   61.9545 C   0  0  0  0  0  0  0  0  0  0  0  0
  -37.7013   57.3780   62.7852 C   0  0  0  0  0  0  0  0  0  0  0  0
  -38.9158   56.5955   62.3213 C   0  0  0  0  0  0  0  0  0  0  0  0
  -40.2399   57.2973   62.5553 C   0  0  0  0  0  0  0  0  0  0  0  0
  -41.4124   56.5418   61.9611 C   0  0  0  0  0  0  0  0  0  0  0  0
  -41.4917   56.6847   60.4552 C   0  0  0  0  0  0  0  0  0  0  0  0
  -38.7504   60.1320   66.2890 C   0  0  0  0  0  0  0  0  0  0  0  0
  -38.3335   60.5772   64.9933 O   0  0  0  0  0  0  0  0  0  0  0  0
  -37.1283   61.2841   62.5666 O   0  0  0  0  0  0  0  0  0  0  0  0
  -36.4983   64.6720   65.1450 O   0  0  0  0  0  0  0  0  0  0  0  0
  -36.9309   62.0074   66.1403 O   0  0  0  0  0  0  0  0  0  0  0  0
  -37.0910   61.2173   64.9768 C   0  0  0  0  0  0  0  0  0  0  0  0
  -37.0278   62.0928   63.7319 C   0  0  0  0  0  0  0  0  0  0  0  0
  -35.7229   62.8788   63.7173 C   0  0  0  0  0  0  0  0  0  0  0  0
  -35.5273   63.6378   65.0216 C   0  0  0  0  0  0  0  0  0  0  0  0
  -35.6606   62.6758   66.1995 C   0  0  0  0  0  0  0  0  0  0  0  0
  -37.9623   60.7892   62.5874 H   0  0  0  0  0  0  0  0  0  0  0  0
  -36.4153   65.2844   64.3974 H   0  0  0  0  0  0  0  0  0  0  0  0
  -34.2499   63.6713   67.9047 O   0  0  0  0  0  0  0  0  0  0  0  0
  -35.5915   63.3660   67.5416 C   0  0  0  0  0  0  0  0  0  0  0  0
  -34.2411   64.1123   68.7686 H   0  0  0  0  0  0  0  0  0  0  0  0
  -35.8771   63.8305   62.6174 O   0  0  0  0  0  0  0  0  0  0  0  0
  -33.6789   63.1779   61.8764 O   0  0  0  0  0  0  0  0  0  0  0  0
  -34.2760   65.6066   62.1224 O   0  0  0  0  0  0  0  0  0  0  0  0
  -35.1771   64.2655   60.3830 O   0  0  0  0  0  0  0  0  0  0  0  0
  -34.5847   64.2638   61.8017 S   0  0  0  0  0  0  0  0  0  0  0  0
  -33.2844   63.1462   62.7620 H   0  0  0  0  0  0  0  0  0  0  0  0
  -35.4027   63.3577   60.1258 H   0  0  0  0  0  0  0  0  0  0  0  0
  2  1  1  0  0  0
  2  4  1  0  0  0
  2  5  1  0  0  0
 47 48  1  0  0  0
 47  1  1  0  0  0
 48 52  1  0  0  0
  1 30  1  0  0  0
 29 30  1  0  0  0
 29 31  1  0  0  0
 30 32  1  0  0  0
  3  4  2  0  0  0
 32 33  2  0  0  0
 49 53  1  0  0  0
 49 57  1  0  0  0
 33 34  1  0  0  0
 62 54  1  0  0  0
 62 66  1  0  0  0
 34 35  1  0  0  0
 50 55  1  0  0  0
 50 58  1  0  0  0
 35 36  1  0  0  0
 51 52  1  0  0  0
 51 56  1  0  0  0
 36 37  1  0  0  0
 59 60  1  0  0  0
 59 61  1  0  0  0
 37 38  1  0  0  0
 63 66  1  0  0  0
 63 67  1  0  0  0
 38 39  1  0  0  0
 64 66  1  0  0  0
 39 40  1  0  0  0
 65 66  1  0  0  0
 65 68  1  0  0  0
 40 41  1  0  0  0
 41 42  1  0  0  0
 42 43  1  0  0  0
 43 44  1  0  0  0
 44 45  1  0  0  0
 45 46  1  0  0  0
  4  6  1  0  0  0
  6  7  1  0  0  0
  7  8  1  0  0  0
  8  9  1  0  0  0
  9 10  1  0  0  0
 10 11  1  0  0  0
 11 12  1  0  0  0
 12 13  1  0  0  0
 13 14  1  0  0  0
 14 15  1  0  0  0
 15 16  1  0  0  0
 16 17  1  0  0  0
 17 18  1  0  0  0
 18 19  1  0  0  0
 19 20  2  0  0  0
 20 21  1  0  0  0
 21 22  1  0  0  0
 22 23  1  0  0  0
 23 24  1  0  0  0
 24 25  1  0  0  0
 25 26  1  0  0  0
 26 27  1  0  0  0
 27 28  1  0  0  0
 52 53  1  0  0  0
 53 54  1  0  0  0
 54 55  1  0  0  0
 55 56  1  0  0  0
 56 60  1  0  0  0
M  CHG 1  64  -1
M  END
> <minimizedAffinity>
-8.72049

> <CNNscore>
0.1251141280

> <CNNaffinity>
7.3944220543

> <CNN_VS>
0.9251466393

> <CNNaffinity_variance>
1.8258157969

$$$$
/media/chris/experiments/cd1a-new-docking/inputs/ligands/7ryn_ligand.pdb


 68 68  0  0  0  0  0  0  0  0999 V2000
  -38.7800   60.0132   61.3394 C   0  0  0  0  0  0  0  0  0  0  0  0
  -39.6872   58.9451   61.7485 N   0  0  0  0  0  0  0  0  0  0  0  0
  -40.9772   59.0143   59.9049 O   0  0  0  0  0  0  0  0  0  0  0  0
  -40.7132   58.5292   61.0012 C   0  0  0  0  0  0  0  0  0  0  0  0
  -39.5352   58.5097   62.6184 H   0  0  0  0  0  0  0  0  0  0  0  0
  -41.5354   57.4087   61.5876 C   0  0  0  0  0  0  0  0  0  0  0  0
  -40.7218   56.5044   62.5046 C   0  0  0  0  0  0  0  0  0  0  0  0
  -41.5260   55.9950   63.6900 C   0  0  0  0  0  0  0  0  0  0  0  0
  -42.7269   56.8592   64.0369 C   0  0  0  0  0  0  0  0  0  0  0  0
  -43.0019   56.9597   65.5297 C   0  0  0  0  0  0  0  0  0  0  0  0
  -44.1306   57.9176   65.8890 C   0  0  0  0  0  0  0  0  0  0  0  0
  -44.9696   58.3574   64.6961 C   0  0  0  0  0  0  0  0  0  0  0  0
  -46.3303   58.9455   65.0609 C   0  0  0  0  0  0  0  0  0  0  0  0
  -46.7454   58.7009   66.5107 C   0  0  0  0  0  0  0  0  0  0  0  0
  -47.7889   57.5998   66.6977 C   0  0  0  0  0  0  0  0  0  0  0  0
  -48.8829   57.6101   65.6300 C   0  0  0  0  0  0  0  0  0  0  0  0
  -50.1295   58.4189   65.9884 C   0  0  0  0  0  0  0  0  0  0  0  0
  -50.2535   59.7652   65.2701 C   0  0  0  0  0  0  0  0  0  0  0  0
  -51.3058   59.7602   64.1993 C   0  0  0  0  0  0  0  0  0  0  0  0
  -51.1030   59.5584   62.9093 C   0  0  0  0  0  0  0  0  0  0  0  0
  -49.7810   59.2908   62.2559 C   0  0  0  0  0  0  0  0  0  0  0  0
  -49.7624   59.6002   60.7574 C   0  0  0  0  0  0  0  0  0  0  0  0
  -49.6822   58.3538   59.8861 C   0  0  0  0  0  0  0  0  0  0  0  0
  -48.5659   57.3999   60.2960 C   0  0  0  0  0  0  0  0  0  0  0  0
  -48.4413   56.1597   59.4186 C   0  0  0  0  0  0  0  0  0  0  0  0
  -47.1277   56.0794   58.6538 C   0  0  0  0  0  0  0  0  0  0  0  0
  -47.2311   56.4922   57.1941 C   0  0  0  0  0  0  0  0  0  0  0  0
  -47.0458   57.9819   56.9883 C   0  0  0  0  0  0  0  0  0  0  0  0
  -38.0670   58.9735   59.2790 O   0  0  0  0  0  0  0  0  0  0  0  0
  -37.6011   59.4096   60.5593 C   0  0  0  0  0  0  0  0  0  0  0  0
  -38.4726   59.7202   58.8110 H   0  0  0  0  0  0  0  0  0  0  0  0
  -36.9673   58.2801   61.3120 C   0  0  0  0  0  0  0  0  0  0  0  0
  -35.7754   58.3183   61.8743 C   0  0  0  0  0  0  0  0  0  0  0  0
  -35.1766   57.1790   62.6318 C   0  0  0  0  0  0  0  0  0  0  0  0
  -35.3407   57.3746   64.1405 C   0  0  0  0  0  0  0  0  0  0  0  0
  -35.6301   58.8081   64.5551 C   0  0  0  0  0  0  0  0  0  0  0  0
  -36.9882   59.0083   65.2056 C   0  0  0  0  0  0  0  0  0  0  0  0
  -37.9962   57.9150   64.8826 C   0  0  0  0  0  0  0  0  0  0  0  0
  -39.4093   58.2299   65.3489 C   0  0  0  0  0  0  0  0  0  0  0  0
  -39.6109   59.6794   65.7545 C   0  0  0  0  0  0  0  0  0  0  0  0
  -40.9656   59.9647   66.3757 C   0  0  0  0  0  0  0  0  0  0  0  0
  -41.9130   60.7250   65.4637 C   0  0  0  0  0  0  0  0  0  0  0  0
  -41.6291   60.4973   63.9905 C   0  0  0  0  0  0  0  0  0  0  0  0
  -42.8412   60.6388   63.0899 C   0  0  0  0  0  0  0  0  0  0  0  0
  -42.5680   61.5080   61.8781 C   0  0  0  0  0  0  0  0  0  0  0  0
  -43.2749   62.8457   61.9522 C   0  0  0  0  0  0  0  0  0  0  0  0
  -38.3187   60.7958   62.5515 C   0  0  0  0  0  0  0  0  0  0  0  0
  -37.4864   61.8714   62.1033 O   0  0  0  0  0  0  0  0  0  0  0  0
  -35.5368   63.7473   61.3812 O   0  0  0  0  0  0  0  0  0  0  0  0
  -36.6477   64.7966   65.4045 O   0  0  0  0  0  0  0  0  0  0  0  0
  -36.9644   62.1444   64.3352 O   0  0  0  0  0  0  0  0  0  0  0  0
  -36.4853   62.2396   63.0067 C   0  0  0  0  0  0  0  0  0  0  0  0
  -36.0733   63.6727   62.6960 C   0  0  0  0  0  0  0  0  0  0  0  0
  -35.0435   64.1476   63.7133 C   0  0  0  0  0  0  0  0  0  0  0  0
  -35.5433   63.9389   65.1353 C   0  0  0  0  0  0  0  0  0  0  0  0
  -35.9748   62.4861   65.3189 C   0  0  0  0  0  0  0  0  0  0  0  0
  -36.2010   63.4427   60.7432 H   0  0  0  0  0  0  0  0  0  0  0  0
  -36.3756   65.7203   65.2883 H   0  0  0  0  0  0  0  0  0  0  0  0
  -35.9971   63.0162   67.6870 O   0  0  0  0  0  0  0  0  0  0  0  0
  -36.5908   62.2153   66.6716 C   0  0  0  0  0  0  0  0  0  0  0  0
  -36.4140   62.8182   68.5401 H   0  0  0  0  0  0  0  0  0  0  0  0
  -34.8991   65.5795   63.4521 O   0  0  0  0  0  0  0  0  0  0  0  0
  -33.6455   67.5134   62.7479 O   0  0  0  0  0  0  0  0  0  0  0  0
  -32.9172   65.2040   62.0759 O   0  0  0  0  0  0  0  0  0  0  0  0
  -32.7140   65.9806   64.3101 O   0  0  0  0  0  0  0  0  0  0  0  0
  -33.4825   66.1271   62.9865 S   0  0  0  0  0  0  0  0  0  0  0  0
  -34.1287   67.6438   61.9169 H   0  0  0  0  0  0  0  0  0  0  0  0
  -33.0743   66.6005   64.9635 H   0  0  0  0  0  0  0  0  0  0  0  0
  2  1  1  0  0  0
  2  4  1  0  0  0
  2  5  1  0  0  0
 47 48  1  0  0  0
 47  1  1  0  0  0
 48 52  1  0  0  0
  1 30  1  0  0  0
 29 30  1  0  0  0
 29 31  1  0  0  0
 30 32  1  0  0  0
  3  4  2  0  0  0
 32 33  2  0  0  0
 49 53  1  0  0  0
 49 57  1  0  0  0
 33 34  1  0  0  0
 62 54  1  0  0  0
 62 66  1  0  0  0
 34 35  1  0  0  0
 50 55  1  0  0  0
 50 58  1  0  0  0
 35 36  1  0  0  0
 51 52  1  0  0  0
 51 56  1  0  0  0
 36 37  1  0  0  0
 59 60  1  0  0  0
 59 61  1  0  0  0
 37 38  1  0  0  0
 63 66  1  0  0  0
 63 67  1  0  0  0
 38 39  1  0  0  0
 64 66  1  0  0  0
 39 40  1  0  0  0
 65 66  1  0  0  0
 65 68  1  0  0  0
 40 41  1  0  0  0
 41 42  1  0  0  0
 42 43  1  0  0  0
 43 44  1  0  0  0
 44 45  1  0  0  0
 45 46  1  0  0  0
  4  6  1  0  0  0
  6  7  1  0  0  0
  7  8  1  0  0  0
  8  9  1  0  0  0
  9 10  1  0  0  0
 10 11  1  0  0  0
 11 12  1  0  0  0
 12 13  1  0  0  0
 13 14  1  0  0  0
 14 15  1  0  0  0
 15 16  1  0  0  0
 16 17  1  0  0  0
 17 18  1  0  0  0
 18 19  1  0  0  0
 19 20  2  0  0  0
 20 21  1  0  0  0
 21 22  1  0  0  0
 22 23  1  0  0  0
 23 24  1  0  0  0
 24 25  1  0  0  0
 25 26  1  0  0  0
 26 27  1  0  0  0
 27 28  1  0  0  0
 52 53  1  0  0  0
 53 54  1  0  0  0
 54 55  1  0  0  0
 55 56  1  0  0  0
 56 60  1  0  0  0
M  CHG 1  64  -1
M  END
> <minimizedAffinity>
-8.96290

> <CNNscore>
0.1209937856

> <CNNaffinity>
7.4708681107

> <CNN_VS>
0.9039286375

> <CNNaffinity_variance>
1.9694786072

$$$$
/media/chris/experiments/cd1a-new-docking/inputs/ligands/7ryn_ligand.pdb


 68 68  0  0  0  0  0  0  0  0999 V2000
  -37.7250   58.8987   61.4436 C   0  0  0  0  0  0  0  0  0  0  0  0
  -38.9381   58.2812   60.9161 N   0  0  0  0  0  0  0  0  0  0  0  0
  -39.6340   60.0827   59.7591 O   0  0  0  0  0  0  0  0  0  0  0  0
  -39.7968   58.9196   60.1164 C   0  0  0  0  0  0  0  0  0  0  0  0
  -39.1330   57.3481   61.1619 H   0  0  0  0  0  0  0  0  0  0  0  0
  -40.9904   58.1148   59.6660 C   0  0  0  0  0  0  0  0  0  0  0  0
  -41.7383   57.4768   60.8296 C   0  0  0  0  0  0  0  0  0  0  0  0
  -42.1504   58.4883   61.8872 C   0  0  0  0  0  0  0  0  0  0  0  0
  -43.0075   57.9041   62.9978 C   0  0  0  0  0  0  0  0  0  0  0  0
  -42.2977   56.8486   63.8321 C   0  0  0  0  0  0  0  0  0  0  0  0
  -41.7856   57.3593   65.1728 C   0  0  0  0  0  0  0  0  0  0  0  0
  -42.8322   57.3437   66.2795 C   0  0  0  0  0  0  0  0  0  0  0  0
  -43.2504   58.7254   66.7758 C   0  0  0  0  0  0  0  0  0  0  0  0
  -44.7621   58.9131   66.8932 C   0  0  0  0  0  0  0  0  0  0  0  0
  -45.5926   57.7509   66.3493 C   0  0  0  0  0  0  0  0  0  0  0  0
  -46.9818   57.6481   66.9792 C   0  0  0  0  0  0  0  0  0  0  0  0
  -48.1234   57.4038   65.9924 C   0  0  0  0  0  0  0  0  0  0  0  0
  -48.0412   58.2159   64.6971 C   0  0  0  0  0  0  0  0  0  0  0  0
  -48.3919   59.6626   64.8924 C   0  0  0  0  0  0  0  0  0  0  0  0
  -49.6020   60.1876   64.8153 C   0  0  0  0  0  0  0  0  0  0  0  0
  -50.8689   59.4433   64.5200 C   0  0  0  0  0  0  0  0  0  0  0  0
  -51.3064   59.5312   63.0563 C   0  0  0  0  0  0  0  0  0  0  0  0
  -50.7823   58.3851   62.2013 C   0  0  0  0  0  0  0  0  0  0  0  0
  -49.5287   58.7437   61.4115 C   0  0  0  0  0  0  0  0  0  0  0  0
  -48.9535   57.5985   60.5860 C   0  0  0  0  0  0  0  0  0  0  0  0
  -49.0826   57.8013   59.0829 C   0  0  0  0  0  0  0  0  0  0  0  0
  -47.9794   57.1435   58.2692 C   0  0  0  0  0  0  0  0  0  0  0  0
  -47.2348   58.1234   57.3853 C   0  0  0  0  0  0  0  0  0  0  0  0
  -37.2131   57.8874   63.5766 O   0  0  0  0  0  0  0  0  0  0  0  0
  -36.8936   57.8382   62.1831 C   0  0  0  0  0  0  0  0  0  0  0  0
  -38.1667   57.7538   63.6946 H   0  0  0  0  0  0  0  0  0  0  0  0
  -35.4259   58.0412   61.9625 C   0  0  0  0  0  0  0  0  0  0  0  0
  -34.4746   57.6568   62.7904 C   0  0  0  0  0  0  0  0  0  0  0  0
  -33.0174   57.8606   62.5346 C   0  0  0  0  0  0  0  0  0  0  0  0
  -32.4814   59.0549   63.3267 C   0  0  0  0  0  0  0  0  0  0  0  0
  -31.9904   60.2055   62.4632 C   0  0  0  0  0  0  0  0  0  0  0  0
  -30.4860   60.2310   62.2529 C   0  0  0  0  0  0  0  0  0  0  0  0
  -29.8711   61.6195   62.3504 C   0  0  0  0  0  0  0  0  0  0  0  0
  -30.6299   62.6800   61.5676 C   0  0  0  0  0  0  0  0  0  0  0  0
  -30.1035   64.0889   61.7775 C   0  0  0  0  0  0  0  0  0  0  0  0
  -30.2666   64.9957   60.5718 C   0  0  0  0  0  0  0  0  0  0  0  0
  -31.6324   65.6540   60.4772 C   0  0  0  0  0  0  0  0  0  0  0  0
  -31.6911   67.0016   61.1722 C   0  0  0  0  0  0  0  0  0  0  0  0
  -32.9212   67.2084   62.0349 C   0  0  0  0  0  0  0  0  0  0  0  0
  -33.7555   65.9498   62.1709 C   0  0  0  0  0  0  0  0  0  0  0  0
  -35.2206   66.1894   61.8698 C   0  0  0  0  0  0  0  0  0  0  0  0
  -38.0837   60.0665   62.3392 C   0  0  0  0  0  0  0  0  0  0  0  0
  -36.9511   60.9394   62.4165 O   0  0  0  0  0  0  0  0  0  0  0  0
  -34.6919   62.5350   62.8537 O   0  0  0  0  0  0  0  0  0  0  0  0
  -37.2876   63.3521   66.1879 O   0  0  0  0  0  0  0  0  0  0  0  0
  -37.4006   60.9042   64.6803 O   0  0  0  0  0  0  0  0  0  0  0  0
  -36.3955   61.0498   63.6944 C   0  0  0  0  0  0  0  0  0  0  0  0
  -35.7405   62.4204   63.8072 C   0  0  0  0  0  0  0  0  0  0  0  0
  -35.1962   62.6198   65.2160 C   0  0  0  0  0  0  0  0  0  0  0  0
  -36.2717   62.3569   66.2599 C   0  0  0  0  0  0  0  0  0  0  0  0
  -36.8923   60.9826   66.0217 C   0  0  0  0  0  0  0  0  0  0  0  0
  -35.0505   62.4064   61.9616 H   0  0  0  0  0  0  0  0  0  0  0  0
  -36.8953   64.2263   66.3389 H   0  0  0  0  0  0  0  0  0  0  0  0
  -39.2997   60.9653   66.3274 O   0  0  0  0  0  0  0  0  0  0  0  0
  -38.0494   60.6845   66.9462 C   0  0  0  0  0  0  0  0  0  0  0  0
  -40.0191   60.7637   66.9459 H   0  0  0  0  0  0  0  0  0  0  0  0
  -34.8030   64.0277   65.2644 O   0  0  0  0  0  0  0  0  0  0  0  0
  -33.9982   64.4885   67.4887 O   0  0  0  0  0  0  0  0  0  0  0  0
  -32.8414   65.4656   65.4830 O   0  0  0  0  0  0  0  0  0  0  0  0
  -32.7136   63.1517   65.9985 O   0  0  0  0  0  0  0  0  0  0  0  0
  -33.5469   64.4351   66.1475 S   0  0  0  0  0  0  0  0  0  0  0  0
  -34.5298   65.2893   67.6193 H   0  0  0  0  0  0  0  0  0  0  0  0
  -33.1668   62.4185   66.4435 H   0  0  0  0  0  0  0  0  0  0  0  0
  2  1  1  0  0  0
  2  4  1  0  0  0
  2  5  1  0  0  0
 47 48  1  0  0  0
 47  1  1  0  0  0
 48 52  1  0  0  0
  1 30  1  0  0  0
 29 30  1  0  0  0
 29 31  1  0  0  0
 30 32  1  0  0  0
  3  4  2  0  0  0
 32 33  2  0  0  0
 49 53  1  0  0  0
 49 57  1  0  0  0
 33 34  1  0  0  0
 62 54  1  0  0  0
 62 66  1  0  0  0
 34 35  1  0  0  0
 50 55  1  0  0  0
 50 58  1  0  0  0
 35 36  1  0  0  0
 51 52  1  0  0  0
 51 56  1  0  0  0
 36 37  1  0  0  0
 59 60  1  0  0  0
 59 61  1  0  0  0
 37 38  1  0  0  0
 63 66  1  0  0  0
 63 67  1  0  0  0
 38 39  1  0  0  0
 64 66  1  0  0  0
 39 40  1  0  0  0
 65 66  1  0  0  0
 65 68  1  0  0  0
 40 41  1  0  0  0
 41 42  1  0  0  0
 42 43  1  0  0  0
 43 44  1  0  0  0
 44 45  1  0  0  0
 45 46  1  0  0  0
  4  6  1  0  0  0
  6  7  1  0  0  0
  7  8  1  0  0  0
  8  9  1  0  0  0
  9 10  1  0  0  0
 10 11  1  0  0  0
 11 12  1  0  0  0
 12 13  1  0  0  0
 13 14  1  0  0  0
 14 15  1  0  0  0
 15 16  1  0  0  0
 16 17  1  0  0  0
 17 18  1  0  0  0
 18 19  1  0  0  0
 19 20  2  0  0  0
 20 21  1  0  0  0
 21 22  1  0  0  0
 22 23  1  0  0  0
 23 24  1  0  0  0
 24 25  1  0  0  0
 25 26  1  0  0  0
 26 27  1  0  0  0
 27 28  1  0  0  0
 52 53  1  0  0  0
 53 54  1  0  0  0
 54 55  1  0  0  0
 55 56  1  0  0  0
 56 60  1  0  0  0
M  CHG 1  64  -1
M  END
> <minimizedAffinity>
-9.03208

> <CNNscore>
0.1196240634

> <CNNaffinity>
6.9206237793

> <CNN_VS>
0.8278731108

> <CNNaffinity_variance>
0.8063021898

$$$$
/media/chris/experiments/cd1a-new-docking/inputs/ligands/7ryn_ligand.pdb


 68 68  0  0  0  0  0  0  0  0999 V2000
  -35.6185   58.3212   62.1525 C   0  0  0  0  0  0  0  0  0  0  0  0
  -36.5401   58.2983   61.0205 N   0  0  0  0  0  0  0  0  0  0  0  0
  -37.7401   60.0929   61.6590 O   0  0  0  0  0  0  0  0  0  0  0  0
  -37.5273   59.1840   60.8618 C   0  0  0  0  0  0  0  0  0  0  0  0
  -36.4285   57.5953   60.3405 H   0  0  0  0  0  0  0  0  0  0  0  0
  -38.3724   59.0042   59.6253 C   0  0  0  0  0  0  0  0  0  0  0  0
  -39.7393   58.4066   59.9329 C   0  0  0  0  0  0  0  0  0  0  0  0
  -40.8397   59.4545   59.9838 C   0  0  0  0  0  0  0  0  0  0  0  0
  -41.7534   59.3303   61.1917 C   0  0  0  0  0  0  0  0  0  0  0  0
  -41.9978   60.6456   61.9160 C   0  0  0  0  0  0  0  0  0  0  0  0
  -42.7214   60.4946   63.2480 C   0  0  0  0  0  0  0  0  0  0  0  0
  -43.0790   59.0553   63.5961 C   0  0  0  0  0  0  0  0  0  0  0  0
  -43.6847   58.8711   64.9851 C   0  0  0  0  0  0  0  0  0  0  0  0
  -44.7553   57.7834   65.0577 C   0  0  0  0  0  0  0  0  0  0  0  0
  -46.1829   58.2781   64.8270 C   0  0  0  0  0  0  0  0  0  0  0  0
  -47.0994   58.0778   66.0341 C   0  0  0  0  0  0  0  0  0  0  0  0
  -47.7199   59.3572   66.5949 C   0  0  0  0  0  0  0  0  0  0  0  0
  -49.0192   59.7961   65.9142 C   0  0  0  0  0  0  0  0  0  0  0  0
  -48.7824   60.5938   64.6646 C   0  0  0  0  0  0  0  0  0  0  0  0
  -49.4708   60.5026   63.5406 C   0  0  0  0  0  0  0  0  0  0  0  0
  -50.6291   59.5857   63.2879 C   0  0  0  0  0  0  0  0  0  0  0  0
  -50.2161   58.1883   62.8208 C   0  0  0  0  0  0  0  0  0  0  0  0
  -50.9248   57.7449   61.5479 C   0  0  0  0  0  0  0  0  0  0  0  0
  -50.3504   58.3759   60.2846 C   0  0  0  0  0  0  0  0  0  0  0  0
  -48.9161   57.9664   59.9704 C   0  0  0  0  0  0  0  0  0  0  0  0
  -48.7070   57.5230   58.5293 C   0  0  0  0  0  0  0  0  0  0  0  0
  -47.2803   57.1079   58.2066 C   0  0  0  0  0  0  0  0  0  0  0  0
  -46.6859   57.8895   57.0526 C   0  0  0  0  0  0  0  0  0  0  0  0
  -33.8025   56.7498   62.4123 O   0  0  0  0  0  0  0  0  0  0  0  0
  -34.2173   57.9048   61.6772 C   0  0  0  0  0  0  0  0  0  0  0  0
  -34.4548   56.0413   62.2964 H   0  0  0  0  0  0  0  0  0  0  0  0
  -33.2315   59.0218   61.8334 C   0  0  0  0  0  0  0  0  0  0  0  0
  -32.2073   59.0185   62.6636 C   0  0  0  0  0  0  0  0  0  0  0  0
  -31.2322   60.1431   62.7855 C   0  0  0  0  0  0  0  0  0  0  0  0
  -31.0198   60.8358   61.4379 C   0  0  0  0  0  0  0  0  0  0  0  0
  -30.0366   61.9942   61.4808 C   0  0  0  0  0  0  0  0  0  0  0  0
  -30.6883   63.3664   61.4994 C   0  0  0  0  0  0  0  0  0  0  0  0
  -32.2095   63.3289   61.5070 C   0  0  0  0  0  0  0  0  0  0  0  0
  -32.8551   64.6719   61.2022 C   0  0  0  0  0  0  0  0  0  0  0  0
  -31.8763   65.7237   60.7105 C   0  0  0  0  0  0  0  0  0  0  0  0
  -31.9218   67.0237   61.4917 C   0  0  0  0  0  0  0  0  0  0  0  0
  -30.6595   67.3080   62.2875 C   0  0  0  0  0  0  0  0  0  0  0  0
  -30.8144   67.0189   63.7691 C   0  0  0  0  0  0  0  0  0  0  0  0
  -30.0492   65.8021   64.2532 C   0  0  0  0  0  0  0  0  0  0  0  0
  -30.9515   64.7596   64.8838 C   0  0  0  0  0  0  0  0  0  0  0  0
  -32.3394   65.2925   65.1740 C   0  0  0  0  0  0  0  0  0  0  0  0
  -36.1332   57.4248   63.2597 C   0  0  0  0  0  0  0  0  0  0  0  0
  -35.5426   57.8485   64.4936 O   0  0  0  0  0  0  0  0  0  0  0  0
  -34.6670   60.4673   64.9590 O   0  0  0  0  0  0  0  0  0  0  0  0
  -38.8443   60.8501   63.9968 O   0  0  0  0  0  0  0  0  0  0  0  0
  -37.7000   58.4367   65.0663 O   0  0  0  0  0  0  0  0  0  0  0  0
  -36.3272   58.7396   65.2313 C   0  0  0  0  0  0  0  0  0  0  0  0
  -36.0345   60.1492   64.7336 C   0  0  0  0  0  0  0  0  0  0  0  0
  -36.9334   61.1485   65.4507 C   0  0  0  0  0  0  0  0  0  0  0  0
  -38.3960   60.7428   65.3441 C   0  0  0  0  0  0  0  0  0  0  0  0
  -38.5644   59.3020   65.8198 C   0  0  0  0  0  0  0  0  0  0  0  0
  -34.1054   59.8247   64.4980 H   0  0  0  0  0  0  0  0  0  0  0  0
  -38.7381   61.7649   63.6925 H   0  0  0  0  0  0  0  0  0  0  0  0
  -40.1430   58.1608   64.3724 O   0  0  0  0  0  0  0  0  0  0  0  0
  -39.9703   58.7779   65.6429 C   0  0  0  0  0  0  0  0  0  0  0  0
  -41.0535   57.8363   64.2915 H   0  0  0  0  0  0  0  0  0  0  0  0
  -36.7239   62.4099   64.7405 O   0  0  0  0  0  0  0  0  0  0  0  0
  -35.9925   64.7027   64.6166 O   0  0  0  0  0  0  0  0  0  0  0  0
  -34.8550   63.0802   66.1623 O   0  0  0  0  0  0  0  0  0  0  0  0
  -37.0492   63.8828   66.5835 O   0  0  0  0  0  0  0  0  0  0  0  0
  -35.9941   63.5977   65.5022 S   0  0  0  0  0  0  0  0  0  0  0  0
  -35.3353   64.5563   63.9182 H   0  0  0  0  0  0  0  0  0  0  0  0
  -37.8494   64.2408   66.1680 H   0  0  0  0  0  0  0  0  0  0  0  0
  2  1  1  0  0  0
  2  4  1  0  0  0
  2  5  1  0  0  0
 47 48  1  0  0  0
 47  1  1  0  0  0
 48 52  1  0  0  0
  1 30  1  0  0  0
 29 30  1  0  0  0
 29 31  1  0  0  0
 30 32  1  0  0  0
  3  4  2  0  0  0
 32 33  2  0  0  0
 49 53  1  0  0  0
 49 57  1  0  0  0
 33 34  1  0  0  0
 62 54  1  0  0  0
 62 66  1  0  0  0
 34 35  1  0  0  0
 50 55  1  0  0  0
 50 58  1  0  0  0
 35 36  1  0  0  0
 51 52  1  0  0  0
 51 56  1  0  0  0
 36 37  1  0  0  0
 59 60  1  0  0  0
 59 61  1  0  0  0
 37 38  1  0  0  0
 63 66  1  0  0  0
 63 67  1  0  0  0
 38 39  1  0  0  0
 64 66  1  0  0  0
 39 40  1  0  0  0
 65 66  1  0  0  0
 65 68  1  0  0  0
 40 41  1  0  0  0
 41 42  1  0  0  0
 42 43  1  0  0  0
 43 44  1  0  0  0
 44 45  1  0  0  0
 45 46  1  0  0  0
  4  6  1  0  0  0
  6  7  1  0  0  0
  7  8  1  0  0  0
  8  9  1  0  0  0
  9 10  1  0  0  0
 10 11  1  0  0  0
 11 12  1  0  0  0
 12 13  1  0  0  0
 13 14  1  0  0  0
 14 15  1  0  0  0
 15 16  1  0  0  0
 16 17  1  0  0  0
 17 18  1  0  0  0
 18 19  1  0  0  0
 19 20  2  0  0  0
 20 21  1  0  0  0
 21 22  1  0  0  0
 22 23  1  0  0  0
 23 24  1  0  0  0
 24 25  1  0  0  0
 25 26  1  0  0  0
 26 27  1  0  0  0
 27 28  1  0  0  0
 52 53  1  0  0  0
 53 54  1  0  0  0
 54 55  1  0  0  0
 55 56  1  0  0  0
 56 60  1  0  0  0
M  CHG 1  64  -1
M  END
> <minimizedAffinity>
-8.41167

> <CNNscore>
0.1135883331

> <CNNaffinity>
6.6936407089

> <CNN_VS>
0.7603194714

> <CNNaffinity_variance>
1.1812788248

$$$$
/media/chris/experiments/cd1a-new-docking/inputs/ligands/7ryn_ligand.pdb


 68 68  0  0  0  0  0  0  0  0999 V2000
  -33.6681   60.4566   63.5820 C   0  0  0  0  0  0  0  0  0  0  0  0
  -34.4249   61.2152   64.5734 N   0  0  0  0  0  0  0  0  0  0  0  0
  -35.7554   62.2704   63.0955 O   0  0  0  0  0  0  0  0  0  0  0  0
  -35.4078   62.0614   64.2542 C   0  0  0  0  0  0  0  0  0  0  0  0
  -34.1997   61.0971   65.5245 H   0  0  0  0  0  0  0  0  0  0  0  0
  -36.0799   62.7491   65.4165 C   0  0  0  0  0  0  0  0  0  0  0  0
  -36.8232   61.7752   66.3218 C   0  0  0  0  0  0  0  0  0  0  0  0
  -37.8173   60.9110   65.5627 C   0  0  0  0  0  0  0  0  0  0  0  0
  -38.7836   60.1527   66.4575 C   0  0  0  0  0  0  0  0  0  0  0  0
  -40.0174   59.6365   65.7325 C   0  0  0  0  0  0  0  0  0  0  0  0
  -41.3278   59.9338   66.4502 C   0  0  0  0  0  0  0  0  0  0  0  0
  -42.2117   58.7098   66.6528 C   0  0  0  0  0  0  0  0  0  0  0  0
  -43.7081   59.0086   66.6942 C   0  0  0  0  0  0  0  0  0  0  0  0
  -44.5640   58.0087   65.9184 C   0  0  0  0  0  0  0  0  0  0  0  0
  -46.0032   57.8804   66.4166 C   0  0  0  0  0  0  0  0  0  0  0  0
  -47.0478   58.0767   65.3177 C   0  0  0  0  0  0  0  0  0  0  0  0
  -47.0295   59.4493   64.6451 C   0  0  0  0  0  0  0  0  0  0  0  0
  -48.4074   60.0813   64.4316 C   0  0  0  0  0  0  0  0  0  0  0  0
  -49.5015   59.3549   65.1591 C   0  0  0  0  0  0  0  0  0  0  0  0
  -50.6960   59.0616   64.6765 C   0  0  0  0  0  0  0  0  0  0  0  0
  -51.1981   59.3928   63.3037 C   0  0  0  0  0  0  0  0  0  0  0  0
  -50.7557   58.3958   62.2305 C   0  0  0  0  0  0  0  0  0  0  0  0
  -49.8847   59.0218   61.1495 C   0  0  0  0  0  0  0  0  0  0  0  0
  -49.6477   58.1030   59.9563 C   0  0  0  0  0  0  0  0  0  0  0  0
  -48.3131   57.3667   59.9818 C   0  0  0  0  0  0  0  0  0  0  0  0
  -48.1672   56.3242   58.8823 C   0  0  0  0  0  0  0  0  0  0  0  0
  -47.0537   56.6183   57.8896 C   0  0  0  0  0  0  0  0  0  0  0  0
  -47.4294   57.6856   56.8818 C   0  0  0  0  0  0  0  0  0  0  0  0
  -32.4481   58.4012   63.2331 O   0  0  0  0  0  0  0  0  0  0  0  0
  -33.2615   59.1002   64.1798 C   0  0  0  0  0  0  0  0  0  0  0  0
  -31.6792   58.9460   63.0030 H   0  0  0  0  0  0  0  0  0  0  0  0
  -34.4611   58.2872   64.5591 C   0  0  0  0  0  0  0  0  0  0  0  0
  -35.6517   58.3872   64.0016 C   0  0  0  0  0  0  0  0  0  0  0  0
  -36.8256   57.5506   64.3923 C   0  0  0  0  0  0  0  0  0  0  0  0
  -37.9048   57.5763   63.3079 C   0  0  0  0  0  0  0  0  0  0  0  0
  -37.7607   58.7159   62.3123 C   0  0  0  0  0  0  0  0  0  0  0  0
  -37.8585   58.2904   60.8573 C   0  0  0  0  0  0  0  0  0  0  0  0
  -38.4439   59.3538   59.9396 C   0  0  0  0  0  0  0  0  0  0  0  0
  -39.9601   59.4522   60.0080 C   0  0  0  0  0  0  0  0  0  0  0  0
  -40.6731   58.1533   59.6756 C   0  0  0  0  0  0  0  0  0  0  0  0
  -41.8098   57.8125   60.6212 C   0  0  0  0  0  0  0  0  0  0  0  0
  -41.3540   57.2149   61.9413 C   0  0  0  0  0  0  0  0  0  0  0  0
  -41.8741   57.9745   63.1476 C   0  0  0  0  0  0  0  0  0  0  0  0
  -42.7766   59.1454   62.8091 C   0  0  0  0  0  0  0  0  0  0  0  0
  -42.0430   60.4720   62.8320 C   0  0  0  0  0  0  0  0  0  0  0  0
  -42.8952   61.6153   62.3210 C   0  0  0  0  0  0  0  0  0  0  0  0
  -32.4680   61.2574   63.1205 C   0  0  0  0  0  0  0  0  0  0  0  0
  -32.3612   62.4241   63.9440 O   0  0  0  0  0  0  0  0  0  0  0  0
  -33.4711   63.4160   61.5722 O   0  0  0  0  0  0  0  0  0  0  0  0
  -32.5290   66.9105   63.9009 O   0  0  0  0  0  0  0  0  0  0  0  0
  -31.1891   64.3887   64.2517 O   0  0  0  0  0  0  0  0  0  0  0  0
  -31.7967   63.5310   63.3037 C   0  0  0  0  0  0  0  0  0  0  0  0
  -32.9074   64.2651   62.5638 C   0  0  0  0  0  0  0  0  0  0  0  0
  -32.3532   65.5304   61.9212 C   0  0  0  0  0  0  0  0  0  0  0  0
  -31.6165   66.3846   62.9426 C   0  0  0  0  0  0  0  0  0  0  0  0
  -30.5656   65.5380   63.6565 C   0  0  0  0  0  0  0  0  0  0  0  0
  -33.8202   62.6148   61.9931 H   0  0  0  0  0  0  0  0  0  0  0  0
  -33.1977   67.4488   63.4494 H   0  0  0  0  0  0  0  0  0  0  0  0
  -30.5051   66.0783   66.0215 O   0  0  0  0  0  0  0  0  0  0  0  0
  -29.8608   66.2786   64.7687 C   0  0  0  0  0  0  0  0  0  0  0  0
  -30.0290   66.5659   66.7117 H   0  0  0  0  0  0  0  0  0  0  0  0
  -33.5337   66.2500   61.4439 O   0  0  0  0  0  0  0  0  0  0  0  0
  -34.7913   65.4553   63.3397 O   0  0  0  0  0  0  0  0  0  0  0  0
  -35.5774   64.9900   60.9986 O   0  0  0  0  0  0  0  0  0  0  0  0
  -35.6747   67.1659   61.9430 O   0  0  0  0  0  0  0  0  0  0  0  0
  -34.9618   65.8042   61.9779 S   0  0  0  0  0  0  0  0  0  0  0  0
  -34.3426   64.5974   63.4000 H   0  0  0  0  0  0  0  0  0  0  0  0
  -35.2788   67.7552   62.6041 H   0  0  0  0  0  0  0  0  0  0  0  0
  2  1  1  0  0  0
  2  4  1  0  0  0
  2  5  1  0  0  0
 47 48  1  0  0  0
 47  1  1  0  0  0
 48 52  1  0  0  0
  1 30  1  0  0  0
 29 30  1  0  0  0
 29 31  1  0  0  0
 30 32  1  0  0  0
  3  4  2  0  0  0
 32 33  2  0  0  0
 49 53  1  0  0  0
 49 57  1  0  0  0
 33 34  1  0  0  0
 62 54  1  0  0  0
 62 66  1  0  0  0
 34 35  1  0  0  0
 50 55  1  0  0  0
 50 58  1  0  0  0
 35 36  1  0  0  0
 51 52  1  0  0  0
 51 56  1  0  0  0
 36 37  1  0  0  0
 59 60  1  0  0  0
 59 61  1  0  0  0
 37 38  1  0  0  0
 63 66  1  0  0  0
 63 67  1  0  0  0
 38 39  1  0  0  0
 64 66  1  0  0  0
 39 40  1  0  0  0
 65 66  1  0  0  0
 65 68  1  0  0  0
 40 41  1  0  0  0
 41 42  1  0  0  0
 42 43  1  0  0  0
 43 44  1  0  0  0
 44 45  1  0  0  0
 45 46  1  0  0  0
  4  6  1  0  0  0
  6  7  1  0  0  0
  7  8  1  0  0  0
  8  9  1  0  0  0
  9 10  1  0  0  0
 10 11  1  0  0  0
 11 12  1  0  0  0
 12 13  1  0  0  0
 13 14  1  0  0  0
 14 15  1  0  0  0
 15 16  1  0  0  0
 16 17  1  0  0  0
 17 18  1  0  0  0
 18 19  1  0  0  0
 19 20  2  0  0  0
 20 21  1  0  0  0
 21 22  1  0  0  0
 22 23  1  0  0  0
 23 24  1  0  0  0
 24 25  1  0  0  0
 25 26  1  0  0  0
 26 27  1  0  0  0
 27 28  1  0  0  0
 52 53  1  0  0  0
 53 54  1  0  0  0
 54 55  1  0  0  0
 55 56  1  0  0  0
 56 60  1  0  0  0
M  CHG 1  64  -1
M  END
> <minimizedAffinity>
-9.23126

> <CNNscore>
0.1065229550

> <CNNaffinity>
7.0659165382

> <CNN_VS>
0.7526823282

> <CNNaffinity_variance>
1.8679296970

$$$$
/media/chris/experiments/cd1a-new-docking/inputs/ligands/7ryn_ligand.pdb


 68 68  0  0  0  0  0  0  0  0999 V2000
  -37.6914   59.0476   62.6220 C   0  0  0  0  0  0  0  0  0  0  0  0
  -39.0218   58.5298   62.3165 N   0  0  0  0  0  0  0  0  0  0  0  0
  -39.6208   58.1479   64.4527 O   0  0  0  0  0  0  0  0  0  0  0  0
  -39.8816   58.1210   63.2534 C   0  0  0  0  0  0  0  0  0  0  0  0
  -39.2990   58.4794   61.3732 H   0  0  0  0  0  0  0  0  0  0  0  0
  -41.2123   57.6246   62.7456 C   0  0  0  0  0  0  0  0  0  0  0  0
  -42.2053   58.7546   62.5060 C   0  0  0  0  0  0  0  0  0  0  0  0
  -43.3808   58.7167   63.4695 C   0  0  0  0  0  0  0  0  0  0  0  0
  -43.3166   57.5793   64.4752 C   0  0  0  0  0  0  0  0  0  0  0  0
  -43.1595   58.0406   65.9163 C   0  0  0  0  0  0  0  0  0  0  0  0
  -44.4542   58.5239   66.5572 C   0  0  0  0  0  0  0  0  0  0  0  0
  -45.6961   57.7897   66.0682 C   0  0  0  0  0  0  0  0  0  0  0  0
  -46.6908   58.6636   65.3084 C   0  0  0  0  0  0  0  0  0  0  0  0
  -48.1512   58.2616   65.5078 C   0  0  0  0  0  0  0  0  0  0  0  0
  -49.0493   59.3722   66.0518 C   0  0  0  0  0  0  0  0  0  0  0  0
  -50.5364   59.1384   65.7848 C   0  0  0  0  0  0  0  0  0  0  0  0
  -51.1192   59.9414   64.6220 C   0  0  0  0  0  0  0  0  0  0  0  0
  -51.0234   59.2590   63.2549 C   0  0  0  0  0  0  0  0  0  0  0  0
  -49.8394   59.7193   62.4547 C   0  0  0  0  0  0  0  0  0  0  0  0
  -49.6226   59.4755   61.1744 C   0  0  0  0  0  0  0  0  0  0  0  0
  -50.5173   58.6921   60.2622 C   0  0  0  0  0  0  0  0  0  0  0  0
  -49.8480   57.4560   59.6576 C   0  0  0  0  0  0  0  0  0  0  0  0
  -48.3498   57.3919   59.9233 C   0  0  0  0  0  0  0  0  0  0  0  0
  -47.7271   56.0499   59.5555 C   0  0  0  0  0  0  0  0  0  0  0  0
  -47.2434   55.9525   58.1132 C   0  0  0  0  0  0  0  0  0  0  0  0
  -48.1924   56.5840   57.1044 C   0  0  0  0  0  0  0  0  0  0  0  0
  -47.6409   57.8271   56.4246 C   0  0  0  0  0  0  0  0  0  0  0  0
  -46.3730   58.3415   57.0757 C   0  0  0  0  0  0  0  0  0  0  0  0
  -36.8676   59.0335   64.8926 O   0  0  0  0  0  0  0  0  0  0  0  0
  -37.0617   58.2050   63.7428 C   0  0  0  0  0  0  0  0  0  0  0  0
  -37.7160   59.4219   65.1582 H   0  0  0  0  0  0  0  0  0  0  0  0
  -35.7697   57.5871   63.3034 C   0  0  0  0  0  0  0  0  0  0  0  0
  -34.9260   58.1243   62.4444 C   0  0  0  0  0  0  0  0  0  0  0  0
  -33.6369   57.4893   62.0374 C   0  0  0  0  0  0  0  0  0  0  0  0
  -32.4862   57.9594   62.9297 C   0  0  0  0  0  0  0  0  0  0  0  0
  -32.5320   59.4383   63.2780 C   0  0  0  0  0  0  0  0  0  0  0  0
  -31.2372   60.1846   63.0054 C   0  0  0  0  0  0  0  0  0  0  0  0
  -31.4256   61.5007   62.2650 C   0  0  0  0  0  0  0  0  0  0  0  0
  -30.3392   61.7855   61.2394 C   0  0  0  0  0  0  0  0  0  0  0  0
  -30.2524   63.2452   60.8296 C   0  0  0  0  0  0  0  0  0  0  0  0
  -30.2380   64.2151   61.9965 C   0  0  0  0  0  0  0  0  0  0  0  0
  -30.4635   65.6630   61.5962 C   0  0  0  0  0  0  0  0  0  0  0  0
  -30.3645   66.6245   62.7659 C   0  0  0  0  0  0  0  0  0  0  0  0
  -30.0221   65.9675   64.0894 C   0  0  0  0  0  0  0  0  0  0  0  0
  -30.3457   66.8503   65.2788 C   0  0  0  0  0  0  0  0  0  0  0  0
  -31.0803   66.1035   66.3729 C   0  0  0  0  0  0  0  0  0  0  0  0
  -37.7771   60.5138   62.9925 C   0  0  0  0  0  0  0  0  0  0  0  0
  -36.4689   61.0849   62.8769 O   0  0  0  0  0  0  0  0  0  0  0  0
  -36.0003   61.7016   65.5679 O   0  0  0  0  0  0  0  0  0  0  0  0
  -33.5048   64.4229   63.3566 O   0  0  0  0  0  0  0  0  0  0  0  0
  -35.8773   63.2269   62.2525 O   0  0  0  0  0  0  0  0  0  0  0  0
  -36.3825   62.4154   63.2965 C   0  0  0  0  0  0  0  0  0  0  0  0
  -35.4546   62.4702   64.5032 C   0  0  0  0  0  0  0  0  0  0  0  0
  -35.2609   63.9161   64.9422 C   0  0  0  0  0  0  0  0  0  0  0  0
  -34.8161   64.7866   63.7761 C   0  0  0  0  0  0  0  0  0  0  0  0
  -35.7859   64.6154   62.6095 C   0  0  0  0  0  0  0  0  0  0  0  0
  -36.1188   60.7840   65.2765 H   0  0  0  0  0  0  0  0  0  0  0  0
  -32.8870   64.5308   64.0965 H   0  0  0  0  0  0  0  0  0  0  0  0
  -35.4021   66.7688   61.5585 O   0  0  0  0  0  0  0  0  0  0  0  0
  -35.3578   65.3596   61.3664 C   0  0  0  0  0  0  0  0  0  0  0  0
  -35.1223   67.2152   60.7441 H   0  0  0  0  0  0  0  0  0  0  0  0
  -34.1954   63.8589   65.9426 O   0  0  0  0  0  0  0  0  0  0  0  0
  -33.7690   62.8257   68.0775 O   0  0  0  0  0  0  0  0  0  0  0  0
  -36.0085   63.8510   67.5784 O   0  0  0  0  0  0  0  0  0  0  0  0
  -34.0711   65.1797   67.9205 O   0  0  0  0  0  0  0  0  0  0  0  0
  -34.5982   63.8048   67.4783 S   0  0  0  0  0  0  0  0  0  0  0  0
  -34.0739   61.9418   67.8191 H   0  0  0  0  0  0  0  0  0  0  0  0
  -33.1026   65.1877   67.8654 H   0  0  0  0  0  0  0  0  0  0  0  0
  2  1  1  0  0  0
  2  4  1  0  0  0
  2  5  1  0  0  0
 47 48  1  0  0  0
 47  1  1  0  0  0
 48 52  1  0  0  0
  1 30  1  0  0  0
 29 30  1  0  0  0
 29 31  1  0  0  0
 30 32  1  0  0  0
  3  4  2  0  0  0
 32 33  2  0  0  0
 49 53  1  0  0  0
 49 57  1  0  0  0
 33 34  1  0  0  0
 62 54  1  0  0  0
 62 66  1  0  0  0
 34 35  1  0  0  0
 50 55  1  0  0  0
 50 58  1  0  0  0
 35 36  1  0  0  0
 51 52  1  0  0  0
 51 56  1  0  0  0
 36 37  1  0  0  0
 59 60  1  0  0  0
 59 61  1  0  0  0
 37 38  1  0  0  0
 63 66  1  0  0  0
 63 67  1  0  0  0
 38 39  1  0  0  0
 64 66  1  0  0  0
 39 40  1  0  0  0
 65 66  1  0  0  0
 65 68  1  0  0  0
 40 41  1  0  0  0
 41 42  1  0  0  0
 42 43  1  0  0  0
 43 44  1  0  0  0
 44 45  1  0  0  0
 45 46  1  0  0  0
  4  6  1  0  0  0
  6  7  1  0  0  0
  7  8  1  0  0  0
  8  9  1  0  0  0
  9 10  1  0  0  0
 10 11  1  0  0  0
 11 12  1  0  0  0
 12 13  1  0  0  0
 13 14  1  0  0  0
 14 15  1  0  0  0
 15 16  1  0  0  0
 16 17  1  0  0  0
 17 18  1  0  0  0
 18 19  1  0  0  0
 19 20  2  0  0  0
 20 21  1  0  0  0
 21 22  1  0  0  0
 22 23  1  0  0  0
 23 24  1  0  0  0
 24 25  1  0  0  0
 25 26  1  0  0  0
 26 27  1  0  0  0
 27 28  1  0  0  0
 52 53  1  0  0  0
 53 54  1  0  0  0
 54 55  1  0  0  0
 55 56  1  0  0  0
 56 60  1  0  0  0
M  CHG 1  64  -1
M  END
> <minimizedAffinity>
-8.30339

> <CNNscore>
0.1031327993

> <CNNaffinity>
6.5790557861

> <CNN_VS>
0.6785164475

> <CNNaffinity_variance>
0.5004093051

$$$$
