/media/chris/experiments/cd1a-new-docking/inputs/ligands/7ryn_ligand.pdb


 68 68  0  0  0  0  0  0  0  0999 V2000
  -33.5764   62.8624   64.2784 C   0  0  0  0  0  0  0  0  0  0  0  0
  -34.5454   62.1238   65.0826 N   0  0  0  0  0  0  0  0  0  0  0  0
  -36.3590   63.2317   64.3402 O   0  0  0  0  0  0  0  0  0  0  0  0
  -35.8588   62.3651   65.0514 C   0  0  0  0  0  0  0  0  0  0  0  0
  -34.2144   61.4127   65.6775 H   0  0  0  0  0  0  0  0  0  0  0  0
  -36.7036   61.4939   65.9472 C   0  0  0  0  0  0  0  0  0  0  0  0
  -37.6191   60.5626   65.1629 C   0  0  0  0  0  0  0  0  0  0  0  0
  -38.8341   60.1228   65.9639 C   0  0  0  0  0  0  0  0  0  0  0  0
  -39.5572   58.9220   65.3770 C   0  0  0  0  0  0  0  0  0  0  0  0
  -41.0652   58.9544   65.5757 C   0  0  0  0  0  0  0  0  0  0  0  0
  -41.7440   57.6033   65.3896 C   0  0  0  0  0  0  0  0  0  0  0  0
  -42.9518   57.3902   66.2930 C   0  0  0  0  0  0  0  0  0  0  0  0
  -44.0747   58.4062   66.0999 C   0  0  0  0  0  0  0  0  0  0  0  0
  -44.8019   58.2828   64.7618 C   0  0  0  0  0  0  0  0  0  0  0  0
  -46.2466   58.7818   64.7733 C   0  0  0  0  0  0  0  0  0  0  0  0
  -46.9985   58.4403   66.0598 C   0  0  0  0  0  0  0  0  0  0  0  0
  -48.4925   58.7634   66.0417 C   0  0  0  0  0  0  0  0  0  0  0  0
  -48.9550   59.6092   64.8522 C   0  0  0  0  0  0  0  0  0  0  0  0
  -50.4362   59.8552   64.8524 C   0  0  0  0  0  0  0  0  0  0  0  0
  -51.2392   59.7718   63.8064 C   0  0  0  0  0  0  0  0  0  0  0  0
  -50.8332   59.4118   62.4094 C   0  0  0  0  0  0  0  0  0  0  0  0
  -50.9979   57.9254   62.0853 C   0  0  0  0  0  0  0  0  0  0  0  0
  -50.2021   57.4835   60.8645 C   0  0  0  0  0  0  0  0  0  0  0  0
  -49.4009   58.6115   60.2240 C   0  0  0  0  0  0  0  0  0  0  0  0
  -48.4555   58.1636   59.1151 C   0  0  0  0  0  0  0  0  0  0  0  0
  -48.0217   56.7091   59.2298 C   0  0  0  0  0  0  0  0  0  0  0  0
  -47.4920   56.1136   57.9350 C   0  0  0  0  0  0  0  0  0  0  0  0
  -47.0877   57.1672   56.9239 C   0  0  0  0  0  0  0  0  0  0  0  0
  -33.1744   62.4340   61.9354 O   0  0  0  0  0  0  0  0  0  0  0  0
  -32.9417   61.9148   63.2478 C   0  0  0  0  0  0  0  0  0  0  0  0
  -32.8168   63.3338   61.8755 H   0  0  0  0  0  0  0  0  0  0  0  0
  -33.4822   60.5237   63.3773 C   0  0  0  0  0  0  0  0  0  0  0  0
  -32.7760   59.4653   63.7222 C   0  0  0  0  0  0  0  0  0  0  0  0
  -33.3479   58.0921   63.8573 C   0  0  0  0  0  0  0  0  0  0  0  0
  -34.5440   58.0857   64.8115 C   0  0  0  0  0  0  0  0  0  0  0  0
  -35.8332   57.5723   64.1910 C   0  0  0  0  0  0  0  0  0  0  0  0
  -35.8902   57.6945   62.6779 C   0  0  0  0  0  0  0  0  0  0  0  0
  -37.2810   57.4962   62.0930 C   0  0  0  0  0  0  0  0  0  0  0  0
  -37.9181   58.7798   61.5833 C   0  0  0  0  0  0  0  0  0  0  0  0
  -38.3227   58.7232   60.1208 C   0  0  0  0  0  0  0  0  0  0  0  0
  -39.8230   58.7223   59.8939 C   0  0  0  0  0  0  0  0  0  0  0  0
  -40.5958   57.8772   60.8920 C   0  0  0  0  0  0  0  0  0  0  0  0
  -41.2815   58.7036   61.9640 C   0  0  0  0  0  0  0  0  0  0  0  0
  -41.9040   59.9914   61.4595 C   0  0  0  0  0  0  0  0  0  0  0  0
  -42.1534   60.9922   62.5706 C   0  0  0  0  0  0  0  0  0  0  0  0
  -42.9812   62.1747   62.1116 C   0  0  0  0  0  0  0  0  0  0  0  0
  -32.5385   63.5045   65.1755 C   0  0  0  0  0  0  0  0  0  0  0  0
  -33.0266   64.7878   65.5824 O   0  0  0  0  0  0  0  0  0  0  0  0
  -30.8472   66.3625   64.8003 O   0  0  0  0  0  0  0  0  0  0  0  0
  -32.6841   65.1050   61.1170 O   0  0  0  0  0  0  0  0  0  0  0  0
  -34.1187   65.2655   63.6057 O   0  0  0  0  0  0  0  0  0  0  0  0
  -33.1546   65.7115   64.5412 C   0  0  0  0  0  0  0  0  0  0  0  0
  -31.7953   65.8563   63.8692 C   0  0  0  0  0  0  0  0  0  0  0  0
  -31.9070   66.7897   62.6703 C   0  0  0  0  0  0  0  0  0  0  0  0
  -33.0196   66.3444   61.7327 C   0  0  0  0  0  0  0  0  0  0  0  0
  -34.3185   66.1832   62.5186 C   0  0  0  0  0  0  0  0  0  0  0  0
  -30.7850   65.7603   65.5582 H   0  0  0  0  0  0  0  0  0  0  0  0
  -31.8589   65.2053   60.6171 H   0  0  0  0  0  0  0  0  0  0  0  0
  -35.3071   64.2375   61.4576 O   0  0  0  0  0  0  0  0  0  0  0  0
  -35.4532   65.6344   61.6857 C   0  0  0  0  0  0  0  0  0  0  0  0
  -36.0496   63.9180   60.9216 H   0  0  0  0  0  0  0  0  0  0  0  0
  -30.6182   66.6717   61.9889 O   0  0  0  0  0  0  0  0  0  0  0  0
  -29.0527   67.8710   60.6039 O   0  0  0  0  0  0  0  0  0  0  0  0
  -29.0700   68.2025   63.0949 O   0  0  0  0  0  0  0  0  0  0  0  0
  -30.8118   69.0290   61.7095 O   0  0  0  0  0  0  0  0  0  0  0  0
  -29.7090   67.9675   61.8549 S   0  0  0  0  0  0  0  0  0  0  0  0
  -28.3475   67.2073   60.6591 H   0  0  0  0  0  0  0  0  0  0  0  0
  -31.2752   68.9005   60.8671 H   0  0  0  0  0  0  0  0  0  0  0  0
  2  1  1  0  0  0
  2  4  1  0  0  0
  2  5  1  0  0  0
 47 48  1  0  0  0
 47  1  1  0  0  0
 48 52  1  0  0  0
  1 30  1  0  0  0
 29 30  1  0  0  0
 29 31  1  0  0  0
 30 32  1  0  0  0
  3  4  2  0  0  0
 32 33  2  0  0  0
 49 53  1  0  0  0
 49 57  1  0  0  0
 33 34  1  0  0  0
 62 54  1  0  0  0
 62 66  1  0  0  0
 34 35  1  0  0  0
 50 55  1  0  0  0
 50 58  1  0  0  0
 35 36  1  0  0  0
 51 52  1  0  0  0
 51 56  1  0  0  0
 36 37  1  0  0  0
 59 60  1  0  0  0
 59 61  1  0  0  0
 37 38  1  0  0  0
 63 66  1  0  0  0
 63 67  1  0  0  0
 38 39  1  0  0  0
 64 66  1  0  0  0
 39 40  1  0  0  0
 65 66  1  0  0  0
 65 68  1  0  0  0
 40 41  1  0  0  0
 41 42  1  0  0  0
 42 43  1  0  0  0
 43 44  1  0  0  0
 44 45  1  0  0  0
 45 46  1  0  0  0
  4  6  1  0  0  0
  6  7  1  0  0  0
  7  8  1  0  0  0
  8  9  1  0  0  0
  9 10  1  0  0  0
 10 11  1  0  0  0
 11 12  1  0  0  0
 12 13  1  0  0  0
 13 14  1  0  0  0
 14 15  1  0  0  0
 15 16  1  0  0  0
 16 17  1  0  0  0
 17 18  1  0  0  0
 18 19  1  0  0  0
 19 20  2  0  0  0
 20 21  1  0  0  0
 21 22  1  0  0  0
 22 23  1  0  0  0
 23 24  1  0  0  0
 24 25  1  0  0  0
 25 26  1  0  0  0
 26 27  1  0  0  0
 27 28  1  0  0  0
 52 53  1  0  0  0
 53 54  1  0  0  0
 54 55  1  0  0  0
 55 56  1  0  0  0
 56 60  1  0  0  0
M  CHG 1  64  -1
M  END
> <minimizedAffinity>
-9.30040

> <CNNscore>
0.5070382953

> <CNNaffinity>
7.3466310501

> <CNN_VS>
3.7250232697

> <CNNaffinity_variance>
1.2707307339

$$$$
/media/chris/experiments/cd1a-new-docking/inputs/ligands/7ryn_ligand.pdb


 68 68  0  0  0  0  0  0  0  0999 V2000
  -33.6131   62.3166   63.9590 C   0  0  0  0  0  0  0  0  0  0  0  0
  -34.6419   61.8462   64.8819 N   0  0  0  0  0  0  0  0  0  0  0  0
  -36.2049   63.3487   64.2760 O   0  0  0  0  0  0  0  0  0  0  0  0
  -35.8554   62.3974   64.9687 C   0  0  0  0  0  0  0  0  0  0  0  0
  -34.4307   61.0849   65.4693 H   0  0  0  0  0  0  0  0  0  0  0  0
  -36.7866   61.7696   65.9758 C   0  0  0  0  0  0  0  0  0  0  0  0
  -37.5887   60.6146   65.3900 C   0  0  0  0  0  0  0  0  0  0  0  0
  -38.7823   60.2333   66.2510 C   0  0  0  0  0  0  0  0  0  0  0  0
  -40.0288   59.8828   65.4556 C   0  0  0  0  0  0  0  0  0  0  0  0
  -41.3109   59.9181   66.2738 C   0  0  0  0  0  0  0  0  0  0  0  0
  -42.4692   59.1547   65.6442 C   0  0  0  0  0  0  0  0  0  0  0  0
  -43.1679   58.1958   66.5996 C   0  0  0  0  0  0  0  0  0  0  0  0
  -44.6156   57.8791   66.2332 C   0  0  0  0  0  0  0  0  0  0  0  0
  -45.0688   58.4869   64.9067 C   0  0  0  0  0  0  0  0  0  0  0  0
  -46.5597   58.8157   64.8327 C   0  0  0  0  0  0  0  0  0  0  0  0
  -47.4258   57.9179   65.7165 C   0  0  0  0  0  0  0  0  0  0  0  0
  -48.8935   58.3327   65.8193 C   0  0  0  0  0  0  0  0  0  0  0  0
  -49.2533   59.6210   65.0742 C   0  0  0  0  0  0  0  0  0  0  0  0
  -50.7102   59.7024   64.7202 C   0  0  0  0  0  0  0  0  0  0  0  0
  -51.2252   59.5782   63.5098 C   0  0  0  0  0  0  0  0  0  0  0  0
  -50.4584   59.3281   62.2466 C   0  0  0  0  0  0  0  0  0  0  0  0
  -50.0805   57.8601   62.0376 C   0  0  0  0  0  0  0  0  0  0  0  0
  -50.5175   57.3124   60.6855 C   0  0  0  0  0  0  0  0  0  0  0  0
  -49.8295   57.9918   59.5068 C   0  0  0  0  0  0  0  0  0  0  0  0
  -48.3353   57.7093   59.3995 C   0  0  0  0  0  0  0  0  0  0  0  0
  -48.0108   56.3270   58.8507 C   0  0  0  0  0  0  0  0  0  0  0  0
  -47.6793   56.3085   57.3670 C   0  0  0  0  0  0  0  0  0  0  0  0
  -47.3393   57.6808   56.8219 C   0  0  0  0  0  0  0  0  0  0  0  0
  -32.8073   61.4954   61.8351 O   0  0  0  0  0  0  0  0  0  0  0  0
  -33.0248   61.1179   63.1976 C   0  0  0  0  0  0  0  0  0  0  0  0
  -32.2258   62.2713   61.8035 H   0  0  0  0  0  0  0  0  0  0  0  0
  -33.9206   59.9204   63.2853 C   0  0  0  0  0  0  0  0  0  0  0  0
  -33.5728   58.6889   62.9684 C   0  0  0  0  0  0  0  0  0  0  0  0
  -34.4856   57.5121   63.0812 C   0  0  0  0  0  0  0  0  0  0  0  0
  -35.3485   57.6037   64.3414 C   0  0  0  0  0  0  0  0  0  0  0  0
  -36.8444   57.5474   64.0777 C   0  0  0  0  0  0  0  0  0  0  0  0
  -37.2151   57.0874   62.6781 C   0  0  0  0  0  0  0  0  0  0  0  0
  -38.3033   57.9231   62.0200 C   0  0  0  0  0  0  0  0  0  0  0  0
  -37.8454   58.6378   60.7578 C   0  0  0  0  0  0  0  0  0  0  0  0
  -38.9784   58.9956   59.8121 C   0  0  0  0  0  0  0  0  0  0  0  0
  -40.2349   58.1688   60.0120 C   0  0  0  0  0  0  0  0  0  0  0  0
  -41.5230   58.9556   59.8408 C   0  0  0  0  0  0  0  0  0  0  0  0
  -41.5238   60.2664   60.6052 C   0  0  0  0  0  0  0  0  0  0  0  0
  -41.9625   60.1472   62.0522 C   0  0  0  0  0  0  0  0  0  0  0  0
  -41.9977   61.4862   62.7624 C   0  0  0  0  0  0  0  0  0  0  0  0
  -43.1178   62.3770   62.2663 C   0  0  0  0  0  0  0  0  0  0  0  0
  -32.5504   63.0873   64.7148 C   0  0  0  0  0  0  0  0  0  0  0  0
  -31.3014   62.9166   64.0355 O   0  0  0  0  0  0  0  0  0  0  0  0
  -31.0436   63.8334   61.4022 O   0  0  0  0  0  0  0  0  0  0  0  0
  -31.9989   67.3397   63.7077 O   0  0  0  0  0  0  0  0  0  0  0  0
  -30.7580   65.0078   64.8479 O   0  0  0  0  0  0  0  0  0  0  0  0
  -30.6274   64.1101   63.7613 C   0  0  0  0  0  0  0  0  0  0  0  0
  -31.2332   64.7152   62.5015 C   0  0  0  0  0  0  0  0  0  0  0  0
  -30.5872   66.0644   62.2127 C   0  0  0  0  0  0  0  0  0  0  0  0
  -30.6510   66.9731   63.4315 C   0  0  0  0  0  0  0  0  0  0  0  0
  -30.0657   66.2495   64.6417 C   0  0  0  0  0  0  0  0  0  0  0  0
  -31.4589   62.9789   61.5978 H   0  0  0  0  0  0  0  0  0  0  0  0
  -32.3728   67.7996   62.9399 H   0  0  0  0  0  0  0  0  0  0  0  0
  -30.6144   66.2161   67.0053 O   0  0  0  0  0  0  0  0  0  0  0  0
  -30.1909   67.0385   65.9240 C   0  0  0  0  0  0  0  0  0  0  0  0
  -30.6845   66.7519   67.8107 H   0  0  0  0  0  0  0  0  0  0  0  0
  -31.3930   66.6367   61.1345 O   0  0  0  0  0  0  0  0  0  0  0  0
  -31.5095   67.8777   59.0722 O   0  0  0  0  0  0  0  0  0  0  0  0
  -30.2491   65.7067   59.1878 O   0  0  0  0  0  0  0  0  0  0  0  0
  -29.4469   67.6780   60.2397 O   0  0  0  0  0  0  0  0  0  0  0  0
  -30.6940   66.9313   59.7387 S   0  0  0  0  0  0  0  0  0  0  0  0
  -32.3091   67.4394   58.7414 H   0  0  0  0  0  0  0  0  0  0  0  0
  -29.7121   68.5271   60.6265 H   0  0  0  0  0  0  0  0  0  0  0  0
  2  1  1  0  0  0
  2  4  1  0  0  0
  2  5  1  0  0  0
 47 48  1  0  0  0
 47  1  1  0  0  0
 48 52  1  0  0  0
  1 30  1  0  0  0
 29 30  1  0  0  0
 29 31  1  0  0  0
 30 32  1  0  0  0
  3  4  2  0  0  0
 32 33  2  0  0  0
 49 53  1  0  0  0
 49 57  1  0  0  0
 33 34  1  0  0  0
 62 54  1  0  0  0
 62 66  1  0  0  0
 34 35  1  0  0  0
 50 55  1  0  0  0
 50 58  1  0  0  0
 35 36  1  0  0  0
 51 52  1  0  0  0
 51 56  1  0  0  0
 36 37  1  0  0  0
 59 60  1  0  0  0
 59 61  1  0  0  0
 37 38  1  0  0  0
 63 66  1  0  0  0
 63 67  1  0  0  0
 38 39  1  0  0  0
 64 66  1  0  0  0
 39 40  1  0  0  0
 65 66  1  0  0  0
 65 68  1  0  0  0
 40 41  1  0  0  0
 41 42  1  0  0  0
 42 43  1  0  0  0
 43 44  1  0  0  0
 44 45  1  0  0  0
 45 46  1  0  0  0
  4  6  1  0  0  0
  6  7  1  0  0  0
  7  8  1  0  0  0
  8  9  1  0  0  0
  9 10  1  0  0  0
 10 11  1  0  0  0
 11 12  1  0  0  0
 12 13  1  0  0  0
 13 14  1  0  0  0
 14 15  1  0  0  0
 15 16  1  0  0  0
 16 17  1  0  0  0
 17 18  1  0  0  0
 18 19  1  0  0  0
 19 20  2  0  0  0
 20 21  1  0  0  0
 21 22  1  0  0  0
 22 23  1  0  0  0
 23 24  1  0  0  0
 24 25  1  0  0  0
 25 26  1  0  0  0
 26 27  1  0  0  0
 27 28  1  0  0  0
 52 53  1  0  0  0
 53 54  1  0  0  0
 54 55  1  0  0  0
 55 56  1  0  0  0
 56 60  1  0  0  0
M  CHG 1  64  -1
M  END
> <minimizedAffinity>
-9.58121

> <CNNscore>
0.4202465713

> <CNNaffinity>
7.1821374893

> <CNN_VS>
3.0182685852

> <CNNaffinity_variance>
1.1837103367

$$$$
/media/chris/experiments/cd1a-new-docking/inputs/ligands/7ryn_ligand.pdb


 68 68  0  0  0  0  0  0  0  0999 V2000
  -35.6500   61.8187   64.3737 C   0  0  0  0  0  0  0  0  0  0  0  0
  -36.9335   61.1360   64.5072 N   0  0  0  0  0  0  0  0  0  0  0  0
  -37.5901   61.4529   62.3774 O   0  0  0  0  0  0  0  0  0  0  0  0
  -37.8023   61.0063   63.5010 C   0  0  0  0  0  0  0  0  0  0  0  0
  -37.1705   60.7523   65.3824 H   0  0  0  0  0  0  0  0  0  0  0  0
  -39.0731   60.2624   63.8281 C   0  0  0  0  0  0  0  0  0  0  0  0
  -38.9508   59.4243   65.0942 C   0  0  0  0  0  0  0  0  0  0  0  0
  -38.9461   57.9307   64.8108 C   0  0  0  0  0  0  0  0  0  0  0  0
  -40.1519   57.4496   64.0210 C   0  0  0  0  0  0  0  0  0  0  0  0
  -41.4630   57.5331   64.7881 C   0  0  0  0  0  0  0  0  0  0  0  0
  -42.7028   57.4016   63.9125 C   0  0  0  0  0  0  0  0  0  0  0  0
  -43.9510   58.0370   64.5113 C   0  0  0  0  0  0  0  0  0  0  0  0
  -44.1553   57.7542   65.9976 C   0  0  0  0  0  0  0  0  0  0  0  0
  -45.3042   58.5396   66.6280 C   0  0  0  0  0  0  0  0  0  0  0  0
  -46.6181   57.7667   66.7406 C   0  0  0  0  0  0  0  0  0  0  0  0
  -47.5415   57.9569   65.5372 C   0  0  0  0  0  0  0  0  0  0  0  0
  -47.4059   59.3018   64.8234 C   0  0  0  0  0  0  0  0  0  0  0  0
  -48.5992   60.2458   64.9940 C   0  0  0  0  0  0  0  0  0  0  0  0
  -49.8185   59.5534   65.5309 C   0  0  0  0  0  0  0  0  0  0  0  0
  -50.9317   59.3080   64.8629 C   0  0  0  0  0  0  0  0  0  0  0  0
  -51.2002   59.6691   63.4333 C   0  0  0  0  0  0  0  0  0  0  0  0
  -50.8994   58.5385   62.4470 C   0  0  0  0  0  0  0  0  0  0  0  0
  -49.4916   58.6015   61.8699 C   0  0  0  0  0  0  0  0  0  0  0  0
  -49.4481   58.4051   60.3587 C   0  0  0  0  0  0  0  0  0  0  0  0
  -49.1761   56.9719   59.9159 C   0  0  0  0  0  0  0  0  0  0  0  0
  -47.8332   56.7889   59.2231 C   0  0  0  0  0  0  0  0  0  0  0  0
  -47.5053   57.8701   58.2057 C   0  0  0  0  0  0  0  0  0  0  0  0
  -47.7060   57.4133   56.7749 C   0  0  0  0  0  0  0  0  0  0  0  0
  -33.7966   62.2378   65.8650 O   0  0  0  0  0  0  0  0  0  0  0  0
  -34.6401   61.2013   65.3545 C   0  0  0  0  0  0  0  0  0  0  0  0
  -34.3422   62.9223   66.2828 H   0  0  0  0  0  0  0  0  0  0  0  0
  -33.8298   60.1244   64.7006 C   0  0  0  0  0  0  0  0  0  0  0  0
  -33.4204   60.1389   63.4475 C   0  0  0  0  0  0  0  0  0  0  0  0
  -32.6000   59.0553   62.8283 C   0  0  0  0  0  0  0  0  0  0  0  0
  -33.4625   58.1445   61.9522 C   0  0  0  0  0  0  0  0  0  0  0  0
  -34.2143   57.0702   62.7211 C   0  0  0  0  0  0  0  0  0  0  0  0
  -35.7092   57.3144   62.8357 C   0  0  0  0  0  0  0  0  0  0  0  0
  -36.2459   58.3416   61.8495 C   0  0  0  0  0  0  0  0  0  0  0  0
  -37.6245   58.0025   61.3038 C   0  0  0  0  0  0  0  0  0  0  0  0
  -37.9889   58.7673   60.0436 C   0  0  0  0  0  0  0  0  0  0  0  0
  -39.3645   59.4065   60.0844 C   0  0  0  0  0  0  0  0  0  0  0  0
  -40.4999   58.4127   60.2599 C   0  0  0  0  0  0  0  0  0  0  0  0
  -41.7187   59.0168   60.9321 C   0  0  0  0  0  0  0  0  0  0  0  0
  -41.5595   60.4728   61.3261 C   0  0  0  0  0  0  0  0  0  0  0  0
  -42.5342   60.8934   62.4084 C   0  0  0  0  0  0  0  0  0  0  0  0
  -43.0743   62.2917   62.1915 C   0  0  0  0  0  0  0  0  0  0  0  0
  -35.8265   63.3059   64.6003 C   0  0  0  0  0  0  0  0  0  0  0  0
  -35.3435   63.9982   63.4435 O   0  0  0  0  0  0  0  0  0  0  0  0
  -33.9149   64.2255   61.0458 O   0  0  0  0  0  0  0  0  0  0  0  0
  -32.4069   67.3931   63.5387 O   0  0  0  0  0  0  0  0  0  0  0  0
  -33.6211   65.0103   64.5998 O   0  0  0  0  0  0  0  0  0  0  0  0
  -33.9690   64.2518   63.4565 C   0  0  0  0  0  0  0  0  0  0  0  0
  -33.6188   65.0190   62.1880 C   0  0  0  0  0  0  0  0  0  0  0  0
  -32.1423   65.3944   62.2008 C   0  0  0  0  0  0  0  0  0  0  0  0
  -31.7736   66.1188   63.4871 C   0  0  0  0  0  0  0  0  0  0  0  0
  -32.2140   65.2863   64.6886 C   0  0  0  0  0  0  0  0  0  0  0  0
  -34.8567   63.9931   61.0489 H   0  0  0  0  0  0  0  0  0  0  0  0
  -32.1284   67.9237   62.7760 H   0  0  0  0  0  0  0  0  0  0  0  0
  -32.9348   65.5708   66.9883 O   0  0  0  0  0  0  0  0  0  0  0  0
  -31.9873   65.9829   66.0099 C   0  0  0  0  0  0  0  0  0  0  0  0
  -32.7616   66.0354   67.8219 H   0  0  0  0  0  0  0  0  0  0  0  0
  -31.9823   66.3031   61.0660 O   0  0  0  0  0  0  0  0  0  0  0  0
  -29.6053   66.2923   60.6699 O   0  0  0  0  0  0  0  0  0  0  0  0
  -31.2185   66.5260   58.7572 O   0  0  0  0  0  0  0  0  0  0  0  0
  -30.9552   64.4789   59.9304 O   0  0  0  0  0  0  0  0  0  0  0  0
  -30.8282   66.0089   60.0148 S   0  0  0  0  0  0  0  0  0  0  0  0
  -29.4917   67.2530   60.7409 H   0  0  0  0  0  0  0  0  0  0  0  0
  -30.6949   64.0857   60.7781 H   0  0  0  0  0  0  0  0  0  0  0  0
  2  1  1  0  0  0
  2  4  1  0  0  0
  2  5  1  0  0  0
 47 48  1  0  0  0
 47  1  1  0  0  0
 48 52  1  0  0  0
  1 30  1  0  0  0
 29 30  1  0  0  0
 29 31  1  0  0  0
 30 32  1  0  0  0
  3  4  2  0  0  0
 32 33  2  0  0  0
 49 53  1  0  0  0
 49 57  1  0  0  0
 33 34  1  0  0  0
 62 54  1  0  0  0
 62 66  1  0  0  0
 34 35  1  0  0  0
 50 55  1  0  0  0
 50 58  1  0  0  0
 35 36  1  0  0  0
 51 52  1  0  0  0
 51 56  1  0  0  0
 36 37  1  0  0  0
 59 60  1  0  0  0
 59 61  1  0  0  0
 37 38  1  0  0  0
 63 66  1  0  0  0
 63 67  1  0  0  0
 38 39  1  0  0  0
 64 66  1  0  0  0
 39 40  1  0  0  0
 65 66  1  0  0  0
 65 68  1  0  0  0
 40 41  1  0  0  0
 41 42  1  0  0  0
 42 43  1  0  0  0
 43 44  1  0  0  0
 44 45  1  0  0  0
 45 46  1  0  0  0
  4  6  1  0  0  0
  6  7  1  0  0  0
  7  8  1  0  0  0
  8  9  1  0  0  0
  9 10  1  0  0  0
 10 11  1  0  0  0
 11 12  1  0  0  0
 12 13  1  0  0  0
 13 14  1  0  0  0
 14 15  1  0  0  0
 15 16  1  0  0  0
 16 17  1  0  0  0
 17 18  1  0  0  0
 18 19  1  0  0  0
 19 20  2  0  0  0
 20 21  1  0  0  0
 21 22  1  0  0  0
 22 23  1  0  0  0
 23 24  1  0  0  0
 24 25  1  0  0  0
 25 26  1  0  0  0
 26 27  1  0  0  0
 27 28  1  0  0  0
 52 53  1  0  0  0
 53 54  1  0  0  0
 54 55  1  0  0  0
 55 56  1  0  0  0
 56 60  1  0  0  0
M  CHG 1  64  -1
M  END
> <minimizedAffinity>
-9.62250

> <CNNscore>
0.2226034254

> <CNNaffinity>
7.1374654770

> <CNN_VS>
1.5888242722

> <CNNaffinity_variance>
1.2990461588

$$$$
/media/chris/experiments/cd1a-new-docking/inputs/ligands/7ryn_ligand.pdb


 68 68  0  0  0  0  0  0  0  0999 V2000
  -35.3487   61.9796   63.7264 C   0  0  0  0  0  0  0  0  0  0  0  0
  -36.6198   61.4124   64.1669 N   0  0  0  0  0  0  0  0  0  0  0  0
  -37.5658   61.3438   62.1254 O   0  0  0  0  0  0  0  0  0  0  0  0
  -37.6277   61.1390   63.3342 C   0  0  0  0  0  0  0  0  0  0  0  0
  -36.7400   61.2219   65.1253 H   0  0  0  0  0  0  0  0  0  0  0  0
  -38.8601   60.5489   63.9731 C   0  0  0  0  0  0  0  0  0  0  0  0
  -38.6049   60.0574   65.3922 C   0  0  0  0  0  0  0  0  0  0  0  0
  -38.6699   58.5430   65.5089 C   0  0  0  0  0  0  0  0  0  0  0  0
  -39.6689   57.8945   64.5652 C   0  0  0  0  0  0  0  0  0  0  0  0
  -41.0848   57.8296   65.1180 C   0  0  0  0  0  0  0  0  0  0  0  0
  -41.8374   56.5582   64.7467 C   0  0  0  0  0  0  0  0  0  0  0  0
  -43.3531   56.7086   64.7730 C   0  0  0  0  0  0  0  0  0  0  0  0
  -43.8452   58.1507   64.8671 C   0  0  0  0  0  0  0  0  0  0  0  0
  -44.3569   58.5442   66.2519 C   0  0  0  0  0  0  0  0  0  0  0  0
  -45.8641   58.3787   66.4450 C   0  0  0  0  0  0  0  0  0  0  0  0
  -46.6430   58.3156   65.1311 C   0  0  0  0  0  0  0  0  0  0  0  0
  -47.3827   59.5993   64.7548 C   0  0  0  0  0  0  0  0  0  0  0  0
  -48.4559   60.0416   65.7533 C   0  0  0  0  0  0  0  0  0  0  0  0
  -49.5070   58.9942   65.9819 C   0  0  0  0  0  0  0  0  0  0  0  0
  -50.7171   58.9770   65.4514 C   0  0  0  0  0  0  0  0  0  0  0  0
  -51.2827   59.9987   64.5121 C   0  0  0  0  0  0  0  0  0  0  0  0
  -50.8700   59.7879   63.0538 C   0  0  0  0  0  0  0  0  0  0  0  0
  -50.6701   58.3226   62.6904 C   0  0  0  0  0  0  0  0  0  0  0  0
  -49.4232   58.0727   61.8493 C   0  0  0  0  0  0  0  0  0  0  0  0
  -49.3939   58.8262   60.5245 C   0  0  0  0  0  0  0  0  0  0  0  0
  -49.5642   57.9302   59.3058 C   0  0  0  0  0  0  0  0  0  0  0  0
  -48.2580   57.5428   58.6309 C   0  0  0  0  0  0  0  0  0  0  0  0
  -47.6380   56.2924   59.2208 C   0  0  0  0  0  0  0  0  0  0  0  0
  -33.1766   62.5338   64.6260 O   0  0  0  0  0  0  0  0  0  0  0  0
  -34.2435   61.5854   64.7192 C   0  0  0  0  0  0  0  0  0  0  0  0
  -33.5205   63.4250   64.7947 H   0  0  0  0  0  0  0  0  0  0  0  0
  -33.7482   60.1949   64.4638 C   0  0  0  0  0  0  0  0  0  0  0  0
  -33.1273   59.8005   63.3698 C   0  0  0  0  0  0  0  0  0  0  0  0
  -32.6317   58.4087   63.1509 C   0  0  0  0  0  0  0  0  0  0  0  0
  -33.5835   57.6212   62.2482 C   0  0  0  0  0  0  0  0  0  0  0  0
  -34.7527   56.9837   62.9811 C   0  0  0  0  0  0  0  0  0  0  0  0
  -36.0398   57.7886   62.9237 C   0  0  0  0  0  0  0  0  0  0  0  0
  -36.5207   58.0868   61.5110 C   0  0  0  0  0  0  0  0  0  0  0  0
  -38.0254   57.9502   61.3364 C   0  0  0  0  0  0  0  0  0  0  0  0
  -38.5693   58.6818   60.1220 C   0  0  0  0  0  0  0  0  0  0  0  0
  -40.0603   58.4999   59.9071 C   0  0  0  0  0  0  0  0  0  0  0  0
  -40.7690   57.8122   61.0614 C   0  0  0  0  0  0  0  0  0  0  0  0
  -41.9074   58.6359   61.6342 C   0  0  0  0  0  0  0  0  0  0  0  0
  -41.6829   60.1350   61.5837 C   0  0  0  0  0  0  0  0  0  0  0  0
  -42.4958   60.8812   62.6234 C   0  0  0  0  0  0  0  0  0  0  0  0
  -43.0200   62.2059   62.1090 C   0  0  0  0  0  0  0  0  0  0  0  0
  -35.4731   63.4822   63.5809 C   0  0  0  0  0  0  0  0  0  0  0  0
  -35.3508   63.8119   62.1927 O   0  0  0  0  0  0  0  0  0  0  0  0
  -34.8780   66.5457   62.5723 O   0  0  0  0  0  0  0  0  0  0  0  0
  -31.2563   64.6063   63.8548 O   0  0  0  0  0  0  0  0  0  0  0  0
  -33.0862   63.4201   61.9779 O   0  0  0  0  0  0  0  0  0  0  0  0
  -34.1211   64.3760   61.8412 C   0  0  0  0  0  0  0  0  0  0  0  0
  -33.8669   65.5637   62.7605 C   0  0  0  0  0  0  0  0  0  0  0  0
  -32.4944   66.1580   62.4712 C   0  0  0  0  0  0  0  0  0  0  0  0
  -31.4133   65.0885   62.5241 C   0  0  0  0  0  0  0  0  0  0  0  0
  -31.7945   63.9285   61.6077 C   0  0  0  0  0  0  0  0  0  0  0  0
  -35.7463   66.1558   62.7593 H   0  0  0  0  0  0  0  0  0  0  0  0
  -31.0142   65.3419   64.4388 H   0  0  0  0  0  0  0  0  0  0  0  0
  -31.1054   61.7917   60.6868 O   0  0  0  0  0  0  0  0  0  0  0  0
  -30.8295   62.7686   61.6840 C   0  0  0  0  0  0  0  0  0  0  0  0
  -30.4697   61.0631   60.7635 H   0  0  0  0  0  0  0  0  0  0  0  0
  -32.2766   67.1256   63.5462 O   0  0  0  0  0  0  0  0  0  0  0  0
  -31.4996   68.6013   61.8069 O   0  0  0  0  0  0  0  0  0  0  0  0
  -31.2053   69.2118   64.2268 O   0  0  0  0  0  0  0  0  0  0  0  0
  -33.3370   69.2267   63.1818 O   0  0  0  0  0  0  0  0  0  0  0  0
  -31.9224   68.6247   63.1580 S   0  0  0  0  0  0  0  0  0  0  0  0
  -30.6068   68.2258   61.7539 H   0  0  0  0  0  0  0  0  0  0  0  0
  -33.8621   68.8470   62.4600 H   0  0  0  0  0  0  0  0  0  0  0  0
  2  1  1  0  0  0
  2  4  1  0  0  0
  2  5  1  0  0  0
 47 48  1  0  0  0
 47  1  1  0  0  0
 48 52  1  0  0  0
  1 30  1  0  0  0
 29 30  1  0  0  0
 29 31  1  0  0  0
 30 32  1  0  0  0
  3  4  2  0  0  0
 32 33  2  0  0  0
 49 53  1  0  0  0
 49 57  1  0  0  0
 33 34  1  0  0  0
 62 54  1  0  0  0
 62 66  1  0  0  0
 34 35  1  0  0  0
 50 55  1  0  0  0
 50 58  1  0  0  0
 35 36  1  0  0  0
 51 52  1  0  0  0
 51 56  1  0  0  0
 36 37  1  0  0  0
 59 60  1  0  0  0
 59 61  1  0  0  0
 37 38  1  0  0  0
 63 66  1  0  0  0
 63 67  1  0  0  0
 38 39  1  0  0  0
 64 66  1  0  0  0
 39 40  1  0  0  0
 65 66  1  0  0  0
 65 68  1  0  0  0
 40 41  1  0  0  0
 41 42  1  0  0  0
 42 43  1  0  0  0
 43 44  1  0  0  0
 44 45  1  0  0  0
 45 46  1  0  0  0
  4  6  1  0  0  0
  6  7  1  0  0  0
  7  8  1  0  0  0
  8  9  1  0  0  0
  9 10  1  0  0  0
 10 11  1  0  0  0
 11 12  1  0  0  0
 12 13  1  0  0  0
 13 14  1  0  0  0
 14 15  1  0  0  0
 15 16  1  0  0  0
 16 17  1  0  0  0
 17 18  1  0  0  0
 18 19  1  0  0  0
 19 20  2  0  0  0
 20 21  1  0  0  0
 21 22  1  0  0  0
 22 23  1  0  0  0
 23 24  1  0  0  0
 24 25  1  0  0  0
 25 26  1  0  0  0
 26 27  1  0  0  0
 27 28  1  0  0  0
 52 53  1  0  0  0
 53 54  1  0  0  0
 54 55  1  0  0  0
 55 56  1  0  0  0
 56 60  1  0  0  0
M  CHG 1  64  -1
M  END
> <minimizedAffinity>
-9.58402

> <CNNscore>
0.2051076591

> <CNNaffinity>
7.1036186218

> <CNN_VS>
1.4570065737

> <CNNaffinity_variance>
1.3566772938

$$$$
/media/chris/experiments/cd1a-new-docking/inputs/ligands/7ryn_ligand.pdb


 68 68  0  0  0  0  0  0  0  0999 V2000
  -40.3437   59.1209   65.7456 C   0  0  0  0  0  0  0  0  0  0  0  0
  -40.3307   58.4355   64.4566 N   0  0  0  0  0  0  0  0  0  0  0  0
  -41.4900   56.6306   65.1394 O   0  0  0  0  0  0  0  0  0  0  0  0
  -40.9036   57.2461   64.2537 C   0  0  0  0  0  0  0  0  0  0  0  0
  -39.8772   58.8716   63.6994 H   0  0  0  0  0  0  0  0  0  0  0  0
  -40.7931   56.6992   62.8523 C   0  0  0  0  0  0  0  0  0  0  0  0
  -41.8139   57.3133   61.9028 C   0  0  0  0  0  0  0  0  0  0  0  0
  -41.5615   56.9422   60.4503 C   0  0  0  0  0  0  0  0  0  0  0  0
  -41.1799   58.1211   59.5705 C   0  0  0  0  0  0  0  0  0  0  0  0
  -41.0162   59.4286   60.3309 C   0  0  0  0  0  0  0  0  0  0  0  0
  -39.5687   59.8758   60.4903 C   0  0  0  0  0  0  0  0  0  0  0  0
  -38.5674   59.0013   59.7465 C   0  0  0  0  0  0  0  0  0  0  0  0
  -37.4268   58.4688   60.6102 C   0  0  0  0  0  0  0  0  0  0  0  0
  -37.8891   57.6689   61.8271 C   0  0  0  0  0  0  0  0  0  0  0  0
  -36.8446   57.5332   62.9347 C   0  0  0  0  0  0  0  0  0  0  0  0
  -35.4548   58.0197   62.5239 C   0  0  0  0  0  0  0  0  0  0  0  0
  -34.3451   56.9738   62.6310 C   0  0  0  0  0  0  0  0  0  0  0  0
  -32.9355   57.4970   62.3416 C   0  0  0  0  0  0  0  0  0  0  0  0
  -32.5100   58.5813   63.2890 C   0  0  0  0  0  0  0  0  0  0  0  0
  -32.0594   59.7768   62.9520 C   0  0  0  0  0  0  0  0  0  0  0  0
  -31.8851   60.2920   61.5555 C   0  0  0  0  0  0  0  0  0  0  0  0
  -30.5384   60.9785   61.3174 C   0  0  0  0  0  0  0  0  0  0  0  0
  -29.5357   60.7426   62.4390 C   0  0  0  0  0  0  0  0  0  0  0  0
  -29.0024   62.0315   63.0545 C   0  0  0  0  0  0  0  0  0  0  0  0
  -29.6796   63.3001   62.5485 C   0  0  0  0  0  0  0  0  0  0  0  0
  -29.4799   64.5054   63.4564 C   0  0  0  0  0  0  0  0  0  0  0  0
  -30.7506   64.9899   64.1363 C   0  0  0  0  0  0  0  0  0  0  0  0
  -31.2178   64.0638   65.2409 C   0  0  0  0  0  0  0  0  0  0  0  0
  -40.9453   61.3836   66.3395 O   0  0  0  0  0  0  0  0  0  0  0  0
  -41.4527   60.1852   65.7456 C   0  0  0  0  0  0  0  0  0  0  0  0
  -40.1568   61.6755   65.8557 H   0  0  0  0  0  0  0  0  0  0  0  0
  -42.6734   59.7041   66.4686 C   0  0  0  0  0  0  0  0  0  0  0  0
  -43.6721   59.0457   65.9146 C   0  0  0  0  0  0  0  0  0  0  0  0
  -44.8702   58.5658   66.6665 C   0  0  0  0  0  0  0  0  0  0  0  0
  -45.7766   57.7164   65.7730 C   0  0  0  0  0  0  0  0  0  0  0  0
  -46.5812   58.5165   64.7617 C   0  0  0  0  0  0  0  0  0  0  0  0
  -48.0778   58.5273   65.0219 C   0  0  0  0  0  0  0  0  0  0  0  0
  -48.8792   59.3117   63.9932 C   0  0  0  0  0  0  0  0  0  0  0  0
  -50.2704   58.7493   63.7446 C   0  0  0  0  0  0  0  0  0  0  0  0
  -50.7991   59.0204   62.3471 C   0  0  0  0  0  0  0  0  0  0  0  0
  -49.7164   59.2759   61.3153 C   0  0  0  0  0  0  0  0  0  0  0  0
  -49.8518   58.4323   60.0593 C   0  0  0  0  0  0  0  0  0  0  0  0
  -49.1273   57.1026   60.1565 C   0  0  0  0  0  0  0  0  0  0  0  0
  -47.8422   57.0296   59.3542 C   0  0  0  0  0  0  0  0  0  0  0  0
  -47.7943   58.0527   58.2365 C   0  0  0  0  0  0  0  0  0  0  0  0
  -47.4194   57.4388   56.9035 C   0  0  0  0  0  0  0  0  0  0  0  0
  -38.9814   59.7191   66.0295 C   0  0  0  0  0  0  0  0  0  0  0  0
  -38.6084   60.5388   64.9161 O   0  0  0  0  0  0  0  0  0  0  0  0
  -37.1447   61.0343   62.5809 O   0  0  0  0  0  0  0  0  0  0  0  0
  -36.3767   64.4298   65.1114 O   0  0  0  0  0  0  0  0  0  0  0  0
  -37.1621   61.8593   66.1379 O   0  0  0  0  0  0  0  0  0  0  0  0
  -37.3089   61.0489   64.9867 C   0  0  0  0  0  0  0  0  0  0  0  0
  -37.0552   61.8692   63.7285 C   0  0  0  0  0  0  0  0  0  0  0  0
  -35.6789   62.5183   63.8022 C   0  0  0  0  0  0  0  0  0  0  0  0
  -35.5114   63.2990   65.0975 C   0  0  0  0  0  0  0  0  0  0  0  0
  -35.8383   62.3975   66.2854 C   0  0  0  0  0  0  0  0  0  0  0  0
  -38.0244   60.6273   62.5450 H   0  0  0  0  0  0  0  0  0  0  0  0
  -36.1707   65.0039   64.3573 H   0  0  0  0  0  0  0  0  0  0  0  0
  -34.5571   63.7717   67.8213 O   0  0  0  0  0  0  0  0  0  0  0  0
  -35.8063   63.1240   67.6096 C   0  0  0  0  0  0  0  0  0  0  0  0
  -34.5701   64.2271   68.6776 H   0  0  0  0  0  0  0  0  0  0  0  0
  -35.6444   63.4413   62.6682 O   0  0  0  0  0  0  0  0  0  0  0  0
  -33.2510   63.1910   62.5423 O   0  0  0  0  0  0  0  0  0  0  0  0
  -34.2853   65.4643   62.8208 O   0  0  0  0  0  0  0  0  0  0  0  0
  -34.4420   64.2585   60.7818 O   0  0  0  0  0  0  0  0  0  0  0  0
  -34.2683   64.1471   62.3054 S   0  0  0  0  0  0  0  0  0  0  0  0
  -33.1141   63.0946   63.4977 H   0  0  0  0  0  0  0  0  0  0  0  0
  -34.4354   63.3712   60.3899 H   0  0  0  0  0  0  0  0  0  0  0  0
  2  1  1  0  0  0
  2  4  1  0  0  0
  2  5  1  0  0  0
 47 48  1  0  0  0
 47  1  1  0  0  0
 48 52  1  0  0  0
  1 30  1  0  0  0
 29 30  1  0  0  0
 29 31  1  0  0  0
 30 32  1  0  0  0
  3  4  2  0  0  0
 32 33  2  0  0  0
 49 53  1  0  0  0
 49 57  1  0  0  0
 33 34  1  0  0  0
 62 54  1  0  0  0
 62 66  1  0  0  0
 34 35  1  0  0  0
 50 55  1  0  0  0
 50 58  1  0  0  0
 35 36  1  0  0  0
 51 52  1  0  0  0
 51 56  1  0  0  0
 36 37  1  0  0  0
 59 60  1  0  0  0
 59 61  1  0  0  0
 37 38  1  0  0  0
 63 66  1  0  0  0
 63 67  1  0  0  0
 38 39  1  0  0  0
 64 66  1  0  0  0
 39 40  1  0  0  0
 65 66  1  0  0  0
 65 68  1  0  0  0
 40 41  1  0  0  0
 41 42  1  0  0  0
 42 43  1  0  0  0
 43 44  1  0  0  0
 44 45  1  0  0  0
 45 46  1  0  0  0
  4  6  1  0  0  0
  6  7  1  0  0  0
  7  8  1  0  0  0
  8  9  1  0  0  0
  9 10  1  0  0  0
 10 11  1  0  0  0
 11 12  1  0  0  0
 12 13  1  0  0  0
 13 14  1  0  0  0
 14 15  1  0  0  0
 15 16  1  0  0  0
 16 17  1  0  0  0
 17 18  1  0  0  0
 18 19  1  0  0  0
 19 20  2  0  0  0
 20 21  1  0  0  0
 21 22  1  0  0  0
 22 23  1  0  0  0
 23 24  1  0  0  0
 24 25  1  0  0  0
 25 26  1  0  0  0
 26 27  1  0  0  0
 27 28  1  0  0  0
 52 53  1  0  0  0
 53 54  1  0  0  0
 54 55  1  0  0  0
 55 56  1  0  0  0
 56 60  1  0  0  0
M  CHG 1  64  -1
M  END
> <minimizedAffinity>
-9.74451

> <CNNscore>
0.2005180269

> <CNNaffinity>
7.2631330490

> <CNN_VS>
1.4563890696

> <CNNaffinity_variance>
2.0513701439

$$$$
/media/chris/experiments/cd1a-new-docking/inputs/ligands/7ryn_ligand.pdb


 68 68  0  0  0  0  0  0  0  0999 V2000
  -40.2653   59.0832   65.0491 C   0  0  0  0  0  0  0  0  0  0  0  0
  -40.3375   59.0280   63.5920 N   0  0  0  0  0  0  0  0  0  0  0  0
  -41.4868   57.0952   63.4875 O   0  0  0  0  0  0  0  0  0  0  0  0
  -40.9414   58.0405   62.9254 C   0  0  0  0  0  0  0  0  0  0  0  0
  -39.9204   59.7547   63.0750 H   0  0  0  0  0  0  0  0  0  0  0  0
  -40.9202   58.1600   61.4219 C   0  0  0  0  0  0  0  0  0  0  0  0
  -39.8839   59.1620   60.9294 C   0  0  0  0  0  0  0  0  0  0  0  0
  -38.7116   58.4961   60.2270 C   0  0  0  0  0  0  0  0  0  0  0  0
  -37.4746   58.3491   61.0974 C   0  0  0  0  0  0  0  0  0  0  0  0
  -37.5983   57.2728   62.1655 C   0  0  0  0  0  0  0  0  0  0  0  0
  -36.6229   57.4349   63.3245 C   0  0  0  0  0  0  0  0  0  0  0  0
  -35.4454   58.3507   63.0162 C   0  0  0  0  0  0  0  0  0  0  0  0
  -34.6040   58.7320   64.2317 C   0  0  0  0  0  0  0  0  0  0  0  0
  -33.2504   59.3487   63.8825 C   0  0  0  0  0  0  0  0  0  0  0  0
  -32.7038   58.9514   62.5115 C   0  0  0  0  0  0  0  0  0  0  0  0
  -31.8961   60.0584   61.8339 C   0  0  0  0  0  0  0  0  0  0  0  0
  -30.6084   60.4548   62.5560 C   0  0  0  0  0  0  0  0  0  0  0  0
  -29.6208   61.2673   61.7142 C   0  0  0  0  0  0  0  0  0  0  0  0
  -30.1695   62.6012   61.2971 C   0  0  0  0  0  0  0  0  0  0  0  0
  -30.0172   63.7426   61.9450 C   0  0  0  0  0  0  0  0  0  0  0  0
  -29.2632   63.9359   63.2257 C   0  0  0  0  0  0  0  0  0  0  0  0
  -28.9021   65.3950   63.5120 C   0  0  0  0  0  0  0  0  0  0  0  0
  -29.8727   66.3890   62.8883 C   0  0  0  0  0  0  0  0  0  0  0  0
  -30.8060   67.0407   63.9025 C   0  0  0  0  0  0  0  0  0  0  0  0
  -30.2619   67.0814   65.3260 C   0  0  0  0  0  0  0  0  0  0  0  0
  -31.0586   66.2376   66.3110 C   0  0  0  0  0  0  0  0  0  0  0  0
  -32.1876   65.4407   65.6770 C   0  0  0  0  0  0  0  0  0  0  0  0
  -31.8824   63.9595   65.5821 C   0  0  0  0  0  0  0  0  0  0  0  0
  -40.8867   60.9944   66.3891 O   0  0  0  0  0  0  0  0  0  0  0  0
  -41.4234   59.9404   65.5845 C   0  0  0  0  0  0  0  0  0  0  0  0
  -40.2580   61.5140   65.8639 H   0  0  0  0  0  0  0  0  0  0  0  0
  -42.4004   59.1152   66.3646 C   0  0  0  0  0  0  0  0  0  0  0  0
  -43.4907   58.5630   65.8704 C   0  0  0  0  0  0  0  0  0  0  0  0
  -44.4384   57.7321   66.6718 C   0  0  0  0  0  0  0  0  0  0  0  0
  -45.8517   57.7926   66.0887 C   0  0  0  0  0  0  0  0  0  0  0  0
  -46.0104   58.7759   64.9404 C   0  0  0  0  0  0  0  0  0  0  0  0
  -47.4290   58.8932   64.4100 C   0  0  0  0  0  0  0  0  0  0  0  0
  -48.2724   59.9392   65.1244 C   0  0  0  0  0  0  0  0  0  0  0  0
  -49.2544   59.3517   66.1264 C   0  0  0  0  0  0  0  0  0  0  0  0
  -50.6354   59.0935   65.5502 C   0  0  0  0  0  0  0  0  0  0  0  0
  -51.1219   60.1742   64.6027 C   0  0  0  0  0  0  0  0  0  0  0  0
  -51.6835   59.6399   63.2963 C   0  0  0  0  0  0  0  0  0  0  0  0
  -50.6614   58.8686   62.4821 C   0  0  0  0  0  0  0  0  0  0  0  0
  -49.8907   59.7114   61.4841 C   0  0  0  0  0  0  0  0  0  0  0  0
  -49.4969   58.9321   60.2447 C   0  0  0  0  0  0  0  0  0  0  0  0
  -48.8617   57.5975   60.5759 C   0  0  0  0  0  0  0  0  0  0  0  0
  -38.9154   59.6164   65.4825 C   0  0  0  0  0  0  0  0  0  0  0  0
  -38.6844   60.8588   64.8088 O   0  0  0  0  0  0  0  0  0  0  0  0
  -37.1861   61.2391   62.4739 O   0  0  0  0  0  0  0  0  0  0  0  0
  -36.2887   64.6539   64.9348 O   0  0  0  0  0  0  0  0  0  0  0  0
  -37.1903   62.1429   66.0118 O   0  0  0  0  0  0  0  0  0  0  0  0
  -37.3647   61.3143   64.8776 C   0  0  0  0  0  0  0  0  0  0  0  0
  -37.0680   62.0947   63.6035 C   0  0  0  0  0  0  0  0  0  0  0  0
  -35.6655   62.6856   63.6729 C   0  0  0  0  0  0  0  0  0  0  0  0
  -35.4727   63.4871   64.9519 C   0  0  0  0  0  0  0  0  0  0  0  0
  -35.8456   62.6271   66.1570 C   0  0  0  0  0  0  0  0  0  0  0  0
  -38.0823   60.8694   62.4406 H   0  0  0  0  0  0  0  0  0  0  0  0
  -36.0534   65.2018   64.1697 H   0  0  0  0  0  0  0  0  0  0  0  0
  -34.4545   63.5176   67.9348 O   0  0  0  0  0  0  0  0  0  0  0  0
  -35.7908   63.3808   67.4651 C   0  0  0  0  0  0  0  0  0  0  0  0
  -34.4550   64.0045   68.7737 H   0  0  0  0  0  0  0  0  0  0  0  0
  -35.5843   63.5809   62.5192 O   0  0  0  0  0  0  0  0  0  0  0  0
  -33.9986   65.3584   62.8841 O   0  0  0  0  0  0  0  0  0  0  0  0
  -34.0165   64.0869   60.7166 O   0  0  0  0  0  0  0  0  0  0  0  0
  -33.2619   63.1014   62.7403 O   0  0  0  0  0  0  0  0  0  0  0  0
  -34.1674   64.1782   62.1202 S   0  0  0  0  0  0  0  0  0  0  0  0
  -34.5576   66.0622   62.5195 H   0  0  0  0  0  0  0  0  0  0  0  0
  -33.3380   63.1324   63.7069 H   0  0  0  0  0  0  0  0  0  0  0  0
  2  1  1  0  0  0
  2  4  1  0  0  0
  2  5  1  0  0  0
 47 48  1  0  0  0
 47  1  1  0  0  0
 48 52  1  0  0  0
  1 30  1  0  0  0
 29 30  1  0  0  0
 29 31  1  0  0  0
 30 32  1  0  0  0
  3  4  2  0  0  0
 32 33  2  0  0  0
 49 53  1  0  0  0
 49 57  1  0  0  0
 33 34  1  0  0  0
 62 54  1  0  0  0
 62 66  1  0  0  0
 34 35  1  0  0  0
 50 55  1  0  0  0
 50 58  1  0  0  0
 35 36  1  0  0  0
 51 52  1  0  0  0
 51 56  1  0  0  0
 36 37  1  0  0  0
 59 60  1  0  0  0
 59 61  1  0  0  0
 37 38  1  0  0  0
 63 66  1  0  0  0
 63 67  1  0  0  0
 38 39  1  0  0  0
 64 66  1  0  0  0
 39 40  1  0  0  0
 65 66  1  0  0  0
 65 68  1  0  0  0
 40 41  1  0  0  0
 41 42  1  0  0  0
 42 43  1  0  0  0
 43 44  1  0  0  0
 44 45  1  0  0  0
 45 46  1  0  0  0
  4  6  1  0  0  0
  6  7  1  0  0  0
  7  8  1  0  0  0
  8  9  1  0  0  0
  9 10  1  0  0  0
 10 11  1  0  0  0
 11 12  1  0  0  0
 12 13  1  0  0  0
 13 14  1  0  0  0
 14 15  1  0  0  0
 15 16  1  0  0  0
 16 17  1  0  0  0
 17 18  1  0  0  0
 18 19  1  0  0  0
 19 20  2  0  0  0
 20 21  1  0  0  0
 21 22  1  0  0  0
 22 23  1  0  0  0
 23 24  1  0  0  0
 24 25  1  0  0  0
 25 26  1  0  0  0
 26 27  1  0  0  0
 27 28  1  0  0  0
 52 53  1  0  0  0
 53 54  1  0  0  0
 54 55  1  0  0  0
 55 56  1  0  0  0
 56 60  1  0  0  0
M  CHG 1  64  -1
M  END
> <minimizedAffinity>
-9.21441

> <CNNscore>
0.1852285266

> <CNNaffinity>
7.0241560936

> <CNN_VS>
1.3010740280

> <CNNaffinity_variance>
1.4149713516

$$$$
/media/chris/experiments/cd1a-new-docking/inputs/ligands/7ryn_ligand.pdb


 68 68  0  0  0  0  0  0  0  0999 V2000
  -40.0181   58.9923   64.4732 C   0  0  0  0  0  0  0  0  0  0  0  0
  -39.5813   58.9766   63.0803 N   0  0  0  0  0  0  0  0  0  0  0  0
  -39.9502   56.7815   62.7438 O   0  0  0  0  0  0  0  0  0  0  0  0
  -39.5812   57.8749   62.3251 C   0  0  0  0  0  0  0  0  0  0  0  0
  -39.2714   59.8198   62.6776 H   0  0  0  0  0  0  0  0  0  0  0  0
  -39.1018   58.0564   60.9064 C   0  0  0  0  0  0  0  0  0  0  0  0
  -37.6185   58.3948   60.8292 C   0  0  0  0  0  0  0  0  0  0  0  0
  -36.7860   57.6161   61.8350 C   0  0  0  0  0  0  0  0  0  0  0  0
  -35.4668   58.2818   62.1898 C   0  0  0  0  0  0  0  0  0  0  0  0
  -34.4284   57.3260   62.7577 C   0  0  0  0  0  0  0  0  0  0  0  0
  -32.9936   57.6768   62.3848 C   0  0  0  0  0  0  0  0  0  0  0  0
  -32.7746   59.1571   62.0998 C   0  0  0  0  0  0  0  0  0  0  0  0
  -31.5565   59.7623   62.7929 C   0  0  0  0  0  0  0  0  0  0  0  0
  -30.6582   60.5823   61.8681 C   0  0  0  0  0  0  0  0  0  0  0  0
  -29.4244   61.1802   62.5439 C   0  0  0  0  0  0  0  0  0  0  0  0
  -29.4344   62.7083   62.5874 C   0  0  0  0  0  0  0  0  0  0  0  0
  -30.0802   63.3860   61.3789 C   0  0  0  0  0  0  0  0  0  0  0  0
  -30.1293   64.9148   61.4467 C   0  0  0  0  0  0  0  0  0  0  0  0
  -31.2834   65.4958   60.6820 C   0  0  0  0  0  0  0  0  0  0  0  0
  -31.7393   66.7320   60.7808 C   0  0  0  0  0  0  0  0  0  0  0  0
  -31.1938   67.8043   61.6745 C   0  0  0  0  0  0  0  0  0  0  0  0
  -32.0310   68.0397   62.9335 C   0  0  0  0  0  0  0  0  0  0  0  0
  -31.1942   68.3936   64.1556 C   0  0  0  0  0  0  0  0  0  0  0  0
  -29.9336   67.5470   64.2913 C   0  0  0  0  0  0  0  0  0  0  0  0
  -30.1551   66.1838   64.9368 C   0  0  0  0  0  0  0  0  0  0  0  0
  -31.2260   66.1846   66.0185 C   0  0  0  0  0  0  0  0  0  0  0  0
  -32.2785   65.0999   65.8530 C   0  0  0  0  0  0  0  0  0  0  0  0
  -31.7694   63.8969   65.0852 C   0  0  0  0  0  0  0  0  0  0  0  0
  -41.3224   60.3487   65.9877 O   0  0  0  0  0  0  0  0  0  0  0  0
  -41.2179   59.9418   64.6202 C   0  0  0  0  0  0  0  0  0  0  0  0
  -40.4906   60.7627   66.2663 H   0  0  0  0  0  0  0  0  0  0  0  0
  -42.4872   59.2967   64.1547 C   0  0  0  0  0  0  0  0  0  0  0  0
  -43.4112   58.7853   64.9437 C   0  0  0  0  0  0  0  0  0  0  0  0
  -44.6748   58.1614   64.4487 C   0  0  0  0  0  0  0  0  0  0  0  0
  -45.6013   57.7984   65.6111 C   0  0  0  0  0  0  0  0  0  0  0  0
  -46.8619   58.6440   65.6905 C   0  0  0  0  0  0  0  0  0  0  0  0
  -47.3749   59.1284   64.3451 C   0  0  0  0  0  0  0  0  0  0  0  0
  -48.3400   60.3015   64.4368 C   0  0  0  0  0  0  0  0  0  0  0  0
  -49.4843   60.2306   63.4373 C   0  0  0  0  0  0  0  0  0  0  0  0
  -50.1656   58.8746   63.3826 C   0  0  0  0  0  0  0  0  0  0  0  0
  -50.6920   58.5021   62.0091 C   0  0  0  0  0  0  0  0  0  0  0  0
  -49.7572   58.8727   60.8705 C   0  0  0  0  0  0  0  0  0  0  0  0
  -48.8599   57.7264   60.4423 C   0  0  0  0  0  0  0  0  0  0  0  0
  -48.8966   57.4236   58.9567 C   0  0  0  0  0  0  0  0  0  0  0  0
  -47.8287   58.1717   58.1831 C   0  0  0  0  0  0  0  0  0  0  0  0
  -47.3178   57.3872   56.9924 C   0  0  0  0  0  0  0  0  0  0  0  0
  -38.8665   59.3872   65.3744 C   0  0  0  0  0  0  0  0  0  0  0  0
  -38.7352   60.8128   65.3390 O   0  0  0  0  0  0  0  0  0  0  0  0
  -37.3429   60.9713   62.9146 O   0  0  0  0  0  0  0  0  0  0  0  0
  -36.3403   64.5959   65.0073 O   0  0  0  0  0  0  0  0  0  0  0  0
  -37.1903   62.1978   66.3506 O   0  0  0  0  0  0  0  0  0  0  0  0
  -37.4142   61.2685   65.3066 C   0  0  0  0  0  0  0  0  0  0  0  0
  -37.1754   61.9272   63.9540 C   0  0  0  0  0  0  0  0  0  0  0  0
  -35.7719   62.5177   63.9061 C   0  0  0  0  0  0  0  0  0  0  0  0
  -35.5231   63.4331   65.0958 C   0  0  0  0  0  0  0  0  0  0  0  0
  -35.8409   62.6891   66.3905 C   0  0  0  0  0  0  0  0  0  0  0  0
  -38.2393   60.6029   62.9555 H   0  0  0  0  0  0  0  0  0  0  0  0
  -36.1399   65.0702   64.1852 H   0  0  0  0  0  0  0  0  0  0  0  0
  -36.4793   63.0311   68.7066 O   0  0  0  0  0  0  0  0  0  0  0  0
  -35.7286   63.5602   67.6197 C   0  0  0  0  0  0  0  0  0  0  0  0
  -36.3859   63.6124   69.4774 H   0  0  0  0  0  0  0  0  0  0  0  0
  -35.7431   63.3024   62.6722 O   0  0  0  0  0  0  0  0  0  0  0  0
  -33.4440   62.8099   62.1446 O   0  0  0  0  0  0  0  0  0  0  0  0
  -34.1274   65.1257   62.8412 O   0  0  0  0  0  0  0  0  0  0  0  0
  -34.7255   64.2262   60.7271 O   0  0  0  0  0  0  0  0  0  0  0  0
  -34.3531   63.8948   62.1816 S   0  0  0  0  0  0  0  0  0  0  0  0
  -33.1864   62.5729   63.0492 H   0  0  0  0  0  0  0  0  0  0  0  0
  -34.8887   63.4036   60.2397 H   0  0  0  0  0  0  0  0  0  0  0  0
  2  1  1  0  0  0
  2  4  1  0  0  0
  2  5  1  0  0  0
 47 48  1  0  0  0
 47  1  1  0  0  0
 48 52  1  0  0  0
  1 30  1  0  0  0
 29 30  1  0  0  0
 29 31  1  0  0  0
 30 32  1  0  0  0
  3  4  2  0  0  0
 32 33  2  0  0  0
 49 53  1  0  0  0
 49 57  1  0  0  0
 33 34  1  0  0  0
 62 54  1  0  0  0
 62 66  1  0  0  0
 34 35  1  0  0  0
 50 55  1  0  0  0
 50 58  1  0  0  0
 35 36  1  0  0  0
 51 52  1  0  0  0
 51 56  1  0  0  0
 36 37  1  0  0  0
 59 60  1  0  0  0
 59 61  1  0  0  0
 37 38  1  0  0  0
 63 66  1  0  0  0
 63 67  1  0  0  0
 38 39  1  0  0  0
 64 66  1  0  0  0
 39 40  1  0  0  0
 65 66  1  0  0  0
 65 68  1  0  0  0
 40 41  1  0  0  0
 41 42  1  0  0  0
 42 43  1  0  0  0
 43 44  1  0  0  0
 44 45  1  0  0  0
 45 46  1  0  0  0
  4  6  1  0  0  0
  6  7  1  0  0  0
  7  8  1  0  0  0
  8  9  1  0  0  0
  9 10  1  0  0  0
 10 11  1  0  0  0
 11 12  1  0  0  0
 12 13  1  0  0  0
 13 14  1  0  0  0
 14 15  1  0  0  0
 15 16  1  0  0  0
 16 17  1  0  0  0
 17 18  1  0  0  0
 18 19  1  0  0  0
 19 20  2  0  0  0
 20 21  1  0  0  0
 21 22  1  0  0  0
 22 23  1  0  0  0
 23 24  1  0  0  0
 24 25  1  0  0  0
 25 26  1  0  0  0
 26 27  1  0  0  0
 27 28  1  0  0  0
 52 53  1  0  0  0
 53 54  1  0  0  0
 54 55  1  0  0  0
 55 56  1  0  0  0
 56 60  1  0  0  0
M  CHG 1  64  -1
M  END
> <minimizedAffinity>
-9.21135

> <CNNscore>
0.1570097655

> <CNNaffinity>
6.9398012161

> <CNN_VS>
1.0896165371

> <CNNaffinity_variance>
0.9669265747

$$$$
/media/chris/experiments/cd1a-new-docking/inputs/ligands/7ryn_ligand.pdb


 68 68  0  0  0  0  0  0  0  0999 V2000
  -43.2864   57.3544   65.0303 C   0  0  0  0  0  0  0  0  0  0  0  0
  -42.4935   56.9450   63.8749 N   0  0  0  0  0  0  0  0  0  0  0  0
  -41.6742   55.0666   64.8066 O   0  0  0  0  0  0  0  0  0  0  0  0
  -41.7505   55.8353   63.8524 C   0  0  0  0  0  0  0  0  0  0  0  0
  -42.5072   57.5151   63.0723 H   0  0  0  0  0  0  0  0  0  0  0  0
  -41.0065   55.5741   62.5665 C   0  0  0  0  0  0  0  0  0  0  0  0
  -40.2979   56.8149   62.0385 C   0  0  0  0  0  0  0  0  0  0  0  0
  -38.8967   56.9764   62.6059 C   0  0  0  0  0  0  0  0  0  0  0  0
  -37.8491   57.3390   61.5665 C   0  0  0  0  0  0  0  0  0  0  0  0
  -36.6357   58.0554   62.1399 C   0  0  0  0  0  0  0  0  0  0  0  0
  -36.1567   57.4935   63.4725 C   0  0  0  0  0  0  0  0  0  0  0  0
  -34.6428   57.5118   63.6412 C   0  0  0  0  0  0  0  0  0  0  0  0
  -33.8592   57.2313   62.3614 C   0  0  0  0  0  0  0  0  0  0  0  0
  -33.0250   58.4137   61.8710 C   0  0  0  0  0  0  0  0  0  0  0  0
  -32.3279   59.2042   62.9780 C   0  0  0  0  0  0  0  0  0  0  0  0
  -32.0605   60.6633   62.6083 C   0  0  0  0  0  0  0  0  0  0  0  0
  -31.1353   60.8681   61.4089 C   0  0  0  0  0  0  0  0  0  0  0  0
  -29.6542   61.0372   61.7582 C   0  0  0  0  0  0  0  0  0  0  0  0
  -29.4289   61.9864   62.8996 C   0  0  0  0  0  0  0  0  0  0  0  0
  -29.4112   63.3054   62.8232 C   0  0  0  0  0  0  0  0  0  0  0  0
  -29.6156   64.1196   61.5816 C   0  0  0  0  0  0  0  0  0  0  0  0
  -30.8247   65.0548   61.6522 C   0  0  0  0  0  0  0  0  0  0  0  0
  -32.0596   64.4960   60.9582 C   0  0  0  0  0  0  0  0  0  0  0  0
  -33.1937   64.1594   61.9199 C   0  0  0  0  0  0  0  0  0  0  0  0
  -33.5198   65.2613   62.9216 C   0  0  0  0  0  0  0  0  0  0  0  0
  -33.7998   64.7485   64.3272 C   0  0  0  0  0  0  0  0  0  0  0  0
  -32.9070   63.5958   64.7585 C   0  0  0  0  0  0  0  0  0  0  0  0
  -31.6321   64.0587   65.4340 C   0  0  0  0  0  0  0  0  0  0  0  0
  -44.2998   59.3355   64.0906 O   0  0  0  0  0  0  0  0  0  0  0  0
  -44.5895   58.0111   64.5473 C   0  0  0  0  0  0  0  0  0  0  0  0
  -43.6276   59.2969   63.3923 H   0  0  0  0  0  0  0  0  0  0  0  0
  -45.6259   58.0319   65.6287 C   0  0  0  0  0  0  0  0  0  0  0  0
  -46.6492   58.8614   65.6819 C   0  0  0  0  0  0  0  0  0  0  0  0
  -47.6753   58.8472   66.7671 C   0  0  0  0  0  0  0  0  0  0  0  0
  -48.9918   59.4622   66.2876 C   0  0  0  0  0  0  0  0  0  0  0  0
  -49.5522   58.8282   65.0250 C   0  0  0  0  0  0  0  0  0  0  0  0
  -50.9041   59.3745   64.5986 C   0  0  0  0  0  0  0  0  0  0  0  0
  -51.1882   59.2310   63.1105 C   0  0  0  0  0  0  0  0  0  0  0  0
  -50.1073   59.8274   62.2220 C   0  0  0  0  0  0  0  0  0  0  0  0
  -49.8237   59.0122   60.9726 C   0  0  0  0  0  0  0  0  0  0  0  0
  -50.4023   57.6099   61.0048 C   0  0  0  0  0  0  0  0  0  0  0  0
  -49.4866   56.5525   60.4123 C   0  0  0  0  0  0  0  0  0  0  0  0
  -48.5736   57.0973   59.3296 C   0  0  0  0  0  0  0  0  0  0  0  0
  -47.5396   56.1085   58.8263 C   0  0  0  0  0  0  0  0  0  0  0  0
  -47.2321   56.2867   57.3525 C   0  0  0  0  0  0  0  0  0  0  0  0
  -47.2592   57.7397   56.9255 C   0  0  0  0  0  0  0  0  0  0  0  0
  -42.4766   58.2803   65.9143 C   0  0  0  0  0  0  0  0  0  0  0  0
  -41.1502   58.3660   65.3813 O   0  0  0  0  0  0  0  0  0  0  0  0
  -38.6249   59.5140   65.7641 O   0  0  0  0  0  0  0  0  0  0  0  0
  -39.5236   60.1740   61.6072 O   0  0  0  0  0  0  0  0  0  0  0  0
  -41.5571   59.7823   63.6045 O   0  0  0  0  0  0  0  0  0  0  0  0
  -40.8380   59.6032   64.8105 C   0  0  0  0  0  0  0  0  0  0  0  0
  -39.3392   59.6334   64.5403 C   0  0  0  0  0  0  0  0  0  0  0  0
  -38.9660   60.9319   63.8365 C   0  0  0  0  0  0  0  0  0  0  0  0
  -39.8250   61.1498   62.5996 C   0  0  0  0  0  0  0  0  0  0  0  0
  -41.3010   61.0486   62.9762 C   0  0  0  0  0  0  0  0  0  0  0  0
  -38.8708   58.6843   66.2023 H   0  0  0  0  0  0  0  0  0  0  0  0
  -38.5860   60.2366   61.3665 H   0  0  0  0  0  0  0  0  0  0  0  0
  -43.1507   62.2142   61.9232 O   0  0  0  0  0  0  0  0  0  0  0  0
  -42.2262   61.1413   61.7855 C   0  0  0  0  0  0  0  0  0  0  0  0
  -43.7280   62.2456   61.1444 H   0  0  0  0  0  0  0  0  0  0  0  0
  -37.5715   60.7473   63.4357 O   0  0  0  0  0  0  0  0  0  0  0  0
  -36.9324   62.1955   65.2527 O   0  0  0  0  0  0  0  0  0  0  0  0
  -36.1004   62.6273   62.9210 O   0  0  0  0  0  0  0  0  0  0  0  0
  -35.3195   60.7926   64.2095 O   0  0  0  0  0  0  0  0  0  0  0  0
  -36.4838   61.7699   63.9788 S   0  0  0  0  0  0  0  0  0  0  0  0
  -37.6700   62.8160   65.1450 H   0  0  0  0  0  0  0  0  0  0  0  0
  -35.5454   60.1851   64.9312 H   0  0  0  0  0  0  0  0  0  0  0  0
  2  1  1  0  0  0
  2  4  1  0  0  0
  2  5  1  0  0  0
 47 48  1  0  0  0
 47  1  1  0  0  0
 48 52  1  0  0  0
  1 30  1  0  0  0
 29 30  1  0  0  0
 29 31  1  0  0  0
 30 32  1  0  0  0
  3  4  2  0  0  0
 32 33  2  0  0  0
 49 53  1  0  0  0
 49 57  1  0  0  0
 33 34  1  0  0  0
 62 54  1  0  0  0
 62 66  1  0  0  0
 34 35  1  0  0  0
 50 55  1  0  0  0
 50 58  1  0  0  0
 35 36  1  0  0  0
 51 52  1  0  0  0
 51 56  1  0  0  0
 36 37  1  0  0  0
 59 60  1  0  0  0
 59 61  1  0  0  0
 37 38  1  0  0  0
 63 66  1  0  0  0
 63 67  1  0  0  0
 38 39  1  0  0  0
 64 66  1  0  0  0
 39 40  1  0  0  0
 65 66  1  0  0  0
 65 68  1  0  0  0
 40 41  1  0  0  0
 41 42  1  0  0  0
 42 43  1  0  0  0
 43 44  1  0  0  0
 44 45  1  0  0  0
 45 46  1  0  0  0
  4  6  1  0  0  0
  6  7  1  0  0  0
  7  8  1  0  0  0
  8  9  1  0  0  0
  9 10  1  0  0  0
 10 11  1  0  0  0
 11 12  1  0  0  0
 12 13  1  0  0  0
 13 14  1  0  0  0
 14 15  1  0  0  0
 15 16  1  0  0  0
 16 17  1  0  0  0
 17 18  1  0  0  0
 18 19  1  0  0  0
 19 20  2  0  0  0
 20 21  1  0  0  0
 21 22  1  0  0  0
 22 23  1  0  0  0
 23 24  1  0  0  0
 24 25  1  0  0  0
 25 26  1  0  0  0
 26 27  1  0  0  0
 27 28  1  0  0  0
 52 53  1  0  0  0
 53 54  1  0  0  0
 54 55  1  0  0  0
 55 56  1  0  0  0
 56 60  1  0  0  0
M  CHG 1  64  -1
M  END
> <minimizedAffinity>
-8.97859

> <CNNscore>
0.1117269620

> <CNNaffinity>
6.6555228233

> <CNN_VS>
0.7436013222

> <CNNaffinity_variance>
1.4427057505

$$$$
/media/chris/experiments/cd1a-new-docking/inputs/ligands/7ryn_ligand.pdb


 68 68  0  0  0  0  0  0  0  0999 V2000
  -37.3552   59.3036   63.5820 C   0  0  0  0  0  0  0  0  0  0  0  0
  -38.7558   59.4791   63.2095 N   0  0  0  0  0  0  0  0  0  0  0  0
  -38.3544   60.6776   61.3467 O   0  0  0  0  0  0  0  0  0  0  0  0
  -39.1462   60.1510   62.1231 C   0  0  0  0  0  0  0  0  0  0  0  0
  -39.4469   59.0826   63.7878 H   0  0  0  0  0  0  0  0  0  0  0  0
  -40.6362   60.2196   61.8988 C   0  0  0  0  0  0  0  0  0  0  0  0
  -41.0266   59.8984   60.4618 C   0  0  0  0  0  0  0  0  0  0  0  0
  -40.9313   58.4144   60.1457 C   0  0  0  0  0  0  0  0  0  0  0  0
  -41.6640   57.5252   61.1366 C   0  0  0  0  0  0  0  0  0  0  0  0
  -40.7653   56.5226   61.8449 C   0  0  0  0  0  0  0  0  0  0  0  0
  -41.2826   56.0816   63.2082 C   0  0  0  0  0  0  0  0  0  0  0  0
  -41.9742   57.1889   63.9932 C   0  0  0  0  0  0  0  0  0  0  0  0
  -43.0058   56.6983   65.0060 C   0  0  0  0  0  0  0  0  0  0  0  0
  -43.0570   57.5232   66.2911 C   0  0  0  0  0  0  0  0  0  0  0  0
  -44.1364   58.6052   66.3111 C   0  0  0  0  0  0  0  0  0  0  0  0
  -45.1847   58.4399   65.2107 C   0  0  0  0  0  0  0  0  0  0  0  0
  -46.6004   58.1425   65.7048 C   0  0  0  0  0  0  0  0  0  0  0  0
  -47.7105   58.4233   64.6884 C   0  0  0  0  0  0  0  0  0  0  0  0
  -48.1287   59.8651   64.6649 C   0  0  0  0  0  0  0  0  0  0  0  0
  -49.3702   60.3148   64.6171 C   0  0  0  0  0  0  0  0  0  0  0  0
  -50.6113   59.4756   64.5796 C   0  0  0  0  0  0  0  0  0  0  0  0
  -51.4091   59.6159   63.2814 C   0  0  0  0  0  0  0  0  0  0  0  0
  -51.2631   58.4180   62.3525 C   0  0  0  0  0  0  0  0  0  0  0  0
  -50.1545   58.5854   61.3194 C   0  0  0  0  0  0  0  0  0  0  0  0
  -49.7571   57.2982   60.6057 C   0  0  0  0  0  0  0  0  0  0  0  0
  -49.3275   57.5063   59.1603 C   0  0  0  0  0  0  0  0  0  0  0  0
  -47.8224   57.5978   58.9654 C   0  0  0  0  0  0  0  0  0  0  0  0
  -47.4335   57.9848   57.5530 C   0  0  0  0  0  0  0  0  0  0  0  0
  -37.2649   57.3991   65.0650 O   0  0  0  0  0  0  0  0  0  0  0  0
  -37.0462   57.8033   63.7103 C   0  0  0  0  0  0  0  0  0  0  0  0
  -38.1763   57.6093   65.3221 H   0  0  0  0  0  0  0  0  0  0  0  0
  -35.6458   57.4936   63.2782 C   0  0  0  0  0  0  0  0  0  0  0  0
  -34.9979   58.1095   62.3092 C   0  0  0  0  0  0  0  0  0  0  0  0
  -33.5948   57.7872   61.9114 C   0  0  0  0  0  0  0  0  0  0  0  0
  -32.6215   58.0551   63.0612 C   0  0  0  0  0  0  0  0  0  0  0  0
  -31.9144   59.3981   62.9788 C   0  0  0  0  0  0  0  0  0  0  0  0
  -31.9862   60.0592   61.6129 C   0  0  0  0  0  0  0  0  0  0  0  0
  -30.9573   61.1607   61.4037 C   0  0  0  0  0  0  0  0  0  0  0  0
  -29.5636   60.7953   61.8909 C   0  0  0  0  0  0  0  0  0  0  0  0
  -28.9564   61.8203   62.8325 C   0  0  0  0  0  0  0  0  0  0  0  0
  -29.7418   63.1152   62.9263 C   0  0  0  0  0  0  0  0  0  0  0  0
  -29.8833   63.6479   64.3419 C   0  0  0  0  0  0  0  0  0  0  0  0
  -31.3288   63.8370   64.7630 C   0  0  0  0  0  0  0  0  0  0  0  0
  -31.5711   65.0474   65.6442 C   0  0  0  0  0  0  0  0  0  0  0  0
  -31.5279   66.3499   64.8695 C   0  0  0  0  0  0  0  0  0  0  0  0
  -30.4219   67.2702   65.3428 C   0  0  0  0  0  0  0  0  0  0  0  0
  -37.0599   60.0567   64.8626 C   0  0  0  0  0  0  0  0  0  0  0  0
  -35.6481   60.0087   65.0981 O   0  0  0  0  0  0  0  0  0  0  0  0
  -34.9193   61.4060   62.7834 O   0  0  0  0  0  0  0  0  0  0  0  0
  -36.6382   64.3790   65.3774 O   0  0  0  0  0  0  0  0  0  0  0  0
  -35.4705   61.9375   66.3537 O   0  0  0  0  0  0  0  0  0  0  0  0
  -35.0366   61.2624   65.1877 C   0  0  0  0  0  0  0  0  0  0  0  0
  -35.4121   62.0604   63.9457 C   0  0  0  0  0  0  0  0  0  0  0  0
  -34.8380   63.4682   64.0415 C   0  0  0  0  0  0  0  0  0  0  0  0
  -35.2359   64.1329   65.3512 C   0  0  0  0  0  0  0  0  0  0  0  0
  -34.8596   63.2269   66.5209 C   0  0  0  0  0  0  0  0  0  0  0  0
  -35.2915   60.5116   62.7336 H   0  0  0  0  0  0  0  0  0  0  0  0
  -36.8794   64.9546   64.6348 H   0  0  0  0  0  0  0  0  0  0  0  0
  -36.4736   63.0700   68.3262 O   0  0  0  0  0  0  0  0  0  0  0  0
  -35.3204   63.7594   67.8575 C   0  0  0  0  0  0  0  0  0  0  0  0
  -36.7425   63.4352   69.1836 H   0  0  0  0  0  0  0  0  0  0  0  0
  -35.4438   64.1912   62.9237 O   0  0  0  0  0  0  0  0  0  0  0  0
  -33.4665   63.6402   61.6613 O   0  0  0  0  0  0  0  0  0  0  0  0
  -34.3772   65.9823   61.6519 O   0  0  0  0  0  0  0  0  0  0  0  0
  -35.4889   64.2020   60.5425 O   0  0  0  0  0  0  0  0  0  0  0  0
  -34.5287   64.5762   61.6835 S   0  0  0  0  0  0  0  0  0  0  0  0
  -32.8386   63.8467   62.3712 H   0  0  0  0  0  0  0  0  0  0  0  0
  -35.6187   63.2408   60.5313 H   0  0  0  0  0  0  0  0  0  0  0  0
  2  1  1  0  0  0
  2  4  1  0  0  0
  2  5  1  0  0  0
 47 48  1  0  0  0
 47  1  1  0  0  0
 48 52  1  0  0  0
  1 30  1  0  0  0
 29 30  1  0  0  0
 29 31  1  0  0  0
 30 32  1  0  0  0
  3  4  2  0  0  0
 32 33  2  0  0  0
 49 53  1  0  0  0
 49 57  1  0  0  0
 33 34  1  0  0  0
 62 54  1  0  0  0
 62 66  1  0  0  0
 34 35  1  0  0  0
 50 55  1  0  0  0
 50 58  1  0  0  0
 35 36  1  0  0  0
 51 52  1  0  0  0
 51 56  1  0  0  0
 36 37  1  0  0  0
 59 60  1  0  0  0
 59 61  1  0  0  0
 37 38  1  0  0  0
 63 66  1  0  0  0
 63 67  1  0  0  0
 38 39  1  0  0  0
 64 66  1  0  0  0
 39 40  1  0  0  0
 65 66  1  0  0  0
 65 68  1  0  0  0
 40 41  1  0  0  0
 41 42  1  0  0  0
 42 43  1  0  0  0
 43 44  1  0  0  0
 44 45  1  0  0  0
 45 46  1  0  0  0
  4  6  1  0  0  0
  6  7  1  0  0  0
  7  8  1  0  0  0
  8  9  1  0  0  0
  9 10  1  0  0  0
 10 11  1  0  0  0
 11 12  1  0  0  0
 12 13  1  0  0  0
 13 14  1  0  0  0
 14 15  1  0  0  0
 15 16  1  0  0  0
 16 17  1  0  0  0
 17 18  1  0  0  0
 18 19  1  0  0  0
 19 20  2  0  0  0
 20 21  1  0  0  0
 21 22  1  0  0  0
 22 23  1  0  0  0
 23 24  1  0  0  0
 24 25  1  0  0  0
 25 26  1  0  0  0
 26 27  1  0  0  0
 27 28  1  0  0  0
 52 53  1  0  0  0
 53 54  1  0  0  0
 54 55  1  0  0  0
 55 56  1  0  0  0
 56 60  1  0  0  0
M  CHG 1  64  -1
M  END
> <minimizedAffinity>
-9.43582

> <CNNscore>
0.1113724485

> <CNNaffinity>
7.0339837074

> <CNN_VS>
0.7833920121

> <CNNaffinity_variance>
1.1422561407

$$$$
