/media/chris/experiments/cd1a-new-docking/inputs/ligands/7ryn_ligand.pdb


 68 68  0  0  0  0  0  0  0  0999 V2000
  -34.1434   63.0902   62.9630 C   0  0  0  0  0  0  0  0  0  0  0  0
  -34.8350   63.5901   64.1475 N   0  0  0  0  0  0  0  0  0  0  0  0
  -36.5603   63.5060   65.5911 O   0  0  0  0  0  0  0  0  0  0  0  0
  -35.9791   63.0711   64.6012 C   0  0  0  0  0  0  0  0  0  0  0  0
  -34.4385   64.3472   64.6360 H   0  0  0  0  0  0  0  0  0  0  0  0
  -36.5265   61.9084   63.8114 C   0  0  0  0  0  0  0  0  0  0  0  0
  -36.8745   60.7152   64.6922 C   0  0  0  0  0  0  0  0  0  0  0  0
  -38.2903   60.2107   64.4639 C   0  0  0  0  0  0  0  0  0  0  0  0
  -38.7867   59.2598   65.5403 C   0  0  0  0  0  0  0  0  0  0  0  0
  -40.2920   59.0401   65.5207 C   0  0  0  0  0  0  0  0  0  0  0  0
  -41.0784   60.0646   66.3286 C   0  0  0  0  0  0  0  0  0  0  0  0
  -42.3224   59.4975   67.0003 C   0  0  0  0  0  0  0  0  0  0  0  0
  -42.5145   57.9947   66.8127 C   0  0  0  0  0  0  0  0  0  0  0  0
  -43.9681   57.5753   66.5997 C   0  0  0  0  0  0  0  0  0  0  0  0
  -44.9754   58.7242   66.6409 C   0  0  0  0  0  0  0  0  0  0  0  0
  -46.2583   58.4377   65.8602 C   0  0  0  0  0  0  0  0  0  0  0  0
  -47.2175   57.4540   66.5302 C   0  0  0  0  0  0  0  0  0  0  0  0
  -48.6360   57.4424   65.9541 C   0  0  0  0  0  0  0  0  0  0  0  0
  -49.3053   58.7844   66.0248 C   0  0  0  0  0  0  0  0  0  0  0  0
  -49.9816   59.3693   65.0519 C   0  0  0  0  0  0  0  0  0  0  0  0
  -50.2191   58.8088   63.6825 C   0  0  0  0  0  0  0  0  0  0  0  0
  -49.4837   59.5638   62.5733 C   0  0  0  0  0  0  0  0  0  0  0  0
  -49.9669   59.2010   61.1753 C   0  0  0  0  0  0  0  0  0  0  0  0
  -50.3990   57.7449   61.0435 C   0  0  0  0  0  0  0  0  0  0  0  0
  -49.5521   56.9198   60.0814 C   0  0  0  0  0  0  0  0  0  0  0  0
  -48.4357   57.7111   59.4144 C   0  0  0  0  0  0  0  0  0  0  0  0
  -48.0072   57.1638   58.0622 C   0  0  0  0  0  0  0  0  0  0  0  0
  -47.1017   58.1121   57.3027 C   0  0  0  0  0  0  0  0  0  0  0  0
  -31.8025   62.6440   62.5682 O   0  0  0  0  0  0  0  0  0  0  0  0
  -32.9109   62.2804   63.3964 C   0  0  0  0  0  0  0  0  0  0  0  0
  -31.6531   63.6004   62.6295 H   0  0  0  0  0  0  0  0  0  0  0  0
  -33.1714   60.8069   63.3265 C   0  0  0  0  0  0  0  0  0  0  0  0
  -32.2819   59.8953   62.9862 C   0  0  0  0  0  0  0  0  0  0  0  0
  -32.5688   58.4302   62.9406 C   0  0  0  0  0  0  0  0  0  0  0  0
  -33.9255   58.1152   63.5739 C   0  0  0  0  0  0  0  0  0  0  0  0
  -34.9401   57.5213   62.6103 C   0  0  0  0  0  0  0  0  0  0  0  0
  -36.3312   57.3488   63.1958 C   0  0  0  0  0  0  0  0  0  0  0  0
  -37.4531   57.4910   62.1776 C   0  0  0  0  0  0  0  0  0  0  0  0
  -37.2295   58.6125   61.1750 C   0  0  0  0  0  0  0  0  0  0  0  0
  -38.3174   58.7163   60.1205 C   0  0  0  0  0  0  0  0  0  0  0  0
  -39.3482   59.7942   60.3997 C   0  0  0  0  0  0  0  0  0  0  0  0
  -40.7807   59.3558   60.1478 C   0  0  0  0  0  0  0  0  0  0  0  0
  -41.5267   59.0051   61.4218 C   0  0  0  0  0  0  0  0  0  0  0  0
  -42.1229   60.1966   62.1465 C   0  0  0  0  0  0  0  0  0  0  0  0
  -43.0149   59.7886   63.3026 C   0  0  0  0  0  0  0  0  0  0  0  0
  -43.3803   58.3191   63.2632 C   0  0  0  0  0  0  0  0  0  0  0  0
  -33.7750   64.2426   62.0515 C   0  0  0  0  0  0  0  0  0  0  0  0
  -33.5996   65.4146   62.8556 O   0  0  0  0  0  0  0  0  0  0  0  0
  -33.4728   68.2072   62.6946 O   0  0  0  0  0  0  0  0  0  0  0  0
  -30.1366   67.0877   65.1721 O   0  0  0  0  0  0  0  0  0  0  0  0
  -31.3284   65.3051   63.2539 O   0  0  0  0  0  0  0  0  0  0  0  0
  -32.3738   66.0609   62.6713 C   0  0  0  0  0  0  0  0  0  0  0  0
  -32.4611   67.4332   63.3265 C   0  0  0  0  0  0  0  0  0  0  0  0
  -31.1159   68.1412   63.2264 C   0  0  0  0  0  0  0  0  0  0  0  0
  -29.9954   67.2647   63.7664 C   0  0  0  0  0  0  0  0  0  0  0  0
  -30.0337   65.9023   63.0787 C   0  0  0  0  0  0  0  0  0  0  0  0
  -34.3236   67.7466   62.7648 H   0  0  0  0  0  0  0  0  0  0  0  0
  -30.1125   67.9524   65.6110 H   0  0  0  0  0  0  0  0  0  0  0  0
  -29.6141   64.0436   64.5814 O   0  0  0  0  0  0  0  0  0  0  0  0
  -29.0231   64.9268   63.6352 C   0  0  0  0  0  0  0  0  0  0  0  0
  -28.9402   63.4325   64.9182 H   0  0  0  0  0  0  0  0  0  0  0  0
  -31.2585   69.3266   64.0714 O   0  0  0  0  0  0  0  0  0  0  0  0
  -30.3987   70.5533   62.1838 O   0  0  0  0  0  0  0  0  0  0  0  0
  -30.7017   71.6801   64.4096 O   0  0  0  0  0  0  0  0  0  0  0  0
  -32.5524   71.0522   63.0614 O   0  0  0  0  0  0  0  0  0  0  0  0
  -31.0831   70.7586   63.4063 S   0  0  0  0  0  0  0  0  0  0  0  0
  -29.4644   70.3646   62.3640 H   0  0  0  0  0  0  0  0  0  0  0  0
  -32.8520   70.4377   62.3734 H   0  0  0  0  0  0  0  0  0  0  0  0
  2  1  1  0  0  0
  2  4  1  0  0  0
  2  5  1  0  0  0
 47 48  1  0  0  0
 47  1  1  0  0  0
 48 52  1  0  0  0
  1 30  1  0  0  0
 29 30  1  0  0  0
 29 31  1  0  0  0
 30 32  1  0  0  0
  3  4  2  0  0  0
 32 33  2  0  0  0
 49 53  1  0  0  0
 49 57  1  0  0  0
 33 34  1  0  0  0
 62 54  1  0  0  0
 62 66  1  0  0  0
 34 35  1  0  0  0
 50 55  1  0  0  0
 50 58  1  0  0  0
 35 36  1  0  0  0
 51 52  1  0  0  0
 51 56  1  0  0  0
 36 37  1  0  0  0
 59 60  1  0  0  0
 59 61  1  0  0  0
 37 38  1  0  0  0
 63 66  1  0  0  0
 63 67  1  0  0  0
 38 39  1  0  0  0
 64 66  1  0  0  0
 39 40  1  0  0  0
 65 66  1  0  0  0
 65 68  1  0  0  0
 40 41  1  0  0  0
 41 42  1  0  0  0
 42 43  1  0  0  0
 43 44  1  0  0  0
 44 45  1  0  0  0
 45 46  1  0  0  0
  4  6  1  0  0  0
  6  7  1  0  0  0
  7  8  1  0  0  0
  8  9  1  0  0  0
  9 10  1  0  0  0
 10 11  1  0  0  0
 11 12  1  0  0  0
 12 13  1  0  0  0
 13 14  1  0  0  0
 14 15  1  0  0  0
 15 16  1  0  0  0
 16 17  1  0  0  0
 17 18  1  0  0  0
 18 19  1  0  0  0
 19 20  2  0  0  0
 20 21  1  0  0  0
 21 22  1  0  0  0
 22 23  1  0  0  0
 23 24  1  0  0  0
 24 25  1  0  0  0
 25 26  1  0  0  0
 26 27  1  0  0  0
 27 28  1  0  0  0
 52 53  1  0  0  0
 53 54  1  0  0  0
 54 55  1  0  0  0
 55 56  1  0  0  0
 56 60  1  0  0  0
M  CHG 1  64  -1
M  END
> <minimizedAffinity>
-9.06536

> <CNNscore>
0.5089309812

> <CNNaffinity>
7.1945867538

> <CNN_VS>
3.6615481377

> <CNNaffinity_variance>
1.1304140091

$$$$
/media/chris/experiments/cd1a-new-docking/inputs/ligands/7ryn_ligand.pdb


 68 68  0  0  0  0  0  0  0  0999 V2000
  -31.2800   62.5462   62.1486 C   0  0  0  0  0  0  0  0  0  0  0  0
  -32.7104   62.7209   61.9148 N   0  0  0  0  0  0  0  0  0  0  0  0
  -34.7999   63.0316   62.6928 O   0  0  0  0  0  0  0  0  0  0  0  0
  -33.5970   62.8979   62.8980 C   0  0  0  0  0  0  0  0  0  0  0  0
  -33.0378   62.7075   60.9864 H   0  0  0  0  0  0  0  0  0  0  0  0
  -33.0273   62.9171   64.2945 C   0  0  0  0  0  0  0  0  0  0  0  0
  -33.9401   62.2385   65.3080 C   0  0  0  0  0  0  0  0  0  0  0  0
  -34.1386   60.7590   65.0202 C   0  0  0  0  0  0  0  0  0  0  0  0
  -35.5931   60.3550   64.8453 C   0  0  0  0  0  0  0  0  0  0  0  0
  -36.5841   61.3731   65.3893 C   0  0  0  0  0  0  0  0  0  0  0  0
  -37.8942   60.7650   65.8736 C   0  0  0  0  0  0  0  0  0  0  0  0
  -38.5821   59.8799   64.8422 C   0  0  0  0  0  0  0  0  0  0  0  0
  -39.7161   59.0226   65.3983 C   0  0  0  0  0  0  0  0  0  0  0  0
  -40.7197   59.7963   66.2519 C   0  0  0  0  0  0  0  0  0  0  0  0
  -42.1345   59.2178   66.2533 C   0  0  0  0  0  0  0  0  0  0  0  0
  -42.1938   57.7525   65.8213 C   0  0  0  0  0  0  0  0  0  0  0  0
  -43.5798   57.2539   65.4126 C   0  0  0  0  0  0  0  0  0  0  0  0
  -44.6914   58.3039   65.4888 C   0  0  0  0  0  0  0  0  0  0  0  0
  -45.6416   58.0659   66.6266 C   0  0  0  0  0  0  0  0  0  0  0  0
  -46.9193   58.4013   66.6571 C   0  0  0  0  0  0  0  0  0  0  0  0
  -47.6779   59.0845   65.5600 C   0  0  0  0  0  0  0  0  0  0  0  0
  -49.0243   59.6570   66.0079 C   0  0  0  0  0  0  0  0  0  0  0  0
  -50.2186   58.9333   65.4002 C   0  0  0  0  0  0  0  0  0  0  0  0
  -51.0833   59.8274   64.5187 C   0  0  0  0  0  0  0  0  0  0  0  0
  -51.1625   59.3895   63.0607 C   0  0  0  0  0  0  0  0  0  0  0  0
  -49.8028   59.1808   62.4087 C   0  0  0  0  0  0  0  0  0  0  0  0
  -49.8423   59.1303   60.8897 C   0  0  0  0  0  0  0  0  0  0  0  0
  -50.1773   57.7530   60.3543 C   0  0  0  0  0  0  0  0  0  0  0  0
  -29.6250   60.8364   62.5638 O   0  0  0  0  0  0  0  0  0  0  0  0
  -31.0204   61.1284   62.6826 C   0  0  0  0  0  0  0  0  0  0  0  0
  -29.1125   61.5076   63.0409 H   0  0  0  0  0  0  0  0  0  0  0  0
  -31.8447   60.1101   61.9561 C   0  0  0  0  0  0  0  0  0  0  0  0
  -32.4444   59.0795   62.5184 C   0  0  0  0  0  0  0  0  0  0  0  0
  -33.2728   58.0888   61.7681 C   0  0  0  0  0  0  0  0  0  0  0  0
  -34.4640   57.6203   62.6065 C   0  0  0  0  0  0  0  0  0  0  0  0
  -35.8160   58.0584   62.0674 C   0  0  0  0  0  0  0  0  0  0  0  0
  -36.9990   57.3272   62.6787 C   0  0  0  0  0  0  0  0  0  0  0  0
  -38.2991   57.4998   61.9069 C   0  0  0  0  0  0  0  0  0  0  0  0
  -38.1752   58.4146   60.6983 C   0  0  0  0  0  0  0  0  0  0  0  0
  -39.5098   58.8143   60.0941 C   0  0  0  0  0  0  0  0  0  0  0  0
  -40.6188   57.8040   60.3217 C   0  0  0  0  0  0  0  0  0  0  0  0
  -41.9224   58.4188   60.8017 C   0  0  0  0  0  0  0  0  0  0  0  0
  -41.9394   58.6821   62.2960 C   0  0  0  0  0  0  0  0  0  0  0  0
  -41.8096   60.1447   62.6756 C   0  0  0  0  0  0  0  0  0  0  0  0
  -42.2754   61.0761   61.5738 C   0  0  0  0  0  0  0  0  0  0  0  0
  -43.0172   62.2834   62.1092 C   0  0  0  0  0  0  0  0  0  0  0  0
  -30.7747   63.6129   63.0979 C   0  0  0  0  0  0  0  0  0  0  0  0
  -29.5882   64.1878   62.5391 O   0  0  0  0  0  0  0  0  0  0  0  0
  -29.5071   64.9595   59.8486 O   0  0  0  0  0  0  0  0  0  0  0  0
  -32.6946   67.2817   61.5718 O   0  0  0  0  0  0  0  0  0  0  0  0
  -30.5180   66.2181   63.1239 O   0  0  0  0  0  0  0  0  0  0  0  0
  -29.7138   65.5334   62.1816 C   0  0  0  0  0  0  0  0  0  0  0  0
  -30.3508   65.5967   60.7995 C   0  0  0  0  0  0  0  0  0  0  0  0
  -30.5878   67.0489   60.4046 C   0  0  0  0  0  0  0  0  0  0  0  0
  -31.3668   67.7882   61.4825 C   0  0  0  0  0  0  0  0  0  0  0  0
  -30.6683   67.6160   62.8290 C   0  0  0  0  0  0  0  0  0  0  0  0
  -29.3637   64.0367   60.1106 H   0  0  0  0  0  0  0  0  0  0  0  0
  -33.1402   67.3902   60.7171 H   0  0  0  0  0  0  0  0  0  0  0  0
  -32.4963   67.3799   64.4075 O   0  0  0  0  0  0  0  0  0  0  0  0
  -31.4353   68.2257   63.9790 C   0  0  0  0  0  0  0  0  0  0  0  0
  -32.9670   67.7997   65.1444 H   0  0  0  0  0  0  0  0  0  0  0  0
  -31.3929   66.9736   59.1857 O   0  0  0  0  0  0  0  0  0  0  0  0
  -31.1556   69.1468   58.1718 O   0  0  0  0  0  0  0  0  0  0  0  0
  -31.3307   67.0841   56.7470 O   0  0  0  0  0  0  0  0  0  0  0  0
  -29.3919   67.5569   58.0332 O   0  0  0  0  0  0  0  0  0  0  0  0
  -30.9079   67.7784   57.9048 S   0  0  0  0  0  0  0  0  0  0  0  0
  -32.1066   69.3235   58.0994 H   0  0  0  0  0  0  0  0  0  0  0  0
  -29.0630   68.0200   58.8195 H   0  0  0  0  0  0  0  0  0  0  0  0
  2  1  1  0  0  0
  2  4  1  0  0  0
  2  5  1  0  0  0
 47 48  1  0  0  0
 47  1  1  0  0  0
 48 52  1  0  0  0
  1 30  1  0  0  0
 29 30  1  0  0  0
 29 31  1  0  0  0
 30 32  1  0  0  0
  3  4  2  0  0  0
 32 33  2  0  0  0
 49 53  1  0  0  0
 49 57  1  0  0  0
 33 34  1  0  0  0
 62 54  1  0  0  0
 62 66  1  0  0  0
 34 35  1  0  0  0
 50 55  1  0  0  0
 50 58  1  0  0  0
 35 36  1  0  0  0
 51 52  1  0  0  0
 51 56  1  0  0  0
 36 37  1  0  0  0
 59 60  1  0  0  0
 59 61  1  0  0  0
 37 38  1  0  0  0
 63 66  1  0  0  0
 63 67  1  0  0  0
 38 39  1  0  0  0
 64 66  1  0  0  0
 39 40  1  0  0  0
 65 66  1  0  0  0
 65 68  1  0  0  0
 40 41  1  0  0  0
 41 42  1  0  0  0
 42 43  1  0  0  0
 43 44  1  0  0  0
 44 45  1  0  0  0
 45 46  1  0  0  0
  4  6  1  0  0  0
  6  7  1  0  0  0
  7  8  1  0  0  0
  8  9  1  0  0  0
  9 10  1  0  0  0
 10 11  1  0  0  0
 11 12  1  0  0  0
 12 13  1  0  0  0
 13 14  1  0  0  0
 14 15  1  0  0  0
 15 16  1  0  0  0
 16 17  1  0  0  0
 17 18  1  0  0  0
 18 19  1  0  0  0
 19 20  2  0  0  0
 20 21  1  0  0  0
 21 22  1  0  0  0
 22 23  1  0  0  0
 23 24  1  0  0  0
 24 25  1  0  0  0
 25 26  1  0  0  0
 26 27  1  0  0  0
 27 28  1  0  0  0
 52 53  1  0  0  0
 53 54  1  0  0  0
 54 55  1  0  0  0
 55 56  1  0  0  0
 56 60  1  0  0  0
M  CHG 1  64  -1
M  END
> <minimizedAffinity>
-9.06410

> <CNNscore>
0.2213895619

> <CNNaffinity>
6.7540273666

> <CNN_VS>
1.4952712059

> <CNNaffinity_variance>
1.7111272812

$$$$
/media/chris/experiments/cd1a-new-docking/inputs/ligands/7ryn_ligand.pdb


 68 68  0  0  0  0  0  0  0  0999 V2000
  -31.7362   62.5965   62.2906 C   0  0  0  0  0  0  0  0  0  0  0  0
  -31.0656   63.1785   63.4494 N   0  0  0  0  0  0  0  0  0  0  0  0
  -31.1398   64.0511   65.5232 O   0  0  0  0  0  0  0  0  0  0  0  0
  -31.7105   63.5510   64.5583 C   0  0  0  0  0  0  0  0  0  0  0  0
  -30.0897   63.3026   63.4117 H   0  0  0  0  0  0  0  0  0  0  0  0
  -33.2018   63.3249   64.5528 C   0  0  0  0  0  0  0  0  0  0  0  0
  -33.6832   62.5682   65.7842 C   0  0  0  0  0  0  0  0  0  0  0  0
  -34.6146   61.4175   65.4386 C   0  0  0  0  0  0  0  0  0  0  0  0
  -35.1995   61.4974   64.0383 C   0  0  0  0  0  0  0  0  0  0  0  0
  -36.7144   61.3648   63.9958 C   0  0  0  0  0  0  0  0  0  0  0  0
  -37.2832   60.4159   65.0430 C   0  0  0  0  0  0  0  0  0  0  0  0
  -38.6832   59.9092   64.7211 C   0  0  0  0  0  0  0  0  0  0  0  0
  -39.0219   58.5518   65.3318 C   0  0  0  0  0  0  0  0  0  0  0  0
  -40.5185   58.2491   65.3837 C   0  0  0  0  0  0  0  0  0  0  0  0
  -41.3847   59.4022   65.8902 C   0  0  0  0  0  0  0  0  0  0  0  0
  -42.6053   58.9423   66.6877 C   0  0  0  0  0  0  0  0  0  0  0  0
  -43.0833   57.5237   66.3786 C   0  0  0  0  0  0  0  0  0  0  0  0
  -43.8503   57.3739   65.0620 C   0  0  0  0  0  0  0  0  0  0  0  0
  -44.8359   58.4828   64.8318 C   0  0  0  0  0  0  0  0  0  0  0  0
  -46.0922   58.5051   65.2406 C   0  0  0  0  0  0  0  0  0  0  0  0
  -46.7852   57.4285   66.0194 C   0  0  0  0  0  0  0  0  0  0  0  0
  -48.3118   57.5026   65.9462 C   0  0  0  0  0  0  0  0  0  0  0  0
  -48.8263   58.8475   65.4502 C   0  0  0  0  0  0  0  0  0  0  0  0
  -50.3242   58.8548   65.1664 C   0  0  0  0  0  0  0  0  0  0  0  0
  -50.6860   58.8504   63.6856 C   0  0  0  0  0  0  0  0  0  0  0  0
  -49.4793   58.9093   62.7596 C   0  0  0  0  0  0  0  0  0  0  0  0
  -49.7506   59.5876   61.4261 C   0  0  0  0  0  0  0  0  0  0  0  0
  -49.5391   58.6660   60.2422 C   0  0  0  0  0  0  0  0  0  0  0  0
  -30.8070   61.0758   60.6601 O   0  0  0  0  0  0  0  0  0  0  0  0
  -31.1817   61.1856   62.0363 C   0  0  0  0  0  0  0  0  0  0  0  0
  -30.1623   61.7677   60.4443 H   0  0  0  0  0  0  0  0  0  0  0  0
  -32.1786   60.1304   62.4062 C   0  0  0  0  0  0  0  0  0  0  0  0
  -32.0882   59.3367   63.4549 C   0  0  0  0  0  0  0  0  0  0  0  0
  -33.1077   58.3030   63.8055 C   0  0  0  0  0  0  0  0  0  0  0  0
  -33.8257   57.7919   62.5547 C   0  0  0  0  0  0  0  0  0  0  0  0
  -35.0803   56.9836   62.8431 C   0  0  0  0  0  0  0  0  0  0  0  0
  -36.3713   57.7788   62.7491 C   0  0  0  0  0  0  0  0  0  0  0  0
  -36.7041   58.2544   61.3424 C   0  0  0  0  0  0  0  0  0  0  0  0
  -38.0579   58.9387   61.2333 C   0  0  0  0  0  0  0  0  0  0  0  0
  -39.2225   57.9733   61.1002 C   0  0  0  0  0  0  0  0  0  0  0  0
  -40.3743   58.5051   60.2678 C   0  0  0  0  0  0  0  0  0  0  0  0
  -41.7453   58.1807   60.8359 C   0  0  0  0  0  0  0  0  0  0  0  0
  -41.9923   58.8181   62.1906 C   0  0  0  0  0  0  0  0  0  0  0  0
  -41.5432   60.2631   62.2939 C   0  0  0  0  0  0  0  0  0  0  0  0
  -42.4409   61.2088   61.5203 C   0  0  0  0  0  0  0  0  0  0  0  0
  -42.9651   62.3426   62.3772 C   0  0  0  0  0  0  0  0  0  0  0  0
  -31.5686   63.4992   61.0858 C   0  0  0  0  0  0  0  0  0  0  0  0
  -32.6702   64.4135   61.0513 O   0  0  0  0  0  0  0  0  0  0  0  0
  -32.8177   66.5407   62.8663 O   0  0  0  0  0  0  0  0  0  0  0  0
  -29.1369   67.1643   60.7251 O   0  0  0  0  0  0  0  0  0  0  0  0
  -31.3438   65.6704   59.6408 O   0  0  0  0  0  0  0  0  0  0  0  0
  -32.3298   65.7103   60.6556 C   0  0  0  0  0  0  0  0  0  0  0  0
  -31.8009   66.4523   61.8762 C   0  0  0  0  0  0  0  0  0  0  0  0
  -31.3348   67.8456   61.4733 C   0  0  0  0  0  0  0  0  0  0  0  0
  -30.3531   67.7792   60.3126 C   0  0  0  0  0  0  0  0  0  0  0  0
  -30.9648   66.9734   59.1693 C   0  0  0  0  0  0  0  0  0  0  0  0
  -33.1059   65.6483   63.1143 H   0  0  0  0  0  0  0  0  0  0  0  0
  -28.7466   67.6748   61.4516 H   0  0  0  0  0  0  0  0  0  0  0  0
  -30.2452   65.5162   57.3672 O   0  0  0  0  0  0  0  0  0  0  0  0
  -30.0129   66.7614   58.0155 C   0  0  0  0  0  0  0  0  0  0  0  0
  -29.6192   65.4117   56.6337 H   0  0  0  0  0  0  0  0  0  0  0  0
  -30.6538   68.3646   62.6592 O   0  0  0  0  0  0  0  0  0  0  0  0
  -30.7513   70.7259   62.1881 O   0  0  0  0  0  0  0  0  0  0  0  0
  -30.6651   69.8983   64.5595 O   0  0  0  0  0  0  0  0  0  0  0  0
  -32.5978   69.6266   63.2076 O   0  0  0  0  0  0  0  0  0  0  0  0
  -31.0697   69.7963   63.2077 S   0  0  0  0  0  0  0  0  0  0  0  0
  -29.7907   70.8579   62.1594 H   0  0  0  0  0  0  0  0  0  0  0  0
  -32.9148   69.5529   62.2939 H   0  0  0  0  0  0  0  0  0  0  0  0
  2  1  1  0  0  0
  2  4  1  0  0  0
  2  5  1  0  0  0
 47 48  1  0  0  0
 47  1  1  0  0  0
 48 52  1  0  0  0
  1 30  1  0  0  0
 29 30  1  0  0  0
 29 31  1  0  0  0
 30 32  1  0  0  0
  3  4  2  0  0  0
 32 33  2  0  0  0
 49 53  1  0  0  0
 49 57  1  0  0  0
 33 34  1  0  0  0
 62 54  1  0  0  0
 62 66  1  0  0  0
 34 35  1  0  0  0
 50 55  1  0  0  0
 50 58  1  0  0  0
 35 36  1  0  0  0
 51 52  1  0  0  0
 51 56  1  0  0  0
 36 37  1  0  0  0
 59 60  1  0  0  0
 59 61  1  0  0  0
 37 38  1  0  0  0
 63 66  1  0  0  0
 63 67  1  0  0  0
 38 39  1  0  0  0
 64 66  1  0  0  0
 39 40  1  0  0  0
 65 66  1  0  0  0
 65 68  1  0  0  0
 40 41  1  0  0  0
 41 42  1  0  0  0
 42 43  1  0  0  0
 43 44  1  0  0  0
 44 45  1  0  0  0
 45 46  1  0  0  0
  4  6  1  0  0  0
  6  7  1  0  0  0
  7  8  1  0  0  0
  8  9  1  0  0  0
  9 10  1  0  0  0
 10 11  1  0  0  0
 11 12  1  0  0  0
 12 13  1  0  0  0
 13 14  1  0  0  0
 14 15  1  0  0  0
 15 16  1  0  0  0
 16 17  1  0  0  0
 17 18  1  0  0  0
 18 19  1  0  0  0
 19 20  2  0  0  0
 20 21  1  0  0  0
 21 22  1  0  0  0
 22 23  1  0  0  0
 23 24  1  0  0  0
 24 25  1  0  0  0
 25 26  1  0  0  0
 26 27  1  0  0  0
 27 28  1  0  0  0
 52 53  1  0  0  0
 53 54  1  0  0  0
 54 55  1  0  0  0
 55 56  1  0  0  0
 56 60  1  0  0  0
M  CHG 1  64  -1
M  END
> <minimizedAffinity>
-8.97021

> <CNNscore>
0.1630389094

> <CNNaffinity>
6.6546707153

> <CNN_VS>
1.0849702358

> <CNNaffinity_variance>
1.8530403376

$$$$
/media/chris/experiments/cd1a-new-docking/inputs/ligands/7ryn_ligand.pdb


 68 68  0  0  0  0  0  0  0  0999 V2000
  -36.7084   58.4293   62.9807 C   0  0  0  0  0  0  0  0  0  0  0  0
  -36.6764   59.7933   63.5001 N   0  0  0  0  0  0  0  0  0  0  0  0
  -37.4961   61.3951   64.8530 O   0  0  0  0  0  0  0  0  0  0  0  0
  -37.5224   60.2426   64.4310 C   0  0  0  0  0  0  0  0  0  0  0  0
  -35.9976   60.4126   63.1467 H   0  0  0  0  0  0  0  0  0  0  0  0
  -38.5303   59.2399   64.9351 C   0  0  0  0  0  0  0  0  0  0  0  0
  -39.2539   59.7171   66.1878 C   0  0  0  0  0  0  0  0  0  0  0  0
  -40.5632   60.4238   65.8756 C   0  0  0  0  0  0  0  0  0  0  0  0
  -41.7973   59.6663   66.3365 C   0  0  0  0  0  0  0  0  0  0  0  0
  -41.7264   58.1666   66.0904 C   0  0  0  0  0  0  0  0  0  0  0  0
  -43.0306   57.4305   66.3693 C   0  0  0  0  0  0  0  0  0  0  0  0
  -43.9518   57.3278   65.1605 C   0  0  0  0  0  0  0  0  0  0  0  0
  -45.1678   58.2494   65.2103 C   0  0  0  0  0  0  0  0  0  0  0  0
  -45.5676   58.6759   66.6218 C   0  0  0  0  0  0  0  0  0  0  0  0
  -46.6286   57.7925   67.2779 C   0  0  0  0  0  0  0  0  0  0  0  0
  -47.5357   57.0819   66.2731 C   0  0  0  0  0  0  0  0  0  0  0  0
  -48.8484   57.8017   65.9645 C   0  0  0  0  0  0  0  0  0  0  0  0
  -48.8678   59.2900   66.3230 C   0  0  0  0  0  0  0  0  0  0  0  0
  -48.5978   60.1779   65.1428 C   0  0  0  0  0  0  0  0  0  0  0  0
  -49.4369   60.4373   64.1557 C   0  0  0  0  0  0  0  0  0  0  0  0
  -50.8288   59.8995   64.0173 C   0  0  0  0  0  0  0  0  0  0  0  0
  -51.0026   58.9401   62.8381 C   0  0  0  0  0  0  0  0  0  0  0  0
  -49.6813   58.4497   62.2609 C   0  0  0  0  0  0  0  0  0  0  0  0
  -49.4859   58.8220   60.7955 C   0  0  0  0  0  0  0  0  0  0  0  0
  -50.0840   57.8280   59.8066 C   0  0  0  0  0  0  0  0  0  0  0  0
  -49.0694   57.2481   58.8311 C   0  0  0  0  0  0  0  0  0  0  0  0
  -47.9285   58.1919   58.4855 C   0  0  0  0  0  0  0  0  0  0  0  0
  -47.2111   57.8063   57.2079 C   0  0  0  0  0  0  0  0  0  0  0  0
  -36.1040   57.0085   64.8383 O   0  0  0  0  0  0  0  0  0  0  0  0
  -35.5925   57.6055   63.6432 C   0  0  0  0  0  0  0  0  0  0  0  0
  -36.8804   56.4682   64.6232 H   0  0  0  0  0  0  0  0  0  0  0  0
  -34.3901   58.4491   63.9378 C   0  0  0  0  0  0  0  0  0  0  0  0
  -33.4295   58.7259   63.0785 C   0  0  0  0  0  0  0  0  0  0  0  0
  -32.2495   59.5838   63.3985 C   0  0  0  0  0  0  0  0  0  0  0  0
  -31.5683   60.0810   62.1219 C   0  0  0  0  0  0  0  0  0  0  0  0
  -31.6411   61.5862   61.9226 C   0  0  0  0  0  0  0  0  0  0  0  0
  -30.2998   62.2461   61.6517 C   0  0  0  0  0  0  0  0  0  0  0  0
  -30.1275   63.5981   62.3285 C   0  0  0  0  0  0  0  0  0  0  0  0
  -29.8050   63.5021   63.8117 C   0  0  0  0  0  0  0  0  0  0  0  0
  -31.0283   63.5667   64.7092 C   0  0  0  0  0  0  0  0  0  0  0  0
  -31.3711   64.9654   65.1872 C   0  0  0  0  0  0  0  0  0  0  0  0
  -32.8331   65.3364   65.0065 C   0  0  0  0  0  0  0  0  0  0  0  0
  -33.3563   65.0271   63.6161 C   0  0  0  0  0  0  0  0  0  0  0  0
  -32.8963   65.9961   62.5439 C   0  0  0  0  0  0  0  0  0  0  0  0
  -34.0269   66.8537   62.0099 C   0  0  0  0  0  0  0  0  0  0  0  0
  -35.3298   66.0899   61.8942 C   0  0  0  0  0  0  0  0  0  0  0  0
  -36.5838   58.4452   61.4712 C   0  0  0  0  0  0  0  0  0  0  0  0
  -37.8386   58.0414   60.9114 O   0  0  0  0  0  0  0  0  0  0  0  0
  -39.1356   60.4716   61.4145 O   0  0  0  0  0  0  0  0  0  0  0  0
  -42.3019   57.5786   61.0586 O   0  0  0  0  0  0  0  0  0  0  0  0
  -39.6156   56.8734   61.8095 O   0  0  0  0  0  0  0  0  0  0  0  0
  -38.9131   58.1021   61.8035 C   0  0  0  0  0  0  0  0  0  0  0  0
  -39.8318   59.2329   61.3591 C   0  0  0  0  0  0  0  0  0  0  0  0
  -41.0644   59.2804   62.2532 C   0  0  0  0  0  0  0  0  0  0  0  0
  -41.7420   57.9197   62.3225 C   0  0  0  0  0  0  0  0  0  0  0  0
  -40.7213   56.8587   62.7264 C   0  0  0  0  0  0  0  0  0  0  0  0
  -38.3538   60.4290   60.8419 H   0  0  0  0  0  0  0  0  0  0  0  0
  -42.9508   58.2516   60.8001 H   0  0  0  0  0  0  0  0  0  0  0  0
  -41.6508   55.0258   64.0170 O   0  0  0  0  0  0  0  0  0  0  0  0
  -41.2837   55.4566   62.7114 C   0  0  0  0  0  0  0  0  0  0  0  0
  -42.0068   54.1247   63.9720 H   0  0  0  0  0  0  0  0  0  0  0  0
  -41.9574   60.2375   61.6007 O   0  0  0  0  0  0  0  0  0  0  0  0
  -43.0719   62.3710   61.4851 O   0  0  0  0  0  0  0  0  0  0  0  0
  -41.3476   61.9243   63.2579 O   0  0  0  0  0  0  0  0  0  0  0  0
  -43.4867   60.8954   63.3038 O   0  0  0  0  0  0  0  0  0  0  0  0
  -42.4082   61.5284   62.4095 S   0  0  0  0  0  0  0  0  0  0  0  0
  -42.4190   62.7890   60.9020 H   0  0  0  0  0  0  0  0  0  0  0  0
  -44.2343   60.6098   62.7558 H   0  0  0  0  0  0  0  0  0  0  0  0
  2  1  1  0  0  0
  2  4  1  0  0  0
  2  5  1  0  0  0
 47 48  1  0  0  0
 47  1  1  0  0  0
 48 52  1  0  0  0
  1 30  1  0  0  0
 29 30  1  0  0  0
 29 31  1  0  0  0
 30 32  1  0  0  0
  3  4  2  0  0  0
 32 33  2  0  0  0
 49 53  1  0  0  0
 49 57  1  0  0  0
 33 34  1  0  0  0
 62 54  1  0  0  0
 62 66  1  0  0  0
 34 35  1  0  0  0
 50 55  1  0  0  0
 50 58  1  0  0  0
 35 36  1  0  0  0
 51 52  1  0  0  0
 51 56  1  0  0  0
 36 37  1  0  0  0
 59 60  1  0  0  0
 59 61  1  0  0  0
 37 38  1  0  0  0
 63 66  1  0  0  0
 63 67  1  0  0  0
 38 39  1  0  0  0
 64 66  1  0  0  0
 39 40  1  0  0  0
 65 66  1  0  0  0
 65 68  1  0  0  0
 40 41  1  0  0  0
 41 42  1  0  0  0
 42 43  1  0  0  0
 43 44  1  0  0  0
 44 45  1  0  0  0
 45 46  1  0  0  0
  4  6  1  0  0  0
  6  7  1  0  0  0
  7  8  1  0  0  0
  8  9  1  0  0  0
  9 10  1  0  0  0
 10 11  1  0  0  0
 11 12  1  0  0  0
 12 13  1  0  0  0
 13 14  1  0  0  0
 14 15  1  0  0  0
 15 16  1  0  0  0
 16 17  1  0  0  0
 17 18  1  0  0  0
 18 19  1  0  0  0
 19 20  2  0  0  0
 20 21  1  0  0  0
 21 22  1  0  0  0
 22 23  1  0  0  0
 23 24  1  0  0  0
 24 25  1  0  0  0
 25 26  1  0  0  0
 26 27  1  0  0  0
 27 28  1  0  0  0
 52 53  1  0  0  0
 53 54  1  0  0  0
 54 55  1  0  0  0
 55 56  1  0  0  0
 56 60  1  0  0  0
M  CHG 1  64  -1
M  END
> <minimizedAffinity>
-9.04639

> <CNNscore>
0.1602814198

> <CNNaffinity>
7.0624971390

> <CNN_VS>
1.1319870949

> <CNNaffinity_variance>
1.8749603033

$$$$
/media/chris/experiments/cd1a-new-docking/inputs/ligands/7ryn_ligand.pdb


 68 68  0  0  0  0  0  0  0  0999 V2000
  -40.2436   58.9833   64.7905 C   0  0  0  0  0  0  0  0  0  0  0  0
  -41.0246   60.2066   64.6323 N   0  0  0  0  0  0  0  0  0  0  0  0
  -42.3008   61.5680   63.3731 O   0  0  0  0  0  0  0  0  0  0  0  0
  -41.6566   60.5309   63.5011 C   0  0  0  0  0  0  0  0  0  0  0  0
  -41.0884   60.8230   65.3972 H   0  0  0  0  0  0  0  0  0  0  0  0
  -41.5249   59.5387   62.3727 C   0  0  0  0  0  0  0  0  0  0  0  0
  -41.5045   60.2083   61.0045 C   0  0  0  0  0  0  0  0  0  0  0  0
  -40.1497   60.1075   60.3222 C   0  0  0  0  0  0  0  0  0  0  0  0
  -39.7158   58.6825   60.0216 C   0  0  0  0  0  0  0  0  0  0  0  0
  -38.3859   58.2981   60.6527 C   0  0  0  0  0  0  0  0  0  0  0  0
  -38.5178   57.4111   61.8841 C   0  0  0  0  0  0  0  0  0  0  0  0
  -37.2818   57.4039   62.7745 C   0  0  0  0  0  0  0  0  0  0  0  0
  -35.9904   57.8108   62.0693 C   0  0  0  0  0  0  0  0  0  0  0  0
  -34.7240   57.5144   62.8708 C   0  0  0  0  0  0  0  0  0  0  0  0
  -34.8059   57.8844   64.3516 C   0  0  0  0  0  0  0  0  0  0  0  0
  -33.7711   58.9264   64.7771 C   0  0  0  0  0  0  0  0  0  0  0  0
  -33.3140   59.8746   63.6686 C   0  0  0  0  0  0  0  0  0  0  0  0
  -31.9710   59.5166   63.0267 C   0  0  0  0  0  0  0  0  0  0  0  0
  -31.7858   60.1416   61.6743 C   0  0  0  0  0  0  0  0  0  0  0  0
  -30.7850   60.9226   61.3080 C   0  0  0  0  0  0  0  0  0  0  0  0
  -29.6312   61.3395   62.1687 C   0  0  0  0  0  0  0  0  0  0  0  0
  -29.9315   62.5499   63.0553 C   0  0  0  0  0  0  0  0  0  0  0  0
  -29.5158   63.8738   62.4278 C   0  0  0  0  0  0  0  0  0  0  0  0
  -29.1545   64.9424   63.4535 C   0  0  0  0  0  0  0  0  0  0  0  0
  -30.0564   66.1710   63.4294 C   0  0  0  0  0  0  0  0  0  0  0  0
  -31.3469   65.9996   64.2184 C   0  0  0  0  0  0  0  0  0  0  0  0
  -31.2059   65.1369   65.4623 C   0  0  0  0  0  0  0  0  0  0  0  0
  -32.1624   63.9618   65.4762 C   0  0  0  0  0  0  0  0  0  0  0  0
  -41.4052   56.8665   64.7199 O   0  0  0  0  0  0  0  0  0  0  0  0
  -41.0642   57.9541   65.5844 C   0  0  0  0  0  0  0  0  0  0  0  0
  -40.5955   56.4824   64.3487 H   0  0  0  0  0  0  0  0  0  0  0  0
  -42.2929   58.5730   66.1772 C   0  0  0  0  0  0  0  0  0  0  0  0
  -43.5098   58.0732   66.0919 C   0  0  0  0  0  0  0  0  0  0  0  0
  -44.7139   58.7072   66.7075 C   0  0  0  0  0  0  0  0  0  0  0  0
  -45.8992   57.7397   66.7204 C   0  0  0  0  0  0  0  0  0  0  0  0
  -47.1799   58.3155   66.1383 C   0  0  0  0  0  0  0  0  0  0  0  0
  -46.9879   59.0774   64.8381 C   0  0  0  0  0  0  0  0  0  0  0  0
  -48.2708   59.6680   64.2717 C   0  0  0  0  0  0  0  0  0  0  0  0
  -49.5035   58.8171   64.5355 C   0  0  0  0  0  0  0  0  0  0  0  0
  -50.7957   59.4417   64.0391 C   0  0  0  0  0  0  0  0  0  0  0  0
  -50.9805   59.3667   62.5349 C   0  0  0  0  0  0  0  0  0  0  0  0
  -51.1356   57.9520   62.0036 C   0  0  0  0  0  0  0  0  0  0  0  0
  -50.5383   57.7687   60.6208 C   0  0  0  0  0  0  0  0  0  0  0  0
  -49.0262   57.8761   60.5725 C   0  0  0  0  0  0  0  0  0  0  0  0
  -48.4833   57.8230   59.1579 C   0  0  0  0  0  0  0  0  0  0  0  0
  -47.4423   56.7378   58.9761 C   0  0  0  0  0  0  0  0  0  0  0  0
  -38.9208   59.2943   65.4597 C   0  0  0  0  0  0  0  0  0  0  0  0
  -38.7855   60.7170   65.5504 O   0  0  0  0  0  0  0  0  0  0  0  0
  -37.5910   60.8539   63.0215 O   0  0  0  0  0  0  0  0  0  0  0  0
  -36.4522   64.5108   64.9842 O   0  0  0  0  0  0  0  0  0  0  0  0
  -37.1754   62.1245   66.4195 O   0  0  0  0  0  0  0  0  0  0  0  0
  -37.4745   61.1808   65.4079 C   0  0  0  0  0  0  0  0  0  0  0  0
  -37.3486   61.8238   64.0327 C   0  0  0  0  0  0  0  0  0  0  0  0
  -35.9576   62.4225   63.8665 C   0  0  0  0  0  0  0  0  0  0  0  0
  -35.6221   63.3545   65.0215 C   0  0  0  0  0  0  0  0  0  0  0  0
  -35.8308   62.6248   66.3462 C   0  0  0  0  0  0  0  0  0  0  0  0
  -38.4786   60.4803   63.1379 H   0  0  0  0  0  0  0  0  0  0  0  0
  -36.3210   64.9759   64.1431 H   0  0  0  0  0  0  0  0  0  0  0  0
  -36.4493   63.1099   68.6421 O   0  0  0  0  0  0  0  0  0  0  0  0
  -35.6277   63.5120   67.5521 C   0  0  0  0  0  0  0  0  0  0  0  0
  -36.2950   63.6983   69.3976 H   0  0  0  0  0  0  0  0  0  0  0  0
  -36.0325   63.1918   62.6248 O   0  0  0  0  0  0  0  0  0  0  0  0
  -33.6630   63.0563   62.2076 O   0  0  0  0  0  0  0  0  0  0  0  0
  -34.7472   65.2663   62.7137 O   0  0  0  0  0  0  0  0  0  0  0  0
  -35.0970   64.1427   60.6517 O   0  0  0  0  0  0  0  0  0  0  0  0
  -34.7388   63.9744   62.1373 S   0  0  0  0  0  0  0  0  0  0  0  0
  -33.4095   62.9255   63.1347 H   0  0  0  0  0  0  0  0  0  0  0  0
  -35.1015   63.2742   60.2198 H   0  0  0  0  0  0  0  0  0  0  0  0
  2  1  1  0  0  0
  2  4  1  0  0  0
  2  5  1  0  0  0
 47 48  1  0  0  0
 47  1  1  0  0  0
 48 52  1  0  0  0
  1 30  1  0  0  0
 29 30  1  0  0  0
 29 31  1  0  0  0
 30 32  1  0  0  0
  3  4  2  0  0  0
 32 33  2  0  0  0
 49 53  1  0  0  0
 49 57  1  0  0  0
 33 34  1  0  0  0
 62 54  1  0  0  0
 62 66  1  0  0  0
 34 35  1  0  0  0
 50 55  1  0  0  0
 50 58  1  0  0  0
 35 36  1  0  0  0
 51 52  1  0  0  0
 51 56  1  0  0  0
 36 37  1  0  0  0
 59 60  1  0  0  0
 59 61  1  0  0  0
 37 38  1  0  0  0
 63 66  1  0  0  0
 63 67  1  0  0  0
 38 39  1  0  0  0
 64 66  1  0  0  0
 39 40  1  0  0  0
 65 66  1  0  0  0
 65 68  1  0  0  0
 40 41  1  0  0  0
 41 42  1  0  0  0
 42 43  1  0  0  0
 43 44  1  0  0  0
 44 45  1  0  0  0
 45 46  1  0  0  0
  4  6  1  0  0  0
  6  7  1  0  0  0
  7  8  1  0  0  0
  8  9  1  0  0  0
  9 10  1  0  0  0
 10 11  1  0  0  0
 11 12  1  0  0  0
 12 13  1  0  0  0
 13 14  1  0  0  0
 14 15  1  0  0  0
 15 16  1  0  0  0
 16 17  1  0  0  0
 17 18  1  0  0  0
 18 19  1  0  0  0
 19 20  2  0  0  0
 20 21  1  0  0  0
 21 22  1  0  0  0
 22 23  1  0  0  0
 23 24  1  0  0  0
 24 25  1  0  0  0
 25 26  1  0  0  0
 26 27  1  0  0  0
 27 28  1  0  0  0
 52 53  1  0  0  0
 53 54  1  0  0  0
 54 55  1  0  0  0
 55 56  1  0  0  0
 56 60  1  0  0  0
M  CHG 1  64  -1
M  END
> <minimizedAffinity>
-9.42936

> <CNNscore>
0.1599265039

> <CNNaffinity>
7.1026167870

> <CNN_VS>
1.1358966827

> <CNNaffinity_variance>
2.1067044735

$$$$
/media/chris/experiments/cd1a-new-docking/inputs/ligands/7ryn_ligand.pdb


 68 68  0  0  0  0  0  0  0  0999 V2000
  -31.4368   62.8823   62.1581 C   0  0  0  0  0  0  0  0  0  0  0  0
  -32.8434   63.0614   61.8107 N   0  0  0  0  0  0  0  0  0  0  0  0
  -34.9730   63.4764   62.4109 O   0  0  0  0  0  0  0  0  0  0  0  0
  -33.7904   63.3398   62.7106 C   0  0  0  0  0  0  0  0  0  0  0  0
  -33.1070   62.9725   60.8663 H   0  0  0  0  0  0  0  0  0  0  0  0
  -33.3168   63.4711   64.1366 C   0  0  0  0  0  0  0  0  0  0  0  0
  -34.4650   63.4583   65.1377 C   0  0  0  0  0  0  0  0  0  0  0  0
  -34.3592   62.3176   66.1371 C   0  0  0  0  0  0  0  0  0  0  0  0
  -34.5025   60.9384   65.5153 C   0  0  0  0  0  0  0  0  0  0  0  0
  -35.7488   60.7765   64.6580 C   0  0  0  0  0  0  0  0  0  0  0  0
  -37.0544   60.9482   65.4238 C   0  0  0  0  0  0  0  0  0  0  0  0
  -38.2203   60.1604   64.8401 C   0  0  0  0  0  0  0  0  0  0  0  0
  -39.0573   59.4090   65.8722 C   0  0  0  0  0  0  0  0  0  0  0  0
  -40.5395   59.3072   65.5160 C   0  0  0  0  0  0  0  0  0  0  0  0
  -41.4597   60.1889   66.3599 C   0  0  0  0  0  0  0  0  0  0  0  0
  -42.6347   59.4290   66.9757 C   0  0  0  0  0  0  0  0  0  0  0  0
  -42.9760   58.1034   66.2953 C   0  0  0  0  0  0  0  0  0  0  0  0
  -44.4734   57.8155   66.1580 C   0  0  0  0  0  0  0  0  0  0  0  0
  -45.0384   58.2780   64.8461 C   0  0  0  0  0  0  0  0  0  0  0  0
  -46.2381   58.7978   64.6551 C   0  0  0  0  0  0  0  0  0  0  0  0
  -47.2754   59.0332   65.7108 C   0  0  0  0  0  0  0  0  0  0  0  0
  -48.2549   57.8700   65.8801 C   0  0  0  0  0  0  0  0  0  0  0  0
  -49.7054   58.2636   65.6337 C   0  0  0  0  0  0  0  0  0  0  0  0
  -49.8845   59.1990   64.4433 C   0  0  0  0  0  0  0  0  0  0  0  0
  -49.7362   58.5259   63.0837 C   0  0  0  0  0  0  0  0  0  0  0  0
  -51.0550   58.3320   62.3486 C   0  0  0  0  0  0  0  0  0  0  0  0
  -50.9139   57.6973   60.9742 C   0  0  0  0  0  0  0  0  0  0  0  0
  -49.7609   56.7176   60.8930 C   0  0  0  0  0  0  0  0  0  0  0  0
  -30.7763   61.1050   60.6615 O   0  0  0  0  0  0  0  0  0  0  0  0
  -31.0661   61.3959   62.0318 C   0  0  0  0  0  0  0  0  0  0  0  0
  -30.0661   61.6879   60.3504 H   0  0  0  0  0  0  0  0  0  0  0  0
  -32.1608   60.5126   62.5472 C   0  0  0  0  0  0  0  0  0  0  0  0
  -32.0129   59.2522   62.9041 C   0  0  0  0  0  0  0  0  0  0  0  0
  -33.1224   58.4012   63.4291 C   0  0  0  0  0  0  0  0  0  0  0  0
  -33.8993   57.7436   62.2867 C   0  0  0  0  0  0  0  0  0  0  0  0
  -35.3687   58.1284   62.2300 C   0  0  0  0  0  0  0  0  0  0  0  0
  -36.2950   57.1658   62.9533 C   0  0  0  0  0  0  0  0  0  0  0  0
  -37.7731   57.4882   62.7890 C   0  0  0  0  0  0  0  0  0  0  0  0
  -38.1423   57.9681   61.3939 C   0  0  0  0  0  0  0  0  0  0  0  0
  -39.6324   57.9208   61.1050 C   0  0  0  0  0  0  0  0  0  0  0  0
  -40.4388   57.1585   62.1399 C   0  0  0  0  0  0  0  0  0  0  0  0
  -41.8005   57.7667   62.4291 C   0  0  0  0  0  0  0  0  0  0  0  0
  -41.9380   59.1868   61.9123 C   0  0  0  0  0  0  0  0  0  0  0  0
  -42.7033   60.1172   62.8336 C   0  0  0  0  0  0  0  0  0  0  0  0
  -42.1760   61.5382   62.7956 C   0  0  0  0  0  0  0  0  0  0  0  0
  -43.0668   62.4666   61.9963 C   0  0  0  0  0  0  0  0  0  0  0  0
  -31.1733   63.4179   63.5502 C   0  0  0  0  0  0  0  0  0  0  0  0
  -29.9786   64.2064   63.5108 O   0  0  0  0  0  0  0  0  0  0  0  0
  -27.8375   65.9907   63.2396 O   0  0  0  0  0  0  0  0  0  0  0  0
  -30.9422   67.5956   60.7282 O   0  0  0  0  0  0  0  0  0  0  0  0
  -31.4776   65.8776   62.9730 O   0  0  0  0  0  0  0  0  0  0  0  0
  -30.1997   65.5867   63.5079 C   0  0  0  0  0  0  0  0  0  0  0  0
  -29.1131   66.2368   62.6612 C   0  0  0  0  0  0  0  0  0  0  0  0
  -29.3647   67.7357   62.5576 C   0  0  0  0  0  0  0  0  0  0  0  0
  -30.7803   68.0204   62.0776 C   0  0  0  0  0  0  0  0  0  0  0  0
  -31.7803   67.2818   62.9637 C   0  0  0  0  0  0  0  0  0  0  0  0
  -27.6891   65.0340   63.3003 H   0  0  0  0  0  0  0  0  0  0  0  0
  -30.3076   68.0638   60.1635 H   0  0  0  0  0  0  0  0  0  0  0  0
  -33.4475   66.6469   61.3187 O   0  0  0  0  0  0  0  0  0  0  0  0
  -33.2084   67.4184   62.4902 C   0  0  0  0  0  0  0  0  0  0  0  0
  -34.3707   66.7567   61.0420 H   0  0  0  0  0  0  0  0  0  0  0  0
  -28.4066   68.2027   61.5559 O   0  0  0  0  0  0  0  0  0  0  0  0
  -27.6614   70.4842   61.7719 O   0  0  0  0  0  0  0  0  0  0  0  0
  -25.9988   68.6088   61.5871 O   0  0  0  0  0  0  0  0  0  0  0  0
  -27.3097   68.9325   63.5399 O   0  0  0  0  0  0  0  0  0  0  0  0
  -27.2272   69.1597   62.0216 S   0  0  0  0  0  0  0  0  0  0  0  0
  -27.6224   70.6632   60.8194 H   0  0  0  0  0  0  0  0  0  0  0  0
  -28.1424   69.2984   63.8768 H   0  0  0  0  0  0  0  0  0  0  0  0
  2  1  1  0  0  0
  2  4  1  0  0  0
  2  5  1  0  0  0
 47 48  1  0  0  0
 47  1  1  0  0  0
 48 52  1  0  0  0
  1 30  1  0  0  0
 29 30  1  0  0  0
 29 31  1  0  0  0
 30 32  1  0  0  0
  3  4  2  0  0  0
 32 33  2  0  0  0
 49 53  1  0  0  0
 49 57  1  0  0  0
 33 34  1  0  0  0
 62 54  1  0  0  0
 62 66  1  0  0  0
 34 35  1  0  0  0
 50 55  1  0  0  0
 50 58  1  0  0  0
 35 36  1  0  0  0
 51 52  1  0  0  0
 51 56  1  0  0  0
 36 37  1  0  0  0
 59 60  1  0  0  0
 59 61  1  0  0  0
 37 38  1  0  0  0
 63 66  1  0  0  0
 63 67  1  0  0  0
 38 39  1  0  0  0
 64 66  1  0  0  0
 39 40  1  0  0  0
 65 66  1  0  0  0
 65 68  1  0  0  0
 40 41  1  0  0  0
 41 42  1  0  0  0
 42 43  1  0  0  0
 43 44  1  0  0  0
 44 45  1  0  0  0
 45 46  1  0  0  0
  4  6  1  0  0  0
  6  7  1  0  0  0
  7  8  1  0  0  0
  8  9  1  0  0  0
  9 10  1  0  0  0
 10 11  1  0  0  0
 11 12  1  0  0  0
 12 13  1  0  0  0
 13 14  1  0  0  0
 14 15  1  0  0  0
 15 16  1  0  0  0
 16 17  1  0  0  0
 17 18  1  0  0  0
 18 19  1  0  0  0
 19 20  2  0  0  0
 20 21  1  0  0  0
 21 22  1  0  0  0
 22 23  1  0  0  0
 23 24  1  0  0  0
 24 25  1  0  0  0
 25 26  1  0  0  0
 26 27  1  0  0  0
 27 28  1  0  0  0
 52 53  1  0  0  0
 53 54  1  0  0  0
 54 55  1  0  0  0
 55 56  1  0  0  0
 56 60  1  0  0  0
M  CHG 1  64  -1
M  END
> <minimizedAffinity>
-9.07376

> <CNNscore>
0.1516998261

> <CNNaffinity>
6.5722856522

> <CNN_VS>
0.9970145822

> <CNNaffinity_variance>
2.1509156227

$$$$
/media/chris/experiments/cd1a-new-docking/inputs/ligands/7ryn_ligand.pdb


 68 68  0  0  0  0  0  0  0  0999 V2000
  -34.1234   63.6075   64.7766 C   0  0  0  0  0  0  0  0  0  0  0  0
  -35.4464   63.3577   65.3411 N   0  0  0  0  0  0  0  0  0  0  0  0
  -37.0274   61.9324   66.0737 O   0  0  0  0  0  0  0  0  0  0  0  0
  -35.9085   62.1337   65.6106 C   0  0  0  0  0  0  0  0  0  0  0  0
  -36.0266   64.1295   65.5326 H   0  0  0  0  0  0  0  0  0  0  0  0
  -34.9655   60.9977   65.3017 C   0  0  0  0  0  0  0  0  0  0  0  0
  -35.5456   60.0137   64.2938 C   0  0  0  0  0  0  0  0  0  0  0  0
  -35.2400   58.5663   64.6444 C   0  0  0  0  0  0  0  0  0  0  0  0
  -35.0156   57.6736   63.4353 C   0  0  0  0  0  0  0  0  0  0  0  0
  -35.5198   58.2686   62.1291 C   0  0  0  0  0  0  0  0  0  0  0  0
  -36.9305   57.8333   61.7536 C   0  0  0  0  0  0  0  0  0  0  0  0
  -37.8637   58.9892   61.4165 C   0  0  0  0  0  0  0  0  0  0  0  0
  -38.3689   58.9965   59.9760 C   0  0  0  0  0  0  0  0  0  0  0  0
  -39.8821   58.8292   59.8468 C   0  0  0  0  0  0  0  0  0  0  0  0
  -40.7050   59.9011   60.5612 C   0  0  0  0  0  0  0  0  0  0  0  0
  -41.8553   59.3324   61.3924 C   0  0  0  0  0  0  0  0  0  0  0  0
  -41.8217   57.8173   61.5926 C   0  0  0  0  0  0  0  0  0  0  0  0
  -42.3553   57.3332   62.9435 C   0  0  0  0  0  0  0  0  0  0  0  0
  -43.4931   58.1687   63.4546 C   0  0  0  0  0  0  0  0  0  0  0  0
  -43.9732   58.1608   64.6856 C   0  0  0  0  0  0  0  0  0  0  0  0
  -43.4759   57.3179   65.8205 C   0  0  0  0  0  0  0  0  0  0  0  0
  -42.3769   57.9876   66.6481 C   0  0  0  0  0  0  0  0  0  0  0  0
  -42.5794   59.4876   66.8164 C   0  0  0  0  0  0  0  0  0  0  0  0
  -41.3601   60.3112   66.4171 C   0  0  0  0  0  0  0  0  0  0  0  0
  -41.0849   60.3453   64.9181 C   0  0  0  0  0  0  0  0  0  0  0  0
  -39.6211   60.1320   64.5587 C   0  0  0  0  0  0  0  0  0  0  0  0
  -38.9462   59.0130   65.3358 C   0  0  0  0  0  0  0  0  0  0  0  0
  -39.1540   57.6502   64.7069 C   0  0  0  0  0  0  0  0  0  0  0  0
  -33.7903   64.4114   67.0299 O   0  0  0  0  0  0  0  0  0  0  0  0
  -33.1145   63.8191   65.9168 C   0  0  0  0  0  0  0  0  0  0  0  0
  -34.5317   63.8456   67.2965 H   0  0  0  0  0  0  0  0  0  0  0  0
  -31.9609   64.6676   65.4770 C   0  0  0  0  0  0  0  0  0  0  0  0
  -31.6118   65.8149   66.0245 C   0  0  0  0  0  0  0  0  0  0  0  0
  -30.4456   66.6311   65.5723 C   0  0  0  0  0  0  0  0  0  0  0  0
  -30.7136   67.2630   64.2048 C   0  0  0  0  0  0  0  0  0  0  0  0
  -30.5680   68.7758   64.1782 C   0  0  0  0  0  0  0  0  0  0  0  0
  -29.2002   69.2641   63.7327 C   0  0  0  0  0  0  0  0  0  0  0  0
  -28.6024   70.3357   64.6327 C   0  0  0  0  0  0  0  0  0  0  0  0
  -29.2402   70.4007   66.0119 C   0  0  0  0  0  0  0  0  0  0  0  0
  -28.4965   71.2948   66.9884 C   0  0  0  0  0  0  0  0  0  0  0  0
  -27.0872   71.6492   66.5519 C   0  0  0  0  0  0  0  0  0  0  0  0
  -26.0117   70.7777   67.1779 C   0  0  0  0  0  0  0  0  0  0  0  0
  -24.7113   70.7868   66.3960 C   0  0  0  0  0  0  0  0  0  0  0  0
  -24.8818   70.9601   64.8990 C   0  0  0  0  0  0  0  0  0  0  0  0
  -24.4669   69.7281   64.1188 C   0  0  0  0  0  0  0  0  0  0  0  0
  -25.4207   69.4099   62.9860 C   0  0  0  0  0  0  0  0  0  0  0  0
  -34.1756   64.7937   63.8360 C   0  0  0  0  0  0  0  0  0  0  0  0
  -34.5823   64.3270   62.5446 O   0  0  0  0  0  0  0  0  0  0  0  0
  -33.3302   66.4433   61.2052 O   0  0  0  0  0  0  0  0  0  0  0  0
  -30.1165   63.8717   62.4626 O   0  0  0  0  0  0  0  0  0  0  0  0
  -32.8066   62.9329   62.0631 O   0  0  0  0  0  0  0  0  0  0  0  0
  -33.5263   64.0836   61.6616 C   0  0  0  0  0  0  0  0  0  0  0  0
  -32.6154   65.3044   61.6679 C   0  0  0  0  0  0  0  0  0  0  0  0
  -31.4012   65.0490   60.7839 C   0  0  0  0  0  0  0  0  0  0  0  0
  -30.7057   63.7525   61.1718 C   0  0  0  0  0  0  0  0  0  0  0  0
  -31.7188   62.6104   61.1820 C   0  0  0  0  0  0  0  0  0  0  0  0
  -34.1000   66.5955   61.7754 H   0  0  0  0  0  0  0  0  0  0  0  0
  -29.4724   64.5970   62.4583 H   0  0  0  0  0  0  0  0  0  0  0  0
  -29.7449   61.2131   61.3821 O   0  0  0  0  0  0  0  0  0  0  0  0
  -31.1363   61.3033   61.6661 C   0  0  0  0  0  0  0  0  0  0  0  0
  -29.4033   60.3646   61.7048 H   0  0  0  0  0  0  0  0  0  0  0  0
  -30.5095   66.1784   61.0458 O   0  0  0  0  0  0  0  0  0  0  0  0
  -31.2192   66.9461   58.8746 O   0  0  0  0  0  0  0  0  0  0  0  0
  -29.1440   67.8768   59.9437 O   0  0  0  0  0  0  0  0  0  0  0  0
  -31.3133   68.4012   60.7537 O   0  0  0  0  0  0  0  0  0  0  0  0
  -30.4634   67.3689   59.9949 S   0  0  0  0  0  0  0  0  0  0  0  0
  -30.7113   66.2913   58.3704 H   0  0  0  0  0  0  0  0  0  0  0  0
  -32.2293   68.0873   60.8099 H   0  0  0  0  0  0  0  0  0  0  0  0
  2  1  1  0  0  0
  2  4  1  0  0  0
  2  5  1  0  0  0
 47 48  1  0  0  0
 47  1  1  0  0  0
 48 52  1  0  0  0
  1 30  1  0  0  0
 29 30  1  0  0  0
 29 31  1  0  0  0
 30 32  1  0  0  0
  3  4  2  0  0  0
 32 33  2  0  0  0
 49 53  1  0  0  0
 49 57  1  0  0  0
 33 34  1  0  0  0
 62 54  1  0  0  0
 62 66  1  0  0  0
 34 35  1  0  0  0
 50 55  1  0  0  0
 50 58  1  0  0  0
 35 36  1  0  0  0
 51 52  1  0  0  0
 51 56  1  0  0  0
 36 37  1  0  0  0
 59 60  1  0  0  0
 59 61  1  0  0  0
 37 38  1  0  0  0
 63 66  1  0  0  0
 63 67  1  0  0  0
 38 39  1  0  0  0
 64 66  1  0  0  0
 39 40  1  0  0  0
 65 66  1  0  0  0
 65 68  1  0  0  0
 40 41  1  0  0  0
 41 42  1  0  0  0
 42 43  1  0  0  0
 43 44  1  0  0  0
 44 45  1  0  0  0
 45 46  1  0  0  0
  4  6  1  0  0  0
  6  7  1  0  0  0
  7  8  1  0  0  0
  8  9  1  0  0  0
  9 10  1  0  0  0
 10 11  1  0  0  0
 11 12  1  0  0  0
 12 13  1  0  0  0
 13 14  1  0  0  0
 14 15  1  0  0  0
 15 16  1  0  0  0
 16 17  1  0  0  0
 17 18  1  0  0  0
 18 19  1  0  0  0
 19 20  2  0  0  0
 20 21  1  0  0  0
 21 22  1  0  0  0
 22 23  1  0  0  0
 23 24  1  0  0  0
 24 25  1  0  0  0
 25 26  1  0  0  0
 26 27  1  0  0  0
 27 28  1  0  0  0
 52 53  1  0  0  0
 53 54  1  0  0  0
 54 55  1  0  0  0
 55 56  1  0  0  0
 56 60  1  0  0  0
M  CHG 1  64  -1
M  END
> <minimizedAffinity>
-7.39782

> <CNNscore>
0.1512568295

> <CNNaffinity>
6.4974036217

> <CNN_VS>
0.9827767015

> <CNNaffinity_variance>
1.6040706635

$$$$
/media/chris/experiments/cd1a-new-docking/inputs/ligands/7ryn_ligand.pdb


 68 68  0  0  0  0  0  0  0  0999 V2000
  -40.3053   58.9304   65.8470 C   0  0  0  0  0  0  0  0  0  0  0  0
  -40.6208   57.6052   65.3220 N   0  0  0  0  0  0  0  0  0  0  0  0
  -41.1046   56.2458   63.5941 O   0  0  0  0  0  0  0  0  0  0  0  0
  -40.8274   57.3613   64.0251 C   0  0  0  0  0  0  0  0  0  0  0  0
  -40.6846   56.8542   65.9553 H   0  0  0  0  0  0  0  0  0  0  0  0
  -40.7056   58.5539   63.1096 C   0  0  0  0  0  0  0  0  0  0  0  0
  -41.9669   58.7928   62.2894 C   0  0  0  0  0  0  0  0  0  0  0  0
  -41.9202   60.0957   61.5075 C   0  0  0  0  0  0  0  0  0  0  0  0
  -41.2052   59.9869   60.1710 C   0  0  0  0  0  0  0  0  0  0  0  0
  -39.6938   60.1312   60.2683 C   0  0  0  0  0  0  0  0  0  0  0  0
  -38.9218   58.9178   59.7662 C   0  0  0  0  0  0  0  0  0  0  0  0
  -37.6914   58.5815   60.5989 C   0  0  0  0  0  0  0  0  0  0  0  0
  -37.9246   57.5254   61.6763 C   0  0  0  0  0  0  0  0  0  0  0  0
  -36.7930   57.4178   62.6972 C   0  0  0  0  0  0  0  0  0  0  0  0
  -35.4894   58.0966   62.2774 C   0  0  0  0  0  0  0  0  0  0  0  0
  -34.3111   57.7734   63.1964 C   0  0  0  0  0  0  0  0  0  0  0  0
  -32.9368   57.8255   62.5292 C   0  0  0  0  0  0  0  0  0  0  0  0
  -32.0867   59.0445   62.8974 C   0  0  0  0  0  0  0  0  0  0  0  0
  -32.0557   60.0828   61.8135 C   0  0  0  0  0  0  0  0  0  0  0  0
  -31.0286   60.8542   61.5035 C   0  0  0  0  0  0  0  0  0  0  0  0
  -29.6865   60.8454   62.1702 C   0  0  0  0  0  0  0  0  0  0  0  0
  -29.2158   62.2292   62.6227 C   0  0  0  0  0  0  0  0  0  0  0  0
  -30.3517   63.1264   63.0963 C   0  0  0  0  0  0  0  0  0  0  0  0
  -30.0691   64.6122   62.9044 C   0  0  0  0  0  0  0  0  0  0  0  0
  -31.2648   65.4247   62.4207 C   0  0  0  0  0  0  0  0  0  0  0  0
  -31.4370   65.4207   60.9082 C   0  0  0  0  0  0  0  0  0  0  0  0
  -31.4813   66.8060   60.2832 C   0  0  0  0  0  0  0  0  0  0  0  0
  -31.0565   66.8102   58.8287 C   0  0  0  0  0  0  0  0  0  0  0  0
  -41.2506   61.1009   66.3265 O   0  0  0  0  0  0  0  0  0  0  0  0
  -41.5492   59.8277   65.7467 C   0  0  0  0  0  0  0  0  0  0  0  0
  -40.4821   61.4879   65.8787 H   0  0  0  0  0  0  0  0  0  0  0  0
  -42.7334   59.1991   66.4150 C   0  0  0  0  0  0  0  0  0  0  0  0
  -43.7568   58.6539   65.7878 C   0  0  0  0  0  0  0  0  0  0  0  0
  -44.9169   58.0208   66.4835 C   0  0  0  0  0  0  0  0  0  0  0  0
  -46.1820   58.8667   66.3249 C   0  0  0  0  0  0  0  0  0  0  0  0
  -46.9381   58.6201   65.0295 C   0  0  0  0  0  0  0  0  0  0  0  0
  -48.2180   59.4264   64.8900 C   0  0  0  0  0  0  0  0  0  0  0  0
  -49.3638   58.6616   64.2435 C   0  0  0  0  0  0  0  0  0  0  0  0
  -49.9768   59.3749   63.0482 C   0  0  0  0  0  0  0  0  0  0  0  0
  -51.0736   58.5822   62.3592 C   0  0  0  0  0  0  0  0  0  0  0  0
  -50.5835   57.7143   61.2151 C   0  0  0  0  0  0  0  0  0  0  0  0
  -49.6444   58.4294   60.2587 C   0  0  0  0  0  0  0  0  0  0  0  0
  -49.0784   57.5149   59.1883 C   0  0  0  0  0  0  0  0  0  0  0  0
  -47.8941   58.0900   58.4354 C   0  0  0  0  0  0  0  0  0  0  0  0
  -47.7108   57.4598   57.0687 C   0  0  0  0  0  0  0  0  0  0  0  0
  -47.3007   56.0040   57.1511 C   0  0  0  0  0  0  0  0  0  0  0  0
  -39.1211   59.5148   65.1049 C   0  0  0  0  0  0  0  0  0  0  0  0
  -38.7569   60.7470   65.7370 O   0  0  0  0  0  0  0  0  0  0  0  0
  -37.7940   60.9020   63.1122 O   0  0  0  0  0  0  0  0  0  0  0  0
  -36.3153   64.4509   65.0462 O   0  0  0  0  0  0  0  0  0  0  0  0
  -37.0116   62.0593   66.4859 O   0  0  0  0  0  0  0  0  0  0  0  0
  -37.4447   61.1576   65.4845 C   0  0  0  0  0  0  0  0  0  0  0  0
  -37.4162   61.8323   64.1191 C   0  0  0  0  0  0  0  0  0  0  0  0
  -36.0205   62.3749   63.8387 C   0  0  0  0  0  0  0  0  0  0  0  0
  -35.5386   63.2594   64.9793 C   0  0  0  0  0  0  0  0  0  0  0  0
  -35.6581   62.5031   66.3001 C   0  0  0  0  0  0  0  0  0  0  0  0
  -38.6832   60.5639   63.3015 H   0  0  0  0  0  0  0  0  0  0  0  0
  -36.2407   64.9330   64.2078 H   0  0  0  0  0  0  0  0  0  0  0  0
  -36.4681   63.8717   68.1330 O   0  0  0  0  0  0  0  0  0  0  0  0
  -35.3053   63.3471   67.5024 C   0  0  0  0  0  0  0  0  0  0  0  0
  -36.2071   64.4071   68.8986 H   0  0  0  0  0  0  0  0  0  0  0  0
  -36.1738   63.1807   62.6277 O   0  0  0  0  0  0  0  0  0  0  0  0
  -33.8210   63.0673   62.1191 O   0  0  0  0  0  0  0  0  0  0  0  0
  -34.9129   65.2720   62.6317 O   0  0  0  0  0  0  0  0  0  0  0  0
  -35.3293   64.1096   60.6038 O   0  0  0  0  0  0  0  0  0  0  0  0
  -34.9105   63.9707   62.0766 S   0  0  0  0  0  0  0  0  0  0  0  0
  -33.5294   62.9552   63.0375 H   0  0  0  0  0  0  0  0  0  0  0  0
  -35.3395   63.2340   60.1867 H   0  0  0  0  0  0  0  0  0  0  0  0
  2  1  1  0  0  0
  2  4  1  0  0  0
  2  5  1  0  0  0
 47 48  1  0  0  0
 47  1  1  0  0  0
 48 52  1  0  0  0
  1 30  1  0  0  0
 29 30  1  0  0  0
 29 31  1  0  0  0
 30 32  1  0  0  0
  3  4  2  0  0  0
 32 33  2  0  0  0
 49 53  1  0  0  0
 49 57  1  0  0  0
 33 34  1  0  0  0
 62 54  1  0  0  0
 62 66  1  0  0  0
 34 35  1  0  0  0
 50 55  1  0  0  0
 50 58  1  0  0  0
 35 36  1  0  0  0
 51 52  1  0  0  0
 51 56  1  0  0  0
 36 37  1  0  0  0
 59 60  1  0  0  0
 59 61  1  0  0  0
 37 38  1  0  0  0
 63 66  1  0  0  0
 63 67  1  0  0  0
 38 39  1  0  0  0
 64 66  1  0  0  0
 39 40  1  0  0  0
 65 66  1  0  0  0
 65 68  1  0  0  0
 40 41  1  0  0  0
 41 42  1  0  0  0
 42 43  1  0  0  0
 43 44  1  0  0  0
 44 45  1  0  0  0
 45 46  1  0  0  0
  4  6  1  0  0  0
  6  7  1  0  0  0
  7  8  1  0  0  0
  8  9  1  0  0  0
  9 10  1  0  0  0
 10 11  1  0  0  0
 11 12  1  0  0  0
 12 13  1  0  0  0
 13 14  1  0  0  0
 14 15  1  0  0  0
 15 16  1  0  0  0
 16 17  1  0  0  0
 17 18  1  0  0  0
 18 19  1  0  0  0
 19 20  2  0  0  0
 20 21  1  0  0  0
 21 22  1  0  0  0
 22 23  1  0  0  0
 23 24  1  0  0  0
 24 25  1  0  0  0
 25 26  1  0  0  0
 26 27  1  0  0  0
 27 28  1  0  0  0
 52 53  1  0  0  0
 53 54  1  0  0  0
 54 55  1  0  0  0
 55 56  1  0  0  0
 56 60  1  0  0  0
M  CHG 1  64  -1
M  END
> <minimizedAffinity>
-9.45103

> <CNNscore>
0.1461345404

> <CNNaffinity>
7.1068139076

> <CNN_VS>
1.0385509729

> <CNNaffinity_variance>
1.6932713985

$$$$
/media/chris/experiments/cd1a-new-docking/inputs/ligands/7ryn_ligand.pdb


 68 68  0  0  0  0  0  0  0  0999 V2000
  -39.1742   60.2381   62.3794 C   0  0  0  0  0  0  0  0  0  0  0  0
  -38.5256   60.2681   61.0718 N   0  0  0  0  0  0  0  0  0  0  0  0
  -37.6521   59.2013   59.2923 O   0  0  0  0  0  0  0  0  0  0  0  0
  -38.2088   59.1667   60.3859 C   0  0  0  0  0  0  0  0  0  0  0  0
  -38.3112   61.1437   60.6760 H   0  0  0  0  0  0  0  0  0  0  0  0
  -38.5732   57.8600   61.0454 C   0  0  0  0  0  0  0  0  0  0  0  0
  -37.6575   57.5195   62.2143 C   0  0  0  0  0  0  0  0  0  0  0  0
  -36.2239   57.9719   61.9875 C   0  0  0  0  0  0  0  0  0  0  0  0
  -35.2324   57.4019   62.9881 C   0  0  0  0  0  0  0  0  0  0  0  0
  -35.2274   58.1225   64.3280 C   0  0  0  0  0  0  0  0  0  0  0  0
  -33.8634   58.6653   64.7347 C   0  0  0  0  0  0  0  0  0  0  0  0
  -33.3222   59.7381   63.7985 C   0  0  0  0  0  0  0  0  0  0  0  0
  -32.1633   59.2827   62.9154 C   0  0  0  0  0  0  0  0  0  0  0  0
  -31.4640   60.4193   62.1716 C   0  0  0  0  0  0  0  0  0  0  0  0
  -29.9391   60.4060   62.2759 C   0  0  0  0  0  0  0  0  0  0  0  0
  -29.3176   61.8027   62.2925 C   0  0  0  0  0  0  0  0  0  0  0  0
  -30.1299   62.8811   61.5756 C   0  0  0  0  0  0  0  0  0  0  0  0
  -29.6247   64.3119   61.7800 C   0  0  0  0  0  0  0  0  0  0  0  0
  -29.0036   64.5239   63.1303 C   0  0  0  0  0  0  0  0  0  0  0  0
  -29.0091   65.6500   63.8216 C   0  0  0  0  0  0  0  0  0  0  0  0
  -29.6394   66.9418   63.3975 C   0  0  0  0  0  0  0  0  0  0  0  0
  -28.7248   67.8201   62.5412 C   0  0  0  0  0  0  0  0  0  0  0  0
  -29.3568   68.2399   61.2207 C   0  0  0  0  0  0  0  0  0  0  0  0
  -30.7247   67.6119   60.9781 C   0  0  0  0  0  0  0  0  0  0  0  0
  -31.1128   67.4929   59.5088 C   0  0  0  0  0  0  0  0  0  0  0  0
  -30.4393   66.3329   58.7890 C   0  0  0  0  0  0  0  0  0  0  0  0
  -30.5522   66.3909   57.2738 C   0  0  0  0  0  0  0  0  0  0  0  0
  -30.8590   67.7824   56.7585 C   0  0  0  0  0  0  0  0  0  0  0  0
  -41.0225   61.4941   63.2965 O   0  0  0  0  0  0  0  0  0  0  0  0
  -40.6541   60.6231   62.2231 C   0  0  0  0  0  0  0  0  0  0  0  0
  -40.4399   62.2696   63.2981 H   0  0  0  0  0  0  0  0  0  0  0  0
  -41.5347   59.4117   62.1896 C   0  0  0  0  0  0  0  0  0  0  0  0
  -41.5977   58.4943   63.1343 C   0  0  0  0  0  0  0  0  0  0  0  0
  -42.4982   57.3040   63.0784 C   0  0  0  0  0  0  0  0  0  0  0  0
  -42.4437   56.5109   64.3857 C   0  0  0  0  0  0  0  0  0  0  0  0
  -42.2572   57.3680   65.6271 C   0  0  0  0  0  0  0  0  0  0  0  0
  -43.5191   57.5560   66.4518 C   0  0  0  0  0  0  0  0  0  0  0  0
  -44.7833   57.7177   65.6204 C   0  0  0  0  0  0  0  0  0  0  0  0
  -45.8193   58.6322   66.2555 C   0  0  0  0  0  0  0  0  0  0  0  0
  -46.9542   59.0129   65.3211 C   0  0  0  0  0  0  0  0  0  0  0  0
  -48.2572   58.2886   65.6039 C   0  0  0  0  0  0  0  0  0  0  0  0
  -49.3588   59.1888   66.1366 C   0  0  0  0  0  0  0  0  0  0  0  0
  -50.7048   58.9279   65.4864 C   0  0  0  0  0  0  0  0  0  0  0  0
  -51.0101   59.8205   64.2988 C   0  0  0  0  0  0  0  0  0  0  0  0
  -51.1012   59.0478   62.9975 C   0  0  0  0  0  0  0  0  0  0  0  0
  -50.0391   59.4628   62.0005 C   0  0  0  0  0  0  0  0  0  0  0  0
  -38.4466   61.1545   63.3413 C   0  0  0  0  0  0  0  0  0  0  0  0
  -37.1261   61.3811   62.8359 O   0  0  0  0  0  0  0  0  0  0  0  0
  -35.0980   63.1711   62.1122 O   0  0  0  0  0  0  0  0  0  0  0  0
  -36.5963   64.6525   65.8649 O   0  0  0  0  0  0  0  0  0  0  0  0
  -36.8273   61.8983   65.0657 O   0  0  0  0  0  0  0  0  0  0  0  0
  -36.2171   61.8485   63.7895 C   0  0  0  0  0  0  0  0  0  0  0  0
  -35.7638   63.2399   63.3668 C   0  0  0  0  0  0  0  0  0  0  0  0
  -34.8368   63.8259   64.4242 C   0  0  0  0  0  0  0  0  0  0  0  0
  -35.4780   63.7733   65.8031 C   0  0  0  0  0  0  0  0  0  0  0  0
  -35.9382   62.3482   66.1004 C   0  0  0  0  0  0  0  0  0  0  0  0
  -35.6977   62.7968   61.4480 H   0  0  0  0  0  0  0  0  0  0  0  0
  -36.3060   65.5586   65.6763 H   0  0  0  0  0  0  0  0  0  0  0  0
  -36.3057   63.2408   68.3268 O   0  0  0  0  0  0  0  0  0  0  0  0
  -36.6885   62.2259   67.4059 C   0  0  0  0  0  0  0  0  0  0  0  0
  -36.8044   63.1337   69.1518 H   0  0  0  0  0  0  0  0  0  0  0  0
  -34.6547   65.2209   64.0238 O   0  0  0  0  0  0  0  0  0  0  0  0
  -33.1999   67.1027   63.6368 O   0  0  0  0  0  0  0  0  0  0  0  0
  -32.8619   64.9480   62.3883 O   0  0  0  0  0  0  0  0  0  0  0  0
  -32.3734   65.1440   64.7035 O   0  0  0  0  0  0  0  0  0  0  0  0
  -33.2163   65.6901   63.5394 S   0  0  0  0  0  0  0  0  0  0  0  0
  -33.7244   67.4827   62.9147 H   0  0  0  0  0  0  0  0  0  0  0  0
  -32.5890   65.6301   65.5146 H   0  0  0  0  0  0  0  0  0  0  0  0
  2  1  1  0  0  0
  2  4  1  0  0  0
  2  5  1  0  0  0
 47 48  1  0  0  0
 47  1  1  0  0  0
 48 52  1  0  0  0
  1 30  1  0  0  0
 29 30  1  0  0  0
 29 31  1  0  0  0
 30 32  1  0  0  0
  3  4  2  0  0  0
 32 33  2  0  0  0
 49 53  1  0  0  0
 49 57  1  0  0  0
 33 34  1  0  0  0
 62 54  1  0  0  0
 62 66  1  0  0  0
 34 35  1  0  0  0
 50 55  1  0  0  0
 50 58  1  0  0  0
 35 36  1  0  0  0
 51 52  1  0  0  0
 51 56  1  0  0  0
 36 37  1  0  0  0
 59 60  1  0  0  0
 59 61  1  0  0  0
 37 38  1  0  0  0
 63 66  1  0  0  0
 63 67  1  0  0  0
 38 39  1  0  0  0
 64 66  1  0  0  0
 39 40  1  0  0  0
 65 66  1  0  0  0
 65 68  1  0  0  0
 40 41  1  0  0  0
 41 42  1  0  0  0
 42 43  1  0  0  0
 43 44  1  0  0  0
 44 45  1  0  0  0
 45 46  1  0  0  0
  4  6  1  0  0  0
  6  7  1  0  0  0
  7  8  1  0  0  0
  8  9  1  0  0  0
  9 10  1  0  0  0
 10 11  1  0  0  0
 11 12  1  0  0  0
 12 13  1  0  0  0
 13 14  1  0  0  0
 14 15  1  0  0  0
 15 16  1  0  0  0
 16 17  1  0  0  0
 17 18  1  0  0  0
 18 19  1  0  0  0
 19 20  2  0  0  0
 20 21  1  0  0  0
 21 22  1  0  0  0
 22 23  1  0  0  0
 23 24  1  0  0  0
 24 25  1  0  0  0
 25 26  1  0  0  0
 26 27  1  0  0  0
 27 28  1  0  0  0
 52 53  1  0  0  0
 53 54  1  0  0  0
 54 55  1  0  0  0
 55 56  1  0  0  0
 56 60  1  0  0  0
M  CHG 1  64  -1
M  END
> <minimizedAffinity>
-8.27312

> <CNNscore>
0.1367348135

> <CNNaffinity>
6.8840131760

> <CNN_VS>
0.9412842393

> <CNNaffinity_variance>
1.0296130180

$$$$
