/media/chris/experiments/cd1a-new-docking/inputs/ligands/7ryn_ligand.pdb


 68 68  0  0  0  0  0  0  0  0999 V2000
  -38.2754   59.8386   63.4535 C   0  0  0  0  0  0  0  0  0  0  0  0
  -39.6846   60.2076   63.3572 N   0  0  0  0  0  0  0  0  0  0  0  0
  -41.5671   60.4570   62.1481 O   0  0  0  0  0  0  0  0  0  0  0  0
  -40.3855   60.1326   62.2226 C   0  0  0  0  0  0  0  0  0  0  0  0
  -40.1409   60.5277   64.1687 H   0  0  0  0  0  0  0  0  0  0  0  0
  -39.6283   59.6261   61.0203 C   0  0  0  0  0  0  0  0  0  0  0  0
  -39.6096   58.1051   60.9391 C   0  0  0  0  0  0  0  0  0  0  0  0
  -41.0044   57.5041   60.8721 C   0  0  0  0  0  0  0  0  0  0  0  0
  -41.2935   56.4939   61.9700 C   0  0  0  0  0  0  0  0  0  0  0  0
  -42.1182   57.0536   63.1193 C   0  0  0  0  0  0  0  0  0  0  0  0
  -41.4311   56.9649   64.4761 C   0  0  0  0  0  0  0  0  0  0  0  0
  -41.9067   58.0091   65.4779 C   0  0  0  0  0  0  0  0  0  0  0  0
  -43.0381   57.5426   66.3904 C   0  0  0  0  0  0  0  0  0  0  0  0
  -44.2561   58.4649   66.3925 C   0  0  0  0  0  0  0  0  0  0  0  0
  -45.2330   58.2328   65.2400 C   0  0  0  0  0  0  0  0  0  0  0  0
  -46.6679   57.9756   65.7005 C   0  0  0  0  0  0  0  0  0  0  0  0
  -47.1938   58.9497   66.7546 C   0  0  0  0  0  0  0  0  0  0  0  0
  -48.4770   59.6892   66.3664 C   0  0  0  0  0  0  0  0  0  0  0  0
  -48.4174   60.2754   64.9855 C   0  0  0  0  0  0  0  0  0  0  0  0
  -49.3409   60.1551   64.0482 C   0  0  0  0  0  0  0  0  0  0  0  0
  -50.6357   59.4114   64.1763 C   0  0  0  0  0  0  0  0  0  0  0  0
  -51.1987   58.9229   62.8399 C   0  0  0  0  0  0  0  0  0  0  0  0
  -50.1644   58.9022   61.7224 C   0  0  0  0  0  0  0  0  0  0  0  0
  -50.2121   57.6340   60.8775 C   0  0  0  0  0  0  0  0  0  0  0  0
  -49.6138   57.7815   59.4832 C   0  0  0  0  0  0  0  0  0  0  0  0
  -48.2120   57.2027   59.3534 C   0  0  0  0  0  0  0  0  0  0  0  0
  -47.7873   56.9157   57.9219 C   0  0  0  0  0  0  0  0  0  0  0  0
  -47.1066   58.0972   57.2610 C   0  0  0  0  0  0  0  0  0  0  0  0
  -38.2615   59.0168   65.7249 O   0  0  0  0  0  0  0  0  0  0  0  0
  -38.1324   58.6060   64.3607 C   0  0  0  0  0  0  0  0  0  0  0  0
  -39.1123   59.4662   65.8481 H   0  0  0  0  0  0  0  0  0  0  0  0
  -36.8274   57.9067   64.1329 C   0  0  0  0  0  0  0  0  0  0  0  0
  -36.1917   57.8452   62.9795 C   0  0  0  0  0  0  0  0  0  0  0  0
  -34.8827   57.1520   62.7877 C   0  0  0  0  0  0  0  0  0  0  0  0
  -33.8817   58.0565   62.0659 C   0  0  0  0  0  0  0  0  0  0  0  0
  -32.4963   58.0760   62.6909 C   0  0  0  0  0  0  0  0  0  0  0  0
  -32.0245   59.4543   63.1214 C   0  0  0  0  0  0  0  0  0  0  0  0
  -32.2139   60.5316   62.0634 C   0  0  0  0  0  0  0  0  0  0  0  0
  -30.9269   60.9247   61.3547 C   0  0  0  0  0  0  0  0  0  0  0  0
  -29.6694   60.5685   62.1279 C   0  0  0  0  0  0  0  0  0  0  0  0
  -29.0660   61.7297   62.8958 C   0  0  0  0  0  0  0  0  0  0  0  0
  -29.7104   63.0709   62.5900 C   0  0  0  0  0  0  0  0  0  0  0  0
  -30.5371   63.6087   63.7431 C   0  0  0  0  0  0  0  0  0  0  0  0
  -29.9507   64.8353   64.4155 C   0  0  0  0  0  0  0  0  0  0  0  0
  -30.9833   65.9201   64.6511 C   0  0  0  0  0  0  0  0  0  0  0  0
  -31.2828   66.1266   66.1216 C   0  0  0  0  0  0  0  0  0  0  0  0
  -37.4641   61.0137   63.9586 C   0  0  0  0  0  0  0  0  0  0  0  0
  -36.5275   61.3851   62.9409 O   0  0  0  0  0  0  0  0  0  0  0  0
  -35.6677   63.7317   61.6778 O   0  0  0  0  0  0  0  0  0  0  0  0
  -35.3602   64.5637   65.8891 O   0  0  0  0  0  0  0  0  0  0  0  0
  -35.2748   61.8977   64.8107 O   0  0  0  0  0  0  0  0  0  0  0  0
  -35.4088   62.0775   63.4132 C   0  0  0  0  0  0  0  0  0  0  0  0
  -35.5951   63.5536   63.0867 C   0  0  0  0  0  0  0  0  0  0  0  0
  -34.4381   64.3611   63.6612 C   0  0  0  0  0  0  0  0  0  0  0  0
  -34.2518   64.0709   65.1433 C   0  0  0  0  0  0  0  0  0  0  0  0
  -34.1267   62.5648   65.3590 C   0  0  0  0  0  0  0  0  0  0  0  0
  -36.4074   63.2133   61.3240 H   0  0  0  0  0  0  0  0  0  0  0  0
  -35.4415   65.5207   65.7533 H   0  0  0  0  0  0  0  0  0  0  0  0
  -33.8895   63.3170   67.6540 O   0  0  0  0  0  0  0  0  0  0  0  0
  -34.0505   62.1774   66.8173 C   0  0  0  0  0  0  0  0  0  0  0  0
  -33.8442   63.0341   68.5807 H   0  0  0  0  0  0  0  0  0  0  0  0
  -34.8375   65.7569   63.4837 O   0  0  0  0  0  0  0  0  0  0  0  0
  -33.5574   65.6815   61.4435 O   0  0  0  0  0  0  0  0  0  0  0  0
  -33.4415   67.6884   62.9517 O   0  0  0  0  0  0  0  0  0  0  0  0
  -35.3761   67.1982   61.6658 O   0  0  0  0  0  0  0  0  0  0  0  0
  -34.1290   66.6104   62.3466 S   0  0  0  0  0  0  0  0  0  0  0  0
  -32.7646   65.2894   61.8418 H   0  0  0  0  0  0  0  0  0  0  0  0
  -35.8765   66.4861   61.2374 H   0  0  0  0  0  0  0  0  0  0  0  0
  2  1  1  0  0  0
  2  4  1  0  0  0
  2  5  1  0  0  0
 47 48  1  0  0  0
 47  1  1  0  0  0
 48 52  1  0  0  0
  1 30  1  0  0  0
 29 30  1  0  0  0
 29 31  1  0  0  0
 30 32  1  0  0  0
  3  4  2  0  0  0
 32 33  2  0  0  0
 49 53  1  0  0  0
 49 57  1  0  0  0
 33 34  1  0  0  0
 62 54  1  0  0  0
 62 66  1  0  0  0
 34 35  1  0  0  0
 50 55  1  0  0  0
 50 58  1  0  0  0
 35 36  1  0  0  0
 51 52  1  0  0  0
 51 56  1  0  0  0
 36 37  1  0  0  0
 59 60  1  0  0  0
 59 61  1  0  0  0
 37 38  1  0  0  0
 63 66  1  0  0  0
 63 67  1  0  0  0
 38 39  1  0  0  0
 64 66  1  0  0  0
 39 40  1  0  0  0
 65 66  1  0  0  0
 65 68  1  0  0  0
 40 41  1  0  0  0
 41 42  1  0  0  0
 42 43  1  0  0  0
 43 44  1  0  0  0
 44 45  1  0  0  0
 45 46  1  0  0  0
  4  6  1  0  0  0
  6  7  1  0  0  0
  7  8  1  0  0  0
  8  9  1  0  0  0
  9 10  1  0  0  0
 10 11  1  0  0  0
 11 12  1  0  0  0
 12 13  1  0  0  0
 13 14  1  0  0  0
 14 15  1  0  0  0
 15 16  1  0  0  0
 16 17  1  0  0  0
 17 18  1  0  0  0
 18 19  1  0  0  0
 19 20  2  0  0  0
 20 21  1  0  0  0
 21 22  1  0  0  0
 22 23  1  0  0  0
 23 24  1  0  0  0
 24 25  1  0  0  0
 25 26  1  0  0  0
 26 27  1  0  0  0
 27 28  1  0  0  0
 52 53  1  0  0  0
 53 54  1  0  0  0
 54 55  1  0  0  0
 55 56  1  0  0  0
 56 60  1  0  0  0
M  CHG 1  64  -1
M  END
> <minimizedAffinity>
-9.15015

> <CNNscore>
0.2255367041

> <CNNaffinity>
7.1592788696

> <CNN_VS>
1.6146801710

> <CNNaffinity_variance>
1.2171952724

$$$$
/media/chris/experiments/cd1a-new-docking/inputs/ligands/7ryn_ligand.pdb


 68 68  0  0  0  0  0  0  0  0999 V2000
  -40.5749   59.6529   64.5396 C   0  0  0  0  0  0  0  0  0  0  0  0
  -40.8840   60.4284   63.3419 N   0  0  0  0  0  0  0  0  0  0  0  0
  -41.9844   60.6695   61.3929 O   0  0  0  0  0  0  0  0  0  0  0  0
  -41.7400   60.0162   62.4031 C   0  0  0  0  0  0  0  0  0  0  0  0
  -40.4394   61.2983   63.2202 H   0  0  0  0  0  0  0  0  0  0  0  0
  -42.3922   58.6799   62.6563 C   0  0  0  0  0  0  0  0  0  0  0  0
  -42.0599   57.6536   61.5807 C   0  0  0  0  0  0  0  0  0  0  0  0
  -41.2262   56.4980   62.1103 C   0  0  0  0  0  0  0  0  0  0  0  0
  -39.7719   56.8550   62.3688 C   0  0  0  0  0  0  0  0  0  0  0  0
  -39.1145   57.6204   61.2302 C   0  0  0  0  0  0  0  0  0  0  0  0
  -37.6872   58.0642   61.5243 C   0  0  0  0  0  0  0  0  0  0  0  0
  -37.0222   57.2924   62.6566 C   0  0  0  0  0  0  0  0  0  0  0  0
  -35.5261   57.5547   62.8091 C   0  0  0  0  0  0  0  0  0  0  0  0
  -35.1296   58.1222   64.1711 C   0  0  0  0  0  0  0  0  0  0  0  0
  -33.6982   58.6528   64.2482 C   0  0  0  0  0  0  0  0  0  0  0  0
  -32.8547   58.3096   63.0202 C   0  0  0  0  0  0  0  0  0  0  0  0
  -32.3871   59.5116   62.1997 C   0  0  0  0  0  0  0  0  0  0  0  0
  -30.9622   59.9834   62.5013 C   0  0  0  0  0  0  0  0  0  0  0  0
  -30.4422   60.9566   61.4830 C   0  0  0  0  0  0  0  0  0  0  0  0
  -29.7078   62.0263   61.7325 C   0  0  0  0  0  0  0  0  0  0  0  0
  -29.2434   62.4818   63.0826 C   0  0  0  0  0  0  0  0  0  0  0  0
  -29.3501   63.9939   63.2913 C   0  0  0  0  0  0  0  0  0  0  0  0
  -29.6550   64.7585   62.0100 C   0  0  0  0  0  0  0  0  0  0  0  0
  -30.3073   66.1144   62.2554 C   0  0  0  0  0  0  0  0  0  0  0  0
  -29.8199   66.8318   63.5091 C   0  0  0  0  0  0  0  0  0  0  0  0
  -30.9262   67.1394   64.5085 C   0  0  0  0  0  0  0  0  0  0  0  0
  -30.9587   66.2052   65.7077 C   0  0  0  0  0  0  0  0  0  0  0  0
  -32.3664   65.8297   66.1241 C   0  0  0  0  0  0  0  0  0  0  0  0
  -40.6269   60.7110   66.7104 O   0  0  0  0  0  0  0  0  0  0  0  0
  -41.4599   60.1341   65.7006 C   0  0  0  0  0  0  0  0  0  0  0  0
  -40.1034   61.4312   66.3252 H   0  0  0  0  0  0  0  0  0  0  0  0
  -42.2844   59.0159   66.2606 C   0  0  0  0  0  0  0  0  0  0  0  0
  -43.5853   58.8778   66.0971 C   0  0  0  0  0  0  0  0  0  0  0  0
  -44.3777   57.7420   66.6564 C   0  0  0  0  0  0  0  0  0  0  0  0
  -45.8310   58.1530   66.9014 C   0  0  0  0  0  0  0  0  0  0  0  0
  -46.6991   58.1463   65.6537 C   0  0  0  0  0  0  0  0  0  0  0  0
  -47.9063   59.0655   65.7277 C   0  0  0  0  0  0  0  0  0  0  0  0
  -48.0334   60.0163   64.5464 C   0  0  0  0  0  0  0  0  0  0  0  0
  -49.3603   59.9036   63.8115 C   0  0  0  0  0  0  0  0  0  0  0  0
  -49.6092   58.5338   63.2050 C   0  0  0  0  0  0  0  0  0  0  0  0
  -50.8232   58.4711   62.2969 C   0  0  0  0  0  0  0  0  0  0  0  0
  -50.5701   57.7584   60.9796 C   0  0  0  0  0  0  0  0  0  0  0  0
  -49.2473   58.1411   60.3423 C   0  0  0  0  0  0  0  0  0  0  0  0
  -49.0583   57.6198   58.9305 C   0  0  0  0  0  0  0  0  0  0  0  0
  -47.6097   57.3014   58.6163 C   0  0  0  0  0  0  0  0  0  0  0  0
  -47.1414   57.9424   57.3261 C   0  0  0  0  0  0  0  0  0  0  0  0
  -39.0997   59.7649   64.8646 C   0  0  0  0  0  0  0  0  0  0  0  0
  -38.6962   61.1242   64.6643 O   0  0  0  0  0  0  0  0  0  0  0  0
  -36.7964   60.9368   62.6157 O   0  0  0  0  0  0  0  0  0  0  0  0
  -35.7043   64.4683   64.8200 O   0  0  0  0  0  0  0  0  0  0  0  0
  -37.2085   62.3051   65.9760 O   0  0  0  0  0  0  0  0  0  0  0  0
  -37.3445   61.3677   64.9242 C   0  0  0  0  0  0  0  0  0  0  0  0
  -36.7093   61.9089   63.6499 C   0  0  0  0  0  0  0  0  0  0  0  0
  -35.2529   62.2717   63.9110 C   0  0  0  0  0  0  0  0  0  0  0  0
  -35.1272   63.1993   65.1106 C   0  0  0  0  0  0  0  0  0  0  0  0
  -35.8397   62.5831   66.3120 C   0  0  0  0  0  0  0  0  0  0  0  0
  -37.7275   60.7143   62.4588 H   0  0  0  0  0  0  0  0  0  0  0  0
  -35.2531   64.8616   64.0568 H   0  0  0  0  0  0  0  0  0  0  0  0
  -36.4318   62.8421   68.6511 O   0  0  0  0  0  0  0  0  0  0  0  0
  -35.8613   63.4901   67.5200 C   0  0  0  0  0  0  0  0  0  0  0  0
  -36.4305   63.4501   69.4069 H   0  0  0  0  0  0  0  0  0  0  0  0
  -34.8252   62.9761   62.7026 O   0  0  0  0  0  0  0  0  0  0  0  0
  -32.9598   63.2943   61.2107 O   0  0  0  0  0  0  0  0  0  0  0  0
  -32.5801   62.8514   63.6551 O   0  0  0  0  0  0  0  0  0  0  0  0
  -33.4557   64.9168   62.8778 O   0  0  0  0  0  0  0  0  0  0  0  0
  -33.3038   63.4162   62.5789 S   0  0  0  0  0  0  0  0  0  0  0  0
  -32.8554   62.3566   60.9859 H   0  0  0  0  0  0  0  0  0  0  0  0
  -33.9493   65.3413   62.1588 H   0  0  0  0  0  0  0  0  0  0  0  0
  2  1  1  0  0  0
  2  4  1  0  0  0
  2  5  1  0  0  0
 47 48  1  0  0  0
 47  1  1  0  0  0
 48 52  1  0  0  0
  1 30  1  0  0  0
 29 30  1  0  0  0
 29 31  1  0  0  0
 30 32  1  0  0  0
  3  4  2  0  0  0
 32 33  2  0  0  0
 49 53  1  0  0  0
 49 57  1  0  0  0
 33 34  1  0  0  0
 62 54  1  0  0  0
 62 66  1  0  0  0
 34 35  1  0  0  0
 50 55  1  0  0  0
 50 58  1  0  0  0
 35 36  1  0  0  0
 51 52  1  0  0  0
 51 56  1  0  0  0
 36 37  1  0  0  0
 59 60  1  0  0  0
 59 61  1  0  0  0
 37 38  1  0  0  0
 63 66  1  0  0  0
 63 67  1  0  0  0
 38 39  1  0  0  0
 64 66  1  0  0  0
 39 40  1  0  0  0
 65 66  1  0  0  0
 65 68  1  0  0  0
 40 41  1  0  0  0
 41 42  1  0  0  0
 42 43  1  0  0  0
 43 44  1  0  0  0
 44 45  1  0  0  0
 45 46  1  0  0  0
  4  6  1  0  0  0
  6  7  1  0  0  0
  7  8  1  0  0  0
  8  9  1  0  0  0
  9 10  1  0  0  0
 10 11  1  0  0  0
 11 12  1  0  0  0
 12 13  1  0  0  0
 13 14  1  0  0  0
 14 15  1  0  0  0
 15 16  1  0  0  0
 16 17  1  0  0  0
 17 18  1  0  0  0
 18 19  1  0  0  0
 19 20  2  0  0  0
 20 21  1  0  0  0
 21 22  1  0  0  0
 22 23  1  0  0  0
 23 24  1  0  0  0
 24 25  1  0  0  0
 25 26  1  0  0  0
 26 27  1  0  0  0
 27 28  1  0  0  0
 52 53  1  0  0  0
 53 54  1  0  0  0
 54 55  1  0  0  0
 55 56  1  0  0  0
 56 60  1  0  0  0
M  CHG 1  64  -1
M  END
> <minimizedAffinity>
-9.32057

> <CNNscore>
0.2111050934

> <CNNaffinity>
7.1449418068

> <CNN_VS>
1.5083335638

> <CNNaffinity_variance>
1.7057119608

$$$$
/media/chris/experiments/cd1a-new-docking/inputs/ligands/7ryn_ligand.pdb


 68 68  0  0  0  0  0  0  0  0999 V2000
  -34.3310   60.3970   64.2571 C   0  0  0  0  0  0  0  0  0  0  0  0
  -34.4500   61.3325   65.3716 N   0  0  0  0  0  0  0  0  0  0  0  0
  -35.7022   62.6527   66.6971 O   0  0  0  0  0  0  0  0  0  0  0  0
  -35.6133   61.8570   65.7666 C   0  0  0  0  0  0  0  0  0  0  0  0
  -33.6324   61.5895   65.8559 H   0  0  0  0  0  0  0  0  0  0  0  0
  -36.8266   61.4141   64.9876 C   0  0  0  0  0  0  0  0  0  0  0  0
  -37.8407   60.6775   65.8533 C   0  0  0  0  0  0  0  0  0  0  0  0
  -38.8904   59.9453   65.0328 C   0  0  0  0  0  0  0  0  0  0  0  0
  -40.0039   59.3304   65.8643 C   0  0  0  0  0  0  0  0  0  0  0  0
  -41.0648   60.3276   66.3054 C   0  0  0  0  0  0  0  0  0  0  0  0
  -42.2444   59.6961   67.0337 C   0  0  0  0  0  0  0  0  0  0  0  0
  -42.3451   58.1870   66.8526 C   0  0  0  0  0  0  0  0  0  0  0  0
  -43.7427   57.6826   66.5027 C   0  0  0  0  0  0  0  0  0  0  0  0
  -44.8329   58.7478   66.6076 C   0  0  0  0  0  0  0  0  0  0  0  0
  -46.1562   58.3730   65.9408 C   0  0  0  0  0  0  0  0  0  0  0  0
  -47.3843   58.7573   66.7663 C   0  0  0  0  0  0  0  0  0  0  0  0
  -48.4498   59.5511   66.0104 C   0  0  0  0  0  0  0  0  0  0  0  0
  -49.7303   58.7737   65.6945 C   0  0  0  0  0  0  0  0  0  0  0  0
  -50.8518   59.6595   65.2342 C   0  0  0  0  0  0  0  0  0  0  0  0
  -51.3158   59.7504   64.0004 C   0  0  0  0  0  0  0  0  0  0  0  0
  -50.8175   58.9848   62.8123 C   0  0  0  0  0  0  0  0  0  0  0  0
  -49.9956   59.8304   61.8371 C   0  0  0  0  0  0  0  0  0  0  0  0
  -49.4917   59.0433   60.6347 C   0  0  0  0  0  0  0  0  0  0  0  0
  -49.0877   57.6129   60.9741 C   0  0  0  0  0  0  0  0  0  0  0  0
  -48.9904   56.6820   59.7709 C   0  0  0  0  0  0  0  0  0  0  0  0
  -47.6008   56.6229   59.1524 C   0  0  0  0  0  0  0  0  0  0  0  0
  -47.5912   56.7071   57.6343 C   0  0  0  0  0  0  0  0  0  0  0  0
  -46.9448   57.9768   57.1186 C   0  0  0  0  0  0  0  0  0  0  0  0
  -32.9214   58.4421   64.4178 O   0  0  0  0  0  0  0  0  0  0  0  0
  -34.1946   58.9671   64.8046 C   0  0  0  0  0  0  0  0  0  0  0  0
  -32.2185   59.0273   64.7412 H   0  0  0  0  0  0  0  0  0  0  0  0
  -35.3063   58.0872   64.3211 C   0  0  0  0  0  0  0  0  0  0  0  0
  -36.0402   58.3129   63.2493 C   0  0  0  0  0  0  0  0  0  0  0  0
  -37.1332   57.4074   62.7844 C   0  0  0  0  0  0  0  0  0  0  0  0
  -37.6545   57.8345   61.4107 C   0  0  0  0  0  0  0  0  0  0  0  0
  -39.1693   57.9211   61.3186 C   0  0  0  0  0  0  0  0  0  0  0  0
  -39.6833   58.5094   60.0158 C   0  0  0  0  0  0  0  0  0  0  0  0
  -41.1852   58.7540   59.9972 C   0  0  0  0  0  0  0  0  0  0  0  0
  -41.5721   60.1991   60.2718 C   0  0  0  0  0  0  0  0  0  0  0  0
  -41.1432   60.6978   61.6404 C   0  0  0  0  0  0  0  0  0  0  0  0
  -42.2973   61.0656   62.5541 C   0  0  0  0  0  0  0  0  0  0  0  0
  -43.0477   59.8677   63.1104 C   0  0  0  0  0  0  0  0  0  0  0  0
  -42.1368   58.7032   63.4520 C   0  0  0  0  0  0  0  0  0  0  0  0
  -42.6705   57.3468   63.0327 C   0  0  0  0  0  0  0  0  0  0  0  0
  -41.8502   56.2003   63.5907 C   0  0  0  0  0  0  0  0  0  0  0  0
  -41.2701   55.3190   62.5037 C   0  0  0  0  0  0  0  0  0  0  0  0
  -33.1601   60.7833   63.3774 C   0  0  0  0  0  0  0  0  0  0  0  0
  -33.4841   62.0070   62.7078 O   0  0  0  0  0  0  0  0  0  0  0  0
  -32.1270   63.3464   60.6571 O   0  0  0  0  0  0  0  0  0  0  0  0
  -33.4843   66.4570   63.3035 O   0  0  0  0  0  0  0  0  0  0  0  0
  -33.0577   63.7454   64.1654 O   0  0  0  0  0  0  0  0  0  0  0  0
  -32.6232   63.0687   63.0005 C   0  0  0  0  0  0  0  0  0  0  0  0
  -32.6222   64.0174   61.8088 C   0  0  0  0  0  0  0  0  0  0  0  0
  -31.7633   65.2369   62.1185 C   0  0  0  0  0  0  0  0  0  0  0  0
  -32.1863   65.8850   63.4286 C   0  0  0  0  0  0  0  0  0  0  0  0
  -32.2007   64.8364   64.5381 C   0  0  0  0  0  0  0  0  0  0  0  0
  -32.6815   62.5727   60.4702 H   0  0  0  0  0  0  0  0  0  0  0  0
  -33.4774   67.1236   62.5989 H   0  0  0  0  0  0  0  0  0  0  0  0
  -33.3458   64.3493   66.6215 O   0  0  0  0  0  0  0  0  0  0  0  0
  -32.7182   65.3697   65.8535 C   0  0  0  0  0  0  0  0  0  0  0  0
  -33.6659   64.7240   67.4569 H   0  0  0  0  0  0  0  0  0  0  0  0
  -32.0192   66.1595   61.0128 O   0  0  0  0  0  0  0  0  0  0  0  0
  -30.9870   65.7685   58.8707 O   0  0  0  0  0  0  0  0  0  0  0  0
  -29.6276   66.6092   60.8100 O   0  0  0  0  0  0  0  0  0  0  0  0
  -31.2187   67.9832   59.7067 O   0  0  0  0  0  0  0  0  0  0  0  0
  -30.8165   66.5386   60.0467 S   0  0  0  0  0  0  0  0  0  0  0  0
  -30.7412   64.8473   59.0491 H   0  0  0  0  0  0  0  0  0  0  0  0
  -32.0339   67.9766   59.1811 H   0  0  0  0  0  0  0  0  0  0  0  0
  2  1  1  0  0  0
  2  4  1  0  0  0
  2  5  1  0  0  0
 47 48  1  0  0  0
 47  1  1  0  0  0
 48 52  1  0  0  0
  1 30  1  0  0  0
 29 30  1  0  0  0
 29 31  1  0  0  0
 30 32  1  0  0  0
  3  4  2  0  0  0
 32 33  2  0  0  0
 49 53  1  0  0  0
 49 57  1  0  0  0
 33 34  1  0  0  0
 62 54  1  0  0  0
 62 66  1  0  0  0
 34 35  1  0  0  0
 50 55  1  0  0  0
 50 58  1  0  0  0
 35 36  1  0  0  0
 51 52  1  0  0  0
 51 56  1  0  0  0
 36 37  1  0  0  0
 59 60  1  0  0  0
 59 61  1  0  0  0
 37 38  1  0  0  0
 63 66  1  0  0  0
 63 67  1  0  0  0
 38 39  1  0  0  0
 64 66  1  0  0  0
 39 40  1  0  0  0
 65 66  1  0  0  0
 65 68  1  0  0  0
 40 41  1  0  0  0
 41 42  1  0  0  0
 42 43  1  0  0  0
 43 44  1  0  0  0
 44 45  1  0  0  0
 45 46  1  0  0  0
  4  6  1  0  0  0
  6  7  1  0  0  0
  7  8  1  0  0  0
  8  9  1  0  0  0
  9 10  1  0  0  0
 10 11  1  0  0  0
 11 12  1  0  0  0
 12 13  1  0  0  0
 13 14  1  0  0  0
 14 15  1  0  0  0
 15 16  1  0  0  0
 16 17  1  0  0  0
 17 18  1  0  0  0
 18 19  1  0  0  0
 19 20  2  0  0  0
 20 21  1  0  0  0
 21 22  1  0  0  0
 22 23  1  0  0  0
 23 24  1  0  0  0
 24 25  1  0  0  0
 25 26  1  0  0  0
 26 27  1  0  0  0
 27 28  1  0  0  0
 52 53  1  0  0  0
 53 54  1  0  0  0
 54 55  1  0  0  0
 55 56  1  0  0  0
 56 60  1  0  0  0
M  CHG 1  64  -1
M  END
> <minimizedAffinity>
-9.51451

> <CNNscore>
0.1657624394

> <CNNaffinity>
7.0755562782

> <CNN_VS>
1.1728614569

> <CNNaffinity_variance>
1.4114519358

$$$$
/media/chris/experiments/cd1a-new-docking/inputs/ligands/7ryn_ligand.pdb


 68 68  0  0  0  0  0  0  0  0999 V2000
  -37.1828   59.8381   63.5084 C   0  0  0  0  0  0  0  0  0  0  0  0
  -38.6042   60.1644   63.5742 N   0  0  0  0  0  0  0  0  0  0  0  0
  -40.5813   60.5254   62.5600 O   0  0  0  0  0  0  0  0  0  0  0  0
  -39.3895   60.2380   62.4963 C   0  0  0  0  0  0  0  0  0  0  0  0
  -39.0037   60.3388   64.4569 H   0  0  0  0  0  0  0  0  0  0  0  0
  -38.7159   59.9508   61.1776 C   0  0  0  0  0  0  0  0  0  0  0  0
  -39.0344   58.5579   60.6493 C   0  0  0  0  0  0  0  0  0  0  0  0
  -40.3645   58.4989   59.9155 C   0  0  0  0  0  0  0  0  0  0  0  0
  -41.4297   57.6882   60.6349 C   0  0  0  0  0  0  0  0  0  0  0  0
  -40.8704   56.6893   61.6368 C   0  0  0  0  0  0  0  0  0  0  0  0
  -41.6508   56.6187   62.9432 C   0  0  0  0  0  0  0  0  0  0  0  0
  -40.9407   57.2716   64.1220 C   0  0  0  0  0  0  0  0  0  0  0  0
  -41.7959   58.2632   64.9067 C   0  0  0  0  0  0  0  0  0  0  0  0
  -43.2582   58.3083   64.4664 C   0  0  0  0  0  0  0  0  0  0  0  0
  -44.2236   57.5598   65.3851 C   0  0  0  0  0  0  0  0  0  0  0  0
  -45.3769   58.4259   65.8919 C   0  0  0  0  0  0  0  0  0  0  0  0
  -46.5074   58.6506   64.8878 C   0  0  0  0  0  0  0  0  0  0  0  0
  -47.7810   59.2629   65.4767 C   0  0  0  0  0  0  0  0  0  0  0  0
  -48.3376   60.3740   64.6341 C   0  0  0  0  0  0  0  0  0  0  0  0
  -49.4700   60.3429   63.9539 C   0  0  0  0  0  0  0  0  0  0  0  0
  -50.4284   59.1926   63.8892 C   0  0  0  0  0  0  0  0  0  0  0  0
  -50.5989   58.6130   62.4833 C   0  0  0  0  0  0  0  0  0  0  0  0
  -50.2162   59.5894   61.3791 C   0  0  0  0  0  0  0  0  0  0  0  0
  -49.2745   58.9897   60.3408 C   0  0  0  0  0  0  0  0  0  0  0  0
  -49.1162   57.4762   60.4317 C   0  0  0  0  0  0  0  0  0  0  0  0
  -48.3481   56.8693   59.2661 C   0  0  0  0  0  0  0  0  0  0  0  0
  -47.8341   57.8883   58.2615 C   0  0  0  0  0  0  0  0  0  0  0  0
  -47.5900   57.2923   56.8899 C   0  0  0  0  0  0  0  0  0  0  0  0
  -37.4555   57.8619   64.8702 O   0  0  0  0  0  0  0  0  0  0  0  0
  -37.0057   58.3134   63.5896 C   0  0  0  0  0  0  0  0  0  0  0  0
  -38.3778   58.1316   65.0026 H   0  0  0  0  0  0  0  0  0  0  0  0
  -35.5819   57.9139   63.3503 C   0  0  0  0  0  0  0  0  0  0  0  0
  -34.9223   58.0974   62.2236 C   0  0  0  0  0  0  0  0  0  0  0  0
  -33.4967   57.7009   62.0208 C   0  0  0  0  0  0  0  0  0  0  0  0
  -32.6411   58.0865   63.2293 C   0  0  0  0  0  0  0  0  0  0  0  0
  -31.9125   59.4121   63.0793 C   0  0  0  0  0  0  0  0  0  0  0  0
  -32.0536   60.0509   61.7083 C   0  0  0  0  0  0  0  0  0  0  0  0
  -30.9113   60.9868   61.3411 C   0  0  0  0  0  0  0  0  0  0  0  0
  -29.5914   60.6303   62.0076 C   0  0  0  0  0  0  0  0  0  0  0  0
  -29.0358   61.7321   62.8927 C   0  0  0  0  0  0  0  0  0  0  0  0
  -30.0060   62.8711   63.1446 C   0  0  0  0  0  0  0  0  0  0  0  0
  -29.3397   64.1575   63.6014 C   0  0  0  0  0  0  0  0  0  0  0  0
  -29.7255   65.3579   62.7571 C   0  0  0  0  0  0  0  0  0  0  0  0
  -29.2836   65.2727   61.3087 C   0  0  0  0  0  0  0  0  0  0  0  0
  -30.4516   65.1540   60.3494 C   0  0  0  0  0  0  0  0  0  0  0  0
  -30.2068   65.8825   59.0440 C   0  0  0  0  0  0  0  0  0  0  0  0
  -36.4331   60.5572   64.6108 C   0  0  0  0  0  0  0  0  0  0  0  0
  -35.2752   61.1759   64.0387 O   0  0  0  0  0  0  0  0  0  0  0  0
  -33.8132   62.3194   66.1354 O   0  0  0  0  0  0  0  0  0  0  0  0
  -32.9438   64.7755   62.7099 O   0  0  0  0  0  0  0  0  0  0  0  0
  -35.3436   63.2051   62.9406 O   0  0  0  0  0  0  0  0  0  0  0  0
  -35.2267   62.5639   64.1971 C   0  0  0  0  0  0  0  0  0  0  0  0
  -33.8960   62.9181   64.8483 C   0  0  0  0  0  0  0  0  0  0  0  0
  -33.7614   64.4314   64.9611 C   0  0  0  0  0  0  0  0  0  0  0  0
  -33.9930   65.1027   63.6154 C   0  0  0  0  0  0  0  0  0  0  0  0
  -35.3260   64.6386   63.0337 C   0  0  0  0  0  0  0  0  0  0  0  0
  -33.9001   61.3570   66.0505 H   0  0  0  0  0  0  0  0  0  0  0  0
  -32.0958   65.0695   63.0777 H   0  0  0  0  0  0  0  0  0  0  0  0
  -35.4271   64.1572   60.6573 O   0  0  0  0  0  0  0  0  0  0  0  0
  -35.5856   65.1705   61.6437 C   0  0  0  0  0  0  0  0  0  0  0  0
  -35.6002   64.5308   59.7791 H   0  0  0  0  0  0  0  0  0  0  0  0
  -32.3779   64.6488   65.3831 O   0  0  0  0  0  0  0  0  0  0  0  0
  -32.8086   66.0699   67.2810 O   0  0  0  0  0  0  0  0  0  0  0  0
  -31.9167   67.0343   65.1386 O   0  0  0  0  0  0  0  0  0  0  0  0
  -30.5778   65.6782   66.5546 O   0  0  0  0  0  0  0  0  0  0  0  0
  -32.0119   66.0121   66.1118 S   0  0  0  0  0  0  0  0  0  0  0  0
  -33.7240   66.2795   67.0384 H   0  0  0  0  0  0  0  0  0  0  0  0
  -30.6014   64.9777   67.2252 H   0  0  0  0  0  0  0  0  0  0  0  0
  2  1  1  0  0  0
  2  4  1  0  0  0
  2  5  1  0  0  0
 47 48  1  0  0  0
 47  1  1  0  0  0
 48 52  1  0  0  0
  1 30  1  0  0  0
 29 30  1  0  0  0
 29 31  1  0  0  0
 30 32  1  0  0  0
  3  4  2  0  0  0
 32 33  2  0  0  0
 49 53  1  0  0  0
 49 57  1  0  0  0
 33 34  1  0  0  0
 62 54  1  0  0  0
 62 66  1  0  0  0
 34 35  1  0  0  0
 50 55  1  0  0  0
 50 58  1  0  0  0
 35 36  1  0  0  0
 51 52  1  0  0  0
 51 56  1  0  0  0
 36 37  1  0  0  0
 59 60  1  0  0  0
 59 61  1  0  0  0
 37 38  1  0  0  0
 63 66  1  0  0  0
 63 67  1  0  0  0
 38 39  1  0  0  0
 64 66  1  0  0  0
 39 40  1  0  0  0
 65 66  1  0  0  0
 65 68  1  0  0  0
 40 41  1  0  0  0
 41 42  1  0  0  0
 42 43  1  0  0  0
 43 44  1  0  0  0
 44 45  1  0  0  0
 45 46  1  0  0  0
  4  6  1  0  0  0
  6  7  1  0  0  0
  7  8  1  0  0  0
  8  9  1  0  0  0
  9 10  1  0  0  0
 10 11  1  0  0  0
 11 12  1  0  0  0
 12 13  1  0  0  0
 13 14  1  0  0  0
 14 15  1  0  0  0
 15 16  1  0  0  0
 16 17  1  0  0  0
 17 18  1  0  0  0
 18 19  1  0  0  0
 19 20  2  0  0  0
 20 21  1  0  0  0
 21 22  1  0  0  0
 22 23  1  0  0  0
 23 24  1  0  0  0
 24 25  1  0  0  0
 25 26  1  0  0  0
 26 27  1  0  0  0
 27 28  1  0  0  0
 52 53  1  0  0  0
 53 54  1  0  0  0
 54 55  1  0  0  0
 55 56  1  0  0  0
 56 60  1  0  0  0
M  CHG 1  64  -1
M  END
> <minimizedAffinity>
-9.29677

> <CNNscore>
0.1496411860

> <CNNaffinity>
6.9885392189

> <CNN_VS>
1.0457732677

> <CNNaffinity_variance>
0.9719440341

$$$$
/media/chris/experiments/cd1a-new-docking/inputs/ligands/7ryn_ligand.pdb


 68 68  0  0  0  0  0  0  0  0999 V2000
  -37.8154   61.3139   63.7549 C   0  0  0  0  0  0  0  0  0  0  0  0
  -37.4776   59.9306   64.0767 N   0  0  0  0  0  0  0  0  0  0  0  0
  -37.7150   58.1059   65.3735 O   0  0  0  0  0  0  0  0  0  0  0  0
  -38.0145   59.2652   65.1030 C   0  0  0  0  0  0  0  0  0  0  0  0
  -36.8215   59.4651   63.5092 H   0  0  0  0  0  0  0  0  0  0  0  0
  -39.0183   60.0341   65.9254 C   0  0  0  0  0  0  0  0  0  0  0  0
  -40.4415   59.5244   65.7375 C   0  0  0  0  0  0  0  0  0  0  0  0
  -41.4750   60.4056   66.4206 C   0  0  0  0  0  0  0  0  0  0  0  0
  -42.5136   59.6331   67.2168 C   0  0  0  0  0  0  0  0  0  0  0  0
  -42.4180   58.1238   67.0517 C   0  0  0  0  0  0  0  0  0  0  0  0
  -43.5570   57.5153   66.2436 C   0  0  0  0  0  0  0  0  0  0  0  0
  -44.6981   58.4835   65.9598 C   0  0  0  0  0  0  0  0  0  0  0  0
  -46.0546   58.0407   66.5021 C   0  0  0  0  0  0  0  0  0  0  0  0
  -47.1806   58.0818   65.4703 C   0  0  0  0  0  0  0  0  0  0  0  0
  -47.2486   59.3712   64.6523 C   0  0  0  0  0  0  0  0  0  0  0  0
  -48.4305   60.2667   65.0245 C   0  0  0  0  0  0  0  0  0  0  0  0
  -49.3330   59.7207   66.1309 C   0  0  0  0  0  0  0  0  0  0  0  0
  -50.6654   59.1407   65.6490 C   0  0  0  0  0  0  0  0  0  0  0  0
  -51.3304   59.9938   64.6077 C   0  0  0  0  0  0  0  0  0  0  0  0
  -51.4789   59.6893   63.3305 C   0  0  0  0  0  0  0  0  0  0  0  0
  -51.0158   58.4289   62.6649 C   0  0  0  0  0  0  0  0  0  0  0  0
  -49.6016   58.5225   62.0879 C   0  0  0  0  0  0  0  0  0  0  0  0
  -49.5651   59.0790   60.6708 C   0  0  0  0  0  0  0  0  0  0  0  0
  -49.8323   58.0265   59.6006 C   0  0  0  0  0  0  0  0  0  0  0  0
  -49.0330   56.7392   59.7677 C   0  0  0  0  0  0  0  0  0  0  0  0
  -47.6513   56.7887   59.1311 C   0  0  0  0  0  0  0  0  0  0  0  0
  -47.4672   57.9186   58.1305 C   0  0  0  0  0  0  0  0  0  0  0  0
  -47.4827   57.4408   56.6926 C   0  0  0  0  0  0  0  0  0  0  0  0
  -40.1634   61.3281   63.1879 O   0  0  0  0  0  0  0  0  0  0  0  0
  -38.8509   61.3346   62.6190 C   0  0  0  0  0  0  0  0  0  0  0  0
  -40.2602   62.0855   63.7863 H   0  0  0  0  0  0  0  0  0  0  0  0
  -38.6650   60.1763   61.6874 C   0  0  0  0  0  0  0  0  0  0  0  0
  -39.2033   60.0741   60.4883 C   0  0  0  0  0  0  0  0  0  0  0  0
  -38.9865   58.9115   59.5760 C   0  0  0  0  0  0  0  0  0  0  0  0
  -40.2816   58.1225   59.3729 C   0  0  0  0  0  0  0  0  0  0  0  0
  -41.4961   58.7326   60.0537 C   0  0  0  0  0  0  0  0  0  0  0  0
  -42.2385   57.7814   60.9766 C   0  0  0  0  0  0  0  0  0  0  0  0
  -42.0005   58.0433   62.4566 C   0  0  0  0  0  0  0  0  0  0  0  0
  -41.4696   56.8354   63.2131 C   0  0  0  0  0  0  0  0  0  0  0  0
  -40.1820   56.2713   62.6387 C   0  0  0  0  0  0  0  0  0  0  0  0
  -39.0238   57.2515   62.6378 C   0  0  0  0  0  0  0  0  0  0  0  0
  -37.6950   56.6337   62.2378 C   0  0  0  0  0  0  0  0  0  0  0  0
  -36.5981   57.6630   62.0382 C   0  0  0  0  0  0  0  0  0  0  0  0
  -35.3342   57.3932   62.8319 C   0  0  0  0  0  0  0  0  0  0  0  0
  -34.1287   58.1239   62.2738 C   0  0  0  0  0  0  0  0  0  0  0  0
  -32.9600   58.1361   63.2375 C   0  0  0  0  0  0  0  0  0  0  0  0
  -36.5619   62.0848   63.3959 C   0  0  0  0  0  0  0  0  0  0  0  0
  -35.4405   61.2025   63.5165 O   0  0  0  0  0  0  0  0  0  0  0  0
  -32.8685   61.5742   62.4732 O   0  0  0  0  0  0  0  0  0  0  0  0
  -33.5933   65.0535   64.9005 O   0  0  0  0  0  0  0  0  0  0  0  0
  -34.9321   62.5426   65.3258 O   0  0  0  0  0  0  0  0  0  0  0  0
  -34.4092   61.6894   64.3247 C   0  0  0  0  0  0  0  0  0  0  0  0
  -33.4347   62.4529   63.4372 C   0  0  0  0  0  0  0  0  0  0  0  0
  -32.3376   63.0772   64.2902 C   0  0  0  0  0  0  0  0  0  0  0  0
  -32.9292   63.9063   65.4207 C   0  0  0  0  0  0  0  0  0  0  0  0
  -33.9251   63.0602   66.2101 C   0  0  0  0  0  0  0  0  0  0  0  0
  -33.5761   61.1834   61.9369 H   0  0  0  0  0  0  0  0  0  0  0  0
  -32.9622   65.5925   64.3984 H   0  0  0  0  0  0  0  0  0  0  0  0
  -35.5723   63.0219   67.9917 O   0  0  0  0  0  0  0  0  0  0  0  0
  -34.6456   63.8389   67.2856 C   0  0  0  0  0  0  0  0  0  0  0  0
  -36.0164   63.5509   68.6727 H   0  0  0  0  0  0  0  0  0  0  0  0
  -31.6093   63.9527   63.3725 O   0  0  0  0  0  0  0  0  0  0  0  0
  -29.5650   63.9587   64.6483 O   0  0  0  0  0  0  0  0  0  0  0  0
  -29.5583   64.6082   62.2206 O   0  0  0  0  0  0  0  0  0  0  0  0
  -29.8956   62.3632   62.9155 O   0  0  0  0  0  0  0  0  0  0  0  0
  -30.0256   63.8424   63.3143 S   0  0  0  0  0  0  0  0  0  0  0  0
  -29.6328   64.8831   64.9343 H   0  0  0  0  0  0  0  0  0  0  0  0
  -30.2078   61.8034   63.6435 H   0  0  0  0  0  0  0  0  0  0  0  0
  2  1  1  0  0  0
  2  4  1  0  0  0
  2  5  1  0  0  0
 47 48  1  0  0  0
 47  1  1  0  0  0
 48 52  1  0  0  0
  1 30  1  0  0  0
 29 30  1  0  0  0
 29 31  1  0  0  0
 30 32  1  0  0  0
  3  4  2  0  0  0
 32 33  2  0  0  0
 49 53  1  0  0  0
 49 57  1  0  0  0
 33 34  1  0  0  0
 62 54  1  0  0  0
 62 66  1  0  0  0
 34 35  1  0  0  0
 50 55  1  0  0  0
 50 58  1  0  0  0
 35 36  1  0  0  0
 51 52  1  0  0  0
 51 56  1  0  0  0
 36 37  1  0  0  0
 59 60  1  0  0  0
 59 61  1  0  0  0
 37 38  1  0  0  0
 63 66  1  0  0  0
 63 67  1  0  0  0
 38 39  1  0  0  0
 64 66  1  0  0  0
 39 40  1  0  0  0
 65 66  1  0  0  0
 65 68  1  0  0  0
 40 41  1  0  0  0
 41 42  1  0  0  0
 42 43  1  0  0  0
 43 44  1  0  0  0
 44 45  1  0  0  0
 45 46  1  0  0  0
  4  6  1  0  0  0
  6  7  1  0  0  0
  7  8  1  0  0  0
  8  9  1  0  0  0
  9 10  1  0  0  0
 10 11  1  0  0  0
 11 12  1  0  0  0
 12 13  1  0  0  0
 13 14  1  0  0  0
 14 15  1  0  0  0
 15 16  1  0  0  0
 16 17  1  0  0  0
 17 18  1  0  0  0
 18 19  1  0  0  0
 19 20  2  0  0  0
 20 21  1  0  0  0
 21 22  1  0  0  0
 22 23  1  0  0  0
 23 24  1  0  0  0
 24 25  1  0  0  0
 25 26  1  0  0  0
 26 27  1  0  0  0
 27 28  1  0  0  0
 52 53  1  0  0  0
 53 54  1  0  0  0
 54 55  1  0  0  0
 55 56  1  0  0  0
 56 60  1  0  0  0
M  CHG 1  64  -1
M  END
> <minimizedAffinity>
-9.37061

> <CNNscore>
0.1476574987

> <CNNaffinity>
7.2430639267

> <CNN_VS>
1.0694926977

> <CNNaffinity_variance>
1.4121217728

$$$$
/media/chris/experiments/cd1a-new-docking/inputs/ligands/7ryn_ligand.pdb


 68 68  0  0  0  0  0  0  0  0999 V2000
  -34.6255   61.3346   64.6340 C   0  0  0  0  0  0  0  0  0  0  0  0
  -34.9106   61.9423   65.9304 N   0  0  0  0  0  0  0  0  0  0  0  0
  -36.3794   62.6834   67.4671 O   0  0  0  0  0  0  0  0  0  0  0  0
  -36.1492   62.1602   66.3807 C   0  0  0  0  0  0  0  0  0  0  0  0
  -34.1525   62.2046   66.5009 H   0  0  0  0  0  0  0  0  0  0  0  0
  -37.2634   61.7268   65.4609 C   0  0  0  0  0  0  0  0  0  0  0  0
  -38.0234   60.5181   65.9921 C   0  0  0  0  0  0  0  0  0  0  0  0
  -39.3337   60.2806   65.2586 C   0  0  0  0  0  0  0  0  0  0  0  0
  -40.1663   59.1479   65.8358 C   0  0  0  0  0  0  0  0  0  0  0  0
  -41.6648   59.3256   65.6425 C   0  0  0  0  0  0  0  0  0  0  0  0
  -42.5027   58.8492   66.8223 C   0  0  0  0  0  0  0  0  0  0  0  0
  -43.2284   57.5336   66.5723 C   0  0  0  0  0  0  0  0  0  0  0  0
  -43.9364   57.4469   65.2226 C   0  0  0  0  0  0  0  0  0  0  0  0
  -45.2030   58.2961   65.1288 C   0  0  0  0  0  0  0  0  0  0  0  0
  -46.3766   57.7841   65.9635 C   0  0  0  0  0  0  0  0  0  0  0  0
  -47.0625   58.8766   66.7841 C   0  0  0  0  0  0  0  0  0  0  0  0
  -48.4277   59.3200   66.2584 C   0  0  0  0  0  0  0  0  0  0  0  0
  -48.8509   58.6739   64.9366 C   0  0  0  0  0  0  0  0  0  0  0  0
  -48.7013   59.5970   63.7619 C   0  0  0  0  0  0  0  0  0  0  0  0
  -49.6392   59.8917   62.8790 C   0  0  0  0  0  0  0  0  0  0  0  0
  -51.0425   59.3657   62.8745 C   0  0  0  0  0  0  0  0  0  0  0  0
  -51.2127   58.0756   62.0693 C   0  0  0  0  0  0  0  0  0  0  0  0
  -50.3949   58.0553   60.7848 C   0  0  0  0  0  0  0  0  0  0  0  0
  -49.4827   56.8394   60.6677 C   0  0  0  0  0  0  0  0  0  0  0  0
  -48.7442   56.7299   59.3386 C   0  0  0  0  0  0  0  0  0  0  0  0
  -48.1024   58.0334   58.8848 C   0  0  0  0  0  0  0  0  0  0  0  0
  -47.4368   57.9572   57.5199 C   0  0  0  0  0  0  0  0  0  0  0  0
  -47.2249   56.5336   57.0462 C   0  0  0  0  0  0  0  0  0  0  0  0
  -33.0427   59.5142   64.5084 O   0  0  0  0  0  0  0  0  0  0  0  0
  -34.4048   59.8244   64.8167 C   0  0  0  0  0  0  0  0  0  0  0  0
  -32.4554   60.0417   65.0722 H   0  0  0  0  0  0  0  0  0  0  0  0
  -35.3424   59.0266   63.9632 C   0  0  0  0  0  0  0  0  0  0  0  0
  -35.2387   58.8787   62.6573 C   0  0  0  0  0  0  0  0  0  0  0  0
  -36.1824   58.0634   61.8354 C   0  0  0  0  0  0  0  0  0  0  0  0
  -37.1632   57.2952   62.7238 C   0  0  0  0  0  0  0  0  0  0  0  0
  -38.6077   57.7508   62.5962 C   0  0  0  0  0  0  0  0  0  0  0  0
  -39.6199   56.6184   62.5704 C   0  0  0  0  0  0  0  0  0  0  0  0
  -40.9938   57.0044   63.0987 C   0  0  0  0  0  0  0  0  0  0  0  0
  -42.0762   57.0226   62.0303 C   0  0  0  0  0  0  0  0  0  0  0  0
  -41.5361   56.9815   60.6116 C   0  0  0  0  0  0  0  0  0  0  0  0
  -41.7529   58.2639   59.8302 C   0  0  0  0  0  0  0  0  0  0  0  0
  -40.6706   59.3074   60.0473 C   0  0  0  0  0  0  0  0  0  0  0  0
  -41.2033   60.6018   60.6333 C   0  0  0  0  0  0  0  0  0  0  0  0
  -41.3866   60.5790   62.1387 C   0  0  0  0  0  0  0  0  0  0  0  0
  -42.7578   61.0646   62.5659 C   0  0  0  0  0  0  0  0  0  0  0  0
  -43.0952   62.4263   61.9945 C   0  0  0  0  0  0  0  0  0  0  0  0
  -33.4303   62.0108   63.9948 C   0  0  0  0  0  0  0  0  0  0  0  0
  -33.6175   62.0087   62.5751 O   0  0  0  0  0  0  0  0  0  0  0  0
  -34.6163   64.0399   60.9265 O   0  0  0  0  0  0  0  0  0  0  0  0
  -31.3307   65.8443   63.0411 O   0  0  0  0  0  0  0  0  0  0  0  0
  -31.5373   63.0091   62.5971 O   0  0  0  0  0  0  0  0  0  0  0  0
  -32.7465   62.8513   61.8784 C   0  0  0  0  0  0  0  0  0  0  0  0
  -33.4346   64.1987   61.7013 C   0  0  0  0  0  0  0  0  0  0  0  0
  -32.4865   65.1790   61.0221 C   0  0  0  0  0  0  0  0  0  0  0  0
  -31.1566   65.2521   61.7579 C   0  0  0  0  0  0  0  0  0  0  0  0
  -30.5842   63.8465   61.9231 C   0  0  0  0  0  0  0  0  0  0  0  0
  -35.2112   63.4143   61.3687 H   0  0  0  0  0  0  0  0  0  0  0  0
  -31.6944   66.7376   62.9384 H   0  0  0  0  0  0  0  0  0  0  0  0
  -29.1109   62.5380   63.3395 O   0  0  0  0  0  0  0  0  0  0  0  0
  -29.3159   63.8136   62.7433 C   0  0  0  0  0  0  0  0  0  0  0  0
  -28.2909   62.5510   63.8574 H   0  0  0  0  0  0  0  0  0  0  0  0
  -33.1653   66.4715   61.1115 O   0  0  0  0  0  0  0  0  0  0  0  0
  -33.4957   68.0950   62.8613 O   0  0  0  0  0  0  0  0  0  0  0  0
  -34.0092   65.6670   63.2571 O   0  0  0  0  0  0  0  0  0  0  0  0
  -35.3617   67.0201   61.8512 O   0  0  0  0  0  0  0  0  0  0  0  0
  -33.9565   66.8229   62.4434 S   0  0  0  0  0  0  0  0  0  0  0  0
  -32.6078   68.0082   63.2420 H   0  0  0  0  0  0  0  0  0  0  0  0
  -35.3661   67.8071   61.2843 H   0  0  0  0  0  0  0  0  0  0  0  0
  2  1  1  0  0  0
  2  4  1  0  0  0
  2  5  1  0  0  0
 47 48  1  0  0  0
 47  1  1  0  0  0
 48 52  1  0  0  0
  1 30  1  0  0  0
 29 30  1  0  0  0
 29 31  1  0  0  0
 30 32  1  0  0  0
  3  4  2  0  0  0
 32 33  2  0  0  0
 49 53  1  0  0  0
 49 57  1  0  0  0
 33 34  1  0  0  0
 62 54  1  0  0  0
 62 66  1  0  0  0
 34 35  1  0  0  0
 50 55  1  0  0  0
 50 58  1  0  0  0
 35 36  1  0  0  0
 51 52  1  0  0  0
 51 56  1  0  0  0
 36 37  1  0  0  0
 59 60  1  0  0  0
 59 61  1  0  0  0
 37 38  1  0  0  0
 63 66  1  0  0  0
 63 67  1  0  0  0
 38 39  1  0  0  0
 64 66  1  0  0  0
 39 40  1  0  0  0
 65 66  1  0  0  0
 65 68  1  0  0  0
 40 41  1  0  0  0
 41 42  1  0  0  0
 42 43  1  0  0  0
 43 44  1  0  0  0
 44 45  1  0  0  0
 45 46  1  0  0  0
  4  6  1  0  0  0
  6  7  1  0  0  0
  7  8  1  0  0  0
  8  9  1  0  0  0
  9 10  1  0  0  0
 10 11  1  0  0  0
 11 12  1  0  0  0
 12 13  1  0  0  0
 13 14  1  0  0  0
 14 15  1  0  0  0
 15 16  1  0  0  0
 16 17  1  0  0  0
 17 18  1  0  0  0
 18 19  1  0  0  0
 19 20  2  0  0  0
 20 21  1  0  0  0
 21 22  1  0  0  0
 22 23  1  0  0  0
 23 24  1  0  0  0
 24 25  1  0  0  0
 25 26  1  0  0  0
 26 27  1  0  0  0
 27 28  1  0  0  0
 52 53  1  0  0  0
 53 54  1  0  0  0
 54 55  1  0  0  0
 55 56  1  0  0  0
 56 60  1  0  0  0
M  CHG 1  64  -1
M  END
> <minimizedAffinity>
-9.34209

> <CNNscore>
0.1469814926

> <CNNaffinity>
7.1425719261

> <CNN_VS>
1.0498259068

> <CNNaffinity_variance>
1.6062843800

$$$$
/media/chris/experiments/cd1a-new-docking/inputs/ligands/7ryn_ligand.pdb


 68 68  0  0  0  0  0  0  0  0999 V2000
  -36.6430   58.4415   63.0113 C   0  0  0  0  0  0  0  0  0  0  0  0
  -36.5310   59.7986   63.5375 N   0  0  0  0  0  0  0  0  0  0  0  0
  -37.1942   61.4083   64.9647 O   0  0  0  0  0  0  0  0  0  0  0  0
  -37.2868   60.2614   64.5369 C   0  0  0  0  0  0  0  0  0  0  0  0
  -35.8655   60.4027   63.1357 H   0  0  0  0  0  0  0  0  0  0  0  0
  -38.2789   59.2817   65.1121 C   0  0  0  0  0  0  0  0  0  0  0  0
  -39.3056   59.9518   66.0164 C   0  0  0  0  0  0  0  0  0  0  0  0
  -40.7324   59.5431   65.6874 C   0  0  0  0  0  0  0  0  0  0  0  0
  -41.7770   60.1623   66.6011 C   0  0  0  0  0  0  0  0  0  0  0  0
  -42.8257   59.1764   67.0936 C   0  0  0  0  0  0  0  0  0  0  0  0
  -42.6761   57.7736   66.5186 C   0  0  0  0  0  0  0  0  0  0  0  0
  -43.8155   57.3603   65.5961 C   0  0  0  0  0  0  0  0  0  0  0  0
  -44.9109   58.4108   65.4321 C   0  0  0  0  0  0  0  0  0  0  0  0
  -46.1950   58.0952   66.1974 C   0  0  0  0  0  0  0  0  0  0  0  0
  -47.4824   58.4715   65.4644 C   0  0  0  0  0  0  0  0  0  0  0  0
  -48.7068   57.6923   65.9451 C   0  0  0  0  0  0  0  0  0  0  0  0
  -50.0239   58.4671   65.9050 C   0  0  0  0  0  0  0  0  0  0  0  0
  -49.9912   59.7522   65.0735 C   0  0  0  0  0  0  0  0  0  0  0  0
  -51.3094   60.0606   64.4243 C   0  0  0  0  0  0  0  0  0  0  0  0
  -51.6992   59.6624   63.2262 C   0  0  0  0  0  0  0  0  0  0  0  0
  -50.9044   58.8197   62.2753 C   0  0  0  0  0  0  0  0  0  0  0  0
  -49.8708   59.6103   61.4702 C   0  0  0  0  0  0  0  0  0  0  0  0
  -49.2889   58.8253   60.3021 C   0  0  0  0  0  0  0  0  0  0  0  0
  -48.7464   57.4580   60.7025 C   0  0  0  0  0  0  0  0  0  0  0  0
  -48.3586   56.5645   59.5298 C   0  0  0  0  0  0  0  0  0  0  0  0
  -48.8293   57.0866   58.1797 C   0  0  0  0  0  0  0  0  0  0  0  0
  -47.7904   56.9799   57.0746 C   0  0  0  0  0  0  0  0  0  0  0  0
  -46.8141   58.1386   57.0698 C   0  0  0  0  0  0  0  0  0  0  0  0
  -35.8240   57.0721   64.8248 O   0  0  0  0  0  0  0  0  0  0  0  0
  -35.4752   57.5925   63.5387 C   0  0  0  0  0  0  0  0  0  0  0  0
  -36.6462   56.5621   64.7551 H   0  0  0  0  0  0  0  0  0  0  0  0
  -34.2077   58.3877   63.6082 C   0  0  0  0  0  0  0  0  0  0  0  0
  -33.1112   58.1277   62.9238 C   0  0  0  0  0  0  0  0  0  0  0  0
  -31.8666   58.9495   63.0039 C   0  0  0  0  0  0  0  0  0  0  0  0
  -32.0972   60.3535   62.4410 C   0  0  0  0  0  0  0  0  0  0  0  0
  -31.0001   60.8383   61.5073 C   0  0  0  0  0  0  0  0  0  0  0  0
  -29.6204   60.8945   62.1406 C   0  0  0  0  0  0  0  0  0  0  0  0
  -29.3388   62.1847   62.8969 C   0  0  0  0  0  0  0  0  0  0  0  0
  -29.9351   63.4202   62.2403 C   0  0  0  0  0  0  0  0  0  0  0  0
  -29.8821   64.6623   63.1123 C   0  0  0  0  0  0  0  0  0  0  0  0
  -30.0388   64.3835   64.5955 C   0  0  0  0  0  0  0  0  0  0  0  0
  -30.9549   65.3608   65.3120 C   0  0  0  0  0  0  0  0  0  0  0  0
  -32.3512   64.8105   65.5354 C   0  0  0  0  0  0  0  0  0  0  0  0
  -32.4777   63.3152   65.3149 C   0  0  0  0  0  0  0  0  0  0  0  0
  -33.5835   62.9618   64.3398 C   0  0  0  0  0  0  0  0  0  0  0  0
  -33.9318   64.1107   63.4160 C   0  0  0  0  0  0  0  0  0  0  0  0
  -36.6849   58.4731   61.4975 C   0  0  0  0  0  0  0  0  0  0  0  0
  -37.8746   57.8030   61.0656 O   0  0  0  0  0  0  0  0  0  0  0  0
  -39.1059   60.2942   61.4105 O   0  0  0  0  0  0  0  0  0  0  0  0
  -42.3518   57.4798   61.1539 O   0  0  0  0  0  0  0  0  0  0  0  0
  -39.7012   56.7389   61.9926 O   0  0  0  0  0  0  0  0  0  0  0  0
  -38.9618   57.9444   61.9327 C   0  0  0  0  0  0  0  0  0  0  0  0
  -39.8382   59.0752   61.4098 C   0  0  0  0  0  0  0  0  0  0  0  0
  -41.0840   59.2081   62.2766 C   0  0  0  0  0  0  0  0  0  0  0  0
  -41.8036   57.8738   62.4076 C   0  0  0  0  0  0  0  0  0  0  0  0
  -40.8225   56.8072   62.8880 C   0  0  0  0  0  0  0  0  0  0  0  0
  -38.3160   60.1972   60.8559 H   0  0  0  0  0  0  0  0  0  0  0  0
  -42.9755   58.1562   60.8468 H   0  0  0  0  0  0  0  0  0  0  0  0
  -41.6155   54.9839   64.2793 O   0  0  0  0  0  0  0  0  0  0  0  0
  -41.4266   55.4235   62.9392 C   0  0  0  0  0  0  0  0  0  0  0  0
  -42.0036   54.0950   64.2764 H   0  0  0  0  0  0  0  0  0  0  0  0
  -41.9363   60.1534   61.5561 O   0  0  0  0  0  0  0  0  0  0  0  0
  -43.4904   60.7733   63.2903 O   0  0  0  0  0  0  0  0  0  0  0  0
  -42.9105   62.3904   61.4561 O   0  0  0  0  0  0  0  0  0  0  0  0
  -41.3576   61.8179   63.1582 O   0  0  0  0  0  0  0  0  0  0  0  0
  -42.5902   61.3544   62.3645 S   0  0  0  0  0  0  0  0  0  0  0  0
  -44.2834   60.4683   62.8223 H   0  0  0  0  0  0  0  0  0  0  0  0
  -41.1060   61.1308   63.7950 H   0  0  0  0  0  0  0  0  0  0  0  0
  2  1  1  0  0  0
  2  4  1  0  0  0
  2  5  1  0  0  0
 47 48  1  0  0  0
 47  1  1  0  0  0
 48 52  1  0  0  0
  1 30  1  0  0  0
 29 30  1  0  0  0
 29 31  1  0  0  0
 30 32  1  0  0  0
  3  4  2  0  0  0
 32 33  2  0  0  0
 49 53  1  0  0  0
 49 57  1  0  0  0
 33 34  1  0  0  0
 62 54  1  0  0  0
 62 66  1  0  0  0
 34 35  1  0  0  0
 50 55  1  0  0  0
 50 58  1  0  0  0
 35 36  1  0  0  0
 51 52  1  0  0  0
 51 56  1  0  0  0
 36 37  1  0  0  0
 59 60  1  0  0  0
 59 61  1  0  0  0
 37 38  1  0  0  0
 63 66  1  0  0  0
 63 67  1  0  0  0
 38 39  1  0  0  0
 64 66  1  0  0  0
 39 40  1  0  0  0
 65 66  1  0  0  0
 65 68  1  0  0  0
 40 41  1  0  0  0
 41 42  1  0  0  0
 42 43  1  0  0  0
 43 44  1  0  0  0
 44 45  1  0  0  0
 45 46  1  0  0  0
  4  6  1  0  0  0
  6  7  1  0  0  0
  7  8  1  0  0  0
  8  9  1  0  0  0
  9 10  1  0  0  0
 10 11  1  0  0  0
 11 12  1  0  0  0
 12 13  1  0  0  0
 13 14  1  0  0  0
 14 15  1  0  0  0
 15 16  1  0  0  0
 16 17  1  0  0  0
 17 18  1  0  0  0
 18 19  1  0  0  0
 19 20  2  0  0  0
 20 21  1  0  0  0
 21 22  1  0  0  0
 22 23  1  0  0  0
 23 24  1  0  0  0
 24 25  1  0  0  0
 25 26  1  0  0  0
 26 27  1  0  0  0
 27 28  1  0  0  0
 52 53  1  0  0  0
 53 54  1  0  0  0
 54 55  1  0  0  0
 55 56  1  0  0  0
 56 60  1  0  0  0
M  CHG 1  64  -1
M  END
> <minimizedAffinity>
-9.35228

> <CNNscore>
0.1389232427

> <CNNaffinity>
6.8357038498

> <CNN_VS>
0.9496381283

> <CNNaffinity_variance>
2.0681927204

$$$$
/media/chris/experiments/cd1a-new-docking/inputs/ligands/7ryn_ligand.pdb


 68 68  0  0  0  0  0  0  0  0999 V2000
  -38.1913   59.7938   64.2901 C   0  0  0  0  0  0  0  0  0  0  0  0
  -39.2809   60.5306   63.6568 N   0  0  0  0  0  0  0  0  0  0  0  0
  -41.3321   61.4543   63.7426 O   0  0  0  0  0  0  0  0  0  0  0  0
  -40.4158   60.8451   64.2871 C   0  0  0  0  0  0  0  0  0  0  0  0
  -39.1739   60.8094   62.7187 H   0  0  0  0  0  0  0  0  0  0  0  0
  -40.5102   60.3959   65.7239 C   0  0  0  0  0  0  0  0  0  0  0  0
  -41.7569   60.9251   66.4215 C   0  0  0  0  0  0  0  0  0  0  0  0
  -42.2644   59.9883   67.5059 C   0  0  0  0  0  0  0  0  0  0  0  0
  -43.4403   59.1273   67.0756 C   0  0  0  0  0  0  0  0  0  0  0  0
  -43.0378   57.7691   66.5208 C   0  0  0  0  0  0  0  0  0  0  0  0
  -43.7749   57.3769   65.2466 C   0  0  0  0  0  0  0  0  0  0  0  0
  -44.3934   58.5545   64.5043 C   0  0  0  0  0  0  0  0  0  0  0  0
  -45.9194   58.5859   64.5253 C   0  0  0  0  0  0  0  0  0  0  0  0
  -46.5392   57.8970   65.7400 C   0  0  0  0  0  0  0  0  0  0  0  0
  -47.0344   58.8488   66.8286 C   0  0  0  0  0  0  0  0  0  0  0  0
  -48.4144   59.4397   66.5391 C   0  0  0  0  0  0  0  0  0  0  0  0
  -49.3970   58.4865   65.8591 C   0  0  0  0  0  0  0  0  0  0  0  0
  -50.7754   59.0837   65.5637 C   0  0  0  0  0  0  0  0  0  0  0  0
  -50.7620   60.0357   64.4027 C   0  0  0  0  0  0  0  0  0  0  0  0
  -51.0020   59.7275   63.1405 C   0  0  0  0  0  0  0  0  0  0  0  0
  -51.3390   58.3653   62.6141 C   0  0  0  0  0  0  0  0  0  0  0  0
  -50.4341   57.9082   61.4679 C   0  0  0  0  0  0  0  0  0  0  0  0
  -49.5774   59.0287   60.8936 C   0  0  0  0  0  0  0  0  0  0  0  0
  -48.8426   58.6348   59.6172 C   0  0  0  0  0  0  0  0  0  0  0  0
  -49.0751   57.1950   59.1737 C   0  0  0  0  0  0  0  0  0  0  0  0
  -47.8105   56.3480   59.1539 C   0  0  0  0  0  0  0  0  0  0  0  0
  -47.2386   56.1159   57.7643 C   0  0  0  0  0  0  0  0  0  0  0  0
  -47.2983   57.3511   56.8886 C   0  0  0  0  0  0  0  0  0  0  0  0
  -37.7339   57.9341   65.7623 O   0  0  0  0  0  0  0  0  0  0  0  0
  -38.7497   58.5187   64.9421 C   0  0  0  0  0  0  0  0  0  0  0  0
  -37.4365   58.5823   66.4198 H   0  0  0  0  0  0  0  0  0  0  0  0
  -39.2338   57.5441   63.9126 C   0  0  0  0  0  0  0  0  0  0  0  0
  -40.4995   57.3013   63.6347 C   0  0  0  0  0  0  0  0  0  0  0  0
  -40.9505   56.3332   62.5906 C   0  0  0  0  0  0  0  0  0  0  0  0
  -41.6411   57.0556   61.4320 C   0  0  0  0  0  0  0  0  0  0  0  0
  -41.8084   58.5518   61.6419 C   0  0  0  0  0  0  0  0  0  0  0  0
  -41.0491   59.4112   60.6457 C   0  0  0  0  0  0  0  0  0  0  0  0
  -40.1927   58.6172   59.6700 C   0  0  0  0  0  0  0  0  0  0  0  0
  -38.7154   58.9753   59.7226 C   0  0  0  0  0  0  0  0  0  0  0  0
  -38.0913   58.7974   61.0955 C   0  0  0  0  0  0  0  0  0  0  0  0
  -36.6676   58.2739   61.0644 C   0  0  0  0  0  0  0  0  0  0  0  0
  -36.2856   57.4565   62.2864 C   0  0  0  0  0  0  0  0  0  0  0  0
  -35.1076   58.0387   63.0453 C   0  0  0  0  0  0  0  0  0  0  0  0
  -33.7508   57.6124   62.5184 C   0  0  0  0  0  0  0  0  0  0  0  0
  -32.6528   58.5957   62.8737 C   0  0  0  0  0  0  0  0  0  0  0  0
  -33.1409   60.0297   62.8899 C   0  0  0  0  0  0  0  0  0  0  0  0
  -37.4785   60.6791   65.2914 C   0  0  0  0  0  0  0  0  0  0  0  0
  -36.1631   60.9517   64.7955 O   0  0  0  0  0  0  0  0  0  0  0  0
  -34.8434   62.3721   66.8159 O   0  0  0  0  0  0  0  0  0  0  0  0
  -33.0202   63.7050   63.1524 O   0  0  0  0  0  0  0  0  0  0  0  0
  -35.6805   62.6155   63.2700 O   0  0  0  0  0  0  0  0  0  0  0  0
  -35.8773   62.3109   64.6382 C   0  0  0  0  0  0  0  0  0  0  0  0
  -34.6170   62.6232   65.4347 C   0  0  0  0  0  0  0  0  0  0  0  0
  -34.2171   64.0778   65.2220 C   0  0  0  0  0  0  0  0  0  0  0  0
  -34.1125   64.4047   63.7396 C   0  0  0  0  0  0  0  0  0  0  0  0
  -35.4064   64.0059   63.0341 C   0  0  0  0  0  0  0  0  0  0  0  0
  -35.0970   61.4439   66.9385 H   0  0  0  0  0  0  0  0  0  0  0  0
  -32.1970   63.9569   63.5993 H   0  0  0  0  0  0  0  0  0  0  0  0
  -34.0163   64.0897   61.0467 O   0  0  0  0  0  0  0  0  0  0  0  0
  -35.3486   64.1924   61.5360 C   0  0  0  0  0  0  0  0  0  0  0  0
  -34.0146   64.2139   60.0847 H   0  0  0  0  0  0  0  0  0  0  0  0
  -32.8970   64.1924   65.8412 O   0  0  0  0  0  0  0  0  0  0  0  0
  -32.7829   66.0285   67.3977 O   0  0  0  0  0  0  0  0  0  0  0  0
  -32.4337   66.4137   64.9390 O   0  0  0  0  0  0  0  0  0  0  0  0
  -30.8247   65.2848   66.2707 O   0  0  0  0  0  0  0  0  0  0  0  0
  -32.3123   65.6431   66.1190 S   0  0  0  0  0  0  0  0  0  0  0  0
  -33.7224   66.2625   67.3394 H   0  0  0  0  0  0  0  0  0  0  0  0
  -30.7003   64.7536   67.0728 H   0  0  0  0  0  0  0  0  0  0  0  0
  2  1  1  0  0  0
  2  4  1  0  0  0
  2  5  1  0  0  0
 47 48  1  0  0  0
 47  1  1  0  0  0
 48 52  1  0  0  0
  1 30  1  0  0  0
 29 30  1  0  0  0
 29 31  1  0  0  0
 30 32  1  0  0  0
  3  4  2  0  0  0
 32 33  2  0  0  0
 49 53  1  0  0  0
 49 57  1  0  0  0
 33 34  1  0  0  0
 62 54  1  0  0  0
 62 66  1  0  0  0
 34 35  1  0  0  0
 50 55  1  0  0  0
 50 58  1  0  0  0
 35 36  1  0  0  0
 51 52  1  0  0  0
 51 56  1  0  0  0
 36 37  1  0  0  0
 59 60  1  0  0  0
 59 61  1  0  0  0
 37 38  1  0  0  0
 63 66  1  0  0  0
 63 67  1  0  0  0
 38 39  1  0  0  0
 64 66  1  0  0  0
 39 40  1  0  0  0
 65 66  1  0  0  0
 65 68  1  0  0  0
 40 41  1  0  0  0
 41 42  1  0  0  0
 42 43  1  0  0  0
 43 44  1  0  0  0
 44 45  1  0  0  0
 45 46  1  0  0  0
  4  6  1  0  0  0
  6  7  1  0  0  0
  7  8  1  0  0  0
  8  9  1  0  0  0
  9 10  1  0  0  0
 10 11  1  0  0  0
 11 12  1  0  0  0
 12 13  1  0  0  0
 13 14  1  0  0  0
 14 15  1  0  0  0
 15 16  1  0  0  0
 16 17  1  0  0  0
 17 18  1  0  0  0
 18 19  1  0  0  0
 19 20  2  0  0  0
 20 21  1  0  0  0
 21 22  1  0  0  0
 22 23  1  0  0  0
 23 24  1  0  0  0
 24 25  1  0  0  0
 25 26  1  0  0  0
 26 27  1  0  0  0
 27 28  1  0  0  0
 52 53  1  0  0  0
 53 54  1  0  0  0
 54 55  1  0  0  0
 55 56  1  0  0  0
 56 60  1  0  0  0
M  CHG 1  64  -1
M  END
> <minimizedAffinity>
-9.47114

> <CNNscore>
0.1339130253

> <CNNaffinity>
7.3236632347

> <CNN_VS>
0.9807338715

> <CNNaffinity_variance>
1.6846923828

$$$$
/media/chris/experiments/cd1a-new-docking/inputs/ligands/7ryn_ligand.pdb


 68 68  0  0  0  0  0  0  0  0999 V2000
  -34.5014   62.2861   63.9809 C   0  0  0  0  0  0  0  0  0  0  0  0
  -34.8835   62.8190   65.2852 N   0  0  0  0  0  0  0  0  0  0  0  0
  -36.3049   62.9010   67.0290 O   0  0  0  0  0  0  0  0  0  0  0  0
  -35.9849   62.4381   65.9379 C   0  0  0  0  0  0  0  0  0  0  0  0
  -34.3006   63.4926   65.7043 H   0  0  0  0  0  0  0  0  0  0  0  0
  -36.8276   61.3974   65.2437 C   0  0  0  0  0  0  0  0  0  0  0  0
  -37.8436   60.7503   66.1763 C   0  0  0  0  0  0  0  0  0  0  0  0
  -39.2064   60.5729   65.5265 C   0  0  0  0  0  0  0  0  0  0  0  0
  -40.1785   59.7443   66.3498 C   0  0  0  0  0  0  0  0  0  0  0  0
  -41.6155   60.2398   66.2875 C   0  0  0  0  0  0  0  0  0  0  0  0
  -42.5843   59.4417   67.1507 C   0  0  0  0  0  0  0  0  0  0  0  0
  -43.0840   58.1611   66.4945 C   0  0  0  0  0  0  0  0  0  0  0  0
  -44.6034   58.0493   66.3986 C   0  0  0  0  0  0  0  0  0  0  0  0
  -45.1721   58.4509   65.0387 C   0  0  0  0  0  0  0  0  0  0  0  0
  -46.6988   58.4741   64.9682 C   0  0  0  0  0  0  0  0  0  0  0  0
  -47.3632   57.3694   65.7901 C   0  0  0  0  0  0  0  0  0  0  0  0
  -48.7933   57.6683   66.2398 C   0  0  0  0  0  0  0  0  0  0  0  0
  -49.1954   59.1440   66.1728 C   0  0  0  0  0  0  0  0  0  0  0  0
  -50.5472   59.3526   65.5536 C   0  0  0  0  0  0  0  0  0  0  0  0
  -50.8361   59.2652   64.2672 C   0  0  0  0  0  0  0  0  0  0  0  0
  -49.8724   58.9370   63.1674 C   0  0  0  0  0  0  0  0  0  0  0  0
  -50.4665   59.0858   61.7650 C   0  0  0  0  0  0  0  0  0  0  0  0
  -50.7891   57.7527   61.1032 C   0  0  0  0  0  0  0  0  0  0  0  0
  -49.9820   57.4958   59.8356 C   0  0  0  0  0  0  0  0  0  0  0  0
  -48.8504   56.4879   60.0010 C   0  0  0  0  0  0  0  0  0  0  0  0
  -47.7898   56.5730   58.9125 C   0  0  0  0  0  0  0  0  0  0  0  0
  -47.7602   57.9022   58.1750 C   0  0  0  0  0  0  0  0  0  0  0  0
  -47.0836   57.8108   56.8223 C   0  0  0  0  0  0  0  0  0  0  0  0
  -32.1792   62.0446   63.3611 O   0  0  0  0  0  0  0  0  0  0  0  0
  -33.2250   61.4424   64.1293 C   0  0  0  0  0  0  0  0  0  0  0  0
  -32.0496   62.9605   63.6533 H   0  0  0  0  0  0  0  0  0  0  0  0
  -33.4535   60.0243   63.7044 C   0  0  0  0  0  0  0  0  0  0  0  0
  -34.6349   59.4576   63.5586 C   0  0  0  0  0  0  0  0  0  0  0  0
  -34.8302   58.0438   63.1185 C   0  0  0  0  0  0  0  0  0  0  0  0
  -36.2680   57.5836   63.3679 C   0  0  0  0  0  0  0  0  0  0  0  0
  -37.1235   57.5053   62.1139 C   0  0  0  0  0  0  0  0  0  0  0  0
  -38.5647   57.0962   62.3654 C   0  0  0  0  0  0  0  0  0  0  0  0
  -39.1044   57.5323   63.7198 C   0  0  0  0  0  0  0  0  0  0  0  0
  -40.5794   57.2195   63.9190 C   0  0  0  0  0  0  0  0  0  0  0  0
  -41.2429   56.5983   62.7024 C   0  0  0  0  0  0  0  0  0  0  0  0
  -42.1974   57.5280   61.9766 C   0  0  0  0  0  0  0  0  0  0  0  0
  -42.4940   58.8145   62.7279 C   0  0  0  0  0  0  0  0  0  0  0  0
  -41.6044   59.9681   62.3034 C   0  0  0  0  0  0  0  0  0  0  0  0
  -41.4060   60.0872   60.8044 C   0  0  0  0  0  0  0  0  0  0  0  0
  -39.9421   60.1303   60.4122 C   0  0  0  0  0  0  0  0  0  0  0  0
  -39.5028   58.8840   59.6715 C   0  0  0  0  0  0  0  0  0  0  0  0
  -34.3233   63.4173   62.9894 C   0  0  0  0  0  0  0  0  0  0  0  0
  -34.0004   64.6076   63.7172 O   0  0  0  0  0  0  0  0  0  0  0  0
  -33.1343   65.2559   61.1344 O   0  0  0  0  0  0  0  0  0  0  0  0
  -31.6279   68.4184   63.6348 O   0  0  0  0  0  0  0  0  0  0  0  0
  -32.2447   65.7922   64.6351 O   0  0  0  0  0  0  0  0  0  0  0  0
  -32.7031   65.0807   63.5005 C   0  0  0  0  0  0  0  0  0  0  0  0
  -32.7313   65.9935   62.2814 C   0  0  0  0  0  0  0  0  0  0  0  0
  -31.3530   66.6030   62.0588 C   0  0  0  0  0  0  0  0  0  0  0  0
  -30.8405   67.2730   63.3253 C   0  0  0  0  0  0  0  0  0  0  0  0
  -30.9038   66.2865   64.4887 C   0  0  0  0  0  0  0  0  0  0  0  0
  -34.0123   64.8732   61.2881 H   0  0  0  0  0  0  0  0  0  0  0  0
  -31.5891   69.0466   62.8967 H   0  0  0  0  0  0  0  0  0  0  0  0
  -30.7947   66.0267   66.8990 O   0  0  0  0  0  0  0  0  0  0  0  0
  -30.5179   66.9032   65.8128 C   0  0  0  0  0  0  0  0  0  0  0  0
  -30.5361   66.4518   67.7316 H   0  0  0  0  0  0  0  0  0  0  0  0
  -31.5588   67.6133   61.0214 O   0  0  0  0  0  0  0  0  0  0  0  0
  -29.3372   67.3086   60.1393 O   0  0  0  0  0  0  0  0  0  0  0  0
  -31.0654   68.5859   58.8366 O   0  0  0  0  0  0  0  0  0  0  0  0
  -31.1948   66.2318   59.1159 O   0  0  0  0  0  0  0  0  0  0  0  0
  -30.6652   67.5475   59.7097 S   0  0  0  0  0  0  0  0  0  0  0  0
  -28.9698   68.1210   60.5211 H   0  0  0  0  0  0  0  0  0  0  0  0
  -30.9393   65.4923   59.6892 H   0  0  0  0  0  0  0  0  0  0  0  0
  2  1  1  0  0  0
  2  4  1  0  0  0
  2  5  1  0  0  0
 47 48  1  0  0  0
 47  1  1  0  0  0
 48 52  1  0  0  0
  1 30  1  0  0  0
 29 30  1  0  0  0
 29 31  1  0  0  0
 30 32  1  0  0  0
  3  4  2  0  0  0
 32 33  2  0  0  0
 49 53  1  0  0  0
 49 57  1  0  0  0
 33 34  1  0  0  0
 62 54  1  0  0  0
 62 66  1  0  0  0
 34 35  1  0  0  0
 50 55  1  0  0  0
 50 58  1  0  0  0
 35 36  1  0  0  0
 51 52  1  0  0  0
 51 56  1  0  0  0
 36 37  1  0  0  0
 59 60  1  0  0  0
 59 61  1  0  0  0
 37 38  1  0  0  0
 63 66  1  0  0  0
 63 67  1  0  0  0
 38 39  1  0  0  0
 64 66  1  0  0  0
 39 40  1  0  0  0
 65 66  1  0  0  0
 65 68  1  0  0  0
 40 41  1  0  0  0
 41 42  1  0  0  0
 42 43  1  0  0  0
 43 44  1  0  0  0
 44 45  1  0  0  0
 45 46  1  0  0  0
  4  6  1  0  0  0
  6  7  1  0  0  0
  7  8  1  0  0  0
  8  9  1  0  0  0
  9 10  1  0  0  0
 10 11  1  0  0  0
 11 12  1  0  0  0
 12 13  1  0  0  0
 13 14  1  0  0  0
 14 15  1  0  0  0
 15 16  1  0  0  0
 16 17  1  0  0  0
 17 18  1  0  0  0
 18 19  1  0  0  0
 19 20  2  0  0  0
 20 21  1  0  0  0
 21 22  1  0  0  0
 22 23  1  0  0  0
 23 24  1  0  0  0
 24 25  1  0  0  0
 25 26  1  0  0  0
 26 27  1  0  0  0
 27 28  1  0  0  0
 52 53  1  0  0  0
 53 54  1  0  0  0
 54 55  1  0  0  0
 55 56  1  0  0  0
 56 60  1  0  0  0
M  CHG 1  64  -1
M  END
> <minimizedAffinity>
-8.94232

> <CNNscore>
0.1332035661

> <CNNaffinity>
6.9588270187

> <CNN_VS>
0.9269405603

> <CNNaffinity_variance>
0.9857736826

$$$$
