/media/chris/experiments/cd1a-new-docking/inputs/ligands/7ryn_ligand.pdb


 68 68  0  0  0  0  0  0  0  0999 V2000
  -37.4762   59.5053   61.3751 C   0  0  0  0  0  0  0  0  0  0  0  0
  -38.9346   59.4896   61.3106 N   0  0  0  0  0  0  0  0  0  0  0  0
  -39.0670   59.0700   59.1029 O   0  0  0  0  0  0  0  0  0  0  0  0
  -39.6156   59.2737   60.1819 C   0  0  0  0  0  0  0  0  0  0  0  0
  -39.4412   59.6459   62.1401 H   0  0  0  0  0  0  0  0  0  0  0  0
  -41.1182   59.2873   60.3139 C   0  0  0  0  0  0  0  0  0  0  0  0
  -41.7469   57.9409   59.9788 C   0  0  0  0  0  0  0  0  0  0  0  0
  -41.3144   56.8382   60.9318 C   0  0  0  0  0  0  0  0  0  0  0  0
  -41.7348   57.0699   62.3736 C   0  0  0  0  0  0  0  0  0  0  0  0
  -41.4033   55.9132   63.3046 C   0  0  0  0  0  0  0  0  0  0  0  0
  -42.0126   56.0422   64.6947 C   0  0  0  0  0  0  0  0  0  0  0  0
  -43.2799   56.8862   64.7370 C   0  0  0  0  0  0  0  0  0  0  0  0
  -43.6173   57.4543   66.1132 C   0  0  0  0  0  0  0  0  0  0  0  0
  -44.4698   58.7215   66.0712 C   0  0  0  0  0  0  0  0  0  0  0  0
  -45.7590   58.6495   66.8892 C   0  0  0  0  0  0  0  0  0  0  0  0
  -46.6948   57.5218   66.4530 C   0  0  0  0  0  0  0  0  0  0  0  0
  -47.9386   57.9726   65.6874 C   0  0  0  0  0  0  0  0  0  0  0  0
  -48.4179   59.3898   66.0130 C   0  0  0  0  0  0  0  0  0  0  0  0
  -48.3986   60.3006   64.8196 C   0  0  0  0  0  0  0  0  0  0  0  0
  -49.3479   60.4082   63.9069 C   0  0  0  0  0  0  0  0  0  0  0  0
  -50.6369   59.6440   63.8811 C   0  0  0  0  0  0  0  0  0  0  0  0
  -50.9071   58.9396   62.5499 C   0  0  0  0  0  0  0  0  0  0  0  0
  -49.6707   58.8228   61.6685 C   0  0  0  0  0  0  0  0  0  0  0  0
  -49.9368   58.1171   60.3435 C   0  0  0  0  0  0  0  0  0  0  0  0
  -49.3081   56.7332   60.2280 C   0  0  0  0  0  0  0  0  0  0  0  0
  -48.2722   56.6212   59.1182 C   0  0  0  0  0  0  0  0  0  0  0  0
  -48.1037   57.8878   58.2942 C   0  0  0  0  0  0  0  0  0  0  0  0
  -46.9680   57.7946   57.2956 C   0  0  0  0  0  0  0  0  0  0  0  0
  -37.9186   57.1933   61.9175 O   0  0  0  0  0  0  0  0  0  0  0  0
  -36.9485   58.0624   61.3258 C   0  0  0  0  0  0  0  0  0  0  0  0
  -38.7650   57.2904   61.4539 H   0  0  0  0  0  0  0  0  0  0  0  0
  -35.6257   57.9391   62.0179 C   0  0  0  0  0  0  0  0  0  0  0  0
  -34.4768   58.3750   61.5404 C   0  0  0  0  0  0  0  0  0  0  0  0
  -33.1753   58.2502   62.2624 C   0  0  0  0  0  0  0  0  0  0  0  0
  -33.3962   58.0098   63.7572 C   0  0  0  0  0  0  0  0  0  0  0  0
  -33.9688   59.2045   64.5025 C   0  0  0  0  0  0  0  0  0  0  0  0
  -35.3146   58.9454   65.1581 C   0  0  0  0  0  0  0  0  0  0  0  0
  -35.7685   57.4947   65.0865 C   0  0  0  0  0  0  0  0  0  0  0  0
  -37.2741   57.3319   64.9463 C   0  0  0  0  0  0  0  0  0  0  0  0
  -38.0717   58.4768   65.5458 C   0  0  0  0  0  0  0  0  0  0  0  0
  -39.4173   58.7063   64.8831 C   0  0  0  0  0  0  0  0  0  0  0  0
  -40.4859   59.2323   65.8259 C   0  0  0  0  0  0  0  0  0  0  0  0
  -41.1906   60.4667   65.2947 C   0  0  0  0  0  0  0  0  0  0  0  0
  -41.2611   60.5451   63.7817 C   0  0  0  0  0  0  0  0  0  0  0  0
  -42.6862   60.5540   63.2645 C   0  0  0  0  0  0  0  0  0  0  0  0
  -42.9761   61.7513   62.3831 C   0  0  0  0  0  0  0  0  0  0  0  0
  -37.0191   60.2358   62.6208 C   0  0  0  0  0  0  0  0  0  0  0  0
  -37.7692   61.4507   62.7313 O   0  0  0  0  0  0  0  0  0  0  0  0
  -37.3212   61.9757   65.4451 O   0  0  0  0  0  0  0  0  0  0  0  0
  -33.5325   62.6994   63.5364 O   0  0  0  0  0  0  0  0  0  0  0  0
  -36.0437   62.8664   62.1424 O   0  0  0  0  0  0  0  0  0  0  0  0
  -37.0145   62.5593   63.1255 C   0  0  0  0  0  0  0  0  0  0  0  0
  -36.3380   62.2232   64.4482 C   0  0  0  0  0  0  0  0  0  0  0  0
  -35.4332   63.3726   64.8737 C   0  0  0  0  0  0  0  0  0  0  0  0
  -34.4678   63.7497   63.7598 C   0  0  0  0  0  0  0  0  0  0  0  0
  -35.2469   64.0149   62.4739 C   0  0  0  0  0  0  0  0  0  0  0  0
  -37.8904   61.2427   65.1630 H   0  0  0  0  0  0  0  0  0  0  0  0
  -33.0362   62.5294   64.3522 H   0  0  0  0  0  0  0  0  0  0  0  0
  -33.1118   64.8525   61.6808 O   0  0  0  0  0  0  0  0  0  0  0  0
  -34.3563   64.2876   61.2845 C   0  0  0  0  0  0  0  0  0  0  0  0
  -32.5657   65.0148   60.8958 H   0  0  0  0  0  0  0  0  0  0  0  0
  -34.6819   62.8487   66.0141 O   0  0  0  0  0  0  0  0  0  0  0  0
  -36.0070   63.3760   67.9565 O   0  0  0  0  0  0  0  0  0  0  0  0
  -34.1870   64.9305   67.1906 O   0  0  0  0  0  0  0  0  0  0  0  0
  -33.7033   62.8297   68.1853 O   0  0  0  0  0  0  0  0  0  0  0  0
  -34.7373   63.6425   67.3890 S   0  0  0  0  0  0  0  0  0  0  0  0
  -36.6868   63.8746   67.4768 H   0  0  0  0  0  0  0  0  0  0  0  0
  -34.0460   61.9359   68.3422 H   0  0  0  0  0  0  0  0  0  0  0  0
  2  1  1  0  0  0
  2  4  1  0  0  0
  2  5  1  0  0  0
 47 48  1  0  0  0
 47  1  1  0  0  0
 48 52  1  0  0  0
  1 30  1  0  0  0
 29 30  1  0  0  0
 29 31  1  0  0  0
 30 32  1  0  0  0
  3  4  2  0  0  0
 32 33  2  0  0  0
 49 53  1  0  0  0
 49 57  1  0  0  0
 33 34  1  0  0  0
 62 54  1  0  0  0
 62 66  1  0  0  0
 34 35  1  0  0  0
 50 55  1  0  0  0
 50 58  1  0  0  0
 35 36  1  0  0  0
 51 52  1  0  0  0
 51 56  1  0  0  0
 36 37  1  0  0  0
 59 60  1  0  0  0
 59 61  1  0  0  0
 37 38  1  0  0  0
 63 66  1  0  0  0
 63 67  1  0  0  0
 38 39  1  0  0  0
 64 66  1  0  0  0
 39 40  1  0  0  0
 65 66  1  0  0  0
 65 68  1  0  0  0
 40 41  1  0  0  0
 41 42  1  0  0  0
 42 43  1  0  0  0
 43 44  1  0  0  0
 44 45  1  0  0  0
 45 46  1  0  0  0
  4  6  1  0  0  0
  6  7  1  0  0  0
  7  8  1  0  0  0
  8  9  1  0  0  0
  9 10  1  0  0  0
 10 11  1  0  0  0
 11 12  1  0  0  0
 12 13  1  0  0  0
 13 14  1  0  0  0
 14 15  1  0  0  0
 15 16  1  0  0  0
 16 17  1  0  0  0
 17 18  1  0  0  0
 18 19  1  0  0  0
 19 20  2  0  0  0
 20 21  1  0  0  0
 21 22  1  0  0  0
 22 23  1  0  0  0
 23 24  1  0  0  0
 24 25  1  0  0  0
 25 26  1  0  0  0
 26 27  1  0  0  0
 27 28  1  0  0  0
 52 53  1  0  0  0
 53 54  1  0  0  0
 54 55  1  0  0  0
 55 56  1  0  0  0
 56 60  1  0  0  0
M  CHG 1  64  -1
M  END
> <minimizedAffinity>
-8.09193

> <CNNscore>
0.2450315058

> <CNNaffinity>
7.5736212730

> <CNN_VS>
1.8557758331

> <CNNaffinity_variance>
1.7185609341

$$$$
/media/chris/experiments/cd1a-new-docking/inputs/ligands/7ryn_ligand.pdb


 68 68  0  0  0  0  0  0  0  0999 V2000
  -37.8792   59.7178   61.5460 C   0  0  0  0  0  0  0  0  0  0  0  0
  -39.3059   59.4524   61.3874 N   0  0  0  0  0  0  0  0  0  0  0  0
  -39.2016   58.9065   59.2059 O   0  0  0  0  0  0  0  0  0  0  0  0
  -39.8555   59.0682   60.2321 C   0  0  0  0  0  0  0  0  0  0  0  0
  -39.8921   59.5620   62.1707 H   0  0  0  0  0  0  0  0  0  0  0  0
  -41.3452   58.8340   60.2645 C   0  0  0  0  0  0  0  0  0  0  0  0
  -41.7071   57.4367   60.7516 C   0  0  0  0  0  0  0  0  0  0  0  0
  -41.9690   57.3870   62.2484 C   0  0  0  0  0  0  0  0  0  0  0  0
  -41.4847   56.1109   62.9166 C   0  0  0  0  0  0  0  0  0  0  0  0
  -41.6743   56.0967   64.4260 C   0  0  0  0  0  0  0  0  0  0  0  0
  -43.0387   56.5959   64.8839 C   0  0  0  0  0  0  0  0  0  0  0  0
  -43.0260   57.2520   66.2586 C   0  0  0  0  0  0  0  0  0  0  0  0
  -44.0106   58.4077   66.4182 C   0  0  0  0  0  0  0  0  0  0  0  0
  -45.4341   58.0783   65.9718 C   0  0  0  0  0  0  0  0  0  0  0  0
  -45.9088   58.8461   64.7383 C   0  0  0  0  0  0  0  0  0  0  0  0
  -47.4253   58.8132   64.5469 C   0  0  0  0  0  0  0  0  0  0  0  0
  -48.2414   58.8300   65.8393 C   0  0  0  0  0  0  0  0  0  0  0  0
  -49.6933   58.3671   65.6913 C   0  0  0  0  0  0  0  0  0  0  0  0
  -50.6000   59.4468   65.1754 C   0  0  0  0  0  0  0  0  0  0  0  0
  -51.1010   59.5255   63.9553 C   0  0  0  0  0  0  0  0  0  0  0  0
  -50.8669   58.5506   62.8414 C   0  0  0  0  0  0  0  0  0  0  0  0
  -49.5459   58.7695   62.1007 C   0  0  0  0  0  0  0  0  0  0  0  0
  -49.7312   59.1301   60.6328 C   0  0  0  0  0  0  0  0  0  0  0  0
  -49.9821   57.9202   59.7397 C   0  0  0  0  0  0  0  0  0  0  0  0
  -48.7178   57.2589   59.2028 C   0  0  0  0  0  0  0  0  0  0  0  0
  -47.8792   58.1688   58.3163 C   0  0  0  0  0  0  0  0  0  0  0  0
  -47.1055   57.4384   57.2301 C   0  0  0  0  0  0  0  0  0  0  0  0
  -47.3216   55.9390   57.2595 C   0  0  0  0  0  0  0  0  0  0  0  0
  -37.9143   57.3139   61.7802 O   0  0  0  0  0  0  0  0  0  0  0  0
  -37.0940   58.4090   61.3630 C   0  0  0  0  0  0  0  0  0  0  0  0
  -38.7420   57.3189   61.2745 H   0  0  0  0  0  0  0  0  0  0  0  0
  -35.8042   58.4330   62.1246 C   0  0  0  0  0  0  0  0  0  0  0  0
  -34.6388   58.0348   61.6543 C   0  0  0  0  0  0  0  0  0  0  0  0
  -33.3662   58.0852   62.4346 C   0  0  0  0  0  0  0  0  0  0  0  0
  -33.5123   58.9784   63.6683 C   0  0  0  0  0  0  0  0  0  0  0  0
  -33.9784   58.2459   64.9161 C   0  0  0  0  0  0  0  0  0  0  0  0
  -35.4538   58.4245   65.2309 C   0  0  0  0  0  0  0  0  0  0  0  0
  -36.3085   57.2096   64.9005 C   0  0  0  0  0  0  0  0  0  0  0  0
  -37.7554   57.3400   65.3504 C   0  0  0  0  0  0  0  0  0  0  0  0
  -38.2121   58.7767   65.5336 C   0  0  0  0  0  0  0  0  0  0  0  0
  -39.6949   58.9895   65.2921 C   0  0  0  0  0  0  0  0  0  0  0  0
  -40.2110   60.3332   65.7775 C   0  0  0  0  0  0  0  0  0  0  0  0
  -41.6496   60.5975   65.3739 C   0  0  0  0  0  0  0  0  0  0  0  0
  -41.9692   60.2515   63.9321 C   0  0  0  0  0  0  0  0  0  0  0  0
  -41.7287   61.4126   62.9874 C   0  0  0  0  0  0  0  0  0  0  0  0
  -43.0098   61.9311   62.3675 C   0  0  0  0  0  0  0  0  0  0  0  0
  -37.6161   60.3550   62.8948 C   0  0  0  0  0  0  0  0  0  0  0  0
  -36.7201   61.4560   62.7058 O   0  0  0  0  0  0  0  0  0  0  0  0
  -34.2911   62.8115   62.3841 O   0  0  0  0  0  0  0  0  0  0  0  0
  -36.0803   64.5600   65.8860 O   0  0  0  0  0  0  0  0  0  0  0  0
  -36.7045   61.9050   64.9700 O   0  0  0  0  0  0  0  0  0  0  0  0
  -35.9106   61.7356   63.8106 C   0  0  0  0  0  0  0  0  0  0  0  0
  -35.1315   63.0104   63.5138 C   0  0  0  0  0  0  0  0  0  0  0  0
  -34.2988   63.4028   64.7278 C   0  0  0  0  0  0  0  0  0  0  0  0
  -35.1598   63.4777   65.9801 C   0  0  0  0  0  0  0  0  0  0  0  0
  -35.9310   62.1713   66.1510 C   0  0  0  0  0  0  0  0  0  0  0  0
  -34.8322   62.5624   61.6185 H   0  0  0  0  0  0  0  0  0  0  0  0
  -35.5923   65.3911   65.7775 H   0  0  0  0  0  0  0  0  0  0  0  0
  -36.4433   63.0555   68.3520 O   0  0  0  0  0  0  0  0  0  0  0  0
  -36.8988   62.1994   67.3107 C   0  0  0  0  0  0  0  0  0  0  0  0
  -37.0856   63.0507   69.0789 H   0  0  0  0  0  0  0  0  0  0  0  0
  -33.7849   64.7344   64.4084 O   0  0  0  0  0  0  0  0  0  0  0  0
  -32.6406   66.0706   66.0553 O   0  0  0  0  0  0  0  0  0  0  0  0
  -31.4876   65.4054   63.9237 O   0  0  0  0  0  0  0  0  0  0  0  0
  -31.9562   63.8312   65.6380 O   0  0  0  0  0  0  0  0  0  0  0  0
  -32.3747   65.1656   64.9991 S   0  0  0  0  0  0  0  0  0  0  0  0
  -32.9087   66.9271   65.6873 H   0  0  0  0  0  0  0  0  0  0  0  0
  -32.5439   63.6311   66.3833 H   0  0  0  0  0  0  0  0  0  0  0  0
  2  1  1  0  0  0
  2  4  1  0  0  0
  2  5  1  0  0  0
 47 48  1  0  0  0
 47  1  1  0  0  0
 48 52  1  0  0  0
  1 30  1  0  0  0
 29 30  1  0  0  0
 29 31  1  0  0  0
 30 32  1  0  0  0
  3  4  2  0  0  0
 32 33  2  0  0  0
 49 53  1  0  0  0
 49 57  1  0  0  0
 33 34  1  0  0  0
 62 54  1  0  0  0
 62 66  1  0  0  0
 34 35  1  0  0  0
 50 55  1  0  0  0
 50 58  1  0  0  0
 35 36  1  0  0  0
 51 52  1  0  0  0
 51 56  1  0  0  0
 36 37  1  0  0  0
 59 60  1  0  0  0
 59 61  1  0  0  0
 37 38  1  0  0  0
 63 66  1  0  0  0
 63 67  1  0  0  0
 38 39  1  0  0  0
 64 66  1  0  0  0
 39 40  1  0  0  0
 65 66  1  0  0  0
 65 68  1  0  0  0
 40 41  1  0  0  0
 41 42  1  0  0  0
 42 43  1  0  0  0
 43 44  1  0  0  0
 44 45  1  0  0  0
 45 46  1  0  0  0
  4  6  1  0  0  0
  6  7  1  0  0  0
  7  8  1  0  0  0
  8  9  1  0  0  0
  9 10  1  0  0  0
 10 11  1  0  0  0
 11 12  1  0  0  0
 12 13  1  0  0  0
 13 14  1  0  0  0
 14 15  1  0  0  0
 15 16  1  0  0  0
 16 17  1  0  0  0
 17 18  1  0  0  0
 18 19  1  0  0  0
 19 20  2  0  0  0
 20 21  1  0  0  0
 21 22  1  0  0  0
 22 23  1  0  0  0
 23 24  1  0  0  0
 24 25  1  0  0  0
 25 26  1  0  0  0
 26 27  1  0  0  0
 27 28  1  0  0  0
 52 53  1  0  0  0
 53 54  1  0  0  0
 54 55  1  0  0  0
 55 56  1  0  0  0
 56 60  1  0  0  0
M  CHG 1  64  -1
M  END
> <minimizedAffinity>
-9.04454

> <CNNscore>
0.1366726607

> <CNNaffinity>
7.5145316124

> <CNN_VS>
1.0270310640

> <CNNaffinity_variance>
1.7436380386

$$$$
/media/chris/experiments/cd1a-new-docking/inputs/ligands/7ryn_ligand.pdb


 68 68  0  0  0  0  0  0  0  0999 V2000
  -36.6716   58.8259   64.0262 C   0  0  0  0  0  0  0  0  0  0  0  0
  -37.7044   58.7079   65.0512 N   0  0  0  0  0  0  0  0  0  0  0  0
  -38.6634   60.7044   64.6485 O   0  0  0  0  0  0  0  0  0  0  0  0
  -38.6183   59.6542   65.2825 C   0  0  0  0  0  0  0  0  0  0  0  0
  -37.7285   57.8903   65.5991 H   0  0  0  0  0  0  0  0  0  0  0  0
  -39.6098   59.3498   66.3778 C   0  0  0  0  0  0  0  0  0  0  0  0
  -40.7591   60.3487   66.4205 C   0  0  0  0  0  0  0  0  0  0  0  0
  -42.0616   59.7243   66.8947 C   0  0  0  0  0  0  0  0  0  0  0  0
  -42.1533   58.2277   66.6476 C   0  0  0  0  0  0  0  0  0  0  0  0
  -43.5351   57.6453   66.9042 C   0  0  0  0  0  0  0  0  0  0  0  0
  -44.6654   58.4095   66.2267 C   0  0  0  0  0  0  0  0  0  0  0  0
  -45.7514   58.8823   67.1845 C   0  0  0  0  0  0  0  0  0  0  0  0
  -46.6960   57.7830   67.6637 C   0  0  0  0  0  0  0  0  0  0  0  0
  -47.1726   56.8455   66.5554 C   0  0  0  0  0  0  0  0  0  0  0  0
  -48.1355   57.4816   65.5531 C   0  0  0  0  0  0  0  0  0  0  0  0
  -49.1704   58.4009   66.2022 C   0  0  0  0  0  0  0  0  0  0  0  0
  -49.1139   59.8600   65.7502 C   0  0  0  0  0  0  0  0  0  0  0  0
  -48.4148   60.0928   64.4081 C   0  0  0  0  0  0  0  0  0  0  0  0
  -49.3361   60.6430   63.3581 C   0  0  0  0  0  0  0  0  0  0  0  0
  -50.2577   59.9643   62.6980 C   0  0  0  0  0  0  0  0  0  0  0  0
  -50.5707   58.5085   62.8671 C   0  0  0  0  0  0  0  0  0  0  0  0
  -49.8405   57.6034   61.8726 C   0  0  0  0  0  0  0  0  0  0  0  0
  -50.4666   57.6056   60.4843 C   0  0  0  0  0  0  0  0  0  0  0  0
  -49.6194   58.3240   59.4399 C   0  0  0  0  0  0  0  0  0  0  0  0
  -48.2163   57.7545   59.2648 C   0  0  0  0  0  0  0  0  0  0  0  0
  -47.5377   58.1832   57.9714 C   0  0  0  0  0  0  0  0  0  0  0  0
  -47.7224   57.2085   56.8192 C   0  0  0  0  0  0  0  0  0  0  0  0
  -47.5419   55.7628   57.2355 C   0  0  0  0  0  0  0  0  0  0  0  0
  -35.3260   57.2648   62.7664 O   0  0  0  0  0  0  0  0  0  0  0  0
  -36.6707   57.5591   63.1555 C   0  0  0  0  0  0  0  0  0  0  0  0
  -34.7746   57.1660   63.5582 H   0  0  0  0  0  0  0  0  0  0  0  0
  -37.5531   57.7187   61.9555 C   0  0  0  0  0  0  0  0  0  0  0  0
  -37.3935   58.6260   61.0125 C   0  0  0  0  0  0  0  0  0  0  0  0
  -38.2828   58.7501   59.8190 C   0  0  0  0  0  0  0  0  0  0  0  0
  -39.1537   60.0048   59.9098 C   0  0  0  0  0  0  0  0  0  0  0  0
  -40.5184   59.7718   60.5375 C   0  0  0  0  0  0  0  0  0  0  0  0
  -41.4280   58.8582   59.7337 C   0  0  0  0  0  0  0  0  0  0  0  0
  -41.1085   57.3781   59.8853 C   0  0  0  0  0  0  0  0  0  0  0  0
  -41.8319   56.7128   61.0460 C   0  0  0  0  0  0  0  0  0  0  0  0
  -41.0531   56.7414   62.3494 C   0  0  0  0  0  0  0  0  0  0  0  0
  -41.5672   57.7551   63.3546 C   0  0  0  0  0  0  0  0  0  0  0  0
  -43.0068   58.1791   63.1198 C   0  0  0  0  0  0  0  0  0  0  0  0
  -43.1991   59.6833   63.1751 C   0  0  0  0  0  0  0  0  0  0  0  0
  -41.9225   60.4697   63.4037 C   0  0  0  0  0  0  0  0  0  0  0  0
  -42.0837   61.9450   63.0936 C   0  0  0  0  0  0  0  0  0  0  0  0
  -43.0465   62.1960   61.9515 C   0  0  0  0  0  0  0  0  0  0  0  0
  -35.3241   59.0727   64.6725 C   0  0  0  0  0  0  0  0  0  0  0  0
  -34.5501   59.9015   63.7980 O   0  0  0  0  0  0  0  0  0  0  0  0
  -32.9446   61.6826   62.3520 O   0  0  0  0  0  0  0  0  0  0  0  0
  -35.9455   64.1495   64.2042 O   0  0  0  0  0  0  0  0  0  0  0  0
  -35.1618   61.5872   65.2517 O   0  0  0  0  0  0  0  0  0  0  0  0
  -34.1697   61.1267   64.3533 C   0  0  0  0  0  0  0  0  0  0  0  0
  -33.9847   62.1228   63.2159 C   0  0  0  0  0  0  0  0  0  0  0  0
  -33.6539   63.4984   63.7811 C   0  0  0  0  0  0  0  0  0  0  0  0
  -34.6813   63.9242   64.8195 C   0  0  0  0  0  0  0  0  0  0  0  0
  -34.8217   62.8341   65.8790 C   0  0  0  0  0  0  0  0  0  0  0  0
  -33.1665   60.8068   61.9989 H   0  0  0  0  0  0  0  0  0  0  0  0
  -35.8586   64.8420   63.5306 H   0  0  0  0  0  0  0  0  0  0  0  0
  -37.1645   62.6122   66.4713 O   0  0  0  0  0  0  0  0  0  0  0  0
  -35.9051   63.1244   66.8911 C   0  0  0  0  0  0  0  0  0  0  0  0
  -37.8358   62.8151   67.1414 H   0  0  0  0  0  0  0  0  0  0  0  0
  -33.7227   64.3973   62.6293 O   0  0  0  0  0  0  0  0  0  0  0  0
  -31.9726   65.7832   63.5367 O   0  0  0  0  0  0  0  0  0  0  0  0
  -32.7644   66.1079   61.1738 O   0  0  0  0  0  0  0  0  0  0  0  0
  -31.4912   64.2105   61.8185 O   0  0  0  0  0  0  0  0  0  0  0  0
  -32.4609   65.3034   62.2971 S   0  0  0  0  0  0  0  0  0  0  0  0
  -32.5626   66.4773   63.8699 H   0  0  0  0  0  0  0  0  0  0  0  0
  -31.2583   63.6356   62.5642 H   0  0  0  0  0  0  0  0  0  0  0  0
  2  1  1  0  0  0
  2  4  1  0  0  0
  2  5  1  0  0  0
 47 48  1  0  0  0
 47  1  1  0  0  0
 48 52  1  0  0  0
  1 30  1  0  0  0
 29 30  1  0  0  0
 29 31  1  0  0  0
 30 32  1  0  0  0
  3  4  2  0  0  0
 32 33  2  0  0  0
 49 53  1  0  0  0
 49 57  1  0  0  0
 33 34  1  0  0  0
 62 54  1  0  0  0
 62 66  1  0  0  0
 34 35  1  0  0  0
 50 55  1  0  0  0
 50 58  1  0  0  0
 35 36  1  0  0  0
 51 52  1  0  0  0
 51 56  1  0  0  0
 36 37  1  0  0  0
 59 60  1  0  0  0
 59 61  1  0  0  0
 37 38  1  0  0  0
 63 66  1  0  0  0
 63 67  1  0  0  0
 38 39  1  0  0  0
 64 66  1  0  0  0
 39 40  1  0  0  0
 65 66  1  0  0  0
 65 68  1  0  0  0
 40 41  1  0  0  0
 41 42  1  0  0  0
 42 43  1  0  0  0
 43 44  1  0  0  0
 44 45  1  0  0  0
 45 46  1  0  0  0
  4  6  1  0  0  0
  6  7  1  0  0  0
  7  8  1  0  0  0
  8  9  1  0  0  0
  9 10  1  0  0  0
 10 11  1  0  0  0
 11 12  1  0  0  0
 12 13  1  0  0  0
 13 14  1  0  0  0
 14 15  1  0  0  0
 15 16  1  0  0  0
 16 17  1  0  0  0
 17 18  1  0  0  0
 18 19  1  0  0  0
 19 20  2  0  0  0
 20 21  1  0  0  0
 21 22  1  0  0  0
 22 23  1  0  0  0
 23 24  1  0  0  0
 24 25  1  0  0  0
 25 26  1  0  0  0
 26 27  1  0  0  0
 27 28  1  0  0  0
 52 53  1  0  0  0
 53 54  1  0  0  0
 54 55  1  0  0  0
 55 56  1  0  0  0
 56 60  1  0  0  0
M  CHG 1  64  -1
M  END
> <minimizedAffinity>
-9.22352

> <CNNscore>
0.1325928122

> <CNNaffinity>
7.3727340698

> <CNN_VS>
0.9775715470

> <CNNaffinity_variance>
2.4081120491

$$$$
/media/chris/experiments/cd1a-new-docking/inputs/ligands/7ryn_ligand.pdb


 68 68  0  0  0  0  0  0  0  0999 V2000
  -36.4839   57.9201   62.9455 C   0  0  0  0  0  0  0  0  0  0  0  0
  -36.9136   59.0889   63.7074 N   0  0  0  0  0  0  0  0  0  0  0  0
  -38.0786   57.9436   65.2562 O   0  0  0  0  0  0  0  0  0  0  0  0
  -37.6760   59.0103   64.8013 C   0  0  0  0  0  0  0  0  0  0  0  0
  -36.6273   59.9791   63.3997 H   0  0  0  0  0  0  0  0  0  0  0  0
  -38.0117   60.3260   65.4584 C   0  0  0  0  0  0  0  0  0  0  0  0
  -39.1600   60.2071   66.4524 C   0  0  0  0  0  0  0  0  0  0  0  0
  -40.4962   59.9451   65.7762 C   0  0  0  0  0  0  0  0  0  0  0  0
  -41.6877   60.5228   66.5217 C   0  0  0  0  0  0  0  0  0  0  0  0
  -42.5302   59.4785   67.2387 C   0  0  0  0  0  0  0  0  0  0  0  0
  -42.5446   58.1175   66.5546 C   0  0  0  0  0  0  0  0  0  0  0  0
  -43.9411   57.6119   66.2161 C   0  0  0  0  0  0  0  0  0  0  0  0
  -45.0567   58.6272   66.4509 C   0  0  0  0  0  0  0  0  0  0  0  0
  -46.2469   58.0738   67.2330 C   0  0  0  0  0  0  0  0  0  0  0  0
  -47.2238   57.2419   66.4025 C   0  0  0  0  0  0  0  0  0  0  0  0
  -48.5674   57.9332   66.1697 C   0  0  0  0  0  0  0  0  0  0  0  0
  -48.4981   59.4544   66.0365 C   0  0  0  0  0  0  0  0  0  0  0  0
  -48.1319   59.9635   64.6397 C   0  0  0  0  0  0  0  0  0  0  0  0
  -49.2493   60.7219   63.9838 C   0  0  0  0  0  0  0  0  0  0  0  0
  -50.2892   60.1938   63.3629 C   0  0  0  0  0  0  0  0  0  0  0  0
  -50.5639   58.7306   63.1911 C   0  0  0  0  0  0  0  0  0  0  0  0
  -49.5150   58.0033   62.3471 C   0  0  0  0  0  0  0  0  0  0  0  0
  -49.4045   58.5433   60.9274 C   0  0  0  0  0  0  0  0  0  0  0  0
  -49.8054   57.5294   59.8617 C   0  0  0  0  0  0  0  0  0  0  0  0
  -48.8890   56.3147   59.7696 C   0  0  0  0  0  0  0  0  0  0  0  0
  -47.5418   56.6105   59.1256 C   0  0  0  0  0  0  0  0  0  0  0  0
  -47.6027   56.8108   57.6197 C   0  0  0  0  0  0  0  0  0  0  0  0
  -46.9607   58.1080   57.1713 C   0  0  0  0  0  0  0  0  0  0  0  0
  -35.0465   57.6924   64.8735 O   0  0  0  0  0  0  0  0  0  0  0  0
  -35.1171   57.4469   63.4659 C   0  0  0  0  0  0  0  0  0  0  0  0
  -35.7833   57.2440   65.3172 H   0  0  0  0  0  0  0  0  0  0  0  0
  -33.9921   58.1257   62.7465 C   0  0  0  0  0  0  0  0  0  0  0  0
  -33.0364   58.8265   63.3239 C   0  0  0  0  0  0  0  0  0  0  0  0
  -31.9186   59.4797   62.5791 C   0  0  0  0  0  0  0  0  0  0  0  0
  -32.2499   60.9384   62.2576 C   0  0  0  0  0  0  0  0  0  0  0  0
  -31.0882   61.8990   62.4538 C   0  0  0  0  0  0  0  0  0  0  0  0
  -31.4036   63.0865   63.3474 C   0  0  0  0  0  0  0  0  0  0  0  0
  -32.3262   64.1139   62.7081 C   0  0  0  0  0  0  0  0  0  0  0  0
  -32.9543   65.0751   63.7054 C   0  0  0  0  0  0  0  0  0  0  0  0
  -34.4718   65.1052   63.6539 C   0  0  0  0  0  0  0  0  0  0  0  0
  -35.0880   63.9394   62.9031 C   0  0  0  0  0  0  0  0  0  0  0  0
  -35.7347   62.9006   63.8031 C   0  0  0  0  0  0  0  0  0  0  0  0
  -34.7850   61.7858   64.2004 C   0  0  0  0  0  0  0  0  0  0  0  0
  -34.6406   61.5900   65.6975 C   0  0  0  0  0  0  0  0  0  0  0  0
  -33.8510   62.7036   66.3571 C   0  0  0  0  0  0  0  0  0  0  0  0
  -34.7321   63.6532   67.1422 C   0  0  0  0  0  0  0  0  0  0  0  0
  -36.4469   58.2484   61.4672 C   0  0  0  0  0  0  0  0  0  0  0  0
  -37.7267   57.9378   60.9047 O   0  0  0  0  0  0  0  0  0  0  0  0
  -38.8913   60.4486   61.3295 O   0  0  0  0  0  0  0  0  0  0  0  0
  -42.2085   57.7201   61.0578 O   0  0  0  0  0  0  0  0  0  0  0  0
  -39.5641   56.8954   61.8352 O   0  0  0  0  0  0  0  0  0  0  0  0
  -38.7966   58.0839   61.7924 C   0  0  0  0  0  0  0  0  0  0  0  0
  -39.6530   59.2480   61.3113 C   0  0  0  0  0  0  0  0  0  0  0  0
  -40.8815   59.3893   62.2012 C   0  0  0  0  0  0  0  0  0  0  0  0
  -41.6312   58.0699   62.3116 C   0  0  0  0  0  0  0  0  0  0  0  0
  -40.6692   56.9687   62.7502 C   0  0  0  0  0  0  0  0  0  0  0  0
  -38.1129   60.3463   60.7600 H   0  0  0  0  0  0  0  0  0  0  0  0
  -42.8203   58.4186   60.7773 H   0  0  0  0  0  0  0  0  0  0  0  0
  -41.7550   55.2564   64.0837 O   0  0  0  0  0  0  0  0  0  0  0  0
  -41.3059   55.5989   62.7776 C   0  0  0  0  0  0  0  0  0  0  0  0
  -42.1572   54.3740   64.0664 H   0  0  0  0  0  0  0  0  0  0  0  0
  -41.7217   60.3723   61.5176 O   0  0  0  0  0  0  0  0  0  0  0  0
  -43.4230   60.5847   63.2109 O   0  0  0  0  0  0  0  0  0  0  0  0
  -43.0112   62.4453   61.5725 O   0  0  0  0  0  0  0  0  0  0  0  0
  -41.4647   61.9318   63.2992 O   0  0  0  0  0  0  0  0  0  0  0  0
  -42.5800   61.3794   62.3966 S   0  0  0  0  0  0  0  0  0  0  0  0
  -44.1414   60.2183   62.6719 H   0  0  0  0  0  0  0  0  0  0  0  0
  -41.1415   61.2270   63.8820 H   0  0  0  0  0  0  0  0  0  0  0  0
  2  1  1  0  0  0
  2  4  1  0  0  0
  2  5  1  0  0  0
 47 48  1  0  0  0
 47  1  1  0  0  0
 48 52  1  0  0  0
  1 30  1  0  0  0
 29 30  1  0  0  0
 29 31  1  0  0  0
 30 32  1  0  0  0
  3  4  2  0  0  0
 32 33  2  0  0  0
 49 53  1  0  0  0
 49 57  1  0  0  0
 33 34  1  0  0  0
 62 54  1  0  0  0
 62 66  1  0  0  0
 34 35  1  0  0  0
 50 55  1  0  0  0
 50 58  1  0  0  0
 35 36  1  0  0  0
 51 52  1  0  0  0
 51 56  1  0  0  0
 36 37  1  0  0  0
 59 60  1  0  0  0
 59 61  1  0  0  0
 37 38  1  0  0  0
 63 66  1  0  0  0
 63 67  1  0  0  0
 38 39  1  0  0  0
 64 66  1  0  0  0
 39 40  1  0  0  0
 65 66  1  0  0  0
 65 68  1  0  0  0
 40 41  1  0  0  0
 41 42  1  0  0  0
 42 43  1  0  0  0
 43 44  1  0  0  0
 44 45  1  0  0  0
 45 46  1  0  0  0
  4  6  1  0  0  0
  6  7  1  0  0  0
  7  8  1  0  0  0
  8  9  1  0  0  0
  9 10  1  0  0  0
 10 11  1  0  0  0
 11 12  1  0  0  0
 12 13  1  0  0  0
 13 14  1  0  0  0
 14 15  1  0  0  0
 15 16  1  0  0  0
 16 17  1  0  0  0
 17 18  1  0  0  0
 18 19  1  0  0  0
 19 20  2  0  0  0
 20 21  1  0  0  0
 21 22  1  0  0  0
 22 23  1  0  0  0
 23 24  1  0  0  0
 24 25  1  0  0  0
 25 26  1  0  0  0
 26 27  1  0  0  0
 27 28  1  0  0  0
 52 53  1  0  0  0
 53 54  1  0  0  0
 54 55  1  0  0  0
 55 56  1  0  0  0
 56 60  1  0  0  0
M  CHG 1  64  -1
M  END
> <minimizedAffinity>
-9.06363

> <CNNscore>
0.1253011674

> <CNNaffinity>
7.1010437012

> <CNN_VS>
0.8897690773

> <CNNaffinity_variance>
2.5464196205

$$$$
/media/chris/experiments/cd1a-new-docking/inputs/ligands/7ryn_ligand.pdb


 68 68  0  0  0  0  0  0  0  0999 V2000
  -38.3408   58.3705   64.2597 C   0  0  0  0  0  0  0  0  0  0  0  0
  -39.4390   58.5469   65.2052 N   0  0  0  0  0  0  0  0  0  0  0  0
  -40.7513   56.9334   64.3437 O   0  0  0  0  0  0  0  0  0  0  0  0
  -40.5568   57.8163   65.1741 C   0  0  0  0  0  0  0  0  0  0  0  0
  -39.3514   59.2386   65.9002 H   0  0  0  0  0  0  0  0  0  0  0  0
  -41.5767   58.1387   66.2377 C   0  0  0  0  0  0  0  0  0  0  0  0
  -41.5504   59.6056   66.6477 C   0  0  0  0  0  0  0  0  0  0  0  0
  -42.3668   60.4891   65.7180 C   0  0  0  0  0  0  0  0  0  0  0  0
  -42.0605   60.2815   64.2441 C   0  0  0  0  0  0  0  0  0  0  0  0
  -43.2774   59.9128   63.4088 C   0  0  0  0  0  0  0  0  0  0  0  0
  -43.7846   58.4959   63.6443 C   0  0  0  0  0  0  0  0  0  0  0  0
  -45.0535   58.4265   64.4843 C   0  0  0  0  0  0  0  0  0  0  0  0
  -44.8824   57.7354   65.8346 C   0  0  0  0  0  0  0  0  0  0  0  0
  -46.1873   57.5467   66.6066 C   0  0  0  0  0  0  0  0  0  0  0  0
  -47.4537   57.7958   65.7878 C   0  0  0  0  0  0  0  0  0  0  0  0
  -48.4338   58.7580   66.4595 C   0  0  0  0  0  0  0  0  0  0  0  0
  -48.6040   60.1042   65.7559 C   0  0  0  0  0  0  0  0  0  0  0  0
  -48.2289   60.1080   64.2715 C   0  0  0  0  0  0  0  0  0  0  0  0
  -49.2790   60.7424   63.4060 C   0  0  0  0  0  0  0  0  0  0  0  0
  -50.3788   60.1595   62.9627 C   0  0  0  0  0  0  0  0  0  0  0  0
  -50.8006   58.7478   63.2373 C   0  0  0  0  0  0  0  0  0  0  0  0
  -50.7267   57.8349   62.0115 C   0  0  0  0  0  0  0  0  0  0  0  0
  -49.4524   58.0203   61.1985 C   0  0  0  0  0  0  0  0  0  0  0  0
  -49.7121   58.3123   59.7249 C   0  0  0  0  0  0  0  0  0  0  0  0
  -48.9052   57.4520   58.7591 C   0  0  0  0  0  0  0  0  0  0  0  0
  -47.7124   58.1724   58.1464 C   0  0  0  0  0  0  0  0  0  0  0  0
  -47.0176   57.3953   57.0395 C   0  0  0  0  0  0  0  0  0  0  0  0
  -47.2732   55.9038   57.1166 C   0  0  0  0  0  0  0  0  0  0  0  0
  -37.4692   57.3109   66.2478 O   0  0  0  0  0  0  0  0  0  0  0  0
  -37.3427   57.3462   64.8233 C   0  0  0  0  0  0  0  0  0  0  0  0
  -38.3854   57.0996   66.4859 H   0  0  0  0  0  0  0  0  0  0  0  0
  -35.9375   57.6704   64.4180 C   0  0  0  0  0  0  0  0  0  0  0  0
  -34.9497   57.9326   65.2508 C   0  0  0  0  0  0  0  0  0  0  0  0
  -33.5541   58.2380   64.8153 C   0  0  0  0  0  0  0  0  0  0  0  0
  -33.4887   59.5757   64.0756 C   0  0  0  0  0  0  0  0  0  0  0  0
  -33.3491   59.4475   62.5674 C   0  0  0  0  0  0  0  0  0  0  0  0
  -33.3583   58.0160   62.0586 C   0  0  0  0  0  0  0  0  0  0  0  0
  -34.7382   57.5073   61.6678 C   0  0  0  0  0  0  0  0  0  0  0  0
  -35.6437   58.5824   61.0869 C   0  0  0  0  0  0  0  0  0  0  0  0
  -37.1132   58.1997   61.0669 C   0  0  0  0  0  0  0  0  0  0  0  0
  -37.9158   58.8852   59.9769 C   0  0  0  0  0  0  0  0  0  0  0  0
  -38.7881   60.0233   60.4782 C   0  0  0  0  0  0  0  0  0  0  0  0
  -40.0633   59.5437   61.1464 C   0  0  0  0  0  0  0  0  0  0  0  0
  -41.2787   59.5301   60.2391 C   0  0  0  0  0  0  0  0  0  0  0  0
  -41.6912   58.1272   59.8388 C   0  0  0  0  0  0  0  0  0  0  0  0
  -41.5000   57.1246   60.9581 C   0  0  0  0  0  0  0  0  0  0  0  0
  -37.6844   59.7047   63.9711 C   0  0  0  0  0  0  0  0  0  0  0  0
  -37.3758   60.3344   65.2197 O   0  0  0  0  0  0  0  0  0  0  0  0
  -36.5122   61.3541   62.7589 O   0  0  0  0  0  0  0  0  0  0  0  0
  -36.5146   64.7362   65.4204 O   0  0  0  0  0  0  0  0  0  0  0  0
  -36.2685   62.0215   66.3406 O   0  0  0  0  0  0  0  0  0  0  0  0
  -36.3148   61.2426   65.1597 C   0  0  0  0  0  0  0  0  0  0  0  0
  -36.5280   62.1374   63.9456 C   0  0  0  0  0  0  0  0  0  0  0  0
  -35.4395   63.2018   63.8894 C   0  0  0  0  0  0  0  0  0  0  0  0
  -35.3431   63.9553   65.2077 C   0  0  0  0  0  0  0  0  0  0  0  0
  -35.1825   62.9617   66.3556 C   0  0  0  0  0  0  0  0  0  0  0  0
  -37.2088   60.6808   62.8066 H   0  0  0  0  0  0  0  0  0  0  0  0
  -36.6186   65.3684   64.6921 H   0  0  0  0  0  0  0  0  0  0  0  0
  -36.4540   63.4788   68.3568 O   0  0  0  0  0  0  0  0  0  0  0  0
  -35.1911   63.6184   67.7162 C   0  0  0  0  0  0  0  0  0  0  0  0
  -36.4256   63.9101   69.2251 H   0  0  0  0  0  0  0  0  0  0  0  0
  -35.8725   64.1176   62.8343 O   0  0  0  0  0  0  0  0  0  0  0  0
  -33.6738   63.7545   61.9173 O   0  0  0  0  0  0  0  0  0  0  0  0
  -34.7869   65.9989   61.7183 O   0  0  0  0  0  0  0  0  0  0  0  0
  -35.5318   64.1170   60.4772 O   0  0  0  0  0  0  0  0  0  0  0  0
  -34.8088   64.5848   61.7509 S   0  0  0  0  0  0  0  0  0  0  0  0
  -33.1914   64.0223   62.7151 H   0  0  0  0  0  0  0  0  0  0  0  0
  -35.5671   63.1477   60.4629 H   0  0  0  0  0  0  0  0  0  0  0  0
  2  1  1  0  0  0
  2  4  1  0  0  0
  2  5  1  0  0  0
 47 48  1  0  0  0
 47  1  1  0  0  0
 48 52  1  0  0  0
  1 30  1  0  0  0
 29 30  1  0  0  0
 29 31  1  0  0  0
 30 32  1  0  0  0
  3  4  2  0  0  0
 32 33  2  0  0  0
 49 53  1  0  0  0
 49 57  1  0  0  0
 33 34  1  0  0  0
 62 54  1  0  0  0
 62 66  1  0  0  0
 34 35  1  0  0  0
 50 55  1  0  0  0
 50 58  1  0  0  0
 35 36  1  0  0  0
 51 52  1  0  0  0
 51 56  1  0  0  0
 36 37  1  0  0  0
 59 60  1  0  0  0
 59 61  1  0  0  0
 37 38  1  0  0  0
 63 66  1  0  0  0
 63 67  1  0  0  0
 38 39  1  0  0  0
 64 66  1  0  0  0
 39 40  1  0  0  0
 65 66  1  0  0  0
 65 68  1  0  0  0
 40 41  1  0  0  0
 41 42  1  0  0  0
 42 43  1  0  0  0
 43 44  1  0  0  0
 44 45  1  0  0  0
 45 46  1  0  0  0
  4  6  1  0  0  0
  6  7  1  0  0  0
  7  8  1  0  0  0
  8  9  1  0  0  0
  9 10  1  0  0  0
 10 11  1  0  0  0
 11 12  1  0  0  0
 12 13  1  0  0  0
 13 14  1  0  0  0
 14 15  1  0  0  0
 15 16  1  0  0  0
 16 17  1  0  0  0
 17 18  1  0  0  0
 18 19  1  0  0  0
 19 20  2  0  0  0
 20 21  1  0  0  0
 21 22  1  0  0  0
 22 23  1  0  0  0
 23 24  1  0  0  0
 24 25  1  0  0  0
 25 26  1  0  0  0
 26 27  1  0  0  0
 27 28  1  0  0  0
 52 53  1  0  0  0
 53 54  1  0  0  0
 54 55  1  0  0  0
 55 56  1  0  0  0
 56 60  1  0  0  0
M  CHG 1  64  -1
M  END
> <minimizedAffinity>
-7.97419

> <CNNscore>
0.1078210324

> <CNNaffinity>
7.3073120117

> <CNN_VS>
0.7878819108

> <CNNaffinity_variance>
1.6135240793

$$$$
/media/chris/experiments/cd1a-new-docking/inputs/ligands/7ryn_ligand.pdb


 68 68  0  0  0  0  0  0  0  0999 V2000
  -35.7375   61.6094   63.9542 C   0  0  0  0  0  0  0  0  0  0  0  0
  -36.5924   61.3221   65.1022 N   0  0  0  0  0  0  0  0  0  0  0  0
  -38.4326   60.8238   63.9052 O   0  0  0  0  0  0  0  0  0  0  0  0
  -37.8709   60.9524   64.9890 C   0  0  0  0  0  0  0  0  0  0  0  0
  -36.2075   61.4051   66.0045 H   0  0  0  0  0  0  0  0  0  0  0  0
  -38.5919   60.6913   66.2880 C   0  0  0  0  0  0  0  0  0  0  0  0
  -39.8362   59.8320   66.1038 C   0  0  0  0  0  0  0  0  0  0  0  0
  -41.1242   60.6282   66.2394 C   0  0  0  0  0  0  0  0  0  0  0  0
  -42.1445   59.9956   67.1710 C   0  0  0  0  0  0  0  0  0  0  0  0
  -42.6724   58.6539   66.6853 C   0  0  0  0  0  0  0  0  0  0  0  0
  -43.5457   58.7453   65.4406 C   0  0  0  0  0  0  0  0  0  0  0  0
  -44.8872   58.0362   65.5747 C   0  0  0  0  0  0  0  0  0  0  0  0
  -45.5420   58.1735   66.9469 C   0  0  0  0  0  0  0  0  0  0  0  0
  -46.8067   57.3337   67.1194 C   0  0  0  0  0  0  0  0  0  0  0  0
  -48.0332   57.8701   66.3816 C   0  0  0  0  0  0  0  0  0  0  0  0
  -48.3605   59.3243   66.7215 C   0  0  0  0  0  0  0  0  0  0  0  0
  -48.1749   60.3151   65.5723 C   0  0  0  0  0  0  0  0  0  0  0  0
  -48.3719   59.7245   64.1735 C   0  0  0  0  0  0  0  0  0  0  0  0
  -49.3087   60.5347   63.3250 C   0  0  0  0  0  0  0  0  0  0  0  0
  -50.3660   60.0771   62.6780 C   0  0  0  0  0  0  0  0  0  0  0  0
  -50.8444   58.6570   62.6635 C   0  0  0  0  0  0  0  0  0  0  0  0
  -50.0444   57.7485   61.7275 C   0  0  0  0  0  0  0  0  0  0  0  0
  -49.8039   58.3610   60.3542 C   0  0  0  0  0  0  0  0  0  0  0  0
  -49.3143   57.3536   59.3198 C   0  0  0  0  0  0  0  0  0  0  0  0
  -47.8298   57.0204   59.4165 C   0  0  0  0  0  0  0  0  0  0  0  0
  -47.3634   55.9963   58.3914 C   0  0  0  0  0  0  0  0  0  0  0  0
  -47.0358   56.5850   57.0283 C   0  0  0  0  0  0  0  0  0  0  0  0
  -46.8571   58.0892   57.0636 C   0  0  0  0  0  0  0  0  0  0  0  0
  -33.8788   60.6732   62.7279 O   0  0  0  0  0  0  0  0  0  0  0  0
  -34.4762   60.7338   64.0263 C   0  0  0  0  0  0  0  0  0  0  0  0
  -33.6843   61.5720   62.4193 H   0  0  0  0  0  0  0  0  0  0  0  0
  -34.7911   59.3607   64.5359 C   0  0  0  0  0  0  0  0  0  0  0  0
  -35.5873   58.4952   63.9401 C   0  0  0  0  0  0  0  0  0  0  0  0
  -35.8697   57.1263   64.4665 C   0  0  0  0  0  0  0  0  0  0  0  0
  -37.2994   57.0271   65.0024 C   0  0  0  0  0  0  0  0  0  0  0  0
  -38.3748   57.2931   63.9616 C   0  0  0  0  0  0  0  0  0  0  0  0
  -39.7953   57.1867   64.4897 C   0  0  0  0  0  0  0  0  0  0  0  0
  -40.8591   57.6361   63.4987 C   0  0  0  0  0  0  0  0  0  0  0  0
  -41.7594   56.5093   63.0161 C   0  0  0  0  0  0  0  0  0  0  0  0
  -41.6773   56.2584   61.5206 C   0  0  0  0  0  0  0  0  0  0  0  0
  -42.0429   57.4613   60.6710 C   0  0  0  0  0  0  0  0  0  0  0  0
  -40.8935   57.9958   59.8340 C   0  0  0  0  0  0  0  0  0  0  0  0
  -40.6656   59.4844   60.0206 C   0  0  0  0  0  0  0  0  0  0  0  0
  -39.6369   59.8324   61.0795 C   0  0  0  0  0  0  0  0  0  0  0  0
  -38.2518   59.3202   60.7367 C   0  0  0  0  0  0  0  0  0  0  0  0
  -38.0689   59.0922   59.2504 C   0  0  0  0  0  0  0  0  0  0  0  0
  -35.4030   63.0861   63.9122 C   0  0  0  0  0  0  0  0  0  0  0  0
  -35.3042   63.4868   62.5409 O   0  0  0  0  0  0  0  0  0  0  0  0
  -34.6762   65.9831   63.6432 O   0  0  0  0  0  0  0  0  0  0  0  0
  -31.0057   63.7423   63.8120 O   0  0  0  0  0  0  0  0  0  0  0  0
  -33.1018   63.1716   61.9256 O   0  0  0  0  0  0  0  0  0  0  0  0
  -34.1056   64.1272   62.2132 C   0  0  0  0  0  0  0  0  0  0  0  0
  -33.6907   64.9874   63.3998 C   0  0  0  0  0  0  0  0  0  0  0  0
  -32.3415   65.6378   63.1211 C   0  0  0  0  0  0  0  0  0  0  0  0
  -31.3071   64.5985   62.7148 C   0  0  0  0  0  0  0  0  0  0  0  0
  -31.8464   63.7642   61.5556 C   0  0  0  0  0  0  0  0  0  0  0  0
  -35.5297   65.5571   63.8191 H   0  0  0  0  0  0  0  0  0  0  0  0
  -30.6628   64.2705   64.5497 H   0  0  0  0  0  0  0  0  0  0  0  0
  -31.3730   61.3878   61.6882 O   0  0  0  0  0  0  0  0  0  0  0  0
  -30.9279   62.6319   61.1600 C   0  0  0  0  0  0  0  0  0  0  0  0
  -30.7630   60.6844   61.4165 H   0  0  0  0  0  0  0  0  0  0  0  0
  -31.9523   66.2416   64.3952 O   0  0  0  0  0  0  0  0  0  0  0  0
  -33.3103   64.5539   65.4508 O   0  0  0  0  0  0  0  0  0  0  0  0
  -32.2021   66.3447   66.8221 O   0  0  0  0  0  0  0  0  0  0  0  0
  -30.9583   64.5979   65.8030 O   0  0  0  0  0  0  0  0  0  0  0  0
  -32.2430   65.4399   65.7354 S   0  0  0  0  0  0  0  0  0  0  0  0
  -34.1404   65.0531   65.4007 H   0  0  0  0  0  0  0  0  0  0  0  0
  -30.9495   63.9622   65.0704 H   0  0  0  0  0  0  0  0  0  0  0  0
  2  1  1  0  0  0
  2  4  1  0  0  0
  2  5  1  0  0  0
 47 48  1  0  0  0
 47  1  1  0  0  0
 48 52  1  0  0  0
  1 30  1  0  0  0
 29 30  1  0  0  0
 29 31  1  0  0  0
 30 32  1  0  0  0
  3  4  2  0  0  0
 32 33  2  0  0  0
 49 53  1  0  0  0
 49 57  1  0  0  0
 33 34  1  0  0  0
 62 54  1  0  0  0
 62 66  1  0  0  0
 34 35  1  0  0  0
 50 55  1  0  0  0
 50 58  1  0  0  0
 35 36  1  0  0  0
 51 52  1  0  0  0
 51 56  1  0  0  0
 36 37  1  0  0  0
 59 60  1  0  0  0
 59 61  1  0  0  0
 37 38  1  0  0  0
 63 66  1  0  0  0
 63 67  1  0  0  0
 38 39  1  0  0  0
 64 66  1  0  0  0
 39 40  1  0  0  0
 65 66  1  0  0  0
 65 68  1  0  0  0
 40 41  1  0  0  0
 41 42  1  0  0  0
 42 43  1  0  0  0
 43 44  1  0  0  0
 44 45  1  0  0  0
 45 46  1  0  0  0
  4  6  1  0  0  0
  6  7  1  0  0  0
  7  8  1  0  0  0
  8  9  1  0  0  0
  9 10  1  0  0  0
 10 11  1  0  0  0
 11 12  1  0  0  0
 12 13  1  0  0  0
 13 14  1  0  0  0
 14 15  1  0  0  0
 15 16  1  0  0  0
 16 17  1  0  0  0
 17 18  1  0  0  0
 18 19  1  0  0  0
 19 20  2  0  0  0
 20 21  1  0  0  0
 21 22  1  0  0  0
 22 23  1  0  0  0
 23 24  1  0  0  0
 24 25  1  0  0  0
 25 26  1  0  0  0
 26 27  1  0  0  0
 27 28  1  0  0  0
 52 53  1  0  0  0
 53 54  1  0  0  0
 54 55  1  0  0  0
 55 56  1  0  0  0
 56 60  1  0  0  0
M  CHG 1  64  -1
M  END
> <minimizedAffinity>
-8.67335

> <CNNscore>
0.1066645682

> <CNNaffinity>
7.0671663284

> <CNN_VS>
0.7538162470

> <CNNaffinity_variance>
1.0229749680

$$$$
/media/chris/experiments/cd1a-new-docking/inputs/ligands/7ryn_ligand.pdb


 68 68  0  0  0  0  0  0  0  0999 V2000
  -34.6267   61.3300   64.2875 C   0  0  0  0  0  0  0  0  0  0  0  0
  -35.6838   60.9755   65.2299 N   0  0  0  0  0  0  0  0  0  0  0  0
  -37.3496   61.9904   64.1062 O   0  0  0  0  0  0  0  0  0  0  0  0
  -36.9606   61.3324   65.0667 C   0  0  0  0  0  0  0  0  0  0  0  0
  -35.4437   60.4472   66.0252 H   0  0  0  0  0  0  0  0  0  0  0  0
  -37.9106   60.8670   66.1420 C   0  0  0  0  0  0  0  0  0  0  0  0
  -38.6002   59.5562   65.7857 C   0  0  0  0  0  0  0  0  0  0  0  0
  -40.0825   59.7328   65.4976 C   0  0  0  0  0  0  0  0  0  0  0  0
  -40.9290   59.9579   66.7393 C   0  0  0  0  0  0  0  0  0  0  0  0
  -42.3799   59.5284   66.5810 C   0  0  0  0  0  0  0  0  0  0  0  0
  -42.5647   58.0289   66.3867 C   0  0  0  0  0  0  0  0  0  0  0  0
  -43.9378   57.6404   65.8538 C   0  0  0  0  0  0  0  0  0  0  0  0
  -45.0325   58.6728   66.1109 C   0  0  0  0  0  0  0  0  0  0  0  0
  -46.2913   58.0969   66.7577 C   0  0  0  0  0  0  0  0  0  0  0  0
  -47.2599   57.4285   65.7823 C   0  0  0  0  0  0  0  0  0  0  0  0
  -48.7286   57.7345   66.0770 C   0  0  0  0  0  0  0  0  0  0  0  0
  -49.0684   59.2198   66.1992 C   0  0  0  0  0  0  0  0  0  0  0  0
  -49.0451   59.9973   64.8805 C   0  0  0  0  0  0  0  0  0  0  0  0
  -50.4143   60.4074   64.4209 C   0  0  0  0  0  0  0  0  0  0  0  0
  -51.1758   59.7526   63.5622 C   0  0  0  0  0  0  0  0  0  0  0  0
  -50.8266   58.4667   62.8764 C   0  0  0  0  0  0  0  0  0  0  0  0
  -50.0777   58.6581   61.5558 C   0  0  0  0  0  0  0  0  0  0  0  0
  -50.4107   57.5971   60.5154 C   0  0  0  0  0  0  0  0  0  0  0  0
  -49.4386   56.4226   60.5166 C   0  0  0  0  0  0  0  0  0  0  0  0
  -48.3861   56.4732   59.4149 C   0  0  0  0  0  0  0  0  0  0  0  0
  -48.6397   57.5545   58.3740 C   0  0  0  0  0  0  0  0  0  0  0  0
  -47.3937   58.0040   57.6275 C   0  0  0  0  0  0  0  0  0  0  0  0
  -46.6387   56.8530   56.9944 C   0  0  0  0  0  0  0  0  0  0  0  0
  -33.3608   60.3614   62.4725 O   0  0  0  0  0  0  0  0  0  0  0  0
  -34.0091   60.0470   63.7084 C   0  0  0  0  0  0  0  0  0  0  0  0
  -32.6972   61.0527   62.6223 H   0  0  0  0  0  0  0  0  0  0  0  0
  -35.0430   58.9804   63.5150 C   0  0  0  0  0  0  0  0  0  0  0  0
  -35.3290   58.4015   62.3656 C   0  0  0  0  0  0  0  0  0  0  0  0
  -36.3564   57.3289   62.2079 C   0  0  0  0  0  0  0  0  0  0  0  0
  -37.4216   57.4220   63.3022 C   0  0  0  0  0  0  0  0  0  0  0  0
  -38.8171   57.7368   62.7882 C   0  0  0  0  0  0  0  0  0  0  0  0
  -39.7088   56.5189   62.6161 C   0  0  0  0  0  0  0  0  0  0  0  0
  -41.1526   56.7443   63.0409 C   0  0  0  0  0  0  0  0  0  0  0  0
  -41.9706   57.5332   62.0301 C   0  0  0  0  0  0  0  0  0  0  0  0
  -41.6587   57.1850   60.5852 C   0  0  0  0  0  0  0  0  0  0  0  0
  -41.4418   58.3918   59.6915 C   0  0  0  0  0  0  0  0  0  0  0  0
  -40.6231   59.4966   60.3371 C   0  0  0  0  0  0  0  0  0  0  0  0
  -41.3680   60.2169   61.4456 C   0  0  0  0  0  0  0  0  0  0  0  0
  -42.1304   61.4469   60.9913 C   0  0  0  0  0  0  0  0  0  0  0  0
  -42.9655   62.0570   62.0998 C   0  0  0  0  0  0  0  0  0  0  0  0
  -42.8036   61.3271   63.4171 C   0  0  0  0  0  0  0  0  0  0  0  0
  -33.5926   62.2009   64.9704 C   0  0  0  0  0  0  0  0  0  0  0  0
  -32.3834   62.1488   64.2049 O   0  0  0  0  0  0  0  0  0  0  0  0
  -33.0355   63.2137   61.6986 O   0  0  0  0  0  0  0  0  0  0  0  0
  -33.3694   66.5231   64.4296 O   0  0  0  0  0  0  0  0  0  0  0  0
  -31.7120   64.2290   64.9468 O   0  0  0  0  0  0  0  0  0  0  0  0
  -31.8945   63.3990   63.8150 C   0  0  0  0  0  0  0  0  0  0  0  0
  -32.9039   64.0232   62.8603 C   0  0  0  0  0  0  0  0  0  0  0  0
  -32.4539   65.4272   62.4764 C   0  0  0  0  0  0  0  0  0  0  0  0
  -32.1662   66.2662   63.7127 C   0  0  0  0  0  0  0  0  0  0  0  0
  -31.1862   65.5250   64.6187 C   0  0  0  0  0  0  0  0  0  0  0  0
  -33.3221   62.3235   61.9557 H   0  0  0  0  0  0  0  0  0  0  0  0
  -33.9935   66.9942   63.8557 H   0  0  0  0  0  0  0  0  0  0  0  0
  -32.0059   66.0569   66.8400 O   0  0  0  0  0  0  0  0  0  0  0  0
  -30.9301   66.2371   65.9263 C   0  0  0  0  0  0  0  0  0  0  0  0
  -31.8103   66.5254   67.6664 H   0  0  0  0  0  0  0  0  0  0  0  0
  -33.5921   65.9956   61.7548 O   0  0  0  0  0  0  0  0  0  0  0  0
  -35.1096   64.8504   63.2354 O   0  0  0  0  0  0  0  0  0  0  0  0
  -35.2236   64.4803   60.7523 O   0  0  0  0  0  0  0  0  0  0  0  0
  -35.9147   66.5221   61.7473 O   0  0  0  0  0  0  0  0  0  0  0  0
  -35.0080   65.2889   61.8928 S   0  0  0  0  0  0  0  0  0  0  0  0
  -34.5479   64.0700   63.3640 H   0  0  0  0  0  0  0  0  0  0  0  0
  -35.7949   67.1038   62.5142 H   0  0  0  0  0  0  0  0  0  0  0  0
  2  1  1  0  0  0
  2  4  1  0  0  0
  2  5  1  0  0  0
 47 48  1  0  0  0
 47  1  1  0  0  0
 48 52  1  0  0  0
  1 30  1  0  0  0
 29 30  1  0  0  0
 29 31  1  0  0  0
 30 32  1  0  0  0
  3  4  2  0  0  0
 32 33  2  0  0  0
 49 53  1  0  0  0
 49 57  1  0  0  0
 33 34  1  0  0  0
 62 54  1  0  0  0
 62 66  1  0  0  0
 34 35  1  0  0  0
 50 55  1  0  0  0
 50 58  1  0  0  0
 35 36  1  0  0  0
 51 52  1  0  0  0
 51 56  1  0  0  0
 36 37  1  0  0  0
 59 60  1  0  0  0
 59 61  1  0  0  0
 37 38  1  0  0  0
 63 66  1  0  0  0
 63 67  1  0  0  0
 38 39  1  0  0  0
 64 66  1  0  0  0
 39 40  1  0  0  0
 65 66  1  0  0  0
 65 68  1  0  0  0
 40 41  1  0  0  0
 41 42  1  0  0  0
 42 43  1  0  0  0
 43 44  1  0  0  0
 44 45  1  0  0  0
 45 46  1  0  0  0
  4  6  1  0  0  0
  6  7  1  0  0  0
  7  8  1  0  0  0
  8  9  1  0  0  0
  9 10  1  0  0  0
 10 11  1  0  0  0
 11 12  1  0  0  0
 12 13  1  0  0  0
 13 14  1  0  0  0
 14 15  1  0  0  0
 15 16  1  0  0  0
 16 17  1  0  0  0
 17 18  1  0  0  0
 18 19  1  0  0  0
 19 20  2  0  0  0
 20 21  1  0  0  0
 21 22  1  0  0  0
 22 23  1  0  0  0
 23 24  1  0  0  0
 24 25  1  0  0  0
 25 26  1  0  0  0
 26 27  1  0  0  0
 27 28  1  0  0  0
 52 53  1  0  0  0
 53 54  1  0  0  0
 54 55  1  0  0  0
 55 56  1  0  0  0
 56 60  1  0  0  0
M  CHG 1  64  -1
M  END
> <minimizedAffinity>
-8.96485

> <CNNscore>
0.0979033560

> <CNNaffinity>
7.2039313316

> <CNN_VS>
0.7052890658

> <CNNaffinity_variance>
1.2924979925

$$$$
/media/chris/experiments/cd1a-new-docking/inputs/ligands/7ryn_ligand.pdb


 68 68  0  0  0  0  0  0  0  0999 V2000
  -36.3948   60.9241   64.5467 C   0  0  0  0  0  0  0  0  0  0  0  0
  -37.5929   61.0586   65.3699 N   0  0  0  0  0  0  0  0  0  0  0  0
  -38.1979   58.8931   65.2586 O   0  0  0  0  0  0  0  0  0  0  0  0
  -38.3999   60.0350   65.6614 C   0  0  0  0  0  0  0  0  0  0  0  0
  -37.8172   61.9479   65.7279 H   0  0  0  0  0  0  0  0  0  0  0  0
  -39.5858   60.3668   66.5326 C   0  0  0  0  0  0  0  0  0  0  0  0
  -40.8638   59.6809   66.0668 C   0  0  0  0  0  0  0  0  0  0  0  0
  -41.7221   60.5752   65.1867 C   0  0  0  0  0  0  0  0  0  0  0  0
  -41.6281   60.2541   63.7044 C   0  0  0  0  0  0  0  0  0  0  0  0
  -42.9670   59.9290   63.0592 C   0  0  0  0  0  0  0  0  0  0  0  0
  -44.0537   59.5349   64.0514 C   0  0  0  0  0  0  0  0  0  0  0  0
  -44.1478   58.0350   64.2999 C   0  0  0  0  0  0  0  0  0  0  0  0
  -44.2330   57.6409   65.7723 C   0  0  0  0  0  0  0  0  0  0  0  0
  -45.4547   58.2034   66.4971 C   0  0  0  0  0  0  0  0  0  0  0  0
  -46.6878   57.3008   66.4622 C   0  0  0  0  0  0  0  0  0  0  0  0
  -47.9924   58.0612   66.2227 C   0  0  0  0  0  0  0  0  0  0  0  0
  -47.8226   59.5127   65.7747 C   0  0  0  0  0  0  0  0  0  0  0  0
  -47.9845   59.7465   64.2702 C   0  0  0  0  0  0  0  0  0  0  0  0
  -49.2495   60.4783   63.9264 C   0  0  0  0  0  0  0  0  0  0  0  0
  -50.3701   59.9324   63.4883 C   0  0  0  0  0  0  0  0  0  0  0  0
  -50.6046   58.4716   63.2491 C   0  0  0  0  0  0  0  0  0  0  0  0
  -50.6680   58.0938   61.7677 C   0  0  0  0  0  0  0  0  0  0  0  0
  -50.0362   59.1348   60.8532 C   0  0  0  0  0  0  0  0  0  0  0  0
  -48.9375   58.5688   59.9606 C   0  0  0  0  0  0  0  0  0  0  0  0
  -48.9075   57.0466   59.8847 C   0  0  0  0  0  0  0  0  0  0  0  0
  -47.6293   56.4883   59.2749 C   0  0  0  0  0  0  0  0  0  0  0  0
  -47.7517   56.1161   57.8058 C   0  0  0  0  0  0  0  0  0  0  0  0
  -47.2252   57.1932   56.8792 C   0  0  0  0  0  0  0  0  0  0  0  0
  -34.8129   61.5190   66.2726 O   0  0  0  0  0  0  0  0  0  0  0  0
  -35.2259   60.4451   65.4225 C   0  0  0  0  0  0  0  0  0  0  0  0
  -35.5677   61.8213   66.8015 H   0  0  0  0  0  0  0  0  0  0  0  0
  -34.0832   59.9517   64.5889 C   0  0  0  0  0  0  0  0  0  0  0  0
  -33.4465   58.8122   64.7739 C   0  0  0  0  0  0  0  0  0  0  0  0
  -32.3191   58.3408   63.9152 C   0  0  0  0  0  0  0  0  0  0  0  0
  -32.8118   57.9702   62.5149 C   0  0  0  0  0  0  0  0  0  0  0  0
  -34.1771   57.3023   62.4912 C   0  0  0  0  0  0  0  0  0  0  0  0
  -35.2238   58.0489   61.6819 C   0  0  0  0  0  0  0  0  0  0  0  0
  -36.6146   58.0269   62.2990 C   0  0  0  0  0  0  0  0  0  0  0  0
  -37.5685   59.0440   61.6917 C   0  0  0  0  0  0  0  0  0  0  0  0
  -37.8765   58.7949   60.2257 C   0  0  0  0  0  0  0  0  0  0  0  0
  -39.1403   59.4762   59.7351 C   0  0  0  0  0  0  0  0  0  0  0  0
  -40.3839   59.1107   60.5272 C   0  0  0  0  0  0  0  0  0  0  0  0
  -40.9329   57.7415   60.1716 C   0  0  0  0  0  0  0  0  0  0  0  0
  -42.0383   57.2528   61.0879 C   0  0  0  0  0  0  0  0  0  0  0  0
  -41.5048   56.6150   62.3556 C   0  0  0  0  0  0  0  0  0  0  0  0
  -39.9911   56.6147   62.4123 C   0  0  0  0  0  0  0  0  0  0  0  0
  -36.0879   62.2376   63.8574 C   0  0  0  0  0  0  0  0  0  0  0  0
  -35.5958   63.1571   64.8388 O   0  0  0  0  0  0  0  0  0  0  0  0
  -32.8023   63.0037   64.9556 O   0  0  0  0  0  0  0  0  0  0  0  0
  -33.6659   64.5021   61.0147 O   0  0  0  0  0  0  0  0  0  0  0  0
  -35.4672   64.8137   63.2363 O   0  0  0  0  0  0  0  0  0  0  0  0
  -34.8052   64.1859   64.3185 C   0  0  0  0  0  0  0  0  0  0  0  0
  -33.4889   63.5786   63.8510 C   0  0  0  0  0  0  0  0  0  0  0  0
  -32.6280   64.6509   63.1953 C   0  0  0  0  0  0  0  0  0  0  0  0
  -33.3988   65.3792   62.1042 C   0  0  0  0  0  0  0  0  0  0  0  0
  -34.7180   65.9003   62.6689 C   0  0  0  0  0  0  0  0  0  0  0  0
  -33.3599   62.3233   65.3643 H   0  0  0  0  0  0  0  0  0  0  0  0
  -32.8289   64.1699   60.6543 H   0  0  0  0  0  0  0  0  0  0  0  0
  -36.2722   65.5653   60.8356 O   0  0  0  0  0  0  0  0  0  0  0  0
  -35.6005   66.5413   61.6237 C   0  0  0  0  0  0  0  0  0  0  0  0
  -36.8285   66.0088   60.1764 H   0  0  0  0  0  0  0  0  0  0  0  0
  -31.5135   63.9158   62.5978 O   0  0  0  0  0  0  0  0  0  0  0  0
  -31.2202   62.5922   60.6056 O   0  0  0  0  0  0  0  0  0  0  0  0
  -33.1571   62.1663   62.1492 O   0  0  0  0  0  0  0  0  0  0  0  0
  -30.9288   61.6123   62.7533 O   0  0  0  0  0  0  0  0  0  0  0  0
  -31.8138   62.5259   61.8895 S   0  0  0  0  0  0  0  0  0  0  0  0
  -31.7544   63.1629   60.0314 H   0  0  0  0  0  0  0  0  0  0  0  0
  -29.9956   61.8293   62.6023 H   0  0  0  0  0  0  0  0  0  0  0  0
  2  1  1  0  0  0
  2  4  1  0  0  0
  2  5  1  0  0  0
 47 48  1  0  0  0
 47  1  1  0  0  0
 48 52  1  0  0  0
  1 30  1  0  0  0
 29 30  1  0  0  0
 29 31  1  0  0  0
 30 32  1  0  0  0
  3  4  2  0  0  0
 32 33  2  0  0  0
 49 53  1  0  0  0
 49 57  1  0  0  0
 33 34  1  0  0  0
 62 54  1  0  0  0
 62 66  1  0  0  0
 34 35  1  0  0  0
 50 55  1  0  0  0
 50 58  1  0  0  0
 35 36  1  0  0  0
 51 52  1  0  0  0
 51 56  1  0  0  0
 36 37  1  0  0  0
 59 60  1  0  0  0
 59 61  1  0  0  0
 37 38  1  0  0  0
 63 66  1  0  0  0
 63 67  1  0  0  0
 38 39  1  0  0  0
 64 66  1  0  0  0
 39 40  1  0  0  0
 65 66  1  0  0  0
 65 68  1  0  0  0
 40 41  1  0  0  0
 41 42  1  0  0  0
 42 43  1  0  0  0
 43 44  1  0  0  0
 44 45  1  0  0  0
 45 46  1  0  0  0
  4  6  1  0  0  0
  6  7  1  0  0  0
  7  8  1  0  0  0
  8  9  1  0  0  0
  9 10  1  0  0  0
 10 11  1  0  0  0
 11 12  1  0  0  0
 12 13  1  0  0  0
 13 14  1  0  0  0
 14 15  1  0  0  0
 15 16  1  0  0  0
 16 17  1  0  0  0
 17 18  1  0  0  0
 18 19  1  0  0  0
 19 20  2  0  0  0
 20 21  1  0  0  0
 21 22  1  0  0  0
 22 23  1  0  0  0
 23 24  1  0  0  0
 24 25  1  0  0  0
 25 26  1  0  0  0
 26 27  1  0  0  0
 27 28  1  0  0  0
 52 53  1  0  0  0
 53 54  1  0  0  0
 54 55  1  0  0  0
 55 56  1  0  0  0
 56 60  1  0  0  0
M  CHG 1  64  -1
M  END
> <minimizedAffinity>
-8.50373

> <CNNscore>
0.0959339961

> <CNNaffinity>
7.0962891579

> <CNN_VS>
0.6807754040

> <CNNaffinity_variance>
1.2410957813

$$$$
/media/chris/experiments/cd1a-new-docking/inputs/ligands/7ryn_ligand.pdb


 68 68  0  0  0  0  0  0  0  0999 V2000
  -35.6059   59.3689   63.5081 C   0  0  0  0  0  0  0  0  0  0  0  0
  -36.9185   59.1804   64.1187 N   0  0  0  0  0  0  0  0  0  0  0  0
  -36.4743   57.1618   65.0106 O   0  0  0  0  0  0  0  0  0  0  0  0
  -37.2503   58.0938   64.8211 C   0  0  0  0  0  0  0  0  0  0  0  0
  -37.5925   59.8893   64.0072 H   0  0  0  0  0  0  0  0  0  0  0  0
  -38.6506   58.0820   65.3818 C   0  0  0  0  0  0  0  0  0  0  0  0
  -39.5072   56.9687   64.7925 C   0  0  0  0  0  0  0  0  0  0  0  0
  -40.7348   57.4950   64.0663 C   0  0  0  0  0  0  0  0  0  0  0  0
  -41.7768   56.4305   63.7661 C   0  0  0  0  0  0  0  0  0  0  0  0
  -43.1356   56.7058   64.3924 C   0  0  0  0  0  0  0  0  0  0  0  0
  -43.7814   58.0043   63.9263 C   0  0  0  0  0  0  0  0  0  0  0  0
  -45.0294   58.3889   64.7104 C   0  0  0  0  0  0  0  0  0  0  0  0
  -45.2463   57.5855   65.9903 C   0  0  0  0  0  0  0  0  0  0  0  0
  -46.6562   57.7030   66.5671 C   0  0  0  0  0  0  0  0  0  0  0  0
  -47.0663   59.1211   66.9636 C   0  0  0  0  0  0  0  0  0  0  0  0
  -48.4616   59.5105   66.4748 C   0  0  0  0  0  0  0  0  0  0  0  0
  -49.3038   58.3552   65.9339 C   0  0  0  0  0  0  0  0  0  0  0  0
  -50.7872   58.6770   65.7337 C   0  0  0  0  0  0  0  0  0  0  0  0
  -51.0113   59.8670   64.8462 C   0  0  0  0  0  0  0  0  0  0  0  0
  -51.1671   59.8415   63.5343 C   0  0  0  0  0  0  0  0  0  0  0  0
  -51.1542   58.6183   62.6685 C   0  0  0  0  0  0  0  0  0  0  0  0
  -49.7794   58.2978   62.0780 C   0  0  0  0  0  0  0  0  0  0  0  0
  -49.6402   58.7093   60.6184 C   0  0  0  0  0  0  0  0  0  0  0  0
  -49.7689   57.5421   59.6460 C   0  0  0  0  0  0  0  0  0  0  0  0
  -48.7642   56.4181   59.8724 C   0  0  0  0  0  0  0  0  0  0  0  0
  -47.7012   56.3184   58.7874 C   0  0  0  0  0  0  0  0  0  0  0  0
  -48.0265   57.0992   57.5239 C   0  0  0  0  0  0  0  0  0  0  0  0
  -46.9720   58.1319   57.1814 C   0  0  0  0  0  0  0  0  0  0  0  0
  -34.2455   58.6029   61.6649 O   0  0  0  0  0  0  0  0  0  0  0  0
  -35.3426   58.2339   62.5055 C   0  0  0  0  0  0  0  0  0  0  0  0
  -33.4688   58.7958   62.2130 H   0  0  0  0  0  0  0  0  0  0  0  0
  -36.5623   57.9282   61.6914 C   0  0  0  0  0  0  0  0  0  0  0  0
  -37.2913   58.8222   61.0531 C   0  0  0  0  0  0  0  0  0  0  0  0
  -38.4949   58.4837   60.2363 C   0  0  0  0  0  0  0  0  0  0  0  0
  -39.5940   57.8682   61.1049 C   0  0  0  0  0  0  0  0  0  0  0  0
  -40.9071   57.6349   60.3755 C   0  0  0  0  0  0  0  0  0  0  0  0
  -41.3538   58.7977   59.5058 C   0  0  0  0  0  0  0  0  0  0  0  0
  -41.3977   60.1334   60.2335 C   0  0  0  0  0  0  0  0  0  0  0  0
  -42.2204   60.1055   61.5124 C   0  0  0  0  0  0  0  0  0  0  0  0
  -42.6195   61.4825   62.0134 C   0  0  0  0  0  0  0  0  0  0  0  0
  -42.1022   61.8089   63.4019 C   0  0  0  0  0  0  0  0  0  0  0  0
  -40.9794   60.8992   63.8701 C   0  0  0  0  0  0  0  0  0  0  0  0
  -40.9407   60.7318   65.3778 C   0  0  0  0  0  0  0  0  0  0  0  0
  -42.3051   60.6184   66.0304 C   0  0  0  0  0  0  0  0  0  0  0  0
  -42.2444   59.9661   67.3977 C   0  0  0  0  0  0  0  0  0  0  0  0
  -42.2147   58.4538   67.3183 C   0  0  0  0  0  0  0  0  0  0  0  0
  -34.5390   59.4389   64.5811 C   0  0  0  0  0  0  0  0  0  0  0  0
  -33.5253   60.3537   64.1495 O   0  0  0  0  0  0  0  0  0  0  0  0
  -33.6586   62.4761   62.3278 O   0  0  0  0  0  0  0  0  0  0  0  0
  -36.7575   63.2867   65.2021 O   0  0  0  0  0  0  0  0  0  0  0  0
  -34.4512   61.6744   65.8009 O   0  0  0  0  0  0  0  0  0  0  0  0
  -33.7047   61.6653   64.5984 C   0  0  0  0  0  0  0  0  0  0  0  0
  -34.4429   62.4384   63.5133 C   0  0  0  0  0  0  0  0  0  0  0  0
  -34.7383   63.8531   63.9954 C   0  0  0  0  0  0  0  0  0  0  0  0
  -35.4506   63.8350   65.3398 C   0  0  0  0  0  0  0  0  0  0  0  0
  -34.6515   62.9940   66.3322 C   0  0  0  0  0  0  0  0  0  0  0  0
  -33.4774   61.5706   62.0311 H   0  0  0  0  0  0  0  0  0  0  0  0
  -37.2671   63.8197   64.5719 H   0  0  0  0  0  0  0  0  0  0  0  0
  -36.2180   63.9176   67.9390 O   0  0  0  0  0  0  0  0  0  0  0  0
  -35.3440   62.8287   67.6646 C   0  0  0  0  0  0  0  0  0  0  0  0
  -36.6452   63.7807   68.7990 H   0  0  0  0  0  0  0  0  0  0  0  0
  -35.6291   64.4115   62.9785 O   0  0  0  0  0  0  0  0  0  0  0  0
  -35.3865   64.3343   60.5823 O   0  0  0  0  0  0  0  0  0  0  0  0
  -33.6514   65.4638   62.0069 O   0  0  0  0  0  0  0  0  0  0  0  0
  -35.8085   66.4009   61.6817 O   0  0  0  0  0  0  0  0  0  0  0  0
  -34.9847   65.1028   61.7017 S   0  0  0  0  0  0  0  0  0  0  0  0
  -34.8849   63.5043   60.5631 H   0  0  0  0  0  0  0  0  0  0  0  0
  -36.7332   66.1938   61.4747 H   0  0  0  0  0  0  0  0  0  0  0  0
  2  1  1  0  0  0
  2  4  1  0  0  0
  2  5  1  0  0  0
 47 48  1  0  0  0
 47  1  1  0  0  0
 48 52  1  0  0  0
  1 30  1  0  0  0
 29 30  1  0  0  0
 29 31  1  0  0  0
 30 32  1  0  0  0
  3  4  2  0  0  0
 32 33  2  0  0  0
 49 53  1  0  0  0
 49 57  1  0  0  0
 33 34  1  0  0  0
 62 54  1  0  0  0
 62 66  1  0  0  0
 34 35  1  0  0  0
 50 55  1  0  0  0
 50 58  1  0  0  0
 35 36  1  0  0  0
 51 52  1  0  0  0
 51 56  1  0  0  0
 36 37  1  0  0  0
 59 60  1  0  0  0
 59 61  1  0  0  0
 37 38  1  0  0  0
 63 66  1  0  0  0
 63 67  1  0  0  0
 38 39  1  0  0  0
 64 66  1  0  0  0
 39 40  1  0  0  0
 65 66  1  0  0  0
 65 68  1  0  0  0
 40 41  1  0  0  0
 41 42  1  0  0  0
 42 43  1  0  0  0
 43 44  1  0  0  0
 44 45  1  0  0  0
 45 46  1  0  0  0
  4  6  1  0  0  0
  6  7  1  0  0  0
  7  8  1  0  0  0
  8  9  1  0  0  0
  9 10  1  0  0  0
 10 11  1  0  0  0
 11 12  1  0  0  0
 12 13  1  0  0  0
 13 14  1  0  0  0
 14 15  1  0  0  0
 15 16  1  0  0  0
 16 17  1  0  0  0
 17 18  1  0  0  0
 18 19  1  0  0  0
 19 20  2  0  0  0
 20 21  1  0  0  0
 21 22  1  0  0  0
 22 23  1  0  0  0
 23 24  1  0  0  0
 24 25  1  0  0  0
 25 26  1  0  0  0
 26 27  1  0  0  0
 27 28  1  0  0  0
 52 53  1  0  0  0
 53 54  1  0  0  0
 54 55  1  0  0  0
 55 56  1  0  0  0
 56 60  1  0  0  0
M  CHG 1  64  -1
M  END
> <minimizedAffinity>
-8.97780

> <CNNscore>
0.0935092270

> <CNNaffinity>
7.4789886475

> <CNN_VS>
0.6993544698

> <CNNaffinity_variance>
1.7237888575

$$$$
