/media/chris/experiments/cd1a-new-docking/inputs/ligands/7ryn_ligand.pdb


 68 68  0  0  0  0  0  0  0  0999 V2000
  -35.4012   61.4632   64.2813 C   0  0  0  0  0  0  0  0  0  0  0  0
  -36.4872   61.0652   65.1721 N   0  0  0  0  0  0  0  0  0  0  0  0
  -38.0197   60.7603   63.5515 O   0  0  0  0  0  0  0  0  0  0  0  0
  -37.7096   60.7453   64.7392 C   0  0  0  0  0  0  0  0  0  0  0  0
  -36.3098   61.0309   66.1398 H   0  0  0  0  0  0  0  0  0  0  0  0
  -38.6982   60.3518   65.8084 C   0  0  0  0  0  0  0  0  0  0  0  0
  -40.0399   59.9168   65.2329 C   0  0  0  0  0  0  0  0  0  0  0  0
  -41.2150   60.3418   66.0988 C   0  0  0  0  0  0  0  0  0  0  0  0
  -42.0877   59.1875   66.5627 C   0  0  0  0  0  0  0  0  0  0  0  0
  -41.7713   57.8645   65.8815 C   0  0  0  0  0  0  0  0  0  0  0  0
  -42.9829   57.1822   65.2592 C   0  0  0  0  0  0  0  0  0  0  0  0
  -44.2294   58.0566   65.2171 C   0  0  0  0  0  0  0  0  0  0  0  0
  -45.3468   57.6128   66.1577 C   0  0  0  0  0  0  0  0  0  0  0  0
  -46.2005   58.7606   66.6948 C   0  0  0  0  0  0  0  0  0  0  0  0
  -47.6980   58.4623   66.7643 C   0  0  0  0  0  0  0  0  0  0  0  0
  -48.3325   58.2090   65.3966 C   0  0  0  0  0  0  0  0  0  0  0  0
  -48.0104   59.2552   64.3298 C   0  0  0  0  0  0  0  0  0  0  0  0
  -48.8896   60.5080   64.3688 C   0  0  0  0  0  0  0  0  0  0  0  0
  -50.3158   60.2087   64.7301 C   0  0  0  0  0  0  0  0  0  0  0  0
  -51.2498   59.7626   63.9089 C   0  0  0  0  0  0  0  0  0  0  0  0
  -51.0723   59.4627   62.4512 C   0  0  0  0  0  0  0  0  0  0  0  0
  -51.1628   57.9727   62.1149 C   0  0  0  0  0  0  0  0  0  0  0  0
  -50.6015   57.6302   60.7412 C   0  0  0  0  0  0  0  0  0  0  0  0
  -49.2285   58.2395   60.4798 C   0  0  0  0  0  0  0  0  0  0  0  0
  -48.6674   57.9584   59.0906 C   0  0  0  0  0  0  0  0  0  0  0  0
  -47.6568   56.8205   59.0565 C   0  0  0  0  0  0  0  0  0  0  0  0
  -47.2333   56.4062   57.6562 C   0  0  0  0  0  0  0  0  0  0  0  0
  -47.1898   57.5689   56.6855 C   0  0  0  0  0  0  0  0  0  0  0  0
  -33.0078   61.7574   64.4225 O   0  0  0  0  0  0  0  0  0  0  0  0
  -34.0760   60.8856   64.8037 C   0  0  0  0  0  0  0  0  0  0  0  0
  -33.1798   62.6485   64.7649 H   0  0  0  0  0  0  0  0  0  0  0  0
  -33.8437   59.4973   64.2910 C   0  0  0  0  0  0  0  0  0  0  0  0
  -33.4613   59.1959   63.0659 C   0  0  0  0  0  0  0  0  0  0  0  0
  -33.2235   57.8008   62.5887 C   0  0  0  0  0  0  0  0  0  0  0  0
  -34.5267   56.9998   62.5585 C   0  0  0  0  0  0  0  0  0  0  0  0
  -35.7447   57.8071   62.1395 C   0  0  0  0  0  0  0  0  0  0  0  0
  -37.0326   57.4017   62.8357 C   0  0  0  0  0  0  0  0  0  0  0  0
  -38.2751   57.5398   61.9680 C   0  0  0  0  0  0  0  0  0  0  0  0
  -39.4245   56.6423   62.3997 C   0  0  0  0  0  0  0  0  0  0  0  0
  -40.7799   57.3262   62.3685 C   0  0  0  0  0  0  0  0  0  0  0  0
  -41.4221   57.3635   60.9942 C   0  0  0  0  0  0  0  0  0  0  0  0
  -41.5152   58.7568   60.3960 C   0  0  0  0  0  0  0  0  0  0  0  0
  -41.2225   59.8550   61.4012 C   0  0  0  0  0  0  0  0  0  0  0  0
  -42.4026   60.2352   62.2748 C   0  0  0  0  0  0  0  0  0  0  0  0
  -42.2811   61.6366   62.8404 C   0  0  0  0  0  0  0  0  0  0  0  0
  -43.2044   62.6216   62.1538 C   0  0  0  0  0  0  0  0  0  0  0  0
  -35.3553   62.9724   64.1602 C   0  0  0  0  0  0  0  0  0  0  0  0
  -35.3849   63.3139   62.7698 O   0  0  0  0  0  0  0  0  0  0  0  0
  -34.6726   65.8609   63.6897 O   0  0  0  0  0  0  0  0  0  0  0  0
  -30.9912   63.6325   63.6367 O   0  0  0  0  0  0  0  0  0  0  0  0
  -33.2449   62.9702   61.9755 O   0  0  0  0  0  0  0  0  0  0  0  0
  -34.2235   63.9381   62.3055 C   0  0  0  0  0  0  0  0  0  0  0  0
  -33.7081   64.8549   63.4072 C   0  0  0  0  0  0  0  0  0  0  0  0
  -32.3924   65.4917   62.9778 C   0  0  0  0  0  0  0  0  0  0  0  0
  -31.3936   64.4344   62.5310 C   0  0  0  0  0  0  0  0  0  0  0  0
  -32.0306   63.5447   61.4663 C   0  0  0  0  0  0  0  0  0  0  0  0
  -35.5049   65.4436   63.9617 H   0  0  0  0  0  0  0  0  0  0  0  0
  -30.5861   64.1959   64.3143 H   0  0  0  0  0  0  0  0  0  0  0  0
  -31.0591   61.4019   62.0606 O   0  0  0  0  0  0  0  0  0  0  0  0
  -31.1457   62.3949   61.0450 C   0  0  0  0  0  0  0  0  0  0  0  0
  -30.4853   60.6802   61.7589 H   0  0  0  0  0  0  0  0  0  0  0  0
  -31.8936   66.1567   64.1812 O   0  0  0  0  0  0  0  0  0  0  0  0
  -30.4661   65.1149   65.8195 O   0  0  0  0  0  0  0  0  0  0  0  0
  -32.8290   64.3231   65.4949 O   0  0  0  0  0  0  0  0  0  0  0  0
  -32.3366   66.4134   66.5071 O   0  0  0  0  0  0  0  0  0  0  0  0
  -31.8368   65.3305   65.5368 S   0  0  0  0  0  0  0  0  0  0  0  0
  -30.1162   64.4345   65.2233 H   0  0  0  0  0  0  0  0  0  0  0  0
  -31.6800   67.1253   66.5632 H   0  0  0  0  0  0  0  0  0  0  0  0
  2  1  1  0  0  0
  2  4  1  0  0  0
  2  5  1  0  0  0
 47 48  1  0  0  0
 47  1  1  0  0  0
 48 52  1  0  0  0
  1 30  1  0  0  0
 29 30  1  0  0  0
 29 31  1  0  0  0
 30 32  1  0  0  0
  3  4  2  0  0  0
 32 33  2  0  0  0
 49 53  1  0  0  0
 49 57  1  0  0  0
 33 34  1  0  0  0
 62 54  1  0  0  0
 62 66  1  0  0  0
 34 35  1  0  0  0
 50 55  1  0  0  0
 50 58  1  0  0  0
 35 36  1  0  0  0
 51 52  1  0  0  0
 51 56  1  0  0  0
 36 37  1  0  0  0
 59 60  1  0  0  0
 59 61  1  0  0  0
 37 38  1  0  0  0
 63 66  1  0  0  0
 63 67  1  0  0  0
 38 39  1  0  0  0
 64 66  1  0  0  0
 39 40  1  0  0  0
 65 66  1  0  0  0
 65 68  1  0  0  0
 40 41  1  0  0  0
 41 42  1  0  0  0
 42 43  1  0  0  0
 43 44  1  0  0  0
 44 45  1  0  0  0
 45 46  1  0  0  0
  4  6  1  0  0  0
  6  7  1  0  0  0
  7  8  1  0  0  0
  8  9  1  0  0  0
  9 10  1  0  0  0
 10 11  1  0  0  0
 11 12  1  0  0  0
 12 13  1  0  0  0
 13 14  1  0  0  0
 14 15  1  0  0  0
 15 16  1  0  0  0
 16 17  1  0  0  0
 17 18  1  0  0  0
 18 19  1  0  0  0
 19 20  2  0  0  0
 20 21  1  0  0  0
 21 22  1  0  0  0
 22 23  1  0  0  0
 23 24  1  0  0  0
 24 25  1  0  0  0
 25 26  1  0  0  0
 26 27  1  0  0  0
 27 28  1  0  0  0
 52 53  1  0  0  0
 53 54  1  0  0  0
 54 55  1  0  0  0
 55 56  1  0  0  0
 56 60  1  0  0  0
M  CHG 1  64  -1
M  END
> <minimizedAffinity>
-9.42105

> <CNNscore>
0.3366110623

> <CNNaffinity>
7.3213677406

> <CNN_VS>
2.4644534588

> <CNNaffinity_variance>
1.2379242182

$$$$
/media/chris/experiments/cd1a-new-docking/inputs/ligands/7ryn_ligand.pdb


 68 68  0  0  0  0  0  0  0  0999 V2000
  -38.5662   60.7111   64.6288 C   0  0  0  0  0  0  0  0  0  0  0  0
  -39.6767   59.8734   65.0719 N   0  0  0  0  0  0  0  0  0  0  0  0
  -40.7623   61.4966   66.1921 O   0  0  0  0  0  0  0  0  0  0  0  0
  -40.6865   60.3300   65.8176 C   0  0  0  0  0  0  0  0  0  0  0  0
  -39.6816   58.9250   64.8081 H   0  0  0  0  0  0  0  0  0  0  0  0
  -41.7465   59.3168   66.1711 C   0  0  0  0  0  0  0  0  0  0  0  0
  -41.9579   58.2836   65.0718 C   0  0  0  0  0  0  0  0  0  0  0  0
  -42.8918   58.7743   63.9772 C   0  0  0  0  0  0  0  0  0  0  0  0
  -44.3651   58.6854   64.3386 C   0  0  0  0  0  0  0  0  0  0  0  0
  -44.6834   57.6057   65.3621 C   0  0  0  0  0  0  0  0  0  0  0  0
  -45.1317   58.1459   66.7141 C   0  0  0  0  0  0  0  0  0  0  0  0
  -46.4442   57.5538   67.2107 C   0  0  0  0  0  0  0  0  0  0  0  0
  -47.1958   56.7212   66.1752 C   0  0  0  0  0  0  0  0  0  0  0  0
  -48.3382   57.4672   65.4875 C   0  0  0  0  0  0  0  0  0  0  0  0
  -49.0229   58.5232   66.3549 C   0  0  0  0  0  0  0  0  0  0  0  0
  -48.5372   59.9462   66.0789 C   0  0  0  0  0  0  0  0  0  0  0  0
  -48.0484   60.1982   64.6526 C   0  0  0  0  0  0  0  0  0  0  0  0
  -49.0914   60.8069   63.7115 C   0  0  0  0  0  0  0  0  0  0  0  0
  -50.4943   60.6690   64.2281 C   0  0  0  0  0  0  0  0  0  0  0  0
  -51.4493   59.9252   63.6986 C   0  0  0  0  0  0  0  0  0  0  0  0
  -51.3230   59.0665   62.4767 C   0  0  0  0  0  0  0  0  0  0  0  0
  -50.3868   57.8702   62.6604 C   0  0  0  0  0  0  0  0  0  0  0  0
  -49.3121   57.7759   61.5855 C   0  0  0  0  0  0  0  0  0  0  0  0
  -49.7079   58.4455   60.2742 C   0  0  0  0  0  0  0  0  0  0  0  0
  -48.6815   58.3006   59.1565 C   0  0  0  0  0  0  0  0  0  0  0  0
  -47.9019   56.9940   59.2058 C   0  0  0  0  0  0  0  0  0  0  0  0
  -47.2866   56.5861   57.8767 C   0  0  0  0  0  0  0  0  0  0  0  0
  -47.1581   57.7432   56.9069 C   0  0  0  0  0  0  0  0  0  0  0  0
  -37.7976   61.8692   62.6533 O   0  0  0  0  0  0  0  0  0  0  0  0
  -38.5059   60.7067   63.0929 C   0  0  0  0  0  0  0  0  0  0  0  0
  -36.9148   61.8812   63.0550 H   0  0  0  0  0  0  0  0  0  0  0  0
  -39.8768   60.6549   62.4910 C   0  0  0  0  0  0  0  0  0  0  0  0
  -40.1638   60.1679   61.3001 C   0  0  0  0  0  0  0  0  0  0  0  0
  -41.5447   60.1167   60.7335 C   0  0  0  0  0  0  0  0  0  0  0  0
  -41.7560   58.8427   59.9130 C   0  0  0  0  0  0  0  0  0  0  0  0
  -40.8164   57.7043   60.2766 C   0  0  0  0  0  0  0  0  0  0  0  0
  -41.4487   56.6227   61.1358 C   0  0  0  0  0  0  0  0  0  0  0  0
  -40.6154   56.2284   62.3466 C   0  0  0  0  0  0  0  0  0  0  0  0
  -39.5280   57.2336   62.6932 C   0  0  0  0  0  0  0  0  0  0  0  0
  -38.1487   56.8388   62.1958 C   0  0  0  0  0  0  0  0  0  0  0  0
  -37.4479   57.9195   61.3936 C   0  0  0  0  0  0  0  0  0  0  0  0
  -36.0327   58.2130   61.8611 C   0  0  0  0  0  0  0  0  0  0  0  0
  -35.5941   57.3311   63.0154 C   0  0  0  0  0  0  0  0  0  0  0  0
  -34.2387   57.6870   63.5955 C   0  0  0  0  0  0  0  0  0  0  0  0
  -33.1109   57.4957   62.6005 C   0  0  0  0  0  0  0  0  0  0  0  0
  -32.0947   58.6178   62.6523 C   0  0  0  0  0  0  0  0  0  0  0  0
  -37.2717   60.2290   65.2502 C   0  0  0  0  0  0  0  0  0  0  0  0
  -36.2036   60.5046   64.3370 O   0  0  0  0  0  0  0  0  0  0  0  0
  -33.8953   61.0241   62.8393 O   0  0  0  0  0  0  0  0  0  0  0  0
  -34.7482   64.7174   64.8775 O   0  0  0  0  0  0  0  0  0  0  0  0
  -35.6322   62.1562   65.8451 O   0  0  0  0  0  0  0  0  0  0  0  0
  -35.1454   61.2309   64.8910 C   0  0  0  0  0  0  0  0  0  0  0  0
  -34.4336   61.9635   63.7611 C   0  0  0  0  0  0  0  0  0  0  0  0
  -33.3243   62.8393   64.3298 C   0  0  0  0  0  0  0  0  0  0  0  0
  -33.8557   63.7522   65.4249 C   0  0  0  0  0  0  0  0  0  0  0  0
  -34.5910   62.9210   66.4734 C   0  0  0  0  0  0  0  0  0  0  0  0
  -34.6104   60.4730   62.4846 H   0  0  0  0  0  0  0  0  0  0  0  0
  -34.2829   65.2467   64.2111 H   0  0  0  0  0  0  0  0  0  0  0  0
  -36.2779   63.0411   68.2136 O   0  0  0  0  0  0  0  0  0  0  0  0
  -35.2494   63.7605   67.5430 C   0  0  0  0  0  0  0  0  0  0  0  0
  -36.6788   63.6070   68.8919 H   0  0  0  0  0  0  0  0  0  0  0  0
  -32.8740   63.6472   63.1967 O   0  0  0  0  0  0  0  0  0  0  0  0
  -30.6253   63.9157   64.0201 O   0  0  0  0  0  0  0  0  0  0  0  0
  -31.1562   64.3212   61.5974 O   0  0  0  0  0  0  0  0  0  0  0  0
  -31.1558   62.1383   62.5312 O   0  0  0  0  0  0  0  0  0  0  0  0
  -31.3299   63.6377   62.8237 S   0  0  0  0  0  0  0  0  0  0  0  0
  -30.7137   64.8573   64.2361 H   0  0  0  0  0  0  0  0  0  0  0  0
  -31.2682   61.6336   63.3519 H   0  0  0  0  0  0  0  0  0  0  0  0
  2  1  1  0  0  0
  2  4  1  0  0  0
  2  5  1  0  0  0
 47 48  1  0  0  0
 47  1  1  0  0  0
 48 52  1  0  0  0
  1 30  1  0  0  0
 29 30  1  0  0  0
 29 31  1  0  0  0
 30 32  1  0  0  0
  3  4  2  0  0  0
 32 33  2  0  0  0
 49 53  1  0  0  0
 49 57  1  0  0  0
 33 34  1  0  0  0
 62 54  1  0  0  0
 62 66  1  0  0  0
 34 35  1  0  0  0
 50 55  1  0  0  0
 50 58  1  0  0  0
 35 36  1  0  0  0
 51 52  1  0  0  0
 51 56  1  0  0  0
 36 37  1  0  0  0
 59 60  1  0  0  0
 59 61  1  0  0  0
 37 38  1  0  0  0
 63 66  1  0  0  0
 63 67  1  0  0  0
 38 39  1  0  0  0
 64 66  1  0  0  0
 39 40  1  0  0  0
 65 66  1  0  0  0
 65 68  1  0  0  0
 40 41  1  0  0  0
 41 42  1  0  0  0
 42 43  1  0  0  0
 43 44  1  0  0  0
 44 45  1  0  0  0
 45 46  1  0  0  0
  4  6  1  0  0  0
  6  7  1  0  0  0
  7  8  1  0  0  0
  8  9  1  0  0  0
  9 10  1  0  0  0
 10 11  1  0  0  0
 11 12  1  0  0  0
 12 13  1  0  0  0
 13 14  1  0  0  0
 14 15  1  0  0  0
 15 16  1  0  0  0
 16 17  1  0  0  0
 17 18  1  0  0  0
 18 19  1  0  0  0
 19 20  2  0  0  0
 20 21  1  0  0  0
 21 22  1  0  0  0
 22 23  1  0  0  0
 23 24  1  0  0  0
 24 25  1  0  0  0
 25 26  1  0  0  0
 26 27  1  0  0  0
 27 28  1  0  0  0
 52 53  1  0  0  0
 53 54  1  0  0  0
 54 55  1  0  0  0
 55 56  1  0  0  0
 56 60  1  0  0  0
M  CHG 1  64  -1
M  END
> <minimizedAffinity>
-9.20395

> <CNNscore>
0.2517018020

> <CNNaffinity>
7.5868325233

> <CNN_VS>
1.9096194506

> <CNNaffinity_variance>
1.8064537048

$$$$
/media/chris/experiments/cd1a-new-docking/inputs/ligands/7ryn_ligand.pdb


 68 68  0  0  0  0  0  0  0  0999 V2000
  -34.4986   63.0466   63.0257 C   0  0  0  0  0  0  0  0  0  0  0  0
  -35.2187   62.2911   64.0465 N   0  0  0  0  0  0  0  0  0  0  0  0
  -37.0688   61.9362   62.8140 O   0  0  0  0  0  0  0  0  0  0  0  0
  -36.4453   61.7955   63.8621 C   0  0  0  0  0  0  0  0  0  0  0  0
  -34.7784   62.1395   64.9139 H   0  0  0  0  0  0  0  0  0  0  0  0
  -37.0246   61.0363   65.0296 C   0  0  0  0  0  0  0  0  0  0  0  0
  -38.1854   60.1369   64.6243 C   0  0  0  0  0  0  0  0  0  0  0  0
  -38.7879   59.3897   65.8033 C   0  0  0  0  0  0  0  0  0  0  0  0
  -40.2606   59.0558   65.6336 C   0  0  0  0  0  0  0  0  0  0  0  0
  -40.5208   57.8693   64.7176 C   0  0  0  0  0  0  0  0  0  0  0  0
  -41.8538   57.1750   64.9661 C   0  0  0  0  0  0  0  0  0  0  0  0
  -42.9780   57.6541   64.0569 C   0  0  0  0  0  0  0  0  0  0  0  0
  -44.0164   58.5369   64.7444 C   0  0  0  0  0  0  0  0  0  0  0  0
  -43.9813   58.4657   66.2702 C   0  0  0  0  0  0  0  0  0  0  0  0
  -45.3045   58.8079   66.9546 C   0  0  0  0  0  0  0  0  0  0  0  0
  -46.2596   57.6190   67.0622 C   0  0  0  0  0  0  0  0  0  0  0  0
  -47.5404   57.7409   66.2369 C   0  0  0  0  0  0  0  0  0  0  0  0
  -48.0096   59.1759   65.9823 C   0  0  0  0  0  0  0  0  0  0  0  0
  -49.5034   59.3182   66.0295 C   0  0  0  0  0  0  0  0  0  0  0  0
  -50.3472   58.9927   65.0663 C   0  0  0  0  0  0  0  0  0  0  0  0
  -49.9827   58.4127   63.7333 C   0  0  0  0  0  0  0  0  0  0  0  0
  -50.9132   58.8472   62.5989 C   0  0  0  0  0  0  0  0  0  0  0  0
  -50.6627   58.1008   61.2953 C   0  0  0  0  0  0  0  0  0  0  0  0
  -49.1829   57.9014   60.9873 C   0  0  0  0  0  0  0  0  0  0  0  0
  -48.8611   57.7529   59.5046 C   0  0  0  0  0  0  0  0  0  0  0  0
  -48.0305   56.5198   59.1782 C   0  0  0  0  0  0  0  0  0  0  0  0
  -47.0736   56.7052   58.0113 C   0  0  0  0  0  0  0  0  0  0  0  0
  -47.2278   58.0502   57.3306 C   0  0  0  0  0  0  0  0  0  0  0  0
  -32.6243   62.6395   61.5574 O   0  0  0  0  0  0  0  0  0  0  0  0
  -33.0626   62.5100   62.9129 C   0  0  0  0  0  0  0  0  0  0  0  0
  -32.6917   63.5675   61.2830 H   0  0  0  0  0  0  0  0  0  0  0  0
  -32.9721   61.0868   63.3717 C   0  0  0  0  0  0  0  0  0  0  0  0
  -32.6701   60.0600   62.6020 C   0  0  0  0  0  0  0  0  0  0  0  0
  -32.5731   58.6529   63.0931 C   0  0  0  0  0  0  0  0  0  0  0  0
  -33.3444   58.4726   64.4021 C   0  0  0  0  0  0  0  0  0  0  0  0
  -34.8224   58.1687   64.2177 C   0  0  0  0  0  0  0  0  0  0  0  0
  -35.1449   57.3723   62.9648 C   0  0  0  0  0  0  0  0  0  0  0  0
  -36.3128   57.9272   62.1624 C   0  0  0  0  0  0  0  0  0  0  0  0
  -37.6415   57.2558   62.4737 C   0  0  0  0  0  0  0  0  0  0  0  0
  -38.7507   57.6137   61.5005 C   0  0  0  0  0  0  0  0  0  0  0  0
  -38.3142   58.5362   60.3775 C   0  0  0  0  0  0  0  0  0  0  0  0
  -38.7412   59.9816   60.5673 C   0  0  0  0  0  0  0  0  0  0  0  0
  -39.8628   60.1414   61.5766 C   0  0  0  0  0  0  0  0  0  0  0  0
  -41.2555   60.0970   60.9774 C   0  0  0  0  0  0  0  0  0  0  0  0
  -42.3196   60.5865   61.9399 C   0  0  0  0  0  0  0  0  0  0  0  0
  -41.7304   61.2212   63.1826 C   0  0  0  0  0  0  0  0  0  0  0  0
  -34.5291   64.5247   63.3551 C   0  0  0  0  0  0  0  0  0  0  0  0
  -34.4077   65.2612   62.1330 O   0  0  0  0  0  0  0  0  0  0  0  0
  -33.5350   66.9161   64.2165 O   0  0  0  0  0  0  0  0  0  0  0  0
  -29.9907   64.8938   62.8489 O   0  0  0  0  0  0  0  0  0  0  0  0
  -32.3033   65.2953   61.1851 O   0  0  0  0  0  0  0  0  0  0  0  0
  -33.2189   65.9868   62.0138 C   0  0  0  0  0  0  0  0  0  0  0  0
  -32.6350   66.1679   63.4089 C   0  0  0  0  0  0  0  0  0  0  0  0
  -31.2908   66.8794   63.3193 C   0  0  0  0  0  0  0  0  0  0  0  0
  -30.3620   66.1722   62.3435 C   0  0  0  0  0  0  0  0  0  0  0  0
  -31.0651   65.9999   60.9995 C   0  0  0  0  0  0  0  0  0  0  0  0
  -34.3861   66.4534   64.2658 H   0  0  0  0  0  0  0  0  0  0  0  0
  -29.5436   65.0010   63.7030 H   0  0  0  0  0  0  0  0  0  0  0  0
  -30.6589   63.8414   59.9678 O   0  0  0  0  0  0  0  0  0  0  0  0
  -30.2550   65.2054   60.0020 C   0  0  0  0  0  0  0  0  0  0  0  0
  -30.1206   63.3609   59.3194 H   0  0  0  0  0  0  0  0  0  0  0  0
  -30.7366   66.7936   64.6701 O   0  0  0  0  0  0  0  0  0  0  0  0
  -30.3612   64.4701   65.1869 O   0  0  0  0  0  0  0  0  0  0  0  0
  -32.5703   65.5528   65.7003 O   0  0  0  0  0  0  0  0  0  0  0  0
  -30.6075   66.0653   66.9339 O   0  0  0  0  0  0  0  0  0  0  0  0
  -31.1602   65.5682   65.5880 S   0  0  0  0  0  0  0  0  0  0  0  0
  -30.6828   64.1295   64.3375 H   0  0  0  0  0  0  0  0  0  0  0  0
  -29.6386   66.0898   66.8964 H   0  0  0  0  0  0  0  0  0  0  0  0
  2  1  1  0  0  0
  2  4  1  0  0  0
  2  5  1  0  0  0
 47 48  1  0  0  0
 47  1  1  0  0  0
 48 52  1  0  0  0
  1 30  1  0  0  0
 29 30  1  0  0  0
 29 31  1  0  0  0
 30 32  1  0  0  0
  3  4  2  0  0  0
 32 33  2  0  0  0
 49 53  1  0  0  0
 49 57  1  0  0  0
 33 34  1  0  0  0
 62 54  1  0  0  0
 62 66  1  0  0  0
 34 35  1  0  0  0
 50 55  1  0  0  0
 50 58  1  0  0  0
 35 36  1  0  0  0
 51 52  1  0  0  0
 51 56  1  0  0  0
 36 37  1  0  0  0
 59 60  1  0  0  0
 59 61  1  0  0  0
 37 38  1  0  0  0
 63 66  1  0  0  0
 63 67  1  0  0  0
 38 39  1  0  0  0
 64 66  1  0  0  0
 39 40  1  0  0  0
 65 66  1  0  0  0
 65 68  1  0  0  0
 40 41  1  0  0  0
 41 42  1  0  0  0
 42 43  1  0  0  0
 43 44  1  0  0  0
 44 45  1  0  0  0
 45 46  1  0  0  0
  4  6  1  0  0  0
  6  7  1  0  0  0
  7  8  1  0  0  0
  8  9  1  0  0  0
  9 10  1  0  0  0
 10 11  1  0  0  0
 11 12  1  0  0  0
 12 13  1  0  0  0
 13 14  1  0  0  0
 14 15  1  0  0  0
 15 16  1  0  0  0
 16 17  1  0  0  0
 17 18  1  0  0  0
 18 19  1  0  0  0
 19 20  2  0  0  0
 20 21  1  0  0  0
 21 22  1  0  0  0
 22 23  1  0  0  0
 23 24  1  0  0  0
 24 25  1  0  0  0
 25 26  1  0  0  0
 26 27  1  0  0  0
 27 28  1  0  0  0
 52 53  1  0  0  0
 53 54  1  0  0  0
 54 55  1  0  0  0
 55 56  1  0  0  0
 56 60  1  0  0  0
M  CHG 1  64  -1
M  END
> <minimizedAffinity>
-9.07301

> <CNNscore>
0.2019995302

> <CNNaffinity>
6.9210066795

> <CNN_VS>
1.3980400562

> <CNNaffinity_variance>
1.2343330383

$$$$
/media/chris/experiments/cd1a-new-docking/inputs/ligands/7ryn_ligand.pdb


 68 68  0  0  0  0  0  0  0  0999 V2000
  -37.0247   58.9658   62.1651 C   0  0  0  0  0  0  0  0  0  0  0  0
  -38.2100   58.4922   61.4564 N   0  0  0  0  0  0  0  0  0  0  0  0
  -37.7983   59.6035   59.5424 O   0  0  0  0  0  0  0  0  0  0  0  0
  -38.5044   58.8469   60.2028 C   0  0  0  0  0  0  0  0  0  0  0  0
  -38.8227   57.8811   61.9259 H   0  0  0  0  0  0  0  0  0  0  0  0
  -39.7680   58.2497   59.6354 C   0  0  0  0  0  0  0  0  0  0  0  0
  -40.9704   58.4481   60.5495 C   0  0  0  0  0  0  0  0  0  0  0  0
  -41.6817   57.1444   60.8745 C   0  0  0  0  0  0  0  0  0  0  0  0
  -41.2871   56.5445   62.2137 C   0  0  0  0  0  0  0  0  0  0  0  0
  -41.4659   57.4932   63.3895 C   0  0  0  0  0  0  0  0  0  0  0  0
  -42.8330   58.1633   63.4430 C   0  0  0  0  0  0  0  0  0  0  0  0
  -43.1016   58.9144   64.7406 C   0  0  0  0  0  0  0  0  0  0  0  0
  -43.1832   58.0279   65.9808 C   0  0  0  0  0  0  0  0  0  0  0  0
  -44.5872   57.9140   66.5727 C   0  0  0  0  0  0  0  0  0  0  0  0
  -45.7072   57.8011   65.5388 C   0  0  0  0  0  0  0  0  0  0  0  0
  -47.0891   57.5923   66.1586 C   0  0  0  0  0  0  0  0  0  0  0  0
  -47.6382   58.7896   66.9344 C   0  0  0  0  0  0  0  0  0  0  0  0
  -48.5475   59.7194   66.1266 C   0  0  0  0  0  0  0  0  0  0  0  0
  -49.8934   59.1176   65.8434 C   0  0  0  0  0  0  0  0  0  0  0  0
  -50.4858   59.0554   64.6640 C   0  0  0  0  0  0  0  0  0  0  0  0
  -49.9314   59.5709   63.3705 C   0  0  0  0  0  0  0  0  0  0  0  0
  -50.5692   58.9367   62.1325 C   0  0  0  0  0  0  0  0  0  0  0  0
  -49.6239   58.8589   60.9411 C   0  0  0  0  0  0  0  0  0  0  0  0
  -50.0009   57.7727   59.9398 C   0  0  0  0  0  0  0  0  0  0  0  0
  -48.8183   57.1598   59.1983 C   0  0  0  0  0  0  0  0  0  0  0  0
  -47.9657   58.1788   58.4555 C   0  0  0  0  0  0  0  0  0  0  0  0
  -47.3583   57.6577   57.1628 C   0  0  0  0  0  0  0  0  0  0  0  0
  -47.2305   56.1481   57.1382 C   0  0  0  0  0  0  0  0  0  0  0  0
  -36.1304   57.2215   63.5765 O   0  0  0  0  0  0  0  0  0  0  0  0
  -36.0086   57.8183   62.2822 C   0  0  0  0  0  0  0  0  0  0  0  0
  -37.0424   56.9187   63.7085 H   0  0  0  0  0  0  0  0  0  0  0  0
  -34.6100   58.2987   62.0429 C   0  0  0  0  0  0  0  0  0  0  0  0
  -33.6835   58.4274   62.9719 C   0  0  0  0  0  0  0  0  0  0  0  0
  -32.2918   58.8955   62.6988 C   0  0  0  0  0  0  0  0  0  0  0  0
  -32.2917   60.3078   62.1103 C   0  0  0  0  0  0  0  0  0  0  0  0
  -30.9810   60.7090   61.4532 C   0  0  0  0  0  0  0  0  0  0  0  0
  -30.1305   61.6558   62.2827 C   0  0  0  0  0  0  0  0  0  0  0  0
  -30.9311   62.5390   63.2287 C   0  0  0  0  0  0  0  0  0  0  0  0
  -30.5849   64.0163   63.1250 C   0  0  0  0  0  0  0  0  0  0  0  0
  -29.9904   64.5961   64.3963 C   0  0  0  0  0  0  0  0  0  0  0  0
  -30.7221   65.8181   64.9197 C   0  0  0  0  0  0  0  0  0  0  0  0
  -30.9004   66.9178   63.8870 C   0  0  0  0  0  0  0  0  0  0  0  0
  -32.3565   67.2509   63.6201 C   0  0  0  0  0  0  0  0  0  0  0  0
  -32.7582   67.1772   62.1594 C   0  0  0  0  0  0  0  0  0  0  0  0
  -31.5696   67.2705   61.2230 C   0  0  0  0  0  0  0  0  0  0  0  0
  -31.5352   66.1407   60.2146 C   0  0  0  0  0  0  0  0  0  0  0  0
  -37.4159   59.5195   63.5196 C   0  0  0  0  0  0  0  0  0  0  0  0
  -36.2956   60.2324   64.0555 O   0  0  0  0  0  0  0  0  0  0  0  0
  -37.5101   61.8668   65.9776 O   0  0  0  0  0  0  0  0  0  0  0  0
  -33.9355   63.9720   64.8322 O   0  0  0  0  0  0  0  0  0  0  0  0
  -35.2422   62.0623   63.1225 O   0  0  0  0  0  0  0  0  0  0  0  0
  -36.3550   61.6174   63.8756 C   0  0  0  0  0  0  0  0  0  0  0  0
  -36.3570   62.2720   65.2509 C   0  0  0  0  0  0  0  0  0  0  0  0
  -36.3328   63.7881   65.1028 C   0  0  0  0  0  0  0  0  0  0  0  0
  -35.1872   64.2314   64.2050 C   0  0  0  0  0  0  0  0  0  0  0  0
  -35.2540   63.4780   62.8788 C   0  0  0  0  0  0  0  0  0  0  0  0
  -37.5142   60.9008   66.0652 H   0  0  0  0  0  0  0  0  0  0  0  0
  -33.8909   64.4499   65.6751 H   0  0  0  0  0  0  0  0  0  0  0  0
  -34.5218   64.1538   60.6662 O   0  0  0  0  0  0  0  0  0  0  0  0
  -34.0866   63.7747   61.9669 C   0  0  0  0  0  0  0  0  0  0  0  0
  -33.7501   64.3366   60.1075 H   0  0  0  0  0  0  0  0  0  0  0  0
  -36.1115   64.2883   66.4593 O   0  0  0  0  0  0  0  0  0  0  0  0
  -34.1953   64.4549   67.9109 O   0  0  0  0  0  0  0  0  0  0  0  0
  -34.7527   62.2840   66.7742 O   0  0  0  0  0  0  0  0  0  0  0  0
  -36.0754   63.1446   68.5480 O   0  0  0  0  0  0  0  0  0  0  0  0
  -35.1093   63.4986   67.4055 S   0  0  0  0  0  0  0  0  0  0  0  0
  -33.5678   64.7024   67.2138 H   0  0  0  0  0  0  0  0  0  0  0  0
  -36.3439   63.9556   69.0074 H   0  0  0  0  0  0  0  0  0  0  0  0
  2  1  1  0  0  0
  2  4  1  0  0  0
  2  5  1  0  0  0
 47 48  1  0  0  0
 47  1  1  0  0  0
 48 52  1  0  0  0
  1 30  1  0  0  0
 29 30  1  0  0  0
 29 31  1  0  0  0
 30 32  1  0  0  0
  3  4  2  0  0  0
 32 33  2  0  0  0
 49 53  1  0  0  0
 49 57  1  0  0  0
 33 34  1  0  0  0
 62 54  1  0  0  0
 62 66  1  0  0  0
 34 35  1  0  0  0
 50 55  1  0  0  0
 50 58  1  0  0  0
 35 36  1  0  0  0
 51 52  1  0  0  0
 51 56  1  0  0  0
 36 37  1  0  0  0
 59 60  1  0  0  0
 59 61  1  0  0  0
 37 38  1  0  0  0
 63 66  1  0  0  0
 63 67  1  0  0  0
 38 39  1  0  0  0
 64 66  1  0  0  0
 39 40  1  0  0  0
 65 66  1  0  0  0
 65 68  1  0  0  0
 40 41  1  0  0  0
 41 42  1  0  0  0
 42 43  1  0  0  0
 43 44  1  0  0  0
 44 45  1  0  0  0
 45 46  1  0  0  0
  4  6  1  0  0  0
  6  7  1  0  0  0
  7  8  1  0  0  0
  8  9  1  0  0  0
  9 10  1  0  0  0
 10 11  1  0  0  0
 11 12  1  0  0  0
 12 13  1  0  0  0
 13 14  1  0  0  0
 14 15  1  0  0  0
 15 16  1  0  0  0
 16 17  1  0  0  0
 17 18  1  0  0  0
 18 19  1  0  0  0
 19 20  2  0  0  0
 20 21  1  0  0  0
 21 22  1  0  0  0
 22 23  1  0  0  0
 23 24  1  0  0  0
 24 25  1  0  0  0
 25 26  1  0  0  0
 26 27  1  0  0  0
 27 28  1  0  0  0
 52 53  1  0  0  0
 53 54  1  0  0  0
 54 55  1  0  0  0
 55 56  1  0  0  0
 56 60  1  0  0  0
M  CHG 1  64  -1
M  END
> <minimizedAffinity>
-8.88059

> <CNNscore>
0.1819340289

> <CNNaffinity>
6.9540643692

> <CNN_VS>
1.2651809454

> <CNNaffinity_variance>
0.7311401367

$$$$
/media/chris/experiments/cd1a-new-docking/inputs/ligands/7ryn_ligand.pdb


 68 68  0  0  0  0  0  0  0  0999 V2000
  -36.2588   62.4277   64.7985 C   0  0  0  0  0  0  0  0  0  0  0  0
  -37.0303   61.4625   65.5759 N   0  0  0  0  0  0  0  0  0  0  0  0
  -38.4707   60.9329   63.9289 O   0  0  0  0  0  0  0  0  0  0  0  0
  -38.0742   60.7912   65.0820 C   0  0  0  0  0  0  0  0  0  0  0  0
  -36.7682   61.2981   66.5105 H   0  0  0  0  0  0  0  0  0  0  0  0
  -38.7418   59.8306   66.0342 C   0  0  0  0  0  0  0  0  0  0  0  0
  -40.2596   59.8383   65.9044 C   0  0  0  0  0  0  0  0  0  0  0  0
  -40.8138   58.5072   65.4225 C   0  0  0  0  0  0  0  0  0  0  0  0
  -42.0065   58.0105   66.2226 C   0  0  0  0  0  0  0  0  0  0  0  0
  -43.2061   58.9453   66.1832 C   0  0  0  0  0  0  0  0  0  0  0  0
  -44.5405   58.2520   66.4271 C   0  0  0  0  0  0  0  0  0  0  0  0
  -45.5667   58.4840   65.3256 C   0  0  0  0  0  0  0  0  0  0  0  0
  -46.8407   57.6539   65.4614 C   0  0  0  0  0  0  0  0  0  0  0  0
  -47.7575   58.1028   66.5982 C   0  0  0  0  0  0  0  0  0  0  0  0
  -48.6580   59.2905   66.2591 C   0  0  0  0  0  0  0  0  0  0  0  0
  -50.0699   58.8833   65.8376 C   0  0  0  0  0  0  0  0  0  0  0  0
  -50.2901   58.7787   64.3286 C   0  0  0  0  0  0  0  0  0  0  0  0
  -49.1936   59.4161   63.4711 C   0  0  0  0  0  0  0  0  0  0  0  0
  -49.7312   60.4036   62.4762 C   0  0  0  0  0  0  0  0  0  0  0  0
  -49.7790   60.2410   61.1658 C   0  0  0  0  0  0  0  0  0  0  0  0
  -49.3085   59.0359   60.4091 C   0  0  0  0  0  0  0  0  0  0  0  0
  -50.3995   57.9868   60.1844 C   0  0  0  0  0  0  0  0  0  0  0  0
  -49.9607   56.5744   60.5475 C   0  0  0  0  0  0  0  0  0  0  0  0
  -48.5057   56.2840   60.1964 C   0  0  0  0  0  0  0  0  0  0  0  0
  -48.2694   55.9212   58.7348 C   0  0  0  0  0  0  0  0  0  0  0  0
  -46.8134   56.0296   58.3041 C   0  0  0  0  0  0  0  0  0  0  0  0
  -46.5613   57.0629   57.2176 C   0  0  0  0  0  0  0  0  0  0  0  0
  -47.6315   58.1342   57.1633 C   0  0  0  0  0  0  0  0  0  0  0  0
  -35.0285   61.9116   62.7849 O   0  0  0  0  0  0  0  0  0  0  0  0
  -35.0235   61.7324   64.2041 C   0  0  0  0  0  0  0  0  0  0  0  0
  -35.0507   62.8591   62.5787 H   0  0  0  0  0  0  0  0  0  0  0  0
  -34.9893   60.2777   64.5605 C   0  0  0  0  0  0  0  0  0  0  0  0
  -33.9366   59.4930   64.4425 C   0  0  0  0  0  0  0  0  0  0  0  0
  -33.9301   58.0482   64.8209 C   0  0  0  0  0  0  0  0  0  0  0  0
  -35.3240   57.4346   64.6741 C   0  0  0  0  0  0  0  0  0  0  0  0
  -35.7746   57.2487   63.2343 C   0  0  0  0  0  0  0  0  0  0  0  0
  -37.1682   57.7784   62.9424 C   0  0  0  0  0  0  0  0  0  0  0  0
  -37.3137   58.4119   61.5664 C   0  0  0  0  0  0  0  0  0  0  0  0
  -38.6032   58.0346   60.8537 C   0  0  0  0  0  0  0  0  0  0  0  0
  -39.7351   57.6602   61.7941 C   0  0  0  0  0  0  0  0  0  0  0  0
  -41.0971   57.5973   61.1281 C   0  0  0  0  0  0  0  0  0  0  0  0
  -41.3782   58.7595   60.1911 C   0  0  0  0  0  0  0  0  0  0  0  0
  -41.2204   60.1124   60.8597 C   0  0  0  0  0  0  0  0  0  0  0  0
  -42.2471   60.4016   61.9380 C   0  0  0  0  0  0  0  0  0  0  0  0
  -42.7415   61.8344   61.9022 C   0  0  0  0  0  0  0  0  0  0  0  0
  -42.6775   62.5045   63.2591 C   0  0  0  0  0  0  0  0  0  0  0  0
  -35.8829   63.6114   65.6657 C   0  0  0  0  0  0  0  0  0  0  0  0
  -35.4279   64.6681   64.8130 O   0  0  0  0  0  0  0  0  0  0  0  0
  -34.5078   64.7218   62.1688 O   0  0  0  0  0  0  0  0  0  0  0  0
  -31.8884   67.3836   64.3077 O   0  0  0  0  0  0  0  0  0  0  0  0
  -33.3312   65.2474   65.5853 O   0  0  0  0  0  0  0  0  0  0  0  0
  -34.0581   64.6353   64.5364 C   0  0  0  0  0  0  0  0  0  0  0  0
  -33.8232   65.3788   63.2279 C   0  0  0  0  0  0  0  0  0  0  0  0
  -32.3305   65.4441   62.9303 C   0  0  0  0  0  0  0  0  0  0  0  0
  -31.5614   66.0113   64.1143 C   0  0  0  0  0  0  0  0  0  0  0  0
  -31.9100   65.2257   65.3761 C   0  0  0  0  0  0  0  0  0  0  0  0
  -35.4561   64.6865   62.3697 H   0  0  0  0  0  0  0  0  0  0  0  0
  -31.6675   67.8847   63.5072 H   0  0  0  0  0  0  0  0  0  0  0  0
  -32.2348   66.4423   67.4503 O   0  0  0  0  0  0  0  0  0  0  0  0
  -31.2754   65.7929   66.6242 C   0  0  0  0  0  0  0  0  0  0  0  0
  -31.7958   66.7941   68.2406 H   0  0  0  0  0  0  0  0  0  0  0  0
  -32.2200   66.3580   61.7936 O   0  0  0  0  0  0  0  0  0  0  0  0
  -29.9904   65.8694   61.0211 O   0  0  0  0  0  0  0  0  0  0  0  0
  -31.7624   66.6329   59.4108 O   0  0  0  0  0  0  0  0  0  0  0  0
  -31.8118   64.4733   60.3960 O   0  0  0  0  0  0  0  0  0  0  0  0
  -31.3262   65.9235   60.5543 S   0  0  0  0  0  0  0  0  0  0  0  0
  -29.6502   66.7709   61.1328 H   0  0  0  0  0  0  0  0  0  0  0  0
  -31.5308   63.9525   61.1645 H   0  0  0  0  0  0  0  0  0  0  0  0
  2  1  1  0  0  0
  2  4  1  0  0  0
  2  5  1  0  0  0
 47 48  1  0  0  0
 47  1  1  0  0  0
 48 52  1  0  0  0
  1 30  1  0  0  0
 29 30  1  0  0  0
 29 31  1  0  0  0
 30 32  1  0  0  0
  3  4  2  0  0  0
 32 33  2  0  0  0
 49 53  1  0  0  0
 49 57  1  0  0  0
 33 34  1  0  0  0
 62 54  1  0  0  0
 62 66  1  0  0  0
 34 35  1  0  0  0
 50 55  1  0  0  0
 50 58  1  0  0  0
 35 36  1  0  0  0
 51 52  1  0  0  0
 51 56  1  0  0  0
 36 37  1  0  0  0
 59 60  1  0  0  0
 59 61  1  0  0  0
 37 38  1  0  0  0
 63 66  1  0  0  0
 63 67  1  0  0  0
 38 39  1  0  0  0
 64 66  1  0  0  0
 39 40  1  0  0  0
 65 66  1  0  0  0
 65 68  1  0  0  0
 40 41  1  0  0  0
 41 42  1  0  0  0
 42 43  1  0  0  0
 43 44  1  0  0  0
 44 45  1  0  0  0
 45 46  1  0  0  0
  4  6  1  0  0  0
  6  7  1  0  0  0
  7  8  1  0  0  0
  8  9  1  0  0  0
  9 10  1  0  0  0
 10 11  1  0  0  0
 11 12  1  0  0  0
 12 13  1  0  0  0
 13 14  1  0  0  0
 14 15  1  0  0  0
 15 16  1  0  0  0
 16 17  1  0  0  0
 17 18  1  0  0  0
 18 19  1  0  0  0
 19 20  2  0  0  0
 20 21  1  0  0  0
 21 22  1  0  0  0
 22 23  1  0  0  0
 23 24  1  0  0  0
 24 25  1  0  0  0
 25 26  1  0  0  0
 26 27  1  0  0  0
 27 28  1  0  0  0
 52 53  1  0  0  0
 53 54  1  0  0  0
 54 55  1  0  0  0
 55 56  1  0  0  0
 56 60  1  0  0  0
M  CHG 1  64  -1
M  END
> <minimizedAffinity>
-8.72972

> <CNNscore>
0.1512662023

> <CNNaffinity>
7.1727433205

> <CNN_VS>
1.0849936008

> <CNNaffinity_variance>
0.8697757721

$$$$
/media/chris/experiments/cd1a-new-docking/inputs/ligands/7ryn_ligand.pdb


 68 68  0  0  0  0  0  0  0  0999 V2000
  -37.3691   58.1789   62.5172 C   0  0  0  0  0  0  0  0  0  0  0  0
  -38.4742   57.5561   61.7947 N   0  0  0  0  0  0  0  0  0  0  0  0
  -40.0124   59.1081   62.3361 O   0  0  0  0  0  0  0  0  0  0  0  0
  -39.7076   58.0678   61.7601 C   0  0  0  0  0  0  0  0  0  0  0  0
  -38.3019   56.7174   61.3088 H   0  0  0  0  0  0  0  0  0  0  0  0
  -40.7158   57.2863   60.9551 C   0  0  0  0  0  0  0  0  0  0  0  0
  -41.4434   56.2384   61.7877 C   0  0  0  0  0  0  0  0  0  0  0  0
  -41.6641   56.6811   63.2252 C   0  0  0  0  0  0  0  0  0  0  0  0
  -42.9161   57.5185   63.4267 C   0  0  0  0  0  0  0  0  0  0  0  0
  -43.6273   57.2546   64.7454 C   0  0  0  0  0  0  0  0  0  0  0  0
  -44.7158   58.2676   65.0763 C   0  0  0  0  0  0  0  0  0  0  0  0
  -44.9781   58.4261   66.5684 C   0  0  0  0  0  0  0  0  0  0  0  0
  -46.1983   57.6657   67.0816 C   0  0  0  0  0  0  0  0  0  0  0  0
  -47.1812   57.2548   65.9864 C   0  0  0  0  0  0  0  0  0  0  0  0
  -48.6020   57.7863   66.1734 C   0  0  0  0  0  0  0  0  0  0  0  0
  -48.6865   59.3128   66.1691 C   0  0  0  0  0  0  0  0  0  0  0  0
  -48.1207   59.9889   64.9204 C   0  0  0  0  0  0  0  0  0  0  0  0
  -49.1533   60.7213   64.0595 C   0  0  0  0  0  0  0  0  0  0  0  0
  -50.5676   60.3630   64.4137 C   0  0  0  0  0  0  0  0  0  0  0  0
  -51.4500   59.7923   63.6128 C   0  0  0  0  0  0  0  0  0  0  0  0
  -51.2153   59.3850   62.1897 C   0  0  0  0  0  0  0  0  0  0  0  0
  -50.7941   57.9225   62.0306 C   0  0  0  0  0  0  0  0  0  0  0  0
  -49.3752   57.7586   61.5024 C   0  0  0  0  0  0  0  0  0  0  0  0
  -49.1253   58.5068   60.1977 C   0  0  0  0  0  0  0  0  0  0  0  0
  -48.7347   57.6159   59.0240 C   0  0  0  0  0  0  0  0  0  0  0  0
  -47.7467   58.2643   58.0645 C   0  0  0  0  0  0  0  0  0  0  0  0
  -47.2538   57.3414   56.9613 C   0  0  0  0  0  0  0  0  0  0  0  0
  -47.4227   55.8744   57.3009 C   0  0  0  0  0  0  0  0  0  0  0  0
  -36.7455   58.3370   60.1889 O   0  0  0  0  0  0  0  0  0  0  0  0
  -36.3209   58.6806   61.5110 C   0  0  0  0  0  0  0  0  0  0  0  0
  -37.6235   58.7145   60.0229 H   0  0  0  0  0  0  0  0  0  0  0  0
  -34.9657   58.1130   61.8031 C   0  0  0  0  0  0  0  0  0  0  0  0
  -34.0014   58.7443   62.4431 C   0  0  0  0  0  0  0  0  0  0  0  0
  -32.6643   58.1449   62.7322 C   0  0  0  0  0  0  0  0  0  0  0  0
  -31.5750   59.2189   62.7634 C   0  0  0  0  0  0  0  0  0  0  0  0
  -31.9879   60.5435   62.1423 C   0  0  0  0  0  0  0  0  0  0  0  0
  -30.8478   61.3142   61.4990 C   0  0  0  0  0  0  0  0  0  0  0  0
  -30.1471   62.2830   62.4404 C   0  0  0  0  0  0  0  0  0  0  0  0
  -29.9915   63.6842   61.8698 C   0  0  0  0  0  0  0  0  0  0  0  0
  -30.9643   63.9993   60.7472 C   0  0  0  0  0  0  0  0  0  0  0  0
  -32.1270   64.8800   61.1657 C   0  0  0  0  0  0  0  0  0  0  0  0
  -33.3957   64.1108   61.4915 C   0  0  0  0  0  0  0  0  0  0  0  0
  -33.6343   63.9638   62.9828 C   0  0  0  0  0  0  0  0  0  0  0  0
  -33.1595   65.1417   63.8120 C   0  0  0  0  0  0  0  0  0  0  0  0
  -32.7836   64.7447   65.2261 C   0  0  0  0  0  0  0  0  0  0  0  0
  -31.2913   64.5492   65.3966 C   0  0  0  0  0  0  0  0  0  0  0  0
  -36.7802   57.1990   63.5109 C   0  0  0  0  0  0  0  0  0  0  0  0
  -36.5969   57.8778   64.7584 O   0  0  0  0  0  0  0  0  0  0  0  0
  -39.3162   58.5149   64.9589 O   0  0  0  0  0  0  0  0  0  0  0  0
  -37.3260   61.3289   67.5361 O   0  0  0  0  0  0  0  0  0  0  0  0
  -36.0186   60.0407   65.3206 O   0  0  0  0  0  0  0  0  0  0  0  0
  -37.0165   59.2113   64.7553 C   0  0  0  0  0  0  0  0  0  0  0  0
  -38.3015   59.3031   65.5680 C   0  0  0  0  0  0  0  0  0  0  0  0
  -38.7496   60.7559   65.6655 C   0  0  0  0  0  0  0  0  0  0  0  0
  -37.6244   61.6418   66.1794 C   0  0  0  0  0  0  0  0  0  0  0  0
  -36.3761   61.4321   65.3258 C   0  0  0  0  0  0  0  0  0  0  0  0
  -39.0194   57.5931   64.9026 H   0  0  0  0  0  0  0  0  0  0  0  0
  -38.1178   61.4616   68.0803 H   0  0  0  0  0  0  0  0  0  0  0  0
  -34.1461   61.3097   66.2746 O   0  0  0  0  0  0  0  0  0  0  0  0
  -35.1731   62.1910   65.8350 C   0  0  0  0  0  0  0  0  0  0  0  0
  -33.3906   61.8275   66.5943 H   0  0  0  0  0  0  0  0  0  0  0  0
  -39.8420   60.7411   66.6380 O   0  0  0  0  0  0  0  0  0  0  0  0
  -41.4723   60.3460   64.9080 O   0  0  0  0  0  0  0  0  0  0  0  0
  -41.5858   62.4209   66.3213 O   0  0  0  0  0  0  0  0  0  0  0  0
  -42.1099   60.2778   67.1985 O   0  0  0  0  0  0  0  0  0  0  0  0
  -41.3157   61.0457   66.1291 S   0  0  0  0  0  0  0  0  0  0  0  0
  -40.9822   60.8043   64.2076 H   0  0  0  0  0  0  0  0  0  0  0  0
  -41.9500   59.3263   67.0990 H   0  0  0  0  0  0  0  0  0  0  0  0
  2  1  1  0  0  0
  2  4  1  0  0  0
  2  5  1  0  0  0
 47 48  1  0  0  0
 47  1  1  0  0  0
 48 52  1  0  0  0
  1 30  1  0  0  0
 29 30  1  0  0  0
 29 31  1  0  0  0
 30 32  1  0  0  0
  3  4  2  0  0  0
 32 33  2  0  0  0
 49 53  1  0  0  0
 49 57  1  0  0  0
 33 34  1  0  0  0
 62 54  1  0  0  0
 62 66  1  0  0  0
 34 35  1  0  0  0
 50 55  1  0  0  0
 50 58  1  0  0  0
 35 36  1  0  0  0
 51 52  1  0  0  0
 51 56  1  0  0  0
 36 37  1  0  0  0
 59 60  1  0  0  0
 59 61  1  0  0  0
 37 38  1  0  0  0
 63 66  1  0  0  0
 63 67  1  0  0  0
 38 39  1  0  0  0
 64 66  1  0  0  0
 39 40  1  0  0  0
 65 66  1  0  0  0
 65 68  1  0  0  0
 40 41  1  0  0  0
 41 42  1  0  0  0
 42 43  1  0  0  0
 43 44  1  0  0  0
 44 45  1  0  0  0
 45 46  1  0  0  0
  4  6  1  0  0  0
  6  7  1  0  0  0
  7  8  1  0  0  0
  8  9  1  0  0  0
  9 10  1  0  0  0
 10 11  1  0  0  0
 11 12  1  0  0  0
 12 13  1  0  0  0
 13 14  1  0  0  0
 14 15  1  0  0  0
 15 16  1  0  0  0
 16 17  1  0  0  0
 17 18  1  0  0  0
 18 19  1  0  0  0
 19 20  2  0  0  0
 20 21  1  0  0  0
 21 22  1  0  0  0
 22 23  1  0  0  0
 23 24  1  0  0  0
 24 25  1  0  0  0
 25 26  1  0  0  0
 26 27  1  0  0  0
 27 28  1  0  0  0
 52 53  1  0  0  0
 53 54  1  0  0  0
 54 55  1  0  0  0
 55 56  1  0  0  0
 56 60  1  0  0  0
M  CHG 1  64  -1
M  END
> <minimizedAffinity>
-8.17689

> <CNNscore>
0.1456837505

> <CNNaffinity>
6.9512796402

> <CNN_VS>
1.0126885176

> <CNNaffinity_variance>
1.0891364813

$$$$
/media/chris/experiments/cd1a-new-docking/inputs/ligands/7ryn_ligand.pdb


 68 68  0  0  0  0  0  0  0  0999 V2000
  -31.8200   61.9878   62.2084 C   0  0  0  0  0  0  0  0  0  0  0  0
  -33.0183   61.9471   63.0413 N   0  0  0  0  0  0  0  0  0  0  0  0
  -32.1138   63.0136   64.8055 O   0  0  0  0  0  0  0  0  0  0  0  0
  -33.0724   62.4620   64.2726 C   0  0  0  0  0  0  0  0  0  0  0  0
  -33.8267   61.5189   62.6774 H   0  0  0  0  0  0  0  0  0  0  0  0
  -34.3998   62.3312   64.9768 C   0  0  0  0  0  0  0  0  0  0  0  0
  -35.0710   60.9890   64.7150 C   0  0  0  0  0  0  0  0  0  0  0  0
  -36.5808   61.1047   64.5793 C   0  0  0  0  0  0  0  0  0  0  0  0
  -37.3469   59.9624   65.2255 C   0  0  0  0  0  0  0  0  0  0  0  0
  -38.8182   60.2663   65.4653 C   0  0  0  0  0  0  0  0  0  0  0  0
  -39.7023   59.0282   65.5427 C   0  0  0  0  0  0  0  0  0  0  0  0
  -41.1944   59.3332   65.5211 C   0  0  0  0  0  0  0  0  0  0  0  0
  -42.0938   58.0998   65.5419 C   0  0  0  0  0  0  0  0  0  0  0  0
  -43.2706   58.1716   64.5700 C   0  0  0  0  0  0  0  0  0  0  0  0
  -44.5955   57.6600   65.1350 C   0  0  0  0  0  0  0  0  0  0  0  0
  -45.7974   58.5190   64.7414 C   0  0  0  0  0  0  0  0  0  0  0  0
  -46.7305   58.8931   65.8929 C   0  0  0  0  0  0  0  0  0  0  0  0
  -48.1644   59.2320   65.4771 C   0  0  0  0  0  0  0  0  0  0  0  0
  -48.2306   60.0239   64.2032 C   0  0  0  0  0  0  0  0  0  0  0  0
  -49.2603   60.0858   63.3777 C   0  0  0  0  0  0  0  0  0  0  0  0
  -50.5713   59.3799   63.5486 C   0  0  0  0  0  0  0  0  0  0  0  0
  -50.9302   58.4588   62.3806 C   0  0  0  0  0  0  0  0  0  0  0  0
  -49.7512   58.1623   61.4633 C   0  0  0  0  0  0  0  0  0  0  0  0
  -49.9193   56.8787   60.6580 C   0  0  0  0  0  0  0  0  0  0  0  0
  -48.9360   56.7246   59.5033 C   0  0  0  0  0  0  0  0  0  0  0  0
  -48.2711   58.0289   59.0863 C   0  0  0  0  0  0  0  0  0  0  0  0
  -47.5424   57.9576   57.7538 C   0  0  0  0  0  0  0  0  0  0  0  0
  -47.2615   56.5359   57.3111 C   0  0  0  0  0  0  0  0  0  0  0  0
  -30.6607   60.5198   60.6801 O   0  0  0  0  0  0  0  0  0  0  0  0
  -31.3370   60.5534   61.9402 C   0  0  0  0  0  0  0  0  0  0  0  0
  -29.9297   61.1575   60.6884 H   0  0  0  0  0  0  0  0  0  0  0  0
  -32.4746   59.5789   61.9639 C   0  0  0  0  0  0  0  0  0  0  0  0
  -32.4808   58.4369   62.6225 C   0  0  0  0  0  0  0  0  0  0  0  0
  -33.6378   57.4927   62.6383 C   0  0  0  0  0  0  0  0  0  0  0  0
  -34.8648   58.1144   61.9683 C   0  0  0  0  0  0  0  0  0  0  0  0
  -36.1928   57.6023   62.5020 C   0  0  0  0  0  0  0  0  0  0  0  0
  -37.3941   57.9751   61.6501 C   0  0  0  0  0  0  0  0  0  0  0  0
  -38.7101   58.0015   62.4138 C   0  0  0  0  0  0  0  0  0  0  0  0
  -39.4125   56.6536   62.4669 C   0  0  0  0  0  0  0  0  0  0  0  0
  -40.9007   56.7272   62.1743 C   0  0  0  0  0  0  0  0  0  0  0  0
  -41.2327   56.9505   60.7106 C   0  0  0  0  0  0  0  0  0  0  0  0
  -41.4636   58.4073   60.3472 C   0  0  0  0  0  0  0  0  0  0  0  0
  -42.1143   59.2017   61.4642 C   0  0  0  0  0  0  0  0  0  0  0  0
  -41.8629   60.6960   61.3987 C   0  0  0  0  0  0  0  0  0  0  0  0
  -42.3548   61.4242   62.6341 C   0  0  0  0  0  0  0  0  0  0  0  0
  -43.1960   62.6376   62.2961 C   0  0  0  0  0  0  0  0  0  0  0  0
  -30.7531   62.8320   62.8742 C   0  0  0  0  0  0  0  0  0  0  0  0
  -30.3527   63.8570   61.9577 O   0  0  0  0  0  0  0  0  0  0  0  0
  -32.2077   65.2791   60.4159 O   0  0  0  0  0  0  0  0  0  0  0  0
  -33.3670   66.0087   64.4958 O   0  0  0  0  0  0  0  0  0  0  0  0
  -30.6867   65.2912   63.7354 O   0  0  0  0  0  0  0  0  0  0  0  0
  -30.7453   65.1463   62.3287 C   0  0  0  0  0  0  0  0  0  0  0  0
  -32.1693   65.3661   61.8346 C   0  0  0  0  0  0  0  0  0  0  0  0
  -32.6717   66.7294   62.2931 C   0  0  0  0  0  0  0  0  0  0  0  0
  -32.5022   66.8974   63.7958 C   0  0  0  0  0  0  0  0  0  0  0  0
  -31.0550   66.6052   64.1844 C   0  0  0  0  0  0  0  0  0  0  0  0
  -31.8859   64.4078   60.1365 H   0  0  0  0  0  0  0  0  0  0  0  0
  -34.2872   66.1927   64.2504 H   0  0  0  0  0  0  0  0  0  0  0  0
  -31.0303   65.3619   66.2681 O   0  0  0  0  0  0  0  0  0  0  0  0
  -30.8214   66.6391   65.6766 C   0  0  0  0  0  0  0  0  0  0  0  0
  -30.8726   65.4184   67.2236 H   0  0  0  0  0  0  0  0  0  0  0  0
  -34.0959   66.7295   61.9596 O   0  0  0  0  0  0  0  0  0  0  0  0
  -35.7084   65.5792   63.3320 O   0  0  0  0  0  0  0  0  0  0  0  0
  -34.0704   64.2879   61.9301 O   0  0  0  0  0  0  0  0  0  0  0  0
  -35.8704   65.4948   60.9604 O   0  0  0  0  0  0  0  0  0  0  0  0
  -34.9244   65.3903   62.1680 S   0  0  0  0  0  0  0  0  0  0  0  0
  -35.1415   65.5194   64.1168 H   0  0  0  0  0  0  0  0  0  0  0  0
  -36.4747   66.2429   61.0869 H   0  0  0  0  0  0  0  0  0  0  0  0
  2  1  1  0  0  0
  2  4  1  0  0  0
  2  5  1  0  0  0
 47 48  1  0  0  0
 47  1  1  0  0  0
 48 52  1  0  0  0
  1 30  1  0  0  0
 29 30  1  0  0  0
 29 31  1  0  0  0
 30 32  1  0  0  0
  3  4  2  0  0  0
 32 33  2  0  0  0
 49 53  1  0  0  0
 49 57  1  0  0  0
 33 34  1  0  0  0
 62 54  1  0  0  0
 62 66  1  0  0  0
 34 35  1  0  0  0
 50 55  1  0  0  0
 50 58  1  0  0  0
 35 36  1  0  0  0
 51 52  1  0  0  0
 51 56  1  0  0  0
 36 37  1  0  0  0
 59 60  1  0  0  0
 59 61  1  0  0  0
 37 38  1  0  0  0
 63 66  1  0  0  0
 63 67  1  0  0  0
 38 39  1  0  0  0
 64 66  1  0  0  0
 39 40  1  0  0  0
 65 66  1  0  0  0
 65 68  1  0  0  0
 40 41  1  0  0  0
 41 42  1  0  0  0
 42 43  1  0  0  0
 43 44  1  0  0  0
 44 45  1  0  0  0
 45 46  1  0  0  0
  4  6  1  0  0  0
  6  7  1  0  0  0
  7  8  1  0  0  0
  8  9  1  0  0  0
  9 10  1  0  0  0
 10 11  1  0  0  0
 11 12  1  0  0  0
 12 13  1  0  0  0
 13 14  1  0  0  0
 14 15  1  0  0  0
 15 16  1  0  0  0
 16 17  1  0  0  0
 17 18  1  0  0  0
 18 19  1  0  0  0
 19 20  2  0  0  0
 20 21  1  0  0  0
 21 22  1  0  0  0
 22 23  1  0  0  0
 23 24  1  0  0  0
 24 25  1  0  0  0
 25 26  1  0  0  0
 26 27  1  0  0  0
 27 28  1  0  0  0
 52 53  1  0  0  0
 53 54  1  0  0  0
 54 55  1  0  0  0
 55 56  1  0  0  0
 56 60  1  0  0  0
M  CHG 1  64  -1
M  END
> <minimizedAffinity>
-9.26557

> <CNNscore>
0.1446193159

> <CNNaffinity>
6.9960813522

> <CNN_VS>
1.0117684603

> <CNNaffinity_variance>
1.6604864597

$$$$
/media/chris/experiments/cd1a-new-docking/inputs/ligands/7ryn_ligand.pdb


 68 68  0  0  0  0  0  0  0  0999 V2000
  -38.1055   59.8421   61.4022 C   0  0  0  0  0  0  0  0  0  0  0  0
  -39.4391   59.8622   61.9959 N   0  0  0  0  0  0  0  0  0  0  0  0
  -40.5393   60.3184   60.0856 O   0  0  0  0  0  0  0  0  0  0  0  0
  -40.5502   60.0982   61.2933 C   0  0  0  0  0  0  0  0  0  0  0  0
  -39.5236   59.6933   62.9622 H   0  0  0  0  0  0  0  0  0  0  0  0
  -41.8374   60.0707   62.0792 C   0  0  0  0  0  0  0  0  0  0  0  0
  -42.4138   58.6666   62.2085 C   0  0  0  0  0  0  0  0  0  0  0  0
  -43.3768   58.5331   63.3773 C   0  0  0  0  0  0  0  0  0  0  0  0
  -43.0873   57.3468   64.2818 C   0  0  0  0  0  0  0  0  0  0  0  0
  -44.1047   57.1611   65.3975 C   0  0  0  0  0  0  0  0  0  0  0  0
  -45.1233   58.2892   65.5018 C   0  0  0  0  0  0  0  0  0  0  0  0
  -45.7524   58.4267   66.8821 C   0  0  0  0  0  0  0  0  0  0  0  0
  -46.9588   57.5224   67.1217 C   0  0  0  0  0  0  0  0  0  0  0  0
  -47.8992   57.4092   65.9228 C   0  0  0  0  0  0  0  0  0  0  0  0
  -49.2598   58.0787   66.1150 C   0  0  0  0  0  0  0  0  0  0  0  0
  -49.2002   59.6054   66.0610 C   0  0  0  0  0  0  0  0  0  0  0  0
  -48.3255   60.1801   64.9469 C   0  0  0  0  0  0  0  0  0  0  0  0
  -49.0698   60.5194   63.6527 C   0  0  0  0  0  0  0  0  0  0  0  0
  -50.5622   60.4955   63.8147 C   0  0  0  0  0  0  0  0  0  0  0  0
  -51.3707   59.5208   63.4378 C   0  0  0  0  0  0  0  0  0  0  0  0
  -50.9598   58.2409   62.7751 C   0  0  0  0  0  0  0  0  0  0  0  0
  -50.7852   58.3620   61.2597 C   0  0  0  0  0  0  0  0  0  0  0  0
  -49.3501   58.1431   60.7994 C   0  0  0  0  0  0  0  0  0  0  0  0
  -49.0097   56.6768   60.5570 C   0  0  0  0  0  0  0  0  0  0  0  0
  -48.2468   56.4114   59.2641 C   0  0  0  0  0  0  0  0  0  0  0  0
  -48.6447   57.3307   58.1179 C   0  0  0  0  0  0  0  0  0  0  0  0
  -47.7421   57.2311   56.8984 C   0  0  0  0  0  0  0  0  0  0  0  0
  -46.4975   58.0876   57.0149 C   0  0  0  0  0  0  0  0  0  0  0  0
  -39.0415   57.6811   60.8644 O   0  0  0  0  0  0  0  0  0  0  0  0
  -37.8438   58.4593   60.7840 C   0  0  0  0  0  0  0  0  0  0  0  0
  -39.7632   58.1515   60.4187 H   0  0  0  0  0  0  0  0  0  0  0  0
  -36.7052   57.7622   61.4636 C   0  0  0  0  0  0  0  0  0  0  0  0
  -35.4376   58.1118   61.3693 C   0  0  0  0  0  0  0  0  0  0  0  0
  -34.3256   57.4046   62.0720 C   0  0  0  0  0  0  0  0  0  0  0  0
  -33.0955   58.3052   62.2014 C   0  0  0  0  0  0  0  0  0  0  0  0
  -33.3967   59.6998   62.7260 C   0  0  0  0  0  0  0  0  0  0  0  0
  -33.4749   59.7943   64.2402 C   0  0  0  0  0  0  0  0  0  0  0  0
  -34.1411   58.5964   64.9013 C   0  0  0  0  0  0  0  0  0  0  0  0
  -35.6423   58.7567   65.0849 C   0  0  0  0  0  0  0  0  0  0  0  0
  -36.4168   57.4571   64.9549 C   0  0  0  0  0  0  0  0  0  0  0  0
  -37.9194   57.6407   64.8495 C   0  0  0  0  0  0  0  0  0  0  0  0
  -38.4503   58.8304   65.6308 C   0  0  0  0  0  0  0  0  0  0  0  0
  -39.9594   58.9670   65.5513 C   0  0  0  0  0  0  0  0  0  0  0  0
  -40.4575   60.3991   65.5144 C   0  0  0  0  0  0  0  0  0  0  0  0
  -41.8715   60.5378   66.0435 C   0  0  0  0  0  0  0  0  0  0  0  0
  -42.1403   59.6302   67.2260 C   0  0  0  0  0  0  0  0  0  0  0  0
  -37.0676   60.2050   62.4439 C   0  0  0  0  0  0  0  0  0  0  0  0
  -37.4003   61.4893   62.9831 O   0  0  0  0  0  0  0  0  0  0  0  0
  -35.5138   63.3288   62.0353 O   0  0  0  0  0  0  0  0  0  0  0  0
  -36.7477   64.8766   65.8567 O   0  0  0  0  0  0  0  0  0  0  0  0
  -36.9353   62.0909   65.1626 O   0  0  0  0  0  0  0  0  0  0  0  0
  -36.4335   62.0216   63.8410 C   0  0  0  0  0  0  0  0  0  0  0  0
  -36.0735   63.4141   63.3397 C   0  0  0  0  0  0  0  0  0  0  0  0
  -35.0846   64.0690   64.2959 C   0  0  0  0  0  0  0  0  0  0  0  0
  -35.6044   64.0381   65.7255 C   0  0  0  0  0  0  0  0  0  0  0  0
  -35.9805   62.6076   66.1036 C   0  0  0  0  0  0  0  0  0  0  0  0
  -36.1520   62.9106   61.4364 H   0  0  0  0  0  0  0  0  0  0  0  0
  -36.5109   65.7862   65.6171 H   0  0  0  0  0  0  0  0  0  0  0  0
  -36.2748   63.6127   68.2925 O   0  0  0  0  0  0  0  0  0  0  0  0
  -36.6125   62.5005   67.4716 C   0  0  0  0  0  0  0  0  0  0  0  0
  -36.6953   63.5130   69.1610 H   0  0  0  0  0  0  0  0  0  0  0  0
  -34.9929   65.4557   63.8398 O   0  0  0  0  0  0  0  0  0  0  0  0
  -33.0469   66.8726   63.7280 O   0  0  0  0  0  0  0  0  0  0  0  0
  -34.1354   66.0280   61.6262 O   0  0  0  0  0  0  0  0  0  0  0  0
  -32.9124   64.5915   63.0676 O   0  0  0  0  0  0  0  0  0  0  0  0
  -33.7326   65.8887   62.9751 S   0  0  0  0  0  0  0  0  0  0  0  0
  -33.5382   67.7081   63.6917 H   0  0  0  0  0  0  0  0  0  0  0  0
  -32.6166   64.4604   63.9820 H   0  0  0  0  0  0  0  0  0  0  0  0
  2  1  1  0  0  0
  2  4  1  0  0  0
  2  5  1  0  0  0
 47 48  1  0  0  0
 47  1  1  0  0  0
 48 52  1  0  0  0
  1 30  1  0  0  0
 29 30  1  0  0  0
 29 31  1  0  0  0
 30 32  1  0  0  0
  3  4  2  0  0  0
 32 33  2  0  0  0
 49 53  1  0  0  0
 49 57  1  0  0  0
 33 34  1  0  0  0
 62 54  1  0  0  0
 62 66  1  0  0  0
 34 35  1  0  0  0
 50 55  1  0  0  0
 50 58  1  0  0  0
 35 36  1  0  0  0
 51 52  1  0  0  0
 51 56  1  0  0  0
 36 37  1  0  0  0
 59 60  1  0  0  0
 59 61  1  0  0  0
 37 38  1  0  0  0
 63 66  1  0  0  0
 63 67  1  0  0  0
 38 39  1  0  0  0
 64 66  1  0  0  0
 39 40  1  0  0  0
 65 66  1  0  0  0
 65 68  1  0  0  0
 40 41  1  0  0  0
 41 42  1  0  0  0
 42 43  1  0  0  0
 43 44  1  0  0  0
 44 45  1  0  0  0
 45 46  1  0  0  0
  4  6  1  0  0  0
  6  7  1  0  0  0
  7  8  1  0  0  0
  8  9  1  0  0  0
  9 10  1  0  0  0
 10 11  1  0  0  0
 11 12  1  0  0  0
 12 13  1  0  0  0
 13 14  1  0  0  0
 14 15  1  0  0  0
 15 16  1  0  0  0
 16 17  1  0  0  0
 17 18  1  0  0  0
 18 19  1  0  0  0
 19 20  2  0  0  0
 20 21  1  0  0  0
 21 22  1  0  0  0
 22 23  1  0  0  0
 23 24  1  0  0  0
 24 25  1  0  0  0
 25 26  1  0  0  0
 26 27  1  0  0  0
 27 28  1  0  0  0
 52 53  1  0  0  0
 53 54  1  0  0  0
 54 55  1  0  0  0
 55 56  1  0  0  0
 56 60  1  0  0  0
M  CHG 1  64  -1
M  END
> <minimizedAffinity>
-8.10706

> <CNNscore>
0.1379721910

> <CNNaffinity>
7.3333435059

> <CNN_VS>
1.0117974281

> <CNNaffinity_variance>
1.3056695461

$$$$
/media/chris/experiments/cd1a-new-docking/inputs/ligands/7ryn_ligand.pdb


 68 68  0  0  0  0  0  0  0  0999 V2000
  -38.2745   59.8306   61.4373 C   0  0  0  0  0  0  0  0  0  0  0  0
  -39.6321   59.7077   61.9598 N   0  0  0  0  0  0  0  0  0  0  0  0
  -40.6696   60.3705   60.0751 O   0  0  0  0  0  0  0  0  0  0  0  0
  -40.7221   59.9865   61.2399 C   0  0  0  0  0  0  0  0  0  0  0  0
  -39.7501   59.4043   62.8889 H   0  0  0  0  0  0  0  0  0  0  0  0
  -42.0394   59.7924   61.9486 C   0  0  0  0  0  0  0  0  0  0  0  0
  -42.3826   58.3223   62.1527 C   0  0  0  0  0  0  0  0  0  0  0  0
  -43.4045   58.1063   63.2574 C   0  0  0  0  0  0  0  0  0  0  0  0
  -42.9337   57.1699   64.3577 C   0  0  0  0  0  0  0  0  0  0  0  0
  -43.6922   57.3285   65.6669 C   0  0  0  0  0  0  0  0  0  0  0  0
  -44.9784   58.1357   65.5443 C   0  0  0  0  0  0  0  0  0  0  0  0
  -45.5026   58.6665   66.8723 C   0  0  0  0  0  0  0  0  0  0  0  0
  -46.6569   57.8622   67.4650 C   0  0  0  0  0  0  0  0  0  0  0  0
  -47.4530   57.0640   66.4336 C   0  0  0  0  0  0  0  0  0  0  0  0
  -48.7252   57.7520   65.9393 C   0  0  0  0  0  0  0  0  0  0  0  0
  -48.8566   59.2004   66.4107 C   0  0  0  0  0  0  0  0  0  0  0  0
  -48.6600   60.2556   65.3224 C   0  0  0  0  0  0  0  0  0  0  0  0
  -48.5341   59.7006   63.9011 C   0  0  0  0  0  0  0  0  0  0  0  0
  -49.5327   60.2966   62.9516 C   0  0  0  0  0  0  0  0  0  0  0  0
  -50.5037   59.6471   62.3342 C   0  0  0  0  0  0  0  0  0  0  0  0
  -50.8055   58.1845   62.4603 C   0  0  0  0  0  0  0  0  0  0  0  0
  -51.0426   57.4881   61.1185 C   0  0  0  0  0  0  0  0  0  0  0  0
  -50.2285   58.0849   59.9782 C   0  0  0  0  0  0  0  0  0  0  0  0
  -48.7496   57.7186   60.0346 C   0  0  0  0  0  0  0  0  0  0  0  0
  -48.4460   56.2642   59.6933 C   0  0  0  0  0  0  0  0  0  0  0  0
  -47.4897   56.0966   58.5208 C   0  0  0  0  0  0  0  0  0  0  0  0
  -47.9559   56.7651   57.2373 C   0  0  0  0  0  0  0  0  0  0  0  0
  -47.0404   57.8871   56.7911 C   0  0  0  0  0  0  0  0  0  0  0  0
  -38.8133   57.4880   61.1992 O   0  0  0  0  0  0  0  0  0  0  0  0
  -37.7901   58.4559   60.9491 C   0  0  0  0  0  0  0  0  0  0  0  0
  -39.6337   57.7644   60.7617 H   0  0  0  0  0  0  0  0  0  0  0  0
  -36.5055   58.0610   61.6111 C   0  0  0  0  0  0  0  0  0  0  0  0
  -35.3060   58.2020   61.0828 C   0  0  0  0  0  0  0  0  0  0  0  0
  -34.0415   57.8117   61.7752 C   0  0  0  0  0  0  0  0  0  0  0  0
  -33.0192   58.9495   61.7365 C   0  0  0  0  0  0  0  0  0  0  0  0
  -32.4202   59.2952   63.0902 C   0  0  0  0  0  0  0  0  0  0  0  0
  -32.3471   58.1265   64.0579 C   0  0  0  0  0  0  0  0  0  0  0  0
  -33.4196   58.1489   65.1372 C   0  0  0  0  0  0  0  0  0  0  0  0
  -34.2713   59.4089   65.1259 C   0  0  0  0  0  0  0  0  0  0  0  0
  -35.7174   59.1664   64.7312 C   0  0  0  0  0  0  0  0  0  0  0  0
  -36.1636   57.7231   64.8742 C   0  0  0  0  0  0  0  0  0  0  0  0
  -37.6715   57.5477   64.9288 C   0  0  0  0  0  0  0  0  0  0  0  0
  -38.3750   58.6808   65.6524 C   0  0  0  0  0  0  0  0  0  0  0  0
  -39.8532   58.8039   65.3358 C   0  0  0  0  0  0  0  0  0  0  0  0
  -40.5439   59.8572   66.1796 C   0  0  0  0  0  0  0  0  0  0  0  0
  -41.6904   60.5256   65.4495 C   0  0  0  0  0  0  0  0  0  0  0  0
  -37.3609   60.4124   62.4962 C   0  0  0  0  0  0  0  0  0  0  0  0
  -38.0553   61.4782   63.1540 O   0  0  0  0  0  0  0  0  0  0  0  0
  -37.4387   62.0750   65.8195 O   0  0  0  0  0  0  0  0  0  0  0  0
  -33.7517   62.6467   63.6745 O   0  0  0  0  0  0  0  0  0  0  0  0
  -36.3352   62.8325   62.4222 O   0  0  0  0  0  0  0  0  0  0  0  0
  -37.2540   62.5796   63.4686 C   0  0  0  0  0  0  0  0  0  0  0  0
  -36.5096   62.2676   64.7604 C   0  0  0  0  0  0  0  0  0  0  0  0
  -35.5557   63.4070   65.0964 C   0  0  0  0  0  0  0  0  0  0  0  0
  -34.6483   63.7259   63.9175 C   0  0  0  0  0  0  0  0  0  0  0  0
  -35.4946   63.9707   62.6706 C   0  0  0  0  0  0  0  0  0  0  0  0
  -38.0398   61.3479   65.5940 H   0  0  0  0  0  0  0  0  0  0  0  0
  -33.2129   62.4896   64.4656 H   0  0  0  0  0  0  0  0  0  0  0  0
  -35.4883   64.2995   60.2664 O   0  0  0  0  0  0  0  0  0  0  0  0
  -34.6686   64.1849   61.4239 C   0  0  0  0  0  0  0  0  0  0  0  0
  -34.9284   64.4358   59.4859 H   0  0  0  0  0  0  0  0  0  0  0  0
  -34.7516   62.8999   66.2080 O   0  0  0  0  0  0  0  0  0  0  0  0
  -36.0108   63.5013   68.1726 O   0  0  0  0  0  0  0  0  0  0  0  0
  -34.1519   64.9761   67.3450 O   0  0  0  0  0  0  0  0  0  0  0  0
  -33.7246   62.8711   68.3566 O   0  0  0  0  0  0  0  0  0  0  0  0
  -34.7454   63.7125   67.5730 S   0  0  0  0  0  0  0  0  0  0  0  0
  -36.6822   64.0192   67.7017 H   0  0  0  0  0  0  0  0  0  0  0  0
  -34.0968   61.9930   68.5331 H   0  0  0  0  0  0  0  0  0  0  0  0
  2  1  1  0  0  0
  2  4  1  0  0  0
  2  5  1  0  0  0
 47 48  1  0  0  0
 47  1  1  0  0  0
 48 52  1  0  0  0
  1 30  1  0  0  0
 29 30  1  0  0  0
 29 31  1  0  0  0
 30 32  1  0  0  0
  3  4  2  0  0  0
 32 33  2  0  0  0
 49 53  1  0  0  0
 49 57  1  0  0  0
 33 34  1  0  0  0
 62 54  1  0  0  0
 62 66  1  0  0  0
 34 35  1  0  0  0
 50 55  1  0  0  0
 50 58  1  0  0  0
 35 36  1  0  0  0
 51 52  1  0  0  0
 51 56  1  0  0  0
 36 37  1  0  0  0
 59 60  1  0  0  0
 59 61  1  0  0  0
 37 38  1  0  0  0
 63 66  1  0  0  0
 63 67  1  0  0  0
 38 39  1  0  0  0
 64 66  1  0  0  0
 39 40  1  0  0  0
 65 66  1  0  0  0
 65 68  1  0  0  0
 40 41  1  0  0  0
 41 42  1  0  0  0
 42 43  1  0  0  0
 43 44  1  0  0  0
 44 45  1  0  0  0
 45 46  1  0  0  0
  4  6  1  0  0  0
  6  7  1  0  0  0
  7  8  1  0  0  0
  8  9  1  0  0  0
  9 10  1  0  0  0
 10 11  1  0  0  0
 11 12  1  0  0  0
 12 13  1  0  0  0
 13 14  1  0  0  0
 14 15  1  0  0  0
 15 16  1  0  0  0
 16 17  1  0  0  0
 17 18  1  0  0  0
 18 19  1  0  0  0
 19 20  2  0  0  0
 20 21  1  0  0  0
 21 22  1  0  0  0
 22 23  1  0  0  0
 23 24  1  0  0  0
 24 25  1  0  0  0
 25 26  1  0  0  0
 26 27  1  0  0  0
 27 28  1  0  0  0
 52 53  1  0  0  0
 53 54  1  0  0  0
 54 55  1  0  0  0
 55 56  1  0  0  0
 56 60  1  0  0  0
M  CHG 1  64  -1
M  END
> <minimizedAffinity>
-7.93962

> <CNNscore>
0.1259821057

> <CNNaffinity>
7.2480516434

> <CNN_VS>
0.9131247997

> <CNNaffinity_variance>
1.2864477634

$$$$
