/media/chris/experiments/cd1a-new-docking/inputs/ligands/7ryn_ligand.pdb


 68 68  0  0  0  0  0  0  0  0999 V2000
  -40.1919   59.6849   65.9754 C   0  0  0  0  0  0  0  0  0  0  0  0
  -40.1951   58.8523   64.7762 N   0  0  0  0  0  0  0  0  0  0  0  0
  -38.6495   57.3866   65.5044 O   0  0  0  0  0  0  0  0  0  0  0  0
  -39.4253   57.7701   64.6338 C   0  0  0  0  0  0  0  0  0  0  0  0
  -40.7943   59.1010   64.0356 H   0  0  0  0  0  0  0  0  0  0  0  0
  -39.5724   57.0322   63.3265 C   0  0  0  0  0  0  0  0  0  0  0  0
  -41.0210   56.6799   63.0136 C   0  0  0  0  0  0  0  0  0  0  0  0
  -41.6541   55.8001   64.0795 C   0  0  0  0  0  0  0  0  0  0  0  0
  -42.8656   56.4232   64.7530 C   0  0  0  0  0  0  0  0  0  0  0  0
  -43.4848   57.5692   63.9669 C   0  0  0  0  0  0  0  0  0  0  0  0
  -44.5577   58.3356   64.7300 C   0  0  0  0  0  0  0  0  0  0  0  0
  -44.5295   58.1031   66.2350 C   0  0  0  0  0  0  0  0  0  0  0  0
  -45.6954   58.7300   66.9951 C   0  0  0  0  0  0  0  0  0  0  0  0
  -46.7769   57.7328   67.4079 C   0  0  0  0  0  0  0  0  0  0  0  0
  -47.4941   57.0519   66.2423 C   0  0  0  0  0  0  0  0  0  0  0  0
  -48.2265   58.0296   65.3232 C   0  0  0  0  0  0  0  0  0  0  0  0
  -49.1583   59.0114   66.0334 C   0  0  0  0  0  0  0  0  0  0  0  0
  -50.6496   58.7976   65.7607 C   0  0  0  0  0  0  0  0  0  0  0  0
  -51.2448   59.8726   64.8980 C   0  0  0  0  0  0  0  0  0  0  0  0
  -51.3171   59.8609   63.5787 C   0  0  0  0  0  0  0  0  0  0  0  0
  -50.8218   58.7703   62.6780 C   0  0  0  0  0  0  0  0  0  0  0  0
  -49.4937   59.0960   61.9914 C   0  0  0  0  0  0  0  0  0  0  0  0
  -49.5038   58.8121   60.4952 C   0  0  0  0  0  0  0  0  0  0  0  0
  -50.0938   57.4515   60.1417 C   0  0  0  0  0  0  0  0  0  0  0  0
  -49.0663   56.3333   60.0081 C   0  0  0  0  0  0  0  0  0  0  0  0
  -47.7757   56.7651   59.3262 C   0  0  0  0  0  0  0  0  0  0  0  0
  -47.8753   56.8658   57.8124 C   0  0  0  0  0  0  0  0  0  0  0  0
  -47.1265   58.0571   57.2504 C   0  0  0  0  0  0  0  0  0  0  0  0
  -42.1233   60.7639   66.9451 O   0  0  0  0  0  0  0  0  0  0  0  0
  -41.2369   60.8019   65.8229 C   0  0  0  0  0  0  0  0  0  0  0  0
  -41.6114   60.8499   67.7646 H   0  0  0  0  0  0  0  0  0  0  0  0
  -41.9943   60.6715   64.5371 C   0  0  0  0  0  0  0  0  0  0  0  0
  -41.8775   61.4810   63.5032 C   0  0  0  0  0  0  0  0  0  0  0  0
  -42.6367   61.3154   62.2277 C   0  0  0  0  0  0  0  0  0  0  0  0
  -41.7170   60.8526   61.0959 C   0  0  0  0  0  0  0  0  0  0  0  0
  -41.7395   59.3529   60.8487 C   0  0  0  0  0  0  0  0  0  0  0  0
  -40.5564   58.8336   60.0499 C   0  0  0  0  0  0  0  0  0  0  0  0
  -39.3104   59.7011   60.1546 C   0  0  0  0  0  0  0  0  0  0  0  0
  -38.0105   58.9159   60.0700 C   0  0  0  0  0  0  0  0  0  0  0  0
  -37.6452   58.1971   61.3568 C   0  0  0  0  0  0  0  0  0  0  0  0
  -36.1515   58.0814   61.5977 C   0  0  0  0  0  0  0  0  0  0  0  0
  -35.7880   57.2745   62.8323 C   0  0  0  0  0  0  0  0  0  0  0  0
  -34.3641   57.5134   63.2993 C   0  0  0  0  0  0  0  0  0  0  0  0
  -34.2537   58.1647   64.6646 C   0  0  0  0  0  0  0  0  0  0  0  0
  -33.8651   59.6278   64.5823 C   0  0  0  0  0  0  0  0  0  0  0  0
  -33.0623   59.9460   63.3378 C   0  0  0  0  0  0  0  0  0  0  0  0
  -38.8026   60.2357   66.2217 C   0  0  0  0  0  0  0  0  0  0  0  0
  -38.2926   60.7421   64.9831 O   0  0  0  0  0  0  0  0  0  0  0  0
  -36.7222   61.1454   62.7000 O   0  0  0  0  0  0  0  0  0  0  0  0
  -36.3401   64.7851   64.9649 O   0  0  0  0  0  0  0  0  0  0  0  0
  -37.0158   62.2592   66.1651 O   0  0  0  0  0  0  0  0  0  0  0  0
  -37.0366   61.3478   65.0822 C   0  0  0  0  0  0  0  0  0  0  0  0
  -36.7599   62.0768   63.7738 C   0  0  0  0  0  0  0  0  0  0  0  0
  -35.4368   62.8262   63.8684 C   0  0  0  0  0  0  0  0  0  0  0  0
  -35.4025   63.7216   65.0983 C   0  0  0  0  0  0  0  0  0  0  0  0
  -35.7424   62.9007   66.3397 C   0  0  0  0  0  0  0  0  0  0  0  0
  -37.5691   60.6751   62.6500 H   0  0  0  0  0  0  0  0  0  0  0  0
  -36.1259   65.3080   64.1764 H   0  0  0  0  0  0  0  0  0  0  0  0
  -36.4794   63.0219   68.6486 O   0  0  0  0  0  0  0  0  0  0  0  0
  -35.8413   63.7349   67.5955 C   0  0  0  0  0  0  0  0  0  0  0  0
  -36.5265   63.5841   69.4376 H   0  0  0  0  0  0  0  0  0  0  0  0
  -35.3931   63.6522   62.6621 O   0  0  0  0  0  0  0  0  0  0  0  0
  -33.1967   62.8860   62.0326 O   0  0  0  0  0  0  0  0  0  0  0  0
  -33.5767   65.2844   62.6795 O   0  0  0  0  0  0  0  0  0  0  0  0
  -34.3897   64.3952   60.6338 O   0  0  0  0  0  0  0  0  0  0  0  0
  -33.9754   64.0678   62.0778 S   0  0  0  0  0  0  0  0  0  0  0  0
  -32.9167   62.6486   62.9305 H   0  0  0  0  0  0  0  0  0  0  0  0
  -34.6709   63.5820   60.1859 H   0  0  0  0  0  0  0  0  0  0  0  0
  2  1  1  0  0  0
  2  4  1  0  0  0
  2  5  1  0  0  0
 47 48  1  0  0  0
 47  1  1  0  0  0
 48 52  1  0  0  0
  1 30  1  0  0  0
 29 30  1  0  0  0
 29 31  1  0  0  0
 30 32  1  0  0  0
  3  4  2  0  0  0
 32 33  2  0  0  0
 49 53  1  0  0  0
 49 57  1  0  0  0
 33 34  1  0  0  0
 62 54  1  0  0  0
 62 66  1  0  0  0
 34 35  1  0  0  0
 50 55  1  0  0  0
 50 58  1  0  0  0
 35 36  1  0  0  0
 51 52  1  0  0  0
 51 56  1  0  0  0
 36 37  1  0  0  0
 59 60  1  0  0  0
 59 61  1  0  0  0
 37 38  1  0  0  0
 63 66  1  0  0  0
 63 67  1  0  0  0
 38 39  1  0  0  0
 64 66  1  0  0  0
 39 40  1  0  0  0
 65 66  1  0  0  0
 65 68  1  0  0  0
 40 41  1  0  0  0
 41 42  1  0  0  0
 42 43  1  0  0  0
 43 44  1  0  0  0
 44 45  1  0  0  0
 45 46  1  0  0  0
  4  6  1  0  0  0
  6  7  1  0  0  0
  7  8  1  0  0  0
  8  9  1  0  0  0
  9 10  1  0  0  0
 10 11  1  0  0  0
 11 12  1  0  0  0
 12 13  1  0  0  0
 13 14  1  0  0  0
 14 15  1  0  0  0
 15 16  1  0  0  0
 16 17  1  0  0  0
 17 18  1  0  0  0
 18 19  1  0  0  0
 19 20  2  0  0  0
 20 21  1  0  0  0
 21 22  1  0  0  0
 22 23  1  0  0  0
 23 24  1  0  0  0
 24 25  1  0  0  0
 25 26  1  0  0  0
 26 27  1  0  0  0
 27 28  1  0  0  0
 52 53  1  0  0  0
 53 54  1  0  0  0
 54 55  1  0  0  0
 55 56  1  0  0  0
 56 60  1  0  0  0
M  CHG 1  64  -1
M  END
> <minimizedAffinity>
-9.82270

> <CNNscore>
0.1704682410

> <CNNaffinity>
7.6395750046

> <CNN_VS>
1.3023048639

> <CNNaffinity_variance>
2.1852958202

$$$$
/media/chris/experiments/cd1a-new-docking/inputs/ligands/7ryn_ligand.pdb


 68 68  0  0  0  0  0  0  0  0999 V2000
  -34.5552   58.6931   62.1739 C   0  0  0  0  0  0  0  0  0  0  0  0
  -35.7305   57.8741   62.4552 N   0  0  0  0  0  0  0  0  0  0  0  0
  -36.9878   58.6824   60.7719 O   0  0  0  0  0  0  0  0  0  0  0  0
  -36.8533   57.9320   61.7341 C   0  0  0  0  0  0  0  0  0  0  0  0
  -35.6937   57.2480   63.2141 H   0  0  0  0  0  0  0  0  0  0  0  0
  -37.9586   57.0037   62.1720 C   0  0  0  0  0  0  0  0  0  0  0  0
  -39.3140   57.3967   61.5985 C   0  0  0  0  0  0  0  0  0  0  0  0
  -40.4511   57.1899   62.5860 C   0  0  0  0  0  0  0  0  0  0  0  0
  -41.8265   57.4905   62.0139 C   0  0  0  0  0  0  0  0  0  0  0  0
  -42.4968   58.7088   62.6313 C   0  0  0  0  0  0  0  0  0  0  0  0
  -43.7142   58.3798   63.4859 C   0  0  0  0  0  0  0  0  0  0  0  0
  -43.4626   57.2972   64.5274 C   0  0  0  0  0  0  0  0  0  0  0  0
  -44.4899   57.2522   65.6557 C   0  0  0  0  0  0  0  0  0  0  0  0
  -44.3871   58.4184   66.6374 C   0  0  0  0  0  0  0  0  0  0  0  0
  -45.7303   58.9606   67.1256 C   0  0  0  0  0  0  0  0  0  0  0  0
  -46.8351   57.9047   67.1654 C   0  0  0  0  0  0  0  0  0  0  0  0
  -48.1497   58.3182   66.5041 C   0  0  0  0  0  0  0  0  0  0  0  0
  -48.0698   58.5368   64.9909 C   0  0  0  0  0  0  0  0  0  0  0  0
  -48.3007   59.9665   64.5950 C   0  0  0  0  0  0  0  0  0  0  0  0
  -49.4599   60.5030   64.2567 C   0  0  0  0  0  0  0  0  0  0  0  0
  -50.7783   59.7925   64.2028 C   0  0  0  0  0  0  0  0  0  0  0  0
  -51.2090   59.4028   62.7871 C   0  0  0  0  0  0  0  0  0  0  0  0
  -50.4466   58.2063   62.2337 C   0  0  0  0  0  0  0  0  0  0  0  0
  -49.4717   58.5727   61.1203 C   0  0  0  0  0  0  0  0  0  0  0  0
  -49.7800   57.9281   59.7738 C   0  0  0  0  0  0  0  0  0  0  0  0
  -48.6273   57.9987   58.7821 C   0  0  0  0  0  0  0  0  0  0  0  0
  -47.5232   56.9853   59.0380 C   0  0  0  0  0  0  0  0  0  0  0  0
  -47.4462   55.9149   57.9684 C   0  0  0  0  0  0  0  0  0  0  0  0
  -33.4739   57.1313   63.6660 O   0  0  0  0  0  0  0  0  0  0  0  0
  -33.2847   57.8764   62.4595 C   0  0  0  0  0  0  0  0  0  0  0  0
  -34.2596   56.5691   63.5790 H   0  0  0  0  0  0  0  0  0  0  0  0
  -32.0775   58.7578   62.5578 C   0  0  0  0  0  0  0  0  0  0  0  0
  -31.9549   59.9413   61.9902 C   0  0  0  0  0  0  0  0  0  0  0  0
  -30.7424   60.8039   62.1194 C   0  0  0  0  0  0  0  0  0  0  0  0
  -30.7426   61.9147   61.0672 C   0  0  0  0  0  0  0  0  0  0  0  0
  -30.9340   63.3113   61.6357 C   0  0  0  0  0  0  0  0  0  0  0  0
  -31.0392   64.4042   60.5858 C   0  0  0  0  0  0  0  0  0  0  0  0
  -30.7403   65.7999   61.1135 C   0  0  0  0  0  0  0  0  0  0  0  0
  -31.9531   66.7175   61.1350 C   0  0  0  0  0  0  0  0  0  0  0  0
  -33.2794   65.9800   61.0789 C   0  0  0  0  0  0  0  0  0  0  0  0
  -34.0142   65.9274   62.4054 C   0  0  0  0  0  0  0  0  0  0  0  0
  -33.2498   66.5564   63.5577 C   0  0  0  0  0  0  0  0  0  0  0  0
  -33.0755   65.6175   64.7369 C   0  0  0  0  0  0  0  0  0  0  0  0
  -31.6314   65.3288   65.0996 C   0  0  0  0  0  0  0  0  0  0  0  0
  -31.3481   63.8449   65.2265 C   0  0  0  0  0  0  0  0  0  0  0  0
  -32.4896   62.9903   64.7153 C   0  0  0  0  0  0  0  0  0  0  0  0
  -34.6052   59.9701   62.9871 C   0  0  0  0  0  0  0  0  0  0  0  0
  -35.2675   59.6899   64.2255 O   0  0  0  0  0  0  0  0  0  0  0  0
  -38.0350   59.2748   64.3222 O   0  0  0  0  0  0  0  0  0  0  0  0
  -37.0990   61.3584   67.9698 O   0  0  0  0  0  0  0  0  0  0  0  0
  -35.4653   61.5282   65.6077 O   0  0  0  0  0  0  0  0  0  0  0  0
  -36.1235   60.7047   64.6630 C   0  0  0  0  0  0  0  0  0  0  0  0
  -37.3460   60.0512   65.2941 C   0  0  0  0  0  0  0  0  0  0  0  0
  -38.2685   61.1210   65.8648 C   0  0  0  0  0  0  0  0  0  0  0  0
  -37.5113   62.0544   66.7979 C   0  0  0  0  0  0  0  0  0  0  0  0
  -36.2830   62.6101   66.0814 C   0  0  0  0  0  0  0  0  0  0  0  0
  -37.4381   58.5979   63.9666 H   0  0  0  0  0  0  0  0  0  0  0  0
  -37.8781   61.0044   68.4265 H   0  0  0  0  0  0  0  0  0  0  0  0
  -36.1585   64.0578   68.0250 O   0  0  0  0  0  0  0  0  0  0  0  0
  -35.4091   63.4612   66.9727 C   0  0  0  0  0  0  0  0  0  0  0  0
  -35.5694   64.5956   68.5768 H   0  0  0  0  0  0  0  0  0  0  0  0
  -39.2705   60.3764   66.6269 O   0  0  0  0  0  0  0  0  0  0  0  0
  -41.6107   60.9493   66.6791 O   0  0  0  0  0  0  0  0  0  0  0  0
  -40.8550   58.7469   65.7338 O   0  0  0  0  0  0  0  0  0  0  0  0
  -40.4567   60.7971   64.6049 O   0  0  0  0  0  0  0  0  0  0  0  0
  -40.6965   60.1325   65.9704 S   0  0  0  0  0  0  0  0  0  0  0  0
  -41.7859   60.5587   67.5496 H   0  0  0  0  0  0  0  0  0  0  0  0
  -40.3428   61.7527   64.7260 H   0  0  0  0  0  0  0  0  0  0  0  0
  2  1  1  0  0  0
  2  4  1  0  0  0
  2  5  1  0  0  0
 47 48  1  0  0  0
 47  1  1  0  0  0
 48 52  1  0  0  0
  1 30  1  0  0  0
 29 30  1  0  0  0
 29 31  1  0  0  0
 30 32  1  0  0  0
  3  4  2  0  0  0
 32 33  2  0  0  0
 49 53  1  0  0  0
 49 57  1  0  0  0
 33 34  1  0  0  0
 62 54  1  0  0  0
 62 66  1  0  0  0
 34 35  1  0  0  0
 50 55  1  0  0  0
 50 58  1  0  0  0
 35 36  1  0  0  0
 51 52  1  0  0  0
 51 56  1  0  0  0
 36 37  1  0  0  0
 59 60  1  0  0  0
 59 61  1  0  0  0
 37 38  1  0  0  0
 63 66  1  0  0  0
 63 67  1  0  0  0
 38 39  1  0  0  0
 64 66  1  0  0  0
 39 40  1  0  0  0
 65 66  1  0  0  0
 65 68  1  0  0  0
 40 41  1  0  0  0
 41 42  1  0  0  0
 42 43  1  0  0  0
 43 44  1  0  0  0
 44 45  1  0  0  0
 45 46  1  0  0  0
  4  6  1  0  0  0
  6  7  1  0  0  0
  7  8  1  0  0  0
  8  9  1  0  0  0
  9 10  1  0  0  0
 10 11  1  0  0  0
 11 12  1  0  0  0
 12 13  1  0  0  0
 13 14  1  0  0  0
 14 15  1  0  0  0
 15 16  1  0  0  0
 16 17  1  0  0  0
 17 18  1  0  0  0
 18 19  1  0  0  0
 19 20  2  0  0  0
 20 21  1  0  0  0
 21 22  1  0  0  0
 22 23  1  0  0  0
 23 24  1  0  0  0
 24 25  1  0  0  0
 25 26  1  0  0  0
 26 27  1  0  0  0
 27 28  1  0  0  0
 52 53  1  0  0  0
 53 54  1  0  0  0
 54 55  1  0  0  0
 55 56  1  0  0  0
 56 60  1  0  0  0
M  CHG 1  64  -1
M  END
> <minimizedAffinity>
-7.70819

> <CNNscore>
0.1492511183

> <CNNaffinity>
7.0389618874

> <CNN_VS>
1.0505729914

> <CNNaffinity_variance>
0.7270560265

$$$$
/media/chris/experiments/cd1a-new-docking/inputs/ligands/7ryn_ligand.pdb


 68 68  0  0  0  0  0  0  0  0999 V2000
  -35.6904   58.7493   64.0704 C   0  0  0  0  0  0  0  0  0  0  0  0
  -36.8125   58.7821   65.0037 N   0  0  0  0  0  0  0  0  0  0  0  0
  -37.7835   60.6195   64.1382 O   0  0  0  0  0  0  0  0  0  0  0  0
  -37.7701   59.7126   64.9655 C   0  0  0  0  0  0  0  0  0  0  0  0
  -36.8661   58.0837   65.6956 H   0  0  0  0  0  0  0  0  0  0  0  0
  -38.8526   59.5779   66.0073 C   0  0  0  0  0  0  0  0  0  0  0  0
  -40.2499   59.5679   65.4007 C   0  0  0  0  0  0  0  0  0  0  0  0
  -41.3097   60.0840   66.3607 C   0  0  0  0  0  0  0  0  0  0  0  0
  -42.2000   58.9963   66.9383 C   0  0  0  0  0  0  0  0  0  0  0  0
  -43.6677   59.3866   67.0295 C   0  0  0  0  0  0  0  0  0  0  0  0
  -44.6307   58.2151   66.8849 C   0  0  0  0  0  0  0  0  0  0  0  0
  -46.0792   58.6309   66.6635 C   0  0  0  0  0  0  0  0  0  0  0  0
  -46.4539   58.8691   65.2030 C   0  0  0  0  0  0  0  0  0  0  0  0
  -47.9565   58.8210   64.9305 C   0  0  0  0  0  0  0  0  0  0  0  0
  -48.8243   58.6378   66.1754 C   0  0  0  0  0  0  0  0  0  0  0  0
  -50.3197   58.5546   65.8685 C   0  0  0  0  0  0  0  0  0  0  0  0
  -50.9788   59.8825   65.4962 C   0  0  0  0  0  0  0  0  0  0  0  0
  -51.1715   60.1083   63.9942 C   0  0  0  0  0  0  0  0  0  0  0  0
  -51.3652   58.8293   63.2322 C   0  0  0  0  0  0  0  0  0  0  0  0
  -50.6387   58.4149   62.2093 C   0  0  0  0  0  0  0  0  0  0  0  0
  -49.4727   59.1375   61.6056 C   0  0  0  0  0  0  0  0  0  0  0  0
  -49.2326   58.7950   60.1337 C   0  0  0  0  0  0  0  0  0  0  0  0
  -49.8523   57.4682   59.7154 C   0  0  0  0  0  0  0  0  0  0  0  0
  -48.9104   56.2812   59.8828 C   0  0  0  0  0  0  0  0  0  0  0  0
  -47.5711   56.4326   59.1706 C   0  0  0  0  0  0  0  0  0  0  0  0
  -47.5883   55.9559   57.7251 C   0  0  0  0  0  0  0  0  0  0  0  0
  -47.4494   57.0705   56.7005 C   0  0  0  0  0  0  0  0  0  0  0  0
  -46.8984   58.3512   57.2938 C   0  0  0  0  0  0  0  0  0  0  0  0
  -34.5072   57.2588   62.5827 O   0  0  0  0  0  0  0  0  0  0  0  0
  -35.7683   57.4680   63.2248 C   0  0  0  0  0  0  0  0  0  0  0  0
  -33.8068   57.2143   63.2524 H   0  0  0  0  0  0  0  0  0  0  0  0
  -36.8760   57.5421   62.2189 C   0  0  0  0  0  0  0  0  0  0  0  0
  -37.0036   58.4783   61.2996 C   0  0  0  0  0  0  0  0  0  0  0  0
  -38.1127   58.5162   60.3000 C   0  0  0  0  0  0  0  0  0  0  0  0
  -39.4661   58.2703   60.9700 C   0  0  0  0  0  0  0  0  0  0  0  0
  -40.5886   57.9342   60.0017 C   0  0  0  0  0  0  0  0  0  0  0  0
  -41.6681   58.9984   59.9029 C   0  0  0  0  0  0  0  0  0  0  0  0
  -41.2025   60.3910   60.3029 C   0  0  0  0  0  0  0  0  0  0  0  0
  -42.2384   61.1787   61.0903 C   0  0  0  0  0  0  0  0  0  0  0  0
  -42.1203   61.0112   62.5950 C   0  0  0  0  0  0  0  0  0  0  0  0
  -43.0813   59.9937   63.1810 C   0  0  0  0  0  0  0  0  0  0  0  0
  -42.6548   58.5512   62.9692 C   0  0  0  0  0  0  0  0  0  0  0  0
  -43.4272   57.5711   63.8326 C   0  0  0  0  0  0  0  0  0  0  0  0
  -42.5973   56.4213   64.3706 C   0  0  0  0  0  0  0  0  0  0  0  0
  -41.2522   56.3014   63.6816 C   0  0  0  0  0  0  0  0  0  0  0  0
  -41.2567   55.2662   62.5757 C   0  0  0  0  0  0  0  0  0  0  0  0
  -34.3822   58.8527   64.8270 C   0  0  0  0  0  0  0  0  0  0  0  0
  -33.5371   59.7828   64.1404 O   0  0  0  0  0  0  0  0  0  0  0  0
  -32.5296   61.8895   62.5952 O   0  0  0  0  0  0  0  0  0  0  0  0
  -36.3705   63.2613   63.9693 O   0  0  0  0  0  0  0  0  0  0  0  0
  -34.8400   61.2546   65.3507 O   0  0  0  0  0  0  0  0  0  0  0  0
  -33.6676   61.1061   64.5716 C   0  0  0  0  0  0  0  0  0  0  0  0
  -33.7363   61.9990   63.3395 C   0  0  0  0  0  0  0  0  0  0  0  0
  -33.9669   63.4450   63.7603 C   0  0  0  0  0  0  0  0  0  0  0  0
  -35.1735   63.5608   64.6801 C   0  0  0  0  0  0  0  0  0  0  0  0
  -35.0227   62.5898   65.8484 C   0  0  0  0  0  0  0  0  0  0  0  0
  -32.3939   60.9655   62.3333 H   0  0  0  0  0  0  0  0  0  0  0  0
  -36.4682   63.8773   63.2264 H   0  0  0  0  0  0  0  0  0  0  0  0
  -36.9153   63.8051   66.7594 O   0  0  0  0  0  0  0  0  0  0  0  0
  -36.2312   62.5574   66.7544 C   0  0  0  0  0  0  0  0  0  0  0  0
  -37.6835   63.7504   67.3489 H   0  0  0  0  0  0  0  0  0  0  0  0
  -34.2362   64.1550   62.5102 O   0  0  0  0  0  0  0  0  0  0  0  0
  -34.0653   66.1596   61.1837 O   0  0  0  0  0  0  0  0  0  0  0  0
  -33.4721   66.1886   63.6256 O   0  0  0  0  0  0  0  0  0  0  0  0
  -35.7182   65.9814   62.8848 O   0  0  0  0  0  0  0  0  0  0  0  0
  -34.2423   65.7436   62.5256 S   0  0  0  0  0  0  0  0  0  0  0  0
  -33.1412   66.0232   60.9221 H   0  0  0  0  0  0  0  0  0  0  0  0
  -36.2808   65.6875   62.1513 H   0  0  0  0  0  0  0  0  0  0  0  0
  2  1  1  0  0  0
  2  4  1  0  0  0
  2  5  1  0  0  0
 47 48  1  0  0  0
 47  1  1  0  0  0
 48 52  1  0  0  0
  1 30  1  0  0  0
 29 30  1  0  0  0
 29 31  1  0  0  0
 30 32  1  0  0  0
  3  4  2  0  0  0
 32 33  2  0  0  0
 49 53  1  0  0  0
 49 57  1  0  0  0
 33 34  1  0  0  0
 62 54  1  0  0  0
 62 66  1  0  0  0
 34 35  1  0  0  0
 50 55  1  0  0  0
 50 58  1  0  0  0
 35 36  1  0  0  0
 51 52  1  0  0  0
 51 56  1  0  0  0
 36 37  1  0  0  0
 59 60  1  0  0  0
 59 61  1  0  0  0
 37 38  1  0  0  0
 63 66  1  0  0  0
 63 67  1  0  0  0
 38 39  1  0  0  0
 64 66  1  0  0  0
 39 40  1  0  0  0
 65 66  1  0  0  0
 65 68  1  0  0  0
 40 41  1  0  0  0
 41 42  1  0  0  0
 42 43  1  0  0  0
 43 44  1  0  0  0
 44 45  1  0  0  0
 45 46  1  0  0  0
  4  6  1  0  0  0
  6  7  1  0  0  0
  7  8  1  0  0  0
  8  9  1  0  0  0
  9 10  1  0  0  0
 10 11  1  0  0  0
 11 12  1  0  0  0
 12 13  1  0  0  0
 13 14  1  0  0  0
 14 15  1  0  0  0
 15 16  1  0  0  0
 16 17  1  0  0  0
 17 18  1  0  0  0
 18 19  1  0  0  0
 19 20  2  0  0  0
 20 21  1  0  0  0
 21 22  1  0  0  0
 22 23  1  0  0  0
 23 24  1  0  0  0
 24 25  1  0  0  0
 25 26  1  0  0  0
 26 27  1  0  0  0
 27 28  1  0  0  0
 52 53  1  0  0  0
 53 54  1  0  0  0
 54 55  1  0  0  0
 55 56  1  0  0  0
 56 60  1  0  0  0
M  CHG 1  64  -1
M  END
> <minimizedAffinity>
-9.41485

> <CNNscore>
0.1436333209

> <CNNaffinity>
7.4031968117

> <CNN_VS>
1.0633457899

> <CNNaffinity_variance>
2.4680190086

$$$$
/media/chris/experiments/cd1a-new-docking/inputs/ligands/7ryn_ligand.pdb


 68 68  0  0  0  0  0  0  0  0999 V2000
  -36.4919   57.9487   63.0852 C   0  0  0  0  0  0  0  0  0  0  0  0
  -36.9947   58.9553   64.0153 N   0  0  0  0  0  0  0  0  0  0  0  0
  -38.2445   57.5390   65.2402 O   0  0  0  0  0  0  0  0  0  0  0  0
  -37.8302   58.6732   65.0186 C   0  0  0  0  0  0  0  0  0  0  0  0
  -36.7035   59.8883   63.8973 H   0  0  0  0  0  0  0  0  0  0  0  0
  -38.2346   59.8438   65.8796 C   0  0  0  0  0  0  0  0  0  0  0  0
  -39.6029   60.3994   65.5061 C   0  0  0  0  0  0  0  0  0  0  0  0
  -40.6940   59.9715   66.4744 C   0  0  0  0  0  0  0  0  0  0  0  0
  -41.8983   59.3331   65.8027 C   0  0  0  0  0  0  0  0  0  0  0  0
  -42.1082   57.8730   66.1750 C   0  0  0  0  0  0  0  0  0  0  0  0
  -43.5602   57.4176   66.1032 C   0  0  0  0  0  0  0  0  0  0  0  0
  -44.5647   58.4955   66.4894 C   0  0  0  0  0  0  0  0  0  0  0  0
  -45.9483   57.9685   66.8608 C   0  0  0  0  0  0  0  0  0  0  0  0
  -46.9413   57.9557   65.6998 C   0  0  0  0  0  0  0  0  0  0  0  0
  -46.9153   59.2090   64.8252 C   0  0  0  0  0  0  0  0  0  0  0  0
  -48.2231   60.0002   64.8558 C   0  0  0  0  0  0  0  0  0  0  0  0
  -49.1715   59.6389   65.9988 C   0  0  0  0  0  0  0  0  0  0  0  0
  -50.5555   59.1535   65.5595 C   0  0  0  0  0  0  0  0  0  0  0  0
  -51.1592   60.0088   64.4833 C   0  0  0  0  0  0  0  0  0  0  0  0
  -51.3650   59.6507   63.2282 C   0  0  0  0  0  0  0  0  0  0  0  0
  -51.0396   58.3170   62.6269 C   0  0  0  0  0  0  0  0  0  0  0  0
  -49.6349   58.2407   62.0248 C   0  0  0  0  0  0  0  0  0  0  0  0
  -49.5327   58.8893   60.6507 C   0  0  0  0  0  0  0  0  0  0  0  0
  -49.5902   57.8872   59.5031 C   0  0  0  0  0  0  0  0  0  0  0  0
  -48.8363   56.5877   59.7613 C   0  0  0  0  0  0  0  0  0  0  0  0
  -47.6403   56.3801   58.8430 C   0  0  0  0  0  0  0  0  0  0  0  0
  -47.8541   56.8744   57.4212 C   0  0  0  0  0  0  0  0  0  0  0  0
  -46.8930   57.9785   57.0303 C   0  0  0  0  0  0  0  0  0  0  0  0
  -34.7997   58.0252   64.8072 O   0  0  0  0  0  0  0  0  0  0  0  0
  -35.0563   57.5643   63.4775 C   0  0  0  0  0  0  0  0  0  0  0  0
  -35.4583   57.6497   65.4123 H   0  0  0  0  0  0  0  0  0  0  0  0
  -34.0562   58.1255   62.5135 C   0  0  0  0  0  0  0  0  0  0  0  0
  -33.2952   59.1782   62.7380 C   0  0  0  0  0  0  0  0  0  0  0  0
  -32.2955   59.7049   61.7613 C   0  0  0  0  0  0  0  0  0  0  0  0
  -31.1692   60.4539   62.4766 C   0  0  0  0  0  0  0  0  0  0  0  0
  -31.5772   61.8080   63.0339 C   0  0  0  0  0  0  0  0  0  0  0  0
  -31.0818   62.9927   62.2222 C   0  0  0  0  0  0  0  0  0  0  0  0
  -32.0785   63.4936   61.1871 C   0  0  0  0  0  0  0  0  0  0  0  0
  -33.4239   63.8892   61.7759 C   0  0  0  0  0  0  0  0  0  0  0  0
  -33.3854   65.1777   62.5786 C   0  0  0  0  0  0  0  0  0  0  0  0
  -34.0159   65.0680   63.9544 C   0  0  0  0  0  0  0  0  0  0  0  0
  -33.0304   65.2362   65.0982 C   0  0  0  0  0  0  0  0  0  0  0  0
  -32.5939   63.9155   65.7045 C   0  0  0  0  0  0  0  0  0  0  0  0
  -33.6687   62.8454   65.7150 C   0  0  0  0  0  0  0  0  0  0  0  0
  -34.6745   63.0410   66.8323 C   0  0  0  0  0  0  0  0  0  0  0  0
  -36.1060   62.9980   66.3388 C   0  0  0  0  0  0  0  0  0  0  0  0
  -36.5737   58.4674   61.6644 C   0  0  0  0  0  0  0  0  0  0  0  0
  -37.7952   57.9976   61.0829 O   0  0  0  0  0  0  0  0  0  0  0  0
  -39.1228   60.4344   61.4573 O   0  0  0  0  0  0  0  0  0  0  0  0
  -42.2586   57.5125   61.0677 O   0  0  0  0  0  0  0  0  0  0  0  0
  -39.6009   56.8475   61.9462 O   0  0  0  0  0  0  0  0  0  0  0  0
  -38.9046   58.0797   61.9293 C   0  0  0  0  0  0  0  0  0  0  0  0
  -39.8103   59.1904   61.4134 C   0  0  0  0  0  0  0  0  0  0  0  0
  -41.0777   59.2584   62.2561 C   0  0  0  0  0  0  0  0  0  0  0  0
  -41.7510   57.8965   62.3415 C   0  0  0  0  0  0  0  0  0  0  0  0
  -40.7421   56.8548   62.8187 C   0  0  0  0  0  0  0  0  0  0  0  0
  -38.3186   60.3787   60.9178 H   0  0  0  0  0  0  0  0  0  0  0  0
  -42.8999   58.1733   60.7626 H   0  0  0  0  0  0  0  0  0  0  0  0
  -41.9473   55.1496   64.0550 O   0  0  0  0  0  0  0  0  0  0  0  0
  -41.2967   55.4495   62.8256 C   0  0  0  0  0  0  0  0  0  0  0  0
  -42.2908   54.2430   64.0263 H   0  0  0  0  0  0  0  0  0  0  0  0
  -41.9486   60.1893   61.5389 O   0  0  0  0  0  0  0  0  0  0  0  0
  -43.5382   60.7425   63.2635 O   0  0  0  0  0  0  0  0  0  0  0  0
  -42.9830   62.3999   61.4580 O   0  0  0  0  0  0  0  0  0  0  0  0
  -41.4337   61.8468   63.1697 O   0  0  0  0  0  0  0  0  0  0  0  0
  -42.6442   61.3607   62.3560 S   0  0  0  0  0  0  0  0  0  0  0  0
  -44.3173   60.4222   62.7824 H   0  0  0  0  0  0  0  0  0  0  0  0
  -41.1703   61.1582   63.8001 H   0  0  0  0  0  0  0  0  0  0  0  0
  2  1  1  0  0  0
  2  4  1  0  0  0
  2  5  1  0  0  0
 47 48  1  0  0  0
 47  1  1  0  0  0
 48 52  1  0  0  0
  1 30  1  0  0  0
 29 30  1  0  0  0
 29 31  1  0  0  0
 30 32  1  0  0  0
  3  4  2  0  0  0
 32 33  2  0  0  0
 49 53  1  0  0  0
 49 57  1  0  0  0
 33 34  1  0  0  0
 62 54  1  0  0  0
 62 66  1  0  0  0
 34 35  1  0  0  0
 50 55  1  0  0  0
 50 58  1  0  0  0
 35 36  1  0  0  0
 51 52  1  0  0  0
 51 56  1  0  0  0
 36 37  1  0  0  0
 59 60  1  0  0  0
 59 61  1  0  0  0
 37 38  1  0  0  0
 63 66  1  0  0  0
 63 67  1  0  0  0
 38 39  1  0  0  0
 64 66  1  0  0  0
 39 40  1  0  0  0
 65 66  1  0  0  0
 65 68  1  0  0  0
 40 41  1  0  0  0
 41 42  1  0  0  0
 42 43  1  0  0  0
 43 44  1  0  0  0
 44 45  1  0  0  0
 45 46  1  0  0  0
  4  6  1  0  0  0
  6  7  1  0  0  0
  7  8  1  0  0  0
  8  9  1  0  0  0
  9 10  1  0  0  0
 10 11  1  0  0  0
 11 12  1  0  0  0
 12 13  1  0  0  0
 13 14  1  0  0  0
 14 15  1  0  0  0
 15 16  1  0  0  0
 16 17  1  0  0  0
 17 18  1  0  0  0
 18 19  1  0  0  0
 19 20  2  0  0  0
 20 21  1  0  0  0
 21 22  1  0  0  0
 22 23  1  0  0  0
 23 24  1  0  0  0
 24 25  1  0  0  0
 25 26  1  0  0  0
 26 27  1  0  0  0
 27 28  1  0  0  0
 52 53  1  0  0  0
 53 54  1  0  0  0
 54 55  1  0  0  0
 55 56  1  0  0  0
 56 60  1  0  0  0
M  CHG 1  64  -1
M  END
> <minimizedAffinity>
-9.16072

> <CNNscore>
0.1316724122

> <CNNaffinity>
7.0194015503

> <CNN_VS>
0.9242615104

> <CNNaffinity_variance>
2.1441607475

$$$$
/media/chris/experiments/cd1a-new-docking/inputs/ligands/7ryn_ligand.pdb


 68 68  0  0  0  0  0  0  0  0999 V2000
  -40.8910   59.6891   65.5524 C   0  0  0  0  0  0  0  0  0  0  0  0
  -41.4300   60.3010   64.3415 N   0  0  0  0  0  0  0  0  0  0  0  0
  -41.9697   62.2684   65.2934 O   0  0  0  0  0  0  0  0  0  0  0  0
  -41.9265   61.5405   64.3058 C   0  0  0  0  0  0  0  0  0  0  0  0
  -41.4273   59.7740   63.5099 H   0  0  0  0  0  0  0  0  0  0  0  0
  -42.4309   62.0028   62.9614 C   0  0  0  0  0  0  0  0  0  0  0  0
  -42.5289   60.8668   61.9514 C   0  0  0  0  0  0  0  0  0  0  0  0
  -41.5227   60.9995   60.8196 C   0  0  0  0  0  0  0  0  0  0  0  0
  -40.1969   60.3076   61.0895 C   0  0  0  0  0  0  0  0  0  0  0  0
  -39.5973   59.6286   59.8672 C   0  0  0  0  0  0  0  0  0  0  0  0
  -40.1104   58.2140   59.6298 C   0  0  0  0  0  0  0  0  0  0  0  0
  -41.6275   58.0905   59.6855 C   0  0  0  0  0  0  0  0  0  0  0  0
  -42.1561   57.3097   60.8860 C   0  0  0  0  0  0  0  0  0  0  0  0
  -41.1624   56.2998   61.4576 C   0  0  0  0  0  0  0  0  0  0  0  0
  -40.8381   56.4933   62.9388 C   0  0  0  0  0  0  0  0  0  0  0  0
  -39.6016   57.3584   63.1835 C   0  0  0  0  0  0  0  0  0  0  0  0
  -38.4226   57.0807   62.2513 C   0  0  0  0  0  0  0  0  0  0  0  0
  -37.0451   57.3908   62.8434 C   0  0  0  0  0  0  0  0  0  0  0  0
  -37.0305   57.3406   64.3439 C   0  0  0  0  0  0  0  0  0  0  0  0
  -35.9868   57.5725   65.1203 C   0  0  0  0  0  0  0  0  0  0  0  0
  -34.6078   57.9353   64.6591 C   0  0  0  0  0  0  0  0  0  0  0  0
  -34.1419   59.3119   65.1379 C   0  0  0  0  0  0  0  0  0  0  0  0
  -33.5508   60.1680   64.0257 C   0  0  0  0  0  0  0  0  0  0  0  0
  -32.3044   59.5601   63.3920 C   0  0  0  0  0  0  0  0  0  0  0  0
  -32.3152   59.5436   61.8677 C   0  0  0  0  0  0  0  0  0  0  0  0
  -33.2064   58.4625   61.2728 C   0  0  0  0  0  0  0  0  0  0  0  0
  -33.3866   57.2442   62.1644 C   0  0  0  0  0  0  0  0  0  0  0  0
  -32.2228   56.2773   62.0834 C   0  0  0  0  0  0  0  0  0  0  0  0
  -41.2218   59.8251   67.9413 O   0  0  0  0  0  0  0  0  0  0  0  0
  -41.9157   59.8229   66.6903 C   0  0  0  0  0  0  0  0  0  0  0  0
  -40.5701   60.5435   67.9482 H   0  0  0  0  0  0  0  0  0  0  0  0
  -42.9327   58.7239   66.6436 C   0  0  0  0  0  0  0  0  0  0  0  0
  -44.2096   58.8845   66.3583 C   0  0  0  0  0  0  0  0  0  0  0  0
  -45.1969   57.7650   66.3050 C   0  0  0  0  0  0  0  0  0  0  0  0
  -46.5471   58.2470   65.7704 C   0  0  0  0  0  0  0  0  0  0  0  0
  -47.4412   58.8852   66.8210 C   0  0  0  0  0  0  0  0  0  0  0  0
  -48.4815   59.8394   66.2598 C   0  0  0  0  0  0  0  0  0  0  0  0
  -48.3041   60.1478   64.7802 C   0  0  0  0  0  0  0  0  0  0  0  0
  -49.5339   59.8392   63.9401 C   0  0  0  0  0  0  0  0  0  0  0  0
  -49.3596   58.6478   63.0149 C   0  0  0  0  0  0  0  0  0  0  0  0
  -50.3863   58.5754   61.9000 C   0  0  0  0  0  0  0  0  0  0  0  0
  -49.7821   58.5710   60.5063 C   0  0  0  0  0  0  0  0  0  0  0  0
  -49.3637   57.1872   60.0453 C   0  0  0  0  0  0  0  0  0  0  0  0
  -48.0107   57.1371   59.3617 C   0  0  0  0  0  0  0  0  0  0  0  0
  -47.9300   58.0599   58.1616 C   0  0  0  0  0  0  0  0  0  0  0  0
  -46.8187   57.6745   57.2069 C   0  0  0  0  0  0  0  0  0  0  0  0
  -39.5615   60.3223   65.9070 C   0  0  0  0  0  0  0  0  0  0  0  0
  -38.7791   60.4262   64.7121 O   0  0  0  0  0  0  0  0  0  0  0  0
  -37.0789   60.8767   62.5332 O   0  0  0  0  0  0  0  0  0  0  0  0
  -36.5997   64.3372   65.0467 O   0  0  0  0  0  0  0  0  0  0  0  0
  -37.4766   61.7863   66.0472 O   0  0  0  0  0  0  0  0  0  0  0  0
  -37.4968   60.9477   64.9071 C   0  0  0  0  0  0  0  0  0  0  0  0
  -37.1154   61.7394   63.6630 C   0  0  0  0  0  0  0  0  0  0  0  0
  -35.7578   62.4002   63.8658 C   0  0  0  0  0  0  0  0  0  0  0  0
  -35.7322   63.2129   65.1521 C   0  0  0  0  0  0  0  0  0  0  0  0
  -36.1785   62.3376   66.3205 C   0  0  0  0  0  0  0  0  0  0  0  0
  -37.9479   60.4624   62.4145 H   0  0  0  0  0  0  0  0  0  0  0  0
  -36.3177   64.8947   64.3047 H   0  0  0  0  0  0  0  0  0  0  0  0
  -35.2131   64.0099   67.7902 O   0  0  0  0  0  0  0  0  0  0  0  0
  -36.2905   63.0957   67.6225 C   0  0  0  0  0  0  0  0  0  0  0  0
  -35.3151   64.4788   68.6331 H   0  0  0  0  0  0  0  0  0  0  0  0
  -35.6081   63.2962   62.7194 O   0  0  0  0  0  0  0  0  0  0  0  0
  -34.0388   64.0394   61.0484 O   0  0  0  0  0  0  0  0  0  0  0  0
  -33.2487   63.3863   63.3430 O   0  0  0  0  0  0  0  0  0  0  0  0
  -34.4806   65.3800   62.9629 O   0  0  0  0  0  0  0  0  0  0  0  0
  -34.1887   63.9587   62.4542 S   0  0  0  0  0  0  0  0  0  0  0  0
  -33.8528   63.1566   60.6919 H   0  0  0  0  0  0  0  0  0  0  0  0
  -35.1243   65.8074   62.3765 H   0  0  0  0  0  0  0  0  0  0  0  0
  2  1  1  0  0  0
  2  4  1  0  0  0
  2  5  1  0  0  0
 47 48  1  0  0  0
 47  1  1  0  0  0
 48 52  1  0  0  0
  1 30  1  0  0  0
 29 30  1  0  0  0
 29 31  1  0  0  0
 30 32  1  0  0  0
  3  4  2  0  0  0
 32 33  2  0  0  0
 49 53  1  0  0  0
 49 57  1  0  0  0
 33 34  1  0  0  0
 62 54  1  0  0  0
 62 66  1  0  0  0
 34 35  1  0  0  0
 50 55  1  0  0  0
 50 58  1  0  0  0
 35 36  1  0  0  0
 51 52  1  0  0  0
 51 56  1  0  0  0
 36 37  1  0  0  0
 59 60  1  0  0  0
 59 61  1  0  0  0
 37 38  1  0  0  0
 63 66  1  0  0  0
 63 67  1  0  0  0
 38 39  1  0  0  0
 64 66  1  0  0  0
 39 40  1  0  0  0
 65 66  1  0  0  0
 65 68  1  0  0  0
 40 41  1  0  0  0
 41 42  1  0  0  0
 42 43  1  0  0  0
 43 44  1  0  0  0
 44 45  1  0  0  0
 45 46  1  0  0  0
  4  6  1  0  0  0
  6  7  1  0  0  0
  7  8  1  0  0  0
  8  9  1  0  0  0
  9 10  1  0  0  0
 10 11  1  0  0  0
 11 12  1  0  0  0
 12 13  1  0  0  0
 13 14  1  0  0  0
 14 15  1  0  0  0
 15 16  1  0  0  0
 16 17  1  0  0  0
 17 18  1  0  0  0
 18 19  1  0  0  0
 19 20  2  0  0  0
 20 21  1  0  0  0
 21 22  1  0  0  0
 22 23  1  0  0  0
 23 24  1  0  0  0
 24 25  1  0  0  0
 25 26  1  0  0  0
 26 27  1  0  0  0
 27 28  1  0  0  0
 52 53  1  0  0  0
 53 54  1  0  0  0
 54 55  1  0  0  0
 55 56  1  0  0  0
 56 60  1  0  0  0
M  CHG 1  64  -1
M  END
> <minimizedAffinity>
-8.22930

> <CNNscore>
0.1309488416

> <CNNaffinity>
7.3910050392

> <CNN_VS>
0.9678435326

> <CNNaffinity_variance>
2.1800427437

$$$$
/media/chris/experiments/cd1a-new-docking/inputs/ligands/7ryn_ligand.pdb


 68 68  0  0  0  0  0  0  0  0999 V2000
  -35.6399   59.3395   63.6146 C   0  0  0  0  0  0  0  0  0  0  0  0
  -36.7842   59.3670   64.5207 N   0  0  0  0  0  0  0  0  0  0  0  0
  -37.2346   61.5576   64.2629 O   0  0  0  0  0  0  0  0  0  0  0  0
  -37.4914   60.4715   64.7741 C   0  0  0  0  0  0  0  0  0  0  0  0
  -37.0478   58.5300   64.9670 H   0  0  0  0  0  0  0  0  0  0  0  0
  -38.6441   60.3025   65.7323 C   0  0  0  0  0  0  0  0  0  0  0  0
  -39.4366   59.0274   65.4746 C   0  0  0  0  0  0  0  0  0  0  0  0
  -40.6715   58.9163   66.3542 C   0  0  0  0  0  0  0  0  0  0  0  0
  -41.3612   60.2444   66.6186 C   0  0  0  0  0  0  0  0  0  0  0  0
  -42.7238   60.1087   67.2816 C   0  0  0  0  0  0  0  0  0  0  0  0
  -43.4210   58.7838   66.9998 C   0  0  0  0  0  0  0  0  0  0  0  0
  -44.9394   58.8870   66.9366 C   0  0  0  0  0  0  0  0  0  0  0  0
  -45.6247   57.7223   66.2266 C   0  0  0  0  0  0  0  0  0  0  0  0
  -46.9653   57.3217   66.8402 C   0  0  0  0  0  0  0  0  0  0  0  0
  -48.1384   57.3159   65.8603 C   0  0  0  0  0  0  0  0  0  0  0  0
  -49.1478   58.4362   66.1122 C   0  0  0  0  0  0  0  0  0  0  0  0
  -48.6520   59.8421   65.7747 C   0  0  0  0  0  0  0  0  0  0  0  0
  -49.1742   60.4102   64.4523 C   0  0  0  0  0  0  0  0  0  0  0  0
  -50.6606   60.2628   64.3007 C   0  0  0  0  0  0  0  0  0  0  0  0
  -51.2810   59.4305   63.4833 C   0  0  0  0  0  0  0  0  0  0  0  0
  -50.6253   58.4635   62.5447 C   0  0  0  0  0  0  0  0  0  0  0  0
  -50.3137   59.0574   61.1693 C   0  0  0  0  0  0  0  0  0  0  0  0
  -50.3020   58.0202   60.0542 C   0  0  0  0  0  0  0  0  0  0  0  0
  -49.3673   56.8474   60.3288 C   0  0  0  0  0  0  0  0  0  0  0  0
  -48.0436   56.9052   59.5751 C   0  0  0  0  0  0  0  0  0  0  0  0
  -48.0280   57.9201   58.4407 C   0  0  0  0  0  0  0  0  0  0  0  0
  -46.9948   57.6330   57.3630 C   0  0  0  0  0  0  0  0  0  0  0  0
  -46.9600   56.1747   56.9533 C   0  0  0  0  0  0  0  0  0  0  0  0
  -34.4999   57.9757   61.9790 O   0  0  0  0  0  0  0  0  0  0  0  0
  -35.6875   58.0543   62.7726 C   0  0  0  0  0  0  0  0  0  0  0  0
  -33.7218   58.0067   62.5574 H   0  0  0  0  0  0  0  0  0  0  0  0
  -36.9119   58.0092   61.9107 C   0  0  0  0  0  0  0  0  0  0  0  0
  -37.1515   58.8104   60.8917 C   0  0  0  0  0  0  0  0  0  0  0  0
  -38.3766   58.7304   60.0411 C   0  0  0  0  0  0  0  0  0  0  0  0
  -39.3998   59.7925   60.4486 C   0  0  0  0  0  0  0  0  0  0  0  0
  -40.8471   59.3686   60.2587 C   0  0  0  0  0  0  0  0  0  0  0  0
  -41.0189   57.9779   59.6720 C   0  0  0  0  0  0  0  0  0  0  0  0
  -41.5934   56.9614   60.6479 C   0  0  0  0  0  0  0  0  0  0  0  0
  -40.8311   56.8769   61.9613 C   0  0  0  0  0  0  0  0  0  0  0  0
  -41.6366   56.2738   63.0986 C   0  0  0  0  0  0  0  0  0  0  0  0
  -42.3567   57.2972   63.9568 C   0  0  0  0  0  0  0  0  0  0  0  0
  -43.4359   58.0698   63.2180 C   0  0  0  0  0  0  0  0  0  0  0  0
  -43.3442   59.5692   63.4321 C   0  0  0  0  0  0  0  0  0  0  0  0
  -41.9517   60.1433   63.2546 C   0  0  0  0  0  0  0  0  0  0  0  0
  -41.9617   61.6469   63.0614 C   0  0  0  0  0  0  0  0  0  0  0  0
  -43.0342   62.1005   62.0926 C   0  0  0  0  0  0  0  0  0  0  0  0
  -34.3511   59.4563   64.4017 C   0  0  0  0  0  0  0  0  0  0  0  0
  -33.4096   60.1971   63.6171 O   0  0  0  0  0  0  0  0  0  0  0  0
  -32.2629   62.1196   61.9347 O   0  0  0  0  0  0  0  0  0  0  0  0
  -35.3988   64.2019   64.0211 O   0  0  0  0  0  0  0  0  0  0  0  0
  -34.1193   61.8470   65.0674 O   0  0  0  0  0  0  0  0  0  0  0  0
  -33.1681   61.4937   64.0804 C   0  0  0  0  0  0  0  0  0  0  0  0
  -33.2617   62.4438   62.8935 C   0  0  0  0  0  0  0  0  0  0  0  0
  -33.0913   63.8819   63.3667 C   0  0  0  0  0  0  0  0  0  0  0  0
  -34.0570   64.2031   64.4980 C   0  0  0  0  0  0  0  0  0  0  0  0
  -33.9132   63.1627   65.6059 C   0  0  0  0  0  0  0  0  0  0  0  0
  -32.3818   61.2026   61.6414 H   0  0  0  0  0  0  0  0  0  0  0  0
  -35.4922   64.8624   63.3169 H   0  0  0  0  0  0  0  0  0  0  0  0
  -34.2811   63.3685   67.9957 O   0  0  0  0  0  0  0  0  0  0  0  0
  -34.9155   63.3405   66.7223 C   0  0  0  0  0  0  0  0  0  0  0  0
  -34.9507   63.4835   68.6880 H   0  0  0  0  0  0  0  0  0  0  0  0
  -33.4205   64.6969   62.1977 O   0  0  0  0  0  0  0  0  0  0  0  0
  -31.8759   64.7969   60.3507 O   0  0  0  0  0  0  0  0  0  0  0  0
  -31.3766   65.9984   62.5007 O   0  0  0  0  0  0  0  0  0  0  0  0
  -33.0777   66.7378   61.0188 O   0  0  0  0  0  0  0  0  0  0  0  0
  -32.2599   65.5283   61.5008 S   0  0  0  0  0  0  0  0  0  0  0  0
  -31.3559   64.0230   60.6183 H   0  0  0  0  0  0  0  0  0  0  0  0
  -33.6981   66.4544   60.3290 H   0  0  0  0  0  0  0  0  0  0  0  0
  2  1  1  0  0  0
  2  4  1  0  0  0
  2  5  1  0  0  0
 47 48  1  0  0  0
 47  1  1  0  0  0
 48 52  1  0  0  0
  1 30  1  0  0  0
 29 30  1  0  0  0
 29 31  1  0  0  0
 30 32  1  0  0  0
  3  4  2  0  0  0
 32 33  2  0  0  0
 49 53  1  0  0  0
 49 57  1  0  0  0
 33 34  1  0  0  0
 62 54  1  0  0  0
 62 66  1  0  0  0
 34 35  1  0  0  0
 50 55  1  0  0  0
 50 58  1  0  0  0
 35 36  1  0  0  0
 51 52  1  0  0  0
 51 56  1  0  0  0
 36 37  1  0  0  0
 59 60  1  0  0  0
 59 61  1  0  0  0
 37 38  1  0  0  0
 63 66  1  0  0  0
 63 67  1  0  0  0
 38 39  1  0  0  0
 64 66  1  0  0  0
 39 40  1  0  0  0
 65 66  1  0  0  0
 65 68  1  0  0  0
 40 41  1  0  0  0
 41 42  1  0  0  0
 42 43  1  0  0  0
 43 44  1  0  0  0
 44 45  1  0  0  0
 45 46  1  0  0  0
  4  6  1  0  0  0
  6  7  1  0  0  0
  7  8  1  0  0  0
  8  9  1  0  0  0
  9 10  1  0  0  0
 10 11  1  0  0  0
 11 12  1  0  0  0
 12 13  1  0  0  0
 13 14  1  0  0  0
 14 15  1  0  0  0
 15 16  1  0  0  0
 16 17  1  0  0  0
 17 18  1  0  0  0
 18 19  1  0  0  0
 19 20  2  0  0  0
 20 21  1  0  0  0
 21 22  1  0  0  0
 22 23  1  0  0  0
 23 24  1  0  0  0
 24 25  1  0  0  0
 25 26  1  0  0  0
 26 27  1  0  0  0
 27 28  1  0  0  0
 52 53  1  0  0  0
 53 54  1  0  0  0
 54 55  1  0  0  0
 55 56  1  0  0  0
 56 60  1  0  0  0
M  CHG 1  64  -1
M  END
> <minimizedAffinity>
-9.54993

> <CNNscore>
0.1265040785

> <CNNaffinity>
7.3855147362

> <CNN_VS>
0.9342977405

> <CNNaffinity_variance>
1.8710931540

$$$$
/media/chris/experiments/cd1a-new-docking/inputs/ligands/7ryn_ligand.pdb


 68 68  0  0  0  0  0  0  0  0999 V2000
  -40.9771   60.1112   65.4945 C   0  0  0  0  0  0  0  0  0  0  0  0
  -41.5487   61.0167   64.5022 N   0  0  0  0  0  0  0  0  0  0  0  0
  -41.9222   62.7196   65.9264 O   0  0  0  0  0  0  0  0  0  0  0  0
  -41.9761   62.2480   64.7943 C   0  0  0  0  0  0  0  0  0  0  0  0
  -41.6229   60.7042   63.5715 H   0  0  0  0  0  0  0  0  0  0  0  0
  -42.5292   63.0388   63.6349 C   0  0  0  0  0  0  0  0  0  0  0  0
  -43.1748   62.1525   62.5776 C   0  0  0  0  0  0  0  0  0  0  0  0
  -42.1735   61.2435   61.8830 C   0  0  0  0  0  0  0  0  0  0  0  0
  -42.1799   61.3635   60.3682 C   0  0  0  0  0  0  0  0  0  0  0  0
  -41.0223   60.6465   59.6894 C   0  0  0  0  0  0  0  0  0  0  0  0
  -39.7944   60.4757   60.5748 C   0  0  0  0  0  0  0  0  0  0  0  0
  -38.6739   59.6724   59.9273 C   0  0  0  0  0  0  0  0  0  0  0  0
  -38.4843   58.2713   60.5029 C   0  0  0  0  0  0  0  0  0  0  0  0
  -39.7110   57.7278   61.2337 C   0  0  0  0  0  0  0  0  0  0  0  0
  -40.8798   57.3509   60.3235 C   0  0  0  0  0  0  0  0  0  0  0  0
  -42.1754   57.0650   61.0830 C   0  0  0  0  0  0  0  0  0  0  0  0
  -42.5018   58.0544   62.2014 C   0  0  0  0  0  0  0  0  0  0  0  0
  -42.9321   57.4141   63.5239 C   0  0  0  0  0  0  0  0  0  0  0  0
  -42.1364   56.1872   63.8640 C   0  0  0  0  0  0  0  0  0  0  0  0
  -40.9293   56.1664   64.4010 C   0  0  0  0  0  0  0  0  0  0  0  0
  -40.1125   57.3640   64.7814 C   0  0  0  0  0  0  0  0  0  0  0  0
  -38.7191   57.3835   64.1494 C   0  0  0  0  0  0  0  0  0  0  0  0
  -37.6005   57.5807   65.1638 C   0  0  0  0  0  0  0  0  0  0  0  0
  -36.2086   57.3721   64.5776 C   0  0  0  0  0  0  0  0  0  0  0  0
  -36.1745   57.2561   63.0580 C   0  0  0  0  0  0  0  0  0  0  0  0
  -34.9167   57.8364   62.4271 C   0  0  0  0  0  0  0  0  0  0  0  0
  -33.9739   58.5017   63.4172 C   0  0  0  0  0  0  0  0  0  0  0  0
  -32.5198   58.4047   63.0027 C   0  0  0  0  0  0  0  0  0  0  0  0
  -41.3496   59.1434   67.6761 O   0  0  0  0  0  0  0  0  0  0  0  0
  -41.9551   59.9615   66.6708 C   0  0  0  0  0  0  0  0  0  0  0  0
  -40.5059   59.5370   67.9483 H   0  0  0  0  0  0  0  0  0  0  0  0
  -43.2632   59.3831   66.2254 C   0  0  0  0  0  0  0  0  0  0  0  0
  -44.0275   58.5903   66.9501 C   0  0  0  0  0  0  0  0  0  0  0  0
  -45.3354   58.0412   66.4827 C   0  0  0  0  0  0  0  0  0  0  0  0
  -46.5055   58.7360   67.1821 C   0  0  0  0  0  0  0  0  0  0  0  0
  -47.7668   58.8322   66.3392 C   0  0  0  0  0  0  0  0  0  0  0  0
  -47.5279   59.2730   64.9052 C   0  0  0  0  0  0  0  0  0  0  0  0
  -48.2346   60.5675   64.5300 C   0  0  0  0  0  0  0  0  0  0  0  0
  -49.2016   60.4200   63.3653 C   0  0  0  0  0  0  0  0  0  0  0  0
  -50.5515   59.8471   63.7596 C   0  0  0  0  0  0  0  0  0  0  0  0
  -50.9929   58.6668   62.9145 C   0  0  0  0  0  0  0  0  0  0  0  0
  -49.8536   57.9636   62.1966 C   0  0  0  0  0  0  0  0  0  0  0  0
  -50.2671   57.3761   60.8601 C   0  0  0  0  0  0  0  0  0  0  0  0
  -49.8708   58.2126   59.6586 C   0  0  0  0  0  0  0  0  0  0  0  0
  -48.5061   57.8396   59.1137 C   0  0  0  0  0  0  0  0  0  0  0  0
  -48.1896   56.3697   59.2976 C   0  0  0  0  0  0  0  0  0  0  0  0
  -39.6224   60.6197   65.9424 C   0  0  0  0  0  0  0  0  0  0  0  0
  -38.7925   60.7700   64.7850 O   0  0  0  0  0  0  0  0  0  0  0  0
  -36.8245   60.6470   62.7968 O   0  0  0  0  0  0  0  0  0  0  0  0
  -36.0980   64.3608   64.8469 O   0  0  0  0  0  0  0  0  0  0  0  0
  -37.4483   62.1354   66.0724 O   0  0  0  0  0  0  0  0  0  0  0  0
  -37.4742   61.1403   65.0661 C   0  0  0  0  0  0  0  0  0  0  0  0
  -36.8496   61.6716   63.7825 C   0  0  0  0  0  0  0  0  0  0  0  0
  -35.4371   62.1696   64.0616 C   0  0  0  0  0  0  0  0  0  0  0  0
  -35.4251   63.1612   65.2156 C   0  0  0  0  0  0  0  0  0  0  0  0
  -36.1181   62.5450   66.4283 C   0  0  0  0  0  0  0  0  0  0  0  0
  -37.7285   60.3385   62.6280 H   0  0  0  0  0  0  0  0  0  0  0  0
  -35.6591   64.7539   64.0764 H   0  0  0  0  0  0  0  0  0  0  0  0
  -36.5192   62.8186   68.8060 O   0  0  0  0  0  0  0  0  0  0  0  0
  -36.2512   63.5040   67.5881 C   0  0  0  0  0  0  0  0  0  0  0  0
  -36.5985   63.4613   69.5280 H   0  0  0  0  0  0  0  0  0  0  0  0
  -35.0349   62.8489   62.8302 O   0  0  0  0  0  0  0  0  0  0  0  0
  -32.7541   62.0707   62.8229 O   0  0  0  0  0  0  0  0  0  0  0  0
  -33.2830   64.4735   63.3349 O   0  0  0  0  0  0  0  0  0  0  0  0
  -33.5149   63.5787   61.1481 O   0  0  0  0  0  0  0  0  0  0  0  0
  -33.5097   63.2560   62.6514 S   0  0  0  0  0  0  0  0  0  0  0  0
  -32.7296   61.8362   63.7638 H   0  0  0  0  0  0  0  0  0  0  0  0
  -33.6682   62.7647   60.6433 H   0  0  0  0  0  0  0  0  0  0  0  0
  2  1  1  0  0  0
  2  4  1  0  0  0
  2  5  1  0  0  0
 47 48  1  0  0  0
 47  1  1  0  0  0
 48 52  1  0  0  0
  1 30  1  0  0  0
 29 30  1  0  0  0
 29 31  1  0  0  0
 30 32  1  0  0  0
  3  4  2  0  0  0
 32 33  2  0  0  0
 49 53  1  0  0  0
 49 57  1  0  0  0
 33 34  1  0  0  0
 62 54  1  0  0  0
 62 66  1  0  0  0
 34 35  1  0  0  0
 50 55  1  0  0  0
 50 58  1  0  0  0
 35 36  1  0  0  0
 51 52  1  0  0  0
 51 56  1  0  0  0
 36 37  1  0  0  0
 59 60  1  0  0  0
 59 61  1  0  0  0
 37 38  1  0  0  0
 63 66  1  0  0  0
 63 67  1  0  0  0
 38 39  1  0  0  0
 64 66  1  0  0  0
 39 40  1  0  0  0
 65 66  1  0  0  0
 65 68  1  0  0  0
 40 41  1  0  0  0
 41 42  1  0  0  0
 42 43  1  0  0  0
 43 44  1  0  0  0
 44 45  1  0  0  0
 45 46  1  0  0  0
  4  6  1  0  0  0
  6  7  1  0  0  0
  7  8  1  0  0  0
  8  9  1  0  0  0
  9 10  1  0  0  0
 10 11  1  0  0  0
 11 12  1  0  0  0
 12 13  1  0  0  0
 13 14  1  0  0  0
 14 15  1  0  0  0
 15 16  1  0  0  0
 16 17  1  0  0  0
 17 18  1  0  0  0
 18 19  1  0  0  0
 19 20  2  0  0  0
 20 21  1  0  0  0
 21 22  1  0  0  0
 22 23  1  0  0  0
 23 24  1  0  0  0
 24 25  1  0  0  0
 25 26  1  0  0  0
 26 27  1  0  0  0
 27 28  1  0  0  0
 52 53  1  0  0  0
 53 54  1  0  0  0
 54 55  1  0  0  0
 55 56  1  0  0  0
 56 60  1  0  0  0
M  CHG 1  64  -1
M  END
> <minimizedAffinity>
-8.17472

> <CNNscore>
0.1225713417

> <CNNaffinity>
7.4251985550

> <CNN_VS>
0.9101165533

> <CNNaffinity_variance>
2.5063943863

$$$$
/media/chris/experiments/cd1a-new-docking/inputs/ligands/7ryn_ligand.pdb


 68 68  0  0  0  0  0  0  0  0999 V2000
  -41.0391   59.7536   65.6138 C   0  0  0  0  0  0  0  0  0  0  0  0
  -41.5491   60.4408   64.4310 N   0  0  0  0  0  0  0  0  0  0  0  0
  -41.9436   62.4069   65.4542 O   0  0  0  0  0  0  0  0  0  0  0  0
  -41.9610   61.7114   64.4427 C   0  0  0  0  0  0  0  0  0  0  0  0
  -41.5916   59.9430   63.5827 H   0  0  0  0  0  0  0  0  0  0  0  0
  -42.4482   62.2515   63.1213 C   0  0  0  0  0  0  0  0  0  0  0  0
  -42.9023   61.1508   62.1713 C   0  0  0  0  0  0  0  0  0  0  0  0
  -41.7704   60.2192   61.7689 C   0  0  0  0  0  0  0  0  0  0  0  0
  -41.5916   60.0801   60.2662 C   0  0  0  0  0  0  0  0  0  0  0  0
  -40.4251   59.1894   59.8654 C   0  0  0  0  0  0  0  0  0  0  0  0
  -39.0587   59.7564   60.2292 C   0  0  0  0  0  0  0  0  0  0  0  0
  -37.8895   58.9410   59.6925 C   0  0  0  0  0  0  0  0  0  0  0  0
  -37.1379   58.1381   60.7511 C   0  0  0  0  0  0  0  0  0  0  0  0
  -35.8617   58.8117   61.2528 C   0  0  0  0  0  0  0  0  0  0  0  0
  -34.7042   57.8539   61.5347 C   0  0  0  0  0  0  0  0  0  0  0  0
  -33.4354   58.5574   62.0170 C   0  0  0  0  0  0  0  0  0  0  0  0
  -32.6080   57.7734   63.0353 C   0  0  0  0  0  0  0  0  0  0  0  0
  -32.8493   58.1597   64.4971 C   0  0  0  0  0  0  0  0  0  0  0  0
  -33.9940   59.1163   64.6663 C   0  0  0  0  0  0  0  0  0  0  0  0
  -35.2666   58.7901   64.8077 C   0  0  0  0  0  0  0  0  0  0  0  0
  -35.8231   57.3988   64.8304 C   0  0  0  0  0  0  0  0  0  0  0  0
  -37.3492   57.3489   64.9304 C   0  0  0  0  0  0  0  0  0  0  0  0
  -38.0514   57.8327   63.6686 C   0  0  0  0  0  0  0  0  0  0  0  0
  -39.5384   57.4975   63.6377 C   0  0  0  0  0  0  0  0  0  0  0  0
  -39.9909   56.7485   62.3894 C   0  0  0  0  0  0  0  0  0  0  0  0
  -41.4086   56.2023   62.4825 C   0  0  0  0  0  0  0  0  0  0  0  0
  -42.2846   56.9154   63.5003 C   0  0  0  0  0  0  0  0  0  0  0  0
  -42.6635   56.0333   64.6726 C   0  0  0  0  0  0  0  0  0  0  0  0
  -41.3946   59.7022   68.0025 O   0  0  0  0  0  0  0  0  0  0  0  0
  -42.0677   59.8646   66.7507 C   0  0  0  0  0  0  0  0  0  0  0  0
  -40.6902   60.3647   68.0792 H   0  0  0  0  0  0  0  0  0  0  0  0
  -43.1646   58.8559   66.5973 C   0  0  0  0  0  0  0  0  0  0  0  0
  -44.4535   59.1186   66.6840 C   0  0  0  0  0  0  0  0  0  0  0  0
  -45.5247   58.0924   66.5111 C   0  0  0  0  0  0  0  0  0  0  0  0
  -46.9029   58.7483   66.4028 C   0  0  0  0  0  0  0  0  0  0  0  0
  -47.5329   58.6501   65.0230 C   0  0  0  0  0  0  0  0  0  0  0  0
  -47.9750   59.9823   64.4419 C   0  0  0  0  0  0  0  0  0  0  0  0
  -49.4760   60.0911   64.2161 C   0  0  0  0  0  0  0  0  0  0  0  0
  -50.1352   58.7716   63.8450 C   0  0  0  0  0  0  0  0  0  0  0  0
  -50.6182   58.7122   62.4065 C   0  0  0  0  0  0  0  0  0  0  0  0
  -49.5012   58.6487   61.3815 C   0  0  0  0  0  0  0  0  0  0  0  0
  -49.8344   57.8105   60.1592 C   0  0  0  0  0  0  0  0  0  0  0  0
  -48.9841   56.5587   60.0484 C   0  0  0  0  0  0  0  0  0  0  0  0
  -48.3259   56.3663   58.6956 C   0  0  0  0  0  0  0  0  0  0  0  0
  -47.3386   57.4686   58.3662 C   0  0  0  0  0  0  0  0  0  0  0  0
  -47.3112   57.8008   56.8885 C   0  0  0  0  0  0  0  0  0  0  0  0
  -39.6929   60.3258   66.0070 C   0  0  0  0  0  0  0  0  0  0  0  0
  -39.0603   60.8392   64.8293 O   0  0  0  0  0  0  0  0  0  0  0  0
  -37.3754   61.0334   62.6012 O   0  0  0  0  0  0  0  0  0  0  0  0
  -36.2503   64.3279   65.1316 O   0  0  0  0  0  0  0  0  0  0  0  0
  -37.5096   61.9436   66.1349 O   0  0  0  0  0  0  0  0  0  0  0  0
  -37.7037   61.1372   64.9879 C   0  0  0  0  0  0  0  0  0  0  0  0
  -37.2335   61.8731   63.7399 C   0  0  0  0  0  0  0  0  0  0  0  0
  -35.7792   62.2958   63.9053 C   0  0  0  0  0  0  0  0  0  0  0  0
  -35.5796   63.0735   65.1979 C   0  0  0  0  0  0  0  0  0  0  0  0
  -36.1301   62.2672   66.3716 C   0  0  0  0  0  0  0  0  0  0  0  0
  -38.3045   60.7711   62.5066 H   0  0  0  0  0  0  0  0  0  0  0  0
  -35.9019   64.8418   64.3863 H   0  0  0  0  0  0  0  0  0  0  0  0
  -34.8513   63.7254   67.8300 O   0  0  0  0  0  0  0  0  0  0  0  0
  -36.0748   63.0138   67.6838 C   0  0  0  0  0  0  0  0  0  0  0  0
  -34.8483   64.1922   68.6802 H   0  0  0  0  0  0  0  0  0  0  0  0
  -35.5169   63.1715   62.7635 O   0  0  0  0  0  0  0  0  0  0  0  0
  -33.2874   62.3407   62.3809 O   0  0  0  0  0  0  0  0  0  0  0  0
  -33.6533   64.6871   63.2030 O   0  0  0  0  0  0  0  0  0  0  0  0
  -34.1932   64.0392   60.9837 O   0  0  0  0  0  0  0  0  0  0  0  0
  -34.0116   63.5564   62.4321 S   0  0  0  0  0  0  0  0  0  0  0  0
  -33.1539   62.0056   63.2814 H   0  0  0  0  0  0  0  0  0  0  0  0
  -34.4405   63.2885   60.4214 H   0  0  0  0  0  0  0  0  0  0  0  0
  2  1  1  0  0  0
  2  4  1  0  0  0
  2  5  1  0  0  0
 47 48  1  0  0  0
 47  1  1  0  0  0
 48 52  1  0  0  0
  1 30  1  0  0  0
 29 30  1  0  0  0
 29 31  1  0  0  0
 30 32  1  0  0  0
  3  4  2  0  0  0
 32 33  2  0  0  0
 49 53  1  0  0  0
 49 57  1  0  0  0
 33 34  1  0  0  0
 62 54  1  0  0  0
 62 66  1  0  0  0
 34 35  1  0  0  0
 50 55  1  0  0  0
 50 58  1  0  0  0
 35 36  1  0  0  0
 51 52  1  0  0  0
 51 56  1  0  0  0
 36 37  1  0  0  0
 59 60  1  0  0  0
 59 61  1  0  0  0
 37 38  1  0  0  0
 63 66  1  0  0  0
 63 67  1  0  0  0
 38 39  1  0  0  0
 64 66  1  0  0  0
 39 40  1  0  0  0
 65 66  1  0  0  0
 65 68  1  0  0  0
 40 41  1  0  0  0
 41 42  1  0  0  0
 42 43  1  0  0  0
 43 44  1  0  0  0
 44 45  1  0  0  0
 45 46  1  0  0  0
  4  6  1  0  0  0
  6  7  1  0  0  0
  7  8  1  0  0  0
  8  9  1  0  0  0
  9 10  1  0  0  0
 10 11  1  0  0  0
 11 12  1  0  0  0
 12 13  1  0  0  0
 13 14  1  0  0  0
 14 15  1  0  0  0
 15 16  1  0  0  0
 16 17  1  0  0  0
 17 18  1  0  0  0
 18 19  1  0  0  0
 19 20  2  0  0  0
 20 21  1  0  0  0
 21 22  1  0  0  0
 22 23  1  0  0  0
 23 24  1  0  0  0
 24 25  1  0  0  0
 25 26  1  0  0  0
 26 27  1  0  0  0
 27 28  1  0  0  0
 52 53  1  0  0  0
 53 54  1  0  0  0
 54 55  1  0  0  0
 55 56  1  0  0  0
 56 60  1  0  0  0
M  CHG 1  64  -1
M  END
> <minimizedAffinity>
-7.91735

> <CNNscore>
0.1164160073

> <CNNaffinity>
7.5529923439

> <CNN_VS>
0.8792892098

> <CNNaffinity_variance>
1.9779489040

$$$$
/media/chris/experiments/cd1a-new-docking/inputs/ligands/7ryn_ligand.pdb


 68 68  0  0  0  0  0  0  0  0999 V2000
  -39.5597   60.6228   65.4647 C   0  0  0  0  0  0  0  0  0  0  0  0
  -40.6265   60.0941   66.3095 N   0  0  0  0  0  0  0  0  0  0  0  0
  -41.6759   62.0613   66.6205 O   0  0  0  0  0  0  0  0  0  0  0  0
  -41.5999   60.8526   66.8209 C   0  0  0  0  0  0  0  0  0  0  0  0
  -40.6286   59.1307   66.5124 H   0  0  0  0  0  0  0  0  0  0  0  0
  -42.6181   60.1263   67.6641 C   0  0  0  0  0  0  0  0  0  0  0  0
  -43.4901   59.1834   66.8450 C   0  0  0  0  0  0  0  0  0  0  0  0
  -43.1377   57.7207   67.0628 C   0  0  0  0  0  0  0  0  0  0  0  0
  -42.0936   57.1878   66.0957 C   0  0  0  0  0  0  0  0  0  0  0  0
  -42.6474   56.2104   65.0698 C   0  0  0  0  0  0  0  0  0  0  0  0
  -41.5962   55.6419   64.1250 C   0  0  0  0  0  0  0  0  0  0  0  0
  -40.5267   56.6463   63.7157 C   0  0  0  0  0  0  0  0  0  0  0  0
  -40.2999   56.7522   62.2098 C   0  0  0  0  0  0  0  0  0  0  0  0
  -41.4953   56.3087   61.3681 C   0  0  0  0  0  0  0  0  0  0  0  0
  -42.2208   57.4428   60.6443 C   0  0  0  0  0  0  0  0  0  0  0  0
  -41.3277   58.2155   59.6735 C   0  0  0  0  0  0  0  0  0  0  0  0
  -41.1265   59.6919   60.0143 C   0  0  0  0  0  0  0  0  0  0  0  0
  -39.6795   60.0937   60.3125 C   0  0  0  0  0  0  0  0  0  0  0  0
  -38.6763   59.1736   59.6792 C   0  0  0  0  0  0  0  0  0  0  0  0
  -37.6915   58.5493   60.3008 C   0  0  0  0  0  0  0  0  0  0  0  0
  -37.3795   58.6320   61.7643 C   0  0  0  0  0  0  0  0  0  0  0  0
  -36.9192   57.3046   62.3705 C   0  0  0  0  0  0  0  0  0  0  0  0
  -36.3952   57.4422   63.7938 C   0  0  0  0  0  0  0  0  0  0  0  0
  -34.8732   57.4740   63.8776 C   0  0  0  0  0  0  0  0  0  0  0  0
  -34.1628   57.2330   62.5506 C   0  0  0  0  0  0  0  0  0  0  0  0
  -32.6755   57.5555   62.5843 C   0  0  0  0  0  0  0  0  0  0  0  0
  -32.3503   58.9360   63.1319 C   0  0  0  0  0  0  0  0  0  0  0  0
  -32.0015   59.9337   62.0462 C   0  0  0  0  0  0  0  0  0  0  0  0
  -39.0651   61.1429   63.1583 O   0  0  0  0  0  0  0  0  0  0  0  0
  -39.8709   60.3061   63.9931 C   0  0  0  0  0  0  0  0  0  0  0  0
  -38.1287   61.0077   63.3725 H   0  0  0  0  0  0  0  0  0  0  0  0
  -41.3264   60.4888   63.6895 C   0  0  0  0  0  0  0  0  0  0  0  0
  -42.1953   59.5108   63.5265 C   0  0  0  0  0  0  0  0  0  0  0  0
  -43.6450   59.7259   63.2390 C   0  0  0  0  0  0  0  0  0  0  0  0
  -44.4823   58.5359   63.7122 C   0  0  0  0  0  0  0  0  0  0  0  0
  -45.9070   58.8930   64.1039 C   0  0  0  0  0  0  0  0  0  0  0  0
  -46.4295   58.1395   65.3150 C   0  0  0  0  0  0  0  0  0  0  0  0
  -47.8735   58.4635   65.6697 C   0  0  0  0  0  0  0  0  0  0  0  0
  -48.8342   58.3335   64.4978 C   0  0  0  0  0  0  0  0  0  0  0  0
  -49.4087   59.6583   64.0278 C   0  0  0  0  0  0  0  0  0  0  0  0
  -50.0304   59.6065   62.6445 C   0  0  0  0  0  0  0  0  0  0  0  0
  -50.9582   58.4228   62.4307 C   0  0  0  0  0  0  0  0  0  0  0  0
  -50.7283   57.7206   61.1053 C   0  0  0  0  0  0  0  0  0  0  0  0
  -49.7535   58.4271   60.1830 C   0  0  0  0  0  0  0  0  0  0  0  0
  -48.5606   57.5630   59.8240 C   0  0  0  0  0  0  0  0  0  0  0  0
  -48.0102   57.8761   58.4480 C   0  0  0  0  0  0  0  0  0  0  0  0
  -38.2240   60.0552   65.8985 C   0  0  0  0  0  0  0  0  0  0  0  0
  -37.3008   60.1961   64.8129 O   0  0  0  0  0  0  0  0  0  0  0  0
  -35.3206   60.6333   62.8818 O   0  0  0  0  0  0  0  0  0  0  0  0
  -35.9962   64.4897   64.6690 O   0  0  0  0  0  0  0  0  0  0  0  0
  -36.5618   62.0162   66.0252 O   0  0  0  0  0  0  0  0  0  0  0  0
  -36.2016   61.0126   65.0943 C   0  0  0  0  0  0  0  0  0  0  0  0
  -35.7379   61.6458   63.7889 C   0  0  0  0  0  0  0  0  0  0  0  0
  -34.5936   62.6141   64.0609 C   0  0  0  0  0  0  0  0  0  0  0  0
  -34.9724   63.6188   65.1391 C   0  0  0  0  0  0  0  0  0  0  0  0
  -35.4682   62.8782   66.3786 C   0  0  0  0  0  0  0  0  0  0  0  0
  -36.0569   60.0237   62.7167 H   0  0  0  0  0  0  0  0  0  0  0  0
  -35.6830   64.9613   63.8813 H   0  0  0  0  0  0  0  0  0  0  0  0
  -36.3620   63.0826   68.6254 O   0  0  0  0  0  0  0  0  0  0  0  0
  -35.9724   63.8029   67.4618 C   0  0  0  0  0  0  0  0  0  0  0  0
  -36.6796   63.7039   69.2991 H   0  0  0  0  0  0  0  0  0  0  0  0
  -34.3915   63.3129   62.7920 O   0  0  0  0  0  0  0  0  0  0  0  0
  -32.8262   63.4198   60.9628 O   0  0  0  0  0  0  0  0  0  0  0  0
  -32.0129   63.1774   63.3283 O   0  0  0  0  0  0  0  0  0  0  0  0
  -32.9641   65.2018   62.5323 O   0  0  0  0  0  0  0  0  0  0  0  0
  -32.9084   63.6758   62.3531 S   0  0  0  0  0  0  0  0  0  0  0  0
  -32.7892   62.4623   60.8120 H   0  0  0  0  0  0  0  0  0  0  0  0
  -33.5710   65.5821   61.8780 H   0  0  0  0  0  0  0  0  0  0  0  0
  2  1  1  0  0  0
  2  4  1  0  0  0
  2  5  1  0  0  0
 47 48  1  0  0  0
 47  1  1  0  0  0
 48 52  1  0  0  0
  1 30  1  0  0  0
 29 30  1  0  0  0
 29 31  1  0  0  0
 30 32  1  0  0  0
  3  4  2  0  0  0
 32 33  2  0  0  0
 49 53  1  0  0  0
 49 57  1  0  0  0
 33 34  1  0  0  0
 62 54  1  0  0  0
 62 66  1  0  0  0
 34 35  1  0  0  0
 50 55  1  0  0  0
 50 58  1  0  0  0
 35 36  1  0  0  0
 51 52  1  0  0  0
 51 56  1  0  0  0
 36 37  1  0  0  0
 59 60  1  0  0  0
 59 61  1  0  0  0
 37 38  1  0  0  0
 63 66  1  0  0  0
 63 67  1  0  0  0
 38 39  1  0  0  0
 64 66  1  0  0  0
 39 40  1  0  0  0
 65 66  1  0  0  0
 65 68  1  0  0  0
 40 41  1  0  0  0
 41 42  1  0  0  0
 42 43  1  0  0  0
 43 44  1  0  0  0
 44 45  1  0  0  0
 45 46  1  0  0  0
  4  6  1  0  0  0
  6  7  1  0  0  0
  7  8  1  0  0  0
  8  9  1  0  0  0
  9 10  1  0  0  0
 10 11  1  0  0  0
 11 12  1  0  0  0
 12 13  1  0  0  0
 13 14  1  0  0  0
 14 15  1  0  0  0
 15 16  1  0  0  0
 16 17  1  0  0  0
 17 18  1  0  0  0
 18 19  1  0  0  0
 19 20  2  0  0  0
 20 21  1  0  0  0
 21 22  1  0  0  0
 22 23  1  0  0  0
 23 24  1  0  0  0
 24 25  1  0  0  0
 25 26  1  0  0  0
 26 27  1  0  0  0
 27 28  1  0  0  0
 52 53  1  0  0  0
 53 54  1  0  0  0
 54 55  1  0  0  0
 55 56  1  0  0  0
 56 60  1  0  0  0
M  CHG 1  64  -1
M  END
> <minimizedAffinity>
-8.72946

> <CNNscore>
0.1121258438

> <CNNaffinity>
7.4626111984

> <CNN_VS>
0.8367515802

> <CNNaffinity_variance>
2.0206475258

$$$$
