/media/chris/experiments/cd1a-new-docking/inputs/ligands/7ryn_ligand.pdb


 68 68  0  0  0  0  0  0  0  0999 V2000
  -35.6147   62.0683   64.5718 C   0  0  0  0  0  0  0  0  0  0  0  0
  -36.9061   61.3973   64.6874 N   0  0  0  0  0  0  0  0  0  0  0  0
  -37.3641   61.3894   62.4833 O   0  0  0  0  0  0  0  0  0  0  0  0
  -37.6791   61.1105   63.6364 C   0  0  0  0  0  0  0  0  0  0  0  0
  -37.2230   61.1437   65.5843 H   0  0  0  0  0  0  0  0  0  0  0  0
  -38.9757   60.4075   63.9529 C   0  0  0  0  0  0  0  0  0  0  0  0
  -38.9253   59.6556   65.2768 C   0  0  0  0  0  0  0  0  0  0  0  0
  -39.3403   58.1994   65.1403 C   0  0  0  0  0  0  0  0  0  0  0  0
  -40.8395   57.9969   64.9962 C   0  0  0  0  0  0  0  0  0  0  0  0
  -41.6740   59.0252   65.7450 C   0  0  0  0  0  0  0  0  0  0  0  0
  -42.5671   58.4301   66.8261 C   0  0  0  0  0  0  0  0  0  0  0  0
  -44.0565   58.6206   66.5700 C   0  0  0  0  0  0  0  0  0  0  0  0
  -44.4481   58.6419   65.0947 C   0  0  0  0  0  0  0  0  0  0  0  0
  -45.9371   58.4094   64.8429 C   0  0  0  0  0  0  0  0  0  0  0  0
  -46.7014   57.8290   66.0326 C   0  0  0  0  0  0  0  0  0  0  0  0
  -47.6985   58.8085   66.6521 C   0  0  0  0  0  0  0  0  0  0  0  0
  -48.6276   59.5027   65.6563 C   0  0  0  0  0  0  0  0  0  0  0  0
  -49.9340   58.7589   65.3664 C   0  0  0  0  0  0  0  0  0  0  0  0
  -51.0685   59.6825   65.0288 C   0  0  0  0  0  0  0  0  0  0  0  0
  -51.4327   60.0567   63.8151 C   0  0  0  0  0  0  0  0  0  0  0  0
  -50.7880   59.6319   62.5306 C   0  0  0  0  0  0  0  0  0  0  0  0
  -51.0565   58.1712   62.1619 C   0  0  0  0  0  0  0  0  0  0  0  0
  -49.8641   57.4864   61.5072 C   0  0  0  0  0  0  0  0  0  0  0  0
  -49.2729   58.2796   60.3473 C   0  0  0  0  0  0  0  0  0  0  0  0
  -48.7866   57.4258   59.1817 C   0  0  0  0  0  0  0  0  0  0  0  0
  -47.8126   58.1453   58.2594 C   0  0  0  0  0  0  0  0  0  0  0  0
  -47.5667   57.4348   56.9378 C   0  0  0  0  0  0  0  0  0  0  0  0
  -47.2169   55.9708   57.1120 C   0  0  0  0  0  0  0  0  0  0  0  0
  -33.5704   62.3944   65.8164 O   0  0  0  0  0  0  0  0  0  0  0  0
  -34.6341   61.4650   65.5903 C   0  0  0  0  0  0  0  0  0  0  0  0
  -33.9382   63.2398   66.1176 H   0  0  0  0  0  0  0  0  0  0  0  0
  -34.1022   60.1450   65.1230 C   0  0  0  0  0  0  0  0  0  0  0  0
  -33.5954   59.9118   63.9286 C   0  0  0  0  0  0  0  0  0  0  0  0
  -33.0587   58.5864   63.4973 C   0  0  0  0  0  0  0  0  0  0  0  0
  -33.9730   57.9343   62.4582 C   0  0  0  0  0  0  0  0  0  0  0  0
  -35.2320   57.3115   63.0395 C   0  0  0  0  0  0  0  0  0  0  0  0
  -36.5184   58.0134   62.6391 C   0  0  0  0  0  0  0  0  0  0  0  0
  -37.5619   57.0905   62.0265 C   0  0  0  0  0  0  0  0  0  0  0  0
  -38.7743   57.8224   61.4718 C   0  0  0  0  0  0  0  0  0  0  0  0
  -40.0877   57.0979   61.7091 C   0  0  0  0  0  0  0  0  0  0  0  0
  -41.2811   57.7431   61.0295 C   0  0  0  0  0  0  0  0  0  0  0  0
  -40.9443   59.0167   60.2731 C   0  0  0  0  0  0  0  0  0  0  0  0
  -41.4780   60.2666   60.9480 C   0  0  0  0  0  0  0  0  0  0  0  0
  -42.2608   60.0054   62.2206 C   0  0  0  0  0  0  0  0  0  0  0  0
  -42.6870   61.2839   62.9151 C   0  0  0  0  0  0  0  0  0  0  0  0
  -43.0251   62.3904   61.9376 C   0  0  0  0  0  0  0  0  0  0  0  0
  -35.7860   63.5611   64.7626 C   0  0  0  0  0  0  0  0  0  0  0  0
  -35.2706   64.2255   63.6034 O   0  0  0  0  0  0  0  0  0  0  0  0
  -33.7715   64.3497   61.2416 O   0  0  0  0  0  0  0  0  0  0  0  0
  -32.3229   67.6118   63.6461 O   0  0  0  0  0  0  0  0  0  0  0  0
  -33.5782   65.2786   64.7676 O   0  0  0  0  0  0  0  0  0  0  0  0
  -33.8958   64.4751   63.6465 C   0  0  0  0  0  0  0  0  0  0  0  0
  -33.5054   65.1883   62.3586 C   0  0  0  0  0  0  0  0  0  0  0  0
  -32.0283   65.5592   62.3995 C   0  0  0  0  0  0  0  0  0  0  0  0
  -31.6941   66.3344   63.6653 C   0  0  0  0  0  0  0  0  0  0  0  0
  -32.1731   65.5533   64.8865 C   0  0  0  0  0  0  0  0  0  0  0  0
  -34.7140   64.1207   61.2265 H   0  0  0  0  0  0  0  0  0  0  0  0
  -32.0199   68.1099   62.8709 H   0  0  0  0  0  0  0  0  0  0  0  0
  -30.7632   65.9410   66.8232 O   0  0  0  0  0  0  0  0  0  0  0  0
  -31.9821   66.3027   66.1842 C   0  0  0  0  0  0  0  0  0  0  0  0
  -30.6719   66.4385   67.6508 H   0  0  0  0  0  0  0  0  0  0  0  0
  -31.8311   66.4200   61.2335 O   0  0  0  0  0  0  0  0  0  0  0  0
  -29.4666   66.2352   60.8072 O   0  0  0  0  0  0  0  0  0  0  0  0
  -31.0878   66.5332   58.9102 O   0  0  0  0  0  0  0  0  0  0  0  0
  -30.9487   64.5020   60.1316 O   0  0  0  0  0  0  0  0  0  0  0  0
  -30.7156   66.0211   60.1753 S   0  0  0  0  0  0  0  0  0  0  0  0
  -29.2860   67.1872   60.8523 H   0  0  0  0  0  0  0  0  0  0  0  0
  -30.7036   64.1125   60.9855 H   0  0  0  0  0  0  0  0  0  0  0  0
  2  1  1  0  0  0
  2  4  1  0  0  0
  2  5  1  0  0  0
 47 48  1  0  0  0
 47  1  1  0  0  0
 48 52  1  0  0  0
  1 30  1  0  0  0
 29 30  1  0  0  0
 29 31  1  0  0  0
 30 32  1  0  0  0
  3  4  2  0  0  0
 32 33  2  0  0  0
 49 53  1  0  0  0
 49 57  1  0  0  0
 33 34  1  0  0  0
 62 54  1  0  0  0
 62 66  1  0  0  0
 34 35  1  0  0  0
 50 55  1  0  0  0
 50 58  1  0  0  0
 35 36  1  0  0  0
 51 52  1  0  0  0
 51 56  1  0  0  0
 36 37  1  0  0  0
 59 60  1  0  0  0
 59 61  1  0  0  0
 37 38  1  0  0  0
 63 66  1  0  0  0
 63 67  1  0  0  0
 38 39  1  0  0  0
 64 66  1  0  0  0
 39 40  1  0  0  0
 65 66  1  0  0  0
 65 68  1  0  0  0
 40 41  1  0  0  0
 41 42  1  0  0  0
 42 43  1  0  0  0
 43 44  1  0  0  0
 44 45  1  0  0  0
 45 46  1  0  0  0
  4  6  1  0  0  0
  6  7  1  0  0  0
  7  8  1  0  0  0
  8  9  1  0  0  0
  9 10  1  0  0  0
 10 11  1  0  0  0
 11 12  1  0  0  0
 12 13  1  0  0  0
 13 14  1  0  0  0
 14 15  1  0  0  0
 15 16  1  0  0  0
 16 17  1  0  0  0
 17 18  1  0  0  0
 18 19  1  0  0  0
 19 20  2  0  0  0
 20 21  1  0  0  0
 21 22  1  0  0  0
 22 23  1  0  0  0
 23 24  1  0  0  0
 24 25  1  0  0  0
 25 26  1  0  0  0
 26 27  1  0  0  0
 27 28  1  0  0  0
 52 53  1  0  0  0
 53 54  1  0  0  0
 54 55  1  0  0  0
 55 56  1  0  0  0
 56 60  1  0  0  0
M  CHG 1  64  -1
M  END
> <minimizedAffinity>
-9.72099

> <CNNscore>
0.2420612425

> <CNNaffinity>
7.1780176163

> <CNN_VS>
1.7375198603

> <CNNaffinity_variance>
1.0385115147

$$$$
/media/chris/experiments/cd1a-new-docking/inputs/ligands/7ryn_ligand.pdb


 68 68  0  0  0  0  0  0  0  0999 V2000
  -37.4204   59.1469   62.8084 C   0  0  0  0  0  0  0  0  0  0  0  0
  -38.4400   58.4095   62.0681 N   0  0  0  0  0  0  0  0  0  0  0  0
  -39.6406   57.7959   63.8708 O   0  0  0  0  0  0  0  0  0  0  0  0
  -39.4688   57.7924   62.6554 C   0  0  0  0  0  0  0  0  0  0  0  0
  -38.3655   58.3649   61.0875 H   0  0  0  0  0  0  0  0  0  0  0  0
  -40.4244   57.0880   61.7247 C   0  0  0  0  0  0  0  0  0  0  0  0
  -40.5628   57.7961   60.3830 C   0  0  0  0  0  0  0  0  0  0  0  0
  -41.7058   58.7983   60.3640 C   0  0  0  0  0  0  0  0  0  0  0  0
  -41.3050   60.1983   60.7982 C   0  0  0  0  0  0  0  0  0  0  0  0
  -42.2410   60.8150   61.8268 C   0  0  0  0  0  0  0  0  0  0  0  0
  -42.2280   60.1108   63.1775 C   0  0  0  0  0  0  0  0  0  0  0  0
  -43.4870   59.3027   63.4642 C   0  0  0  0  0  0  0  0  0  0  0  0
  -43.2296   57.9063   64.0248 C   0  0  0  0  0  0  0  0  0  0  0  0
  -44.1081   57.5447   65.2214 C   0  0  0  0  0  0  0  0  0  0  0  0
  -45.4007   58.3535   65.3304 C   0  0  0  0  0  0  0  0  0  0  0  0
  -45.8201   58.6395   66.7724 C   0  0  0  0  0  0  0  0  0  0  0  0
  -47.3160   58.8801   66.9758 C   0  0  0  0  0  0  0  0  0  0  0  0
  -48.1696   58.7392   65.7127 C   0  0  0  0  0  0  0  0  0  0  0  0
  -49.5957   58.3760   66.0100 C   0  0  0  0  0  0  0  0  0  0  0  0
  -50.6627   58.8284   65.3756 C   0  0  0  0  0  0  0  0  0  0  0  0
  -50.6637   59.7936   64.2290 C   0  0  0  0  0  0  0  0  0  0  0  0
  -51.0598   59.1608   62.8934 C   0  0  0  0  0  0  0  0  0  0  0  0
  -50.0465   59.4112   61.7844 C   0  0  0  0  0  0  0  0  0  0  0  0
  -49.2520   58.1685   61.3990 C   0  0  0  0  0  0  0  0  0  0  0  0
  -49.5716   57.6196   60.0132 C   0  0  0  0  0  0  0  0  0  0  0  0
  -48.3634   57.0432   59.2886 C   0  0  0  0  0  0  0  0  0  0  0  0
  -48.3290   57.3447   57.7988 C   0  0  0  0  0  0  0  0  0  0  0  0
  -47.0575   58.0480   57.3689 C   0  0  0  0  0  0  0  0  0  0  0  0
  -37.2275   59.1359   65.2162 O   0  0  0  0  0  0  0  0  0  0  0  0
  -37.0071   58.3388   64.0490 C   0  0  0  0  0  0  0  0  0  0  0  0
  -38.1573   59.4098   65.2499 H   0  0  0  0  0  0  0  0  0  0  0  0
  -35.5783   57.8969   63.9637 C   0  0  0  0  0  0  0  0  0  0  0  0
  -34.5481   58.6958   63.7680 C   0  0  0  0  0  0  0  0  0  0  0  0
  -33.1320   58.2257   63.7027 C   0  0  0  0  0  0  0  0  0  0  0  0
  -32.2581   59.2173   62.9319 C   0  0  0  0  0  0  0  0  0  0  0  0
  -32.7196   60.6623   63.0307 C   0  0  0  0  0  0  0  0  0  0  0  0
  -32.0445   61.6024   62.0467 C   0  0  0  0  0  0  0  0  0  0  0  0
  -30.8739   60.9797   61.2999 C   0  0  0  0  0  0  0  0  0  0  0  0
  -29.5248   61.5732   61.6750 C   0  0  0  0  0  0  0  0  0  0  0  0
  -29.6231   62.8216   62.5342 C   0  0  0  0  0  0  0  0  0  0  0  0
  -29.6247   64.1171   61.7442 C   0  0  0  0  0  0  0  0  0  0  0  0
  -29.3382   65.3502   62.5838 C   0  0  0  0  0  0  0  0  0  0  0  0
  -29.3506   65.0691   64.0749 C   0  0  0  0  0  0  0  0  0  0  0  0
  -30.0396   66.1335   64.9071 C   0  0  0  0  0  0  0  0  0  0  0  0
  -31.1853   65.5784   65.7303 C   0  0  0  0  0  0  0  0  0  0  0  0
  -31.3969   64.0956   65.5047 C   0  0  0  0  0  0  0  0  0  0  0  0
  -37.9367   60.5236   63.1726 C   0  0  0  0  0  0  0  0  0  0  0  0
  -37.0712   61.5000   62.5824 O   0  0  0  0  0  0  0  0  0  0  0  0
  -35.3274   63.5186   61.7307 O   0  0  0  0  0  0  0  0  0  0  0  0
  -36.6979   64.7997   65.6039 O   0  0  0  0  0  0  0  0  0  0  0  0
  -36.6658   62.0405   64.7896 O   0  0  0  0  0  0  0  0  0  0  0  0
  -36.1530   62.0674   63.4707 C   0  0  0  0  0  0  0  0  0  0  0  0
  -35.8990   63.5040   63.0326 C   0  0  0  0  0  0  0  0  0  0  0  0
  -34.9689   64.1910   64.0246 C   0  0  0  0  0  0  0  0  0  0  0  0
  -35.4925   64.0582   65.4470 C   0  0  0  0  0  0  0  0  0  0  0  0
  -35.7589   62.5879   65.7601 C   0  0  0  0  0  0  0  0  0  0  0  0
  -35.9281   63.0789   61.1089 H   0  0  0  0  0  0  0  0  0  0  0  0
  -36.5308   65.7344   65.4055 H   0  0  0  0  0  0  0  0  0  0  0  0
  -36.0208   63.3987   68.0323 O   0  0  0  0  0  0  0  0  0  0  0  0
  -36.3882   62.3733   67.1167 C   0  0  0  0  0  0  0  0  0  0  0  0
  -36.4402   63.2313   68.8907 H   0  0  0  0  0  0  0  0  0  0  0  0
  -34.9822   65.5991   63.6291 O   0  0  0  0  0  0  0  0  0  0  0  0
  -33.1338   67.1352   63.4545 O   0  0  0  0  0  0  0  0  0  0  0  0
  -34.3034   66.3032   61.3916 O   0  0  0  0  0  0  0  0  0  0  0  0
  -32.9084   64.8923   62.6955 O   0  0  0  0  0  0  0  0  0  0  0  0
  -33.8075   66.1395   62.7063 S   0  0  0  0  0  0  0  0  0  0  0  0
  -33.6746   67.9400   63.4824 H   0  0  0  0  0  0  0  0  0  0  0  0
  -32.5474   64.7462   63.5839 H   0  0  0  0  0  0  0  0  0  0  0  0
  2  1  1  0  0  0
  2  4  1  0  0  0
  2  5  1  0  0  0
 47 48  1  0  0  0
 47  1  1  0  0  0
 48 52  1  0  0  0
  1 30  1  0  0  0
 29 30  1  0  0  0
 29 31  1  0  0  0
 30 32  1  0  0  0
  3  4  2  0  0  0
 32 33  2  0  0  0
 49 53  1  0  0  0
 49 57  1  0  0  0
 33 34  1  0  0  0
 62 54  1  0  0  0
 62 66  1  0  0  0
 34 35  1  0  0  0
 50 55  1  0  0  0
 50 58  1  0  0  0
 35 36  1  0  0  0
 51 52  1  0  0  0
 51 56  1  0  0  0
 36 37  1  0  0  0
 59 60  1  0  0  0
 59 61  1  0  0  0
 37 38  1  0  0  0
 63 66  1  0  0  0
 63 67  1  0  0  0
 38 39  1  0  0  0
 64 66  1  0  0  0
 39 40  1  0  0  0
 65 66  1  0  0  0
 65 68  1  0  0  0
 40 41  1  0  0  0
 41 42  1  0  0  0
 42 43  1  0  0  0
 43 44  1  0  0  0
 44 45  1  0  0  0
 45 46  1  0  0  0
  4  6  1  0  0  0
  6  7  1  0  0  0
  7  8  1  0  0  0
  8  9  1  0  0  0
  9 10  1  0  0  0
 10 11  1  0  0  0
 11 12  1  0  0  0
 12 13  1  0  0  0
 13 14  1  0  0  0
 14 15  1  0  0  0
 15 16  1  0  0  0
 16 17  1  0  0  0
 17 18  1  0  0  0
 18 19  1  0  0  0
 19 20  2  0  0  0
 20 21  1  0  0  0
 21 22  1  0  0  0
 22 23  1  0  0  0
 23 24  1  0  0  0
 24 25  1  0  0  0
 25 26  1  0  0  0
 26 27  1  0  0  0
 27 28  1  0  0  0
 52 53  1  0  0  0
 53 54  1  0  0  0
 54 55  1  0  0  0
 55 56  1  0  0  0
 56 60  1  0  0  0
M  CHG 1  64  -1
M  END
> <minimizedAffinity>
-8.94852

> <CNNscore>
0.1885776371

> <CNNaffinity>
7.0956192017

> <CNN_VS>
1.3380751610

> <CNNaffinity_variance>
0.7435995340

$$$$
/media/chris/experiments/cd1a-new-docking/inputs/ligands/7ryn_ligand.pdb


 68 68  0  0  0  0  0  0  0  0999 V2000
  -36.0861   62.0961   63.7452 C   0  0  0  0  0  0  0  0  0  0  0  0
  -37.3397   61.8481   63.0393 N   0  0  0  0  0  0  0  0  0  0  0  0
  -36.7519   59.8365   62.2175 O   0  0  0  0  0  0  0  0  0  0  0  0
  -37.5750   60.7400   62.3316 C   0  0  0  0  0  0  0  0  0  0  0  0
  -38.0467   62.5316   63.0871 H   0  0  0  0  0  0  0  0  0  0  0  0
  -38.9322   60.6590   61.6783 C   0  0  0  0  0  0  0  0  0  0  0  0
  -38.9111   59.8567   60.3835 C   0  0  0  0  0  0  0  0  0  0  0  0
  -39.4031   58.4303   60.5693 C   0  0  0  0  0  0  0  0  0  0  0  0
  -40.9159   58.3045   60.6388 C   0  0  0  0  0  0  0  0  0  0  0  0
  -41.4089   56.8707   60.7640 C   0  0  0  0  0  0  0  0  0  0  0  0
  -41.2981   56.2978   62.1711 C   0  0  0  0  0  0  0  0  0  0  0  0
  -41.9709   57.1505   63.2392 C   0  0  0  0  0  0  0  0  0  0  0  0
  -42.3948   56.3828   64.4887 C   0  0  0  0  0  0  0  0  0  0  0  0
  -42.9979   57.2612   65.5837 C   0  0  0  0  0  0  0  0  0  0  0  0
  -43.8885   58.3939   65.0735 C   0  0  0  0  0  0  0  0  0  0  0  0
  -45.3716   58.0263   65.0222 C   0  0  0  0  0  0  0  0  0  0  0  0
  -46.2514   58.7404   66.0482 C   0  0  0  0  0  0  0  0  0  0  0  0
  -47.7543   58.6797   65.7627 C   0  0  0  0  0  0  0  0  0  0  0  0
  -48.2170   59.7691   64.8390 C   0  0  0  0  0  0  0  0  0  0  0  0
  -48.8076   59.5993   63.6693 C   0  0  0  0  0  0  0  0  0  0  0  0
  -49.1371   58.2842   63.0305 C   0  0  0  0  0  0  0  0  0  0  0  0
  -50.5182   58.2494   62.3728 C   0  0  0  0  0  0  0  0  0  0  0  0
  -50.4940   57.7071   60.9498 C   0  0  0  0  0  0  0  0  0  0  0  0
  -49.8623   58.6666   59.9476 C   0  0  0  0  0  0  0  0  0  0  0  0
  -48.7326   58.0626   59.1213 C   0  0  0  0  0  0  0  0  0  0  0  0
  -48.3193   56.6692   59.5739 C   0  0  0  0  0  0  0  0  0  0  0  0
  -47.2687   56.0143   58.6912 C   0  0  0  0  0  0  0  0  0  0  0  0
  -47.3271   56.4897   57.2536 C   0  0  0  0  0  0  0  0  0  0  0  0
  -35.1356   62.4899   65.9307 O   0  0  0  0  0  0  0  0  0  0  0  0
  -36.3662   62.2249   65.2511 C   0  0  0  0  0  0  0  0  0  0  0  0
  -34.7294   63.2904   65.5634 H   0  0  0  0  0  0  0  0  0  0  0  0
  -37.0233   60.9927   65.7934 C   0  0  0  0  0  0  0  0  0  0  0  0
  -38.3237   60.7787   65.8256 C   0  0  0  0  0  0  0  0  0  0  0  0
  -38.9482   59.5316   66.3598 C   0  0  0  0  0  0  0  0  0  0  0  0
  -39.1212   58.4864   65.2559 C   0  0  0  0  0  0  0  0  0  0  0  0
  -38.0437   57.4144   65.2384 C   0  0  0  0  0  0  0  0  0  0  0  0
  -37.0493   57.5467   64.0975 C   0  0  0  0  0  0  0  0  0  0  0  0
  -35.6006   57.3334   64.5116 C   0  0  0  0  0  0  0  0  0  0  0  0
  -34.8006   58.6222   64.6210 C   0  0  0  0  0  0  0  0  0  0  0  0
  -33.2973   58.4087   64.6493 C   0  0  0  0  0  0  0  0  0  0  0  0
  -32.6195   58.6059   63.3062 C   0  0  0  0  0  0  0  0  0  0  0  0
  -32.2188   60.0438   63.0242 C   0  0  0  0  0  0  0  0  0  0  0  0
  -31.8750   60.2892   61.5668 C   0  0  0  0  0  0  0  0  0  0  0  0
  -30.5270   60.9478   61.3438 C   0  0  0  0  0  0  0  0  0  0  0  0
  -29.6928   61.0103   62.6083 C   0  0  0  0  0  0  0  0  0  0  0  0
  -29.3097   62.4274   62.9813 C   0  0  0  0  0  0  0  0  0  0  0  0
  -35.4098   63.3302   63.1850 C   0  0  0  0  0  0  0  0  0  0  0  0
  -34.2118   62.9224   62.5147 O   0  0  0  0  0  0  0  0  0  0  0  0
  -32.3538   63.8491   60.6359 O   0  0  0  0  0  0  0  0  0  0  0  0
  -32.7364   67.0496   63.4876 O   0  0  0  0  0  0  0  0  0  0  0  0
  -33.3124   64.3049   64.1297 O   0  0  0  0  0  0  0  0  0  0  0  0
  -33.0615   63.6008   62.9278 C   0  0  0  0  0  0  0  0  0  0  0  0
  -32.6629   64.5697   61.8222 C   0  0  0  0  0  0  0  0  0  0  0  0
  -31.4618   65.3954   62.2656 C   0  0  0  0  0  0  0  0  0  0  0  0
  -31.7209   66.0589   63.6101 C   0  0  0  0  0  0  0  0  0  0  0  0
  -32.1608   65.0066   64.6249 C   0  0  0  0  0  0  0  0  0  0  0  0
  -33.1253   63.3279   60.3639 H   0  0  0  0  0  0  0  0  0  0  0  0
  -32.4588   67.7193   62.8433 H   0  0  0  0  0  0  0  0  0  0  0  0
  -33.3380   64.6886   66.7230 O   0  0  0  0  0  0  0  0  0  0  0  0
  -32.5481   65.5947   65.9615 C   0  0  0  0  0  0  0  0  0  0  0  0
  -33.5689   65.0959   67.5724 H   0  0  0  0  0  0  0  0  0  0  0  0
  -31.3184   66.4224   61.2340 O   0  0  0  0  0  0  0  0  0  0  0  0
  -29.1303   65.4778   60.8779 O   0  0  0  0  0  0  0  0  0  0  0  0
  -29.7633   67.6693   59.8233 O   0  0  0  0  0  0  0  0  0  0  0  0
  -30.6882   65.6109   59.0855 O   0  0  0  0  0  0  0  0  0  0  0  0
  -30.0569   66.3597   60.2706 S   0  0  0  0  0  0  0  0  0  0  0  0
  -28.7109   65.9191   61.6330 H   0  0  0  0  0  0  0  0  0  0  0  0
  -30.9045   64.7043   59.3541 H   0  0  0  0  0  0  0  0  0  0  0  0
  2  1  1  0  0  0
  2  4  1  0  0  0
  2  5  1  0  0  0
 47 48  1  0  0  0
 47  1  1  0  0  0
 48 52  1  0  0  0
  1 30  1  0  0  0
 29 30  1  0  0  0
 29 31  1  0  0  0
 30 32  1  0  0  0
  3  4  2  0  0  0
 32 33  2  0  0  0
 49 53  1  0  0  0
 49 57  1  0  0  0
 33 34  1  0  0  0
 62 54  1  0  0  0
 62 66  1  0  0  0
 34 35  1  0  0  0
 50 55  1  0  0  0
 50 58  1  0  0  0
 35 36  1  0  0  0
 51 52  1  0  0  0
 51 56  1  0  0  0
 36 37  1  0  0  0
 59 60  1  0  0  0
 59 61  1  0  0  0
 37 38  1  0  0  0
 63 66  1  0  0  0
 63 67  1  0  0  0
 38 39  1  0  0  0
 64 66  1  0  0  0
 39 40  1  0  0  0
 65 66  1  0  0  0
 65 68  1  0  0  0
 40 41  1  0  0  0
 41 42  1  0  0  0
 42 43  1  0  0  0
 43 44  1  0  0  0
 44 45  1  0  0  0
 45 46  1  0  0  0
  4  6  1  0  0  0
  6  7  1  0  0  0
  7  8  1  0  0  0
  8  9  1  0  0  0
  9 10  1  0  0  0
 10 11  1  0  0  0
 11 12  1  0  0  0
 12 13  1  0  0  0
 13 14  1  0  0  0
 14 15  1  0  0  0
 15 16  1  0  0  0
 16 17  1  0  0  0
 17 18  1  0  0  0
 18 19  1  0  0  0
 19 20  2  0  0  0
 20 21  1  0  0  0
 21 22  1  0  0  0
 22 23  1  0  0  0
 23 24  1  0  0  0
 24 25  1  0  0  0
 25 26  1  0  0  0
 26 27  1  0  0  0
 27 28  1  0  0  0
 52 53  1  0  0  0
 53 54  1  0  0  0
 54 55  1  0  0  0
 55 56  1  0  0  0
 56 60  1  0  0  0
M  CHG 1  64  -1
M  END
> <minimizedAffinity>
-8.97690

> <CNNscore>
0.1749017686

> <CNNaffinity>
7.0711135864

> <CNN_VS>
1.2367502451

> <CNNaffinity_variance>
0.8853216171

$$$$
/media/chris/experiments/cd1a-new-docking/inputs/ligands/7ryn_ligand.pdb


 68 68  0  0  0  0  0  0  0  0999 V2000
  -36.5367   61.1638   64.2127 C   0  0  0  0  0  0  0  0  0  0  0  0
  -37.0094   60.4031   63.0598 N   0  0  0  0  0  0  0  0  0  0  0  0
  -38.7516   61.7489   62.5893 O   0  0  0  0  0  0  0  0  0  0  0  0
  -38.0779   60.7538   62.3390 C   0  0  0  0  0  0  0  0  0  0  0  0
  -36.5162   59.5914   62.8008 H   0  0  0  0  0  0  0  0  0  0  0  0
  -38.4084   59.8476   61.1793 C   0  0  0  0  0  0  0  0  0  0  0  0
  -39.9080   59.7290   60.9387 C   0  0  0  0  0  0  0  0  0  0  0  0
  -40.2708   58.5293   60.0782 C   0  0  0  0  0  0  0  0  0  0  0  0
  -41.7118   58.0726   60.2338 C   0  0  0  0  0  0  0  0  0  0  0  0
  -42.0472   57.5582   61.6257 C   0  0  0  0  0  0  0  0  0  0  0  0
  -42.9174   58.5043   62.4431 C   0  0  0  0  0  0  0  0  0  0  0  0
  -43.5838   57.8466   63.6447 C   0  0  0  0  0  0  0  0  0  0  0  0
  -43.9330   58.8062   64.7795 C   0  0  0  0  0  0  0  0  0  0  0  0
  -45.0760   58.3248   65.6717 C   0  0  0  0  0  0  0  0  0  0  0  0
  -46.4691   58.7488   65.2068 C   0  0  0  0  0  0  0  0  0  0  0  0
  -47.4816   58.8663   66.3462 C   0  0  0  0  0  0  0  0  0  0  0  0
  -48.6467   57.8790   66.2812 C   0  0  0  0  0  0  0  0  0  0  0  0
  -49.5981   58.0809   65.0988 C   0  0  0  0  0  0  0  0  0  0  0  0
  -50.2003   59.4558   65.0630 C   0  0  0  0  0  0  0  0  0  0  0  0
  -50.9925   59.9343   64.1200 C   0  0  0  0  0  0  0  0  0  0  0  0
  -51.4518   59.1993   62.8973 C   0  0  0  0  0  0  0  0  0  0  0  0
  -50.3954   59.1234   61.7929 C   0  0  0  0  0  0  0  0  0  0  0  0
  -50.2727   57.7385   61.1712 C   0  0  0  0  0  0  0  0  0  0  0  0
  -49.9044   57.7699   59.6922 C   0  0  0  0  0  0  0  0  0  0  0  0
  -48.4064   57.7210   59.4135 C   0  0  0  0  0  0  0  0  0  0  0  0
  -47.9158   56.3613   58.9362 C   0  0  0  0  0  0  0  0  0  0  0  0
  -47.2636   56.3821   57.5629 C   0  0  0  0  0  0  0  0  0  0  0  0
  -47.2620   57.7598   56.9320 C   0  0  0  0  0  0  0  0  0  0  0  0
  -37.2333   62.1332   66.3126 O   0  0  0  0  0  0  0  0  0  0  0  0
  -37.7192   61.4546   65.1508 C   0  0  0  0  0  0  0  0  0  0  0  0
  -36.7703   62.9422   66.0445 H   0  0  0  0  0  0  0  0  0  0  0  0
  -38.4415   60.1974   65.5274 C   0  0  0  0  0  0  0  0  0  0  0  0
  -39.7519   60.0613   65.5748 C   0  0  0  0  0  0  0  0  0  0  0  0
  -40.4430   58.7886   65.9401 C   0  0  0  0  0  0  0  0  0  0  0  0
  -40.3200   57.7544   64.8192 C   0  0  0  0  0  0  0  0  0  0  0  0
  -38.8937   57.3147   64.5310 C   0  0  0  0  0  0  0  0  0  0  0  0
  -38.6094   57.0386   63.0644 C   0  0  0  0  0  0  0  0  0  0  0  0
  -37.1394   57.1512   62.6873 C   0  0  0  0  0  0  0  0  0  0  0  0
  -36.2219   57.4026   63.8739 C   0  0  0  0  0  0  0  0  0  0  0  0
  -34.7460   57.4065   63.5162 C   0  0  0  0  0  0  0  0  0  0  0  0
  -34.4335   58.0723   62.1890 C   0  0  0  0  0  0  0  0  0  0  0  0
  -32.9541   58.0938   61.8445 C   0  0  0  0  0  0  0  0  0  0  0  0
  -32.1496   59.0175   62.7401 C   0  0  0  0  0  0  0  0  0  0  0  0
  -32.1683   60.4736   62.3160 C   0  0  0  0  0  0  0  0  0  0  0  0
  -30.9943   60.8368   61.4280 C   0  0  0  0  0  0  0  0  0  0  0  0
  -30.6364   62.3063   61.5115 C   0  0  0  0  0  0  0  0  0  0  0  0
  -35.8510   62.4334   63.7517 C   0  0  0  0  0  0  0  0  0  0  0  0
  -35.1690   63.0091   64.8715 O   0  0  0  0  0  0  0  0  0  0  0  0
  -32.9320   63.9620   66.2603 O   0  0  0  0  0  0  0  0  0  0  0  0
  -32.3872   65.3239   62.2143 O   0  0  0  0  0  0  0  0  0  0  0  0
  -34.9697   64.7105   63.3242 O   0  0  0  0  0  0  0  0  0  0  0  0
  -34.6962   64.3063   64.6528 C   0  0  0  0  0  0  0  0  0  0  0  0
  -33.1943   64.3099   64.9067 C   0  0  0  0  0  0  0  0  0  0  0  0
  -32.6199   65.6861   64.5952 C   0  0  0  0  0  0  0  0  0  0  0  0
  -33.0152   66.1400   63.1978 C   0  0  0  0  0  0  0  0  0  0  0  0
  -34.5307   66.0482   63.0384 C   0  0  0  0  0  0  0  0  0  0  0  0
  -33.3021   63.0849   66.4462 H   0  0  0  0  0  0  0  0  0  0  0  0
  -31.4241   65.3809   62.3137 H   0  0  0  0  0  0  0  0  0  0  0  0
  -36.2179   67.1140   61.6577 O   0  0  0  0  0  0  0  0  0  0  0  0
  -35.0025   66.3742   61.6407 C   0  0  0  0  0  0  0  0  0  0  0  0
  -36.4923   67.3062   60.7474 H   0  0  0  0  0  0  0  0  0  0  0  0
  -31.1699   65.5039   64.6573 O   0  0  0  0  0  0  0  0  0  0  0  0
  -30.5554   66.0518   66.9220 O   0  0  0  0  0  0  0  0  0  0  0  0
  -30.4648   67.7965   65.1154 O   0  0  0  0  0  0  0  0  0  0  0  0
  -28.9078   66.0064   65.2071 O   0  0  0  0  0  0  0  0  0  0  0  0
  -30.3225   66.4714   65.5897 S   0  0  0  0  0  0  0  0  0  0  0  0
  -31.4428   66.3295   67.1980 H   0  0  0  0  0  0  0  0  0  0  0  0
  -28.7713   65.0974   65.5169 H   0  0  0  0  0  0  0  0  0  0  0  0
  2  1  1  0  0  0
  2  4  1  0  0  0
  2  5  1  0  0  0
 47 48  1  0  0  0
 47  1  1  0  0  0
 48 52  1  0  0  0
  1 30  1  0  0  0
 29 30  1  0  0  0
 29 31  1  0  0  0
 30 32  1  0  0  0
  3  4  2  0  0  0
 32 33  2  0  0  0
 49 53  1  0  0  0
 49 57  1  0  0  0
 33 34  1  0  0  0
 62 54  1  0  0  0
 62 66  1  0  0  0
 34 35  1  0  0  0
 50 55  1  0  0  0
 50 58  1  0  0  0
 35 36  1  0  0  0
 51 52  1  0  0  0
 51 56  1  0  0  0
 36 37  1  0  0  0
 59 60  1  0  0  0
 59 61  1  0  0  0
 37 38  1  0  0  0
 63 66  1  0  0  0
 63 67  1  0  0  0
 38 39  1  0  0  0
 64 66  1  0  0  0
 39 40  1  0  0  0
 65 66  1  0  0  0
 65 68  1  0  0  0
 40 41  1  0  0  0
 41 42  1  0  0  0
 42 43  1  0  0  0
 43 44  1  0  0  0
 44 45  1  0  0  0
 45 46  1  0  0  0
  4  6  1  0  0  0
  6  7  1  0  0  0
  7  8  1  0  0  0
  8  9  1  0  0  0
  9 10  1  0  0  0
 10 11  1  0  0  0
 11 12  1  0  0  0
 12 13  1  0  0  0
 13 14  1  0  0  0
 14 15  1  0  0  0
 15 16  1  0  0  0
 16 17  1  0  0  0
 17 18  1  0  0  0
 18 19  1  0  0  0
 19 20  2  0  0  0
 20 21  1  0  0  0
 21 22  1  0  0  0
 22 23  1  0  0  0
 23 24  1  0  0  0
 24 25  1  0  0  0
 25 26  1  0  0  0
 26 27  1  0  0  0
 27 28  1  0  0  0
 52 53  1  0  0  0
 53 54  1  0  0  0
 54 55  1  0  0  0
 55 56  1  0  0  0
 56 60  1  0  0  0
M  CHG 1  64  -1
M  END
> <minimizedAffinity>
-9.17423

> <CNNscore>
0.1609557569

> <CNNaffinity>
7.2997407913

> <CNN_VS>
1.1749353409

> <CNNaffinity_variance>
0.6662452221

$$$$
/media/chris/experiments/cd1a-new-docking/inputs/ligands/7ryn_ligand.pdb


 68 68  0  0  0  0  0  0  0  0999 V2000
  -34.8803   60.8082   63.6687 C   0  0  0  0  0  0  0  0  0  0  0  0
  -35.8680   60.5559   64.7137 N   0  0  0  0  0  0  0  0  0  0  0  0
  -37.4953   61.8208   63.8084 O   0  0  0  0  0  0  0  0  0  0  0  0
  -37.0963   61.0807   64.7027 C   0  0  0  0  0  0  0  0  0  0  0  0
  -35.6163   59.9701   65.4638 H   0  0  0  0  0  0  0  0  0  0  0  0
  -37.9790   60.6994   65.8649 C   0  0  0  0  0  0  0  0  0  0  0  0
  -38.4602   59.2562   65.7851 C   0  0  0  0  0  0  0  0  0  0  0  0
  -39.9677   59.1489   65.6207 C   0  0  0  0  0  0  0  0  0  0  0  0
  -40.7312   60.3582   66.1344 C   0  0  0  0  0  0  0  0  0  0  0  0
  -41.9046   60.0071   67.0368 C   0  0  0  0  0  0  0  0  0  0  0  0
  -42.6505   58.7456   66.6211 C   0  0  0  0  0  0  0  0  0  0  0  0
  -44.1666   58.8722   66.6966 C   0  0  0  0  0  0  0  0  0  0  0  0
  -44.9283   57.6100   66.3000 C   0  0  0  0  0  0  0  0  0  0  0  0
  -46.3618   57.8677   65.8387 C   0  0  0  0  0  0  0  0  0  0  0  0
  -46.4997   58.9349   64.7531 C   0  0  0  0  0  0  0  0  0  0  0  0
  -47.9434   59.3775   64.5144 C   0  0  0  0  0  0  0  0  0  0  0  0
  -48.8201   59.4287   65.7655 C   0  0  0  0  0  0  0  0  0  0  0  0
  -50.2459   58.9039   65.5761 C   0  0  0  0  0  0  0  0  0  0  0  0
  -51.1015   59.8238   64.7540 C   0  0  0  0  0  0  0  0  0  0  0  0
  -51.4504   59.6423   63.4926 C   0  0  0  0  0  0  0  0  0  0  0  0
  -51.0643   58.4796   62.6293 C   0  0  0  0  0  0  0  0  0  0  0  0
  -50.2346   58.8720   61.4050 C   0  0  0  0  0  0  0  0  0  0  0  0
  -49.0357   57.9619   61.1733 C   0  0  0  0  0  0  0  0  0  0  0  0
  -48.8070   57.6249   59.7042 C   0  0  0  0  0  0  0  0  0  0  0  0
  -48.2164   56.2412   59.4584 C   0  0  0  0  0  0  0  0  0  0  0  0
  -47.6666   56.0504   58.0518 C   0  0  0  0  0  0  0  0  0  0  0  0
  -47.8974   57.2353   57.1275 C   0  0  0  0  0  0  0  0  0  0  0  0
  -46.6728   58.1155   56.9806 C   0  0  0  0  0  0  0  0  0  0  0  0
  -33.2837   59.6980   62.2358 O   0  0  0  0  0  0  0  0  0  0  0  0
  -34.0545   59.5339   63.4297 C   0  0  0  0  0  0  0  0  0  0  0  0
  -32.7254   60.4870   62.3173 H   0  0  0  0  0  0  0  0  0  0  0  0
  -34.9308   58.3223   63.3395 C   0  0  0  0  0  0  0  0  0  0  0  0
  -36.0251   58.2308   62.6101 C   0  0  0  0  0  0  0  0  0  0  0  0
  -36.8703   57.0021   62.5295 C   0  0  0  0  0  0  0  0  0  0  0  0
  -38.2233   57.3063   61.8830 C   0  0  0  0  0  0  0  0  0  0  0  0
  -38.1690   58.3641   60.7927 C   0  0  0  0  0  0  0  0  0  0  0  0
  -39.4804   58.5664   60.0528 C   0  0  0  0  0  0  0  0  0  0  0  0
  -40.2269   59.8311   60.4513 C   0  0  0  0  0  0  0  0  0  0  0  0
  -39.7732   60.4151   61.7803 C   0  0  0  0  0  0  0  0  0  0  0  0
  -40.9055   60.9847   62.6167 C   0  0  0  0  0  0  0  0  0  0  0  0
  -42.2801   60.4749   62.2255 C   0  0  0  0  0  0  0  0  0  0  0  0
  -43.0046   59.7408   63.3407 C   0  0  0  0  0  0  0  0  0  0  0  0
  -43.3392   58.3039   62.9860 C   0  0  0  0  0  0  0  0  0  0  0  0
  -42.2183   57.5527   62.2934 C   0  0  0  0  0  0  0  0  0  0  0  0
  -41.3986   56.7138   63.2541 C   0  0  0  0  0  0  0  0  0  0  0  0
  -41.3279   55.2588   62.8390 C   0  0  0  0  0  0  0  0  0  0  0  0
  -34.0092   61.9870   64.0508 C   0  0  0  0  0  0  0  0  0  0  0  0
  -33.5119   62.5878   62.8498 O   0  0  0  0  0  0  0  0  0  0  0  0
  -32.2657   63.8351   60.6745 O   0  0  0  0  0  0  0  0  0  0  0  0
  -32.9757   66.9967   63.5068 O   0  0  0  0  0  0  0  0  0  0  0  0
  -32.7407   64.2335   64.2729 O   0  0  0  0  0  0  0  0  0  0  0  0
  -32.5163   63.5473   63.0555 C   0  0  0  0  0  0  0  0  0  0  0  0
  -32.5522   64.5223   61.8859 C   0  0  0  0  0  0  0  0  0  0  0  0
  -31.5399   65.6384   62.1111 C   0  0  0  0  0  0  0  0  0  0  0  0
  -31.7394   66.2911   63.4710 C   0  0  0  0  0  0  0  0  0  0  0  0
  -31.7366   65.2203   64.5591 C   0  0  0  0  0  0  0  0  0  0  0  0
  -32.9161   63.1278   60.5424 H   0  0  0  0  0  0  0  0  0  0  0  0
  -32.9796   67.6777   62.8162 H   0  0  0  0  0  0  0  0  0  0  0  0
  -30.8563   65.9402   66.7029 O   0  0  0  0  0  0  0  0  0  0  0  0
  -32.0410   65.7683   65.9336 C   0  0  0  0  0  0  0  0  0  0  0  0
  -31.0864   66.2922   67.5769 H   0  0  0  0  0  0  0  0  0  0  0  0
  -31.8224   66.6117   61.0564 O   0  0  0  0  0  0  0  0  0  0  0  0
  -30.9028   65.8498   58.9634 O   0  0  0  0  0  0  0  0  0  0  0  0
  -29.4956   67.1723   60.5717 O   0  0  0  0  0  0  0  0  0  0  0  0
  -31.2657   68.1696   59.3433 O   0  0  0  0  0  0  0  0  0  0  0  0
  -30.7216   66.8605   59.9385 S   0  0  0  0  0  0  0  0  0  0  0  0
  -30.5691   65.0061   59.3064 H   0  0  0  0  0  0  0  0  0  0  0  0
  -32.1099   67.9961   58.8982 H   0  0  0  0  0  0  0  0  0  0  0  0
  2  1  1  0  0  0
  2  4  1  0  0  0
  2  5  1  0  0  0
 47 48  1  0  0  0
 47  1  1  0  0  0
 48 52  1  0  0  0
  1 30  1  0  0  0
 29 30  1  0  0  0
 29 31  1  0  0  0
 30 32  1  0  0  0
  3  4  2  0  0  0
 32 33  2  0  0  0
 49 53  1  0  0  0
 49 57  1  0  0  0
 33 34  1  0  0  0
 62 54  1  0  0  0
 62 66  1  0  0  0
 34 35  1  0  0  0
 50 55  1  0  0  0
 50 58  1  0  0  0
 35 36  1  0  0  0
 51 52  1  0  0  0
 51 56  1  0  0  0
 36 37  1  0  0  0
 59 60  1  0  0  0
 59 61  1  0  0  0
 37 38  1  0  0  0
 63 66  1  0  0  0
 63 67  1  0  0  0
 38 39  1  0  0  0
 64 66  1  0  0  0
 39 40  1  0  0  0
 65 66  1  0  0  0
 65 68  1  0  0  0
 40 41  1  0  0  0
 41 42  1  0  0  0
 42 43  1  0  0  0
 43 44  1  0  0  0
 44 45  1  0  0  0
 45 46  1  0  0  0
  4  6  1  0  0  0
  6  7  1  0  0  0
  7  8  1  0  0  0
  8  9  1  0  0  0
  9 10  1  0  0  0
 10 11  1  0  0  0
 11 12  1  0  0  0
 12 13  1  0  0  0
 13 14  1  0  0  0
 14 15  1  0  0  0
 15 16  1  0  0  0
 16 17  1  0  0  0
 17 18  1  0  0  0
 18 19  1  0  0  0
 19 20  2  0  0  0
 20 21  1  0  0  0
 21 22  1  0  0  0
 22 23  1  0  0  0
 23 24  1  0  0  0
 24 25  1  0  0  0
 25 26  1  0  0  0
 26 27  1  0  0  0
 27 28  1  0  0  0
 52 53  1  0  0  0
 53 54  1  0  0  0
 54 55  1  0  0  0
 55 56  1  0  0  0
 56 60  1  0  0  0
M  CHG 1  64  -1
M  END
> <minimizedAffinity>
-9.55743

> <CNNscore>
0.1566164345

> <CNNaffinity>
7.0462827682

> <CNN_VS>
1.1035636663

> <CNNaffinity_variance>
1.0472157001

$$$$
/media/chris/experiments/cd1a-new-docking/inputs/ligands/7ryn_ligand.pdb


 68 68  0  0  0  0  0  0  0  0999 V2000
  -38.9061   58.8551   63.0329 C   0  0  0  0  0  0  0  0  0  0  0  0
  -39.5804   57.5641   63.1340 N   0  0  0  0  0  0  0  0  0  0  0  0
  -41.2621   58.0671   61.7246 O   0  0  0  0  0  0  0  0  0  0  0  0
  -40.7037   57.2708   62.4735 C   0  0  0  0  0  0  0  0  0  0  0  0
  -39.1877   56.8757   63.7180 H   0  0  0  0  0  0  0  0  0  0  0  0
  -41.2493   55.8826   62.6987 C   0  0  0  0  0  0  0  0  0  0  0  0
  -41.6339   55.6340   64.1516 C   0  0  0  0  0  0  0  0  0  0  0  0
  -42.6663   56.6259   64.6629 C   0  0  0  0  0  0  0  0  0  0  0  0
  -42.1046   57.6584   65.6261 C   0  0  0  0  0  0  0  0  0  0  0  0
  -42.8975   57.7902   66.9178 C   0  0  0  0  0  0  0  0  0  0  0  0
  -43.6124   59.1264   67.0727 C   0  0  0  0  0  0  0  0  0  0  0  0
  -45.1301   59.0109   67.1327 C   0  0  0  0  0  0  0  0  0  0  0  0
  -45.6810   57.6603   66.6825 C   0  0  0  0  0  0  0  0  0  0  0  0
  -47.1987   57.6344   66.5082 C   0  0  0  0  0  0  0  0  0  0  0  0
  -47.6811   57.9053   65.0833 C   0  0  0  0  0  0  0  0  0  0  0  0
  -47.6274   59.3824   64.6929 C   0  0  0  0  0  0  0  0  0  0  0  0
  -48.8519   60.2036   65.0964 C   0  0  0  0  0  0  0  0  0  0  0  0
  -50.1333   59.3918   65.3037 C   0  0  0  0  0  0  0  0  0  0  0  0
  -51.3082   59.9562   64.5587 C   0  0  0  0  0  0  0  0  0  0  0  0
  -51.6083   59.7299   63.2920 C   0  0  0  0  0  0  0  0  0  0  0  0
  -50.8373   58.8614   62.3446 C   0  0  0  0  0  0  0  0  0  0  0  0
  -49.8949   59.6408   61.4250 C   0  0  0  0  0  0  0  0  0  0  0  0
  -49.1818   58.7602   60.4075 C   0  0  0  0  0  0  0  0  0  0  0  0
  -49.8889   57.4334   60.1549 C   0  0  0  0  0  0  0  0  0  0  0  0
  -48.9529   56.2593   59.8920 C   0  0  0  0  0  0  0  0  0  0  0  0
  -47.6123   56.6654   59.2962 C   0  0  0  0  0  0  0  0  0  0  0  0
  -47.4599   56.3305   57.8210 C   0  0  0  0  0  0  0  0  0  0  0  0
  -47.5096   57.5554   56.9303 C   0  0  0  0  0  0  0  0  0  0  0  0
  -38.4111   58.3862   60.7155 O   0  0  0  0  0  0  0  0  0  0  0  0
  -37.8129   58.7759   61.9552 C   0  0  0  0  0  0  0  0  0  0  0  0
  -39.1111   59.0158   60.4824 H   0  0  0  0  0  0  0  0  0  0  0  0
  -36.7248   57.8240   62.3477 C   0  0  0  0  0  0  0  0  0  0  0  0
  -35.4345   58.0922   62.3141 C   0  0  0  0  0  0  0  0  0  0  0  0
  -34.3733   57.1255   62.7267 C   0  0  0  0  0  0  0  0  0  0  0  0
  -33.0628   57.8490   63.0432 C   0  0  0  0  0  0  0  0  0  0  0  0
  -32.6564   58.8839   62.0066 C   0  0  0  0  0  0  0  0  0  0  0  0
  -31.7066   59.9494   62.5267 C   0  0  0  0  0  0  0  0  0  0  0  0
  -31.1859   60.8922   61.4516 C   0  0  0  0  0  0  0  0  0  0  0  0
  -29.6789   61.0929   61.4929 C   0  0  0  0  0  0  0  0  0  0  0  0
  -29.1506   61.4804   62.8630 C   0  0  0  0  0  0  0  0  0  0  0  0
  -29.5832   62.8594   63.3249 C   0  0  0  0  0  0  0  0  0  0  0  0
  -29.6178   63.8972   62.2162 C   0  0  0  0  0  0  0  0  0  0  0  0
  -29.7393   65.3175   62.7363 C   0  0  0  0  0  0  0  0  0  0  0  0
  -29.5458   65.4545   64.2343 C   0  0  0  0  0  0  0  0  0  0  0  0
  -30.3420   66.6031   64.8220 C   0  0  0  0  0  0  0  0  0  0  0  0
  -30.9561   66.2575   66.1627 C   0  0  0  0  0  0  0  0  0  0  0  0
  -38.3466   59.2560   64.3821 C   0  0  0  0  0  0  0  0  0  0  0  0
  -38.3892   60.6840   64.4812 O   0  0  0  0  0  0  0  0  0  0  0  0
  -36.5891   61.2661   62.4167 O   0  0  0  0  0  0  0  0  0  0  0  0
  -36.4760   64.7137   64.9903 O   0  0  0  0  0  0  0  0  0  0  0  0
  -37.2561   62.1010   65.9083 O   0  0  0  0  0  0  0  0  0  0  0  0
  -37.1553   61.2787   64.7607 C   0  0  0  0  0  0  0  0  0  0  0  0
  -36.7472   62.1092   63.5508 C   0  0  0  0  0  0  0  0  0  0  0  0
  -35.4473   62.8475   63.8443 C   0  0  0  0  0  0  0  0  0  0  0  0
  -35.5499   63.6421   65.1378 C   0  0  0  0  0  0  0  0  0  0  0  0
  -36.0131   62.7254   66.2673 C   0  0  0  0  0  0  0  0  0  0  0  0
  -37.4224   60.8021   62.2402 H   0  0  0  0  0  0  0  0  0  0  0  0
  -36.1835   65.2975   64.2730 H   0  0  0  0  0  0  0  0  0  0  0  0
  -36.5957   62.5607   68.6173 O   0  0  0  0  0  0  0  0  0  0  0  0
  -36.2506   63.4572   67.5676 C   0  0  0  0  0  0  0  0  0  0  0  0
  -36.7411   63.0612   69.4353 H   0  0  0  0  0  0  0  0  0  0  0  0
  -35.2822   63.7666   62.7186 O   0  0  0  0  0  0  0  0  0  0  0  0
  -33.4727   63.5026   61.1493 O   0  0  0  0  0  0  0  0  0  0  0  0
  -33.0266   64.2910   63.4934 O   0  0  0  0  0  0  0  0  0  0  0  0
  -34.1115   65.6695   61.8936 O   0  0  0  0  0  0  0  0  0  0  0  0
  -33.8136   64.2226   62.3200 S   0  0  0  0  0  0  0  0  0  0  0  0
  -33.2775   62.5813   61.3816 H   0  0  0  0  0  0  0  0  0  0  0  0
  -34.6519   65.6644   61.0881 H   0  0  0  0  0  0  0  0  0  0  0  0
  2  1  1  0  0  0
  2  4  1  0  0  0
  2  5  1  0  0  0
 47 48  1  0  0  0
 47  1  1  0  0  0
 48 52  1  0  0  0
  1 30  1  0  0  0
 29 30  1  0  0  0
 29 31  1  0  0  0
 30 32  1  0  0  0
  3  4  2  0  0  0
 32 33  2  0  0  0
 49 53  1  0  0  0
 49 57  1  0  0  0
 33 34  1  0  0  0
 62 54  1  0  0  0
 62 66  1  0  0  0
 34 35  1  0  0  0
 50 55  1  0  0  0
 50 58  1  0  0  0
 35 36  1  0  0  0
 51 52  1  0  0  0
 51 56  1  0  0  0
 36 37  1  0  0  0
 59 60  1  0  0  0
 59 61  1  0  0  0
 37 38  1  0  0  0
 63 66  1  0  0  0
 63 67  1  0  0  0
 38 39  1  0  0  0
 64 66  1  0  0  0
 39 40  1  0  0  0
 65 66  1  0  0  0
 65 68  1  0  0  0
 40 41  1  0  0  0
 41 42  1  0  0  0
 42 43  1  0  0  0
 43 44  1  0  0  0
 44 45  1  0  0  0
 45 46  1  0  0  0
  4  6  1  0  0  0
  6  7  1  0  0  0
  7  8  1  0  0  0
  8  9  1  0  0  0
  9 10  1  0  0  0
 10 11  1  0  0  0
 11 12  1  0  0  0
 12 13  1  0  0  0
 13 14  1  0  0  0
 14 15  1  0  0  0
 15 16  1  0  0  0
 16 17  1  0  0  0
 17 18  1  0  0  0
 18 19  1  0  0  0
 19 20  2  0  0  0
 20 21  1  0  0  0
 21 22  1  0  0  0
 22 23  1  0  0  0
 23 24  1  0  0  0
 24 25  1  0  0  0
 25 26  1  0  0  0
 26 27  1  0  0  0
 27 28  1  0  0  0
 52 53  1  0  0  0
 53 54  1  0  0  0
 54 55  1  0  0  0
 55 56  1  0  0  0
 56 60  1  0  0  0
M  CHG 1  64  -1
M  END
> <minimizedAffinity>
-9.43184

> <CNNscore>
0.1560148448

> <CNNaffinity>
6.9101958275

> <CNN_VS>
1.0780931711

> <CNNaffinity_variance>
0.7379343510

$$$$
/media/chris/experiments/cd1a-new-docking/inputs/ligands/7ryn_ligand.pdb


 68 68  0  0  0  0  0  0  0  0999 V2000
  -37.0742   61.6546   65.0595 C   0  0  0  0  0  0  0  0  0  0  0  0
  -37.6226   60.3556   65.4378 N   0  0  0  0  0  0  0  0  0  0  0  0
  -39.6285   60.6546   64.4607 O   0  0  0  0  0  0  0  0  0  0  0  0
  -38.8546   59.9571   65.1098 C   0  0  0  0  0  0  0  0  0  0  0  0
  -37.0563   59.7430   65.9605 H   0  0  0  0  0  0  0  0  0  0  0  0
  -39.2419   58.5783   65.5835 C   0  0  0  0  0  0  0  0  0  0  0  0
  -40.6859   58.2287   65.2473 C   0  0  0  0  0  0  0  0  0  0  0  0
  -40.7993   57.0134   64.3409 C   0  0  0  0  0  0  0  0  0  0  0  0
  -42.2284   56.6494   63.9741 C   0  0  0  0  0  0  0  0  0  0  0  0
  -42.9871   57.7662   63.2730 C   0  0  0  0  0  0  0  0  0  0  0  0
  -44.0556   58.4259   64.1353 C   0  0  0  0  0  0  0  0  0  0  0  0
  -44.4093   57.6377   65.3899 C   0  0  0  0  0  0  0  0  0  0  0  0
  -44.8155   58.4971   66.5845 C   0  0  0  0  0  0  0  0  0  0  0  0
  -46.1454   58.0921   67.2185 C   0  0  0  0  0  0  0  0  0  0  0  0
  -47.3400   58.9456   66.7932 C   0  0  0  0  0  0  0  0  0  0  0  0
  -47.9190   58.5489   65.4351 C   0  0  0  0  0  0  0  0  0  0  0  0
  -47.6942   59.5637   64.3142 C   0  0  0  0  0  0  0  0  0  0  0  0
  -48.7953   60.6173   64.1676 C   0  0  0  0  0  0  0  0  0  0  0  0
  -50.1008   60.1842   64.7695 C   0  0  0  0  0  0  0  0  0  0  0  0
  -51.1105   59.6299   64.1222 C   0  0  0  0  0  0  0  0  0  0  0  0
  -51.1544   59.3191   62.6567 C   0  0  0  0  0  0  0  0  0  0  0  0
  -50.3496   58.0773   62.2674 C   0  0  0  0  0  0  0  0  0  0  0  0
  -50.2481   57.8732   60.7617 C   0  0  0  0  0  0  0  0  0  0  0  0
  -48.8194   57.6572   60.2755 C   0  0  0  0  0  0  0  0  0  0  0  0
  -48.6271   56.4148   59.4132 C   0  0  0  0  0  0  0  0  0  0  0  0
  -47.2264   56.2828   58.8320 C   0  0  0  0  0  0  0  0  0  0  0  0
  -47.1818   56.2715   57.3123 C   0  0  0  0  0  0  0  0  0  0  0  0
  -47.5090   57.6197   56.7029 C   0  0  0  0  0  0  0  0  0  0  0  0
  -37.1021   61.4618   62.6518 O   0  0  0  0  0  0  0  0  0  0  0  0
  -36.2294   61.4994   63.7847 C   0  0  0  0  0  0  0  0  0  0  0  0
  -37.6460   62.2648   62.6359 H   0  0  0  0  0  0  0  0  0  0  0  0
  -35.3722   60.2723   63.8417 C   0  0  0  0  0  0  0  0  0  0  0  0
  -34.0909   60.2563   64.1517 C   0  0  0  0  0  0  0  0  0  0  0  0
  -33.2661   59.0128   64.2145 C   0  0  0  0  0  0  0  0  0  0  0  0
  -32.7754   58.6072   62.8232 C   0  0  0  0  0  0  0  0  0  0  0  0
  -33.4337   57.3531   62.2714 C   0  0  0  0  0  0  0  0  0  0  0  0
  -34.8371   57.1017   62.7962 C   0  0  0  0  0  0  0  0  0  0  0  0
  -35.9347   57.7411   61.9583 C   0  0  0  0  0  0  0  0  0  0  0  0
  -37.3395   57.3520   62.3921 C   0  0  0  0  0  0  0  0  0  0  0  0
  -38.4009   58.3697   62.0128 C   0  0  0  0  0  0  0  0  0  0  0  0
  -38.9480   58.1978   60.6080 C   0  0  0  0  0  0  0  0  0  0  0  0
  -40.4595   58.0585   60.5489 C   0  0  0  0  0  0  0  0  0  0  0  0
  -41.1666   59.3736   60.2783 C   0  0  0  0  0  0  0  0  0  0  0  0
  -41.3305   60.2591   61.4987 C   0  0  0  0  0  0  0  0  0  0  0  0
  -42.2673   61.4251   61.2509 C   0  0  0  0  0  0  0  0  0  0  0  0
  -42.9655   61.8871   62.5131 C   0  0  0  0  0  0  0  0  0  0  0  0
  -36.2719   62.2338   66.2064 C   0  0  0  0  0  0  0  0  0  0  0  0
  -36.5680   63.6315   66.3027 O   0  0  0  0  0  0  0  0  0  0  0  0
  -34.0038   64.0484   67.3476 O   0  0  0  0  0  0  0  0  0  0  0  0
  -33.4050   63.5235   63.1182 O   0  0  0  0  0  0  0  0  0  0  0  0
  -35.8916   64.4308   64.2455 O   0  0  0  0  0  0  0  0  0  0  0  0
  -35.6570   64.4600   65.6410 C   0  0  0  0  0  0  0  0  0  0  0  0
  -34.2525   63.9584   65.9505 C   0  0  0  0  0  0  0  0  0  0  0  0
  -33.2276   64.7797   65.1785 C   0  0  0  0  0  0  0  0  0  0  0  0
  -33.5619   64.8161   63.6946 C   0  0  0  0  0  0  0  0  0  0  0  0
  -35.0031   65.2827   63.5049 C   0  0  0  0  0  0  0  0  0  0  0  0
  -34.6620   63.5219   67.8277 H   0  0  0  0  0  0  0  0  0  0  0  0
  -32.4899   63.2251   63.2375 H   0  0  0  0  0  0  0  0  0  0  0  0
  -35.6024   63.9045   61.5995 O   0  0  0  0  0  0  0  0  0  0  0  0
  -35.4569   65.2415   62.0645 C   0  0  0  0  0  0  0  0  0  0  0  0
  -35.8937   63.9137   60.6745 H   0  0  0  0  0  0  0  0  0  0  0  0
  -31.9626   64.0728   65.3766 O   0  0  0  0  0  0  0  0  0  0  0  0
  -30.2394   65.6337   66.0099 O   0  0  0  0  0  0  0  0  0  0  0  0
  -30.7372   65.1935   63.5862 O   0  0  0  0  0  0  0  0  0  0  0  0
  -29.6709   63.5767   64.9595 O   0  0  0  0  0  0  0  0  0  0  0  0
  -30.6152   64.7899   64.9366 S   0  0  0  0  0  0  0  0  0  0  0  0
  -30.8168   66.4130   66.0259 H   0  0  0  0  0  0  0  0  0  0  0  0
  -29.5614   63.2694   65.8730 H   0  0  0  0  0  0  0  0  0  0  0  0
  2  1  1  0  0  0
  2  4  1  0  0  0
  2  5  1  0  0  0
 47 48  1  0  0  0
 47  1  1  0  0  0
 48 52  1  0  0  0
  1 30  1  0  0  0
 29 30  1  0  0  0
 29 31  1  0  0  0
 30 32  1  0  0  0
  3  4  2  0  0  0
 32 33  2  0  0  0
 49 53  1  0  0  0
 49 57  1  0  0  0
 33 34  1  0  0  0
 62 54  1  0  0  0
 62 66  1  0  0  0
 34 35  1  0  0  0
 50 55  1  0  0  0
 50 58  1  0  0  0
 35 36  1  0  0  0
 51 52  1  0  0  0
 51 56  1  0  0  0
 36 37  1  0  0  0
 59 60  1  0  0  0
 59 61  1  0  0  0
 37 38  1  0  0  0
 63 66  1  0  0  0
 63 67  1  0  0  0
 38 39  1  0  0  0
 64 66  1  0  0  0
 39 40  1  0  0  0
 65 66  1  0  0  0
 65 68  1  0  0  0
 40 41  1  0  0  0
 41 42  1  0  0  0
 42 43  1  0  0  0
 43 44  1  0  0  0
 44 45  1  0  0  0
 45 46  1  0  0  0
  4  6  1  0  0  0
  6  7  1  0  0  0
  7  8  1  0  0  0
  8  9  1  0  0  0
  9 10  1  0  0  0
 10 11  1  0  0  0
 11 12  1  0  0  0
 12 13  1  0  0  0
 13 14  1  0  0  0
 14 15  1  0  0  0
 15 16  1  0  0  0
 16 17  1  0  0  0
 17 18  1  0  0  0
 18 19  1  0  0  0
 19 20  2  0  0  0
 20 21  1  0  0  0
 21 22  1  0  0  0
 22 23  1  0  0  0
 23 24  1  0  0  0
 24 25  1  0  0  0
 25 26  1  0  0  0
 26 27  1  0  0  0
 27 28  1  0  0  0
 52 53  1  0  0  0
 53 54  1  0  0  0
 54 55  1  0  0  0
 55 56  1  0  0  0
 56 60  1  0  0  0
M  CHG 1  64  -1
M  END
> <minimizedAffinity>
-9.67094

> <CNNscore>
0.1538949609

> <CNNaffinity>
7.3223180771

> <CNN_VS>
1.1268678904

> <CNNaffinity_variance>
1.2487502098

$$$$
/media/chris/experiments/cd1a-new-docking/inputs/ligands/7ryn_ligand.pdb


 68 68  0  0  0  0  0  0  0  0999 V2000
  -35.6353   62.1342   64.6346 C   0  0  0  0  0  0  0  0  0  0  0  0
  -36.8606   61.4887   64.1728 N   0  0  0  0  0  0  0  0  0  0  0  0
  -36.8479   62.4055   62.1168 O   0  0  0  0  0  0  0  0  0  0  0  0
  -37.3709   61.6740   62.9524 C   0  0  0  0  0  0  0  0  0  0  0  0
  -37.3343   60.8871   64.7916 H   0  0  0  0  0  0  0  0  0  0  0  0
  -38.6404   60.9157   62.6542 C   0  0  0  0  0  0  0  0  0  0  0  0
  -38.6679   60.3555   61.2379 C   0  0  0  0  0  0  0  0  0  0  0  0
  -39.4994   59.0878   61.1247 C   0  0  0  0  0  0  0  0  0  0  0  0
  -40.7913   59.2659   60.3445 C   0  0  0  0  0  0  0  0  0  0  0  0
  -41.8180   58.1719   60.5966 C   0  0  0  0  0  0  0  0  0  0  0  0
  -41.3044   57.0269   61.4601 C   0  0  0  0  0  0  0  0  0  0  0  0
  -42.0627   56.8536   62.7698 C   0  0  0  0  0  0  0  0  0  0  0  0
  -43.0683   57.9618   63.0712 C   0  0  0  0  0  0  0  0  0  0  0  0
  -43.8030   57.7907   64.3998 C   0  0  0  0  0  0  0  0  0  0  0  0
  -45.1214   58.5574   64.5022 C   0  0  0  0  0  0  0  0  0  0  0  0
  -46.0871   57.9730   65.5332 C   0  0  0  0  0  0  0  0  0  0  0  0
  -47.0856   58.9692   66.1225 C   0  0  0  0  0  0  0  0  0  0  0  0
  -48.2269   59.3702   65.1840 C   0  0  0  0  0  0  0  0  0  0  0  0
  -49.5704   58.9075   65.6687 C   0  0  0  0  0  0  0  0  0  0  0  0
  -50.7072   58.9816   64.9993 C   0  0  0  0  0  0  0  0  0  0  0  0
  -50.8835   59.5401   63.6198 C   0  0  0  0  0  0  0  0  0  0  0  0
  -50.8705   58.4765   62.5198 C   0  0  0  0  0  0  0  0  0  0  0  0
  -49.8129   58.7265   61.4529 C   0  0  0  0  0  0  0  0  0  0  0  0
  -49.6443   57.5619   60.4837 C   0  0  0  0  0  0  0  0  0  0  0  0
  -48.5628   57.7694   59.4296 C   0  0  0  0  0  0  0  0  0  0  0  0
  -47.7747   56.5086   59.1035 C   0  0  0  0  0  0  0  0  0  0  0  0
  -47.3172   56.4175   57.6564 C   0  0  0  0  0  0  0  0  0  0  0  0
  -47.2379   57.7697   56.9771 C   0  0  0  0  0  0  0  0  0  0  0  0
  -34.3130   61.9677   66.6492 O   0  0  0  0  0  0  0  0  0  0  0  0
  -34.8947   61.1921   65.5973 C   0  0  0  0  0  0  0  0  0  0  0  0
  -35.0063   62.4779   67.0961 H   0  0  0  0  0  0  0  0  0  0  0  0
  -33.8509   60.3892   64.8833 C   0  0  0  0  0  0  0  0  0  0  0  0
  -33.4269   60.6175   63.6560 C   0  0  0  0  0  0  0  0  0  0  0  0
  -32.3726   59.8069   62.9763 C   0  0  0  0  0  0  0  0  0  0  0  0
  -32.9778   58.9197   61.8866 C   0  0  0  0  0  0  0  0  0  0  0  0
  -33.0931   57.4532   62.2697 C   0  0  0  0  0  0  0  0  0  0  0  0
  -34.4394   57.0649   62.8569 C   0  0  0  0  0  0  0  0  0  0  0  0
  -35.6080   57.8737   62.3130 C   0  0  0  0  0  0  0  0  0  0  0  0
  -36.9154   57.6302   63.0509 C   0  0  0  0  0  0  0  0  0  0  0  0
  -36.7818   57.6735   64.5630 C   0  0  0  0  0  0  0  0  0  0  0  0
  -37.9205   58.3909   65.2638 C   0  0  0  0  0  0  0  0  0  0  0  0
  -39.2975   58.0136   64.7452 C   0  0  0  0  0  0  0  0  0  0  0  0
  -40.4247   58.5654   65.5982 C   0  0  0  0  0  0  0  0  0  0  0  0
  -40.2732   60.0292   65.9653 C   0  0  0  0  0  0  0  0  0  0  0  0
  -41.5822   60.6597   66.3984 C   0  0  0  0  0  0  0  0  0  0  0  0
  -42.4485   59.7079   67.1972 C   0  0  0  0  0  0  0  0  0  0  0  0
  -35.9607   63.4655   65.2796 C   0  0  0  0  0  0  0  0  0  0  0  0
  -34.7299   64.1252   65.5969 O   0  0  0  0  0  0  0  0  0  0  0  0
  -32.0642   63.6242   64.9010 O   0  0  0  0  0  0  0  0  0  0  0  0
  -34.1736   63.7987   61.1537 O   0  0  0  0  0  0  0  0  0  0  0  0
  -35.1140   65.1011   63.5405 O   0  0  0  0  0  0  0  0  0  0  0  0
  -34.1395   64.7916   64.5192 C   0  0  0  0  0  0  0  0  0  0  0  0
  -33.0706   63.8805   63.9297 C   0  0  0  0  0  0  0  0  0  0  0  0
  -32.4588   64.5312   62.6955 C   0  0  0  0  0  0  0  0  0  0  0  0
  -33.5368   64.9466   61.7053 C   0  0  0  0  0  0  0  0  0  0  0  0
  -34.5773   65.8111   62.4129 C   0  0  0  0  0  0  0  0  0  0  0  0
  -32.4657   63.2104   65.6810 H   0  0  0  0  0  0  0  0  0  0  0  0
  -33.5142   63.2480   60.7035 H   0  0  0  0  0  0  0  0  0  0  0  0
  -36.2367   67.4804   61.8221 O   0  0  0  0  0  0  0  0  0  0  0  0
  -35.7468   66.1769   61.5292 C   0  0  0  0  0  0  0  0  0  0  0  0
  -36.9848   67.6833   61.2391 H   0  0  0  0  0  0  0  0  0  0  0  0
  -31.6265   63.4858   62.1008 O   0  0  0  0  0  0  0  0  0  0  0  0
  -29.8852   64.4700   60.7570 O   0  0  0  0  0  0  0  0  0  0  0  0
  -29.3759   62.5617   62.3110 O   0  0  0  0  0  0  0  0  0  0  0  0
  -29.8754   64.7371   63.1205 O   0  0  0  0  0  0  0  0  0  0  0  0
  -30.0657   63.7460   61.9605 S   0  0  0  0  0  0  0  0  0  0  0  0
  -29.9986   63.8734   60.0006 H   0  0  0  0  0  0  0  0  0  0  0  0
  -30.3362   65.5659   62.9165 H   0  0  0  0  0  0  0  0  0  0  0  0
  2  1  1  0  0  0
  2  4  1  0  0  0
  2  5  1  0  0  0
 47 48  1  0  0  0
 47  1  1  0  0  0
 48 52  1  0  0  0
  1 30  1  0  0  0
 29 30  1  0  0  0
 29 31  1  0  0  0
 30 32  1  0  0  0
  3  4  2  0  0  0
 32 33  2  0  0  0
 49 53  1  0  0  0
 49 57  1  0  0  0
 33 34  1  0  0  0
 62 54  1  0  0  0
 62 66  1  0  0  0
 34 35  1  0  0  0
 50 55  1  0  0  0
 50 58  1  0  0  0
 35 36  1  0  0  0
 51 52  1  0  0  0
 51 56  1  0  0  0
 36 37  1  0  0  0
 59 60  1  0  0  0
 59 61  1  0  0  0
 37 38  1  0  0  0
 63 66  1  0  0  0
 63 67  1  0  0  0
 38 39  1  0  0  0
 64 66  1  0  0  0
 39 40  1  0  0  0
 65 66  1  0  0  0
 65 68  1  0  0  0
 40 41  1  0  0  0
 41 42  1  0  0  0
 42 43  1  0  0  0
 43 44  1  0  0  0
 44 45  1  0  0  0
 45 46  1  0  0  0
  4  6  1  0  0  0
  6  7  1  0  0  0
  7  8  1  0  0  0
  8  9  1  0  0  0
  9 10  1  0  0  0
 10 11  1  0  0  0
 11 12  1  0  0  0
 12 13  1  0  0  0
 13 14  1  0  0  0
 14 15  1  0  0  0
 15 16  1  0  0  0
 16 17  1  0  0  0
 17 18  1  0  0  0
 18 19  1  0  0  0
 19 20  2  0  0  0
 20 21  1  0  0  0
 21 22  1  0  0  0
 22 23  1  0  0  0
 23 24  1  0  0  0
 24 25  1  0  0  0
 25 26  1  0  0  0
 26 27  1  0  0  0
 27 28  1  0  0  0
 52 53  1  0  0  0
 53 54  1  0  0  0
 54 55  1  0  0  0
 55 56  1  0  0  0
 56 60  1  0  0  0
M  CHG 1  64  -1
M  END
> <minimizedAffinity>
-9.31993

> <CNNscore>
0.1376287341

> <CNNaffinity>
7.2172722816

> <CNN_VS>
0.9933040738

> <CNNaffinity_variance>
1.6045221090

$$$$
/media/chris/experiments/cd1a-new-docking/inputs/ligands/7ryn_ligand.pdb


 68 68  0  0  0  0  0  0  0  0999 V2000
  -37.2049   59.5756   63.1538 C   0  0  0  0  0  0  0  0  0  0  0  0
  -38.5927   59.6637   62.7092 N   0  0  0  0  0  0  0  0  0  0  0  0
  -38.1203   60.1087   60.5536 O   0  0  0  0  0  0  0  0  0  0  0  0
  -38.9421   59.9229   61.4463 C   0  0  0  0  0  0  0  0  0  0  0  0
  -39.3063   59.5252   63.3731 H   0  0  0  0  0  0  0  0  0  0  0  0
  -40.4254   59.9670   61.1759 C   0  0  0  0  0  0  0  0  0  0  0  0
  -40.8729   58.8926   60.1930 C   0  0  0  0  0  0  0  0  0  0  0  0
  -40.7741   57.4903   60.7719 C   0  0  0  0  0  0  0  0  0  0  0  0
  -41.4557   57.3311   62.1207 C   0  0  0  0  0  0  0  0  0  0  0  0
  -41.3685   55.9237   62.6918 C   0  0  0  0  0  0  0  0  0  0  0  0
  -41.6352   55.8450   64.1895 C   0  0  0  0  0  0  0  0  0  0  0  0
  -42.9368   56.5088   64.6202 C   0  0  0  0  0  0  0  0  0  0  0  0
  -42.8146   57.4038   65.8508 C   0  0  0  0  0  0  0  0  0  0  0  0
  -44.1545   57.7844   66.4787 C   0  0  0  0  0  0  0  0  0  0  0  0
  -45.1167   58.5082   65.5370 C   0  0  0  0  0  0  0  0  0  0  0  0
  -46.5678   58.0481   65.6777 C   0  0  0  0  0  0  0  0  0  0  0  0
  -47.4304   58.9018   66.6070 C   0  0  0  0  0  0  0  0  0  0  0  0
  -48.6070   59.6075   65.9275 C   0  0  0  0  0  0  0  0  0  0  0  0
  -48.2025   60.3564   64.6908 C   0  0  0  0  0  0  0  0  0  0  0  0
  -48.9409   60.5289   63.6087 C   0  0  0  0  0  0  0  0  0  0  0  0
  -50.3326   60.0136   63.3996 C   0  0  0  0  0  0  0  0  0  0  0  0
  -50.3875   58.5396   62.9925 C   0  0  0  0  0  0  0  0  0  0  0  0
  -49.3549   58.1676   61.9367 C   0  0  0  0  0  0  0  0  0  0  0  0
  -49.6211   58.8070   60.5786 C   0  0  0  0  0  0  0  0  0  0  0  0
  -49.5514   57.8409   59.4015 C   0  0  0  0  0  0  0  0  0  0  0  0
  -48.4399   56.8077   59.5214 C   0  0  0  0  0  0  0  0  0  0  0  0
  -47.2763   57.0322   58.5689 C   0  0  0  0  0  0  0  0  0  0  0  0
  -47.7142   57.5587   57.2172 C   0  0  0  0  0  0  0  0  0  0  0  0
  -37.3463   58.0082   64.9863 O   0  0  0  0  0  0  0  0  0  0  0  0
  -36.9123   58.1436   63.6299 C   0  0  0  0  0  0  0  0  0  0  0  0
  -38.2885   58.2299   65.0480 H   0  0  0  0  0  0  0  0  0  0  0  0
  -35.4585   57.8083   63.4964 C   0  0  0  0  0  0  0  0  0  0  0  0
  -34.7277   58.0190   62.4196 C   0  0  0  0  0  0  0  0  0  0  0  0
  -33.2748   57.6869   62.3227 C   0  0  0  0  0  0  0  0  0  0  0  0
  -32.4595   58.4803   63.3458 C   0  0  0  0  0  0  0  0  0  0  0  0
  -32.3025   59.9544   63.0093 C   0  0  0  0  0  0  0  0  0  0  0  0
  -31.9799   60.2313   61.5508 C   0  0  0  0  0  0  0  0  0  0  0  0
  -30.6850   61.0020   61.3392 C   0  0  0  0  0  0  0  0  0  0  0  0
  -29.6279   60.7223   62.3963 C   0  0  0  0  0  0  0  0  0  0  0  0
  -28.9843   61.9750   62.9645 C   0  0  0  0  0  0  0  0  0  0  0  0
  -29.9486   63.1295   63.1635 C   0  0  0  0  0  0  0  0  0  0  0  0
  -29.2675   64.4708   63.3752 C   0  0  0  0  0  0  0  0  0  0  0  0
  -29.4162   65.4056   62.1892 C   0  0  0  0  0  0  0  0  0  0  0  0
  -29.8698   64.7276   60.9105 C   0  0  0  0  0  0  0  0  0  0  0  0
  -30.4474   65.7054   59.9060 C   0  0  0  0  0  0  0  0  0  0  0  0
  -31.3923   66.7025   60.5440 C   0  0  0  0  0  0  0  0  0  0  0  0
  -36.9405   60.6004   64.2374 C   0  0  0  0  0  0  0  0  0  0  0  0
  -35.6152   61.1127   64.0593 O   0  0  0  0  0  0  0  0  0  0  0  0
  -34.2264   62.1601   66.2537 O   0  0  0  0  0  0  0  0  0  0  0  0
  -33.0213   64.5941   62.9152 O   0  0  0  0  0  0  0  0  0  0  0  0
  -35.5096   63.1515   62.9820 O   0  0  0  0  0  0  0  0  0  0  0  0
  -35.5037   62.4949   64.2359 C   0  0  0  0  0  0  0  0  0  0  0  0
  -34.1988   62.7727   64.9707 C   0  0  0  0  0  0  0  0  0  0  0  0
  -33.9920   64.2758   65.1086 C   0  0  0  0  0  0  0  0  0  0  0  0
  -34.1053   64.9692   63.7589 C   0  0  0  0  0  0  0  0  0  0  0  0
  -35.4227   64.5812   63.0921 C   0  0  0  0  0  0  0  0  0  0  0  0
  -34.3584   61.2044   66.1528 H   0  0  0  0  0  0  0  0  0  0  0  0
  -32.1831   64.8398   63.3371 H   0  0  0  0  0  0  0  0  0  0  0  0
  -35.2704   64.1568   60.7076 O   0  0  0  0  0  0  0  0  0  0  0  0
  -35.5684   65.1372   61.6949 C   0  0  0  0  0  0  0  0  0  0  0  0
  -35.3732   64.5452   59.8248 H   0  0  0  0  0  0  0  0  0  0  0  0
  -32.6276   64.4160   65.6163 O   0  0  0  0  0  0  0  0  0  0  0  0
  -32.8368   66.0811   67.3457 O   0  0  0  0  0  0  0  0  0  0  0  0
  -32.1104   66.7291   65.0288 O   0  0  0  0  0  0  0  0  0  0  0  0
  -30.6953   65.5019   66.4877 O   0  0  0  0  0  0  0  0  0  0  0  0
  -32.1515   65.8419   66.1298 S   0  0  0  0  0  0  0  0  0  0  0  0
  -33.7629   66.2996   67.1572 H   0  0  0  0  0  0  0  0  0  0  0  0
  -30.6816   64.8926   67.2423 H   0  0  0  0  0  0  0  0  0  0  0  0
  2  1  1  0  0  0
  2  4  1  0  0  0
  2  5  1  0  0  0
 47 48  1  0  0  0
 47  1  1  0  0  0
 48 52  1  0  0  0
  1 30  1  0  0  0
 29 30  1  0  0  0
 29 31  1  0  0  0
 30 32  1  0  0  0
  3  4  2  0  0  0
 32 33  2  0  0  0
 49 53  1  0  0  0
 49 57  1  0  0  0
 33 34  1  0  0  0
 62 54  1  0  0  0
 62 66  1  0  0  0
 34 35  1  0  0  0
 50 55  1  0  0  0
 50 58  1  0  0  0
 35 36  1  0  0  0
 51 52  1  0  0  0
 51 56  1  0  0  0
 36 37  1  0  0  0
 59 60  1  0  0  0
 59 61  1  0  0  0
 37 38  1  0  0  0
 63 66  1  0  0  0
 63 67  1  0  0  0
 38 39  1  0  0  0
 64 66  1  0  0  0
 39 40  1  0  0  0
 65 66  1  0  0  0
 65 68  1  0  0  0
 40 41  1  0  0  0
 41 42  1  0  0  0
 42 43  1  0  0  0
 43 44  1  0  0  0
 44 45  1  0  0  0
 45 46  1  0  0  0
  4  6  1  0  0  0
  6  7  1  0  0  0
  7  8  1  0  0  0
  8  9  1  0  0  0
  9 10  1  0  0  0
 10 11  1  0  0  0
 11 12  1  0  0  0
 12 13  1  0  0  0
 13 14  1  0  0  0
 14 15  1  0  0  0
 15 16  1  0  0  0
 16 17  1  0  0  0
 17 18  1  0  0  0
 18 19  1  0  0  0
 19 20  2  0  0  0
 20 21  1  0  0  0
 21 22  1  0  0  0
 22 23  1  0  0  0
 23 24  1  0  0  0
 24 25  1  0  0  0
 25 26  1  0  0  0
 26 27  1  0  0  0
 27 28  1  0  0  0
 52 53  1  0  0  0
 53 54  1  0  0  0
 54 55  1  0  0  0
 55 56  1  0  0  0
 56 60  1  0  0  0
M  CHG 1  64  -1
M  END
> <minimizedAffinity>
-9.51517

> <CNNscore>
0.1246546134

> <CNNaffinity>
6.8387632370

> <CNN_VS>
0.8524833918

> <CNNaffinity_variance>
0.8736451864

$$$$
