/media/chris/experiments/cd1a-new-docking/inputs/ligands/7ryn_ligand.pdb


 68 68  0  0  0  0  0  0  0  0999 V2000
  -37.5350   60.7488   64.5148 C   0  0  0  0  0  0  0  0  0  0  0  0
  -38.6800   59.8528   64.6469 N   0  0  0  0  0  0  0  0  0  0  0  0
  -39.7859   61.1066   66.1544 O   0  0  0  0  0  0  0  0  0  0  0  0
  -39.7145   60.1005   65.4547 C   0  0  0  0  0  0  0  0  0  0  0  0
  -38.6902   59.0249   64.1142 H   0  0  0  0  0  0  0  0  0  0  0  0
  -40.8081   59.0617   65.4514 C   0  0  0  0  0  0  0  0  0  0  0  0
  -41.8474   59.3031   66.5388 C   0  0  0  0  0  0  0  0  0  0  0  0
  -42.5543   58.0274   66.9681 C   0  0  0  0  0  0  0  0  0  0  0  0
  -43.3782   57.3794   65.8678 C   0  0  0  0  0  0  0  0  0  0  0  0
  -44.5718   58.2108   65.4222 C   0  0  0  0  0  0  0  0  0  0  0  0
  -45.4467   58.7030   66.5681 C   0  0  0  0  0  0  0  0  0  0  0  0
  -46.3299   57.6221   67.1783 C   0  0  0  0  0  0  0  0  0  0  0  0
  -47.0975   56.7819   66.1608 C   0  0  0  0  0  0  0  0  0  0  0  0
  -48.2269   57.5339   65.4585 C   0  0  0  0  0  0  0  0  0  0  0  0
  -49.1241   58.3498   66.3889 C   0  0  0  0  0  0  0  0  0  0  0  0
  -49.1408   59.8435   66.0633 C   0  0  0  0  0  0  0  0  0  0  0  0
  -48.3539   60.2426   64.8151 C   0  0  0  0  0  0  0  0  0  0  0  0
  -49.2119   60.6562   63.6165 C   0  0  0  0  0  0  0  0  0  0  0  0
  -50.6400   60.2093   63.7395 C   0  0  0  0  0  0  0  0  0  0  0  0
  -51.1607   59.1139   63.2156 C   0  0  0  0  0  0  0  0  0  0  0  0
  -50.4294   58.0950   62.3951 C   0  0  0  0  0  0  0  0  0  0  0  0
  -51.1360   57.7384   61.0856 C   0  0  0  0  0  0  0  0  0  0  0  0
  -50.1900   57.6517   59.8952 C   0  0  0  0  0  0  0  0  0  0  0  0
  -49.0128   56.7108   60.1254 C   0  0  0  0  0  0  0  0  0  0  0  0
  -47.7413   57.0960   59.3779 C   0  0  0  0  0  0  0  0  0  0  0  0
  -47.1756   55.9777   58.5139 C   0  0  0  0  0  0  0  0  0  0  0  0
  -47.0708   56.3245   57.0372 C   0  0  0  0  0  0  0  0  0  0  0  0
  -47.4874   57.7497   56.7355 C   0  0  0  0  0  0  0  0  0  0  0  0
  -37.0563   62.5014   62.9229 O   0  0  0  0  0  0  0  0  0  0  0  0
  -37.3329   61.1021   63.0325 C   0  0  0  0  0  0  0  0  0  0  0  0
  -36.2799   62.7207   63.4614 H   0  0  0  0  0  0  0  0  0  0  0  0
  -38.5285   60.7263   62.2119 C   0  0  0  0  0  0  0  0  0  0  0  0
  -38.4846   60.2354   60.9892 C   0  0  0  0  0  0  0  0  0  0  0  0
  -39.6957   59.8560   60.2017 C   0  0  0  0  0  0  0  0  0  0  0  0
  -40.9612   59.9563   61.0559 C   0  0  0  0  0  0  0  0  0  0  0  0
  -41.9079   58.7763   60.9080 C   0  0  0  0  0  0  0  0  0  0  0  0
  -42.4826   58.2683   62.2193 C   0  0  0  0  0  0  0  0  0  0  0  0
  -41.9360   56.9155   62.6516 C   0  0  0  0  0  0  0  0  0  0  0  0
  -40.5973   56.5671   62.0193 C   0  0  0  0  0  0  0  0  0  0  0  0
  -39.4019   56.9031   62.8936 C   0  0  0  0  0  0  0  0  0  0  0  0
  -38.0984   57.0459   62.1302 C   0  0  0  0  0  0  0  0  0  0  0  0
  -36.8989   57.3487   63.0117 C   0  0  0  0  0  0  0  0  0  0  0  0
  -35.6988   57.8490   62.2294 C   0  0  0  0  0  0  0  0  0  0  0  0
  -34.4101   57.1015   62.5139 C   0  0  0  0  0  0  0  0  0  0  0  0
  -33.1894   57.9983   62.4459 C   0  0  0  0  0  0  0  0  0  0  0  0
  -32.5332   58.1885   63.7978 C   0  0  0  0  0  0  0  0  0  0  0  0
  -36.3025   60.1095   65.1202 C   0  0  0  0  0  0  0  0  0  0  0  0
  -35.1608   60.5255   64.3625 O   0  0  0  0  0  0  0  0  0  0  0  0
  -32.7130   61.2779   63.2296 O   0  0  0  0  0  0  0  0  0  0  0  0
  -34.2656   64.8780   65.0046 O   0  0  0  0  0  0  0  0  0  0  0  0
  -35.0143   62.2463   65.8941 O   0  0  0  0  0  0  0  0  0  0  0  0
  -34.2870   61.3694   65.0542 C   0  0  0  0  0  0  0  0  0  0  0  0
  -33.4873   62.1629   64.0291 C   0  0  0  0  0  0  0  0  0  0  0  0
  -32.5815   63.1611   64.7392 C   0  0  0  0  0  0  0  0  0  0  0  0
  -33.3736   64.0224   65.7117 C   0  0  0  0  0  0  0  0  0  0  0  0
  -34.1730   63.1275   66.6555 C   0  0  0  0  0  0  0  0  0  0  0  0
  -33.3002   60.6479   62.7832 H   0  0  0  0  0  0  0  0  0  0  0  0
  -33.7597   65.4477   64.4043 H   0  0  0  0  0  0  0  0  0  0  0  0
  -36.1001   63.0747   68.1294 O   0  0  0  0  0  0  0  0  0  0  0  0
  -35.0780   63.9016   67.5850 C   0  0  0  0  0  0  0  0  0  0  0  0
  -36.6617   63.6010   68.7197 H   0  0  0  0  0  0  0  0  0  0  0  0
  -32.0459   64.0009   63.6681 O   0  0  0  0  0  0  0  0  0  0  0  0
  -29.9880   64.2543   64.8959 O   0  0  0  0  0  0  0  0  0  0  0  0
  -31.3153   66.2703   64.1960 O   0  0  0  0  0  0  0  0  0  0  0  0
  -30.1255   64.9468   62.6245 O   0  0  0  0  0  0  0  0  0  0  0  0
  -30.8223   64.9597   63.9950 S   0  0  0  0  0  0  0  0  0  0  0  0
  -30.3983   64.2424   65.7748 H   0  0  0  0  0  0  0  0  0  0  0  0
  -29.7723   64.0604   62.4497 H   0  0  0  0  0  0  0  0  0  0  0  0
  2  1  1  0  0  0
  2  4  1  0  0  0
  2  5  1  0  0  0
 47 48  1  0  0  0
 47  1  1  0  0  0
 48 52  1  0  0  0
  1 30  1  0  0  0
 29 30  1  0  0  0
 29 31  1  0  0  0
 30 32  1  0  0  0
  3  4  2  0  0  0
 32 33  2  0  0  0
 49 53  1  0  0  0
 49 57  1  0  0  0
 33 34  1  0  0  0
 62 54  1  0  0  0
 62 66  1  0  0  0
 34 35  1  0  0  0
 50 55  1  0  0  0
 50 58  1  0  0  0
 35 36  1  0  0  0
 51 52  1  0  0  0
 51 56  1  0  0  0
 36 37  1  0  0  0
 59 60  1  0  0  0
 59 61  1  0  0  0
 37 38  1  0  0  0
 63 66  1  0  0  0
 63 67  1  0  0  0
 38 39  1  0  0  0
 64 66  1  0  0  0
 39 40  1  0  0  0
 65 66  1  0  0  0
 65 68  1  0  0  0
 40 41  1  0  0  0
 41 42  1  0  0  0
 42 43  1  0  0  0
 43 44  1  0  0  0
 44 45  1  0  0  0
 45 46  1  0  0  0
  4  6  1  0  0  0
  6  7  1  0  0  0
  7  8  1  0  0  0
  8  9  1  0  0  0
  9 10  1  0  0  0
 10 11  1  0  0  0
 11 12  1  0  0  0
 12 13  1  0  0  0
 13 14  1  0  0  0
 14 15  1  0  0  0
 15 16  1  0  0  0
 16 17  1  0  0  0
 17 18  1  0  0  0
 18 19  1  0  0  0
 19 20  2  0  0  0
 20 21  1  0  0  0
 21 22  1  0  0  0
 22 23  1  0  0  0
 23 24  1  0  0  0
 24 25  1  0  0  0
 25 26  1  0  0  0
 26 27  1  0  0  0
 27 28  1  0  0  0
 52 53  1  0  0  0
 53 54  1  0  0  0
 54 55  1  0  0  0
 55 56  1  0  0  0
 56 60  1  0  0  0
M  CHG 1  64  -1
M  END
> <minimizedAffinity>
-9.33553

> <CNNscore>
0.2193718851

> <CNNaffinity>
7.4501581192

> <CNN_VS>
1.6343551874

> <CNNaffinity_variance>
1.4015388489

$$$$
/media/chris/experiments/cd1a-new-docking/inputs/ligands/7ryn_ligand.pdb


 68 68  0  0  0  0  0  0  0  0999 V2000
  -35.5320   62.2280   64.7534 C   0  0  0  0  0  0  0  0  0  0  0  0
  -36.5284   61.5632   65.5880 N   0  0  0  0  0  0  0  0  0  0  0  0
  -38.0269   61.2282   63.9417 O   0  0  0  0  0  0  0  0  0  0  0  0
  -37.6961   61.1157   65.1185 C   0  0  0  0  0  0  0  0  0  0  0  0
  -36.3298   61.4384   66.5442 H   0  0  0  0  0  0  0  0  0  0  0  0
  -38.5936   60.4485   66.1308 C   0  0  0  0  0  0  0  0  0  0  0  0
  -39.5735   59.4734   65.4907 C   0  0  0  0  0  0  0  0  0  0  0  0
  -40.9913   60.0192   65.4341 C   0  0  0  0  0  0  0  0  0  0  0  0
  -41.5200   60.5013   66.7747 C   0  0  0  0  0  0  0  0  0  0  0  0
  -42.7731   59.7745   67.2394 C   0  0  0  0  0  0  0  0  0  0  0  0
  -42.8364   58.3135   66.8125 C   0  0  0  0  0  0  0  0  0  0  0  0
  -44.0042   57.9906   65.8891 C   0  0  0  0  0  0  0  0  0  0  0  0
  -45.2958   57.6122   66.6094 C   0  0  0  0  0  0  0  0  0  0  0  0
  -46.3733   58.6944   66.5642 C   0  0  0  0  0  0  0  0  0  0  0  0
  -46.7748   59.1354   65.1569 C   0  0  0  0  0  0  0  0  0  0  0  0
  -48.1772   58.6800   64.7528 C   0  0  0  0  0  0  0  0  0  0  0  0
  -49.0755   58.2460   65.9109 C   0  0  0  0  0  0  0  0  0  0  0  0
  -50.5607   58.5720   65.7324 C   0  0  0  0  0  0  0  0  0  0  0  0
  -50.7943   59.7637   64.8495 C   0  0  0  0  0  0  0  0  0  0  0  0
  -51.0243   59.7356   63.5487 C   0  0  0  0  0  0  0  0  0  0  0  0
  -51.1011   58.5076   62.6931 C   0  0  0  0  0  0  0  0  0  0  0  0
  -50.0238   58.4461   61.6081 C   0  0  0  0  0  0  0  0  0  0  0  0
  -50.4265   57.6010   60.4069 C   0  0  0  0  0  0  0  0  0  0  0  0
  -49.3681   56.5807   60.0031 C   0  0  0  0  0  0  0  0  0  0  0  0
  -48.0846   57.1883   59.4487 C   0  0  0  0  0  0  0  0  0  0  0  0
  -47.1813   56.1813   58.7510 C   0  0  0  0  0  0  0  0  0  0  0  0
  -47.1922   56.2819   57.2339 C   0  0  0  0  0  0  0  0  0  0  0  0
  -47.6000   57.6541   56.7371 C   0  0  0  0  0  0  0  0  0  0  0  0
  -33.7640   61.5728   63.2436 O   0  0  0  0  0  0  0  0  0  0  0  0
  -34.3499   61.2750   64.5142 C   0  0  0  0  0  0  0  0  0  0  0  0
  -33.4943   62.5043   63.2222 H   0  0  0  0  0  0  0  0  0  0  0  0
  -34.7793   59.8415   64.5836 C   0  0  0  0  0  0  0  0  0  0  0  0
  -34.8546   59.0221   63.5536 C   0  0  0  0  0  0  0  0  0  0  0  0
  -35.2726   57.5921   63.6577 C   0  0  0  0  0  0  0  0  0  0  0  0
  -36.5678   57.4544   64.4604 C   0  0  0  0  0  0  0  0  0  0  0  0
  -37.8329   57.5499   63.6232 C   0  0  0  0  0  0  0  0  0  0  0  0
  -37.7004   56.9757   62.2230 C   0  0  0  0  0  0  0  0  0  0  0  0
  -38.3261   57.8399   61.1380 C   0  0  0  0  0  0  0  0  0  0  0  0
  -38.1048   59.3309   61.3411 C   0  0  0  0  0  0  0  0  0  0  0  0
  -39.1967   60.1988   60.7404 C   0  0  0  0  0  0  0  0  0  0  0  0
  -40.4758   60.2357   61.5558 C   0  0  0  0  0  0  0  0  0  0  0  0
  -41.6561   59.5593   60.8799 C   0  0  0  0  0  0  0  0  0  0  0  0
  -41.8350   58.1137   61.3053 C   0  0  0  0  0  0  0  0  0  0  0  0
  -42.1297   57.9272   62.7813 C   0  0  0  0  0  0  0  0  0  0  0  0
  -41.3285   56.7967   63.3970 C   0  0  0  0  0  0  0  0  0  0  0  0
  -41.2584   55.5790   62.4989 C   0  0  0  0  0  0  0  0  0  0  0  0
  -35.0944   63.5256   65.4009 C   0  0  0  0  0  0  0  0  0  0  0  0
  -34.7767   64.4615   64.3645 O   0  0  0  0  0  0  0  0  0  0  0  0
  -33.9138   64.0260   61.7365 O   0  0  0  0  0  0  0  0  0  0  0  0
  -31.6027   67.3827   63.1197 O   0  0  0  0  0  0  0  0  0  0  0  0
  -32.7535   65.4362   64.8985 O   0  0  0  0  0  0  0  0  0  0  0  0
  -33.4178   64.5250   64.0430 C   0  0  0  0  0  0  0  0  0  0  0  0
  -33.2968   64.9780   62.5938 C   0  0  0  0  0  0  0  0  0  0  0  0
  -31.8282   65.1460   62.2248 C   0  0  0  0  0  0  0  0  0  0  0  0
  -31.1144   66.0488   63.2200 C   0  0  0  0  0  0  0  0  0  0  0  0
  -31.3440   65.5316   64.6379 C   0  0  0  0  0  0  0  0  0  0  0  0
  -34.8473   63.9279   61.9811 H   0  0  0  0  0  0  0  0  0  0  0  0
  -31.4577   67.7133   62.2195 H   0  0  0  0  0  0  0  0  0  0  0  0
  -29.8052   67.3347   65.1573 O   0  0  0  0  0  0  0  0  0  0  0  0
  -30.7625   66.4334   65.7014 C   0  0  0  0  0  0  0  0  0  0  0  0
  -29.4524   67.8973   65.8643 H   0  0  0  0  0  0  0  0  0  0  0  0
  -31.8486   65.7881   60.9108 O   0  0  0  0  0  0  0  0  0  0  0  0
  -31.0074   65.8772   58.6544 O   0  0  0  0  0  0  0  0  0  0  0  0
  -29.8054   64.5461   60.4148 O   0  0  0  0  0  0  0  0  0  0  0  0
  -29.8104   66.9203   60.4255 O   0  0  0  0  0  0  0  0  0  0  0  0
  -30.5665   65.6572   59.9820 S   0  0  0  0  0  0  0  0  0  0  0  0
  -31.4907   65.0969   58.3407 H   0  0  0  0  0  0  0  0  0  0  0  0
  -30.3033   67.7074   60.1454 H   0  0  0  0  0  0  0  0  0  0  0  0
  2  1  1  0  0  0
  2  4  1  0  0  0
  2  5  1  0  0  0
 47 48  1  0  0  0
 47  1  1  0  0  0
 48 52  1  0  0  0
  1 30  1  0  0  0
 29 30  1  0  0  0
 29 31  1  0  0  0
 30 32  1  0  0  0
  3  4  2  0  0  0
 32 33  2  0  0  0
 49 53  1  0  0  0
 49 57  1  0  0  0
 33 34  1  0  0  0
 62 54  1  0  0  0
 62 66  1  0  0  0
 34 35  1  0  0  0
 50 55  1  0  0  0
 50 58  1  0  0  0
 35 36  1  0  0  0
 51 52  1  0  0  0
 51 56  1  0  0  0
 36 37  1  0  0  0
 59 60  1  0  0  0
 59 61  1  0  0  0
 37 38  1  0  0  0
 63 66  1  0  0  0
 63 67  1  0  0  0
 38 39  1  0  0  0
 64 66  1  0  0  0
 39 40  1  0  0  0
 65 66  1  0  0  0
 65 68  1  0  0  0
 40 41  1  0  0  0
 41 42  1  0  0  0
 42 43  1  0  0  0
 43 44  1  0  0  0
 44 45  1  0  0  0
 45 46  1  0  0  0
  4  6  1  0  0  0
  6  7  1  0  0  0
  7  8  1  0  0  0
  8  9  1  0  0  0
  9 10  1  0  0  0
 10 11  1  0  0  0
 11 12  1  0  0  0
 12 13  1  0  0  0
 13 14  1  0  0  0
 14 15  1  0  0  0
 15 16  1  0  0  0
 16 17  1  0  0  0
 17 18  1  0  0  0
 18 19  1  0  0  0
 19 20  2  0  0  0
 20 21  1  0  0  0
 21 22  1  0  0  0
 22 23  1  0  0  0
 23 24  1  0  0  0
 24 25  1  0  0  0
 25 26  1  0  0  0
 26 27  1  0  0  0
 27 28  1  0  0  0
 52 53  1  0  0  0
 53 54  1  0  0  0
 54 55  1  0  0  0
 55 56  1  0  0  0
 56 60  1  0  0  0
M  CHG 1  64  -1
M  END
> <minimizedAffinity>
-9.16952

> <CNNscore>
0.1940361559

> <CNNaffinity>
7.1187996864

> <CNN_VS>
1.3813045025

> <CNNaffinity_variance>
0.8305785060

$$$$
/media/chris/experiments/cd1a-new-docking/inputs/ligands/7ryn_ligand.pdb


 68 68  0  0  0  0  0  0  0  0999 V2000
  -36.1631   61.1538   65.2997 C   0  0  0  0  0  0  0  0  0  0  0  0
  -37.3492   60.3548   65.5932 N   0  0  0  0  0  0  0  0  0  0  0  0
  -38.5860   61.1340   63.8813 O   0  0  0  0  0  0  0  0  0  0  0  0
  -38.4664   60.4066   64.8629 C   0  0  0  0  0  0  0  0  0  0  0  0
  -37.3244   59.7476   66.3679 H   0  0  0  0  0  0  0  0  0  0  0  0
  -39.5847   59.5017   65.3163 C   0  0  0  0  0  0  0  0  0  0  0  0
  -40.9013   60.2458   65.4997 C   0  0  0  0  0  0  0  0  0  0  0  0
  -41.6018   59.8865   66.8002 C   0  0  0  0  0  0  0  0  0  0  0  0
  -42.4094   58.6010   66.7304 C   0  0  0  0  0  0  0  0  0  0  0  0
  -43.8948   58.8200   66.4861 C   0  0  0  0  0  0  0  0  0  0  0  0
  -44.4964   57.8840   65.4455 C   0  0  0  0  0  0  0  0  0  0  0  0
  -46.0172   57.9368   65.3740 C   0  0  0  0  0  0  0  0  0  0  0  0
  -46.7278   57.4671   66.6408 C   0  0  0  0  0  0  0  0  0  0  0  0
  -47.4899   58.5710   67.3723 C   0  0  0  0  0  0  0  0  0  0  0  0
  -48.1553   59.5993   66.4579 C   0  0  0  0  0  0  0  0  0  0  0  0
  -49.0709   58.9753   65.4045 C   0  0  0  0  0  0  0  0  0  0  0  0
  -50.5501   59.3375   65.5361 C   0  0  0  0  0  0  0  0  0  0  0  0
  -51.1920   59.8999   64.2651 C   0  0  0  0  0  0  0  0  0  0  0  0
  -50.1828   60.2739   63.2182 C   0  0  0  0  0  0  0  0  0  0  0  0
  -49.9760   59.6430   62.0759 C   0  0  0  0  0  0  0  0  0  0  0  0
  -50.7096   58.4283   61.5939 C   0  0  0  0  0  0  0  0  0  0  0  0
  -49.8582   57.1568   61.5914 C   0  0  0  0  0  0  0  0  0  0  0  0
  -49.4589   56.7022   60.1939 C   0  0  0  0  0  0  0  0  0  0  0  0
  -48.1053   57.2420   59.7459 C   0  0  0  0  0  0  0  0  0  0  0  0
  -47.2214   56.2211   59.0387 C   0  0  0  0  0  0  0  0  0  0  0  0
  -47.6028   55.9830   57.5844 C   0  0  0  0  0  0  0  0  0  0  0  0
  -47.8217   57.2558   56.7820 C   0  0  0  0  0  0  0  0  0  0  0  0
  -46.6833   58.2456   56.9247 C   0  0  0  0  0  0  0  0  0  0  0  0
  -33.9660   60.9517   64.3166 O   0  0  0  0  0  0  0  0  0  0  0  0
  -34.9766   60.2189   65.0151 C   0  0  0  0  0  0  0  0  0  0  0  0
  -33.7060   61.7248   64.8416 H   0  0  0  0  0  0  0  0  0  0  0  0
  -35.4034   59.0151   64.2322 C   0  0  0  0  0  0  0  0  0  0  0  0
  -35.5285   58.9693   62.9206 C   0  0  0  0  0  0  0  0  0  0  0  0
  -35.9421   57.7479   62.1671 C   0  0  0  0  0  0  0  0  0  0  0  0
  -37.3544   57.3103   62.5609 C   0  0  0  0  0  0  0  0  0  0  0  0
  -38.4481   57.8386   61.6469 C   0  0  0  0  0  0  0  0  0  0  0  0
  -37.9380   58.4727   60.3641 C   0  0  0  0  0  0  0  0  0  0  0  0
  -38.7124   59.7106   59.9354 C   0  0  0  0  0  0  0  0  0  0  0  0
  -39.6538   60.2430   61.0047 C   0  0  0  0  0  0  0  0  0  0  0  0
  -41.1220   60.1539   60.6266 C   0  0  0  0  0  0  0  0  0  0  0  0
  -42.0725   60.5487   61.7414 C   0  0  0  0  0  0  0  0  0  0  0  0
  -42.6359   59.3698   62.5162 C   0  0  0  0  0  0  0  0  0  0  0  0
  -41.6322   58.2467   62.7006 C   0  0  0  0  0  0  0  0  0  0  0  0
  -42.1600   56.8704   62.3436 C   0  0  0  0  0  0  0  0  0  0  0  0
  -41.4531   55.7616   63.0985 C   0  0  0  0  0  0  0  0  0  0  0  0
  -41.7636   55.7794   64.5809 C   0  0  0  0  0  0  0  0  0  0  0  0
  -35.8782   62.1013   66.4466 C   0  0  0  0  0  0  0  0  0  0  0  0
  -36.5243   63.3493   66.1711 O   0  0  0  0  0  0  0  0  0  0  0  0
  -34.3084   64.5602   67.3811 O   0  0  0  0  0  0  0  0  0  0  0  0
  -32.9792   63.5222   63.4216 O   0  0  0  0  0  0  0  0  0  0  0  0
  -35.7471   63.9474   64.0814 O   0  0  0  0  0  0  0  0  0  0  0  0
  -35.7371   64.2608   65.4616 C   0  0  0  0  0  0  0  0  0  0  0  0
  -34.3179   64.1849   66.0096 C   0  0  0  0  0  0  0  0  0  0  0  0
  -33.4029   65.1003   65.2060 C   0  0  0  0  0  0  0  0  0  0  0  0
  -33.5105   64.8100   63.7163 C   0  0  0  0  0  0  0  0  0  0  0  0
  -34.9749   64.8630   63.2881 C   0  0  0  0  0  0  0  0  0  0  0  0
  -34.8939   63.9707   67.8817 H   0  0  0  0  0  0  0  0  0  0  0  0
  -32.0486   63.4864   63.6928 H   0  0  0  0  0  0  0  0  0  0  0  0
  -33.9816   64.5762   61.0926 O   0  0  0  0  0  0  0  0  0  0  0  0
  -35.1863   64.4757   61.8432 C   0  0  0  0  0  0  0  0  0  0  0  0
  -34.1518   64.3214   60.1723 H   0  0  0  0  0  0  0  0  0  0  0  0
  -32.0546   64.7753   65.6705 O   0  0  0  0  0  0  0  0  0  0  0  0
  -30.6361   66.0558   67.1385 O   0  0  0  0  0  0  0  0  0  0  0  0
  -31.4033   67.0144   64.9457 O   0  0  0  0  0  0  0  0  0  0  0  0
  -29.8057   65.2616   65.0559 O   0  0  0  0  0  0  0  0  0  0  0  0
  -30.9836   65.9443   65.7703 S   0  0  0  0  0  0  0  0  0  0  0  0
  -31.3597   66.4841   67.6220 H   0  0  0  0  0  0  0  0  0  0  0  0
  -29.4883   64.5188   65.5930 H   0  0  0  0  0  0  0  0  0  0  0  0
  2  1  1  0  0  0
  2  4  1  0  0  0
  2  5  1  0  0  0
 47 48  1  0  0  0
 47  1  1  0  0  0
 48 52  1  0  0  0
  1 30  1  0  0  0
 29 30  1  0  0  0
 29 31  1  0  0  0
 30 32  1  0  0  0
  3  4  2  0  0  0
 32 33  2  0  0  0
 49 53  1  0  0  0
 49 57  1  0  0  0
 33 34  1  0  0  0
 62 54  1  0  0  0
 62 66  1  0  0  0
 34 35  1  0  0  0
 50 55  1  0  0  0
 50 58  1  0  0  0
 35 36  1  0  0  0
 51 52  1  0  0  0
 51 56  1  0  0  0
 36 37  1  0  0  0
 59 60  1  0  0  0
 59 61  1  0  0  0
 37 38  1  0  0  0
 63 66  1  0  0  0
 63 67  1  0  0  0
 38 39  1  0  0  0
 64 66  1  0  0  0
 39 40  1  0  0  0
 65 66  1  0  0  0
 65 68  1  0  0  0
 40 41  1  0  0  0
 41 42  1  0  0  0
 42 43  1  0  0  0
 43 44  1  0  0  0
 44 45  1  0  0  0
 45 46  1  0  0  0
  4  6  1  0  0  0
  6  7  1  0  0  0
  7  8  1  0  0  0
  8  9  1  0  0  0
  9 10  1  0  0  0
 10 11  1  0  0  0
 11 12  1  0  0  0
 12 13  1  0  0  0
 13 14  1  0  0  0
 14 15  1  0  0  0
 15 16  1  0  0  0
 16 17  1  0  0  0
 17 18  1  0  0  0
 18 19  1  0  0  0
 19 20  2  0  0  0
 20 21  1  0  0  0
 21 22  1  0  0  0
 22 23  1  0  0  0
 23 24  1  0  0  0
 24 25  1  0  0  0
 25 26  1  0  0  0
 26 27  1  0  0  0
 27 28  1  0  0  0
 52 53  1  0  0  0
 53 54  1  0  0  0
 54 55  1  0  0  0
 55 56  1  0  0  0
 56 60  1  0  0  0
M  CHG 1  64  -1
M  END
> <minimizedAffinity>
-9.29271

> <CNNscore>
0.1859241575

> <CNNaffinity>
7.4493446350

> <CNN_VS>
1.3850131035

> <CNNaffinity_variance>
0.9170355797

$$$$
/media/chris/experiments/cd1a-new-docking/inputs/ligands/7ryn_ligand.pdb


 68 68  0  0  0  0  0  0  0  0999 V2000
  -34.4682   61.6082   64.0289 C   0  0  0  0  0  0  0  0  0  0  0  0
  -35.5119   61.2235   64.9743 N   0  0  0  0  0  0  0  0  0  0  0  0
  -37.2444   61.8139   63.6637 O   0  0  0  0  0  0  0  0  0  0  0  0
  -36.8163   61.3558   64.7191 C   0  0  0  0  0  0  0  0  0  0  0  0
  -35.2409   60.8478   65.8431 H   0  0  0  0  0  0  0  0  0  0  0  0
  -37.7453   60.8964   65.8150 C   0  0  0  0  0  0  0  0  0  0  0  0
  -38.1245   59.4269   65.6826 C   0  0  0  0  0  0  0  0  0  0  0  0
  -39.5726   59.2303   65.2635 C   0  0  0  0  0  0  0  0  0  0  0  0
  -40.5701   59.9988   66.1143 C   0  0  0  0  0  0  0  0  0  0  0  0
  -41.4462   59.1125   66.9867 C   0  0  0  0  0  0  0  0  0  0  0  0
  -42.9368   59.4029   66.8657 C   0  0  0  0  0  0  0  0  0  0  0  0
  -43.7720   58.1901   66.4759 C   0  0  0  0  0  0  0  0  0  0  0  0
  -45.2717   58.4583   66.3780 C   0  0  0  0  0  0  0  0  0  0  0  0
  -45.8083   58.4766   64.9476 C   0  0  0  0  0  0  0  0  0  0  0  0
  -47.1205   59.2400   64.7692 C   0  0  0  0  0  0  0  0  0  0  0  0
  -48.3148   58.5636   65.4426 C   0  0  0  0  0  0  0  0  0  0  0  0
  -49.3205   59.5176   66.0866 C   0  0  0  0  0  0  0  0  0  0  0  0
  -50.7834   59.2590   65.7161 C   0  0  0  0  0  0  0  0  0  0  0  0
  -51.2671   60.1399   64.6005 C   0  0  0  0  0  0  0  0  0  0  0  0
  -51.4144   59.7850   63.3365 C   0  0  0  0  0  0  0  0  0  0  0  0
  -51.1308   58.4301   62.7621 C   0  0  0  0  0  0  0  0  0  0  0  0
  -49.7324   58.3004   62.1546 C   0  0  0  0  0  0  0  0  0  0  0  0
  -49.5958   58.9926   60.8049 C   0  0  0  0  0  0  0  0  0  0  0  0
  -49.7201   58.0398   59.6212 C   0  0  0  0  0  0  0  0  0  0  0  0
  -48.9468   56.7354   59.7769 C   0  0  0  0  0  0  0  0  0  0  0  0
  -47.6249   56.7127   59.0225 C   0  0  0  0  0  0  0  0  0  0  0  0
  -47.7530   56.9944   57.5339 C   0  0  0  0  0  0  0  0  0  0  0  0
  -46.7207   57.9827   57.0301 C   0  0  0  0  0  0  0  0  0  0  0  0
  -33.1275   60.5621   62.3134 O   0  0  0  0  0  0  0  0  0  0  0  0
  -33.6621   60.3632   63.6252 C   0  0  0  0  0  0  0  0  0  0  0  0
  -32.5876   61.3679   62.3030 H   0  0  0  0  0  0  0  0  0  0  0  0
  -34.5035   59.1249   63.6789 C   0  0  0  0  0  0  0  0  0  0  0  0
  -35.1753   58.6204   62.6629 C   0  0  0  0  0  0  0  0  0  0  0  0
  -35.9943   57.3741   62.7446 C   0  0  0  0  0  0  0  0  0  0  0  0
  -37.4278   57.6257   62.2726 C   0  0  0  0  0  0  0  0  0  0  0  0
  -37.5287   58.2319   60.8823 C   0  0  0  0  0  0  0  0  0  0  0  0
  -38.2438   59.5714   60.8353 C   0  0  0  0  0  0  0  0  0  0  0  0
  -39.7060   59.5073   61.2518 C   0  0  0  0  0  0  0  0  0  0  0  0
  -40.6109   58.8702   60.2085 C   0  0  0  0  0  0  0  0  0  0  0  0
  -41.6273   57.9027   60.7891 C   0  0  0  0  0  0  0  0  0  0  0  0
  -41.3361   57.4839   62.2181 C   0  0  0  0  0  0  0  0  0  0  0  0
  -42.4422   57.8326   63.1992 C   0  0  0  0  0  0  0  0  0  0  0  0
  -43.1676   59.1171   62.8437 C   0  0  0  0  0  0  0  0  0  0  0  0
  -42.5357   60.3718   63.4154 C   0  0  0  0  0  0  0  0  0  0  0  0
  -42.9991   61.6310   62.7094 C   0  0  0  0  0  0  0  0  0  0  0  0
  -42.5275   61.6969   61.2715 C   0  0  0  0  0  0  0  0  0  0  0  0
  -33.5893   62.6831   64.6344 C   0  0  0  0  0  0  0  0  0  0  0  0
  -32.2219   62.3465   64.3740 O   0  0  0  0  0  0  0  0  0  0  0  0
  -31.6197   63.1876   61.7720 O   0  0  0  0  0  0  0  0  0  0  0  0
  -32.3566   66.8156   63.9666 O   0  0  0  0  0  0  0  0  0  0  0  0
  -31.5098   64.3708   65.2247 O   0  0  0  0  0  0  0  0  0  0  0  0
  -31.3889   63.4482   64.1582 C   0  0  0  0  0  0  0  0  0  0  0  0
  -31.8020   64.1017   62.8459 C   0  0  0  0  0  0  0  0  0  0  0  0
  -30.9768   65.3609   62.6123 C   0  0  0  0  0  0  0  0  0  0  0  0
  -31.0423   66.2886   63.8165 C   0  0  0  0  0  0  0  0  0  0  0  0
  -30.6590   65.5191   65.0781 C   0  0  0  0  0  0  0  0  0  0  0  0
  -32.1495   62.3910   61.9320 H   0  0  0  0  0  0  0  0  0  0  0  0
  -32.6021   67.3051   63.1661 H   0  0  0  0  0  0  0  0  0  0  0  0
  -32.0378   66.0665   66.9986 O   0  0  0  0  0  0  0  0  0  0  0  0
  -30.8053   66.3360   66.3405 C   0  0  0  0  0  0  0  0  0  0  0  0
  -32.0999   66.6055   67.8025 H   0  0  0  0  0  0  0  0  0  0  0  0
  -31.6079   66.0083   61.4626 O   0  0  0  0  0  0  0  0  0  0  0  0
  -29.8059   67.3972   60.6686 O   0  0  0  0  0  0  0  0  0  0  0  0
  -31.5237   66.4954   59.0712 O   0  0  0  0  0  0  0  0  0  0  0  0
  -29.8959   65.0938   60.0825 O   0  0  0  0  0  0  0  0  0  0  0  0
  -30.7009   66.3968   60.2176 S   0  0  0  0  0  0  0  0  0  0  0  0
  -30.2818   68.2369   60.7655 H   0  0  0  0  0  0  0  0  0  0  0  0
  -29.3167   64.9901   60.8536 H   0  0  0  0  0  0  0  0  0  0  0  0
  2  1  1  0  0  0
  2  4  1  0  0  0
  2  5  1  0  0  0
 47 48  1  0  0  0
 47  1  1  0  0  0
 48 52  1  0  0  0
  1 30  1  0  0  0
 29 30  1  0  0  0
 29 31  1  0  0  0
 30 32  1  0  0  0
  3  4  2  0  0  0
 32 33  2  0  0  0
 49 53  1  0  0  0
 49 57  1  0  0  0
 33 34  1  0  0  0
 62 54  1  0  0  0
 62 66  1  0  0  0
 34 35  1  0  0  0
 50 55  1  0  0  0
 50 58  1  0  0  0
 35 36  1  0  0  0
 51 52  1  0  0  0
 51 56  1  0  0  0
 36 37  1  0  0  0
 59 60  1  0  0  0
 59 61  1  0  0  0
 37 38  1  0  0  0
 63 66  1  0  0  0
 63 67  1  0  0  0
 38 39  1  0  0  0
 64 66  1  0  0  0
 39 40  1  0  0  0
 65 66  1  0  0  0
 65 68  1  0  0  0
 40 41  1  0  0  0
 41 42  1  0  0  0
 42 43  1  0  0  0
 43 44  1  0  0  0
 44 45  1  0  0  0
 45 46  1  0  0  0
  4  6  1  0  0  0
  6  7  1  0  0  0
  7  8  1  0  0  0
  8  9  1  0  0  0
  9 10  1  0  0  0
 10 11  1  0  0  0
 11 12  1  0  0  0
 12 13  1  0  0  0
 13 14  1  0  0  0
 14 15  1  0  0  0
 15 16  1  0  0  0
 16 17  1  0  0  0
 17 18  1  0  0  0
 18 19  1  0  0  0
 19 20  2  0  0  0
 20 21  1  0  0  0
 21 22  1  0  0  0
 22 23  1  0  0  0
 23 24  1  0  0  0
 24 25  1  0  0  0
 25 26  1  0  0  0
 26 27  1  0  0  0
 27 28  1  0  0  0
 52 53  1  0  0  0
 53 54  1  0  0  0
 54 55  1  0  0  0
 55 56  1  0  0  0
 56 60  1  0  0  0
M  CHG 1  64  -1
M  END
> <minimizedAffinity>
-9.13718

> <CNNscore>
0.1742157191

> <CNNaffinity>
7.0005378723

> <CNN_VS>
1.2196037769

> <CNNaffinity_variance>
1.1220426559

$$$$
/media/chris/experiments/cd1a-new-docking/inputs/ligands/7ryn_ligand.pdb


 68 68  0  0  0  0  0  0  0  0999 V2000
  -39.4618   59.9224   61.1642 C   0  0  0  0  0  0  0  0  0  0  0  0
  -40.2102   58.7448   61.5936 N   0  0  0  0  0  0  0  0  0  0  0  0
  -41.6702   58.7576   59.8801 O   0  0  0  0  0  0  0  0  0  0  0  0
  -41.2542   58.2546   60.9198 C   0  0  0  0  0  0  0  0  0  0  0  0
  -39.9317   58.2893   62.4208 H   0  0  0  0  0  0  0  0  0  0  0  0
  -41.8961   57.0262   61.5147 C   0  0  0  0  0  0  0  0  0  0  0  0
  -40.9549   56.2636   62.4386 C   0  0  0  0  0  0  0  0  0  0  0  0
  -41.4739   56.1794   63.8650 C   0  0  0  0  0  0  0  0  0  0  0  0
  -41.0653   57.3529   64.7397 C   0  0  0  0  0  0  0  0  0  0  0  0
  -42.2275   58.0125   65.4667 C   0  0  0  0  0  0  0  0  0  0  0  0
  -43.1086   58.8753   64.5723 C   0  0  0  0  0  0  0  0  0  0  0  0
  -44.4267   58.2171   64.1852 C   0  0  0  0  0  0  0  0  0  0  0  0
  -45.6068   58.5876   65.0800 C   0  0  0  0  0  0  0  0  0  0  0  0
  -45.6262   57.8533   66.4197 C   0  0  0  0  0  0  0  0  0  0  0  0
  -47.0083   57.3757   66.8646 C   0  0  0  0  0  0  0  0  0  0  0  0
  -48.0183   57.2842   65.7205 C   0  0  0  0  0  0  0  0  0  0  0  0
  -49.3962   57.8716   66.0250 C   0  0  0  0  0  0  0  0  0  0  0  0
  -49.4239   59.3916   66.2055 C   0  0  0  0  0  0  0  0  0  0  0  0
  -48.8535   60.1293   65.0286 C   0  0  0  0  0  0  0  0  0  0  0  0
  -49.5012   60.4496   63.9225 C   0  0  0  0  0  0  0  0  0  0  0  0
  -50.9370   60.1435   63.6211 C   0  0  0  0  0  0  0  0  0  0  0  0
  -51.1328   58.8784   62.7828 C   0  0  0  0  0  0  0  0  0  0  0  0
  -50.1719   58.7815   61.6054 C   0  0  0  0  0  0  0  0  0  0  0  0
  -50.2954   57.4749   60.8297 C   0  0  0  0  0  0  0  0  0  0  0  0
  -49.7613   57.5347   59.4032 C   0  0  0  0  0  0  0  0  0  0  0  0
  -48.2986   57.9460   59.3131 C   0  0  0  0  0  0  0  0  0  0  0  0
  -47.4793   57.1209   58.3334 C   0  0  0  0  0  0  0  0  0  0  0  0
  -47.2686   57.8203   57.0059 C   0  0  0  0  0  0  0  0  0  0  0  0
  -38.5601   58.6329   59.3314 O   0  0  0  0  0  0  0  0  0  0  0  0
  -38.1895   59.4762   60.4259 C   0  0  0  0  0  0  0  0  0  0  0  0
  -39.1739   59.1086   58.7501 H   0  0  0  0  0  0  0  0  0  0  0  0
  -37.2400   58.7729   61.3467 C   0  0  0  0  0  0  0  0  0  0  0  0
  -37.4983   57.6512   61.9893 C   0  0  0  0  0  0  0  0  0  0  0  0
  -36.5238   56.9657   62.8900 C   0  0  0  0  0  0  0  0  0  0  0  0
  -35.2424   57.7879   63.0418 C   0  0  0  0  0  0  0  0  0  0  0  0
  -34.0016   57.1186   62.4734 C   0  0  0  0  0  0  0  0  0  0  0  0
  -32.9373   58.0868   61.9860 C   0  0  0  0  0  0  0  0  0  0  0  0
  -32.6434   59.2225   62.9552 C   0  0  0  0  0  0  0  0  0  0  0  0
  -32.0849   60.4684   62.2850 C   0  0  0  0  0  0  0  0  0  0  0  0
  -30.5708   60.4735   62.1679 C   0  0  0  0  0  0  0  0  0  0  0  0
  -29.9188   61.7608   62.6372 C   0  0  0  0  0  0  0  0  0  0  0  0
  -30.6792   63.0152   62.2425 C   0  0  0  0  0  0  0  0  0  0  0  0
  -30.3060   64.2239   63.0806 C   0  0  0  0  0  0  0  0  0  0  0  0
  -30.1533   63.9357   64.5618 C   0  0  0  0  0  0  0  0  0  0  0  0
  -31.3090   64.4743   65.3822 C   0  0  0  0  0  0  0  0  0  0  0  0
  -31.9535   65.6899   64.7486 C   0  0  0  0  0  0  0  0  0  0  0  0
  -39.1483   60.8020   62.3569 C   0  0  0  0  0  0  0  0  0  0  0  0
  -37.7254   60.8763   62.5002 O   0  0  0  0  0  0  0  0  0  0  0  0
  -37.5909   61.1452   65.2842 O   0  0  0  0  0  0  0  0  0  0  0  0
  -33.9397   62.8944   63.8244 O   0  0  0  0  0  0  0  0  0  0  0  0
  -36.3244   62.6906   62.2279 O   0  0  0  0  0  0  0  0  0  0  0  0
  -37.2662   62.0634   63.0781 C   0  0  0  0  0  0  0  0  0  0  0  0
  -36.6227   61.7190   64.4150 C   0  0  0  0  0  0  0  0  0  0  0  0
  -36.0288   62.9739   65.0424 C   0  0  0  0  0  0  0  0  0  0  0  0
  -35.0991   63.6839   64.0695 C   0  0  0  0  0  0  0  0  0  0  0  0
  -35.8289   63.9330   62.7519 C   0  0  0  0  0  0  0  0  0  0  0  0
  -37.9613   60.3480   64.8742 H   0  0  0  0  0  0  0  0  0  0  0  0
  -33.4743   62.7349   64.6603 H   0  0  0  0  0  0  0  0  0  0  0  0
  -35.4735   64.3218   60.3830 O   0  0  0  0  0  0  0  0  0  0  0  0
  -34.9435   64.5353   61.6862 C   0  0  0  0  0  0  0  0  0  0  0  0
  -34.8828   64.7195   59.7245 H   0  0  0  0  0  0  0  0  0  0  0  0
  -35.2583   62.4861   66.1860 O   0  0  0  0  0  0  0  0  0  0  0  0
  -36.0208   63.2115   68.3537 O   0  0  0  0  0  0  0  0  0  0  0  0
  -34.6720   64.7487   66.8930 O   0  0  0  0  0  0  0  0  0  0  0  0
  -33.7035   62.8569   67.9514 O   0  0  0  0  0  0  0  0  0  0  0  0
  -35.0024   63.4720   67.4050 S   0  0  0  0  0  0  0  0  0  0  0  0
  -36.8584   63.5871   68.0403 H   0  0  0  0  0  0  0  0  0  0  0  0
  -33.8899   61.9764   68.3132 H   0  0  0  0  0  0  0  0  0  0  0  0
  2  1  1  0  0  0
  2  4  1  0  0  0
  2  5  1  0  0  0
 47 48  1  0  0  0
 47  1  1  0  0  0
 48 52  1  0  0  0
  1 30  1  0  0  0
 29 30  1  0  0  0
 29 31  1  0  0  0
 30 32  1  0  0  0
  3  4  2  0  0  0
 32 33  2  0  0  0
 49 53  1  0  0  0
 49 57  1  0  0  0
 33 34  1  0  0  0
 62 54  1  0  0  0
 62 66  1  0  0  0
 34 35  1  0  0  0
 50 55  1  0  0  0
 50 58  1  0  0  0
 35 36  1  0  0  0
 51 52  1  0  0  0
 51 56  1  0  0  0
 36 37  1  0  0  0
 59 60  1  0  0  0
 59 61  1  0  0  0
 37 38  1  0  0  0
 63 66  1  0  0  0
 63 67  1  0  0  0
 38 39  1  0  0  0
 64 66  1  0  0  0
 39 40  1  0  0  0
 65 66  1  0  0  0
 65 68  1  0  0  0
 40 41  1  0  0  0
 41 42  1  0  0  0
 42 43  1  0  0  0
 43 44  1  0  0  0
 44 45  1  0  0  0
 45 46  1  0  0  0
  4  6  1  0  0  0
  6  7  1  0  0  0
  7  8  1  0  0  0
  8  9  1  0  0  0
  9 10  1  0  0  0
 10 11  1  0  0  0
 11 12  1  0  0  0
 12 13  1  0  0  0
 13 14  1  0  0  0
 14 15  1  0  0  0
 15 16  1  0  0  0
 16 17  1  0  0  0
 17 18  1  0  0  0
 18 19  1  0  0  0
 19 20  2  0  0  0
 20 21  1  0  0  0
 21 22  1  0  0  0
 22 23  1  0  0  0
 23 24  1  0  0  0
 24 25  1  0  0  0
 25 26  1  0  0  0
 26 27  1  0  0  0
 27 28  1  0  0  0
 52 53  1  0  0  0
 53 54  1  0  0  0
 54 55  1  0  0  0
 55 56  1  0  0  0
 56 60  1  0  0  0
M  CHG 1  64  -1
M  END
> <minimizedAffinity>
-8.95571

> <CNNscore>
0.1367902607

> <CNNaffinity>
6.9921522141

> <CNN_VS>
0.9564583302

> <CNNaffinity_variance>
1.0806224346

$$$$
/media/chris/experiments/cd1a-new-docking/inputs/ligands/7ryn_ligand.pdb


 68 68  0  0  0  0  0  0  0  0999 V2000
  -40.6076   61.1395   64.0581 C   0  0  0  0  0  0  0  0  0  0  0  0
  -41.0071   60.5831   65.3474 N   0  0  0  0  0  0  0  0  0  0  0  0
  -41.7098   62.5291   66.2346 O   0  0  0  0  0  0  0  0  0  0  0  0
  -41.5261   61.3193   66.3336 C   0  0  0  0  0  0  0  0  0  0  0  0
  -40.8880   59.6174   65.4973 H   0  0  0  0  0  0  0  0  0  0  0  0
  -41.8852   60.5663   67.5903 C   0  0  0  0  0  0  0  0  0  0  0  0
  -42.9375   59.4918   67.3478 C   0  0  0  0  0  0  0  0  0  0  0  0
  -42.3399   58.0974   67.2485 C   0  0  0  0  0  0  0  0  0  0  0  0
  -43.1883   57.1186   66.4537 C   0  0  0  0  0  0  0  0  0  0  0  0
  -42.4111   56.3472   65.3977 C   0  0  0  0  0  0  0  0  0  0  0  0
  -41.0824   56.9868   65.0155 C   0  0  0  0  0  0  0  0  0  0  0  0
  -40.6334   56.6741   63.5938 C   0  0  0  0  0  0  0  0  0  0  0  0
  -41.3590   55.4984   62.9443 C   0  0  0  0  0  0  0  0  0  0  0  0
  -41.7063   55.7180   61.4727 C   0  0  0  0  0  0  0  0  0  0  0  0
  -40.9899   56.8990   60.8183 C   0  0  0  0  0  0  0  0  0  0  0  0
  -41.9433   57.9468   60.2434 C   0  0  0  0  0  0  0  0  0  0  0  0
  -41.2644   59.1487   59.5869 C   0  0  0  0  0  0  0  0  0  0  0  0
  -39.7544   59.0032   59.3801 C   0  0  0  0  0  0  0  0  0  0  0  0
  -38.9508   59.7801   60.3826 C   0  0  0  0  0  0  0  0  0  0  0  0
  -37.9117   59.3307   61.0637 C   0  0  0  0  0  0  0  0  0  0  0  0
  -37.3242   57.9551   60.9705 C   0  0  0  0  0  0  0  0  0  0  0  0
  -37.5375   57.1092   62.2276 C   0  0  0  0  0  0  0  0  0  0  0  0
  -37.2120   57.8528   63.5161 C   0  0  0  0  0  0  0  0  0  0  0  0
  -36.0070   57.2826   64.2558 C   0  0  0  0  0  0  0  0  0  0  0  0
  -34.6998   58.0233   63.9983 C   0  0  0  0  0  0  0  0  0  0  0  0
  -33.9595   57.5468   62.7565 C   0  0  0  0  0  0  0  0  0  0  0  0
  -33.2214   58.6474   62.0113 C   0  0  0  0  0  0  0  0  0  0  0  0
  -32.0762   59.2350   62.8109 C   0  0  0  0  0  0  0  0  0  0  0  0
  -41.8223   61.5861   62.0186 O   0  0  0  0  0  0  0  0  0  0  0  0
  -41.4977   60.5513   62.9515 C   0  0  0  0  0  0  0  0  0  0  0  0
  -41.0051   61.9715   61.6659 H   0  0  0  0  0  0  0  0  0  0  0  0
  -42.7385   59.9319   63.5180 C   0  0  0  0  0  0  0  0  0  0  0  0
  -43.3189   58.8411   63.0583 C   0  0  0  0  0  0  0  0  0  0  0  0
  -44.5485   58.2392   63.6551 C   0  0  0  0  0  0  0  0  0  0  0  0
  -45.2353   59.2205   64.6071 C   0  0  0  0  0  0  0  0  0  0  0  0
  -46.7392   59.0302   64.7199 C   0  0  0  0  0  0  0  0  0  0  0  0
  -47.1585   57.9048   65.6501 C   0  0  0  0  0  0  0  0  0  0  0  0
  -48.6366   57.9192   66.0117 C   0  0  0  0  0  0  0  0  0  0  0  0
  -49.2636   59.3041   65.9645 C   0  0  0  0  0  0  0  0  0  0  0  0
  -50.7350   59.2969   65.5886 C   0  0  0  0  0  0  0  0  0  0  0  0
  -51.0102   59.7287   64.1603 C   0  0  0  0  0  0  0  0  0  0  0  0
  -49.7567   59.9390   63.3285 C   0  0  0  0  0  0  0  0  0  0  0  0
  -49.9675   59.6501   61.8539 C   0  0  0  0  0  0  0  0  0  0  0  0
  -50.3040   58.2047   61.5409 C   0  0  0  0  0  0  0  0  0  0  0  0
  -50.2433   57.9007   60.0567 C   0  0  0  0  0  0  0  0  0  0  0  0
  -48.8557   58.0941   59.4810 C   0  0  0  0  0  0  0  0  0  0  0  0
  -39.1379   60.8702   63.8091 C   0  0  0  0  0  0  0  0  0  0  0  0
  -38.5134   60.5827   65.0653 O   0  0  0  0  0  0  0  0  0  0  0  0
  -36.7865   60.8660   62.8793 O   0  0  0  0  0  0  0  0  0  0  0  0
  -36.4609   64.5757   65.0366 O   0  0  0  0  0  0  0  0  0  0  0  0
  -37.2787   62.1116   66.2763 O   0  0  0  0  0  0  0  0  0  0  0  0
  -37.2516   61.1623   65.2269 C   0  0  0  0  0  0  0  0  0  0  0  0
  -36.8708   61.8365   63.9152 C   0  0  0  0  0  0  0  0  0  0  0  0
  -35.5381   62.5579   64.0716 C   0  0  0  0  0  0  0  0  0  0  0  0
  -35.5618   63.4963   65.2691 C   0  0  0  0  0  0  0  0  0  0  0  0
  -36.0034   62.7293   66.5130 C   0  0  0  0  0  0  0  0  0  0  0  0
  -37.6400   60.4140   62.7894 H   0  0  0  0  0  0  0  0  0  0  0  0
  -36.1821   65.0646   64.2466 H   0  0  0  0  0  0  0  0  0  0  0  0
  -36.5245   62.8549   68.8798 O   0  0  0  0  0  0  0  0  0  0  0  0
  -36.1634   63.6107   67.7296 C   0  0  0  0  0  0  0  0  0  0  0  0
  -36.6190   63.4490   69.6406 H   0  0  0  0  0  0  0  0  0  0  0  0
  -35.3939   63.3381   62.8429 O   0  0  0  0  0  0  0  0  0  0  0  0
  -33.2117   62.4730   62.2985 O   0  0  0  0  0  0  0  0  0  0  0  0
  -33.5002   64.8732   62.9851 O   0  0  0  0  0  0  0  0  0  0  0  0
  -34.2581   64.0723   60.8825 O   0  0  0  0  0  0  0  0  0  0  0  0
  -33.9307   63.6924   62.3360 S   0  0  0  0  0  0  0  0  0  0  0  0
  -32.9874   62.2020   63.2025 H   0  0  0  0  0  0  0  0  0  0  0  0
  -34.5584   63.2848   60.4023 H   0  0  0  0  0  0  0  0  0  0  0  0
  2  1  1  0  0  0
  2  4  1  0  0  0
  2  5  1  0  0  0
 47 48  1  0  0  0
 47  1  1  0  0  0
 48 52  1  0  0  0
  1 30  1  0  0  0
 29 30  1  0  0  0
 29 31  1  0  0  0
 30 32  1  0  0  0
  3  4  2  0  0  0
 32 33  2  0  0  0
 49 53  1  0  0  0
 49 57  1  0  0  0
 33 34  1  0  0  0
 62 54  1  0  0  0
 62 66  1  0  0  0
 34 35  1  0  0  0
 50 55  1  0  0  0
 50 58  1  0  0  0
 35 36  1  0  0  0
 51 52  1  0  0  0
 51 56  1  0  0  0
 36 37  1  0  0  0
 59 60  1  0  0  0
 59 61  1  0  0  0
 37 38  1  0  0  0
 63 66  1  0  0  0
 63 67  1  0  0  0
 38 39  1  0  0  0
 64 66  1  0  0  0
 39 40  1  0  0  0
 65 66  1  0  0  0
 65 68  1  0  0  0
 40 41  1  0  0  0
 41 42  1  0  0  0
 42 43  1  0  0  0
 43 44  1  0  0  0
 44 45  1  0  0  0
 45 46  1  0  0  0
  4  6  1  0  0  0
  6  7  1  0  0  0
  7  8  1  0  0  0
  8  9  1  0  0  0
  9 10  1  0  0  0
 10 11  1  0  0  0
 11 12  1  0  0  0
 12 13  1  0  0  0
 13 14  1  0  0  0
 14 15  1  0  0  0
 15 16  1  0  0  0
 16 17  1  0  0  0
 17 18  1  0  0  0
 18 19  1  0  0  0
 19 20  2  0  0  0
 20 21  1  0  0  0
 21 22  1  0  0  0
 22 23  1  0  0  0
 23 24  1  0  0  0
 24 25  1  0  0  0
 25 26  1  0  0  0
 26 27  1  0  0  0
 27 28  1  0  0  0
 52 53  1  0  0  0
 53 54  1  0  0  0
 54 55  1  0  0  0
 55 56  1  0  0  0
 56 60  1  0  0  0
M  CHG 1  64  -1
M  END
> <minimizedAffinity>
-8.25142

> <CNNscore>
0.1311328262

> <CNNaffinity>
7.3846650124

> <CNN_VS>
0.9683719873

> <CNNaffinity_variance>
2.3104121685

$$$$
/media/chris/experiments/cd1a-new-docking/inputs/ligands/7ryn_ligand.pdb


 68 68  0  0  0  0  0  0  0  0999 V2000
  -39.7419   59.8310   65.3985 C   0  0  0  0  0  0  0  0  0  0  0  0
  -40.1383   58.8867   64.3582 N   0  0  0  0  0  0  0  0  0  0  0  0
  -38.9218   57.1589   65.1343 O   0  0  0  0  0  0  0  0  0  0  0  0
  -39.6986   57.6265   64.3067 C   0  0  0  0  0  0  0  0  0  0  0  0
  -40.7607   59.1939   63.6599 H   0  0  0  0  0  0  0  0  0  0  0  0
  -40.2251   56.7982   63.1613 C   0  0  0  0  0  0  0  0  0  0  0  0
  -41.7456   56.7037   63.1582 C   0  0  0  0  0  0  0  0  0  0  0  0
  -42.2949   56.0462   64.4140 C   0  0  0  0  0  0  0  0  0  0  0  0
  -43.3257   56.8868   65.1492 C   0  0  0  0  0  0  0  0  0  0  0  0
  -44.0081   57.9275   64.2742 C   0  0  0  0  0  0  0  0  0  0  0  0
  -45.2857   58.5005   64.8745 C   0  0  0  0  0  0  0  0  0  0  0  0
  -45.2625   58.5999   66.3945 C   0  0  0  0  0  0  0  0  0  0  0  0
  -46.6247   58.4276   67.0617 C   0  0  0  0  0  0  0  0  0  0  0  0
  -47.4106   57.2143   66.5671 C   0  0  0  0  0  0  0  0  0  0  0  0
  -48.8127   57.5318   66.0478 C   0  0  0  0  0  0  0  0  0  0  0  0
  -49.1895   59.0080   66.1756 C   0  0  0  0  0  0  0  0  0  0  0  0
  -50.6375   59.3399   65.8157 C   0  0  0  0  0  0  0  0  0  0  0  0
  -50.8040   60.3971   64.7209 C   0  0  0  0  0  0  0  0  0  0  0  0
  -51.7081   59.9485   63.6093 C   0  0  0  0  0  0  0  0  0  0  0  0
  -51.4797   58.9494   62.7755 C   0  0  0  0  0  0  0  0  0  0  0  0
  -50.2730   58.0606   62.7735 C   0  0  0  0  0  0  0  0  0  0  0  0
  -49.1390   58.5659   61.8791 C   0  0  0  0  0  0  0  0  0  0  0  0
  -49.6161   59.0433   60.5138 C   0  0  0  0  0  0  0  0  0  0  0  0
  -49.7395   57.9208   59.4897 C   0  0  0  0  0  0  0  0  0  0  0  0
  -48.8252   56.7284   59.7467 C   0  0  0  0  0  0  0  0  0  0  0  0
  -47.5187   56.7785   58.9674 C   0  0  0  0  0  0  0  0  0  0  0  0
  -47.4017   57.9655   58.0244 C   0  0  0  0  0  0  0  0  0  0  0  0
  -47.4336   57.5633   56.5638 C   0  0  0  0  0  0  0  0  0  0  0  0
  -41.8736   59.6042   66.5116 O   0  0  0  0  0  0  0  0  0  0  0  0
  -40.9875   60.5618   65.9249 C   0  0  0  0  0  0  0  0  0  0  0  0
  -41.4088   59.1202   67.2121 H   0  0  0  0  0  0  0  0  0  0  0  0
  -41.6729   61.3297   64.8365 C   0  0  0  0  0  0  0  0  0  0  0  0
  -42.1526   60.8058   63.7258 C   0  0  0  0  0  0  0  0  0  0  0  0
  -42.8450   61.5968   62.6650 C   0  0  0  0  0  0  0  0  0  0  0  0
  -42.2690   61.2854   61.2821 C   0  0  0  0  0  0  0  0  0  0  0  0
  -41.2244   60.1812   61.2763 C   0  0  0  0  0  0  0  0  0  0  0  0
  -41.3871   59.1731   60.1515 C   0  0  0  0  0  0  0  0  0  0  0  0
  -40.2153   58.2132   60.0066 C   0  0  0  0  0  0  0  0  0  0  0  0
  -38.8730   58.9087   59.8396 C   0  0  0  0  0  0  0  0  0  0  0  0
  -38.0827   59.0313   61.1306 C   0  0  0  0  0  0  0  0  0  0  0  0
  -36.8232   58.1858   61.1671 C   0  0  0  0  0  0  0  0  0  0  0  0
  -36.6441   57.4039   62.4571 C   0  0  0  0  0  0  0  0  0  0  0  0
  -35.1984   57.3344   62.9129 C   0  0  0  0  0  0  0  0  0  0  0  0
  -35.0019   57.5306   64.4039 C   0  0  0  0  0  0  0  0  0  0  0  0
  -33.8347   58.4444   64.7224 C   0  0  0  0  0  0  0  0  0  0  0  0
  -32.7593   58.4052   63.6563 C   0  0  0  0  0  0  0  0  0  0  0  0
  -38.7039   60.7931   64.8587 C   0  0  0  0  0  0  0  0  0  0  0  0
  -37.4384   60.1231   64.8339 O   0  0  0  0  0  0  0  0  0  0  0  0
  -35.4990   60.6834   62.8933 O   0  0  0  0  0  0  0  0  0  0  0  0
  -36.2019   64.4390   64.8740 O   0  0  0  0  0  0  0  0  0  0  0  0
  -36.7062   61.8950   66.1194 O   0  0  0  0  0  0  0  0  0  0  0  0
  -36.3471   60.9428   65.1358 C   0  0  0  0  0  0  0  0  0  0  0  0
  -35.9158   61.6447   63.8546 C   0  0  0  0  0  0  0  0  0  0  0  0
  -34.7818   62.6172   64.1536 C   0  0  0  0  0  0  0  0  0  0  0  0
  -35.1570   63.5632   65.2848 C   0  0  0  0  0  0  0  0  0  0  0  0
  -35.6199   62.7567   66.4955 C   0  0  0  0  0  0  0  0  0  0  0  0
  -36.2287   60.0706   62.7115 H   0  0  0  0  0  0  0  0  0  0  0  0
  -35.9098   64.9526   64.1047 H   0  0  0  0  0  0  0  0  0  0  0  0
  -36.4990   62.8378   68.7560 O   0  0  0  0  0  0  0  0  0  0  0  0
  -36.1193   63.6205   67.6299 C   0  0  0  0  0  0  0  0  0  0  0  0
  -36.8139   63.4212   69.4639 H   0  0  0  0  0  0  0  0  0  0  0  0
  -34.6124   63.3788   62.9164 O   0  0  0  0  0  0  0  0  0  0  0  0
  -32.2908   63.9704   63.1748 O   0  0  0  0  0  0  0  0  0  0  0  0
  -33.3274   63.8306   60.8897 O   0  0  0  0  0  0  0  0  0  0  0  0
  -32.8991   61.8918   62.1915 O   0  0  0  0  0  0  0  0  0  0  0  0
  -33.1800   63.4030   62.2301 S   0  0  0  0  0  0  0  0  0  0  0  0
  -32.4405   64.9274   63.2255 H   0  0  0  0  0  0  0  0  0  0  0  0
  -32.7914   61.5597   63.0964 H   0  0  0  0  0  0  0  0  0  0  0  0
  2  1  1  0  0  0
  2  4  1  0  0  0
  2  5  1  0  0  0
 47 48  1  0  0  0
 47  1  1  0  0  0
 48 52  1  0  0  0
  1 30  1  0  0  0
 29 30  1  0  0  0
 29 31  1  0  0  0
 30 32  1  0  0  0
  3  4  2  0  0  0
 32 33  2  0  0  0
 49 53  1  0  0  0
 49 57  1  0  0  0
 33 34  1  0  0  0
 62 54  1  0  0  0
 62 66  1  0  0  0
 34 35  1  0  0  0
 50 55  1  0  0  0
 50 58  1  0  0  0
 35 36  1  0  0  0
 51 52  1  0  0  0
 51 56  1  0  0  0
 36 37  1  0  0  0
 59 60  1  0  0  0
 59 61  1  0  0  0
 37 38  1  0  0  0
 63 66  1  0  0  0
 63 67  1  0  0  0
 38 39  1  0  0  0
 64 66  1  0  0  0
 39 40  1  0  0  0
 65 66  1  0  0  0
 65 68  1  0  0  0
 40 41  1  0  0  0
 41 42  1  0  0  0
 42 43  1  0  0  0
 43 44  1  0  0  0
 44 45  1  0  0  0
 45 46  1  0  0  0
  4  6  1  0  0  0
  6  7  1  0  0  0
  7  8  1  0  0  0
  8  9  1  0  0  0
  9 10  1  0  0  0
 10 11  1  0  0  0
 11 12  1  0  0  0
 12 13  1  0  0  0
 13 14  1  0  0  0
 14 15  1  0  0  0
 15 16  1  0  0  0
 16 17  1  0  0  0
 17 18  1  0  0  0
 18 19  1  0  0  0
 19 20  2  0  0  0
 20 21  1  0  0  0
 21 22  1  0  0  0
 22 23  1  0  0  0
 23 24  1  0  0  0
 24 25  1  0  0  0
 25 26  1  0  0  0
 26 27  1  0  0  0
 27 28  1  0  0  0
 52 53  1  0  0  0
 53 54  1  0  0  0
 54 55  1  0  0  0
 55 56  1  0  0  0
 56 60  1  0  0  0
M  CHG 1  64  -1
M  END
> <minimizedAffinity>
-9.51119

> <CNNscore>
0.1296500117

> <CNNaffinity>
7.6043663025

> <CNN_VS>
0.9859061837

> <CNNaffinity_variance>
1.9144260883

$$$$
/media/chris/experiments/cd1a-new-docking/inputs/ligands/7ryn_ligand.pdb


 68 68  0  0  0  0  0  0  0  0999 V2000
  -31.8326   61.6874   62.8718 C   0  0  0  0  0  0  0  0  0  0  0  0
  -32.8492   61.3290   63.8564 N   0  0  0  0  0  0  0  0  0  0  0  0
  -34.5078   62.5375   62.9312 O   0  0  0  0  0  0  0  0  0  0  0  0
  -34.1053   61.7808   63.8100 C   0  0  0  0  0  0  0  0  0  0  0  0
  -32.5963   60.7243   64.5911 H   0  0  0  0  0  0  0  0  0  0  0  0
  -35.0145   61.2945   64.9109 C   0  0  0  0  0  0  0  0  0  0  0  0
  -36.4796   61.2747   64.4935 C   0  0  0  0  0  0  0  0  0  0  0  0
  -37.4138   60.9484   65.6476 C   0  0  0  0  0  0  0  0  0  0  0  0
  -38.0905   59.5929   65.5283 C   0  0  0  0  0  0  0  0  0  0  0  0
  -39.4893   59.6537   64.9334 C   0  0  0  0  0  0  0  0  0  0  0  0
  -40.5491   58.9459   65.7681 C   0  0  0  0  0  0  0  0  0  0  0  0
  -41.5356   59.8905   66.4426 C   0  0  0  0  0  0  0  0  0  0  0  0
  -42.8064   59.2185   66.9563 C   0  0  0  0  0  0  0  0  0  0  0  0
  -42.9471   57.7546   66.5420 C   0  0  0  0  0  0  0  0  0  0  0  0
  -44.1957   57.4430   65.7173 C   0  0  0  0  0  0  0  0  0  0  0  0
  -45.2234   58.5750   65.7171 C   0  0  0  0  0  0  0  0  0  0  0  0
  -46.6684   58.1372   65.4791 C   0  0  0  0  0  0  0  0  0  0  0  0
  -47.7246   59.1996   65.7950 C   0  0  0  0  0  0  0  0  0  0  0  0
  -47.8729   60.2180   64.7018 C   0  0  0  0  0  0  0  0  0  0  0  0
  -48.9406   60.3971   63.9444 C   0  0  0  0  0  0  0  0  0  0  0  0
  -50.2202   59.6213   64.0263 C   0  0  0  0  0  0  0  0  0  0  0  0
  -50.1925   58.3059   63.2450 C   0  0  0  0  0  0  0  0  0  0  0  0
  -51.2042   58.2598   62.1076 C   0  0  0  0  0  0  0  0  0  0  0  0
  -50.7196   57.4673   60.8987 C   0  0  0  0  0  0  0  0  0  0  0  0
  -50.0865   58.3145   59.8010 C   0  0  0  0  0  0  0  0  0  0  0  0
  -48.6182   57.9991   59.5531 C   0  0  0  0  0  0  0  0  0  0  0  0
  -48.3772   56.9934   58.4386 C   0  0  0  0  0  0  0  0  0  0  0  0
  -47.0601   56.2582   58.5827 C   0  0  0  0  0  0  0  0  0  0  0  0
  -30.7631   60.7975   60.8972 O   0  0  0  0  0  0  0  0  0  0  0  0
  -31.3631   60.4199   62.1397 C   0  0  0  0  0  0  0  0  0  0  0  0
  -30.0345   61.4156   61.0646 H   0  0  0  0  0  0  0  0  0  0  0  0
  -32.4950   59.4636   61.9195 C   0  0  0  0  0  0  0  0  0  0  0  0
  -32.7153   58.3740   62.6282 C   0  0  0  0  0  0  0  0  0  0  0  0
  -33.8628   57.4473   62.3932 C   0  0  0  0  0  0  0  0  0  0  0  0
  -35.0927   57.8804   63.1936 C   0  0  0  0  0  0  0  0  0  0  0  0
  -36.4166   57.6056   62.4991 C   0  0  0  0  0  0  0  0  0  0  0  0
  -37.1238   58.8491   61.9877 C   0  0  0  0  0  0  0  0  0  0  0  0
  -37.7522   58.6818   60.6120 C   0  0  0  0  0  0  0  0  0  0  0  0
  -39.0863   59.3961   60.4588 C   0  0  0  0  0  0  0  0  0  0  0  0
  -40.2115   58.4949   59.9812 C   0  0  0  0  0  0  0  0  0  0  0  0
  -40.5545   57.3721   60.9425 C   0  0  0  0  0  0  0  0  0  0  0  0
  -41.9646   57.4503   61.5020 C   0  0  0  0  0  0  0  0  0  0  0  0
  -42.0337   58.1650   62.8389 C   0  0  0  0  0  0  0  0  0  0  0  0
  -43.0465   59.2926   62.8944 C   0  0  0  0  0  0  0  0  0  0  0  0
  -42.3934   60.6599   62.9483 C   0  0  0  0  0  0  0  0  0  0  0  0
  -42.2707   61.2987   61.5804 C   0  0  0  0  0  0  0  0  0  0  0  0
  -30.6866   62.4110   63.5481 C   0  0  0  0  0  0  0  0  0  0  0  0
  -30.1585   63.3753   62.6305 O   0  0  0  0  0  0  0  0  0  0  0  0
  -32.4333   64.3805   61.3436 O   0  0  0  0  0  0  0  0  0  0  0  0
  -32.7483   65.7770   65.4023 O   0  0  0  0  0  0  0  0  0  0  0  0
  -30.2388   65.0892   64.1747 O   0  0  0  0  0  0  0  0  0  0  0  0
  -30.5859   64.6858   62.8632 C   0  0  0  0  0  0  0  0  0  0  0  0
  -32.0976   64.7282   62.6810 C   0  0  0  0  0  0  0  0  0  0  0  0
  -32.6199   66.1208   63.0107 C   0  0  0  0  0  0  0  0  0  0  0  0
  -32.1466   66.5710   64.3848 C   0  0  0  0  0  0  0  0  0  0  0  0
  -30.6281   66.4396   64.4726 C   0  0  0  0  0  0  0  0  0  0  0  0
  -32.0958   63.4929   61.1459 H   0  0  0  0  0  0  0  0  0  0  0  0
  -33.7132   65.8592   65.3484 H   0  0  0  0  0  0  0  0  0  0  0  0
  -30.4946   65.7997   66.8096 O   0  0  0  0  0  0  0  0  0  0  0  0
  -30.0817   66.7600   65.8441 C   0  0  0  0  0  0  0  0  0  0  0  0
  -30.1278   66.0342   67.6763 H   0  0  0  0  0  0  0  0  0  0  0  0
  -34.0755   65.9771   63.0187 O   0  0  0  0  0  0  0  0  0  0  0  0
  -33.9091   66.6132   60.7005 O   0  0  0  0  0  0  0  0  0  0  0  0
  -36.0174   67.0486   61.9971 O   0  0  0  0  0  0  0  0  0  0  0  0
  -35.3677   64.8550   61.3626 O   0  0  0  0  0  0  0  0  0  0  0  0
  -34.8753   66.2766   61.6794 S   0  0  0  0  0  0  0  0  0  0  0  0
  -33.5752   67.5080   60.8700 H   0  0  0  0  0  0  0  0  0  0  0  0
  -34.6098   64.2926   61.1387 H   0  0  0  0  0  0  0  0  0  0  0  0
  2  1  1  0  0  0
  2  4  1  0  0  0
  2  5  1  0  0  0
 47 48  1  0  0  0
 47  1  1  0  0  0
 48 52  1  0  0  0
  1 30  1  0  0  0
 29 30  1  0  0  0
 29 31  1  0  0  0
 30 32  1  0  0  0
  3  4  2  0  0  0
 32 33  2  0  0  0
 49 53  1  0  0  0
 49 57  1  0  0  0
 33 34  1  0  0  0
 62 54  1  0  0  0
 62 66  1  0  0  0
 34 35  1  0  0  0
 50 55  1  0  0  0
 50 58  1  0  0  0
 35 36  1  0  0  0
 51 52  1  0  0  0
 51 56  1  0  0  0
 36 37  1  0  0  0
 59 60  1  0  0  0
 59 61  1  0  0  0
 37 38  1  0  0  0
 63 66  1  0  0  0
 63 67  1  0  0  0
 38 39  1  0  0  0
 64 66  1  0  0  0
 39 40  1  0  0  0
 65 66  1  0  0  0
 65 68  1  0  0  0
 40 41  1  0  0  0
 41 42  1  0  0  0
 42 43  1  0  0  0
 43 44  1  0  0  0
 44 45  1  0  0  0
 45 46  1  0  0  0
  4  6  1  0  0  0
  6  7  1  0  0  0
  7  8  1  0  0  0
  8  9  1  0  0  0
  9 10  1  0  0  0
 10 11  1  0  0  0
 11 12  1  0  0  0
 12 13  1  0  0  0
 13 14  1  0  0  0
 14 15  1  0  0  0
 15 16  1  0  0  0
 16 17  1  0  0  0
 17 18  1  0  0  0
 18 19  1  0  0  0
 19 20  2  0  0  0
 20 21  1  0  0  0
 21 22  1  0  0  0
 22 23  1  0  0  0
 23 24  1  0  0  0
 24 25  1  0  0  0
 25 26  1  0  0  0
 26 27  1  0  0  0
 27 28  1  0  0  0
 52 53  1  0  0  0
 53 54  1  0  0  0
 54 55  1  0  0  0
 55 56  1  0  0  0
 56 60  1  0  0  0
M  CHG 1  64  -1
M  END
> <minimizedAffinity>
-8.82333

> <CNNscore>
0.1224916279

> <CNNaffinity>
6.9204521179

> <CNN_VS>
0.8476974368

> <CNNaffinity_variance>
1.7243207693

$$$$
/media/chris/experiments/cd1a-new-docking/inputs/ligands/7ryn_ligand.pdb


 68 68  0  0  0  0  0  0  0  0999 V2000
  -39.5189   60.7017   65.5643 C   0  0  0  0  0  0  0  0  0  0  0  0
  -40.5897   60.1320   66.3767 N   0  0  0  0  0  0  0  0  0  0  0  0
  -41.7952   62.0264   66.5370 O   0  0  0  0  0  0  0  0  0  0  0  0
  -41.6427   60.8369   66.7992 C   0  0  0  0  0  0  0  0  0  0  0  0
  -40.5330   59.1811   66.6254 H   0  0  0  0  0  0  0  0  0  0  0  0
  -42.6507   60.0741   67.6221 C   0  0  0  0  0  0  0  0  0  0  0  0
  -43.3235   58.9570   66.8344 C   0  0  0  0  0  0  0  0  0  0  0  0
  -42.5323   57.6592   66.8648 C   0  0  0  0  0  0  0  0  0  0  0  0
  -42.7869   56.7542   65.6708 C   0  0  0  0  0  0  0  0  0  0  0  0
  -41.5233   56.3419   64.9308 C   0  0  0  0  0  0  0  0  0  0  0  0
  -41.7815   55.7009   63.5731 C   0  0  0  0  0  0  0  0  0  0  0  0
  -40.8117   56.1465   62.4861 C   0  0  0  0  0  0  0  0  0  0  0  0
  -41.3839   56.1069   61.0713 C   0  0  0  0  0  0  0  0  0  0  0  0
  -41.6531   57.4856   60.4704 C   0  0  0  0  0  0  0  0  0  0  0  0
  -40.4767   58.0861   59.7012 C   0  0  0  0  0  0  0  0  0  0  0  0
  -39.6948   59.1286   60.5008 C   0  0  0  0  0  0  0  0  0  0  0  0
  -38.2577   59.3584   60.0335 C   0  0  0  0  0  0  0  0  0  0  0  0
  -37.2377   58.3468   60.5628 C   0  0  0  0  0  0  0  0  0  0  0  0
  -37.5346   57.8980   61.9645 C   0  0  0  0  0  0  0  0  0  0  0  0
  -36.6432   57.5530   62.8766 C   0  0  0  0  0  0  0  0  0  0  0  0
  -35.1555   57.5430   62.6963 C   0  0  0  0  0  0  0  0  0  0  0  0
  -34.3932   58.2150   63.8404 C   0  0  0  0  0  0  0  0  0  0  0  0
  -32.9524   58.5573   63.4847 C   0  0  0  0  0  0  0  0  0  0  0  0
  -32.7940   59.1175   62.0757 C   0  0  0  0  0  0  0  0  0  0  0  0
  -32.0170   60.4268   62.0007 C   0  0  0  0  0  0  0  0  0  0  0  0
  -30.5104   60.2540   62.1317 C   0  0  0  0  0  0  0  0  0  0  0  0
  -29.8034   61.4310   62.7846 C   0  0  0  0  0  0  0  0  0  0  0  0
  -30.0759   62.7457   62.0822 C   0  0  0  0  0  0  0  0  0  0  0  0
  -39.4160   61.1684   63.1965 O   0  0  0  0  0  0  0  0  0  0  0  0
  -39.5865   60.1123   64.1462 C   0  0  0  0  0  0  0  0  0  0  0  0
  -38.5757   61.6226   63.3653 H   0  0  0  0  0  0  0  0  0  0  0  0
  -40.8768   59.3871   63.9155 C   0  0  0  0  0  0  0  0  0  0  0  0
  -41.8937   59.8528   63.2175 C   0  0  0  0  0  0  0  0  0  0  0  0
  -43.1628   59.0983   62.9928 C   0  0  0  0  0  0  0  0  0  0  0  0
  -44.2524   59.5517   63.9666 C   0  0  0  0  0  0  0  0  0  0  0  0
  -45.4226   58.5887   64.0847 C   0  0  0  0  0  0  0  0  0  0  0  0
  -46.5873   59.1183   64.9037 C   0  0  0  0  0  0  0  0  0  0  0  0
  -47.9169   58.4452   64.5958 C   0  0  0  0  0  0  0  0  0  0  0  0
  -48.7135   59.1385   63.5012 C   0  0  0  0  0  0  0  0  0  0  0  0
  -50.1236   58.5994   63.3359 C   0  0  0  0  0  0  0  0  0  0  0  0
  -50.6133   58.5790   61.8999 C   0  0  0  0  0  0  0  0  0  0  0  0
  -49.5427   58.9260   60.8797 C   0  0  0  0  0  0  0  0  0  0  0  0
  -49.5132   57.9698   59.7018 C   0  0  0  0  0  0  0  0  0  0  0  0
  -48.1263   57.4891   59.3201 C   0  0  0  0  0  0  0  0  0  0  0  0
  -47.7199   57.9295   57.9274 C   0  0  0  0  0  0  0  0  0  0  0  0
  -47.2483   56.7747   57.0681 C   0  0  0  0  0  0  0  0  0  0  0  0
  -38.1778   60.4495   66.2217 C   0  0  0  0  0  0  0  0  0  0  0  0
  -37.2198   60.1645   65.1961 O   0  0  0  0  0  0  0  0  0  0  0  0
  -36.3658   61.0885   62.6945 O   0  0  0  0  0  0  0  0  0  0  0  0
  -36.4873   64.5940   65.1881 O   0  0  0  0  0  0  0  0  0  0  0  0
  -36.1707   61.9354   66.2411 O   0  0  0  0  0  0  0  0  0  0  0  0
  -36.1849   61.0992   65.0992 C   0  0  0  0  0  0  0  0  0  0  0  0
  -36.4138   61.9275   63.8415 C   0  0  0  0  0  0  0  0  0  0  0  0
  -35.3559   63.0192   63.7409 C   0  0  0  0  0  0  0  0  0  0  0  0
  -35.2921   63.8382   65.0217 C   0  0  0  0  0  0  0  0  0  0  0  0
  -35.1123   62.9065   66.2176 C   0  0  0  0  0  0  0  0  0  0  0  0
  -37.0431   60.3983   62.7702 H   0  0  0  0  0  0  0  0  0  0  0  0
  -36.6034   65.1868   64.4292 H   0  0  0  0  0  0  0  0  0  0  0  0
  -36.4797   63.7388   68.0415 O   0  0  0  0  0  0  0  0  0  0  0  0
  -35.1510   63.6278   67.5445 C   0  0  0  0  0  0  0  0  0  0  0  0
  -36.4691   64.2054   68.8917 H   0  0  0  0  0  0  0  0  0  0  0  0
  -35.8065   63.8698   62.6396 O   0  0  0  0  0  0  0  0  0  0  0  0
  -33.6583   63.5196   61.6054 O   0  0  0  0  0  0  0  0  0  0  0  0
  -34.5779   65.8414   61.8870 O   0  0  0  0  0  0  0  0  0  0  0  0
  -35.4961   64.3121   60.3202 O   0  0  0  0  0  0  0  0  0  0  0  0
  -34.7201   64.4559   61.6397 S   0  0  0  0  0  0  0  0  0  0  0  0
  -33.1450   63.5827   62.4261 H   0  0  0  0  0  0  0  0  0  0  0  0
  -35.6143   63.3714   60.1154 H   0  0  0  0  0  0  0  0  0  0  0  0
  2  1  1  0  0  0
  2  4  1  0  0  0
  2  5  1  0  0  0
 47 48  1  0  0  0
 47  1  1  0  0  0
 48 52  1  0  0  0
  1 30  1  0  0  0
 29 30  1  0  0  0
 29 31  1  0  0  0
 30 32  1  0  0  0
  3  4  2  0  0  0
 32 33  2  0  0  0
 49 53  1  0  0  0
 49 57  1  0  0  0
 33 34  1  0  0  0
 62 54  1  0  0  0
 62 66  1  0  0  0
 34 35  1  0  0  0
 50 55  1  0  0  0
 50 58  1  0  0  0
 35 36  1  0  0  0
 51 52  1  0  0  0
 51 56  1  0  0  0
 36 37  1  0  0  0
 59 60  1  0  0  0
 59 61  1  0  0  0
 37 38  1  0  0  0
 63 66  1  0  0  0
 63 67  1  0  0  0
 38 39  1  0  0  0
 64 66  1  0  0  0
 39 40  1  0  0  0
 65 66  1  0  0  0
 65 68  1  0  0  0
 40 41  1  0  0  0
 41 42  1  0  0  0
 42 43  1  0  0  0
 43 44  1  0  0  0
 44 45  1  0  0  0
 45 46  1  0  0  0
  4  6  1  0  0  0
  6  7  1  0  0  0
  7  8  1  0  0  0
  8  9  1  0  0  0
  9 10  1  0  0  0
 10 11  1  0  0  0
 11 12  1  0  0  0
 12 13  1  0  0  0
 13 14  1  0  0  0
 14 15  1  0  0  0
 15 16  1  0  0  0
 16 17  1  0  0  0
 17 18  1  0  0  0
 18 19  1  0  0  0
 19 20  2  0  0  0
 20 21  1  0  0  0
 21 22  1  0  0  0
 22 23  1  0  0  0
 23 24  1  0  0  0
 24 25  1  0  0  0
 25 26  1  0  0  0
 26 27  1  0  0  0
 27 28  1  0  0  0
 52 53  1  0  0  0
 53 54  1  0  0  0
 54 55  1  0  0  0
 55 56  1  0  0  0
 56 60  1  0  0  0
M  CHG 1  64  -1
M  END
> <minimizedAffinity>
-8.82406

> <CNNscore>
0.1185525805

> <CNNaffinity>
7.3762998581

> <CNN_VS>
0.8744793534

> <CNNaffinity_variance>
1.8398103714

$$$$
