/media/chris/experiments/cd1a-new-docking/inputs/ligands/7ryn_ligand.pdb


 68 68  0  0  0  0  0  0  0  0999 V2000
  -34.5082   59.0657   62.9544 C   0  0  0  0  0  0  0  0  0  0  0  0
  -35.7546   58.7012   62.2875 N   0  0  0  0  0  0  0  0  0  0  0  0
  -36.1009   56.8086   63.4562 O   0  0  0  0  0  0  0  0  0  0  0  0
  -36.4529   57.6032   62.5893 C   0  0  0  0  0  0  0  0  0  0  0  0
  -36.0975   59.2940   61.5803 H   0  0  0  0  0  0  0  0  0  0  0  0
  -37.7204   57.3981   61.7975 C   0  0  0  0  0  0  0  0  0  0  0  0
  -38.9529   57.2850   62.6856 C   0  0  0  0  0  0  0  0  0  0  0  0
  -40.1947   56.8667   61.9148 C   0  0  0  0  0  0  0  0  0  0  0  0
  -41.1549   56.0029   62.7153 C   0  0  0  0  0  0  0  0  0  0  0  0
  -41.4514   56.5401   64.1075 C   0  0  0  0  0  0  0  0  0  0  0  0
  -42.9360   56.7144   64.4014 C   0  0  0  0  0  0  0  0  0  0  0  0
  -43.4799   58.0896   64.0361 C   0  0  0  0  0  0  0  0  0  0  0  0
  -44.8120   58.4395   64.6945 C   0  0  0  0  0  0  0  0  0  0  0  0
  -44.9597   57.9094   66.1197 C   0  0  0  0  0  0  0  0  0  0  0  0
  -46.1896   58.4245   66.8670 C   0  0  0  0  0  0  0  0  0  0  0  0
  -47.4243   57.5406   66.6900 C   0  0  0  0  0  0  0  0  0  0  0  0
  -48.5354   58.1451   65.8316 C   0  0  0  0  0  0  0  0  0  0  0  0
  -48.6007   59.6747   65.8449 C   0  0  0  0  0  0  0  0  0  0  0  0
  -48.4125   60.2783   64.4831 C   0  0  0  0  0  0  0  0  0  0  0  0
  -49.3045   60.2942   63.5085 C   0  0  0  0  0  0  0  0  0  0  0  0
  -50.6854   59.7150   63.5676 C   0  0  0  0  0  0  0  0  0  0  0  0
  -50.9615   58.6723   62.4822 C   0  0  0  0  0  0  0  0  0  0  0  0
  -49.7325   57.8561   62.1048 C   0  0  0  0  0  0  0  0  0  0  0  0
  -49.7311   57.4024   60.6493 C   0  0  0  0  0  0  0  0  0  0  0  0
  -48.3650   57.4498   59.9746 C   0  0  0  0  0  0  0  0  0  0  0  0
  -48.4123   57.9175   58.5267 C   0  0  0  0  0  0  0  0  0  0  0  0
  -47.1998   57.5145   57.7026 C   0  0  0  0  0  0  0  0  0  0  0  0
  -47.2382   56.0634   57.2684 C   0  0  0  0  0  0  0  0  0  0  0  0
  -32.6663   57.5516   62.5672 O   0  0  0  0  0  0  0  0  0  0  0  0
  -33.3210   58.7112   62.0446 C   0  0  0  0  0  0  0  0  0  0  0  0
  -33.3042   56.8244   62.6378 H   0  0  0  0  0  0  0  0  0  0  0  0
  -32.3640   59.8571   61.9215 C   0  0  0  0  0  0  0  0  0  0  0  0
  -32.4906   61.0193   62.5310 C   0  0  0  0  0  0  0  0  0  0  0  0
  -31.5101   62.1382   62.3994 C   0  0  0  0  0  0  0  0  0  0  0  0
  -32.0221   63.2075   61.4321 C   0  0  0  0  0  0  0  0  0  0  0  0
  -32.9488   64.2308   62.0682 C   0  0  0  0  0  0  0  0  0  0  0  0
  -34.3421   64.2723   61.4641 C   0  0  0  0  0  0  0  0  0  0  0  0
  -35.4596   64.0333   62.4690 C   0  0  0  0  0  0  0  0  0  0  0  0
  -35.8436   62.5692   62.6188 C   0  0  0  0  0  0  0  0  0  0  0  0
  -37.3341   62.3108   62.4848 C   0  0  0  0  0  0  0  0  0  0  0  0
  -37.6785   61.1170   61.6139 C   0  0  0  0  0  0  0  0  0  0  0  0
  -39.1239   60.6651   61.7326 C   0  0  0  0  0  0  0  0  0  0  0  0
  -39.7069   60.1886   60.4152 C   0  0  0  0  0  0  0  0  0  0  0  0
  -41.2201   60.0878   60.3998 C   0  0  0  0  0  0  0  0  0  0  0  0
  -41.8355   60.3544   61.7595 C   0  0  0  0  0  0  0  0  0  0  0  0
  -42.5945   61.6644   61.8062 C   0  0  0  0  0  0  0  0  0  0  0  0
  -34.4186   58.3769   64.3005 C   0  0  0  0  0  0  0  0  0  0  0  0
  -34.2026   59.3755   65.3040 O   0  0  0  0  0  0  0  0  0  0  0  0
  -36.9760   59.0498   65.0958 O   0  0  0  0  0  0  0  0  0  0  0  0
  -36.4476   62.3222   67.8407 O   0  0  0  0  0  0  0  0  0  0  0  0
  -34.4766   61.5953   65.8748 O   0  0  0  0  0  0  0  0  0  0  0  0
  -35.0429   60.4877   65.1995 C   0  0  0  0  0  0  0  0  0  0  0  0
  -36.3865   60.1235   65.8181 C   0  0  0  0  0  0  0  0  0  0  0  0
  -37.3082   61.3364   65.8054 C   0  0  0  0  0  0  0  0  0  0  0  0
  -36.6350   62.5412   66.4462 C   0  0  0  0  0  0  0  0  0  0  0  0
  -35.2800   62.7829   65.7857 C   0  0  0  0  0  0  0  0  0  0  0  0
  -36.3805   58.2843   65.1110 H   0  0  0  0  0  0  0  0  0  0  0  0
  -37.3075   62.1684   68.2623 H   0  0  0  0  0  0  0  0  0  0  0  0
  -34.0076   63.5119   67.7192 O   0  0  0  0  0  0  0  0  0  0  0  0
  -34.4911   63.8947   66.4368 C   0  0  0  0  0  0  0  0  0  0  0  0
  -33.5072   64.2460   68.1084 H   0  0  0  0  0  0  0  0  0  0  0  0
  -38.4595   60.9340   66.6127 O   0  0  0  0  0  0  0  0  0  0  0  0
  -40.8157   61.3147   66.2795 O   0  0  0  0  0  0  0  0  0  0  0  0
  -39.8257   59.0335   65.9163 O   0  0  0  0  0  0  0  0  0  0  0  0
  -39.4022   60.8340   64.4278 O   0  0  0  0  0  0  0  0  0  0  0  0
  -39.7755   60.4464   65.8682 S   0  0  0  0  0  0  0  0  0  0  0  0
  -41.0775   61.0979   67.1880 H   0  0  0  0  0  0  0  0  0  0  0  0
  -39.3576   61.8002   64.3543 H   0  0  0  0  0  0  0  0  0  0  0  0
  2  1  1  0  0  0
  2  4  1  0  0  0
  2  5  1  0  0  0
 47 48  1  0  0  0
 47  1  1  0  0  0
 48 52  1  0  0  0
  1 30  1  0  0  0
 29 30  1  0  0  0
 29 31  1  0  0  0
 30 32  1  0  0  0
  3  4  2  0  0  0
 32 33  2  0  0  0
 49 53  1  0  0  0
 49 57  1  0  0  0
 33 34  1  0  0  0
 62 54  1  0  0  0
 62 66  1  0  0  0
 34 35  1  0  0  0
 50 55  1  0  0  0
 50 58  1  0  0  0
 35 36  1  0  0  0
 51 52  1  0  0  0
 51 56  1  0  0  0
 36 37  1  0  0  0
 59 60  1  0  0  0
 59 61  1  0  0  0
 37 38  1  0  0  0
 63 66  1  0  0  0
 63 67  1  0  0  0
 38 39  1  0  0  0
 64 66  1  0  0  0
 39 40  1  0  0  0
 65 66  1  0  0  0
 65 68  1  0  0  0
 40 41  1  0  0  0
 41 42  1  0  0  0
 42 43  1  0  0  0
 43 44  1  0  0  0
 44 45  1  0  0  0
 45 46  1  0  0  0
  4  6  1  0  0  0
  6  7  1  0  0  0
  7  8  1  0  0  0
  8  9  1  0  0  0
  9 10  1  0  0  0
 10 11  1  0  0  0
 11 12  1  0  0  0
 12 13  1  0  0  0
 13 14  1  0  0  0
 14 15  1  0  0  0
 15 16  1  0  0  0
 16 17  1  0  0  0
 17 18  1  0  0  0
 18 19  1  0  0  0
 19 20  2  0  0  0
 20 21  1  0  0  0
 21 22  1  0  0  0
 22 23  1  0  0  0
 23 24  1  0  0  0
 24 25  1  0  0  0
 25 26  1  0  0  0
 26 27  1  0  0  0
 27 28  1  0  0  0
 52 53  1  0  0  0
 53 54  1  0  0  0
 54 55  1  0  0  0
 55 56  1  0  0  0
 56 60  1  0  0  0
M  CHG 1  64  -1
M  END
> <minimizedAffinity>
-7.90263

> <CNNscore>
0.1605324000

> <CNNaffinity>
7.3357939720

> <CNN_VS>
1.1776325703

> <CNNaffinity_variance>
1.5163195133

$$$$
/media/chris/experiments/cd1a-new-docking/inputs/ligands/7ryn_ligand.pdb


 68 68  0  0  0  0  0  0  0  0999 V2000
  -38.3734   60.7176   63.5476 C   0  0  0  0  0  0  0  0  0  0  0  0
  -39.5017   60.0920   64.2307 N   0  0  0  0  0  0  0  0  0  0  0  0
  -38.9856   60.8567   66.2842 O   0  0  0  0  0  0  0  0  0  0  0  0
  -39.7200   60.2096   65.5433 C   0  0  0  0  0  0  0  0  0  0  0  0
  -40.1330   59.5568   63.6976 H   0  0  0  0  0  0  0  0  0  0  0  0
  -40.9422   59.4979   66.0677 C   0  0  0  0  0  0  0  0  0  0  0  0
  -42.2404   60.1373   65.5921 C   0  0  0  0  0  0  0  0  0  0  0  0
  -42.9530   59.3043   64.5388 C   0  0  0  0  0  0  0  0  0  0  0  0
  -42.6103   57.8246   64.5879 C   0  0  0  0  0  0  0  0  0  0  0  0
  -43.6505   56.9755   65.3031 C   0  0  0  0  0  0  0  0  0  0  0  0
  -45.0319   57.6143   65.3708 C   0  0  0  0  0  0  0  0  0  0  0  0
  -45.4024   58.1378   66.7525 C   0  0  0  0  0  0  0  0  0  0  0  0
  -46.6869   57.5487   67.3299 C   0  0  0  0  0  0  0  0  0  0  0  0
  -47.5719   56.8536   66.2965 C   0  0  0  0  0  0  0  0  0  0  0  0
  -48.6895   57.7257   65.7249 C   0  0  0  0  0  0  0  0  0  0  0  0
  -48.5140   59.2146   66.0245 C   0  0  0  0  0  0  0  0  0  0  0  0
  -47.9204   60.0390   64.8823 C   0  0  0  0  0  0  0  0  0  0  0  0
  -48.9438   60.8078   64.0422 C   0  0  0  0  0  0  0  0  0  0  0  0
  -50.3609   60.4184   64.3491 C   0  0  0  0  0  0  0  0  0  0  0  0
  -51.1731   59.7452   63.5534 C   0  0  0  0  0  0  0  0  0  0  0  0
  -50.8415   59.2322   62.1848 C   0  0  0  0  0  0  0  0  0  0  0  0
  -50.1411   57.8718   62.1914 C   0  0  0  0  0  0  0  0  0  0  0  0
  -50.2408   57.1367   60.8615 C   0  0  0  0  0  0  0  0  0  0  0  0
  -49.6714   57.9275   59.6889 C   0  0  0  0  0  0  0  0  0  0  0  0
  -48.3583   57.3829   59.1386 C   0  0  0  0  0  0  0  0  0  0  0  0
  -47.7243   58.2699   58.0762 C   0  0  0  0  0  0  0  0  0  0  0  0
  -46.9307   57.5110   57.0246 C   0  0  0  0  0  0  0  0  0  0  0  0
  -47.1636   56.0147   57.0767 C   0  0  0  0  0  0  0  0  0  0  0  0
  -37.9588   61.5271   61.3098 O   0  0  0  0  0  0  0  0  0  0  0  0
  -38.4489   60.4021   62.0451 C   0  0  0  0  0  0  0  0  0  0  0  0
  -37.0552   61.7321   61.5966 H   0  0  0  0  0  0  0  0  0  0  0  0
  -39.8453   60.0561   61.6275 C   0  0  0  0  0  0  0  0  0  0  0  0
  -40.1873   59.5795   60.4469 C   0  0  0  0  0  0  0  0  0  0  0  0
  -41.5884   59.2298   60.0656 C   0  0  0  0  0  0  0  0  0  0  0  0
  -42.1148   58.0678   60.9105 C   0  0  0  0  0  0  0  0  0  0  0  0
  -41.3962   56.7494   60.6734 C   0  0  0  0  0  0  0  0  0  0  0  0
  -41.0382   55.9959   61.9430 C   0  0  0  0  0  0  0  0  0  0  0  0
  -39.9865   56.6881   62.7977 C   0  0  0  0  0  0  0  0  0  0  0  0
  -38.6158   56.7577   62.1421 C   0  0  0  0  0  0  0  0  0  0  0  0
  -37.5257   57.2861   63.0579 C   0  0  0  0  0  0  0  0  0  0  0  0
  -36.1183   56.9486   62.6022 C   0  0  0  0  0  0  0  0  0  0  0  0
  -35.3772   58.1175   61.9761 C   0  0  0  0  0  0  0  0  0  0  0  0
  -33.8692   57.9529   62.0138 C   0  0  0  0  0  0  0  0  0  0  0  0
  -33.1029   59.2458   62.2171 C   0  0  0  0  0  0  0  0  0  0  0  0
  -32.9409   59.6029   63.6816 C   0  0  0  0  0  0  0  0  0  0  0  0
  -33.0171   58.3904   64.5864 C   0  0  0  0  0  0  0  0  0  0  0  0
  -37.0701   60.2504   64.1621 C   0  0  0  0  0  0  0  0  0  0  0  0
  -36.0005   60.9978   63.5722 O   0  0  0  0  0  0  0  0  0  0  0  0
  -36.1238   62.2065   66.0951 O   0  0  0  0  0  0  0  0  0  0  0  0
  -33.5429   64.7499   63.7729 O   0  0  0  0  0  0  0  0  0  0  0  0
  -35.5232   63.0310   62.5890 O   0  0  0  0  0  0  0  0  0  0  0  0
  -36.1335   62.3843   63.6903 C   0  0  0  0  0  0  0  0  0  0  0  0
  -35.4656   62.8133   64.9903 C   0  0  0  0  0  0  0  0  0  0  0  0
  -35.5095   64.3307   65.1189 C   0  0  0  0  0  0  0  0  0  0  0  0
  -34.9407   65.0012   63.8770 C   0  0  0  0  0  0  0  0  0  0  0  0
  -35.6453   64.4616   62.6348 C   0  0  0  0  0  0  0  0  0  0  0  0
  -36.0892   61.2416   66.0020 H   0  0  0  0  0  0  0  0  0  0  0  0
  -33.0933   65.0919   64.5613 H   0  0  0  0  0  0  0  0  0  0  0  0
  -35.5238   64.2499   60.2204 O   0  0  0  0  0  0  0  0  0  0  0  0
  -35.0650   64.9918   61.3446 C   0  0  0  0  0  0  0  0  0  0  0  0
  -35.1336   64.6151   59.4110 H   0  0  0  0  0  0  0  0  0  0  0  0
  -34.6561   64.6289   66.2687 O   0  0  0  0  0  0  0  0  0  0  0  0
  -32.2748   64.6935   66.6330 O   0  0  0  0  0  0  0  0  0  0  0  0
  -33.3504   62.6892   65.5645 O   0  0  0  0  0  0  0  0  0  0  0  0
  -33.6392   63.1864   67.8679 O   0  0  0  0  0  0  0  0  0  0  0  0
  -33.3364   63.7694   66.4777 S   0  0  0  0  0  0  0  0  0  0  0  0
  -32.0563   65.0825   65.7718 H   0  0  0  0  0  0  0  0  0  0  0  0
  -33.6385   63.9001   68.5249 H   0  0  0  0  0  0  0  0  0  0  0  0
  2  1  1  0  0  0
  2  4  1  0  0  0
  2  5  1  0  0  0
 47 48  1  0  0  0
 47  1  1  0  0  0
 48 52  1  0  0  0
  1 30  1  0  0  0
 29 30  1  0  0  0
 29 31  1  0  0  0
 30 32  1  0  0  0
  3  4  2  0  0  0
 32 33  2  0  0  0
 49 53  1  0  0  0
 49 57  1  0  0  0
 33 34  1  0  0  0
 62 54  1  0  0  0
 62 66  1  0  0  0
 34 35  1  0  0  0
 50 55  1  0  0  0
 50 58  1  0  0  0
 35 36  1  0  0  0
 51 52  1  0  0  0
 51 56  1  0  0  0
 36 37  1  0  0  0
 59 60  1  0  0  0
 59 61  1  0  0  0
 37 38  1  0  0  0
 63 66  1  0  0  0
 63 67  1  0  0  0
 38 39  1  0  0  0
 64 66  1  0  0  0
 39 40  1  0  0  0
 65 66  1  0  0  0
 65 68  1  0  0  0
 40 41  1  0  0  0
 41 42  1  0  0  0
 42 43  1  0  0  0
 43 44  1  0  0  0
 44 45  1  0  0  0
 45 46  1  0  0  0
  4  6  1  0  0  0
  6  7  1  0  0  0
  7  8  1  0  0  0
  8  9  1  0  0  0
  9 10  1  0  0  0
 10 11  1  0  0  0
 11 12  1  0  0  0
 12 13  1  0  0  0
 13 14  1  0  0  0
 14 15  1  0  0  0
 15 16  1  0  0  0
 16 17  1  0  0  0
 17 18  1  0  0  0
 18 19  1  0  0  0
 19 20  2  0  0  0
 20 21  1  0  0  0
 21 22  1  0  0  0
 22 23  1  0  0  0
 23 24  1  0  0  0
 24 25  1  0  0  0
 25 26  1  0  0  0
 26 27  1  0  0  0
 27 28  1  0  0  0
 52 53  1  0  0  0
 53 54  1  0  0  0
 54 55  1  0  0  0
 55 56  1  0  0  0
 56 60  1  0  0  0
M  CHG 1  64  -1
M  END
> <minimizedAffinity>
-8.65896

> <CNNscore>
0.1284685582

> <CNNaffinity>
7.3652634621

> <CNN_VS>
0.9462047815

> <CNNaffinity_variance>
0.9430418015

$$$$
/media/chris/experiments/cd1a-new-docking/inputs/ligands/7ryn_ligand.pdb


 68 68  0  0  0  0  0  0  0  0999 V2000
  -41.9412   57.4183   64.2759 C   0  0  0  0  0  0  0  0  0  0  0  0
  -40.6248   57.8003   64.7783 N   0  0  0  0  0  0  0  0  0  0  0  0
  -41.3106   59.6641   65.8384 O   0  0  0  0  0  0  0  0  0  0  0  0
  -40.4118   58.8913   65.5189 C   0  0  0  0  0  0  0  0  0  0  0  0
  -39.8559   57.2254   64.5603 H   0  0  0  0  0  0  0  0  0  0  0  0
  -38.9847   59.1172   65.9523 C   0  0  0  0  0  0  0  0  0  0  0  0
  -38.4705   60.5003   65.5739 C   0  0  0  0  0  0  0  0  0  0  0  0
  -37.0527   60.7524   66.0612 C   0  0  0  0  0  0  0  0  0  0  0  0
  -36.5119   62.1257   65.6995 C   0  0  0  0  0  0  0  0  0  0  0  0
  -35.2786   62.5300   66.4933 C   0  0  0  0  0  0  0  0  0  0  0  0
  -33.9726   62.3955   65.7206 C   0  0  0  0  0  0  0  0  0  0  0  0
  -32.9955   63.5400   65.9566 C   0  0  0  0  0  0  0  0  0  0  0  0
  -32.9994   64.6111   64.8689 C   0  0  0  0  0  0  0  0  0  0  0  0
  -34.1130   64.4448   63.8361 C   0  0  0  0  0  0  0  0  0  0  0  0
  -33.6263   64.2347   62.4025 C   0  0  0  0  0  0  0  0  0  0  0  0
  -32.1041   64.1626   62.2804 C   0  0  0  0  0  0  0  0  0  0  0  0
  -31.5857   63.6746   60.9278 C   0  0  0  0  0  0  0  0  0  0  0  0
  -31.1754   62.2001   60.8882 C   0  0  0  0  0  0  0  0  0  0  0  0
  -30.9292   61.6263   62.2535 C   0  0  0  0  0  0  0  0  0  0  0  0
  -31.4833   60.5347   62.7508 C   0  0  0  0  0  0  0  0  0  0  0  0
  -32.4676   59.6479   62.0502 C   0  0  0  0  0  0  0  0  0  0  0  0
  -32.6442   58.2807   62.7142 C   0  0  0  0  0  0  0  0  0  0  0  0
  -32.3806   58.3012   64.2140 C   0  0  0  0  0  0  0  0  0  0  0  0
  -33.6540   58.2872   65.0523 C   0  0  0  0  0  0  0  0  0  0  0  0
  -34.9085   58.7192   64.3018 C   0  0  0  0  0  0  0  0  0  0  0  0
  -36.0732   57.7496   64.4457 C   0  0  0  0  0  0  0  0  0  0  0  0
  -36.6409   57.2583   63.1236 C   0  0  0  0  0  0  0  0  0  0  0  0
  -36.0736   57.9964   61.9281 C   0  0  0  0  0  0  0  0  0  0  0  0
  -42.7645   55.3039   65.1045 O   0  0  0  0  0  0  0  0  0  0  0  0
  -42.7244   56.7052   65.3898 C   0  0  0  0  0  0  0  0  0  0  0  0
  -41.8597   54.9656   65.0179 H   0  0  0  0  0  0  0  0  0  0  0  0
  -44.1074   57.2632   65.5304 C   0  0  0  0  0  0  0  0  0  0  0  0
  -44.5076   58.0621   66.4998 C   0  0  0  0  0  0  0  0  0  0  0  0
  -45.8913   58.6145   66.6041 C   0  0  0  0  0  0  0  0  0  0  0  0
  -46.8744   57.5477   67.0904 C   0  0  0  0  0  0  0  0  0  0  0  0
  -48.0062   57.2542   66.1191 C   0  0  0  0  0  0  0  0  0  0  0  0
  -48.6812   58.4923   65.5540 C   0  0  0  0  0  0  0  0  0  0  0  0
  -49.0369   58.3841   64.0784 C   0  0  0  0  0  0  0  0  0  0  0  0
  -50.4421   58.8660   63.7519 C   0  0  0  0  0  0  0  0  0  0  0  0
  -50.9432   58.4141   62.3914 C   0  0  0  0  0  0  0  0  0  0  0  0
  -50.0778   58.8699   61.2313 C   0  0  0  0  0  0  0  0  0  0  0  0
  -49.8772   57.8117   60.1601 C   0  0  0  0  0  0  0  0  0  0  0  0
  -48.6115   58.0202   59.3495 C   0  0  0  0  0  0  0  0  0  0  0  0
  -47.6580   56.8409   59.3626 C   0  0  0  0  0  0  0  0  0  0  0  0
  -47.6618   56.0742   58.0546 C   0  0  0  0  0  0  0  0  0  0  0  0
  -47.0699   56.8732   56.9119 C   0  0  0  0  0  0  0  0  0  0  0  0
  -41.7949   56.5539   63.0406 C   0  0  0  0  0  0  0  0  0  0  0  0
  -40.5100   56.8086   62.4621 O   0  0  0  0  0  0  0  0  0  0  0  0
  -42.7372   58.4243   61.9422 O   0  0  0  0  0  0  0  0  0  0  0  0
  -39.3352   60.9264   61.1125 O   0  0  0  0  0  0  0  0  0  0  0  0
  -39.2288   58.0534   61.0001 O   0  0  0  0  0  0  0  0  0  0  0  0
  -40.5392   57.6380   61.3373 C   0  0  0  0  0  0  0  0  0  0  0  0
  -41.4078   58.8458   61.6643 C   0  0  0  0  0  0  0  0  0  0  0  0
  -41.3979   59.8225   60.4951 C   0  0  0  0  0  0  0  0  0  0  0  0
  -39.9744   60.1726   60.0873 C   0  0  0  0  0  0  0  0  0  0  0  0
  -39.1838   58.8914   59.8341 C   0  0  0  0  0  0  0  0  0  0  0  0
  -42.7304   57.8036   62.6875 H   0  0  0  0  0  0  0  0  0  0  0  0
  -39.8360   61.7410   61.2750 H   0  0  0  0  0  0  0  0  0  0  0  0
  -37.5186   59.4362   58.1550 O   0  0  0  0  0  0  0  0  0  0  0  0
  -37.7250   59.1428   59.5320 C   0  0  0  0  0  0  0  0  0  0  0  0
  -36.5746   59.5919   57.9956 H   0  0  0  0  0  0  0  0  0  0  0  0
  -42.0670   61.0182   61.0068 O   0  0  0  0  0  0  0  0  0  0  0  0
  -41.0228   60.7795   63.1655 O   0  0  0  0  0  0  0  0  0  0  0  0
  -43.5232   60.6725   62.9364 O   0  0  0  0  0  0  0  0  0  0  0  0
  -42.3268   62.7054   62.6676 O   0  0  0  0  0  0  0  0  0  0  0  0
  -42.2495   61.1724   62.5774 S   0  0  0  0  0  0  0  0  0  0  0  0
  -40.9400   59.8138   63.1260 H   0  0  0  0  0  0  0  0  0  0  0  0
  -41.4680   63.0871   62.4274 H   0  0  0  0  0  0  0  0  0  0  0  0
  2  1  1  0  0  0
  2  4  1  0  0  0
  2  5  1  0  0  0
 47 48  1  0  0  0
 47  1  1  0  0  0
 48 52  1  0  0  0
  1 30  1  0  0  0
 29 30  1  0  0  0
 29 31  1  0  0  0
 30 32  1  0  0  0
  3  4  2  0  0  0
 32 33  2  0  0  0
 49 53  1  0  0  0
 49 57  1  0  0  0
 33 34  1  0  0  0
 62 54  1  0  0  0
 62 66  1  0  0  0
 34 35  1  0  0  0
 50 55  1  0  0  0
 50 58  1  0  0  0
 35 36  1  0  0  0
 51 52  1  0  0  0
 51 56  1  0  0  0
 36 37  1  0  0  0
 59 60  1  0  0  0
 59 61  1  0  0  0
 37 38  1  0  0  0
 63 66  1  0  0  0
 63 67  1  0  0  0
 38 39  1  0  0  0
 64 66  1  0  0  0
 39 40  1  0  0  0
 65 66  1  0  0  0
 65 68  1  0  0  0
 40 41  1  0  0  0
 41 42  1  0  0  0
 42 43  1  0  0  0
 43 44  1  0  0  0
 44 45  1  0  0  0
 45 46  1  0  0  0
  4  6  1  0  0  0
  6  7  1  0  0  0
  7  8  1  0  0  0
  8  9  1  0  0  0
  9 10  1  0  0  0
 10 11  1  0  0  0
 11 12  1  0  0  0
 12 13  1  0  0  0
 13 14  1  0  0  0
 14 15  1  0  0  0
 15 16  1  0  0  0
 16 17  1  0  0  0
 17 18  1  0  0  0
 18 19  1  0  0  0
 19 20  2  0  0  0
 20 21  1  0  0  0
 21 22  1  0  0  0
 22 23  1  0  0  0
 23 24  1  0  0  0
 24 25  1  0  0  0
 25 26  1  0  0  0
 26 27  1  0  0  0
 27 28  1  0  0  0
 52 53  1  0  0  0
 53 54  1  0  0  0
 54 55  1  0  0  0
 55 56  1  0  0  0
 56 60  1  0  0  0
M  CHG 1  64  -1
M  END
> <minimizedAffinity>
-8.15941

> <CNNscore>
0.1187413037

> <CNNaffinity>
7.1659049988

> <CNN_VS>
0.8508889079

> <CNNaffinity_variance>
1.5994975567

$$$$
/media/chris/experiments/cd1a-new-docking/inputs/ligands/7ryn_ligand.pdb


 68 68  0  0  0  0  0  0  0  0999 V2000
  -43.3773   57.7296   65.8613 C   0  0  0  0  0  0  0  0  0  0  0  0
  -42.4367   57.5569   64.7582 N   0  0  0  0  0  0  0  0  0  0  0  0
  -41.9918   55.3883   65.1671 O   0  0  0  0  0  0  0  0  0  0  0  0
  -41.8181   56.4022   64.4971 C   0  0  0  0  0  0  0  0  0  0  0  0
  -42.2491   58.3298   64.1781 H   0  0  0  0  0  0  0  0  0  0  0  0
  -40.8871   56.4147   63.3104 C   0  0  0  0  0  0  0  0  0  0  0  0
  -41.4094   55.5795   62.1485 C   0  0  0  0  0  0  0  0  0  0  0  0
  -41.3789   56.3297   60.8265 C   0  0  0  0  0  0  0  0  0  0  0  0
  -42.0205   57.7060   60.8843 C   0  0  0  0  0  0  0  0  0  0  0  0
  -41.3861   58.7205   59.9446 C   0  0  0  0  0  0  0  0  0  0  0  0
  -40.0595   58.2678   59.3480 C   0  0  0  0  0  0  0  0  0  0  0  0
  -38.9033   59.2216   59.6199 C   0  0  0  0  0  0  0  0  0  0  0  0
  -37.7455   58.6071   60.4024 C   0  0  0  0  0  0  0  0  0  0  0  0
  -38.1831   57.6899   61.5432 C   0  0  0  0  0  0  0  0  0  0  0  0
  -37.0694   57.3109   62.5191 C   0  0  0  0  0  0  0  0  0  0  0  0
  -35.7149   57.9256   62.1659 C   0  0  0  0  0  0  0  0  0  0  0  0
  -34.4997   57.1417   62.6613 C   0  0  0  0  0  0  0  0  0  0  0  0
  -33.1488   57.6648   62.1655 C   0  0  0  0  0  0  0  0  0  0  0  0
  -32.3847   58.4036   63.2259 C   0  0  0  0  0  0  0  0  0  0  0  0
  -32.0142   59.6710   63.1782 C   0  0  0  0  0  0  0  0  0  0  0  0
  -32.2850   60.6271   62.0564 C   0  0  0  0  0  0  0  0  0  0  0  0
  -31.0282   61.3131   61.5167 C   0  0  0  0  0  0  0  0  0  0  0  0
  -30.9286   62.7816   61.9077 C   0  0  0  0  0  0  0  0  0  0  0  0
  -32.2653   63.5131   61.8569 C   0  0  0  0  0  0  0  0  0  0  0  0
  -32.7245   64.0825   63.1944 C   0  0  0  0  0  0  0  0  0  0  0  0
  -32.0120   63.4766   64.3955 C   0  0  0  0  0  0  0  0  0  0  0  0
  -31.1938   64.4730   65.2014 C   0  0  0  0  0  0  0  0  0  0  0  0
  -31.9929   65.6907   65.6189 C   0  0  0  0  0  0  0  0  0  0  0  0
  -44.8902   57.9596   63.9923 O   0  0  0  0  0  0  0  0  0  0  0  0
  -44.8098   57.5113   65.3485 C   0  0  0  0  0  0  0  0  0  0  0  0
  -44.2330   57.4885   63.4567 H   0  0  0  0  0  0  0  0  0  0  0  0
  -45.8128   58.2190   66.2071 C   0  0  0  0  0  0  0  0  0  0  0  0
  -47.1209   58.1499   66.0584 C   0  0  0  0  0  0  0  0  0  0  0  0
  -48.0965   58.8565   66.9415 C   0  0  0  0  0  0  0  0  0  0  0  0
  -48.5552   60.1732   66.3116 C   0  0  0  0  0  0  0  0  0  0  0  0
  -48.4580   60.2057   64.7950 C   0  0  0  0  0  0  0  0  0  0  0  0
  -49.7752   60.4818   64.0904 C   0  0  0  0  0  0  0  0  0  0  0  0
  -50.7609   59.3237   64.1449 C   0  0  0  0  0  0  0  0  0  0  0  0
  -50.9701   58.6360   62.8045 C   0  0  0  0  0  0  0  0  0  0  0  0
  -49.6886   58.4297   62.0161 C   0  0  0  0  0  0  0  0  0  0  0  0
  -49.7538   58.9358   60.5872 C   0  0  0  0  0  0  0  0  0  0  0  0
  -49.7876   57.8319   59.5441 C   0  0  0  0  0  0  0  0  0  0  0  0
  -48.4062   57.3322   59.1639 C   0  0  0  0  0  0  0  0  0  0  0  0
  -47.6861   58.1956   58.1460 C   0  0  0  0  0  0  0  0  0  0  0  0
  -47.0303   57.3793   57.0496 C   0  0  0  0  0  0  0  0  0  0  0  0
  -47.3010   55.8955   57.1899 C   0  0  0  0  0  0  0  0  0  0  0  0
  -43.1993   59.0979   66.4864 C   0  0  0  0  0  0  0  0  0  0  0  0
  -41.7968   59.3469   66.6336 O   0  0  0  0  0  0  0  0  0  0  0  0
  -39.0796   60.0218   66.6817 O   0  0  0  0  0  0  0  0  0  0  0  0
  -40.0893   59.7875   62.5046 O   0  0  0  0  0  0  0  0  0  0  0  0
  -42.0332   60.3254   64.5564 O   0  0  0  0  0  0  0  0  0  0  0  0
  -41.2889   60.3129   65.7603 C   0  0  0  0  0  0  0  0  0  0  0  0
  -39.8317   59.9723   65.4760 C   0  0  0  0  0  0  0  0  0  0  0  0
  -39.2604   60.9509   64.4577 C   0  0  0  0  0  0  0  0  0  0  0  0
  -40.1362   61.0205   63.2153 C   0  0  0  0  0  0  0  0  0  0  0  0
  -41.5782   61.3159   63.6206 C   0  0  0  0  0  0  0  0  0  0  0  0
  -39.4525   59.3952   67.3214 H   0  0  0  0  0  0  0  0  0  0  0  0
  -39.1738   59.5979   62.2462 H   0  0  0  0  0  0  0  0  0  0  0  0
  -43.3838   62.4377   62.4500 O   0  0  0  0  0  0  0  0  0  0  0  0
  -42.5400   61.2919   62.4558 C   0  0  0  0  0  0  0  0  0  0  0  0
  -43.9870   62.3911   61.6919 H   0  0  0  0  0  0  0  0  0  0  0  0
  -37.9546   60.3952   64.1035 O   0  0  0  0  0  0  0  0  0  0  0  0
  -35.5791   60.2972   64.4972 O   0  0  0  0  0  0  0  0  0  0  0  0
  -36.9700   62.1231   65.5207 O   0  0  0  0  0  0  0  0  0  0  0  0
  -36.5096   62.0550   63.1926 O   0  0  0  0  0  0  0  0  0  0  0  0
  -36.6509   61.2224   64.4776 S   0  0  0  0  0  0  0  0  0  0  0  0
  -35.6368   59.7527   65.2979 H   0  0  0  0  0  0  0  0  0  0  0  0
  -36.2900   61.4698   62.4508 H   0  0  0  0  0  0  0  0  0  0  0  0
  2  1  1  0  0  0
  2  4  1  0  0  0
  2  5  1  0  0  0
 47 48  1  0  0  0
 47  1  1  0  0  0
 48 52  1  0  0  0
  1 30  1  0  0  0
 29 30  1  0  0  0
 29 31  1  0  0  0
 30 32  1  0  0  0
  3  4  2  0  0  0
 32 33  2  0  0  0
 49 53  1  0  0  0
 49 57  1  0  0  0
 33 34  1  0  0  0
 62 54  1  0  0  0
 62 66  1  0  0  0
 34 35  1  0  0  0
 50 55  1  0  0  0
 50 58  1  0  0  0
 35 36  1  0  0  0
 51 52  1  0  0  0
 51 56  1  0  0  0
 36 37  1  0  0  0
 59 60  1  0  0  0
 59 61  1  0  0  0
 37 38  1  0  0  0
 63 66  1  0  0  0
 63 67  1  0  0  0
 38 39  1  0  0  0
 64 66  1  0  0  0
 39 40  1  0  0  0
 65 66  1  0  0  0
 65 68  1  0  0  0
 40 41  1  0  0  0
 41 42  1  0  0  0
 42 43  1  0  0  0
 43 44  1  0  0  0
 44 45  1  0  0  0
 45 46  1  0  0  0
  4  6  1  0  0  0
  6  7  1  0  0  0
  7  8  1  0  0  0
  8  9  1  0  0  0
  9 10  1  0  0  0
 10 11  1  0  0  0
 11 12  1  0  0  0
 12 13  1  0  0  0
 13 14  1  0  0  0
 14 15  1  0  0  0
 15 16  1  0  0  0
 16 17  1  0  0  0
 17 18  1  0  0  0
 18 19  1  0  0  0
 19 20  2  0  0  0
 20 21  1  0  0  0
 21 22  1  0  0  0
 22 23  1  0  0  0
 23 24  1  0  0  0
 24 25  1  0  0  0
 25 26  1  0  0  0
 26 27  1  0  0  0
 27 28  1  0  0  0
 52 53  1  0  0  0
 53 54  1  0  0  0
 54 55  1  0  0  0
 55 56  1  0  0  0
 56 60  1  0  0  0
M  CHG 1  64  -1
M  END
> <minimizedAffinity>
-8.84148

> <CNNscore>
0.1083899066

> <CNNaffinity>
6.8254652023

> <CNN_VS>
0.7398115396

> <CNNaffinity_variance>
2.3558919430

$$$$
/media/chris/experiments/cd1a-new-docking/inputs/ligands/7ryn_ligand.pdb


 68 68  0  0  0  0  0  0  0  0999 V2000
  -38.1014   60.8655   64.1728 C   0  0  0  0  0  0  0  0  0  0  0  0
  -39.0301   59.8117   64.5703 N   0  0  0  0  0  0  0  0  0  0  0  0
  -40.0417   60.9927   66.1982 O   0  0  0  0  0  0  0  0  0  0  0  0
  -39.9264   59.9565   65.5501 C   0  0  0  0  0  0  0  0  0  0  0  0
  -38.9941   58.9517   64.0926 H   0  0  0  0  0  0  0  0  0  0  0  0
  -40.8056   58.7591   65.8121 C   0  0  0  0  0  0  0  0  0  0  0  0
  -42.2851   59.1187   65.8579 C   0  0  0  0  0  0  0  0  0  0  0  0
  -42.8493   59.4567   64.4872 C   0  0  0  0  0  0  0  0  0  0  0  0
  -43.9669   58.5314   64.0356 C   0  0  0  0  0  0  0  0  0  0  0  0
  -44.5679   57.6989   65.1583 C   0  0  0  0  0  0  0  0  0  0  0  0
  -45.7820   58.3369   65.8214 C   0  0  0  0  0  0  0  0  0  0  0  0
  -46.4642   57.4433   66.8492 C   0  0  0  0  0  0  0  0  0  0  0  0
  -47.6158   56.6070   66.2970 C   0  0  0  0  0  0  0  0  0  0  0  0
  -48.5835   57.3894   65.4107 C   0  0  0  0  0  0  0  0  0  0  0  0
  -49.6265   58.2068   66.1725 C   0  0  0  0  0  0  0  0  0  0  0  0
  -49.3745   59.7138   66.1226 C   0  0  0  0  0  0  0  0  0  0  0  0
  -48.6177   60.2029   64.8878 C   0  0  0  0  0  0  0  0  0  0  0  0
  -49.4970   60.8073   63.7898 C   0  0  0  0  0  0  0  0  0  0  0  0
  -50.8505   60.1629   63.7056 C   0  0  0  0  0  0  0  0  0  0  0  0
  -51.1751   59.1298   62.9486 C   0  0  0  0  0  0  0  0  0  0  0  0
  -50.2561   58.3913   62.0233 C   0  0  0  0  0  0  0  0  0  0  0  0
  -49.7351   59.2442   60.8647 C   0  0  0  0  0  0  0  0  0  0  0  0
  -48.9776   58.4391   59.8173 C   0  0  0  0  0  0  0  0  0  0  0  0
  -49.3297   56.9557   59.8234 C   0  0  0  0  0  0  0  0  0  0  0  0
  -48.1927   56.0352   59.3944 C   0  0  0  0  0  0  0  0  0  0  0  0
  -46.9911   56.7723   58.8198 C   0  0  0  0  0  0  0  0  0  0  0  0
  -46.8666   56.6754   57.3076 C   0  0  0  0  0  0  0  0  0  0  0  0
  -47.7536   57.6641   56.5786 C   0  0  0  0  0  0  0  0  0  0  0  0
  -37.3654   62.0823   62.2202 O   0  0  0  0  0  0  0  0  0  0  0  0
  -37.9168   60.8333   62.6472 C   0  0  0  0  0  0  0  0  0  0  0  0
  -36.5309   62.2439   62.6873 H   0  0  0  0  0  0  0  0  0  0  0  0
  -39.2094   60.5501   61.9449 C   0  0  0  0  0  0  0  0  0  0  0  0
  -39.3192   60.1189   60.7040 C   0  0  0  0  0  0  0  0  0  0  0  0
  -40.6238   59.8312   60.0362 C   0  0  0  0  0  0  0  0  0  0  0  0
  -41.5404   59.0136   60.9486 C   0  0  0  0  0  0  0  0  0  0  0  0
  -41.1646   57.5446   61.0548 C   0  0  0  0  0  0  0  0  0  0  0  0
  -41.0646   57.0268   62.4794 C   0  0  0  0  0  0  0  0  0  0  0  0
  -39.6500   56.6658   62.9087 C   0  0  0  0  0  0  0  0  0  0  0  0
  -38.5821   57.0909   61.9126 C   0  0  0  0  0  0  0  0  0  0  0  0
  -37.2054   57.2665   62.5292 C   0  0  0  0  0  0  0  0  0  0  0  0
  -37.1982   57.2292   64.0460 C   0  0  0  0  0  0  0  0  0  0  0  0
  -35.8080   57.1497   64.6532 C   0  0  0  0  0  0  0  0  0  0  0  0
  -34.7457   57.8066   63.7916 C   0  0  0  0  0  0  0  0  0  0  0  0
  -33.4989   58.2268   64.5461 C   0  0  0  0  0  0  0  0  0  0  0  0
  -32.4415   58.8229   63.6378 C   0  0  0  0  0  0  0  0  0  0  0  0
  -32.6468   58.4486   62.1844 C   0  0  0  0  0  0  0  0  0  0  0  0
  -36.7870   60.7042   64.9082 C   0  0  0  0  0  0  0  0  0  0  0  0
  -35.7206   60.9341   63.9805 O   0  0  0  0  0  0  0  0  0  0  0  0
  -33.6698   61.8598   62.3136 O   0  0  0  0  0  0  0  0  0  0  0  0
  -34.4405   65.1074   65.0305 O   0  0  0  0  0  0  0  0  0  0  0  0
  -35.0416   62.3650   65.6597 O   0  0  0  0  0  0  0  0  0  0  0  0
  -34.6387   61.6425   64.5111 C   0  0  0  0  0  0  0  0  0  0  0  0
  -34.1289   62.5974   63.4394 C   0  0  0  0  0  0  0  0  0  0  0  0
  -33.0027   63.4547   64.0029 C   0  0  0  0  0  0  0  0  0  0  0  0
  -33.4299   64.1392   65.2930 C   0  0  0  0  0  0  0  0  0  0  0  0
  -33.9685   63.0985   66.2715 C   0  0  0  0  0  0  0  0  0  0  0  0
  -34.3950   61.3186   61.9641 H   0  0  0  0  0  0  0  0  0  0  0  0
  -34.1002   65.7697   64.4089 H   0  0  0  0  0  0  0  0  0  0  0  0
  -33.9997   65.0097   67.7665 O   0  0  0  0  0  0  0  0  0  0  0  0
  -34.5207   63.7050   67.5402 C   0  0  0  0  0  0  0  0  0  0  0  0
  -34.3732   65.3693   68.5863 H   0  0  0  0  0  0  0  0  0  0  0  0
  -32.7561   64.4640   62.9735 O   0  0  0  0  0  0  0  0  0  0  0  0
  -30.9295   63.0256   62.3396 O   0  0  0  0  0  0  0  0  0  0  0  0
  -30.9280   65.4539   61.6923 O   0  0  0  0  0  0  0  0  0  0  0  0
  -32.4065   63.8911   60.6883 O   0  0  0  0  0  0  0  0  0  0  0  0
  -31.5752   64.2205   61.9391 S   0  0  0  0  0  0  0  0  0  0  0  0
  -30.3935   63.1970   63.1297 H   0  0  0  0  0  0  0  0  0  0  0  0
  -32.8678   63.0479   60.8195 H   0  0  0  0  0  0  0  0  0  0  0  0
  2  1  1  0  0  0
  2  4  1  0  0  0
  2  5  1  0  0  0
 47 48  1  0  0  0
 47  1  1  0  0  0
 48 52  1  0  0  0
  1 30  1  0  0  0
 29 30  1  0  0  0
 29 31  1  0  0  0
 30 32  1  0  0  0
  3  4  2  0  0  0
 32 33  2  0  0  0
 49 53  1  0  0  0
 49 57  1  0  0  0
 33 34  1  0  0  0
 62 54  1  0  0  0
 62 66  1  0  0  0
 34 35  1  0  0  0
 50 55  1  0  0  0
 50 58  1  0  0  0
 35 36  1  0  0  0
 51 52  1  0  0  0
 51 56  1  0  0  0
 36 37  1  0  0  0
 59 60  1  0  0  0
 59 61  1  0  0  0
 37 38  1  0  0  0
 63 66  1  0  0  0
 63 67  1  0  0  0
 38 39  1  0  0  0
 64 66  1  0  0  0
 39 40  1  0  0  0
 65 66  1  0  0  0
 65 68  1  0  0  0
 40 41  1  0  0  0
 41 42  1  0  0  0
 42 43  1  0  0  0
 43 44  1  0  0  0
 44 45  1  0  0  0
 45 46  1  0  0  0
  4  6  1  0  0  0
  6  7  1  0  0  0
  7  8  1  0  0  0
  8  9  1  0  0  0
  9 10  1  0  0  0
 10 11  1  0  0  0
 11 12  1  0  0  0
 12 13  1  0  0  0
 13 14  1  0  0  0
 14 15  1  0  0  0
 15 16  1  0  0  0
 16 17  1  0  0  0
 17 18  1  0  0  0
 18 19  1  0  0  0
 19 20  2  0  0  0
 20 21  1  0  0  0
 21 22  1  0  0  0
 22 23  1  0  0  0
 23 24  1  0  0  0
 24 25  1  0  0  0
 25 26  1  0  0  0
 26 27  1  0  0  0
 27 28  1  0  0  0
 52 53  1  0  0  0
 53 54  1  0  0  0
 54 55  1  0  0  0
 55 56  1  0  0  0
 56 60  1  0  0  0
M  CHG 1  64  -1
M  END
> <minimizedAffinity>
-8.80018

> <CNNscore>
0.1035234481

> <CNNaffinity>
7.3010497093

> <CNN_VS>
0.7558298111

> <CNNaffinity_variance>
1.3005608320

$$$$
/media/chris/experiments/cd1a-new-docking/inputs/ligands/7ryn_ligand.pdb


 68 68  0  0  0  0  0  0  0  0999 V2000
  -38.5800   61.0119   62.2571 C   0  0  0  0  0  0  0  0  0  0  0  0
  -39.7722   60.2397   62.5943 N   0  0  0  0  0  0  0  0  0  0  0  0
  -41.1042   62.0159   62.9668 O   0  0  0  0  0  0  0  0  0  0  0  0
  -40.9394   60.8003   62.9224 C   0  0  0  0  0  0  0  0  0  0  0  0
  -39.7129   59.2572   62.5791 H   0  0  0  0  0  0  0  0  0  0  0  0
  -42.0604   59.8395   63.2317 C   0  0  0  0  0  0  0  0  0  0  0  0
  -42.7474   60.1491   64.5556 C   0  0  0  0  0  0  0  0  0  0  0  0
  -41.7805   60.1645   65.7287 C   0  0  0  0  0  0  0  0  0  0  0  0
  -42.2908   59.4302   66.9574 C   0  0  0  0  0  0  0  0  0  0  0  0
  -43.8010   59.2484   66.9825 C   0  0  0  0  0  0  0  0  0  0  0  0
  -44.2565   57.8137   66.7478 C   0  0  0  0  0  0  0  0  0  0  0  0
  -44.8959   57.5847   65.3843 C   0  0  0  0  0  0  0  0  0  0  0  0
  -46.3707   57.1934   65.4336 C   0  0  0  0  0  0  0  0  0  0  0  0
  -47.0922   57.6456   66.7021 C   0  0  0  0  0  0  0  0  0  0  0  0
  -48.4611   58.2824   66.4640 C   0  0  0  0  0  0  0  0  0  0  0  0
  -48.3912   59.7768   66.1490 C   0  0  0  0  0  0  0  0  0  0  0  0
  -48.1105   60.1173   64.6855 C   0  0  0  0  0  0  0  0  0  0  0  0
  -49.2368   60.8686   63.9705 C   0  0  0  0  0  0  0  0  0  0  0  0
  -50.5834   60.2389   64.1812 C   0  0  0  0  0  0  0  0  0  0  0  0
  -51.0543   59.1784   63.5493 C   0  0  0  0  0  0  0  0  0  0  0  0
  -50.3372   58.3886   62.4966 C   0  0  0  0  0  0  0  0  0  0  0  0
  -50.2049   59.1231   61.1608 C   0  0  0  0  0  0  0  0  0  0  0  0
  -49.7970   58.2122   60.0105 C   0  0  0  0  0  0  0  0  0  0  0  0
  -48.5215   57.4239   60.2862 C   0  0  0  0  0  0  0  0  0  0  0  0
  -48.4117   56.1119   59.5180 C   0  0  0  0  0  0  0  0  0  0  0  0
  -47.3427   56.1238   58.4342 C   0  0  0  0  0  0  0  0  0  0  0  0
  -47.0100   57.5092   57.9036 C   0  0  0  0  0  0  0  0  0  0  0  0
  -47.5397   57.7470   56.5040 C   0  0  0  0  0  0  0  0  0  0  0  0
  -38.3374   60.0169   60.0694 O   0  0  0  0  0  0  0  0  0  0  0  0
  -37.6798   60.1803   61.3293 C   0  0  0  0  0  0  0  0  0  0  0  0
  -38.5429   60.8884   59.6966 H   0  0  0  0  0  0  0  0  0  0  0  0
  -37.3465   58.8518   61.9360 C   0  0  0  0  0  0  0  0  0  0  0  0
  -36.1275   58.4197   62.1916 C   0  0  0  0  0  0  0  0  0  0  0  0
  -35.8283   57.0943   62.8117 C   0  0  0  0  0  0  0  0  0  0  0  0
  -35.6920   57.2158   64.3309 C   0  0  0  0  0  0  0  0  0  0  0  0
  -37.0018   57.0673   65.0878 C   0  0  0  0  0  0  0  0  0  0  0  0
  -37.7199   58.3787   65.3572 C   0  0  0  0  0  0  0  0  0  0  0  0
  -39.2367   58.2594   65.3845 C   0  0  0  0  0  0  0  0  0  0  0  0
  -39.7867   57.2362   64.4027 C   0  0  0  0  0  0  0  0  0  0  0  0
  -41.1421   56.6765   64.7974 C   0  0  0  0  0  0  0  0  0  0  0  0
  -41.9326   56.0970   63.6391 C   0  0  0  0  0  0  0  0  0  0  0  0
  -41.0721   55.6453   62.4715 C   0  0  0  0  0  0  0  0  0  0  0  0
  -41.5293   56.2157   61.1418 C   0  0  0  0  0  0  0  0  0  0  0  0
  -40.8366   57.5042   60.7416 C   0  0  0  0  0  0  0  0  0  0  0  0
  -41.5026   58.1809   59.5596 C   0  0  0  0  0  0  0  0  0  0  0  0
  -41.5407   59.6887   59.7000 C   0  0  0  0  0  0  0  0  0  0  0  0
  -37.8593   61.4333   63.5210 C   0  0  0  0  0  0  0  0  0  0  0  0
  -36.5494   61.8874   63.1624 O   0  0  0  0  0  0  0  0  0  0  0  0
  -33.8279   61.4316   62.6856 O   0  0  0  0  0  0  0  0  0  0  0  0
  -33.9293   64.6697   65.5187 O   0  0  0  0  0  0  0  0  0  0  0  0
  -36.0680   62.7651   65.2424 O   0  0  0  0  0  0  0  0  0  0  0  0
  -35.6326   61.8912   64.2176 C   0  0  0  0  0  0  0  0  0  0  0  0
  -34.2863   62.3485   63.6712 C   0  0  0  0  0  0  0  0  0  0  0  0
  -33.2750   62.4520   64.8058 C   0  0  0  0  0  0  0  0  0  0  0  0
  -33.8112   63.3144   65.9390 C   0  0  0  0  0  0  0  0  0  0  0  0
  -35.1811   62.7981   66.3721 C   0  0  0  0  0  0  0  0  0  0  0  0
  -34.4795   61.3744   61.9693 H   0  0  0  0  0  0  0  0  0  0  0  0
  -33.0599   64.9998   65.2430 H   0  0  0  0  0  0  0  0  0  0  0  0
  -36.4009   62.8837   68.4681 O   0  0  0  0  0  0  0  0  0  0  0  0
  -35.8392   63.6650   67.4199 C   0  0  0  0  0  0  0  0  0  0  0  0
  -36.8141   63.4691   69.1219 H   0  0  0  0  0  0  0  0  0  0  0  0
  -32.1113   63.1036   64.2053 O   0  0  0  0  0  0  0  0  0  0  0  0
  -31.8101   65.4862   64.0053 O   0  0  0  0  0  0  0  0  0  0  0  0
  -33.6479   64.3204   62.7487 O   0  0  0  0  0  0  0  0  0  0  0  0
  -31.3639   64.0589   62.1556 O   0  0  0  0  0  0  0  0  0  0  0  0
  -32.3444   64.3842   63.2945 S   0  0  0  0  0  0  0  0  0  0  0  0
  -32.4056   65.7199   64.7345 H   0  0  0  0  0  0  0  0  0  0  0  0
  -30.4548   64.0927   62.4922 H   0  0  0  0  0  0  0  0  0  0  0  0
  2  1  1  0  0  0
  2  4  1  0  0  0
  2  5  1  0  0  0
 47 48  1  0  0  0
 47  1  1  0  0  0
 48 52  1  0  0  0
  1 30  1  0  0  0
 29 30  1  0  0  0
 29 31  1  0  0  0
 30 32  1  0  0  0
  3  4  2  0  0  0
 32 33  2  0  0  0
 49 53  1  0  0  0
 49 57  1  0  0  0
 33 34  1  0  0  0
 62 54  1  0  0  0
 62 66  1  0  0  0
 34 35  1  0  0  0
 50 55  1  0  0  0
 50 58  1  0  0  0
 35 36  1  0  0  0
 51 52  1  0  0  0
 51 56  1  0  0  0
 36 37  1  0  0  0
 59 60  1  0  0  0
 59 61  1  0  0  0
 37 38  1  0  0  0
 63 66  1  0  0  0
 63 67  1  0  0  0
 38 39  1  0  0  0
 64 66  1  0  0  0
 39 40  1  0  0  0
 65 66  1  0  0  0
 65 68  1  0  0  0
 40 41  1  0  0  0
 41 42  1  0  0  0
 42 43  1  0  0  0
 43 44  1  0  0  0
 44 45  1  0  0  0
 45 46  1  0  0  0
  4  6  1  0  0  0
  6  7  1  0  0  0
  7  8  1  0  0  0
  8  9  1  0  0  0
  9 10  1  0  0  0
 10 11  1  0  0  0
 11 12  1  0  0  0
 12 13  1  0  0  0
 13 14  1  0  0  0
 14 15  1  0  0  0
 15 16  1  0  0  0
 16 17  1  0  0  0
 17 18  1  0  0  0
 18 19  1  0  0  0
 19 20  2  0  0  0
 20 21  1  0  0  0
 21 22  1  0  0  0
 22 23  1  0  0  0
 23 24  1  0  0  0
 24 25  1  0  0  0
 25 26  1  0  0  0
 26 27  1  0  0  0
 27 28  1  0  0  0
 52 53  1  0  0  0
 53 54  1  0  0  0
 54 55  1  0  0  0
 55 56  1  0  0  0
 56 60  1  0  0  0
M  CHG 1  64  -1
M  END
> <minimizedAffinity>
-8.47737

> <CNNscore>
0.0944891199

> <CNNaffinity>
7.4467697144

> <CNN_VS>
0.7036387324

> <CNNaffinity_variance>
1.4174848795

$$$$
/media/chris/experiments/cd1a-new-docking/inputs/ligands/7ryn_ligand.pdb


 68 68  0  0  0  0  0  0  0  0999 V2000
  -38.4171   58.1553   61.8683 C   0  0  0  0  0  0  0  0  0  0  0  0
  -39.7279   57.7933   62.3993 N   0  0  0  0  0  0  0  0  0  0  0  0
  -40.9146   58.6048   60.6671 O   0  0  0  0  0  0  0  0  0  0  0  0
  -40.8727   58.0455   61.7591 C   0  0  0  0  0  0  0  0  0  0  0  0
  -39.7701   57.3408   63.2726 H   0  0  0  0  0  0  0  0  0  0  0  0
  -42.1272   57.5901   62.4619 C   0  0  0  0  0  0  0  0  0  0  0  0
  -41.8347   56.8624   63.7678 C   0  0  0  0  0  0  0  0  0  0  0  0
  -41.7767   57.8013   64.9621 C   0  0  0  0  0  0  0  0  0  0  0  0
  -42.9486   58.7650   65.0457 C   0  0  0  0  0  0  0  0  0  0  0  0
  -43.5051   58.9365   66.4512 C   0  0  0  0  0  0  0  0  0  0  0  0
  -44.9132   58.3839   66.6320 C   0  0  0  0  0  0  0  0  0  0  0  0
  -45.3331   57.3988   65.5486 C   0  0  0  0  0  0  0  0  0  0  0  0
  -46.8095   57.0120   65.5815 C   0  0  0  0  0  0  0  0  0  0  0  0
  -47.6428   57.8220   66.5734 C   0  0  0  0  0  0  0  0  0  0  0  0
  -49.1197   57.9572   66.2037 C   0  0  0  0  0  0  0  0  0  0  0  0
  -49.5696   59.4057   66.0123 C   0  0  0  0  0  0  0  0  0  0  0  0
  -48.5151   60.3373   65.4149 C   0  0  0  0  0  0  0  0  0  0  0  0
  -48.6269   60.5528   63.9032 C   0  0  0  0  0  0  0  0  0  0  0  0
  -50.0419   60.4792   63.4066 C   0  0  0  0  0  0  0  0  0  0  0  0
  -50.5873   59.4661   62.7571 C   0  0  0  0  0  0  0  0  0  0  0  0
  -49.9034   58.1847   62.3879 C   0  0  0  0  0  0  0  0  0  0  0  0
  -50.6190   57.4018   61.2850 C   0  0  0  0  0  0  0  0  0  0  0  0
  -50.4493   58.0173   59.9025 C   0  0  0  0  0  0  0  0  0  0  0  0
  -49.0659   57.7883   59.3040 C   0  0  0  0  0  0  0  0  0  0  0  0
  -48.4876   56.4019   59.5630 C   0  0  0  0  0  0  0  0  0  0  0  0
  -47.3518   56.0259   58.6218 C   0  0  0  0  0  0  0  0  0  0  0  0
  -47.4953   56.5895   57.2170 C   0  0  0  0  0  0  0  0  0  0  0  0
  -46.6355   57.8150   56.9830 C   0  0  0  0  0  0  0  0  0  0  0  0
  -37.4864   57.5800   64.0219 O   0  0  0  0  0  0  0  0  0  0  0  0
  -37.3292   57.3676   62.6160 C   0  0  0  0  0  0  0  0  0  0  0  0
  -38.3803   57.3164   64.2907 H   0  0  0  0  0  0  0  0  0  0  0  0
  -35.9572   57.7647   62.1642 C   0  0  0  0  0  0  0  0  0  0  0  0
  -34.8301   57.3375   62.6981 C   0  0  0  0  0  0  0  0  0  0  0  0
  -33.4758   57.7410   62.2147 C   0  0  0  0  0  0  0  0  0  0  0  0
  -33.2597   59.2470   62.3772 C   0  0  0  0  0  0  0  0  0  0  0  0
  -31.8652   59.6293   62.8462 C   0  0  0  0  0  0  0  0  0  0  0  0
  -31.0546   60.4091   61.8251 C   0  0  0  0  0  0  0  0  0  0  0  0
  -31.1369   61.9193   61.9923 C   0  0  0  0  0  0  0  0  0  0  0  0
  -31.7795   62.3549   63.3003 C   0  0  0  0  0  0  0  0  0  0  0  0
  -31.1142   63.5627   63.9364 C   0  0  0  0  0  0  0  0  0  0  0  0
  -31.6710   63.9286   65.2996 C   0  0  0  0  0  0  0  0  0  0  0  0
  -31.4023   65.3668   65.7085 C   0  0  0  0  0  0  0  0  0  0  0  0
  -32.2736   66.3662   64.9705 C   0  0  0  0  0  0  0  0  0  0  0  0
  -31.9451   66.5158   63.4975 C   0  0  0  0  0  0  0  0  0  0  0  0
  -33.1673   66.3778   62.6111 C   0  0  0  0  0  0  0  0  0  0  0  0
  -32.8197   66.3928   61.1368 C   0  0  0  0  0  0  0  0  0  0  0  0
  -38.2093   59.6520   61.9735 C   0  0  0  0  0  0  0  0  0  0  0  0
  -38.4970   60.0534   63.3177 O   0  0  0  0  0  0  0  0  0  0  0  0
  -38.4718   60.8677   65.9968 O   0  0  0  0  0  0  0  0  0  0  0  0
  -34.5925   61.9439   64.4750 O   0  0  0  0  0  0  0  0  0  0  0  0
  -36.9047   61.6391   62.7901 O   0  0  0  0  0  0  0  0  0  0  0  0
  -37.9467   61.2860   63.6806 C   0  0  0  0  0  0  0  0  0  0  0  0
  -37.4082   61.1625   65.1002 C   0  0  0  0  0  0  0  0  0  0  0  0
  -36.7195   62.4590   65.5073 C   0  0  0  0  0  0  0  0  0  0  0  0
  -35.6749   62.8692   64.4797 C   0  0  0  0  0  0  0  0  0  0  0  0
  -36.3099   62.9115   63.0920 C   0  0  0  0  0  0  0  0  0  0  0  0
  -38.9020   60.0411   65.7274 H   0  0  0  0  0  0  0  0  0  0  0  0
  -34.1876   61.9154   65.3560 H   0  0  0  0  0  0  0  0  0  0  0  0
  -35.8707   64.0546   60.9969 O   0  0  0  0  0  0  0  0  0  0  0  0
  -35.3160   63.2019   61.9919 C   0  0  0  0  0  0  0  0  0  0  0  0
  -35.2086   64.2206   60.3078 H   0  0  0  0  0  0  0  0  0  0  0  0
  -36.0602   62.1450   66.7746 O   0  0  0  0  0  0  0  0  0  0  0  0
  -36.3478   63.0542   68.9877 O   0  0  0  0  0  0  0  0  0  0  0  0
  -35.8013   64.5576   67.0495 O   0  0  0  0  0  0  0  0  0  0  0  0
  -34.2039   63.0543   67.9576 O   0  0  0  0  0  0  0  0  0  0  0  0
  -35.7020   63.3385   67.7601 S   0  0  0  0  0  0  0  0  0  0  0  0
  -37.2989   63.2232   68.8994 H   0  0  0  0  0  0  0  0  0  0  0  0
  -34.0940   62.2220   68.4436 H   0  0  0  0  0  0  0  0  0  0  0  0
  2  1  1  0  0  0
  2  4  1  0  0  0
  2  5  1  0  0  0
 47 48  1  0  0  0
 47  1  1  0  0  0
 48 52  1  0  0  0
  1 30  1  0  0  0
 29 30  1  0  0  0
 29 31  1  0  0  0
 30 32  1  0  0  0
  3  4  2  0  0  0
 32 33  2  0  0  0
 49 53  1  0  0  0
 49 57  1  0  0  0
 33 34  1  0  0  0
 62 54  1  0  0  0
 62 66  1  0  0  0
 34 35  1  0  0  0
 50 55  1  0  0  0
 50 58  1  0  0  0
 35 36  1  0  0  0
 51 52  1  0  0  0
 51 56  1  0  0  0
 36 37  1  0  0  0
 59 60  1  0  0  0
 59 61  1  0  0  0
 37 38  1  0  0  0
 63 66  1  0  0  0
 63 67  1  0  0  0
 38 39  1  0  0  0
 64 66  1  0  0  0
 39 40  1  0  0  0
 65 66  1  0  0  0
 65 68  1  0  0  0
 40 41  1  0  0  0
 41 42  1  0  0  0
 42 43  1  0  0  0
 43 44  1  0  0  0
 44 45  1  0  0  0
 45 46  1  0  0  0
  4  6  1  0  0  0
  6  7  1  0  0  0
  7  8  1  0  0  0
  8  9  1  0  0  0
  9 10  1  0  0  0
 10 11  1  0  0  0
 11 12  1  0  0  0
 12 13  1  0  0  0
 13 14  1  0  0  0
 14 15  1  0  0  0
 15 16  1  0  0  0
 16 17  1  0  0  0
 17 18  1  0  0  0
 18 19  1  0  0  0
 19 20  2  0  0  0
 20 21  1  0  0  0
 21 22  1  0  0  0
 22 23  1  0  0  0
 23 24  1  0  0  0
 24 25  1  0  0  0
 25 26  1  0  0  0
 26 27  1  0  0  0
 27 28  1  0  0  0
 52 53  1  0  0  0
 53 54  1  0  0  0
 54 55  1  0  0  0
 55 56  1  0  0  0
 56 60  1  0  0  0
M  CHG 1  64  -1
M  END
> <minimizedAffinity>
-8.11870

> <CNNscore>
0.0917387456

> <CNNaffinity>
6.9061980247

> <CNN_VS>
0.6335659623

> <CNNaffinity_variance>
0.7083194852

$$$$
/media/chris/experiments/cd1a-new-docking/inputs/ligands/7ryn_ligand.pdb


 68 68  0  0  0  0  0  0  0  0999 V2000
  -37.9062   60.7715   64.8687 C   0  0  0  0  0  0  0  0  0  0  0  0
  -38.8185   59.8533   65.5440 N   0  0  0  0  0  0  0  0  0  0  0  0
  -40.3981   61.3894   66.0052 O   0  0  0  0  0  0  0  0  0  0  0  0
  -39.9912   60.2325   66.0589 C   0  0  0  0  0  0  0  0  0  0  0  0
  -38.5563   58.9077   65.6238 H   0  0  0  0  0  0  0  0  0  0  0  0
  -40.8007   59.1400   66.7120 C   0  0  0  0  0  0  0  0  0  0  0  0
  -42.2387   59.0985   66.2112 C   0  0  0  0  0  0  0  0  0  0  0  0
  -42.3336   59.1579   64.6950 C   0  0  0  0  0  0  0  0  0  0  0  0
  -43.3770   58.2232   64.1060 C   0  0  0  0  0  0  0  0  0  0  0  0
  -44.4045   57.7336   65.1155 C   0  0  0  0  0  0  0  0  0  0  0  0
  -45.5609   58.6994   65.3410 C   0  0  0  0  0  0  0  0  0  0  0  0
  -46.2402   58.5430   66.6954 C   0  0  0  0  0  0  0  0  0  0  0  0
  -47.0120   57.2375   66.8703 C   0  0  0  0  0  0  0  0  0  0  0  0
  -48.1405   57.0418   65.8592 C   0  0  0  0  0  0  0  0  0  0  0  0
  -49.5017   57.5679   66.3138 C   0  0  0  0  0  0  0  0  0  0  0  0
  -50.0616   58.6681   65.4120 C   0  0  0  0  0  0  0  0  0  0  0  0
  -49.3884   60.0323   65.5613 C   0  0  0  0  0  0  0  0  0  0  0  0
  -48.4608   60.4235   64.4078 C   0  0  0  0  0  0  0  0  0  0  0  0
  -49.2011   60.9859   63.2290 C   0  0  0  0  0  0  0  0  0  0  0  0
  -49.5577   60.3211   62.1442 C   0  0  0  0  0  0  0  0  0  0  0  0
  -49.2972   58.8703   61.8738 C   0  0  0  0  0  0  0  0  0  0  0  0
  -50.5703   58.0381   61.7061 C   0  0  0  0  0  0  0  0  0  0  0  0
  -50.4846   57.0289   60.5689 C   0  0  0  0  0  0  0  0  0  0  0  0
  -49.1153   56.3697   60.4469 C   0  0  0  0  0  0  0  0  0  0  0  0
  -48.2295   56.9523   59.3516 C   0  0  0  0  0  0  0  0  0  0  0  0
  -48.2724   56.1687   58.0472 C   0  0  0  0  0  0  0  0  0  0  0  0
  -47.2140   56.5830   57.0373 C   0  0  0  0  0  0  0  0  0  0  0  0
  -46.8612   58.0541   57.1234 C   0  0  0  0  0  0  0  0  0  0  0  0
  -37.5719   61.2046   62.5159 O   0  0  0  0  0  0  0  0  0  0  0  0
  -37.4997   60.1785   63.5101 C   0  0  0  0  0  0  0  0  0  0  0  0
  -37.0052   61.9475   62.7763 H   0  0  0  0  0  0  0  0  0  0  0  0
  -38.3644   59.0125   63.1405 C   0  0  0  0  0  0  0  0  0  0  0  0
  -37.9353   57.8961   62.5860 C   0  0  0  0  0  0  0  0  0  0  0  0
  -38.8217   56.7441   62.2426 C   0  0  0  0  0  0  0  0  0  0  0  0
  -40.1056   56.7708   63.0743 C   0  0  0  0  0  0  0  0  0  0  0  0
  -41.0687   55.6347   62.7703 C   0  0  0  0  0  0  0  0  0  0  0  0
  -41.6617   55.6756   61.3723 C   0  0  0  0  0  0  0  0  0  0  0  0
  -42.0403   57.0722   60.9013 C   0  0  0  0  0  0  0  0  0  0  0  0
  -41.2030   57.5709   59.7336 C   0  0  0  0  0  0  0  0  0  0  0  0
  -41.3338   59.0625   59.4799 C   0  0  0  0  0  0  0  0  0  0  0  0
  -40.2787   59.9026   60.1751 C   0  0  0  0  0  0  0  0  0  0  0  0
  -40.6923   60.3949   61.5513 C   0  0  0  0  0  0  0  0  0  0  0  0
  -42.1881   60.6170   61.6774 C   0  0  0  0  0  0  0  0  0  0  0  0
  -42.6382   62.0342   61.3787 C   0  0  0  0  0  0  0  0  0  0  0  0
  -42.9261   62.8312   62.6358 C   0  0  0  0  0  0  0  0  0  0  0  0
  -44.2849   62.5139   63.2255 C   0  0  0  0  0  0  0  0  0  0  0  0
  -36.7058   61.0521   65.7488 C   0  0  0  0  0  0  0  0  0  0  0  0
  -35.5748   60.3663   65.2002 O   0  0  0  0  0  0  0  0  0  0  0  0
  -33.9982   60.2702   62.8879 O   0  0  0  0  0  0  0  0  0  0  0  0
  -34.2211   64.4463   63.9043 O   0  0  0  0  0  0  0  0  0  0  0  0
  -34.5709   62.3446   65.8379 O   0  0  0  0  0  0  0  0  0  0  0  0
  -34.4227   61.1505   65.0925 C   0  0  0  0  0  0  0  0  0  0  0  0
  -34.2068   61.4717   63.6192 C   0  0  0  0  0  0  0  0  0  0  0  0
  -33.0088   62.3995   63.4617 C   0  0  0  0  0  0  0  0  0  0  0  0
  -33.1465   63.6261   64.3516 C   0  0  0  0  0  0  0  0  0  0  0  0
  -33.4093   63.1886   65.7904 C   0  0  0  0  0  0  0  0  0  0  0  0
  -34.7668   59.6884   62.9959 H   0  0  0  0  0  0  0  0  0  0  0  0
  -34.0561   64.7253   62.9901 H   0  0  0  0  0  0  0  0  0  0  0  0
  -32.7713   65.4231   66.4896 O   0  0  0  0  0  0  0  0  0  0  0  0
  -33.6709   64.3460   66.7254 C   0  0  0  0  0  0  0  0  0  0  0  0
  -32.9660   66.1474   67.1047 H   0  0  0  0  0  0  0  0  0  0  0  0
  -33.0407   62.8091   62.0579 O   0  0  0  0  0  0  0  0  0  0  0  0
  -31.3514   63.1784   60.3795 O   0  0  0  0  0  0  0  0  0  0  0  0
  -31.1727   64.2724   62.6349 O   0  0  0  0  0  0  0  0  0  0  0  0
  -32.7963   64.9485   61.0401 O   0  0  0  0  0  0  0  0  0  0  0  0
  -31.9097   63.7907   61.5277 S   0  0  0  0  0  0  0  0  0  0  0  0
  -30.7835   62.4402   60.6506 H   0  0  0  0  0  0  0  0  0  0  0  0
  -33.3198   64.6559   60.2778 H   0  0  0  0  0  0  0  0  0  0  0  0
  2  1  1  0  0  0
  2  4  1  0  0  0
  2  5  1  0  0  0
 47 48  1  0  0  0
 47  1  1  0  0  0
 48 52  1  0  0  0
  1 30  1  0  0  0
 29 30  1  0  0  0
 29 31  1  0  0  0
 30 32  1  0  0  0
  3  4  2  0  0  0
 32 33  2  0  0  0
 49 53  1  0  0  0
 49 57  1  0  0  0
 33 34  1  0  0  0
 62 54  1  0  0  0
 62 66  1  0  0  0
 34 35  1  0  0  0
 50 55  1  0  0  0
 50 58  1  0  0  0
 35 36  1  0  0  0
 51 52  1  0  0  0
 51 56  1  0  0  0
 36 37  1  0  0  0
 59 60  1  0  0  0
 59 61  1  0  0  0
 37 38  1  0  0  0
 63 66  1  0  0  0
 63 67  1  0  0  0
 38 39  1  0  0  0
 64 66  1  0  0  0
 39 40  1  0  0  0
 65 66  1  0  0  0
 65 68  1  0  0  0
 40 41  1  0  0  0
 41 42  1  0  0  0
 42 43  1  0  0  0
 43 44  1  0  0  0
 44 45  1  0  0  0
 45 46  1  0  0  0
  4  6  1  0  0  0
  6  7  1  0  0  0
  7  8  1  0  0  0
  8  9  1  0  0  0
  9 10  1  0  0  0
 10 11  1  0  0  0
 11 12  1  0  0  0
 12 13  1  0  0  0
 13 14  1  0  0  0
 14 15  1  0  0  0
 15 16  1  0  0  0
 16 17  1  0  0  0
 17 18  1  0  0  0
 18 19  1  0  0  0
 19 20  2  0  0  0
 20 21  1  0  0  0
 21 22  1  0  0  0
 22 23  1  0  0  0
 23 24  1  0  0  0
 24 25  1  0  0  0
 25 26  1  0  0  0
 26 27  1  0  0  0
 27 28  1  0  0  0
 52 53  1  0  0  0
 53 54  1  0  0  0
 54 55  1  0  0  0
 55 56  1  0  0  0
 56 60  1  0  0  0
M  CHG 1  64  -1
M  END
> <minimizedAffinity>
-7.89997

> <CNNscore>
0.0894338712

> <CNNaffinity>
7.1935935020

> <CNN_VS>
0.6433508992

> <CNNaffinity_variance>
1.1133701801

$$$$
/media/chris/experiments/cd1a-new-docking/inputs/ligands/7ryn_ligand.pdb


 68 68  0  0  0  0  0  0  0  0999 V2000
  -43.1303   56.6247   64.9778 C   0  0  0  0  0  0  0  0  0  0  0  0
  -42.5162   56.2813   63.6987 N   0  0  0  0  0  0  0  0  0  0  0  0
  -41.2642   54.5849   64.4877 O   0  0  0  0  0  0  0  0  0  0  0  0
  -41.6326   55.2902   63.5530 C   0  0  0  0  0  0  0  0  0  0  0  0
  -42.7657   56.8063   62.9041 H   0  0  0  0  0  0  0  0  0  0  0  0
  -41.1127   55.0804   62.1526 C   0  0  0  0  0  0  0  0  0  0  0  0
  -40.5688   56.3612   61.5326 C   0  0  0  0  0  0  0  0  0  0  0  0
  -41.4838   56.9274   60.4586 C   0  0  0  0  0  0  0  0  0  0  0  0
  -41.0563   58.2907   59.9410 C   0  0  0  0  0  0  0  0  0  0  0  0
  -39.5500   58.4503   59.7992 C   0  0  0  0  0  0  0  0  0  0  0  0
  -38.9967   59.7128   60.4480 C   0  0  0  0  0  0  0  0  0  0  0  0
  -38.0917   59.4460   61.6439 C   0  0  0  0  0  0  0  0  0  0  0  0
  -37.0827   58.3193   61.4362 C   0  0  0  0  0  0  0  0  0  0  0  0
  -37.0362   57.3073   62.5798 C   0  0  0  0  0  0  0  0  0  0  0  0
  -35.6668   57.1562   63.2417 C   0  0  0  0  0  0  0  0  0  0  0  0
  -35.4997   58.0115   64.4978 C   0  0  0  0  0  0  0  0  0  0  0  0
  -34.0628   58.4291   64.8099 C   0  0  0  0  0  0  0  0  0  0  0  0
  -33.5185   59.5664   63.9412 C   0  0  0  0  0  0  0  0  0  0  0  0
  -34.5099   60.6768   63.7457 C   0  0  0  0  0  0  0  0  0  0  0  0
  -34.6891   61.7108   64.5485 C   0  0  0  0  0  0  0  0  0  0  0  0
  -33.9361   61.9847   65.8150 C   0  0  0  0  0  0  0  0  0  0  0  0
  -34.0484   63.4330   66.2958 C   0  0  0  0  0  0  0  0  0  0  0  0
  -33.2530   64.4136   65.4444 C   0  0  0  0  0  0  0  0  0  0  0  0
  -31.7839   64.0333   65.2969 C   0  0  0  0  0  0  0  0  0  0  0  0
  -31.2346   64.1733   63.8818 C   0  0  0  0  0  0  0  0  0  0  0  0
  -30.9776   62.8421   63.1897 C   0  0  0  0  0  0  0  0  0  0  0  0
  -31.9783   62.5061   62.0955 C   0  0  0  0  0  0  0  0  0  0  0  0
  -32.6578   63.7328   61.5216 C   0  0  0  0  0  0  0  0  0  0  0  0
  -44.4697   58.0985   63.6109 O   0  0  0  0  0  0  0  0  0  0  0  0
  -44.5299   57.2099   64.7303 C   0  0  0  0  0  0  0  0  0  0  0  0
  -44.1294   57.6219   62.8377 H   0  0  0  0  0  0  0  0  0  0  0  0
  -45.0522   57.9134   65.9454 C   0  0  0  0  0  0  0  0  0  0  0  0
  -46.3257   58.0264   66.2671 C   0  0  0  0  0  0  0  0  0  0  0  0
  -46.8144   58.7221   67.4951 C   0  0  0  0  0  0  0  0  0  0  0  0
  -47.9481   59.6942   67.1623 C   0  0  0  0  0  0  0  0  0  0  0  0
  -48.6580   59.3982   65.8511 C   0  0  0  0  0  0  0  0  0  0  0  0
  -48.4523   60.4530   64.7774 C   0  0  0  0  0  0  0  0  0  0  0  0
  -49.4866   60.4105   63.6620 C   0  0  0  0  0  0  0  0  0  0  0  0
  -50.6020   59.4045   63.9013 C   0  0  0  0  0  0  0  0  0  0  0  0
  -50.8446   58.4697   62.7293 C   0  0  0  0  0  0  0  0  0  0  0  0
  -49.6487   58.3083   61.8095 C   0  0  0  0  0  0  0  0  0  0  0  0
  -49.9929   58.3900   60.3322 C   0  0  0  0  0  0  0  0  0  0  0  0
  -48.7830   58.2276   59.4310 C   0  0  0  0  0  0  0  0  0  0  0  0
  -48.1848   56.8339   59.4307 C   0  0  0  0  0  0  0  0  0  0  0  0
  -47.1525   56.6432   58.3369 C   0  0  0  0  0  0  0  0  0  0  0  0
  -47.1167   57.8037   57.3640 C   0  0  0  0  0  0  0  0  0  0  0  0
  -42.2398   57.5834   65.7409 C   0  0  0  0  0  0  0  0  0  0  0  0
  -40.8842   57.3554   65.3394 O   0  0  0  0  0  0  0  0  0  0  0  0
  -42.0067   58.9517   63.3311 O   0  0  0  0  0  0  0  0  0  0  0  0
  -40.4421   61.7367   66.2152 O   0  0  0  0  0  0  0  0  0  0  0  0
  -39.4374   59.0565   65.9236 O   0  0  0  0  0  0  0  0  0  0  0  0
  -40.2188   58.4974   64.8843 C   0  0  0  0  0  0  0  0  0  0  0  0
  -41.2668   59.4985   64.4154 C   0  0  0  0  0  0  0  0  0  0  0  0
  -40.5903   60.7958   63.9909 C   0  0  0  0  0  0  0  0  0  0  0  0
  -39.6768   61.3206   65.0889 C   0  0  0  0  0  0  0  0  0  0  0  0
  -38.7050   60.2231   65.5154 C   0  0  0  0  0  0  0  0  0  0  0  0
  -42.4323   58.1270   63.6134 H   0  0  0  0  0  0  0  0  0  0  0  0
  -41.0603   62.4341   65.9463 H   0  0  0  0  0  0  0  0  0  0  0  0
  -37.3659   61.9604   66.5532 O   0  0  0  0  0  0  0  0  0  0  0  0
  -37.8322   60.6223   66.6821 C   0  0  0  0  0  0  0  0  0  0  0  0
  -36.8103   62.1841   67.3161 H   0  0  0  0  0  0  0  0  0  0  0  0
  -41.6914   61.7355   63.7817 O   0  0  0  0  0  0  0  0  0  0  0  0
  -43.8084   60.9243   62.9646 O   0  0  0  0  0  0  0  0  0  0  0  0
  -41.8242   61.0879   61.4309 O   0  0  0  0  0  0  0  0  0  0  0  0
  -42.9567   63.0180   62.2240 O   0  0  0  0  0  0  0  0  0  0  0  0
  -42.6205   61.5446   62.5073 S   0  0  0  0  0  0  0  0  0  0  0  0
  -43.6326   59.9893   63.1539 H   0  0  0  0  0  0  0  0  0  0  0  0
  -43.5045   63.3688   62.9435 H   0  0  0  0  0  0  0  0  0  0  0  0
  2  1  1  0  0  0
  2  4  1  0  0  0
  2  5  1  0  0  0
 47 48  1  0  0  0
 47  1  1  0  0  0
 48 52  1  0  0  0
  1 30  1  0  0  0
 29 30  1  0  0  0
 29 31  1  0  0  0
 30 32  1  0  0  0
  3  4  2  0  0  0
 32 33  2  0  0  0
 49 53  1  0  0  0
 49 57  1  0  0  0
 33 34  1  0  0  0
 62 54  1  0  0  0
 62 66  1  0  0  0
 34 35  1  0  0  0
 50 55  1  0  0  0
 50 58  1  0  0  0
 35 36  1  0  0  0
 51 52  1  0  0  0
 51 56  1  0  0  0
 36 37  1  0  0  0
 59 60  1  0  0  0
 59 61  1  0  0  0
 37 38  1  0  0  0
 63 66  1  0  0  0
 63 67  1  0  0  0
 38 39  1  0  0  0
 64 66  1  0  0  0
 39 40  1  0  0  0
 65 66  1  0  0  0
 65 68  1  0  0  0
 40 41  1  0  0  0
 41 42  1  0  0  0
 42 43  1  0  0  0
 43 44  1  0  0  0
 44 45  1  0  0  0
 45 46  1  0  0  0
  4  6  1  0  0  0
  6  7  1  0  0  0
  7  8  1  0  0  0
  8  9  1  0  0  0
  9 10  1  0  0  0
 10 11  1  0  0  0
 11 12  1  0  0  0
 12 13  1  0  0  0
 13 14  1  0  0  0
 14 15  1  0  0  0
 15 16  1  0  0  0
 16 17  1  0  0  0
 17 18  1  0  0  0
 18 19  1  0  0  0
 19 20  2  0  0  0
 20 21  1  0  0  0
 21 22  1  0  0  0
 22 23  1  0  0  0
 23 24  1  0  0  0
 24 25  1  0  0  0
 25 26  1  0  0  0
 26 27  1  0  0  0
 27 28  1  0  0  0
 52 53  1  0  0  0
 53 54  1  0  0  0
 54 55  1  0  0  0
 55 56  1  0  0  0
 56 60  1  0  0  0
M  CHG 1  64  -1
M  END
> <minimizedAffinity>
-7.63508

> <CNNscore>
0.0883473828

> <CNNaffinity>
6.9158201218

> <CNN_VS>
0.6109946370

> <CNNaffinity_variance>
2.2545895576

$$$$
