/media/chris/experiments/cd1a-new-docking/inputs/ligands/7ryn_ligand.pdb


 68 68  0  0  0  0  0  0  0  0999 V2000
  -34.2979   58.8798   62.3379 C   0  0  0  0  0  0  0  0  0  0  0  0
  -35.5278   58.4000   61.7147 N   0  0  0  0  0  0  0  0  0  0  0  0
  -36.8599   60.0072   62.5573 O   0  0  0  0  0  0  0  0  0  0  0  0
  -36.7110   58.9995   61.8722 C   0  0  0  0  0  0  0  0  0  0  0  0
  -35.4829   57.5946   61.1503 H   0  0  0  0  0  0  0  0  0  0  0  0
  -37.8676   58.3620   61.1435 C   0  0  0  0  0  0  0  0  0  0  0  0
  -39.0875   58.1715   62.0358 C   0  0  0  0  0  0  0  0  0  0  0  0
  -39.3470   56.7115   62.3708 C   0  0  0  0  0  0  0  0  0  0  0  0
  -40.8161   56.3241   62.3397 C   0  0  0  0  0  0  0  0  0  0  0  0
  -41.6741   57.0838   63.3401 C   0  0  0  0  0  0  0  0  0  0  0  0
  -42.2417   56.2152   64.4555 C   0  0  0  0  0  0  0  0  0  0  0  0
  -43.1196   56.9740   65.4423 C   0  0  0  0  0  0  0  0  0  0  0  0
  -44.2503   57.7734   64.8000 C   0  0  0  0  0  0  0  0  0  0  0  0
  -45.5948   57.6315   65.5116 C   0  0  0  0  0  0  0  0  0  0  0  0
  -45.7462   58.4930   66.7651 C   0  0  0  0  0  0  0  0  0  0  0  0
  -47.1406   59.0999   66.9223 C   0  0  0  0  0  0  0  0  0  0  0  0
  -48.2831   58.2483   66.3690 C   0  0  0  0  0  0  0  0  0  0  0  0
  -49.3377   59.0222   65.5735 C   0  0  0  0  0  0  0  0  0  0  0  0
  -48.7773   59.6749   64.3430 C   0  0  0  0  0  0  0  0  0  0  0  0
  -49.4341   59.9167   63.2223 C   0  0  0  0  0  0  0  0  0  0  0  0
  -50.8722   59.5904   62.9550 C   0  0  0  0  0  0  0  0  0  0  0  0
  -51.0754   58.2602   62.2265 C   0  0  0  0  0  0  0  0  0  0  0  0
  -49.8531   57.8142   61.4352 C   0  0  0  0  0  0  0  0  0  0  0  0
  -49.9640   58.0961   59.9410 C   0  0  0  0  0  0  0  0  0  0  0  0
  -48.9972   57.2973   59.0744 C   0  0  0  0  0  0  0  0  0  0  0  0
  -47.9145   58.1455   58.4222 C   0  0  0  0  0  0  0  0  0  0  0  0
  -47.4295   57.6135   57.0830 C   0  0  0  0  0  0  0  0  0  0  0  0
  -47.1911   56.1171   57.0947 C   0  0  0  0  0  0  0  0  0  0  0  0
  -33.6075   56.5986   62.7307 O   0  0  0  0  0  0  0  0  0  0  0  0
  -33.8215   57.8552   63.3800 C   0  0  0  0  0  0  0  0  0  0  0  0
  -32.9690   56.7121   62.0092 H   0  0  0  0  0  0  0  0  0  0  0  0
  -34.8042   57.7179   64.5022 C   0  0  0  0  0  0  0  0  0  0  0  0
  -35.9924   57.1552   64.4048 C   0  0  0  0  0  0  0  0  0  0  0  0
  -36.9447   57.0201   65.5473 C   0  0  0  0  0  0  0  0  0  0  0  0
  -38.1519   57.9434   65.3695 C   0  0  0  0  0  0  0  0  0  0  0  0
  -37.8784   59.3992   65.7104 C   0  0  0  0  0  0  0  0  0  0  0  0
  -39.1162   60.1962   66.0852 C   0  0  0  0  0  0  0  0  0  0  0  0
  -40.3950   59.3722   66.1219 C   0  0  0  0  0  0  0  0  0  0  0  0
  -41.6497   60.2015   66.3486 C   0  0  0  0  0  0  0  0  0  0  0  0
  -41.9995   61.1124   65.1849 C   0  0  0  0  0  0  0  0  0  0  0  0
  -41.6238   60.5515   63.8262 C   0  0  0  0  0  0  0  0  0  0  0  0
  -42.7604   60.5661   62.8185 C   0  0  0  0  0  0  0  0  0  0  0  0
  -42.5782   61.6111   61.7334 C   0  0  0  0  0  0  0  0  0  0  0  0
  -41.9517   61.0850   60.4563 C   0  0  0  0  0  0  0  0  0  0  0  0
  -41.2396   59.7620   60.6588 C   0  0  0  0  0  0  0  0  0  0  0  0
  -41.6710   58.7114   59.6566 C   0  0  0  0  0  0  0  0  0  0  0  0
  -34.5239   60.2479   62.9475 C   0  0  0  0  0  0  0  0  0  0  0  0
  -33.3485   61.0370   62.7318 O   0  0  0  0  0  0  0  0  0  0  0  0
  -33.9461   63.4501   61.4432 O   0  0  0  0  0  0  0  0  0  0  0  0
  -35.9796   63.6824   65.2291 O   0  0  0  0  0  0  0  0  0  0  0  0
  -33.6689   62.0245   64.7934 O   0  0  0  0  0  0  0  0  0  0  0  0
  -33.3277   62.2436   63.4373 C   0  0  0  0  0  0  0  0  0  0  0  0
  -34.3304   63.1877   62.7869 C   0  0  0  0  0  0  0  0  0  0  0  0
  -34.4055   64.4878   63.5773 C   0  0  0  0  0  0  0  0  0  0  0  0
  -34.6720   64.2171   65.0507 C   0  0  0  0  0  0  0  0  0  0  0  0
  -33.6425   63.2238   65.5838 C   0  0  0  0  0  0  0  0  0  0  0  0
  -33.9017   62.6156   60.9506 H   0  0  0  0  0  0  0  0  0  0  0  0
  -36.6354   64.3121   64.8909 H   0  0  0  0  0  0  0  0  0  0  0  0
  -34.4496   63.8793   67.7765 O   0  0  0  0  0  0  0  0  0  0  0  0
  -33.8998   62.8109   67.0141 C   0  0  0  0  0  0  0  0  0  0  0  0
  -34.6023   63.5816   68.6870 H   0  0  0  0  0  0  0  0  0  0  0  0
  -35.5413   65.2062   62.9999 O   0  0  0  0  0  0  0  0  0  0  0  0
  -33.8728   66.2765   61.6297 O   0  0  0  0  0  0  0  0  0  0  0  0
  -36.1617   67.2841   61.8773 O   0  0  0  0  0  0  0  0  0  0  0  0
  -35.7969   65.2948   60.6338 O   0  0  0  0  0  0  0  0  0  0  0  0
  -35.2783   66.1839   61.7759 S   0  0  0  0  0  0  0  0  0  0  0  0
  -33.5102   66.8327   62.3368 H   0  0  0  0  0  0  0  0  0  0  0  0
  -35.2144   64.5258   60.5327 H   0  0  0  0  0  0  0  0  0  0  0  0
  2  1  1  0  0  0
  2  4  1  0  0  0
  2  5  1  0  0  0
 47 48  1  0  0  0
 47  1  1  0  0  0
 48 52  1  0  0  0
  1 30  1  0  0  0
 29 30  1  0  0  0
 29 31  1  0  0  0
 30 32  1  0  0  0
  3  4  2  0  0  0
 32 33  2  0  0  0
 49 53  1  0  0  0
 49 57  1  0  0  0
 33 34  1  0  0  0
 62 54  1  0  0  0
 62 66  1  0  0  0
 34 35  1  0  0  0
 50 55  1  0  0  0
 50 58  1  0  0  0
 35 36  1  0  0  0
 51 52  1  0  0  0
 51 56  1  0  0  0
 36 37  1  0  0  0
 59 60  1  0  0  0
 59 61  1  0  0  0
 37 38  1  0  0  0
 63 66  1  0  0  0
 63 67  1  0  0  0
 38 39  1  0  0  0
 64 66  1  0  0  0
 39 40  1  0  0  0
 65 66  1  0  0  0
 65 68  1  0  0  0
 40 41  1  0  0  0
 41 42  1  0  0  0
 42 43  1  0  0  0
 43 44  1  0  0  0
 44 45  1  0  0  0
 45 46  1  0  0  0
  4  6  1  0  0  0
  6  7  1  0  0  0
  7  8  1  0  0  0
  8  9  1  0  0  0
  9 10  1  0  0  0
 10 11  1  0  0  0
 11 12  1  0  0  0
 12 13  1  0  0  0
 13 14  1  0  0  0
 14 15  1  0  0  0
 15 16  1  0  0  0
 16 17  1  0  0  0
 17 18  1  0  0  0
 18 19  1  0  0  0
 19 20  2  0  0  0
 20 21  1  0  0  0
 21 22  1  0  0  0
 22 23  1  0  0  0
 23 24  1  0  0  0
 24 25  1  0  0  0
 25 26  1  0  0  0
 26 27  1  0  0  0
 27 28  1  0  0  0
 52 53  1  0  0  0
 53 54  1  0  0  0
 54 55  1  0  0  0
 55 56  1  0  0  0
 56 60  1  0  0  0
M  CHG 1  64  -1
M  END
> <minimizedAffinity>
-8.63765

> <CNNscore>
0.1340223402

> <CNNaffinity>
7.4031381607

> <CNN_VS>
0.9921858907

> <CNNaffinity_variance>
1.5631369352

$$$$
/media/chris/experiments/cd1a-new-docking/inputs/ligands/7ryn_ligand.pdb


 68 68  0  0  0  0  0  0  0  0999 V2000
  -33.3597   60.9735   63.3641 C   0  0  0  0  0  0  0  0  0  0  0  0
  -34.2645   61.5057   64.3787 N   0  0  0  0  0  0  0  0  0  0  0  0
  -35.6793   62.4959   62.9345 O   0  0  0  0  0  0  0  0  0  0  0  0
  -35.3519   62.2241   64.0860 C   0  0  0  0  0  0  0  0  0  0  0  0
  -34.0632   61.3263   65.3255 H   0  0  0  0  0  0  0  0  0  0  0  0
  -36.1692   62.6818   65.2683 C   0  0  0  0  0  0  0  0  0  0  0  0
  -36.8004   61.5216   66.0272 C   0  0  0  0  0  0  0  0  0  0  0  0
  -37.8355   60.7745   65.2016 C   0  0  0  0  0  0  0  0  0  0  0  0
  -38.5667   59.6858   65.9691 C   0  0  0  0  0  0  0  0  0  0  0  0
  -39.9620   59.3906   65.4394 C   0  0  0  0  0  0  0  0  0  0  0  0
  -41.0557   60.2489   66.0620 C   0  0  0  0  0  0  0  0  0  0  0  0
  -42.0791   59.4568   66.8655 C   0  0  0  0  0  0  0  0  0  0  0  0
  -42.4131   58.0838   66.2881 C   0  0  0  0  0  0  0  0  0  0  0  0
  -43.6787   58.0599   65.4324 C   0  0  0  0  0  0  0  0  0  0  0  0
  -44.9311   58.5865   66.1327 C   0  0  0  0  0  0  0  0  0  0  0  0
  -46.2140   57.8747   65.7026 C   0  0  0  0  0  0  0  0  0  0  0  0
  -47.1907   58.7317   64.8973 C   0  0  0  0  0  0  0  0  0  0  0  0
  -48.1934   59.5281   65.7365 C   0  0  0  0  0  0  0  0  0  0  0  0
  -49.4370   58.7489   66.0541 C   0  0  0  0  0  0  0  0  0  0  0  0
  -50.6396   58.9627   65.5503 C   0  0  0  0  0  0  0  0  0  0  0  0
  -51.0037   60.0249   64.5577 C   0  0  0  0  0  0  0  0  0  0  0  0
  -51.4778   59.4719   63.2120 C   0  0  0  0  0  0  0  0  0  0  0  0
  -50.4846   58.5110   62.5723 C   0  0  0  0  0  0  0  0  0  0  0  0
  -51.0642   57.7388   61.3925 C   0  0  0  0  0  0  0  0  0  0  0  0
  -50.0286   57.0042   60.5487 C   0  0  0  0  0  0  0  0  0  0  0  0
  -49.0327   57.9268   59.8603 C   0  0  0  0  0  0  0  0  0  0  0  0
  -48.5564   57.4284   58.5052 C   0  0  0  0  0  0  0  0  0  0  0  0
  -47.1487   56.8690   58.5444 C   0  0  0  0  0  0  0  0  0  0  0  0
  -31.9351   59.0670   62.9511 O   0  0  0  0  0  0  0  0  0  0  0  0
  -33.1317   59.4751   63.6203 C   0  0  0  0  0  0  0  0  0  0  0  0
  -31.1917   59.6090   63.2586 H   0  0  0  0  0  0  0  0  0  0  0  0
  -34.3033   58.6579   63.1691 C   0  0  0  0  0  0  0  0  0  0  0  0
  -35.2471   58.1853   63.9590 C   0  0  0  0  0  0  0  0  0  0  0  0
  -36.4122   57.3853   63.4760 C   0  0  0  0  0  0  0  0  0  0  0  0
  -36.8099   57.7944   62.0563 C   0  0  0  0  0  0  0  0  0  0  0  0
  -38.3085   57.7863   61.8023 C   0  0  0  0  0  0  0  0  0  0  0  0
  -39.0511   56.6483   62.4816 C   0  0  0  0  0  0  0  0  0  0  0  0
  -40.3752   57.0604   63.1082 C   0  0  0  0  0  0  0  0  0  0  0  0
  -41.5921   56.4954   62.3917 C   0  0  0  0  0  0  0  0  0  0  0  0
  -41.5486   56.6674   60.8836 C   0  0  0  0  0  0  0  0  0  0  0  0
  -42.1768   57.9573   60.3901 C   0  0  0  0  0  0  0  0  0  0  0  0
  -41.1713   59.0548   60.0865 C   0  0  0  0  0  0  0  0  0  0  0  0
  -41.5058   60.3703   60.7648 C   0  0  0  0  0  0  0  0  0  0  0  0
  -41.6383   60.2813   62.2731 C   0  0  0  0  0  0  0  0  0  0  0  0
  -42.7324   61.1796   62.8157 C   0  0  0  0  0  0  0  0  0  0  0  0
  -43.0256   62.3527   61.9034 C   0  0  0  0  0  0  0  0  0  0  0  0
  -32.0618   61.7544   63.3645 C   0  0  0  0  0  0  0  0  0  0  0  0
  -32.2568   62.9521   64.1248 O   0  0  0  0  0  0  0  0  0  0  0  0
  -33.2971   63.7590   61.6534 O   0  0  0  0  0  0  0  0  0  0  0  0
  -32.9853   67.3793   63.9597 O   0  0  0  0  0  0  0  0  0  0  0  0
  -31.3690   65.0546   64.4707 O   0  0  0  0  0  0  0  0  0  0  0  0
  -31.7888   64.1125   63.5013 C   0  0  0  0  0  0  0  0  0  0  0  0
  -32.9230   64.6878   62.6631 C   0  0  0  0  0  0  0  0  0  0  0  0
  -32.4850   66.0037   62.0328 C   0  0  0  0  0  0  0  0  0  0  0  0
  -31.9428   66.9599   63.0850 C   0  0  0  0  0  0  0  0  0  0  0  0
  -30.8516   66.2651   63.8955 C   0  0  0  0  0  0  0  0  0  0  0  0
  -33.5736   62.9261   62.0666 H   0  0  0  0  0  0  0  0  0  0  0  0
  -33.6798   67.8211   63.4464 H   0  0  0  0  0  0  0  0  0  0  0  0
  -30.4006   66.4060   66.2758 O   0  0  0  0  0  0  0  0  0  0  0  0
  -30.3334   67.1060   65.0387 C   0  0  0  0  0  0  0  0  0  0  0  0
  -30.0615   66.9723   66.9866 H   0  0  0  0  0  0  0  0  0  0  0  0
  -33.7066   66.5596   61.4514 O   0  0  0  0  0  0  0  0  0  0  0  0
  -34.9915   65.6554   63.2787 O   0  0  0  0  0  0  0  0  0  0  0  0
  -35.5447   65.0483   60.9036 O   0  0  0  0  0  0  0  0  0  0  0  0
  -35.9734   67.2148   61.7748 O   0  0  0  0  0  0  0  0  0  0  0  0
  -35.1047   65.9523   61.8987 S   0  0  0  0  0  0  0  0  0  0  0  0
  -34.4473   64.8609   63.3948 H   0  0  0  0  0  0  0  0  0  0  0  0
  -35.7007   67.8619   62.4439 H   0  0  0  0  0  0  0  0  0  0  0  0
  2  1  1  0  0  0
  2  4  1  0  0  0
  2  5  1  0  0  0
 47 48  1  0  0  0
 47  1  1  0  0  0
 48 52  1  0  0  0
  1 30  1  0  0  0
 29 30  1  0  0  0
 29 31  1  0  0  0
 30 32  1  0  0  0
  3  4  2  0  0  0
 32 33  2  0  0  0
 49 53  1  0  0  0
 49 57  1  0  0  0
 33 34  1  0  0  0
 62 54  1  0  0  0
 62 66  1  0  0  0
 34 35  1  0  0  0
 50 55  1  0  0  0
 50 58  1  0  0  0
 35 36  1  0  0  0
 51 52  1  0  0  0
 51 56  1  0  0  0
 36 37  1  0  0  0
 59 60  1  0  0  0
 59 61  1  0  0  0
 37 38  1  0  0  0
 63 66  1  0  0  0
 63 67  1  0  0  0
 38 39  1  0  0  0
 64 66  1  0  0  0
 39 40  1  0  0  0
 65 66  1  0  0  0
 65 68  1  0  0  0
 40 41  1  0  0  0
 41 42  1  0  0  0
 42 43  1  0  0  0
 43 44  1  0  0  0
 44 45  1  0  0  0
 45 46  1  0  0  0
  4  6  1  0  0  0
  6  7  1  0  0  0
  7  8  1  0  0  0
  8  9  1  0  0  0
  9 10  1  0  0  0
 10 11  1  0  0  0
 11 12  1  0  0  0
 12 13  1  0  0  0
 13 14  1  0  0  0
 14 15  1  0  0  0
 15 16  1  0  0  0
 16 17  1  0  0  0
 17 18  1  0  0  0
 18 19  1  0  0  0
 19 20  2  0  0  0
 20 21  1  0  0  0
 21 22  1  0  0  0
 22 23  1  0  0  0
 23 24  1  0  0  0
 24 25  1  0  0  0
 25 26  1  0  0  0
 26 27  1  0  0  0
 27 28  1  0  0  0
 52 53  1  0  0  0
 53 54  1  0  0  0
 54 55  1  0  0  0
 55 56  1  0  0  0
 56 60  1  0  0  0
M  CHG 1  64  -1
M  END
> <minimizedAffinity>
-9.25406

> <CNNscore>
0.1297196895

> <CNNaffinity>
7.1144905090

> <CNN_VS>
0.9228894711

> <CNNaffinity_variance>
1.6569128036

$$$$
/media/chris/experiments/cd1a-new-docking/inputs/ligands/7ryn_ligand.pdb


 68 68  0  0  0  0  0  0  0  0999 V2000
  -31.2952   61.8820   62.7571 C   0  0  0  0  0  0  0  0  0  0  0  0
  -32.2965   61.4988   63.7479 N   0  0  0  0  0  0  0  0  0  0  0  0
  -34.0617   62.3457   62.6368 O   0  0  0  0  0  0  0  0  0  0  0  0
  -33.5994   61.7597   63.6114 C   0  0  0  0  0  0  0  0  0  0  0  0
  -31.9967   61.0245   64.5569 H   0  0  0  0  0  0  0  0  0  0  0  0
  -34.4823   61.2793   64.7361 C   0  0  0  0  0  0  0  0  0  0  0  0
  -35.9650   61.4058   64.4104 C   0  0  0  0  0  0  0  0  0  0  0  0
  -36.7590   60.1695   64.8008 C   0  0  0  0  0  0  0  0  0  0  0  0
  -38.1797   60.4665   65.2510 C   0  0  0  0  0  0  0  0  0  0  0  0
  -39.1088   59.2633   65.1896 C   0  0  0  0  0  0  0  0  0  0  0  0
  -40.1817   59.2531   66.2710 C   0  0  0  0  0  0  0  0  0  0  0  0
  -41.5664   59.6427   65.7698 C   0  0  0  0  0  0  0  0  0  0  0  0
  -42.7108   59.2518   66.7014 C   0  0  0  0  0  0  0  0  0  0  0  0
  -43.0848   57.7717   66.6402 C   0  0  0  0  0  0  0  0  0  0  0  0
  -44.1989   57.4366   65.6489 C   0  0  0  0  0  0  0  0  0  0  0  0
  -45.3178   58.4779   65.6153 C   0  0  0  0  0  0  0  0  0  0  0  0
  -46.0360   58.6993   66.9464 C   0  0  0  0  0  0  0  0  0  0  0  0
  -47.5507   58.4805   66.9062 C   0  0  0  0  0  0  0  0  0  0  0  0
  -47.9718   57.5104   65.8404 C   0  0  0  0  0  0  0  0  0  0  0  0
  -48.8453   57.7435   64.8768 C   0  0  0  0  0  0  0  0  0  0  0  0
  -49.5897   59.0247   64.6522 C   0  0  0  0  0  0  0  0  0  0  0  0
  -49.1056   59.8109   63.4320 C   0  0  0  0  0  0  0  0  0  0  0  0
  -50.0590   59.7309   62.2472 C   0  0  0  0  0  0  0  0  0  0  0  0
  -50.9863   58.5219   62.2975 C   0  0  0  0  0  0  0  0  0  0  0  0
  -50.8653   57.5832   61.1024 C   0  0  0  0  0  0  0  0  0  0  0  0
  -50.0121   58.1386   59.9707 C   0  0  0  0  0  0  0  0  0  0  0  0
  -48.7867   57.2992   59.6457 C   0  0  0  0  0  0  0  0  0  0  0  0
  -48.0028   57.8337   58.4642 C   0  0  0  0  0  0  0  0  0  0  0  0
  -30.8135   60.7632   60.6711 O   0  0  0  0  0  0  0  0  0  0  0  0
  -30.7271   60.6181   62.0916 C   0  0  0  0  0  0  0  0  0  0  0  0
  -30.3407   61.5653   60.3987 H   0  0  0  0  0  0  0  0  0  0  0  0
  -31.4477   59.3872   62.5493 C   0  0  0  0  0  0  0  0  0  0  0  0
  -32.5232   58.8820   61.9783 C   0  0  0  0  0  0  0  0  0  0  0  0
  -33.2109   57.6429   62.4500 C   0  0  0  0  0  0  0  0  0  0  0  0
  -34.5647   57.9720   63.0826 C   0  0  0  0  0  0  0  0  0  0  0  0
  -35.7057   58.0913   62.0854 C   0  0  0  0  0  0  0  0  0  0  0  0
  -36.9693   57.3517   62.4906 C   0  0  0  0  0  0  0  0  0  0  0  0
  -38.2332   57.8750   61.8238 C   0  0  0  0  0  0  0  0  0  0  0  0
  -37.9797   58.5709   60.4953 C   0  0  0  0  0  0  0  0  0  0  0  0
  -39.1324   59.4443   60.0325 C   0  0  0  0  0  0  0  0  0  0  0  0
  -40.4520   58.7074   59.8999 C   0  0  0  0  0  0  0  0  0  0  0  0
  -41.6125   59.3919   60.6016 C   0  0  0  0  0  0  0  0  0  0  0  0
  -41.6321   59.1417   62.0981 C   0  0  0  0  0  0  0  0  0  0  0  0
  -42.3007   57.8433   62.5073 C   0  0  0  0  0  0  0  0  0  0  0  0
  -41.3772   56.9359   63.2961 C   0  0  0  0  0  0  0  0  0  0  0  0
  -41.3344   55.5273   62.7408 C   0  0  0  0  0  0  0  0  0  0  0  0
  -30.2125   62.7171   63.4088 C   0  0  0  0  0  0  0  0  0  0  0  0
  -30.0866   63.9418   62.6773 O   0  0  0  0  0  0  0  0  0  0  0  0
  -32.3917   64.9108   61.4169 O   0  0  0  0  0  0  0  0  0  0  0  0
  -33.3660   64.8428   65.6084 O   0  0  0  0  0  0  0  0  0  0  0  0
  -30.6655   65.0235   64.6325 O   0  0  0  0  0  0  0  0  0  0  0  0
  -30.7978   65.0143   63.2233 C   0  0  0  0  0  0  0  0  0  0  0  0
  -32.2614   64.8579   62.8319 C   0  0  0  0  0  0  0  0  0  0  0  0
  -33.0911   65.9594   63.4793 C   0  0  0  0  0  0  0  0  0  0  0  0
  -32.8516   66.0130   64.9810 C   0  0  0  0  0  0  0  0  0  0  0  0
  -31.3540   66.1184   65.2578 C   0  0  0  0  0  0  0  0  0  0  0  0
  -31.8595   64.2055   61.0165 H   0  0  0  0  0  0  0  0  0  0  0  0
  -34.3177   64.7741   65.4336 H   0  0  0  0  0  0  0  0  0  0  0  0
  -32.1708   66.2553   67.5388 O   0  0  0  0  0  0  0  0  0  0  0  0
  -31.0161   66.0645   66.7294 C   0  0  0  0  0  0  0  0  0  0  0  0
  -31.9196   66.2151   68.4749 H   0  0  0  0  0  0  0  0  0  0  0  0
  -34.4790   65.5775   63.2199 O   0  0  0  0  0  0  0  0  0  0  0  0
  -35.2476   64.4966   61.2079 O   0  0  0  0  0  0  0  0  0  0  0  0
  -34.3596   66.8465   61.1371 O   0  0  0  0  0  0  0  0  0  0  0  0
  -36.4557   66.3290   62.1245 O   0  0  0  0  0  0  0  0  0  0  0  0
  -35.0638   65.7884   61.7580 S   0  0  0  0  0  0  0  0  0  0  0  0
  -34.3860   64.1234   60.9642 H   0  0  0  0  0  0  0  0  0  0  0  0
  -36.9714   65.6291   62.5547 H   0  0  0  0  0  0  0  0  0  0  0  0
  2  1  1  0  0  0
  2  4  1  0  0  0
  2  5  1  0  0  0
 47 48  1  0  0  0
 47  1  1  0  0  0
 48 52  1  0  0  0
  1 30  1  0  0  0
 29 30  1  0  0  0
 29 31  1  0  0  0
 30 32  1  0  0  0
  3  4  2  0  0  0
 32 33  2  0  0  0
 49 53  1  0  0  0
 49 57  1  0  0  0
 33 34  1  0  0  0
 62 54  1  0  0  0
 62 66  1  0  0  0
 34 35  1  0  0  0
 50 55  1  0  0  0
 50 58  1  0  0  0
 35 36  1  0  0  0
 51 52  1  0  0  0
 51 56  1  0  0  0
 36 37  1  0  0  0
 59 60  1  0  0  0
 59 61  1  0  0  0
 37 38  1  0  0  0
 63 66  1  0  0  0
 63 67  1  0  0  0
 38 39  1  0  0  0
 64 66  1  0  0  0
 39 40  1  0  0  0
 65 66  1  0  0  0
 65 68  1  0  0  0
 40 41  1  0  0  0
 41 42  1  0  0  0
 42 43  1  0  0  0
 43 44  1  0  0  0
 44 45  1  0  0  0
 45 46  1  0  0  0
  4  6  1  0  0  0
  6  7  1  0  0  0
  7  8  1  0  0  0
  8  9  1  0  0  0
  9 10  1  0  0  0
 10 11  1  0  0  0
 11 12  1  0  0  0
 12 13  1  0  0  0
 13 14  1  0  0  0
 14 15  1  0  0  0
 15 16  1  0  0  0
 16 17  1  0  0  0
 17 18  1  0  0  0
 18 19  1  0  0  0
 19 20  2  0  0  0
 20 21  1  0  0  0
 21 22  1  0  0  0
 22 23  1  0  0  0
 23 24  1  0  0  0
 24 25  1  0  0  0
 25 26  1  0  0  0
 26 27  1  0  0  0
 27 28  1  0  0  0
 52 53  1  0  0  0
 53 54  1  0  0  0
 54 55  1  0  0  0
 55 56  1  0  0  0
 56 60  1  0  0  0
M  CHG 1  64  -1
M  END
> <minimizedAffinity>
-8.71350

> <CNNscore>
0.1209123954

> <CNNaffinity>
7.0135068893

> <CNN_VS>
0.8480198979

> <CNNaffinity_variance>
1.4396489859

$$$$
/media/chris/experiments/cd1a-new-docking/inputs/ligands/7ryn_ligand.pdb


 68 68  0  0  0  0  0  0  0  0999 V2000
  -36.6719   61.2587   63.8417 C   0  0  0  0  0  0  0  0  0  0  0  0
  -37.3080   60.7655   62.6237 N   0  0  0  0  0  0  0  0  0  0  0  0
  -39.3327   61.6576   63.0391 O   0  0  0  0  0  0  0  0  0  0  0  0
  -38.5863   61.0026   62.3173 C   0  0  0  0  0  0  0  0  0  0  0  0
  -36.7680   60.2317   61.9971 H   0  0  0  0  0  0  0  0  0  0  0  0
  -39.0637   60.4172   61.0117 C   0  0  0  0  0  0  0  0  0  0  0  0
  -40.4286   59.7517   61.1336 C   0  0  0  0  0  0  0  0  0  0  0  0
  -41.5666   60.6647   60.7060 C   0  0  0  0  0  0  0  0  0  0  0  0
  -42.4148   61.1735   61.8597 C   0  0  0  0  0  0  0  0  0  0  0  0
  -42.2732   60.3559   63.1348 C   0  0  0  0  0  0  0  0  0  0  0  0
  -43.3773   59.3258   63.3364 C   0  0  0  0  0  0  0  0  0  0  0  0
  -43.7186   59.0653   64.7979 C   0  0  0  0  0  0  0  0  0  0  0  0
  -44.6530   57.8805   65.0291 C   0  0  0  0  0  0  0  0  0  0  0  0
  -45.2621   57.8325   66.4294 C   0  0  0  0  0  0  0  0  0  0  0  0
  -46.5797   58.5930   66.5774 C   0  0  0  0  0  0  0  0  0  0  0  0
  -47.4829   58.4914   65.3481 C   0  0  0  0  0  0  0  0  0  0  0  0
  -47.4894   59.7255   64.4460 C   0  0  0  0  0  0  0  0  0  0  0  0
  -48.7286   60.6147   64.5785 C   0  0  0  0  0  0  0  0  0  0  0  0
  -49.8621   59.9334   65.2894 C   0  0  0  0  0  0  0  0  0  0  0  0
  -50.9881   59.5160   64.7382 C   0  0  0  0  0  0  0  0  0  0  0  0
  -51.3591   59.6362   63.2911 C   0  0  0  0  0  0  0  0  0  0  0  0
  -51.1041   58.3619   62.4834 C   0  0  0  0  0  0  0  0  0  0  0  0
  -49.7091   58.3034   61.8754 C   0  0  0  0  0  0  0  0  0  0  0  0
  -49.6431   58.8605   60.4578 C   0  0  0  0  0  0  0  0  0  0  0  0
  -49.6212   57.7998   59.3631 C   0  0  0  0  0  0  0  0  0  0  0  0
  -48.2231   57.3118   59.0104 C   0  0  0  0  0  0  0  0  0  0  0  0
  -47.9651   57.1891   57.5171 C   0  0  0  0  0  0  0  0  0  0  0  0
  -46.7802   58.0124   57.0541 C   0  0  0  0  0  0  0  0  0  0  0  0
  -37.0063   61.5731   66.2132 O   0  0  0  0  0  0  0  0  0  0  0  0
  -37.6168   61.0404   65.0343 C   0  0  0  0  0  0  0  0  0  0  0  0
  -36.8004   62.5110   66.0751 H   0  0  0  0  0  0  0  0  0  0  0  0
  -37.9492   59.5906   65.2114 C   0  0  0  0  0  0  0  0  0  0  0  0
  -39.1691   59.0958   65.2836 C   0  0  0  0  0  0  0  0  0  0  0  0
  -39.4684   57.6416   65.4456 C   0  0  0  0  0  0  0  0  0  0  0  0
  -40.9592   57.3611   65.2460 C   0  0  0  0  0  0  0  0  0  0  0  0
  -41.2582   56.0340   64.5680 C   0  0  0  0  0  0  0  0  0  0  0  0
  -41.8510   56.1635   63.1753 C   0  0  0  0  0  0  0  0  0  0  0  0
  -40.9025   56.7735   62.1535 C   0  0  0  0  0  0  0  0  0  0  0  0
  -39.4720   56.2700   62.2711 C   0  0  0  0  0  0  0  0  0  0  0  0
  -38.4252   57.3167   61.9325 C   0  0  0  0  0  0  0  0  0  0  0  0
  -37.1057   57.1284   62.6574 C   0  0  0  0  0  0  0  0  0  0  0  0
  -35.9349   57.8377   61.9988 C   0  0  0  0  0  0  0  0  0  0  0  0
  -34.5969   57.4708   62.6133 C   0  0  0  0  0  0  0  0  0  0  0  0
  -33.5640   58.5807   62.5733 C   0  0  0  0  0  0  0  0  0  0  0  0
  -33.4085   59.2801   63.9093 C   0  0  0  0  0  0  0  0  0  0  0  0
  -34.0661   58.5197   65.0423 C   0  0  0  0  0  0  0  0  0  0  0  0
  -36.2923   62.7157   63.6761 C   0  0  0  0  0  0  0  0  0  0  0  0
  -35.3461   63.0534   64.6966 O   0  0  0  0  0  0  0  0  0  0  0  0
  -32.5969   62.5392   64.8331 O   0  0  0  0  0  0  0  0  0  0  0  0
  -33.1529   64.6112   61.1021 O   0  0  0  0  0  0  0  0  0  0  0  0
  -34.9684   64.8669   63.3194 O   0  0  0  0  0  0  0  0  0  0  0  0
  -34.4206   64.0320   64.3225 C   0  0  0  0  0  0  0  0  0  0  0  0
  -33.1748   63.3280   63.8006 C   0  0  0  0  0  0  0  0  0  0  0  0
  -32.1702   64.3575   63.2987 C   0  0  0  0  0  0  0  0  0  0  0  0
  -32.8136   65.3060   62.2978 C   0  0  0  0  0  0  0  0  0  0  0  0
  -34.0756   65.9134   62.9052 C   0  0  0  0  0  0  0  0  0  0  0  0
  -33.2454   61.8883   65.1441 H   0  0  0  0  0  0  0  0  0  0  0  0
  -32.3522   64.2244   60.7145 H   0  0  0  0  0  0  0  0  0  0  0  0
  -36.2298   66.4717   61.9374 O   0  0  0  0  0  0  0  0  0  0  0  0
  -34.8416   66.7843   61.9371 C   0  0  0  0  0  0  0  0  0  0  0  0
  -36.6909   67.0471   61.3071 H   0  0  0  0  0  0  0  0  0  0  0  0
  -31.1364   63.5689   62.6287 O   0  0  0  0  0  0  0  0  0  0  0  0
  -32.9511   62.1087   62.0104 O   0  0  0  0  0  0  0  0  0  0  0  0
  -30.6857   61.1699   62.5604 O   0  0  0  0  0  0  0  0  0  0  0  0
  -31.0853   62.3872   60.5616 O   0  0  0  0  0  0  0  0  0  0  0  0
  -31.5359   62.1596   62.0139 S   0  0  0  0  0  0  0  0  0  0  0  0
  -33.2716   61.9656   62.9147 H   0  0  0  0  0  0  0  0  0  0  0  0
  -31.6472   63.0627   60.1508 H   0  0  0  0  0  0  0  0  0  0  0  0
  2  1  1  0  0  0
  2  4  1  0  0  0
  2  5  1  0  0  0
 47 48  1  0  0  0
 47  1  1  0  0  0
 48 52  1  0  0  0
  1 30  1  0  0  0
 29 30  1  0  0  0
 29 31  1  0  0  0
 30 32  1  0  0  0
  3  4  2  0  0  0
 32 33  2  0  0  0
 49 53  1  0  0  0
 49 57  1  0  0  0
 33 34  1  0  0  0
 62 54  1  0  0  0
 62 66  1  0  0  0
 34 35  1  0  0  0
 50 55  1  0  0  0
 50 58  1  0  0  0
 35 36  1  0  0  0
 51 52  1  0  0  0
 51 56  1  0  0  0
 36 37  1  0  0  0
 59 60  1  0  0  0
 59 61  1  0  0  0
 37 38  1  0  0  0
 63 66  1  0  0  0
 63 67  1  0  0  0
 38 39  1  0  0  0
 64 66  1  0  0  0
 39 40  1  0  0  0
 65 66  1  0  0  0
 65 68  1  0  0  0
 40 41  1  0  0  0
 41 42  1  0  0  0
 42 43  1  0  0  0
 43 44  1  0  0  0
 44 45  1  0  0  0
 45 46  1  0  0  0
  4  6  1  0  0  0
  6  7  1  0  0  0
  7  8  1  0  0  0
  8  9  1  0  0  0
  9 10  1  0  0  0
 10 11  1  0  0  0
 11 12  1  0  0  0
 12 13  1  0  0  0
 13 14  1  0  0  0
 14 15  1  0  0  0
 15 16  1  0  0  0
 16 17  1  0  0  0
 17 18  1  0  0  0
 18 19  1  0  0  0
 19 20  2  0  0  0
 20 21  1  0  0  0
 21 22  1  0  0  0
 22 23  1  0  0  0
 23 24  1  0  0  0
 24 25  1  0  0  0
 25 26  1  0  0  0
 26 27  1  0  0  0
 27 28  1  0  0  0
 52 53  1  0  0  0
 53 54  1  0  0  0
 54 55  1  0  0  0
 55 56  1  0  0  0
 56 60  1  0  0  0
M  CHG 1  64  -1
M  END
> <minimizedAffinity>
-8.73094

> <CNNscore>
0.1043051630

> <CNNaffinity>
7.1437835693

> <CNN_VS>
0.7451335192

> <CNNaffinity_variance>
1.3365606070

$$$$
/media/chris/experiments/cd1a-new-docking/inputs/ligands/7ryn_ligand.pdb


 68 68  0  0  0  0  0  0  0  0999 V2000
  -34.7823   60.7767   64.7793 C   0  0  0  0  0  0  0  0  0  0  0  0
  -36.0536   60.2682   65.2857 N   0  0  0  0  0  0  0  0  0  0  0  0
  -37.1368   62.2406   65.2221 O   0  0  0  0  0  0  0  0  0  0  0  0
  -37.1301   61.0378   65.4675 C   0  0  0  0  0  0  0  0  0  0  0  0
  -36.1209   59.3106   65.5041 H   0  0  0  0  0  0  0  0  0  0  0  0
  -38.3557   60.3320   65.9918 C   0  0  0  0  0  0  0  0  0  0  0  0
  -38.5515   58.9571   65.3658 C   0  0  0  0  0  0  0  0  0  0  0  0
  -40.0015   58.5010   65.3934 C   0  0  0  0  0  0  0  0  0  0  0  0
  -40.9333   59.4542   66.1229 C   0  0  0  0  0  0  0  0  0  0  0  0
  -42.2703   59.6607   65.4271 C   0  0  0  0  0  0  0  0  0  0  0  0
  -43.2403   58.4975   65.5905 C   0  0  0  0  0  0  0  0  0  0  0  0
  -44.0500   58.1888   64.3377 C   0  0  0  0  0  0  0  0  0  0  0  0
  -45.5615   58.3084   64.5145 C   0  0  0  0  0  0  0  0  0  0  0  0
  -46.0790   57.7501   65.8392 C   0  0  0  0  0  0  0  0  0  0  0  0
  -47.1385   58.6133   66.5238 C   0  0  0  0  0  0  0  0  0  0  0  0
  -48.3295   58.9434   65.6240 C   0  0  0  0  0  0  0  0  0  0  0  0
  -48.3861   60.3888   65.1296 C   0  0  0  0  0  0  0  0  0  0  0  0
  -49.4592   60.6679   64.0739 C   0  0  0  0  0  0  0  0  0  0  0  0
  -50.2195   59.4361   63.6752 C   0  0  0  0  0  0  0  0  0  0  0  0
  -50.4223   59.0120   62.4404 C   0  0  0  0  0  0  0  0  0  0  0  0
  -49.9315   59.6743   61.1888 C   0  0  0  0  0  0  0  0  0  0  0  0
  -49.2433   58.7152   60.2153 C   0  0  0  0  0  0  0  0  0  0  0  0
  -50.0155   57.4207   59.9983 C   0  0  0  0  0  0  0  0  0  0  0  0
  -49.1218   56.1874   59.9301 C   0  0  0  0  0  0  0  0  0  0  0  0
  -47.6776   56.4753   59.5359 C   0  0  0  0  0  0  0  0  0  0  0  0
  -47.3202   56.0066   58.1325 C   0  0  0  0  0  0  0  0  0  0  0  0
  -47.7674   56.9511   57.0282 C   0  0  0  0  0  0  0  0  0  0  0  0
  -46.9416   58.2202   56.9678 C   0  0  0  0  0  0  0  0  0  0  0  0
  -33.7692   60.3538   62.6277 O   0  0  0  0  0  0  0  0  0  0  0  0
  -34.1442   59.7255   63.8569 C   0  0  0  0  0  0  0  0  0  0  0  0
  -33.1686   61.0928   62.8124 H   0  0  0  0  0  0  0  0  0  0  0  0
  -35.0738   58.5771   63.6100 C   0  0  0  0  0  0  0  0  0  0  0  0
  -35.8855   58.4675   62.5770 C   0  0  0  0  0  0  0  0  0  0  0  0
  -36.7907   57.3013   62.3509 C   0  0  0  0  0  0  0  0  0  0  0  0
  -38.0536   57.7230   61.5969 C   0  0  0  0  0  0  0  0  0  0  0  0
  -37.8048   58.7106   60.4684 C   0  0  0  0  0  0  0  0  0  0  0  0
  -38.6150   59.9917   60.5695 C   0  0  0  0  0  0  0  0  0  0  0  0
  -38.7285   60.5419   61.9837 C   0  0  0  0  0  0  0  0  0  0  0  0
  -40.1592   60.6264   62.4932 C   0  0  0  0  0  0  0  0  0  0  0  0
  -41.2061   60.5070   61.3997 C   0  0  0  0  0  0  0  0  0  0  0  0
  -42.0458   59.2460   61.4829 C   0  0  0  0  0  0  0  0  0  0  0  0
  -41.7978   58.2655   60.3493 C   0  0  0  0  0  0  0  0  0  0  0  0
  -41.3796   56.8902   60.8351 C   0  0  0  0  0  0  0  0  0  0  0  0
  -41.1342   56.8016   62.3291 C   0  0  0  0  0  0  0  0  0  0  0  0
  -41.5706   55.4724   62.9133 C   0  0  0  0  0  0  0  0  0  0  0  0
  -41.5918   55.4831   64.4278 C   0  0  0  0  0  0  0  0  0  0  0  0
  -33.8740   61.1468   65.9336 C   0  0  0  0  0  0  0  0  0  0  0  0
  -33.9558   62.5622   66.1353 O   0  0  0  0  0  0  0  0  0  0  0  0
  -35.2495   63.6485   63.9021 O   0  0  0  0  0  0  0  0  0  0  0  0
  -32.6453   66.7751   65.3040 O   0  0  0  0  0  0  0  0  0  0  0  0
  -32.1660   63.9871   65.8284 O   0  0  0  0  0  0  0  0  0  0  0  0
  -33.2441   63.3191   65.2001 C   0  0  0  0  0  0  0  0  0  0  0  0
  -34.2027   64.3290   64.5829 C   0  0  0  0  0  0  0  0  0  0  0  0
  -33.4490   65.2361   63.6186 C   0  0  0  0  0  0  0  0  0  0  0  0
  -32.2359   65.8613   64.2915 C   0  0  0  0  0  0  0  0  0  0  0  0
  -31.3752   64.7663   64.9166 C   0  0  0  0  0  0  0  0  0  0  0  0
  -35.7214   63.0748   64.5258 H   0  0  0  0  0  0  0  0  0  0  0  0
  -33.1924   67.4718   64.9087 H   0  0  0  0  0  0  0  0  0  0  0  0
  -30.6300   65.9384   66.9065 O   0  0  0  0  0  0  0  0  0  0  0  0
  -30.2049   65.3070   65.7043 C   0  0  0  0  0  0  0  0  0  0  0  0
  -29.8566   66.2733   67.3868 H   0  0  0  0  0  0  0  0  0  0  0  0
  -34.4083   66.2841   63.2707 O   0  0  0  0  0  0  0  0  0  0  0  0
  -33.6132   66.7860   61.0519 O   0  0  0  0  0  0  0  0  0  0  0  0
  -36.0085   67.2162   61.6791 O   0  0  0  0  0  0  0  0  0  0  0  0
  -35.1625   65.0154   61.4016 O   0  0  0  0  0  0  0  0  0  0  0  0
  -34.8076   66.4715   61.7447 S   0  0  0  0  0  0  0  0  0  0  0  0
  -33.3585   67.7016   61.2460 H   0  0  0  0  0  0  0  0  0  0  0  0
  -34.3608   64.4704   61.4362 H   0  0  0  0  0  0  0  0  0  0  0  0
  2  1  1  0  0  0
  2  4  1  0  0  0
  2  5  1  0  0  0
 47 48  1  0  0  0
 47  1  1  0  0  0
 48 52  1  0  0  0
  1 30  1  0  0  0
 29 30  1  0  0  0
 29 31  1  0  0  0
 30 32  1  0  0  0
  3  4  2  0  0  0
 32 33  2  0  0  0
 49 53  1  0  0  0
 49 57  1  0  0  0
 33 34  1  0  0  0
 62 54  1  0  0  0
 62 66  1  0  0  0
 34 35  1  0  0  0
 50 55  1  0  0  0
 50 58  1  0  0  0
 35 36  1  0  0  0
 51 52  1  0  0  0
 51 56  1  0  0  0
 36 37  1  0  0  0
 59 60  1  0  0  0
 59 61  1  0  0  0
 37 38  1  0  0  0
 63 66  1  0  0  0
 63 67  1  0  0  0
 38 39  1  0  0  0
 64 66  1  0  0  0
 39 40  1  0  0  0
 65 66  1  0  0  0
 65 68  1  0  0  0
 40 41  1  0  0  0
 41 42  1  0  0  0
 42 43  1  0  0  0
 43 44  1  0  0  0
 44 45  1  0  0  0
 45 46  1  0  0  0
  4  6  1  0  0  0
  6  7  1  0  0  0
  7  8  1  0  0  0
  8  9  1  0  0  0
  9 10  1  0  0  0
 10 11  1  0  0  0
 11 12  1  0  0  0
 12 13  1  0  0  0
 13 14  1  0  0  0
 14 15  1  0  0  0
 15 16  1  0  0  0
 16 17  1  0  0  0
 17 18  1  0  0  0
 18 19  1  0  0  0
 19 20  2  0  0  0
 20 21  1  0  0  0
 21 22  1  0  0  0
 22 23  1  0  0  0
 23 24  1  0  0  0
 24 25  1  0  0  0
 25 26  1  0  0  0
 26 27  1  0  0  0
 27 28  1  0  0  0
 52 53  1  0  0  0
 53 54  1  0  0  0
 54 55  1  0  0  0
 55 56  1  0  0  0
 56 60  1  0  0  0
M  CHG 1  64  -1
M  END
> <minimizedAffinity>
-8.91106

> <CNNscore>
0.1042453870

> <CNNaffinity>
7.3057861328

> <CNN_VS>
0.7615944743

> <CNNaffinity_variance>
1.0628292561

$$$$
/media/chris/experiments/cd1a-new-docking/inputs/ligands/7ryn_ligand.pdb


 68 68  0  0  0  0  0  0  0  0999 V2000
  -35.8633   58.9794   63.8706 C   0  0  0  0  0  0  0  0  0  0  0  0
  -37.0219   58.8878   64.7540 N   0  0  0  0  0  0  0  0  0  0  0  0
  -37.7714   60.9764   64.3746 O   0  0  0  0  0  0  0  0  0  0  0  0
  -37.8844   59.8911   64.9372 C   0  0  0  0  0  0  0  0  0  0  0  0
  -37.1752   58.0448   65.2388 H   0  0  0  0  0  0  0  0  0  0  0  0
  -39.0249   59.6067   65.8826 C   0  0  0  0  0  0  0  0  0  0  0  0
  -40.1426   60.6363   65.7771 C   0  0  0  0  0  0  0  0  0  0  0  0
  -41.4119   60.1994   66.4908 C   0  0  0  0  0  0  0  0  0  0  0  0
  -41.4792   58.7072   66.7699 C   0  0  0  0  0  0  0  0  0  0  0  0
  -42.8955   58.1732   66.9232 C   0  0  0  0  0  0  0  0  0  0  0  0
  -43.9572   59.2587   67.0462 C   0  0  0  0  0  0  0  0  0  0  0  0
  -45.3725   58.7210   67.2142 C   0  0  0  0  0  0  0  0  0  0  0  0
  -45.8281   57.7779   66.1037 C   0  0  0  0  0  0  0  0  0  0  0  0
  -47.2660   57.2849   66.2572 C   0  0  0  0  0  0  0  0  0  0  0  0
  -48.2133   57.7263   65.1417 C   0  0  0  0  0  0  0  0  0  0  0  0
  -47.9108   59.1250   64.6038 C   0  0  0  0  0  0  0  0  0  0  0  0
  -48.9790   60.1775   64.9002 C   0  0  0  0  0  0  0  0  0  0  0  0
  -50.3839   59.6198   65.1433 C   0  0  0  0  0  0  0  0  0  0  0  0
  -51.3457   59.9616   64.0422 C   0  0  0  0  0  0  0  0  0  0  0  0
  -51.4606   59.3327   62.8858 C   0  0  0  0  0  0  0  0  0  0  0  0
  -50.6554   58.1493   62.4418 C   0  0  0  0  0  0  0  0  0  0  0  0
  -51.0635   57.6081   61.0700 C   0  0  0  0  0  0  0  0  0  0  0  0
  -50.1648   58.0922   59.9400 C   0  0  0  0  0  0  0  0  0  0  0  0
  -48.7137   57.6488   60.0889 C   0  0  0  0  0  0  0  0  0  0  0  0
  -48.4219   56.2524   59.5514 C   0  0  0  0  0  0  0  0  0  0  0  0
  -47.2405   56.1990   58.5930 C   0  0  0  0  0  0  0  0  0  0  0  0
  -46.9424   57.5184   57.8986 C   0  0  0  0  0  0  0  0  0  0  0  0
  -47.6340   57.6475   56.5566 C   0  0  0  0  0  0  0  0  0  0  0  0
  -34.4937   57.3430   62.7387 O   0  0  0  0  0  0  0  0  0  0  0  0
  -35.8469   57.7681   62.9244 C   0  0  0  0  0  0  0  0  0  0  0  0
  -34.0972   57.1406   63.6006 H   0  0  0  0  0  0  0  0  0  0  0  0
  -36.4925   58.0899   61.6116 C   0  0  0  0  0  0  0  0  0  0  0  0
  -37.6278   58.7437   61.4651 C   0  0  0  0  0  0  0  0  0  0  0  0
  -38.2388   59.0626   60.1401 C   0  0  0  0  0  0  0  0  0  0  0  0
  -39.7058   59.4692   60.2943 C   0  0  0  0  0  0  0  0  0  0  0  0
  -40.6947   58.3447   60.0333 C   0  0  0  0  0  0  0  0  0  0  0  0
  -40.4797   57.1114   60.8938 C   0  0  0  0  0  0  0  0  0  0  0  0
  -40.5595   57.3791   62.3897 C   0  0  0  0  0  0  0  0  0  0  0  0
  -41.4575   56.4054   63.1374 C   0  0  0  0  0  0  0  0  0  0  0  0
  -42.6498   57.0645   63.8083 C   0  0  0  0  0  0  0  0  0  0  0  0
  -43.3607   58.0860   62.9405 C   0  0  0  0  0  0  0  0  0  0  0  0
  -43.3525   59.4928   63.5137 C   0  0  0  0  0  0  0  0  0  0  0  0
  -42.2556   60.3646   62.9312 C   0  0  0  0  0  0  0  0  0  0  0  0
  -42.6563   61.1230   61.6803 C   0  0  0  0  0  0  0  0  0  0  0  0
  -42.9474   62.5854   61.9541 C   0  0  0  0  0  0  0  0  0  0  0  0
  -42.6174   62.9863   63.3770 C   0  0  0  0  0  0  0  0  0  0  0  0
  -34.5926   59.0789   64.6890 C   0  0  0  0  0  0  0  0  0  0  0  0
  -33.7217   60.0232   64.0559 O   0  0  0  0  0  0  0  0  0  0  0  0
  -32.7414   62.2385   62.6515 O   0  0  0  0  0  0  0  0  0  0  0  0
  -36.3430   63.6346   64.5493 O   0  0  0  0  0  0  0  0  0  0  0  0
  -34.8112   61.4115   65.5437 O   0  0  0  0  0  0  0  0  0  0  0  0
  -33.7300   61.2941   64.6379 C   0  0  0  0  0  0  0  0  0  0  0  0
  -33.8624   62.3228   63.5225 C   0  0  0  0  0  0  0  0  0  0  0  0
  -33.9637   63.7216   64.1174 C   0  0  0  0  0  0  0  0  0  0  0  0
  -35.0675   63.7923   65.1624 C   0  0  0  0  0  0  0  0  0  0  0  0
  -34.8644   62.6893   66.1981 C   0  0  0  0  0  0  0  0  0  0  0  0
  -32.6875   61.3443   62.2794 H   0  0  0  0  0  0  0  0  0  0  0  0
  -36.4740   64.3347   63.8908 H   0  0  0  0  0  0  0  0  0  0  0  0
  -36.2792   63.8951   67.7579 O   0  0  0  0  0  0  0  0  0  0  0  0
  -35.9802   62.6147   67.2138 C   0  0  0  0  0  0  0  0  0  0  0  0
  -36.9976   63.8119   68.4045 H   0  0  0  0  0  0  0  0  0  0  0  0
  -34.3082   64.5808   62.9848 O   0  0  0  0  0  0  0  0  0  0  0  0
  -33.1015   66.4740   63.8604 O   0  0  0  0  0  0  0  0  0  0  0  0
  -33.8115   66.4143   61.4505 O   0  0  0  0  0  0  0  0  0  0  0  0
  -32.0766   65.0219   62.2797 O   0  0  0  0  0  0  0  0  0  0  0  0
  -33.3520   65.8014   62.6397 S   0  0  0  0  0  0  0  0  0  0  0  0
  -33.8886   66.9784   64.1191 H   0  0  0  0  0  0  0  0  0  0  0  0
  -31.7296   64.5854   63.0734 H   0  0  0  0  0  0  0  0  0  0  0  0
  2  1  1  0  0  0
  2  4  1  0  0  0
  2  5  1  0  0  0
 47 48  1  0  0  0
 47  1  1  0  0  0
 48 52  1  0  0  0
  1 30  1  0  0  0
 29 30  1  0  0  0
 29 31  1  0  0  0
 30 32  1  0  0  0
  3  4  2  0  0  0
 32 33  2  0  0  0
 49 53  1  0  0  0
 49 57  1  0  0  0
 33 34  1  0  0  0
 62 54  1  0  0  0
 62 66  1  0  0  0
 34 35  1  0  0  0
 50 55  1  0  0  0
 50 58  1  0  0  0
 35 36  1  0  0  0
 51 52  1  0  0  0
 51 56  1  0  0  0
 36 37  1  0  0  0
 59 60  1  0  0  0
 59 61  1  0  0  0
 37 38  1  0  0  0
 63 66  1  0  0  0
 63 67  1  0  0  0
 38 39  1  0  0  0
 64 66  1  0  0  0
 39 40  1  0  0  0
 65 66  1  0  0  0
 65 68  1  0  0  0
 40 41  1  0  0  0
 41 42  1  0  0  0
 42 43  1  0  0  0
 43 44  1  0  0  0
 44 45  1  0  0  0
 45 46  1  0  0  0
  4  6  1  0  0  0
  6  7  1  0  0  0
  7  8  1  0  0  0
  8  9  1  0  0  0
  9 10  1  0  0  0
 10 11  1  0  0  0
 11 12  1  0  0  0
 12 13  1  0  0  0
 13 14  1  0  0  0
 14 15  1  0  0  0
 15 16  1  0  0  0
 16 17  1  0  0  0
 17 18  1  0  0  0
 18 19  1  0  0  0
 19 20  2  0  0  0
 20 21  1  0  0  0
 21 22  1  0  0  0
 22 23  1  0  0  0
 23 24  1  0  0  0
 24 25  1  0  0  0
 25 26  1  0  0  0
 26 27  1  0  0  0
 27 28  1  0  0  0
 52 53  1  0  0  0
 53 54  1  0  0  0
 54 55  1  0  0  0
 55 56  1  0  0  0
 56 60  1  0  0  0
M  CHG 1  64  -1
M  END
> <minimizedAffinity>
-9.19233

> <CNNscore>
0.1034671217

> <CNNaffinity>
7.4003958702

> <CNN_VS>
0.7656976581

> <CNNaffinity_variance>
1.9608236551

$$$$
/media/chris/experiments/cd1a-new-docking/inputs/ligands/7ryn_ligand.pdb


 68 68  0  0  0  0  0  0  0  0999 V2000
  -41.0332   57.1976   64.2268 C   0  0  0  0  0  0  0  0  0  0  0  0
  -39.7541   57.6522   64.7640 N   0  0  0  0  0  0  0  0  0  0  0  0
  -40.3694   59.7988   65.0492 O   0  0  0  0  0  0  0  0  0  0  0  0
  -39.5218   58.9148   65.1328 C   0  0  0  0  0  0  0  0  0  0  0  0
  -39.0267   56.9957   64.8590 H   0  0  0  0  0  0  0  0  0  0  0  0
  -38.1409   59.1933   65.6722 C   0  0  0  0  0  0  0  0  0  0  0  0
  -38.0004   60.6089   66.2170 C   0  0  0  0  0  0  0  0  0  0  0  0
  -36.9604   61.4256   65.4669 C   0  0  0  0  0  0  0  0  0  0  0  0
  -35.8318   60.5951   64.8788 C   0  0  0  0  0  0  0  0  0  0  0  0
  -34.4624   60.9221   65.4552 C   0  0  0  0  0  0  0  0  0  0  0  0
  -34.3562   62.3229   66.0442 C   0  0  0  0  0  0  0  0  0  0  0  0
  -33.3283   63.2075   65.3506 C   0  0  0  0  0  0  0  0  0  0  0  0
  -33.8938   64.5016   64.7711 C   0  0  0  0  0  0  0  0  0  0  0  0
  -35.1381   64.3046   63.9067 C   0  0  0  0  0  0  0  0  0  0  0  0
  -35.0956   65.0198   62.5565 C   0  0  0  0  0  0  0  0  0  0  0  0
  -33.9532   64.5514   61.6549 C   0  0  0  0  0  0  0  0  0  0  0  0
  -32.8661   65.5938   61.3934 C   0  0  0  0  0  0  0  0  0  0  0  0
  -31.4551   65.0251   61.2213 C   0  0  0  0  0  0  0  0  0  0  0  0
  -30.8652   64.5288   62.5097 C   0  0  0  0  0  0  0  0  0  0  0  0
  -30.6454   63.2658   62.8298 C   0  0  0  0  0  0  0  0  0  0  0  0
  -30.9384   62.0743   61.9693 C   0  0  0  0  0  0  0  0  0  0  0  0
  -32.2568   61.3776   62.3126 C   0  0  0  0  0  0  0  0  0  0  0  0
  -32.2773   59.9042   61.9283 C   0  0  0  0  0  0  0  0  0  0  0  0
  -32.1413   58.9658   63.1220 C   0  0  0  0  0  0  0  0  0  0  0  0
  -33.3719   58.1083   63.3944 C   0  0  0  0  0  0  0  0  0  0  0  0
  -34.4116   58.1579   62.2837 C   0  0  0  0  0  0  0  0  0  0  0  0
  -35.7543   57.5524   62.6607 C   0  0  0  0  0  0  0  0  0  0  0  0
  -35.8172   57.1143   64.1099 C   0  0  0  0  0  0  0  0  0  0  0  0
  -42.4993   55.3500   64.7479 O   0  0  0  0  0  0  0  0  0  0  0  0
  -41.8170   56.4655   65.3280 C   0  0  0  0  0  0  0  0  0  0  0  0
  -41.8570   54.7712   64.3082 H   0  0  0  0  0  0  0  0  0  0  0  0
  -42.7798   57.3831   66.0173 C   0  0  0  0  0  0  0  0  0  0  0  0
  -44.0419   57.5524   65.6764 C   0  0  0  0  0  0  0  0  0  0  0  0
  -44.9818   58.4648   66.3939 C   0  0  0  0  0  0  0  0  0  0  0  0
  -46.4370   58.0653   66.1408 C   0  0  0  0  0  0  0  0  0  0  0  0
  -47.0264   58.6366   64.8614 C   0  0  0  0  0  0  0  0  0  0  0  0
  -48.0149   59.7692   65.0802 C   0  0  0  0  0  0  0  0  0  0  0  0
  -48.9447   60.0153   63.9011 C   0  0  0  0  0  0  0  0  0  0  0  0
  -50.1355   59.0701   63.8546 C   0  0  0  0  0  0  0  0  0  0  0  0
  -50.9463   59.1700   62.5744 C   0  0  0  0  0  0  0  0  0  0  0  0
  -50.8193   57.9611   61.6663 C   0  0  0  0  0  0  0  0  0  0  0  0
  -49.5783   57.9770   60.7903 C   0  0  0  0  0  0  0  0  0  0  0  0
  -49.2089   56.6043   60.2596 C   0  0  0  0  0  0  0  0  0  0  0  0
  -48.0141   56.5948   59.3254 C   0  0  0  0  0  0  0  0  0  0  0  0
  -48.3244   57.2135   57.9766 C   0  0  0  0  0  0  0  0  0  0  0  0
  -47.1651   58.0187   57.4270 C   0  0  0  0  0  0  0  0  0  0  0  0
  -40.8048   56.3211   63.0128 C   0  0  0  0  0  0  0  0  0  0  0  0
  -41.8216   56.6142   62.0478 O   0  0  0  0  0  0  0  0  0  0  0  0
  -43.2801   58.9255   62.6574 O   0  0  0  0  0  0  0  0  0  0  0  0
  -39.2474   60.2926   62.0319 O   0  0  0  0  0  0  0  0  0  0  0  0
  -40.2728   57.8643   60.8788 O   0  0  0  0  0  0  0  0  0  0  0  0
  -41.6121   57.7963   61.3317 C   0  0  0  0  0  0  0  0  0  0  0  0
  -41.9165   58.9680   62.2560 C   0  0  0  0  0  0  0  0  0  0  0  0
  -41.6173   60.2809   61.5435 C   0  0  0  0  0  0  0  0  0  0  0  0
  -40.2048   60.2861   60.9778 C   0  0  0  0  0  0  0  0  0  0  0  0
  -39.9948   59.0467   60.1116 C   0  0  0  0  0  0  0  0  0  0  0  0
  -43.4581   58.0858   63.1093 H   0  0  0  0  0  0  0  0  0  0  0  0
  -39.3792   61.0796   62.5835 H   0  0  0  0  0  0  0  0  0  0  0  0
  -37.8774   60.1477   59.6725 O   0  0  0  0  0  0  0  0  0  0  0  0
  -38.5802   58.9127   59.5983 C   0  0  0  0  0  0  0  0  0  0  0  0
  -36.9754   60.0271   59.3363 H   0  0  0  0  0  0  0  0  0  0  0  0
  -41.7293   61.3009   62.5859 O   0  0  0  0  0  0  0  0  0  0  0  0
  -44.0448   61.6372   63.1624 O   0  0  0  0  0  0  0  0  0  0  0  0
  -43.0033   62.9086   61.2613 O   0  0  0  0  0  0  0  0  0  0  0  0
  -42.4525   63.3667   63.5247 O   0  0  0  0  0  0  0  0  0  0  0  0
  -42.9614   62.3024   62.5387 S   0  0  0  0  0  0  0  0  0  0  0  0
  -44.3923   60.9557   62.5661 H   0  0  0  0  0  0  0  0  0  0  0  0
  -42.4097   62.9872   64.4164 H   0  0  0  0  0  0  0  0  0  0  0  0
  2  1  1  0  0  0
  2  4  1  0  0  0
  2  5  1  0  0  0
 47 48  1  0  0  0
 47  1  1  0  0  0
 48 52  1  0  0  0
  1 30  1  0  0  0
 29 30  1  0  0  0
 29 31  1  0  0  0
 30 32  1  0  0  0
  3  4  2  0  0  0
 32 33  2  0  0  0
 49 53  1  0  0  0
 49 57  1  0  0  0
 33 34  1  0  0  0
 62 54  1  0  0  0
 62 66  1  0  0  0
 34 35  1  0  0  0
 50 55  1  0  0  0
 50 58  1  0  0  0
 35 36  1  0  0  0
 51 52  1  0  0  0
 51 56  1  0  0  0
 36 37  1  0  0  0
 59 60  1  0  0  0
 59 61  1  0  0  0
 37 38  1  0  0  0
 63 66  1  0  0  0
 63 67  1  0  0  0
 38 39  1  0  0  0
 64 66  1  0  0  0
 39 40  1  0  0  0
 65 66  1  0  0  0
 65 68  1  0  0  0
 40 41  1  0  0  0
 41 42  1  0  0  0
 42 43  1  0  0  0
 43 44  1  0  0  0
 44 45  1  0  0  0
 45 46  1  0  0  0
  4  6  1  0  0  0
  6  7  1  0  0  0
  7  8  1  0  0  0
  8  9  1  0  0  0
  9 10  1  0  0  0
 10 11  1  0  0  0
 11 12  1  0  0  0
 12 13  1  0  0  0
 13 14  1  0  0  0
 14 15  1  0  0  0
 15 16  1  0  0  0
 16 17  1  0  0  0
 17 18  1  0  0  0
 18 19  1  0  0  0
 19 20  2  0  0  0
 20 21  1  0  0  0
 21 22  1  0  0  0
 22 23  1  0  0  0
 23 24  1  0  0  0
 24 25  1  0  0  0
 25 26  1  0  0  0
 26 27  1  0  0  0
 27 28  1  0  0  0
 52 53  1  0  0  0
 53 54  1  0  0  0
 54 55  1  0  0  0
 55 56  1  0  0  0
 56 60  1  0  0  0
M  CHG 1  64  -1
M  END
> <minimizedAffinity>
-8.47201

> <CNNscore>
0.0991568789

> <CNNaffinity>
6.9696607590

> <CNN_VS>
0.6910898089

> <CNNaffinity_variance>
2.1596245766

$$$$
/media/chris/experiments/cd1a-new-docking/inputs/ligands/7ryn_ligand.pdb


 68 68  0  0  0  0  0  0  0  0999 V2000
  -43.2245   57.2111   65.0126 C   0  0  0  0  0  0  0  0  0  0  0  0
  -42.4516   56.8938   63.8154 N   0  0  0  0  0  0  0  0  0  0  0  0
  -41.6790   54.9124   64.5536 O   0  0  0  0  0  0  0  0  0  0  0  0
  -41.7403   55.7715   63.6788 C   0  0  0  0  0  0  0  0  0  0  0  0
  -42.4548   57.5390   63.0718 H   0  0  0  0  0  0  0  0  0  0  0  0
  -41.0129   55.6157   62.3666 C   0  0  0  0  0  0  0  0  0  0  0  0
  -40.1676   56.8341   62.0182 C   0  0  0  0  0  0  0  0  0  0  0  0
  -38.8584   56.8798   62.7897 C   0  0  0  0  0  0  0  0  0  0  0  0
  -37.6574   57.2666   61.9428 C   0  0  0  0  0  0  0  0  0  0  0  0
  -36.3448   57.2914   62.7115 C   0  0  0  0  0  0  0  0  0  0  0  0
  -35.2792   58.1850   62.0897 C   0  0  0  0  0  0  0  0  0  0  0  0
  -33.9190   58.0868   62.7683 C   0  0  0  0  0  0  0  0  0  0  0  0
  -32.7642   58.6744   61.9611 C   0  0  0  0  0  0  0  0  0  0  0  0
  -31.9607   59.7376   62.7081 C   0  0  0  0  0  0  0  0  0  0  0  0
  -31.1187   60.6461   61.8125 C   0  0  0  0  0  0  0  0  0  0  0  0
  -31.2663   62.1318   62.1414 C   0  0  0  0  0  0  0  0  0  0  0  0
  -32.7071   62.6268   62.2674 C   0  0  0  0  0  0  0  0  0  0  0  0
  -33.0218   63.9024   61.4816 C   0  0  0  0  0  0  0  0  0  0  0  0
  -33.9152   64.8456   62.2343 C   0  0  0  0  0  0  0  0  0  0  0  0
  -33.7603   66.1542   62.3313 C   0  0  0  0  0  0  0  0  0  0  0  0
  -32.6625   66.9609   61.7067 C   0  0  0  0  0  0  0  0  0  0  0  0
  -31.5546   67.3534   62.6864 C   0  0  0  0  0  0  0  0  0  0  0  0
  -30.3429   66.4330   62.6255 C   0  0  0  0  0  0  0  0  0  0  0  0
  -30.3326   65.3733   63.7214 C   0  0  0  0  0  0  0  0  0  0  0  0
  -30.5229   65.9211   65.1312 C   0  0  0  0  0  0  0  0  0  0  0  0
  -31.8538   65.5382   65.7631 C   0  0  0  0  0  0  0  0  0  0  0  0
  -32.2525   64.0876   65.5434 C   0  0  0  0  0  0  0  0  0  0  0  0
  -33.7252   63.8363   65.7967 C   0  0  0  0  0  0  0  0  0  0  0  0
  -44.1996   59.1107   63.8833 O   0  0  0  0  0  0  0  0  0  0  0  0
  -44.5263   57.9200   64.6056 C   0  0  0  0  0  0  0  0  0  0  0  0
  -43.6505   58.8834   63.1165 H   0  0  0  0  0  0  0  0  0  0  0  0
  -45.3755   58.2333   65.7992 C   0  0  0  0  0  0  0  0  0  0  0  0
  -46.6373   58.6121   65.7534 C   0  0  0  0  0  0  0  0  0  0  0  0
  -47.4626   58.9031   66.9637 C   0  0  0  0  0  0  0  0  0  0  0  0
  -48.7618   59.6173   66.5850 C   0  0  0  0  0  0  0  0  0  0  0  0
  -49.7985   58.7189   65.9302 C   0  0  0  0  0  0  0  0  0  0  0  0
  -50.2026   59.1486   64.5303 C   0  0  0  0  0  0  0  0  0  0  0  0
  -49.1847   58.7938   63.4562 C   0  0  0  0  0  0  0  0  0  0  0  0
  -49.6278   59.1632   62.0488 C   0  0  0  0  0  0  0  0  0  0  0  0
  -50.7542   58.2961   61.5146 C   0  0  0  0  0  0  0  0  0  0  0  0
  -50.2866   57.1318   60.6615 C   0  0  0  0  0  0  0  0  0  0  0  0
  -48.7891   57.1177   60.4068 C   0  0  0  0  0  0  0  0  0  0  0  0
  -48.3470   55.9604   59.5306 C   0  0  0  0  0  0  0  0  0  0  0  0
  -47.2371   56.3020   58.5549 C   0  0  0  0  0  0  0  0  0  0  0  0
  -47.7597   56.9076   57.2670 C   0  0  0  0  0  0  0  0  0  0  0  0
  -47.0575   58.2005   56.9069 C   0  0  0  0  0  0  0  0  0  0  0  0
  -42.3927   58.0498   65.9607 C   0  0  0  0  0  0  0  0  0  0  0  0
  -41.0613   58.1320   65.4398 O   0  0  0  0  0  0  0  0  0  0  0  0
  -38.4936   59.1773   65.8340 O   0  0  0  0  0  0  0  0  0  0  0  0
  -39.4440   60.0887   61.7366 O   0  0  0  0  0  0  0  0  0  0  0  0
  -41.4534   59.6542   63.7494 O   0  0  0  0  0  0  0  0  0  0  0  0
  -40.7191   59.3878   64.9298 C   0  0  0  0  0  0  0  0  0  0  0  0
  -39.2253   59.3851   64.6325 C   0  0  0  0  0  0  0  0  0  0  0  0
  -38.8225   60.7073   63.9919 C   0  0  0  0  0  0  0  0  0  0  0  0
  -39.6958   61.0185   62.7854 C   0  0  0  0  0  0  0  0  0  0  0  0
  -41.1674   60.9439   63.1848 C   0  0  0  0  0  0  0  0  0  0  0  0
  -38.7586   58.3334   66.2321 H   0  0  0  0  0  0  0  0  0  0  0  0
  -38.5093   60.1346   61.4814 H   0  0  0  0  0  0  0  0  0  0  0  0
  -42.9050   62.3004   62.1701 O   0  0  0  0  0  0  0  0  0  0  0  0
  -42.1101   61.1299   62.0189 C   0  0  0  0  0  0  0  0  0  0  0  0
  -43.4972   62.3899   61.4071 H   0  0  0  0  0  0  0  0  0  0  0  0
  -37.4420   60.5007   63.5547 O   0  0  0  0  0  0  0  0  0  0  0  0
  -36.3984   62.5539   62.8461 O   0  0  0  0  0  0  0  0  0  0  0  0
  -35.1948   60.9733   64.3852 O   0  0  0  0  0  0  0  0  0  0  0  0
  -37.0532   62.2587   65.1136 O   0  0  0  0  0  0  0  0  0  0  0  0
  -36.3613   61.6117   63.9026 S   0  0  0  0  0  0  0  0  0  0  0  0
  -35.9686   62.1776   62.0621 H   0  0  0  0  0  0  0  0  0  0  0  0
  -37.8615   62.7087   64.8219 H   0  0  0  0  0  0  0  0  0  0  0  0
  2  1  1  0  0  0
  2  4  1  0  0  0
  2  5  1  0  0  0
 47 48  1  0  0  0
 47  1  1  0  0  0
 48 52  1  0  0  0
  1 30  1  0  0  0
 29 30  1  0  0  0
 29 31  1  0  0  0
 30 32  1  0  0  0
  3  4  2  0  0  0
 32 33  2  0  0  0
 49 53  1  0  0  0
 49 57  1  0  0  0
 33 34  1  0  0  0
 62 54  1  0  0  0
 62 66  1  0  0  0
 34 35  1  0  0  0
 50 55  1  0  0  0
 50 58  1  0  0  0
 35 36  1  0  0  0
 51 52  1  0  0  0
 51 56  1  0  0  0
 36 37  1  0  0  0
 59 60  1  0  0  0
 59 61  1  0  0  0
 37 38  1  0  0  0
 63 66  1  0  0  0
 63 67  1  0  0  0
 38 39  1  0  0  0
 64 66  1  0  0  0
 39 40  1  0  0  0
 65 66  1  0  0  0
 65 68  1  0  0  0
 40 41  1  0  0  0
 41 42  1  0  0  0
 42 43  1  0  0  0
 43 44  1  0  0  0
 44 45  1  0  0  0
 45 46  1  0  0  0
  4  6  1  0  0  0
  6  7  1  0  0  0
  7  8  1  0  0  0
  8  9  1  0  0  0
  9 10  1  0  0  0
 10 11  1  0  0  0
 11 12  1  0  0  0
 12 13  1  0  0  0
 13 14  1  0  0  0
 14 15  1  0  0  0
 15 16  1  0  0  0
 16 17  1  0  0  0
 17 18  1  0  0  0
 18 19  1  0  0  0
 19 20  2  0  0  0
 20 21  1  0  0  0
 21 22  1  0  0  0
 22 23  1  0  0  0
 23 24  1  0  0  0
 24 25  1  0  0  0
 25 26  1  0  0  0
 26 27  1  0  0  0
 27 28  1  0  0  0
 52 53  1  0  0  0
 53 54  1  0  0  0
 54 55  1  0  0  0
 55 56  1  0  0  0
 56 60  1  0  0  0
M  CHG 1  64  -1
M  END
> <minimizedAffinity>
-8.55050

> <CNNscore>
0.0988362506

> <CNNaffinity>
6.6924080849

> <CNN_VS>
0.6614525318

> <CNNaffinity_variance>
1.1792672873

$$$$
/media/chris/experiments/cd1a-new-docking/inputs/ligands/7ryn_ligand.pdb


 68 68  0  0  0  0  0  0  0  0999 V2000
  -35.3313   59.5689   63.6743 C   0  0  0  0  0  0  0  0  0  0  0  0
  -36.4899   59.5388   64.5620 N   0  0  0  0  0  0  0  0  0  0  0  0
  -37.0517   61.7013   64.2876 O   0  0  0  0  0  0  0  0  0  0  0  0
  -37.2588   60.6049   64.7994 C   0  0  0  0  0  0  0  0  0  0  0  0
  -36.7158   58.6905   65.0078 H   0  0  0  0  0  0  0  0  0  0  0  0
  -38.4162   60.3783   65.7398 C   0  0  0  0  0  0  0  0  0  0  0  0
  -38.8639   58.9227   65.7760 C   0  0  0  0  0  0  0  0  0  0  0  0
  -40.3764   58.7751   65.8198 C   0  0  0  0  0  0  0  0  0  0  0  0
  -41.0945   59.9691   66.4265 C   0  0  0  0  0  0  0  0  0  0  0  0
  -42.4420   59.6276   67.0446 C   0  0  0  0  0  0  0  0  0  0  0  0
  -43.0725   58.3553   66.4929 C   0  0  0  0  0  0  0  0  0  0  0  0
  -44.5598   58.4848   66.1904 C   0  0  0  0  0  0  0  0  0  0  0  0
  -45.4228   58.8456   67.3968 C   0  0  0  0  0  0  0  0  0  0  0  0
  -46.9246   58.8186   67.1177 C   0  0  0  0  0  0  0  0  0  0  0  0
  -47.3801   57.6922   66.1903 C   0  0  0  0  0  0  0  0  0  0  0  0
  -47.9625   58.1904   64.8674 C   0  0  0  0  0  0  0  0  0  0  0  0
  -47.5596   59.6126   64.4777 C   0  0  0  0  0  0  0  0  0  0  0  0
  -48.7248   60.5356   64.1112 C   0  0  0  0  0  0  0  0  0  0  0  0
  -50.0121   60.1421   64.7764 C   0  0  0  0  0  0  0  0  0  0  0  0
  -51.1097   59.7309   64.1664 C   0  0  0  0  0  0  0  0  0  0  0  0
  -51.2894   59.5718   62.6871 C   0  0  0  0  0  0  0  0  0  0  0  0
  -50.9847   58.1608   62.1793 C   0  0  0  0  0  0  0  0  0  0  0  0
  -49.6687   58.0656   61.4191 C   0  0  0  0  0  0  0  0  0  0  0  0
  -49.2965   56.6392   61.0304 C   0  0  0  0  0  0  0  0  0  0  0  0
  -48.7371   56.4948   59.6196 C   0  0  0  0  0  0  0  0  0  0  0  0
  -48.7986   57.7770   58.8016 C   0  0  0  0  0  0  0  0  0  0  0  0
  -47.5833   58.0106   57.9184 C   0  0  0  0  0  0  0  0  0  0  0  0
  -47.2082   56.7931   57.0980 C   0  0  0  0  0  0  0  0  0  0  0  0
  -34.1830   58.3263   61.9504 O   0  0  0  0  0  0  0  0  0  0  0  0
  -35.2404   58.2385   62.9097 C   0  0  0  0  0  0  0  0  0  0  0  0
  -33.3536   58.5470   62.4026 H   0  0  0  0  0  0  0  0  0  0  0  0
  -36.5395   57.8986   62.2457 C   0  0  0  0  0  0  0  0  0  0  0  0
  -37.4679   57.1128   62.7541 C   0  0  0  0  0  0  0  0  0  0  0  0
  -38.7609   56.8047   62.0730 C   0  0  0  0  0  0  0  0  0  0  0  0
  -39.9020   56.6879   63.0857 C   0  0  0  0  0  0  0  0  0  0  0  0
  -41.2223   56.2314   62.4866 C   0  0  0  0  0  0  0  0  0  0  0  0
  -42.0567   57.3506   61.8875 C   0  0  0  0  0  0  0  0  0  0  0  0
  -41.9384   57.4689   60.3750 C   0  0  0  0  0  0  0  0  0  0  0  0
  -41.2591   58.7492   59.9137 C   0  0  0  0  0  0  0  0  0  0  0  0
  -39.7435   58.7014   59.9959 C   0  0  0  0  0  0  0  0  0  0  0  0
  -39.0903   60.0608   60.1616 C   0  0  0  0  0  0  0  0  0  0  0  0
  -38.9533   60.5056   61.6077 C   0  0  0  0  0  0  0  0  0  0  0  0
  -40.1265   60.0830   62.4723 C   0  0  0  0  0  0  0  0  0  0  0  0
  -40.9930   61.2299   62.9561 C   0  0  0  0  0  0  0  0  0  0  0  0
  -42.4472   61.0690   62.5588 C   0  0  0  0  0  0  0  0  0  0  0  0
  -43.0233   62.3275   61.9434 C   0  0  0  0  0  0  0  0  0  0  0  0
  -34.0745   59.8546   64.4700 C   0  0  0  0  0  0  0  0  0  0  0  0
  -33.2257   60.6987   63.6840 O   0  0  0  0  0  0  0  0  0  0  0  0
  -32.6586   62.7616   61.8774 O   0  0  0  0  0  0  0  0  0  0  0  0
  -35.8622   64.2767   64.3196 O   0  0  0  0  0  0  0  0  0  0  0  0
  -34.0555   62.2212   65.2076 O   0  0  0  0  0  0  0  0  0  0  0  0
  -33.1766   62.0275   64.1152 C   0  0  0  0  0  0  0  0  0  0  0  0
  -33.5820   62.9176   62.9477 C   0  0  0  0  0  0  0  0  0  0  0  0
  -33.6273   64.3725   63.3971 C   0  0  0  0  0  0  0  0  0  0  0  0
  -34.4978   64.5354   64.6344 C   0  0  0  0  0  0  0  0  0  0  0  0
  -34.0358   63.5641   65.7178 C   0  0  0  0  0  0  0  0  0  0  0  0
  -32.6387   61.8322   61.6004 H   0  0  0  0  0  0  0  0  0  0  0  0
  -36.1577   64.8930   63.6313 H   0  0  0  0  0  0  0  0  0  0  0  0
  -34.1785   63.2784   68.1233 O   0  0  0  0  0  0  0  0  0  0  0  0
  -34.9171   63.5789   66.9448 C   0  0  0  0  0  0  0  0  0  0  0  0
  -34.7722   63.2962   68.8903 H   0  0  0  0  0  0  0  0  0  0  0  0
  -34.2355   65.0871   62.2750 O   0  0  0  0  0  0  0  0  0  0  0  0
  -33.2177   67.0304   63.2725 O   0  0  0  0  0  0  0  0  0  0  0  0
  -35.3139   67.2461   61.9030 O   0  0  0  0  0  0  0  0  0  0  0  0
  -33.2149   66.7508   60.9104 O   0  0  0  0  0  0  0  0  0  0  0  0
  -34.0579   66.6635   62.1932 S   0  0  0  0  0  0  0  0  0  0  0  0
  -33.7190   66.9863   64.1018 H   0  0  0  0  0  0  0  0  0  0  0  0
  -32.3418   66.3594   61.0700 H   0  0  0  0  0  0  0  0  0  0  0  0
  2  1  1  0  0  0
  2  4  1  0  0  0
  2  5  1  0  0  0
 47 48  1  0  0  0
 47  1  1  0  0  0
 48 52  1  0  0  0
  1 30  1  0  0  0
 29 30  1  0  0  0
 29 31  1  0  0  0
 30 32  1  0  0  0
  3  4  2  0  0  0
 32 33  2  0  0  0
 49 53  1  0  0  0
 49 57  1  0  0  0
 33 34  1  0  0  0
 62 54  1  0  0  0
 62 66  1  0  0  0
 34 35  1  0  0  0
 50 55  1  0  0  0
 50 58  1  0  0  0
 35 36  1  0  0  0
 51 52  1  0  0  0
 51 56  1  0  0  0
 36 37  1  0  0  0
 59 60  1  0  0  0
 59 61  1  0  0  0
 37 38  1  0  0  0
 63 66  1  0  0  0
 63 67  1  0  0  0
 38 39  1  0  0  0
 64 66  1  0  0  0
 39 40  1  0  0  0
 65 66  1  0  0  0
 65 68  1  0  0  0
 40 41  1  0  0  0
 41 42  1  0  0  0
 42 43  1  0  0  0
 43 44  1  0  0  0
 44 45  1  0  0  0
 45 46  1  0  0  0
  4  6  1  0  0  0
  6  7  1  0  0  0
  7  8  1  0  0  0
  8  9  1  0  0  0
  9 10  1  0  0  0
 10 11  1  0  0  0
 11 12  1  0  0  0
 12 13  1  0  0  0
 13 14  1  0  0  0
 14 15  1  0  0  0
 15 16  1  0  0  0
 16 17  1  0  0  0
 17 18  1  0  0  0
 18 19  1  0  0  0
 19 20  2  0  0  0
 20 21  1  0  0  0
 21 22  1  0  0  0
 22 23  1  0  0  0
 23 24  1  0  0  0
 24 25  1  0  0  0
 25 26  1  0  0  0
 26 27  1  0  0  0
 27 28  1  0  0  0
 52 53  1  0  0  0
 53 54  1  0  0  0
 54 55  1  0  0  0
 55 56  1  0  0  0
 56 60  1  0  0  0
M  CHG 1  64  -1
M  END
> <minimizedAffinity>
-9.45006

> <CNNscore>
0.0946068093

> <CNNaffinity>
7.3091764450

> <CNN_VS>
0.6914978623

> <CNNaffinity_variance>
1.9419126511

$$$$
