/media/chris/experiments/cd1a-new-docking/inputs/ligands/7ryn_ligand.pdb


 68 68  0  0  0  0  0  0  0  0999 V2000
  -38.8738   59.6314   64.2402 C   0  0  0  0  0  0  0  0  0  0  0  0
  -40.0863   60.2303   63.6902 N   0  0  0  0  0  0  0  0  0  0  0  0
  -40.8359   61.0731   65.6384 O   0  0  0  0  0  0  0  0  0  0  0  0
  -40.9715   60.9033   64.4303 C   0  0  0  0  0  0  0  0  0  0  0  0
  -40.2601   60.1333   62.7261 H   0  0  0  0  0  0  0  0  0  0  0  0
  -42.1597   61.4563   63.6835 C   0  0  0  0  0  0  0  0  0  0  0  0
  -42.6226   60.5386   62.5592 C   0  0  0  0  0  0  0  0  0  0  0  0
  -42.9072   59.1236   63.0368 C   0  0  0  0  0  0  0  0  0  0  0  0
  -44.0337   59.0312   64.0526 C   0  0  0  0  0  0  0  0  0  0  0  0
  -44.0924   57.6999   64.7867 C   0  0  0  0  0  0  0  0  0  0  0  0
  -44.1917   57.8311   66.3012 C   0  0  0  0  0  0  0  0  0  0  0  0
  -45.5004   58.4440   66.7828 C   0  0  0  0  0  0  0  0  0  0  0  0
  -46.6618   57.4586   66.8853 C   0  0  0  0  0  0  0  0  0  0  0  0
  -47.6820   57.5799   65.7545 C   0  0  0  0  0  0  0  0  0  0  0  0
  -47.4648   58.7743   64.8258 C   0  0  0  0  0  0  0  0  0  0  0  0
  -48.3745   59.9625   65.1390 C   0  0  0  0  0  0  0  0  0  0  0  0
  -49.4942   59.6745   66.1390 C   0  0  0  0  0  0  0  0  0  0  0  0
  -50.7990   59.1685   65.5181 C   0  0  0  0  0  0  0  0  0  0  0  0
  -51.3174   60.0695   64.4348 C   0  0  0  0  0  0  0  0  0  0  0  0
  -51.5010   59.7389   63.1688 C   0  0  0  0  0  0  0  0  0  0  0  0
  -51.2314   58.3962   62.5600 C   0  0  0  0  0  0  0  0  0  0  0  0
  -49.7927   58.2219   62.0689 C   0  0  0  0  0  0  0  0  0  0  0  0
  -49.5222   58.9144   60.7398 C   0  0  0  0  0  0  0  0  0  0  0  0
  -49.4951   57.9572   59.5534 C   0  0  0  0  0  0  0  0  0  0  0  0
  -48.7552   56.6501   59.8137 C   0  0  0  0  0  0  0  0  0  0  0  0
  -47.6452   56.3640   58.8121 C   0  0  0  0  0  0  0  0  0  0  0  0
  -47.8954   56.9363   57.4258 C   0  0  0  0  0  0  0  0  0  0  0  0
  -46.8627   57.9676   57.0187 C   0  0  0  0  0  0  0  0  0  0  0  0
  -38.0846   57.9699   65.8059 O   0  0  0  0  0  0  0  0  0  0  0  0
  -39.2489   58.6952   65.4003 C   0  0  0  0  0  0  0  0  0  0  0  0
  -37.3836   58.5942   66.0503 H   0  0  0  0  0  0  0  0  0  0  0  0
  -40.3548   57.7612   65.0147 C   0  0  0  0  0  0  0  0  0  0  0  0
  -40.2552   56.7959   64.1224 C   0  0  0  0  0  0  0  0  0  0  0  0
  -41.3734   55.8705   63.7703 C   0  0  0  0  0  0  0  0  0  0  0  0
  -41.5503   55.7732   62.2537 C   0  0  0  0  0  0  0  0  0  0  0  0
  -40.7805   56.8224   61.4680 C   0  0  0  0  0  0  0  0  0  0  0  0
  -41.4633   57.2687   60.1863 C   0  0  0  0  0  0  0  0  0  0  0  0
  -40.7588   58.4162   59.4773 C   0  0  0  0  0  0  0  0  0  0  0  0
  -40.1465   59.4360   60.4251 C   0  0  0  0  0  0  0  0  0  0  0  0
  -38.6407   59.5745   60.2850 C   0  0  0  0  0  0  0  0  0  0  0  0
  -37.8734   58.2964   60.5676 C   0  0  0  0  0  0  0  0  0  0  0  0
  -36.6853   58.4841   61.4954 C   0  0  0  0  0  0  0  0  0  0  0  0
  -36.6100   57.4298   62.5841 C   0  0  0  0  0  0  0  0  0  0  0  0
  -35.2445   57.2929   63.2299 C   0  0  0  0  0  0  0  0  0  0  0  0
  -34.1118   57.5790   62.2636 C   0  0  0  0  0  0  0  0  0  0  0  0
  -32.7973   57.8373   62.9705 C   0  0  0  0  0  0  0  0  0  0  0  0
  -37.9093   60.7159   64.6738 C   0  0  0  0  0  0  0  0  0  0  0  0
  -36.5946   60.1514   64.7349 O   0  0  0  0  0  0  0  0  0  0  0  0
  -34.5913   60.8345   62.9016 O   0  0  0  0  0  0  0  0  0  0  0  0
  -35.7121   64.5535   64.7549 O   0  0  0  0  0  0  0  0  0  0  0  0
  -36.0864   61.9983   66.0230 O   0  0  0  0  0  0  0  0  0  0  0  0
  -35.5928   61.0620   65.0834 C   0  0  0  0  0  0  0  0  0  0  0  0
  -35.1416   61.7749   63.8153 C   0  0  0  0  0  0  0  0  0  0  0  0
  -34.1095   62.8411   64.1601 C   0  0  0  0  0  0  0  0  0  0  0  0
  -34.6275   63.7725   65.2461 C   0  0  0  0  0  0  0  0  0  0  0  0
  -35.0976   62.9515   66.4443 C   0  0  0  0  0  0  0  0  0  0  0  0
  -35.2571   60.1616   62.6900 H   0  0  0  0  0  0  0  0  0  0  0  0
  -35.4155   65.0761   63.9934 H   0  0  0  0  0  0  0  0  0  0  0  0
  -36.4035   62.9844   68.4894 O   0  0  0  0  0  0  0  0  0  0  0  0
  -35.7328   63.7909   67.5279 C   0  0  0  0  0  0  0  0  0  0  0  0
  -36.7990   63.5525   69.1688 H   0  0  0  0  0  0  0  0  0  0  0  0
  -33.9262   63.5930   62.9189 O   0  0  0  0  0  0  0  0  0  0  0  0
  -31.5854   63.8828   63.4123 O   0  0  0  0  0  0  0  0  0  0  0  0
  -32.5116   64.5493   61.1732 O   0  0  0  0  0  0  0  0  0  0  0  0
  -32.2850   62.2726   61.8076 O   0  0  0  0  0  0  0  0  0  0  0  0
  -32.4624   63.7136   62.3136 S   0  0  0  0  0  0  0  0  0  0  0  0
  -31.6710   64.7849   63.7585 H   0  0  0  0  0  0  0  0  0  0  0  0
  -32.2466   61.6667   62.5640 H   0  0  0  0  0  0  0  0  0  0  0  0
  2  1  1  0  0  0
  2  4  1  0  0  0
  2  5  1  0  0  0
 47 48  1  0  0  0
 47  1  1  0  0  0
 48 52  1  0  0  0
  1 30  1  0  0  0
 29 30  1  0  0  0
 29 31  1  0  0  0
 30 32  1  0  0  0
  3  4  2  0  0  0
 32 33  2  0  0  0
 49 53  1  0  0  0
 49 57  1  0  0  0
 33 34  1  0  0  0
 62 54  1  0  0  0
 62 66  1  0  0  0
 34 35  1  0  0  0
 50 55  1  0  0  0
 50 58  1  0  0  0
 35 36  1  0  0  0
 51 52  1  0  0  0
 51 56  1  0  0  0
 36 37  1  0  0  0
 59 60  1  0  0  0
 59 61  1  0  0  0
 37 38  1  0  0  0
 63 66  1  0  0  0
 63 67  1  0  0  0
 38 39  1  0  0  0
 64 66  1  0  0  0
 39 40  1  0  0  0
 65 66  1  0  0  0
 65 68  1  0  0  0
 40 41  1  0  0  0
 41 42  1  0  0  0
 42 43  1  0  0  0
 43 44  1  0  0  0
 44 45  1  0  0  0
 45 46  1  0  0  0
  4  6  1  0  0  0
  6  7  1  0  0  0
  7  8  1  0  0  0
  8  9  1  0  0  0
  9 10  1  0  0  0
 10 11  1  0  0  0
 11 12  1  0  0  0
 12 13  1  0  0  0
 13 14  1  0  0  0
 14 15  1  0  0  0
 15 16  1  0  0  0
 16 17  1  0  0  0
 17 18  1  0  0  0
 18 19  1  0  0  0
 19 20  2  0  0  0
 20 21  1  0  0  0
 21 22  1  0  0  0
 22 23  1  0  0  0
 23 24  1  0  0  0
 24 25  1  0  0  0
 25 26  1  0  0  0
 26 27  1  0  0  0
 27 28  1  0  0  0
 52 53  1  0  0  0
 53 54  1  0  0  0
 54 55  1  0  0  0
 55 56  1  0  0  0
 56 60  1  0  0  0
M  CHG 1  64  -1
M  END
> <minimizedAffinity>
-9.50754

> <CNNscore>
0.1975982487

> <CNNaffinity>
7.6856508255

> <CNN_VS>
1.5186711550

> <CNNaffinity_variance>
1.6434749365

$$$$
/media/chris/experiments/cd1a-new-docking/inputs/ligands/7ryn_ligand.pdb


 68 68  0  0  0  0  0  0  0  0999 V2000
  -40.1452   60.0876   66.2565 C   0  0  0  0  0  0  0  0  0  0  0  0
  -40.9884   58.9005   66.1512 N   0  0  0  0  0  0  0  0  0  0  0  0
  -42.4684   59.5237   67.7288 O   0  0  0  0  0  0  0  0  0  0  0  0
  -42.0823   58.7109   66.8939 C   0  0  0  0  0  0  0  0  0  0  0  0
  -40.7384   58.2053   65.5006 H   0  0  0  0  0  0  0  0  0  0  0  0
  -42.8298   57.4259   66.6381 C   0  0  0  0  0  0  0  0  0  0  0  0
  -42.5937   56.8815   65.2350 C   0  0  0  0  0  0  0  0  0  0  0  0
  -43.7770   57.1135   64.3091 C   0  0  0  0  0  0  0  0  0  0  0  0
  -44.3676   58.5106   64.4026 C   0  0  0  0  0  0  0  0  0  0  0  0
  -45.7631   58.5494   65.0074 C   0  0  0  0  0  0  0  0  0  0  0  0
  -45.7773   58.6659   66.5262 C   0  0  0  0  0  0  0  0  0  0  0  0
  -46.8279   57.7942   67.2020 C   0  0  0  0  0  0  0  0  0  0  0  0
  -47.5121   56.7929   66.2750 C   0  0  0  0  0  0  0  0  0  0  0  0
  -48.5751   57.4106   65.3679 C   0  0  0  0  0  0  0  0  0  0  0  0
  -49.7480   58.0538   66.1074 C   0  0  0  0  0  0  0  0  0  0  0  0
  -49.7280   59.5821   66.0686 C   0  0  0  0  0  0  0  0  0  0  0  0
  -48.8360   60.1904   64.9865 C   0  0  0  0  0  0  0  0  0  0  0  0
  -49.5663   60.6042   63.7061 C   0  0  0  0  0  0  0  0  0  0  0  0
  -50.9257   59.9790   63.5819 C   0  0  0  0  0  0  0  0  0  0  0  0
  -51.2282   58.9093   62.8677 C   0  0  0  0  0  0  0  0  0  0  0  0
  -50.2741   58.1029   62.0399 C   0  0  0  0  0  0  0  0  0  0  0  0
  -49.9264   58.7501   60.6977 C   0  0  0  0  0  0  0  0  0  0  0  0
  -49.8198   57.7481   59.5557 C   0  0  0  0  0  0  0  0  0  0  0  0
  -48.9974   56.5138   59.9088 C   0  0  0  0  0  0  0  0  0  0  0  0
  -47.6137   56.4734   59.2703 C   0  0  0  0  0  0  0  0  0  0  0  0
  -47.6038   55.8878   57.8653 C   0  0  0  0  0  0  0  0  0  0  0  0
  -47.0701   56.8333   56.8009 C   0  0  0  0  0  0  0  0  0  0  0  0
  -47.0046   58.2725   57.2702 C   0  0  0  0  0  0  0  0  0  0  0  0
  -41.5309   62.0660   66.2353 O   0  0  0  0  0  0  0  0  0  0  0  0
  -40.7426   61.2146   65.3987 C   0  0  0  0  0  0  0  0  0  0  0  0
  -40.9818   62.4072   66.9584 H   0  0  0  0  0  0  0  0  0  0  0  0
  -41.5598   60.6682   64.2684 C   0  0  0  0  0  0  0  0  0  0  0  0
  -41.4078   60.9890   62.9987 C   0  0  0  0  0  0  0  0  0  0  0  0
  -42.2299   60.4147   61.8919 C   0  0  0  0  0  0  0  0  0  0  0  0
  -41.3656   60.1058   60.6677 C   0  0  0  0  0  0  0  0  0  0  0  0
  -41.5516   58.7034   60.1116 C   0  0  0  0  0  0  0  0  0  0  0  0
  -41.9366   57.6649   61.1515 C   0  0  0  0  0  0  0  0  0  0  0  0
  -40.7783   56.7924   61.6128 C   0  0  0  0  0  0  0  0  0  0  0  0
  -40.0303   57.3539   62.8121 C   0  0  0  0  0  0  0  0  0  0  0  0
  -38.7913   58.1504   62.4424 C   0  0  0  0  0  0  0  0  0  0  0  0
  -37.5389   57.3081   62.2861 C   0  0  0  0  0  0  0  0  0  0  0  0
  -36.4785   57.5807   63.3391 C   0  0  0  0  0  0  0  0  0  0  0  0
  -35.0893   57.1483   62.9082 C   0  0  0  0  0  0  0  0  0  0  0  0
  -33.9716   58.0430   63.4088 C   0  0  0  0  0  0  0  0  0  0  0  0
  -32.9837   58.4070   62.3179 C   0  0  0  0  0  0  0  0  0  0  0  0
  -32.0411   59.5168   62.7351 C   0  0  0  0  0  0  0  0  0  0  0  0
  -38.7252   59.7540   65.8484 C   0  0  0  0  0  0  0  0  0  0  0  0
  -38.3108   60.6934   64.8501 O   0  0  0  0  0  0  0  0  0  0  0  0
  -36.4721   60.8405   62.7433 O   0  0  0  0  0  0  0  0  0  0  0  0
  -36.0974   64.5993   64.8055 O   0  0  0  0  0  0  0  0  0  0  0  0
  -37.0734   62.2090   66.0748 O   0  0  0  0  0  0  0  0  0  0  0  0
  -37.0354   61.2273   65.0559 C   0  0  0  0  0  0  0  0  0  0  0  0
  -36.5656   61.8451   63.7453 C   0  0  0  0  0  0  0  0  0  0  0  0
  -35.2134   62.5177   63.9455 C   0  0  0  0  0  0  0  0  0  0  0  0
  -35.2553   63.4929   65.1126 C   0  0  0  0  0  0  0  0  0  0  0  0
  -35.7865   62.7828   66.3553 C   0  0  0  0  0  0  0  0  0  0  0  0
  -37.3382   60.4200   62.6252 H   0  0  0  0  0  0  0  0  0  0  0  0
  -35.7616   65.0521   64.0162 H   0  0  0  0  0  0  0  0  0  0  0  0
  -36.4063   63.0007   68.6914 O   0  0  0  0  0  0  0  0  0  0  0  0
  -35.9677   63.7070   67.5366 C   0  0  0  0  0  0  0  0  0  0  0  0
  -36.5125   63.6213   69.4292 H   0  0  0  0  0  0  0  0  0  0  0  0
  -34.9792   63.2532   62.7031 O   0  0  0  0  0  0  0  0  0  0  0  0
  -32.5919   63.0199   62.9336 O   0  0  0  0  0  0  0  0  0  0  0  0
  -33.6555   65.2964   62.8932 O   0  0  0  0  0  0  0  0  0  0  0  0
  -33.5233   63.9411   60.9484 O   0  0  0  0  0  0  0  0  0  0  0  0
  -33.5658   63.9449   62.4853 S   0  0  0  0  0  0  0  0  0  0  0  0
  -32.5908   62.9960   63.9034 H   0  0  0  0  0  0  0  0  0  0  0  0
  -33.4613   63.0274   60.6288 H   0  0  0  0  0  0  0  0  0  0  0  0
  2  1  1  0  0  0
  2  4  1  0  0  0
  2  5  1  0  0  0
 47 48  1  0  0  0
 47  1  1  0  0  0
 48 52  1  0  0  0
  1 30  1  0  0  0
 29 30  1  0  0  0
 29 31  1  0  0  0
 30 32  1  0  0  0
  3  4  2  0  0  0
 32 33  2  0  0  0
 49 53  1  0  0  0
 49 57  1  0  0  0
 33 34  1  0  0  0
 62 54  1  0  0  0
 62 66  1  0  0  0
 34 35  1  0  0  0
 50 55  1  0  0  0
 50 58  1  0  0  0
 35 36  1  0  0  0
 51 52  1  0  0  0
 51 56  1  0  0  0
 36 37  1  0  0  0
 59 60  1  0  0  0
 59 61  1  0  0  0
 37 38  1  0  0  0
 63 66  1  0  0  0
 63 67  1  0  0  0
 38 39  1  0  0  0
 64 66  1  0  0  0
 39 40  1  0  0  0
 65 66  1  0  0  0
 65 68  1  0  0  0
 40 41  1  0  0  0
 41 42  1  0  0  0
 42 43  1  0  0  0
 43 44  1  0  0  0
 44 45  1  0  0  0
 45 46  1  0  0  0
  4  6  1  0  0  0
  6  7  1  0  0  0
  7  8  1  0  0  0
  8  9  1  0  0  0
  9 10  1  0  0  0
 10 11  1  0  0  0
 11 12  1  0  0  0
 12 13  1  0  0  0
 13 14  1  0  0  0
 14 15  1  0  0  0
 15 16  1  0  0  0
 16 17  1  0  0  0
 17 18  1  0  0  0
 18 19  1  0  0  0
 19 20  2  0  0  0
 20 21  1  0  0  0
 21 22  1  0  0  0
 22 23  1  0  0  0
 23 24  1  0  0  0
 24 25  1  0  0  0
 25 26  1  0  0  0
 26 27  1  0  0  0
 27 28  1  0  0  0
 52 53  1  0  0  0
 53 54  1  0  0  0
 54 55  1  0  0  0
 55 56  1  0  0  0
 56 60  1  0  0  0
M  CHG 1  64  -1
M  END
> <minimizedAffinity>
-9.83149

> <CNNscore>
0.1461620033

> <CNNaffinity>
7.5102324486

> <CNN_VS>
1.0977106094

> <CNNaffinity_variance>
2.4741117954

$$$$
/media/chris/experiments/cd1a-new-docking/inputs/ligands/7ryn_ligand.pdb


 68 68  0  0  0  0  0  0  0  0999 V2000
  -38.3475   59.7859   64.5474 C   0  0  0  0  0  0  0  0  0  0  0  0
  -39.5669   60.3805   64.0082 N   0  0  0  0  0  0  0  0  0  0  0  0
  -40.3967   61.0517   65.9903 O   0  0  0  0  0  0  0  0  0  0  0  0
  -40.4950   60.9661   64.7697 C   0  0  0  0  0  0  0  0  0  0  0  0
  -39.7123   60.3483   63.0351 H   0  0  0  0  0  0  0  0  0  0  0  0
  -41.6834   61.5303   64.0317 C   0  0  0  0  0  0  0  0  0  0  0  0
  -41.8218   60.9622   62.6250 C   0  0  0  0  0  0  0  0  0  0  0  0
  -42.6482   59.6866   62.5864 C   0  0  0  0  0  0  0  0  0  0  0  0
  -43.5952   59.5303   63.7646 C   0  0  0  0  0  0  0  0  0  0  0  0
  -44.2579   58.1632   63.8440 C   0  0  0  0  0  0  0  0  0  0  0  0
  -44.0383   57.4439   65.1688 C   0  0  0  0  0  0  0  0  0  0  0  0
  -43.5009   58.3412   66.2763 C   0  0  0  0  0  0  0  0  0  0  0  0
  -44.5468   58.7851   67.2958 C   0  0  0  0  0  0  0  0  0  0  0  0
  -45.9733   58.8174   66.7497 C   0  0  0  0  0  0  0  0  0  0  0  0
  -46.9147   57.7824   67.3652 C   0  0  0  0  0  0  0  0  0  0  0  0
  -47.6602   56.9437   66.3268 C   0  0  0  0  0  0  0  0  0  0  0  0
  -48.1492   57.7156   65.1014 C   0  0  0  0  0  0  0  0  0  0  0  0
  -49.1128   58.8657   65.4058 C   0  0  0  0  0  0  0  0  0  0  0  0
  -49.0456   59.9678   64.3884 C   0  0  0  0  0  0  0  0  0  0  0  0
  -49.9290   60.2008   63.4338 C   0  0  0  0  0  0  0  0  0  0  0  0
  -51.1778   59.4133   63.1765 C   0  0  0  0  0  0  0  0  0  0  0  0
  -50.9738   58.2305   62.2274 C   0  0  0  0  0  0  0  0  0  0  0  0
  -49.9336   58.4975   61.1476 C   0  0  0  0  0  0  0  0  0  0  0  0
  -49.2868   57.2287   60.6037 C   0  0  0  0  0  0  0  0  0  0  0  0
  -48.7140   57.3649   59.1976 C   0  0  0  0  0  0  0  0  0  0  0  0
  -47.8636   56.1791   58.7646 C   0  0  0  0  0  0  0  0  0  0  0  0
  -47.2109   56.3461   57.4015 C   0  0  0  0  0  0  0  0  0  0  0  0
  -47.3124   57.7610   56.8688 C   0  0  0  0  0  0  0  0  0  0  0  0
  -37.5908   57.6616   65.4133 O   0  0  0  0  0  0  0  0  0  0  0  0
  -38.7112   58.5507   65.3870 C   0  0  0  0  0  0  0  0  0  0  0  0
  -36.8160   58.1282   65.7637 H   0  0  0  0  0  0  0  0  0  0  0  0
  -39.9287   57.8626   64.8502 C   0  0  0  0  0  0  0  0  0  0  0  0
  -39.9371   57.0147   63.8407 C   0  0  0  0  0  0  0  0  0  0  0  0
  -41.1671   56.3328   63.3379 C   0  0  0  0  0  0  0  0  0  0  0  0
  -41.3855   56.6182   61.8507 C   0  0  0  0  0  0  0  0  0  0  0  0
  -40.1769   57.2130   61.1464 C   0  0  0  0  0  0  0  0  0  0  0  0
  -40.5178   58.2430   60.0829 C   0  0  0  0  0  0  0  0  0  0  0  0
  -39.3513   59.1391   59.6932 C   0  0  0  0  0  0  0  0  0  0  0  0
  -38.3464   59.3557   60.8140 C   0  0  0  0  0  0  0  0  0  0  0  0
  -37.1250   58.4578   60.7227 C   0  0  0  0  0  0  0  0  0  0  0  0
  -36.7296   57.8164   62.0397 C   0  0  0  0  0  0  0  0  0  0  0  0
  -35.4382   58.3604   62.6261 C   0  0  0  0  0  0  0  0  0  0  0  0
  -34.2925   57.3675   62.5616 C   0  0  0  0  0  0  0  0  0  0  0  0
  -32.9165   58.0024   62.4976 C   0  0  0  0  0  0  0  0  0  0  0  0
  -32.9652   59.5124   62.6244 C   0  0  0  0  0  0  0  0  0  0  0  0
  -31.7946   60.1901   61.9426 C   0  0  0  0  0  0  0  0  0  0  0  0
  -37.5798   60.8143   65.3519 C   0  0  0  0  0  0  0  0  0  0  0  0
  -36.2786   60.9601   64.7719 O   0  0  0  0  0  0  0  0  0  0  0  0
  -34.5012   62.1730   66.5638 O   0  0  0  0  0  0  0  0  0  0  0  0
  -33.1652   63.4158   62.6661 O   0  0  0  0  0  0  0  0  0  0  0  0
  -35.8731   62.6089   63.2080 O   0  0  0  0  0  0  0  0  0  0  0  0
  -35.8764   62.2859   64.5861 C   0  0  0  0  0  0  0  0  0  0  0  0
  -34.4769   62.4401   65.1674 C   0  0  0  0  0  0  0  0  0  0  0  0
  -33.9615   63.8503   64.9092 C   0  0  0  0  0  0  0  0  0  0  0  0
  -34.0649   64.2085   63.4340 C   0  0  0  0  0  0  0  0  0  0  0  0
  -35.4918   63.9692   62.9470 C   0  0  0  0  0  0  0  0  0  0  0  0
  -34.8308   61.2734   66.7152 H   0  0  0  0  0  0  0  0  0  0  0  0
  -32.2578   63.5664   62.9739 H   0  0  0  0  0  0  0  0  0  0  0  0
  -35.9348   65.5574   61.1664 O   0  0  0  0  0  0  0  0  0  0  0  0
  -35.6589   64.1931   61.4623 C   0  0  0  0  0  0  0  0  0  0  0  0
  -36.0363   65.6663   60.2080 H   0  0  0  0  0  0  0  0  0  0  0  0
  -32.5536   63.8070   65.3034 O   0  0  0  0  0  0  0  0  0  0  0  0
  -32.4694   66.2078   65.4925 O   0  0  0  0  0  0  0  0  0  0  0  0
  -30.9820   65.0010   63.8656 O   0  0  0  0  0  0  0  0  0  0  0  0
  -30.6310   64.8805   66.2106 O   0  0  0  0  0  0  0  0  0  0  0  0
  -31.6675   65.1094   65.0983 S   0  0  0  0  0  0  0  0  0  0  0  0
  -33.1375   66.3815   64.8110 H   0  0  0  0  0  0  0  0  0  0  0  0
  -31.0648   64.9473   67.0756 H   0  0  0  0  0  0  0  0  0  0  0  0
  2  1  1  0  0  0
  2  4  1  0  0  0
  2  5  1  0  0  0
 47 48  1  0  0  0
 47  1  1  0  0  0
 48 52  1  0  0  0
  1 30  1  0  0  0
 29 30  1  0  0  0
 29 31  1  0  0  0
 30 32  1  0  0  0
  3  4  2  0  0  0
 32 33  2  0  0  0
 49 53  1  0  0  0
 49 57  1  0  0  0
 33 34  1  0  0  0
 62 54  1  0  0  0
 62 66  1  0  0  0
 34 35  1  0  0  0
 50 55  1  0  0  0
 50 58  1  0  0  0
 35 36  1  0  0  0
 51 52  1  0  0  0
 51 56  1  0  0  0
 36 37  1  0  0  0
 59 60  1  0  0  0
 59 61  1  0  0  0
 37 38  1  0  0  0
 63 66  1  0  0  0
 63 67  1  0  0  0
 38 39  1  0  0  0
 64 66  1  0  0  0
 39 40  1  0  0  0
 65 66  1  0  0  0
 65 68  1  0  0  0
 40 41  1  0  0  0
 41 42  1  0  0  0
 42 43  1  0  0  0
 43 44  1  0  0  0
 44 45  1  0  0  0
 45 46  1  0  0  0
  4  6  1  0  0  0
  6  7  1  0  0  0
  7  8  1  0  0  0
  8  9  1  0  0  0
  9 10  1  0  0  0
 10 11  1  0  0  0
 11 12  1  0  0  0
 12 13  1  0  0  0
 13 14  1  0  0  0
 14 15  1  0  0  0
 15 16  1  0  0  0
 16 17  1  0  0  0
 17 18  1  0  0  0
 18 19  1  0  0  0
 19 20  2  0  0  0
 20 21  1  0  0  0
 21 22  1  0  0  0
 22 23  1  0  0  0
 23 24  1  0  0  0
 24 25  1  0  0  0
 25 26  1  0  0  0
 26 27  1  0  0  0
 27 28  1  0  0  0
 52 53  1  0  0  0
 53 54  1  0  0  0
 54 55  1  0  0  0
 55 56  1  0  0  0
 56 60  1  0  0  0
M  CHG 1  64  -1
M  END
> <minimizedAffinity>
-8.50610

> <CNNscore>
0.1209079623

> <CNNaffinity>
7.3909592628

> <CNN_VS>
0.8936257958

> <CNNaffinity_variance>
1.2186449766

$$$$
/media/chris/experiments/cd1a-new-docking/inputs/ligands/7ryn_ligand.pdb


 68 68  0  0  0  0  0  0  0  0999 V2000
  -36.6512   57.9380   63.1766 C   0  0  0  0  0  0  0  0  0  0  0  0
  -37.0666   59.0245   64.0588 N   0  0  0  0  0  0  0  0  0  0  0  0
  -38.2323   57.7333   65.4878 O   0  0  0  0  0  0  0  0  0  0  0  0
  -37.8234   58.8384   65.1437 C   0  0  0  0  0  0  0  0  0  0  0  0
  -36.7746   59.9396   63.8434 H   0  0  0  0  0  0  0  0  0  0  0  0
  -38.1442   60.0811   65.9362 C   0  0  0  0  0  0  0  0  0  0  0  0
  -39.5579   60.5884   65.6816 C   0  0  0  0  0  0  0  0  0  0  0  0
  -40.5940   59.4761   65.7094 C   0  0  0  0  0  0  0  0  0  0  0  0
  -41.8857   59.8550   66.4147 C   0  0  0  0  0  0  0  0  0  0  0  0
  -42.6018   58.6785   67.0608 C   0  0  0  0  0  0  0  0  0  0  0  0
  -42.7193   57.4546   66.1613 C   0  0  0  0  0  0  0  0  0  0  0  0
  -43.9891   57.4267   65.3203 C   0  0  0  0  0  0  0  0  0  0  0  0
  -45.1107   58.3246   65.8362 C   0  0  0  0  0  0  0  0  0  0  0  0
  -46.2174   57.5747   66.5758 C   0  0  0  0  0  0  0  0  0  0  0  0
  -47.6156   58.1669   66.4001 C   0  0  0  0  0  0  0  0  0  0  0  0
  -47.7287   59.1183   65.2087 C   0  0  0  0  0  0  0  0  0  0  0  0
  -48.9030   60.0949   65.2695 C   0  0  0  0  0  0  0  0  0  0  0  0
  -50.2806   59.4398   65.4003 C   0  0  0  0  0  0  0  0  0  0  0  0
  -51.3032   60.0436   64.4817 C   0  0  0  0  0  0  0  0  0  0  0  0
  -51.5746   59.6471   63.2509 C   0  0  0  0  0  0  0  0  0  0  0  0
  -50.9178   58.5123   62.5250 C   0  0  0  0  0  0  0  0  0  0  0  0
  -49.5579   58.8728   61.9234 C   0  0  0  0  0  0  0  0  0  0  0  0
  -49.5938   59.0383   60.4099 C   0  0  0  0  0  0  0  0  0  0  0  0
  -49.9462   57.7533   59.6690 C   0  0  0  0  0  0  0  0  0  0  0  0
  -49.0109   56.5837   59.9538 C   0  0  0  0  0  0  0  0  0  0  0  0
  -47.8484   56.4766   58.9770 C   0  0  0  0  0  0  0  0  0  0  0  0
  -48.1293   57.0741   57.6074 C   0  0  0  0  0  0  0  0  0  0  0  0
  -47.0225   57.9900   57.1257 C   0  0  0  0  0  0  0  0  0  0  0  0
  -35.5390   56.7878   64.9863 O   0  0  0  0  0  0  0  0  0  0  0  0
  -35.3274   57.3458   63.6862 C   0  0  0  0  0  0  0  0  0  0  0  0
  -36.2449   56.1240   64.9423 H   0  0  0  0  0  0  0  0  0  0  0  0
  -34.2414   58.3772   63.7161 C   0  0  0  0  0  0  0  0  0  0  0  0
  -33.0655   58.2570   63.1324 C   0  0  0  0  0  0  0  0  0  0  0  0
  -32.0080   59.3111   63.1680 C   0  0  0  0  0  0  0  0  0  0  0  0
  -31.9728   60.0997   61.8573 C   0  0  0  0  0  0  0  0  0  0  0  0
  -32.2309   61.5890   62.0192 C   0  0  0  0  0  0  0  0  0  0  0  0
  -31.4087   62.4697   61.0939 C   0  0  0  0  0  0  0  0  0  0  0  0
  -31.4050   63.9411   61.4819 C   0  0  0  0  0  0  0  0  0  0  0  0
  -32.7446   64.6308   61.2747 C   0  0  0  0  0  0  0  0  0  0  0  0
  -32.9257   65.8815   62.1169 C   0  0  0  0  0  0  0  0  0  0  0  0
  -33.8933   65.7132   63.2735 C   0  0  0  0  0  0  0  0  0  0  0  0
  -34.0601   64.2746   63.7321 C   0  0  0  0  0  0  0  0  0  0  0  0
  -35.5129   63.8479   63.8310 C   0  0  0  0  0  0  0  0  0  0  0  0
  -35.7153   62.3606   64.0490 C   0  0  0  0  0  0  0  0  0  0  0  0
  -34.6284   61.7446   64.9079 C   0  0  0  0  0  0  0  0  0  0  0  0
  -34.6989   62.2026   66.3500 C   0  0  0  0  0  0  0  0  0  0  0  0
  -36.5386   58.4398   61.7519 C   0  0  0  0  0  0  0  0  0  0  0  0
  -37.7614   58.1387   61.0702 O   0  0  0  0  0  0  0  0  0  0  0  0
  -39.1046   60.5498   61.5425 O   0  0  0  0  0  0  0  0  0  0  0  0
  -42.2212   57.6558   60.8844 O   0  0  0  0  0  0  0  0  0  0  0  0
  -39.5917   56.9407   61.8073 O   0  0  0  0  0  0  0  0  0  0  0  0
  -38.8974   58.1717   61.8841 C   0  0  0  0  0  0  0  0  0  0  0  0
  -39.7881   59.3106   61.4048 C   0  0  0  0  0  0  0  0  0  0  0  0
  -41.0819   59.3297   62.2089 C   0  0  0  0  0  0  0  0  0  0  0  0
  -41.7552   57.9653   62.1938 C   0  0  0  0  0  0  0  0  0  0  0  0
  -40.7603   56.8976   62.6419 C   0  0  0  0  0  0  0  0  0  0  0  0
  -38.2835   60.5253   61.0267 H   0  0  0  0  0  0  0  0  0  0  0  0
  -42.8537   58.3331   60.5977 H   0  0  0  0  0  0  0  0  0  0  0  0
  -41.7118   55.0040   63.8244 O   0  0  0  0  0  0  0  0  0  0  0  0
  -41.3122   55.4943   62.5497 C   0  0  0  0  0  0  0  0  0  0  0  0
  -42.0602   54.1038   63.7299 H   0  0  0  0  0  0  0  0  0  0  0  0
  -41.9311   60.3007   61.5195 O   0  0  0  0  0  0  0  0  0  0  0  0
  -43.5297   60.7516   63.2653 O   0  0  0  0  0  0  0  0  0  0  0  0
  -43.0182   62.4873   61.5213 O   0  0  0  0  0  0  0  0  0  0  0  0
  -41.4524   61.9088   63.2096 O   0  0  0  0  0  0  0  0  0  0  0  0
  -42.6527   61.4242   62.3800 S   0  0  0  0  0  0  0  0  0  0  0  0
  -44.3020   60.4309   62.7737 H   0  0  0  0  0  0  0  0  0  0  0  0
  -41.1712   61.2039   63.8138 H   0  0  0  0  0  0  0  0  0  0  0  0
  2  1  1  0  0  0
  2  4  1  0  0  0
  2  5  1  0  0  0
 47 48  1  0  0  0
 47  1  1  0  0  0
 48 52  1  0  0  0
  1 30  1  0  0  0
 29 30  1  0  0  0
 29 31  1  0  0  0
 30 32  1  0  0  0
  3  4  2  0  0  0
 32 33  2  0  0  0
 49 53  1  0  0  0
 49 57  1  0  0  0
 33 34  1  0  0  0
 62 54  1  0  0  0
 62 66  1  0  0  0
 34 35  1  0  0  0
 50 55  1  0  0  0
 50 58  1  0  0  0
 35 36  1  0  0  0
 51 52  1  0  0  0
 51 56  1  0  0  0
 36 37  1  0  0  0
 59 60  1  0  0  0
 59 61  1  0  0  0
 37 38  1  0  0  0
 63 66  1  0  0  0
 63 67  1  0  0  0
 38 39  1  0  0  0
 64 66  1  0  0  0
 39 40  1  0  0  0
 65 66  1  0  0  0
 65 68  1  0  0  0
 40 41  1  0  0  0
 41 42  1  0  0  0
 42 43  1  0  0  0
 43 44  1  0  0  0
 44 45  1  0  0  0
 45 46  1  0  0  0
  4  6  1  0  0  0
  6  7  1  0  0  0
  7  8  1  0  0  0
  8  9  1  0  0  0
  9 10  1  0  0  0
 10 11  1  0  0  0
 11 12  1  0  0  0
 12 13  1  0  0  0
 13 14  1  0  0  0
 14 15  1  0  0  0
 15 16  1  0  0  0
 16 17  1  0  0  0
 17 18  1  0  0  0
 18 19  1  0  0  0
 19 20  2  0  0  0
 20 21  1  0  0  0
 21 22  1  0  0  0
 22 23  1  0  0  0
 23 24  1  0  0  0
 24 25  1  0  0  0
 25 26  1  0  0  0
 26 27  1  0  0  0
 27 28  1  0  0  0
 52 53  1  0  0  0
 53 54  1  0  0  0
 54 55  1  0  0  0
 55 56  1  0  0  0
 56 60  1  0  0  0
M  CHG 1  64  -1
M  END
> <minimizedAffinity>
-9.03076

> <CNNscore>
0.1180601269

> <CNNaffinity>
7.1187372208

> <CNN_VS>
0.8404390216

> <CNNaffinity_variance>
2.3596425056

$$$$
/media/chris/experiments/cd1a-new-docking/inputs/ligands/7ryn_ligand.pdb


 68 68  0  0  0  0  0  0  0  0999 V2000
  -35.4651   59.4047   63.5133 C   0  0  0  0  0  0  0  0  0  0  0  0
  -36.6629   59.6610   64.3076 N   0  0  0  0  0  0  0  0  0  0  0  0
  -37.0228   57.5158   64.8877 O   0  0  0  0  0  0  0  0  0  0  0  0
  -37.3475   58.6988   64.9318 C   0  0  0  0  0  0  0  0  0  0  0  0
  -36.9819   60.5890   64.3869 H   0  0  0  0  0  0  0  0  0  0  0  0
  -38.5548   59.1578   65.7110 C   0  0  0  0  0  0  0  0  0  0  0  0
  -39.2994   60.2933   65.0204 C   0  0  0  0  0  0  0  0  0  0  0  0
  -40.1190   59.8193   63.8309 C   0  0  0  0  0  0  0  0  0  0  0  0
  -41.3360   60.6811   63.5386 C   0  0  0  0  0  0  0  0  0  0  0  0
  -42.4886   59.9214   62.8993 C   0  0  0  0  0  0  0  0  0  0  0  0
  -43.8089   60.0533   63.6479 C   0  0  0  0  0  0  0  0  0  0  0  0
  -44.4980   58.7228   63.9223 C   0  0  0  0  0  0  0  0  0  0  0  0
  -45.8964   58.8454   64.5223 C   0  0  0  0  0  0  0  0  0  0  0  0
  -46.1376   57.9385   65.7279 C   0  0  0  0  0  0  0  0  0  0  0  0
  -46.6726   58.6553   66.9674 C   0  0  0  0  0  0  0  0  0  0  0  0
  -47.9789   59.4097   66.7183 C   0  0  0  0  0  0  0  0  0  0  0  0
  -49.1449   58.5444   66.2404 C   0  0  0  0  0  0  0  0  0  0  0  0
  -50.2682   59.3086   65.5346 C   0  0  0  0  0  0  0  0  0  0  0  0
  -49.8098   59.9902   64.2778 C   0  0  0  0  0  0  0  0  0  0  0  0
  -50.2345   59.7328   63.0534 C   0  0  0  0  0  0  0  0  0  0  0  0
  -51.2620   58.7102   62.6731 C   0  0  0  0  0  0  0  0  0  0  0  0
  -50.8372   57.8170   61.5056 C   0  0  0  0  0  0  0  0  0  0  0  0
  -49.6723   58.3851   60.7058 C   0  0  0  0  0  0  0  0  0  0  0  0
  -49.3940   57.6208   59.4164 C   0  0  0  0  0  0  0  0  0  0  0  0
  -48.5633   56.3557   59.5992 C   0  0  0  0  0  0  0  0  0  0  0  0
  -47.2443   56.3734   58.8395 C   0  0  0  0  0  0  0  0  0  0  0  0
  -47.3890   56.6271   57.3474 C   0  0  0  0  0  0  0  0  0  0  0  0
  -46.8637   57.9846   56.9266 C   0  0  0  0  0  0  0  0  0  0  0  0
  -34.3000   57.4675   62.6620 O   0  0  0  0  0  0  0  0  0  0  0  0
  -35.6007   58.0441   62.8112 C   0  0  0  0  0  0  0  0  0  0  0  0
  -33.8786   57.3909   63.5322 H   0  0  0  0  0  0  0  0  0  0  0  0
  -36.2829   58.1779   61.4844 C   0  0  0  0  0  0  0  0  0  0  0  0
  -37.5043   58.6399   61.3032 C   0  0  0  0  0  0  0  0  0  0  0  0
  -38.1519   58.7752   59.9642 C   0  0  0  0  0  0  0  0  0  0  0  0
  -39.2111   59.8793   59.9743 C   0  0  0  0  0  0  0  0  0  0  0  0
  -40.6119   59.3958   60.3132 C   0  0  0  0  0  0  0  0  0  0  0  0
  -40.9587   58.0332   59.7378 C   0  0  0  0  0  0  0  0  0  0  0  0
  -41.5168   57.0538   60.7600 C   0  0  0  0  0  0  0  0  0  0  0  0
  -40.5760   56.7834   61.9240 C   0  0  0  0  0  0  0  0  0  0  0  0
  -41.1709   55.8874   62.9962 C   0  0  0  0  0  0  0  0  0  0  0  0
  -41.3283   56.5606   64.3469 C   0  0  0  0  0  0  0  0  0  0  0  0
  -42.6355   56.2344   65.0485 C   0  0  0  0  0  0  0  0  0  0  0  0
  -42.8343   57.0229   66.3296 C   0  0  0  0  0  0  0  0  0  0  0  0
  -42.0503   58.3197   66.3948 C   0  0  0  0  0  0  0  0  0  0  0  0
  -42.6942   59.3445   67.3078 C   0  0  0  0  0  0  0  0  0  0  0  0
  -42.2277   60.7558   67.0164 C   0  0  0  0  0  0  0  0  0  0  0  0
  -34.2342   59.4703   64.3937 C   0  0  0  0  0  0  0  0  0  0  0  0
  -33.3279   60.4255   63.8307 O   0  0  0  0  0  0  0  0  0  0  0  0
  -32.6471   62.6612   62.2882 O   0  0  0  0  0  0  0  0  0  0  0  0
  -36.3042   63.7576   64.2744 O   0  0  0  0  0  0  0  0  0  0  0  0
  -34.5044   61.7613   65.3005 O   0  0  0  0  0  0  0  0  0  0  0  0
  -33.4519   61.7153   64.3553 C   0  0  0  0  0  0  0  0  0  0  0  0
  -33.7368   62.6683   63.2017 C   0  0  0  0  0  0  0  0  0  0  0  0
  -33.9665   64.0758   63.7375 C   0  0  0  0  0  0  0  0  0  0  0  0
  -35.0310   64.0798   64.8247 C   0  0  0  0  0  0  0  0  0  0  0  0
  -34.6708   63.0567   65.8989 C   0  0  0  0  0  0  0  0  0  0  0  0
  -32.5109   61.7607   61.9544 H   0  0  0  0  0  0  0  0  0  0  0  0
  -36.5351   64.4066   63.5916 H   0  0  0  0  0  0  0  0  0  0  0  0
  -36.9730   62.4864   66.4123 O   0  0  0  0  0  0  0  0  0  0  0  0
  -35.7327   62.9135   66.9638 C   0  0  0  0  0  0  0  0  0  0  0  0
  -37.6308   62.4048   67.1203 H   0  0  0  0  0  0  0  0  0  0  0  0
  -34.4445   64.8370   62.5836 O   0  0  0  0  0  0  0  0  0  0  0  0
  -34.4558   67.1115   61.7880 O   0  0  0  0  0  0  0  0  0  0  0  0
  -32.6017   65.5417   61.1446 O   0  0  0  0  0  0  0  0  0  0  0  0
  -32.8130   66.3931   63.3509 O   0  0  0  0  0  0  0  0  0  0  0  0
  -33.5614   66.0463   62.0533 S   0  0  0  0  0  0  0  0  0  0  0  0
  -34.9471   66.9257   60.9725 H   0  0  0  0  0  0  0  0  0  0  0  0
  -33.4404   66.7441   64.0020 H   0  0  0  0  0  0  0  0  0  0  0  0
  2  1  1  0  0  0
  2  4  1  0  0  0
  2  5  1  0  0  0
 47 48  1  0  0  0
 47  1  1  0  0  0
 48 52  1  0  0  0
  1 30  1  0  0  0
 29 30  1  0  0  0
 29 31  1  0  0  0
 30 32  1  0  0  0
  3  4  2  0  0  0
 32 33  2  0  0  0
 49 53  1  0  0  0
 49 57  1  0  0  0
 33 34  1  0  0  0
 62 54  1  0  0  0
 62 66  1  0  0  0
 34 35  1  0  0  0
 50 55  1  0  0  0
 50 58  1  0  0  0
 35 36  1  0  0  0
 51 52  1  0  0  0
 51 56  1  0  0  0
 36 37  1  0  0  0
 59 60  1  0  0  0
 59 61  1  0  0  0
 37 38  1  0  0  0
 63 66  1  0  0  0
 63 67  1  0  0  0
 38 39  1  0  0  0
 64 66  1  0  0  0
 39 40  1  0  0  0
 65 66  1  0  0  0
 65 68  1  0  0  0
 40 41  1  0  0  0
 41 42  1  0  0  0
 42 43  1  0  0  0
 43 44  1  0  0  0
 44 45  1  0  0  0
 45 46  1  0  0  0
  4  6  1  0  0  0
  6  7  1  0  0  0
  7  8  1  0  0  0
  8  9  1  0  0  0
  9 10  1  0  0  0
 10 11  1  0  0  0
 11 12  1  0  0  0
 12 13  1  0  0  0
 13 14  1  0  0  0
 14 15  1  0  0  0
 15 16  1  0  0  0
 16 17  1  0  0  0
 17 18  1  0  0  0
 18 19  1  0  0  0
 19 20  2  0  0  0
 20 21  1  0  0  0
 21 22  1  0  0  0
 22 23  1  0  0  0
 23 24  1  0  0  0
 24 25  1  0  0  0
 25 26  1  0  0  0
 26 27  1  0  0  0
 27 28  1  0  0  0
 52 53  1  0  0  0
 53 54  1  0  0  0
 54 55  1  0  0  0
 55 56  1  0  0  0
 56 60  1  0  0  0
M  CHG 1  64  -1
M  END
> <minimizedAffinity>
-9.19363

> <CNNscore>
0.1066567153

> <CNNaffinity>
7.4021024704

> <CNN_VS>
0.7894839644

> <CNNaffinity_variance>
1.9504375458

$$$$
/media/chris/experiments/cd1a-new-docking/inputs/ligands/7ryn_ligand.pdb


 68 68  0  0  0  0  0  0  0  0999 V2000
  -34.5353   59.6860   63.3563 C   0  0  0  0  0  0  0  0  0  0  0  0
  -35.5396   59.8333   64.4056 N   0  0  0  0  0  0  0  0  0  0  0  0
  -36.7489   61.4132   63.3525 O   0  0  0  0  0  0  0  0  0  0  0  0
  -36.5663   60.6837   64.3226 C   0  0  0  0  0  0  0  0  0  0  0  0
  -35.4559   59.2784   65.2145 H   0  0  0  0  0  0  0  0  0  0  0  0
  -37.5053   60.6898   65.5031 C   0  0  0  0  0  0  0  0  0  0  0  0
  -38.7622   59.8657   65.2549 C   0  0  0  0  0  0  0  0  0  0  0  0
  -39.8018   60.0371   66.3508 C   0  0  0  0  0  0  0  0  0  0  0  0
  -41.1560   60.5082   65.8472 C   0  0  0  0  0  0  0  0  0  0  0  0
  -42.2908   60.2884   66.8363 C   0  0  0  0  0  0  0  0  0  0  0  0
  -42.7657   58.8435   66.9237 C   0  0  0  0  0  0  0  0  0  0  0  0
  -42.7859   58.1188   65.5840 C   0  0  0  0  0  0  0  0  0  0  0  0
  -44.0534   58.3406   64.7626 C   0  0  0  0  0  0  0  0  0  0  0  0
  -45.3222   58.4802   65.6021 C   0  0  0  0  0  0  0  0  0  0  0  0
  -46.5475   58.9671   64.8287 C   0  0  0  0  0  0  0  0  0  0  0  0
  -47.8419   58.2598   65.2307 C   0  0  0  0  0  0  0  0  0  0  0  0
  -48.8285   59.1169   66.0235 C   0  0  0  0  0  0  0  0  0  0  0  0
  -50.3050   58.7936   65.7793 C   0  0  0  0  0  0  0  0  0  0  0  0
  -50.9910   59.8143   64.9181 C   0  0  0  0  0  0  0  0  0  0  0  0
  -51.2695   59.6877   63.6328 C   0  0  0  0  0  0  0  0  0  0  0  0
  -50.9590   58.4977   62.7763 C   0  0  0  0  0  0  0  0  0  0  0  0
  -49.5475   58.5169   62.1860 C   0  0  0  0  0  0  0  0  0  0  0  0
  -49.5171   58.8913   60.7101 C   0  0  0  0  0  0  0  0  0  0  0  0
  -49.8876   57.7372   59.7854 C   0  0  0  0  0  0  0  0  0  0  0  0
  -48.9646   56.5280   59.8841 C   0  0  0  0  0  0  0  0  0  0  0  0
  -47.7549   56.6035   58.9632 C   0  0  0  0  0  0  0  0  0  0  0  0
  -48.0621   57.1433   57.5754 C   0  0  0  0  0  0  0  0  0  0  0  0
  -46.9469   58.0042   57.0177 C   0  0  0  0  0  0  0  0  0  0  0  0
  -33.5329   58.0924   61.8429 O   0  0  0  0  0  0  0  0  0  0  0  0
  -34.4662   58.2136   62.9202 C   0  0  0  0  0  0  0  0  0  0  0  0
  -32.6691   58.4328   62.1236 H   0  0  0  0  0  0  0  0  0  0  0  0
  -35.8145   57.6965   62.5219 C   0  0  0  0  0  0  0  0  0  0  0  0
  -36.6389   58.2947   61.6850 C   0  0  0  0  0  0  0  0  0  0  0  0
  -37.9722   57.7454   61.2960 C   0  0  0  0  0  0  0  0  0  0  0  0
  -38.5286   56.8276   62.3865 C   0  0  0  0  0  0  0  0  0  0  0  0
  -39.6706   57.4325   63.1869 C   0  0  0  0  0  0  0  0  0  0  0  0
  -41.0153   56.7627   62.9608 C   0  0  0  0  0  0  0  0  0  0  0  0
  -41.2550   56.3259   61.5230 C   0  0  0  0  0  0  0  0  0  0  0  0
  -42.0526   57.3296   60.7046 C   0  0  0  0  0  0  0  0  0  0  0  0
  -41.1986   58.1887   59.7888 C   0  0  0  0  0  0  0  0  0  0  0  0
  -41.3054   59.6776   60.0610 C   0  0  0  0  0  0  0  0  0  0  0  0
  -40.2741   60.1984   61.0473 C   0  0  0  0  0  0  0  0  0  0  0  0
  -40.8936   60.7490   62.3184 C   0  0  0  0  0  0  0  0  0  0  0  0
  -42.4102   60.7393   62.3309 C   0  0  0  0  0  0  0  0  0  0  0  0
  -43.0026   62.1304   62.2186 C   0  0  0  0  0  0  0  0  0  0  0  0
  -42.7318   62.9772   63.4449 C   0  0  0  0  0  0  0  0  0  0  0  0
  -33.1958   60.1982   63.8437 C   0  0  0  0  0  0  0  0  0  0  0  0
  -32.8114   61.3066   63.0224 O   0  0  0  0  0  0  0  0  0  0  0  0
  -33.6825   63.5076   61.5264 O   0  0  0  0  0  0  0  0  0  0  0  0
  -35.8591   63.7543   65.2309 O   0  0  0  0  0  0  0  0  0  0  0  0
  -33.3330   62.3989   64.9880 O   0  0  0  0  0  0  0  0  0  0  0  0
  -32.9773   62.5560   63.6270 C   0  0  0  0  0  0  0  0  0  0  0  0
  -34.0746   63.3006   62.8775 C   0  0  0  0  0  0  0  0  0  0  0  0
  -34.3511   64.6360   63.5568 C   0  0  0  0  0  0  0  0  0  0  0  0
  -34.6298   64.4471   65.0406 C   0  0  0  0  0  0  0  0  0  0  0  0
  -33.4954   63.6485   65.6778 C   0  0  0  0  0  0  0  0  0  0  0  0
  -33.5094   62.6511   61.1052 H   0  0  0  0  0  0  0  0  0  0  0  0
  -36.5814   64.2601   64.8268 H   0  0  0  0  0  0  0  0  0  0  0  0
  -34.2485   64.4399   67.8448 O   0  0  0  0  0  0  0  0  0  0  0  0
  -33.7444   63.3171   67.1306 C   0  0  0  0  0  0  0  0  0  0  0  0
  -34.3969   64.1938   68.7712 H   0  0  0  0  0  0  0  0  0  0  0  0
  -35.5523   65.1451   62.8955 O   0  0  0  0  0  0  0  0  0  0  0  0
  -33.9905   66.3544   61.5153 O   0  0  0  0  0  0  0  0  0  0  0  0
  -36.3784   67.1133   61.7094 O   0  0  0  0  0  0  0  0  0  0  0  0
  -35.7825   65.1437   60.5251 O   0  0  0  0  0  0  0  0  0  0  0  0
  -35.3795   66.1134   61.6481 S   0  0  0  0  0  0  0  0  0  0  0  0
  -33.7003   66.9651   62.2108 H   0  0  0  0  0  0  0  0  0  0  0  0
  -35.1186   64.4403   60.4516 H   0  0  0  0  0  0  0  0  0  0  0  0
  2  1  1  0  0  0
  2  4  1  0  0  0
  2  5  1  0  0  0
 47 48  1  0  0  0
 47  1  1  0  0  0
 48 52  1  0  0  0
  1 30  1  0  0  0
 29 30  1  0  0  0
 29 31  1  0  0  0
 30 32  1  0  0  0
  3  4  2  0  0  0
 32 33  2  0  0  0
 49 53  1  0  0  0
 49 57  1  0  0  0
 33 34  1  0  0  0
 62 54  1  0  0  0
 62 66  1  0  0  0
 34 35  1  0  0  0
 50 55  1  0  0  0
 50 58  1  0  0  0
 35 36  1  0  0  0
 51 52  1  0  0  0
 51 56  1  0  0  0
 36 37  1  0  0  0
 59 60  1  0  0  0
 59 61  1  0  0  0
 37 38  1  0  0  0
 63 66  1  0  0  0
 63 67  1  0  0  0
 38 39  1  0  0  0
 64 66  1  0  0  0
 39 40  1  0  0  0
 65 66  1  0  0  0
 65 68  1  0  0  0
 40 41  1  0  0  0
 41 42  1  0  0  0
 42 43  1  0  0  0
 43 44  1  0  0  0
 44 45  1  0  0  0
 45 46  1  0  0  0
  4  6  1  0  0  0
  6  7  1  0  0  0
  7  8  1  0  0  0
  8  9  1  0  0  0
  9 10  1  0  0  0
 10 11  1  0  0  0
 11 12  1  0  0  0
 12 13  1  0  0  0
 13 14  1  0  0  0
 14 15  1  0  0  0
 15 16  1  0  0  0
 16 17  1  0  0  0
 17 18  1  0  0  0
 18 19  1  0  0  0
 19 20  2  0  0  0
 20 21  1  0  0  0
 21 22  1  0  0  0
 22 23  1  0  0  0
 23 24  1  0  0  0
 24 25  1  0  0  0
 25 26  1  0  0  0
 26 27  1  0  0  0
 27 28  1  0  0  0
 52 53  1  0  0  0
 53 54  1  0  0  0
 54 55  1  0  0  0
 55 56  1  0  0  0
 56 60  1  0  0  0
M  CHG 1  64  -1
M  END
> <minimizedAffinity>
-9.51062

> <CNNscore>
0.0967775211

> <CNNaffinity>
7.1988000870

> <CNN_VS>
0.6966820359

> <CNNaffinity_variance>
2.2265913486

$$$$
/media/chris/experiments/cd1a-new-docking/inputs/ligands/7ryn_ligand.pdb


 68 68  0  0  0  0  0  0  0  0999 V2000
  -40.0580   59.6926   66.0258 C   0  0  0  0  0  0  0  0  0  0  0  0
  -39.9827   58.8744   64.8192 N   0  0  0  0  0  0  0  0  0  0  0  0
  -38.5103   57.3820   65.6395 O   0  0  0  0  0  0  0  0  0  0  0  0
  -39.2164   57.7848   64.7197 C   0  0  0  0  0  0  0  0  0  0  0  0
  -40.5235   59.1387   64.0402 H   0  0  0  0  0  0  0  0  0  0  0  0
  -39.2758   57.0642   63.3958 C   0  0  0  0  0  0  0  0  0  0  0  0
  -40.6758   57.0584   62.7955 C   0  0  0  0  0  0  0  0  0  0  0  0
  -41.4219   55.7604   63.0598 C   0  0  0  0  0  0  0  0  0  0  0  0
  -42.1896   55.7472   64.3712 C   0  0  0  0  0  0  0  0  0  0  0  0
  -42.9923   57.0141   64.6269 C   0  0  0  0  0  0  0  0  0  0  0  0
  -43.2131   57.3207   66.1027 C   0  0  0  0  0  0  0  0  0  0  0  0
  -44.5175   58.0521   66.3924 C   0  0  0  0  0  0  0  0  0  0  0  0
  -44.9996   58.9592   65.2632 C   0  0  0  0  0  0  0  0  0  0  0  0
  -46.1545   58.3785   64.4489 C   0  0  0  0  0  0  0  0  0  0  0  0
  -47.5012   59.0657   64.6734 C   0  0  0  0  0  0  0  0  0  0  0  0
  -48.1781   58.6654   65.9846 C   0  0  0  0  0  0  0  0  0  0  0  0
  -49.4567   59.4355   66.3144 C   0  0  0  0  0  0  0  0  0  0  0  0
  -50.6916   59.0067   65.5174 C   0  0  0  0  0  0  0  0  0  0  0  0
  -51.1244   60.0360   64.5137 C   0  0  0  0  0  0  0  0  0  0  0  0
  -51.4501   59.8062   63.2540 C   0  0  0  0  0  0  0  0  0  0  0  0
  -51.4558   58.4706   62.5742 C   0  0  0  0  0  0  0  0  0  0  0  0
  -50.1852   58.1844   61.7712 C   0  0  0  0  0  0  0  0  0  0  0  0
  -50.3837   57.1376   60.6829 C   0  0  0  0  0  0  0  0  0  0  0  0
  -49.6977   57.4936   59.3687 C   0  0  0  0  0  0  0  0  0  0  0  0
  -48.1774   57.5696   59.4506 C   0  0  0  0  0  0  0  0  0  0  0  0
  -47.4734   56.3138   58.9564 C   0  0  0  0  0  0  0  0  0  0  0  0
  -47.2543   56.2743   57.4523 C   0  0  0  0  0  0  0  0  0  0  0  0
  -47.4105   57.6320   56.7981 C   0  0  0  0  0  0  0  0  0  0  0  0
  -42.1127   60.5938   66.9208 O   0  0  0  0  0  0  0  0  0  0  0  0
  -41.1656   60.7453   65.8594 C   0  0  0  0  0  0  0  0  0  0  0  0
  -41.6576   60.6719   67.7738 H   0  0  0  0  0  0  0  0  0  0  0  0
  -41.8345   60.6301   64.5239 C   0  0  0  0  0  0  0  0  0  0  0  0
  -41.9559   61.6097   63.6500 C   0  0  0  0  0  0  0  0  0  0  0  0
  -42.6161   61.4591   62.3188 C   0  0  0  0  0  0  0  0  0  0  0  0
  -42.1894   60.1574   61.6371 C   0  0  0  0  0  0  0  0  0  0  0  0
  -41.4743   60.3543   60.3103 C   0  0  0  0  0  0  0  0  0  0  0  0
  -40.3569   59.3587   60.0491 C   0  0  0  0  0  0  0  0  0  0  0  0
  -38.9681   59.8872   60.3772 C   0  0  0  0  0  0  0  0  0  0  0  0
  -37.8514   58.9005   60.0730 C   0  0  0  0  0  0  0  0  0  0  0  0
  -37.4507   58.0445   61.2617 C   0  0  0  0  0  0  0  0  0  0  0  0
  -35.9926   58.1816   61.6586 C   0  0  0  0  0  0  0  0  0  0  0  0
  -35.6025   57.3472   62.8665 C   0  0  0  0  0  0  0  0  0  0  0  0
  -35.5351   58.1551   64.1492 C   0  0  0  0  0  0  0  0  0  0  0  0
  -34.1288   58.5117   64.5915 C   0  0  0  0  0  0  0  0  0  0  0  0
  -33.4582   59.5014   63.6592 C   0  0  0  0  0  0  0  0  0  0  0  0
  -32.1070   59.0182   63.1743 C   0  0  0  0  0  0  0  0  0  0  0  0
  -38.7109   60.3245   66.3099 C   0  0  0  0  0  0  0  0  0  0  0  0
  -38.3083   61.0662   65.1529 O   0  0  0  0  0  0  0  0  0  0  0  0
  -36.8187   61.1679   62.7840 O   0  0  0  0  0  0  0  0  0  0  0  0
  -35.7835   64.7700   64.8993 O   0  0  0  0  0  0  0  0  0  0  0  0
  -36.7607   62.4072   66.2182 O   0  0  0  0  0  0  0  0  0  0  0  0
  -36.9732   61.4800   65.1702 C   0  0  0  0  0  0  0  0  0  0  0  0
  -36.6614   62.1234   63.8252 C   0  0  0  0  0  0  0  0  0  0  0  0
  -35.2390   62.6691   63.8297 C   0  0  0  0  0  0  0  0  0  0  0  0
  -35.0077   63.5825   65.0244 C   0  0  0  0  0  0  0  0  0  0  0  0
  -35.3989   62.8559   66.3087 C   0  0  0  0  0  0  0  0  0  0  0  0
  -37.7272   60.8282   62.7914 H   0  0  0  0  0  0  0  0  0  0  0  0
  -35.5364   65.2334   64.0839 H   0  0  0  0  0  0  0  0  0  0  0  0
  -36.5046   63.6819   68.3048 O   0  0  0  0  0  0  0  0  0  0  0  0
  -35.3069   63.7294   67.5379 C   0  0  0  0  0  0  0  0  0  0  0  0
  -36.4124   64.2518   69.0841 H   0  0  0  0  0  0  0  0  0  0  0  0
  -35.1375   63.4459   62.5945 O   0  0  0  0  0  0  0  0  0  0  0  0
  -33.1169   64.6550   63.1064 O   0  0  0  0  0  0  0  0  0  0  0  0
  -33.7924   64.2468   60.7205 O   0  0  0  0  0  0  0  0  0  0  0  0
  -33.0070   62.4948   62.1171 O   0  0  0  0  0  0  0  0  0  0  0  0
  -33.6953   63.8691   62.0803 S   0  0  0  0  0  0  0  0  0  0  0  0
  -33.5292   65.5331   63.1125 H   0  0  0  0  0  0  0  0  0  0  0  0
  -32.9217   62.2004   63.0374 H   0  0  0  0  0  0  0  0  0  0  0  0
  2  1  1  0  0  0
  2  4  1  0  0  0
  2  5  1  0  0  0
 47 48  1  0  0  0
 47  1  1  0  0  0
 48 52  1  0  0  0
  1 30  1  0  0  0
 29 30  1  0  0  0
 29 31  1  0  0  0
 30 32  1  0  0  0
  3  4  2  0  0  0
 32 33  2  0  0  0
 49 53  1  0  0  0
 49 57  1  0  0  0
 33 34  1  0  0  0
 62 54  1  0  0  0
 62 66  1  0  0  0
 34 35  1  0  0  0
 50 55  1  0  0  0
 50 58  1  0  0  0
 35 36  1  0  0  0
 51 52  1  0  0  0
 51 56  1  0  0  0
 36 37  1  0  0  0
 59 60  1  0  0  0
 59 61  1  0  0  0
 37 38  1  0  0  0
 63 66  1  0  0  0
 63 67  1  0  0  0
 38 39  1  0  0  0
 64 66  1  0  0  0
 39 40  1  0  0  0
 65 66  1  0  0  0
 65 68  1  0  0  0
 40 41  1  0  0  0
 41 42  1  0  0  0
 42 43  1  0  0  0
 43 44  1  0  0  0
 44 45  1  0  0  0
 45 46  1  0  0  0
  4  6  1  0  0  0
  6  7  1  0  0  0
  7  8  1  0  0  0
  8  9  1  0  0  0
  9 10  1  0  0  0
 10 11  1  0  0  0
 11 12  1  0  0  0
 12 13  1  0  0  0
 13 14  1  0  0  0
 14 15  1  0  0  0
 15 16  1  0  0  0
 16 17  1  0  0  0
 17 18  1  0  0  0
 18 19  1  0  0  0
 19 20  2  0  0  0
 20 21  1  0  0  0
 21 22  1  0  0  0
 22 23  1  0  0  0
 23 24  1  0  0  0
 24 25  1  0  0  0
 25 26  1  0  0  0
 26 27  1  0  0  0
 27 28  1  0  0  0
 52 53  1  0  0  0
 53 54  1  0  0  0
 54 55  1  0  0  0
 55 56  1  0  0  0
 56 60  1  0  0  0
M  CHG 1  64  -1
M  END
> <minimizedAffinity>
-9.63755

> <CNNscore>
0.0915400386

> <CNNaffinity>
7.4221053123

> <CNN_VS>
0.6794198155

> <CNNaffinity_variance>
2.0448899269

$$$$
/media/chris/experiments/cd1a-new-docking/inputs/ligands/7ryn_ligand.pdb


 68 68  0  0  0  0  0  0  0  0999 V2000
  -37.5979   60.0854   64.8010 C   0  0  0  0  0  0  0  0  0  0  0  0
  -38.2359   59.1272   63.9032 N   0  0  0  0  0  0  0  0  0  0  0  0
  -38.3402   57.4431   65.3934 O   0  0  0  0  0  0  0  0  0  0  0  0
  -38.5569   57.8830   64.2681 C   0  0  0  0  0  0  0  0  0  0  0  0
  -38.4396   59.4122   62.9831 H   0  0  0  0  0  0  0  0  0  0  0  0
  -39.2170   57.0411   63.2047 C   0  0  0  0  0  0  0  0  0  0  0  0
  -40.7101   57.3176   63.0831 C   0  0  0  0  0  0  0  0  0  0  0  0
  -41.5575   56.0783   63.3226 C   0  0  0  0  0  0  0  0  0  0  0  0
  -42.4589   56.1747   64.5423 C   0  0  0  0  0  0  0  0  0  0  0  0
  -41.8458   56.9469   65.7009 C   0  0  0  0  0  0  0  0  0  0  0  0
  -42.7774   57.9825   66.3176 C   0  0  0  0  0  0  0  0  0  0  0  0
  -44.0339   57.3883   66.9411 C   0  0  0  0  0  0  0  0  0  0  0  0
  -45.3218   58.1366   66.6069 C   0  0  0  0  0  0  0  0  0  0  0  0
  -45.4703   58.4896   65.1279 C   0  0  0  0  0  0  0  0  0  0  0  0
  -46.8772   58.9203   64.7138 C   0  0  0  0  0  0  0  0  0  0  0  0
  -47.8473   59.0427   65.8891 C   0  0  0  0  0  0  0  0  0  0  0  0
  -49.0333   59.9780   65.6546 C   0  0  0  0  0  0  0  0  0  0  0  0
  -50.4038   59.2953   65.6589 C   0  0  0  0  0  0  0  0  0  0  0  0
  -51.4429   60.0685   64.8996 C   0  0  0  0  0  0  0  0  0  0  0  0
  -51.6892   59.9774   63.6046 C   0  0  0  0  0  0  0  0  0  0  0  0
  -50.9824   59.0812   62.6334 C   0  0  0  0  0  0  0  0  0  0  0  0
  -49.7294   59.7083   62.0185 C   0  0  0  0  0  0  0  0  0  0  0  0
  -49.5201   59.3277   60.5588 C   0  0  0  0  0  0  0  0  0  0  0  0
  -49.9034   57.8850   60.2488 C   0  0  0  0  0  0  0  0  0  0  0  0
  -49.3325   57.3471   58.9417 C   0  0  0  0  0  0  0  0  0  0  0  0
  -48.0506   56.5452   59.1168 C   0  0  0  0  0  0  0  0  0  0  0  0
  -46.9134   56.9834   58.2075 C   0  0  0  0  0  0  0  0  0  0  0  0
  -47.3971   57.6898   56.9574 C   0  0  0  0  0  0  0  0  0  0  0  0
  -38.3586   61.1912   66.8094 O   0  0  0  0  0  0  0  0  0  0  0  0
  -38.6717   60.9889   65.4282 C   0  0  0  0  0  0  0  0  0  0  0  0
  -37.4692   61.5701   66.8871 H   0  0  0  0  0  0  0  0  0  0  0  0
  -40.0413   60.4033   65.2694 C   0  0  0  0  0  0  0  0  0  0  0  0
  -40.9641   60.8477   64.4394 C   0  0  0  0  0  0  0  0  0  0  0  0
  -42.3170   60.2321   64.2934 C   0  0  0  0  0  0  0  0  0  0  0  0
  -42.7541   60.2054   62.8273 C   0  0  0  0  0  0  0  0  0  0  0  0
  -42.4159   61.4693   62.0533 C   0  0  0  0  0  0  0  0  0  0  0  0
  -41.7434   61.2204   60.7140 C   0  0  0  0  0  0  0  0  0  0  0  0
  -41.1297   59.8346   60.5779 C   0  0  0  0  0  0  0  0  0  0  0  0
  -39.6215   59.8126   60.7724 C   0  0  0  0  0  0  0  0  0  0  0  0
  -38.9005   58.8388   59.8568 C   0  0  0  0  0  0  0  0  0  0  0  0
  -37.3987   58.7887   60.0675 C   0  0  0  0  0  0  0  0  0  0  0  0
  -36.9751   57.9959   61.2920 C   0  0  0  0  0  0  0  0  0  0  0  0
  -35.5671   58.3235   61.7532 C   0  0  0  0  0  0  0  0  0  0  0  0
  -34.9390   57.2694   62.6448 C   0  0  0  0  0  0  0  0  0  0  0  0
  -35.1299   57.5649   64.1195 C   0  0  0  0  0  0  0  0  0  0  0  0
  -33.9065   58.2002   64.7472 C   0  0  0  0  0  0  0  0  0  0  0  0
  -36.5510   60.8827   64.0510 C   0  0  0  0  0  0  0  0  0  0  0  0
  -36.9202   62.2656   64.0958 O   0  0  0  0  0  0  0  0  0  0  0  0
  -34.4596   61.4970   65.1891 O   0  0  0  0  0  0  0  0  0  0  0  0
  -33.4566   63.5855   61.5623 O   0  0  0  0  0  0  0  0  0  0  0  0
  -35.9136   64.0259   62.9929 O   0  0  0  0  0  0  0  0  0  0  0  0
  -35.8381   63.1505   64.1025 C   0  0  0  0  0  0  0  0  0  0  0  0
  -34.5569   62.3291   64.0402 C   0  0  0  0  0  0  0  0  0  0  0  0
  -33.3509   63.2564   63.9571 C   0  0  0  0  0  0  0  0  0  0  0  0
  -33.5059   64.2539   62.8187 C   0  0  0  0  0  0  0  0  0  0  0  0
  -34.8414   64.9813   62.9524 C   0  0  0  0  0  0  0  0  0  0  0  0
  -35.2322   60.9119   65.2309 H   0  0  0  0  0  0  0  0  0  0  0  0
  -32.6086   63.1227   61.4752 H   0  0  0  0  0  0  0  0  0  0  0  0
  -34.0350   66.7872   61.5463 O   0  0  0  0  0  0  0  0  0  0  0  0
  -35.1292   65.9133   61.7988 C   0  0  0  0  0  0  0  0  0  0  0  0
  -34.2519   67.3703   60.8022 H   0  0  0  0  0  0  0  0  0  0  0  0
  -32.2216   62.3696   63.6787 O   0  0  0  0  0  0  0  0  0  0  0  0
  -31.5760   61.7202   61.4497 O   0  0  0  0  0  0  0  0  0  0  0  0
  -33.7378   60.9088   62.4417 O   0  0  0  0  0  0  0  0  0  0  0  0
  -31.6342   60.1116   63.2008 O   0  0  0  0  0  0  0  0  0  0  0  0
  -32.3759   61.2808   62.5323 S   0  0  0  0  0  0  0  0  0  0  0  0
  -32.0152   62.4607   61.0028 H   0  0  0  0  0  0  0  0  0  0  0  0
  -30.6925   60.3297   63.2810 H   0  0  0  0  0  0  0  0  0  0  0  0
  2  1  1  0  0  0
  2  4  1  0  0  0
  2  5  1  0  0  0
 47 48  1  0  0  0
 47  1  1  0  0  0
 48 52  1  0  0  0
  1 30  1  0  0  0
 29 30  1  0  0  0
 29 31  1  0  0  0
 30 32  1  0  0  0
  3  4  2  0  0  0
 32 33  2  0  0  0
 49 53  1  0  0  0
 49 57  1  0  0  0
 33 34  1  0  0  0
 62 54  1  0  0  0
 62 66  1  0  0  0
 34 35  1  0  0  0
 50 55  1  0  0  0
 50 58  1  0  0  0
 35 36  1  0  0  0
 51 52  1  0  0  0
 51 56  1  0  0  0
 36 37  1  0  0  0
 59 60  1  0  0  0
 59 61  1  0  0  0
 37 38  1  0  0  0
 63 66  1  0  0  0
 63 67  1  0  0  0
 38 39  1  0  0  0
 64 66  1  0  0  0
 39 40  1  0  0  0
 65 66  1  0  0  0
 65 68  1  0  0  0
 40 41  1  0  0  0
 41 42  1  0  0  0
 42 43  1  0  0  0
 43 44  1  0  0  0
 44 45  1  0  0  0
 45 46  1  0  0  0
  4  6  1  0  0  0
  6  7  1  0  0  0
  7  8  1  0  0  0
  8  9  1  0  0  0
  9 10  1  0  0  0
 10 11  1  0  0  0
 11 12  1  0  0  0
 12 13  1  0  0  0
 13 14  1  0  0  0
 14 15  1  0  0  0
 15 16  1  0  0  0
 16 17  1  0  0  0
 17 18  1  0  0  0
 18 19  1  0  0  0
 19 20  2  0  0  0
 20 21  1  0  0  0
 21 22  1  0  0  0
 22 23  1  0  0  0
 23 24  1  0  0  0
 24 25  1  0  0  0
 25 26  1  0  0  0
 26 27  1  0  0  0
 27 28  1  0  0  0
 52 53  1  0  0  0
 53 54  1  0  0  0
 54 55  1  0  0  0
 55 56  1  0  0  0
 56 60  1  0  0  0
M  CHG 1  64  -1
M  END
> <minimizedAffinity>
-8.39380

> <CNNscore>
0.0821429417

> <CNNaffinity>
7.3039536476

> <CNN_VS>
0.5999682546

> <CNNaffinity_variance>
1.4489167929

$$$$
/media/chris/experiments/cd1a-new-docking/inputs/ligands/7ryn_ligand.pdb


 68 68  0  0  0  0  0  0  0  0999 V2000
  -39.7065   59.9088   64.5914 C   0  0  0  0  0  0  0  0  0  0  0  0
  -40.6974   59.8589   63.5205 N   0  0  0  0  0  0  0  0  0  0  0  0
  -41.4790   61.9476   63.8270 O   0  0  0  0  0  0  0  0  0  0  0  0
  -41.5052   60.8799   63.2219 C   0  0  0  0  0  0  0  0  0  0  0  0
  -40.7741   59.0317   62.9923 H   0  0  0  0  0  0  0  0  0  0  0  0
  -42.4590   60.6440   62.0774 C   0  0  0  0  0  0  0  0  0  0  0  0
  -41.8799   61.0736   60.7355 C   0  0  0  0  0  0  0  0  0  0  0  0
  -41.1710   59.9395   60.0126 C   0  0  0  0  0  0  0  0  0  0  0  0
  -39.6548   60.0306   60.0610 C   0  0  0  0  0  0  0  0  0  0  0  0
  -38.9519   58.6945   59.8730 C   0  0  0  0  0  0  0  0  0  0  0  0
  -38.7041   57.9365   61.1709 C   0  0  0  0  0  0  0  0  0  0  0  0
  -37.3696   58.2611   61.8297 C   0  0  0  0  0  0  0  0  0  0  0  0
  -36.7949   57.1352   62.6856 C   0  0  0  0  0  0  0  0  0  0  0  0
  -36.2886   57.5901   64.0534 C   0  0  0  0  0  0  0  0  0  0  0  0
  -34.8103   57.3014   64.3138 C   0  0  0  0  0  0  0  0  0  0  0  0
  -33.8809   58.4278   63.8612 C   0  0  0  0  0  0  0  0  0  0  0  0
  -33.2985   58.2618   62.4577 C   0  0  0  0  0  0  0  0  0  0  0  0
  -32.5875   59.4994   61.9038 C   0  0  0  0  0  0  0  0  0  0  0  0
  -31.2429   59.7293   62.5311 C   0  0  0  0  0  0  0  0  0  0  0  0
  -30.6655   60.9014   62.7271 C   0  0  0  0  0  0  0  0  0  0  0  0
  -31.2382   62.2382   62.3650 C   0  0  0  0  0  0  0  0  0  0  0  0
  -30.6535   62.8298   61.0808 C   0  0  0  0  0  0  0  0  0  0  0  0
  -30.3658   64.3219   61.1818 C   0  0  0  0  0  0  0  0  0  0  0  0
  -30.3881   64.8467   62.6130 C   0  0  0  0  0  0  0  0  0  0  0  0
  -30.7168   66.3302   62.7363 C   0  0  0  0  0  0  0  0  0  0  0  0
  -31.6073   66.6639   63.9249 C   0  0  0  0  0  0  0  0  0  0  0  0
  -31.2246   65.9467   65.2099 C   0  0  0  0  0  0  0  0  0  0  0  0
  -32.3682   65.8614   66.2002 C   0  0  0  0  0  0  0  0  0  0  0  0
  -39.3825   60.5148   66.9072 O   0  0  0  0  0  0  0  0  0  0  0  0
  -40.3706   60.4297   65.8762 C   0  0  0  0  0  0  0  0  0  0  0  0
  -38.6560   61.0857   66.6124 H   0  0  0  0  0  0  0  0  0  0  0  0
  -41.5105   59.5538   66.2974 C   0  0  0  0  0  0  0  0  0  0  0  0
  -41.6400   58.2783   65.9906 C   0  0  0  0  0  0  0  0  0  0  0  0
  -42.7825   57.4271   66.4390 C   0  0  0  0  0  0  0  0  0  0  0  0
  -43.8381   57.2989   65.3388 C   0  0  0  0  0  0  0  0  0  0  0  0
  -44.9547   58.3268   65.4240 C   0  0  0  0  0  0  0  0  0  0  0  0
  -45.2813   58.7787   66.8372 C   0  0  0  0  0  0  0  0  0  0  0  0
  -46.7263   58.5337   67.2468 C   0  0  0  0  0  0  0  0  0  0  0  0
  -47.3876   57.3874   66.4972 C   0  0  0  0  0  0  0  0  0  0  0  0
  -48.5635   57.8163   65.6373 C   0  0  0  0  0  0  0  0  0  0  0  0
  -48.6746   59.3175   65.4463 C   0  0  0  0  0  0  0  0  0  0  0  0
  -49.8801   59.7462   64.6275 C   0  0  0  0  0  0  0  0  0  0  0  0
  -50.2958   58.7126   63.5972 C   0  0  0  0  0  0  0  0  0  0  0  0
  -49.3075   58.5279   62.4616 C   0  0  0  0  0  0  0  0  0  0  0  0
  -49.8102   59.1039   61.1524 C   0  0  0  0  0  0  0  0  0  0  0  0
  -49.3525   58.3019   59.9517 C   0  0  0  0  0  0  0  0  0  0  0  0
  -38.5303   60.7658   64.1714 C   0  0  0  0  0  0  0  0  0  0  0  0
  -37.3534   60.2609   64.8122 O   0  0  0  0  0  0  0  0  0  0  0  0
  -37.0221   61.7578   62.4691 O   0  0  0  0  0  0  0  0  0  0  0  0
  -35.7700   64.3789   65.6446 O   0  0  0  0  0  0  0  0  0  0  0  0
  -35.7304   61.5114   65.8755 O   0  0  0  0  0  0  0  0  0  0  0  0
  -36.2142   61.0499   64.6281 C   0  0  0  0  0  0  0  0  0  0  0  0
  -36.5950   62.2282   63.7412 C   0  0  0  0  0  0  0  0  0  0  0  0
  -35.4034   63.1644   63.5843 C   0  0  0  0  0  0  0  0  0  0  0  0
  -34.8394   63.5634   64.9399 C   0  0  0  0  0  0  0  0  0  0  0  0
  -34.5422   62.3107   65.7605 C   0  0  0  0  0  0  0  0  0  0  0  0
  -37.7803   61.1634   62.5820 H   0  0  0  0  0  0  0  0  0  0  0  0
  -35.9602   65.1755   65.1250 H   0  0  0  0  0  0  0  0  0  0  0  0
  -34.9496   63.5422   67.8115 O   0  0  0  0  0  0  0  0  0  0  0  0
  -34.0826   62.6162   67.1668 C   0  0  0  0  0  0  0  0  0  0  0  0
  -34.6270   63.7161   68.7095 H   0  0  0  0  0  0  0  0  0  0  0  0
  -35.9473   64.3458   62.9151 O   0  0  0  0  0  0  0  0  0  0  0  0
  -33.7993   64.5593   61.8441 O   0  0  0  0  0  0  0  0  0  0  0  0
  -35.5893   66.2839   61.4733 O   0  0  0  0  0  0  0  0  0  0  0  0
  -35.7447   64.1000   60.5549 O   0  0  0  0  0  0  0  0  0  0  0  0
  -35.1492   64.9562   61.6847 S   0  0  0  0  0  0  0  0  0  0  0  0
  -33.3902   65.0812   62.5520 H   0  0  0  0  0  0  0  0  0  0  0  0
  -35.4640   63.1782   60.6655 H   0  0  0  0  0  0  0  0  0  0  0  0
  2  1  1  0  0  0
  2  4  1  0  0  0
  2  5  1  0  0  0
 47 48  1  0  0  0
 47  1  1  0  0  0
 48 52  1  0  0  0
  1 30  1  0  0  0
 29 30  1  0  0  0
 29 31  1  0  0  0
 30 32  1  0  0  0
  3  4  2  0  0  0
 32 33  2  0  0  0
 49 53  1  0  0  0
 49 57  1  0  0  0
 33 34  1  0  0  0
 62 54  1  0  0  0
 62 66  1  0  0  0
 34 35  1  0  0  0
 50 55  1  0  0  0
 50 58  1  0  0  0
 35 36  1  0  0  0
 51 52  1  0  0  0
 51 56  1  0  0  0
 36 37  1  0  0  0
 59 60  1  0  0  0
 59 61  1  0  0  0
 37 38  1  0  0  0
 63 66  1  0  0  0
 63 67  1  0  0  0
 38 39  1  0  0  0
 64 66  1  0  0  0
 39 40  1  0  0  0
 65 66  1  0  0  0
 65 68  1  0  0  0
 40 41  1  0  0  0
 41 42  1  0  0  0
 42 43  1  0  0  0
 43 44  1  0  0  0
 44 45  1  0  0  0
 45 46  1  0  0  0
  4  6  1  0  0  0
  6  7  1  0  0  0
  7  8  1  0  0  0
  8  9  1  0  0  0
  9 10  1  0  0  0
 10 11  1  0  0  0
 11 12  1  0  0  0
 12 13  1  0  0  0
 13 14  1  0  0  0
 14 15  1  0  0  0
 15 16  1  0  0  0
 16 17  1  0  0  0
 17 18  1  0  0  0
 18 19  1  0  0  0
 19 20  2  0  0  0
 20 21  1  0  0  0
 21 22  1  0  0  0
 22 23  1  0  0  0
 23 24  1  0  0  0
 24 25  1  0  0  0
 25 26  1  0  0  0
 26 27  1  0  0  0
 27 28  1  0  0  0
 52 53  1  0  0  0
 53 54  1  0  0  0
 54 55  1  0  0  0
 55 56  1  0  0  0
 56 60  1  0  0  0
M  CHG 1  64  -1
M  END
> <minimizedAffinity>
-8.05765

> <CNNscore>
0.0641916767

> <CNNaffinity>
7.1754961014

> <CNN_VS>
0.4606071115

> <CNNaffinity_variance>
1.4723657370

$$$$
