/media/chris/experiments/cd1a-new-docking/inputs/ligands/7ryn_ligand.pdb


 68 68  0  0  0  0  0  0  0  0999 V2000
  -31.1302   62.5798   62.3974 C   0  0  0  0  0  0  0  0  0  0  0  0
  -32.2278   62.6348   63.3584 N   0  0  0  0  0  0  0  0  0  0  0  0
  -33.7747   63.3843   61.9046 O   0  0  0  0  0  0  0  0  0  0  0  0
  -33.4624   63.0319   63.0383 C   0  0  0  0  0  0  0  0  0  0  0  0
  -32.0493   62.3660   64.2884 H   0  0  0  0  0  0  0  0  0  0  0  0
  -34.4657   63.0148   64.1645 C   0  0  0  0  0  0  0  0  0  0  0  0
  -35.7720   62.3356   63.7737 C   0  0  0  0  0  0  0  0  0  0  0  0
  -36.4320   61.6181   64.9403 C   0  0  0  0  0  0  0  0  0  0  0  0
  -37.6535   60.8025   64.5505 C   0  0  0  0  0  0  0  0  0  0  0  0
  -38.3955   60.2014   65.7349 C   0  0  0  0  0  0  0  0  0  0  0  0
  -39.6739   59.4646   65.3563 C   0  0  0  0  0  0  0  0  0  0  0  0
  -40.8701   59.8140   66.2323 C   0  0  0  0  0  0  0  0  0  0  0  0
  -42.2097   59.3016   65.7095 C   0  0  0  0  0  0  0  0  0  0  0  0
  -42.3126   57.7783   65.6500 C   0  0  0  0  0  0  0  0  0  0  0  0
  -43.6013   57.2510   65.0197 C   0  0  0  0  0  0  0  0  0  0  0  0
  -44.6575   58.3336   64.7967 C   0  0  0  0  0  0  0  0  0  0  0  0
  -45.8740   58.2506   65.7186 C   0  0  0  0  0  0  0  0  0  0  0  0
  -47.1717   58.8060   65.1256 C   0  0  0  0  0  0  0  0  0  0  0  0
  -48.0278   59.5013   66.1444 C   0  0  0  0  0  0  0  0  0  0  0  0
  -49.3481   59.4855   66.1930 C   0  0  0  0  0  0  0  0  0  0  0  0
  -50.2570   58.7674   65.2419 C   0  0  0  0  0  0  0  0  0  0  0  0
  -51.0981   59.7030   64.3709 C   0  0  0  0  0  0  0  0  0  0  0  0
  -51.1647   59.2701   62.9123 C   0  0  0  0  0  0  0  0  0  0  0  0
  -49.8621   59.4981   62.1537 C   0  0  0  0  0  0  0  0  0  0  0  0
  -49.3119   58.2586   61.4575 C   0  0  0  0  0  0  0  0  0  0  0  0
  -49.0476   58.4568   59.9715 C   0  0  0  0  0  0  0  0  0  0  0  0
  -48.1270   57.4134   59.3587 C   0  0  0  0  0  0  0  0  0  0  0  0
  -47.7560   57.7251   57.9230 C   0  0  0  0  0  0  0  0  0  0  0  0
  -30.8767   61.0885   60.5141 O   0  0  0  0  0  0  0  0  0  0  0  0
  -30.9229   61.1259   61.9434 C   0  0  0  0  0  0  0  0  0  0  0  0
  -30.1721   61.6756   60.1979 H   0  0  0  0  0  0  0  0  0  0  0  0
  -32.0019   60.2291   62.4682 C   0  0  0  0  0  0  0  0  0  0  0  0
  -31.8275   58.9828   62.8609 C   0  0  0  0  0  0  0  0  0  0  0  0
  -32.9223   58.1181   63.3941 C   0  0  0  0  0  0  0  0  0  0  0  0
  -34.1823   58.9384   63.6785 C   0  0  0  0  0  0  0  0  0  0  0  0
  -35.2880   58.1612   64.3741 C   0  0  0  0  0  0  0  0  0  0  0  0
  -36.2577   57.4730   63.4286 C   0  0  0  0  0  0  0  0  0  0  0  0
  -36.3145   58.0944   62.0406 C   0  0  0  0  0  0  0  0  0  0  0  0
  -37.7250   58.4208   61.5747 C   0  0  0  0  0  0  0  0  0  0  0  0
  -38.8123   57.8148   62.4446 C   0  0  0  0  0  0  0  0  0  0  0  0
  -39.9407   57.1680   61.6629 C   0  0  0  0  0  0  0  0  0  0  0  0
  -41.3221   57.6681   62.0488 C   0  0  0  0  0  0  0  0  0  0  0  0
  -41.6858   58.9814   61.3814 C   0  0  0  0  0  0  0  0  0  0  0  0
  -42.0957   60.0802   62.3431 C   0  0  0  0  0  0  0  0  0  0  0  0
  -42.4602   61.3694   61.6335 C   0  0  0  0  0  0  0  0  0  0  0  0
  -42.8790   62.4626   62.5946 C   0  0  0  0  0  0  0  0  0  0  0  0
  -29.8755   63.1695   63.0075 C   0  0  0  0  0  0  0  0  0  0  0  0
  -29.3182   64.1041   62.0765 O   0  0  0  0  0  0  0  0  0  0  0  0
  -31.1764   65.6955   63.4388 O   0  0  0  0  0  0  0  0  0  0  0  0
  -29.8810   68.1035   60.1154 O   0  0  0  0  0  0  0  0  0  0  0  0
  -29.7534   65.2293   60.1085 O   0  0  0  0  0  0  0  0  0  0  0  0
  -30.2674   64.8499   61.3715 C   0  0  0  0  0  0  0  0  0  0  0  0
  -30.6044   66.0850   62.1966 C   0  0  0  0  0  0  0  0  0  0  0  0
  -31.5723   66.9741   61.4262 C   0  0  0  0  0  0  0  0  0  0  0  0
  -31.0415   67.2823   60.0340 C   0  0  0  0  0  0  0  0  0  0  0  0
  -30.6902   65.9799   59.3192 C   0  0  0  0  0  0  0  0  0  0  0  0
  -30.5514   65.1305   63.9195 H   0  0  0  0  0  0  0  0  0  0  0  0
  -30.1020   68.9317   60.5692 H   0  0  0  0  0  0  0  0  0  0  0  0
  -28.8262   65.4794   57.8481 O   0  0  0  0  0  0  0  0  0  0  0  0
  -30.0490   66.1970   57.9686 C   0  0  0  0  0  0  0  0  0  0  0  0
  -28.4418   65.6401   56.9722 H   0  0  0  0  0  0  0  0  0  0  0  0
  -31.6409   68.2091   62.2069 O   0  0  0  0  0  0  0  0  0  0  0  0
  -33.3553   69.6694   63.0640 O   0  0  0  0  0  0  0  0  0  0  0  0
  -32.3852   67.8535   64.5052 O   0  0  0  0  0  0  0  0  0  0  0  0
  -33.8194   67.3691   62.6762 O   0  0  0  0  0  0  0  0  0  0  0  0
  -32.8159   68.3754   63.2629 S   0  0  0  0  0  0  0  0  0  0  0  0
  -32.7457   70.3327   63.4238 H   0  0  0  0  0  0  0  0  0  0  0  0
  -34.1392   67.6932   61.8198 H   0  0  0  0  0  0  0  0  0  0  0  0
  2  1  1  0  0  0
  2  4  1  0  0  0
  2  5  1  0  0  0
 47 48  1  0  0  0
 47  1  1  0  0  0
 48 52  1  0  0  0
  1 30  1  0  0  0
 29 30  1  0  0  0
 29 31  1  0  0  0
 30 32  1  0  0  0
  3  4  2  0  0  0
 32 33  2  0  0  0
 49 53  1  0  0  0
 49 57  1  0  0  0
 33 34  1  0  0  0
 62 54  1  0  0  0
 62 66  1  0  0  0
 34 35  1  0  0  0
 50 55  1  0  0  0
 50 58  1  0  0  0
 35 36  1  0  0  0
 51 52  1  0  0  0
 51 56  1  0  0  0
 36 37  1  0  0  0
 59 60  1  0  0  0
 59 61  1  0  0  0
 37 38  1  0  0  0
 63 66  1  0  0  0
 63 67  1  0  0  0
 38 39  1  0  0  0
 64 66  1  0  0  0
 39 40  1  0  0  0
 65 66  1  0  0  0
 65 68  1  0  0  0
 40 41  1  0  0  0
 41 42  1  0  0  0
 42 43  1  0  0  0
 43 44  1  0  0  0
 44 45  1  0  0  0
 45 46  1  0  0  0
  4  6  1  0  0  0
  6  7  1  0  0  0
  7  8  1  0  0  0
  8  9  1  0  0  0
  9 10  1  0  0  0
 10 11  1  0  0  0
 11 12  1  0  0  0
 12 13  1  0  0  0
 13 14  1  0  0  0
 14 15  1  0  0  0
 15 16  1  0  0  0
 16 17  1  0  0  0
 17 18  1  0  0  0
 18 19  1  0  0  0
 19 20  2  0  0  0
 20 21  1  0  0  0
 21 22  1  0  0  0
 22 23  1  0  0  0
 23 24  1  0  0  0
 24 25  1  0  0  0
 25 26  1  0  0  0
 26 27  1  0  0  0
 27 28  1  0  0  0
 52 53  1  0  0  0
 53 54  1  0  0  0
 54 55  1  0  0  0
 55 56  1  0  0  0
 56 60  1  0  0  0
M  CHG 1  64  -1
M  END
> <minimizedAffinity>
-9.15054

> <CNNscore>
0.5402275324

> <CNNaffinity>
7.2365579605

> <CNN_VS>
3.9093878269

> <CNNaffinity_variance>
1.2313693762

$$$$
/media/chris/experiments/cd1a-new-docking/inputs/ligands/7ryn_ligand.pdb


 68 68  0  0  0  0  0  0  0  0999 V2000
  -32.1158   62.4758   62.6296 C   0  0  0  0  0  0  0  0  0  0  0  0
  -32.9130   62.7490   63.8217 N   0  0  0  0  0  0  0  0  0  0  0  0
  -34.6550   63.6695   62.7326 O   0  0  0  0  0  0  0  0  0  0  0  0
  -34.1182   63.3234   63.7810 C   0  0  0  0  0  0  0  0  0  0  0  0
  -32.5440   62.4974   64.6990 H   0  0  0  0  0  0  0  0  0  0  0  0
  -34.7936   63.5179   65.1156 C   0  0  0  0  0  0  0  0  0  0  0  0
  -36.1479   62.8246   65.1923 C   0  0  0  0  0  0  0  0  0  0  0  0
  -36.0282   61.3114   65.2777 C   0  0  0  0  0  0  0  0  0  0  0  0
  -37.0896   60.5639   64.4877 C   0  0  0  0  0  0  0  0  0  0  0  0
  -37.9681   59.6601   65.3397 C   0  0  0  0  0  0  0  0  0  0  0  0
  -39.4291   59.6312   64.9094 C   0  0  0  0  0  0  0  0  0  0  0  0
  -40.4035   60.0419   66.0059 C   0  0  0  0  0  0  0  0  0  0  0  0
  -41.8539   59.6419   65.7473 C   0  0  0  0  0  0  0  0  0  0  0  0
  -42.4931   58.8493   66.8864 C   0  0  0  0  0  0  0  0  0  0  0  0
  -43.4221   57.7224   66.4357 C   0  0  0  0  0  0  0  0  0  0  0  0
  -44.6320   58.2122   65.6397 C   0  0  0  0  0  0  0  0  0  0  0  0
  -45.8556   58.5758   66.4806 C   0  0  0  0  0  0  0  0  0  0  0  0
  -47.1747   58.6396   65.7059 C   0  0  0  0  0  0  0  0  0  0  0  0
  -48.2127   59.4816   66.3900 C   0  0  0  0  0  0  0  0  0  0  0  0
  -49.5061   59.4946   66.1199 C   0  0  0  0  0  0  0  0  0  0  0  0
  -50.1977   58.6690   65.0777 C   0  0  0  0  0  0  0  0  0  0  0  0
  -50.9539   59.4990   64.0382 C   0  0  0  0  0  0  0  0  0  0  0  0
  -51.1323   58.7801   62.7075 C   0  0  0  0  0  0  0  0  0  0  0  0
  -49.8142   58.4622   62.0104 C   0  0  0  0  0  0  0  0  0  0  0  0
  -49.6131   59.1821   60.6819 C   0  0  0  0  0  0  0  0  0  0  0  0
  -49.1284   58.2744   59.5602 C   0  0  0  0  0  0  0  0  0  0  0  0
  -48.1341   57.2133   60.0041 C   0  0  0  0  0  0  0  0  0  0  0  0
  -47.9910   56.0843   59.0037 C   0  0  0  0  0  0  0  0  0  0  0  0
  -31.3891   60.6446   61.2319 O   0  0  0  0  0  0  0  0  0  0  0  0
  -31.7972   60.9735   62.5630 C   0  0  0  0  0  0  0  0  0  0  0  0
  -30.6284   61.1923   60.9823 H   0  0  0  0  0  0  0  0  0  0  0  0
  -32.9725   60.1452   62.9832 C   0  0  0  0  0  0  0  0  0  0  0  0
  -32.9017   59.0227   63.6709 C   0  0  0  0  0  0  0  0  0  0  0  0
  -34.0945   58.2266   64.0880 C   0  0  0  0  0  0  0  0  0  0  0  0
  -35.0821   58.0674   62.9301 C   0  0  0  0  0  0  0  0  0  0  0  0
  -36.2367   57.1225   63.2214 C   0  0  0  0  0  0  0  0  0  0  0  0
  -37.4598   57.3431   62.3478 C   0  0  0  0  0  0  0  0  0  0  0  0
  -37.2443   58.3456   61.2234 C   0  0  0  0  0  0  0  0  0  0  0  0
  -38.2587   59.4788   61.2126 C   0  0  0  0  0  0  0  0  0  0  0  0
  -39.1912   59.4539   60.0143 C   0  0  0  0  0  0  0  0  0  0  0  0
  -40.6587   59.6044   60.3696 C   0  0  0  0  0  0  0  0  0  0  0  0
  -41.5439   58.5058   59.8069 C   0  0  0  0  0  0  0  0  0  0  0  0
  -41.7764   57.3706   60.7867 C   0  0  0  0  0  0  0  0  0  0  0  0
  -41.9331   57.8109   62.2295 C   0  0  0  0  0  0  0  0  0  0  0  0
  -41.0193   57.0529   63.1724 C   0  0  0  0  0  0  0  0  0  0  0  0
  -41.7017   55.8588   63.8071 C   0  0  0  0  0  0  0  0  0  0  0  0
  -30.8605   63.3235   62.6386 C   0  0  0  0  0  0  0  0  0  0  0  0
  -31.2479   64.7019   62.6664 O   0  0  0  0  0  0  0  0  0  0  0  0
  -31.0777   64.6509   59.8719 O   0  0  0  0  0  0  0  0  0  0  0  0
  -31.0473   68.8279   60.9078 O   0  0  0  0  0  0  0  0  0  0  0  0
  -30.2042   66.7600   62.7218 O   0  0  0  0  0  0  0  0  0  0  0  0
  -30.3738   65.5593   61.9919 C   0  0  0  0  0  0  0  0  0  0  0  0
  -30.9675   65.8547   60.6207 C   0  0  0  0  0  0  0  0  0  0  0  0
  -30.0900   66.8570   59.8816 C   0  0  0  0  0  0  0  0  0  0  0  0
  -29.8396   68.0947   60.7304 C   0  0  0  0  0  0  0  0  0  0  0  0
  -29.2953   67.6791   62.0949 C   0  0  0  0  0  0  0  0  0  0  0  0
  -31.6381   64.0215   60.3522 H   0  0  0  0  0  0  0  0  0  0  0  0
  -31.3948   69.0931   60.0420 H   0  0  0  0  0  0  0  0  0  0  0  0
  -28.7032   68.4055   64.3334 O   0  0  0  0  0  0  0  0  0  0  0  0
  -29.1229   68.8407   63.0453 C   0  0  0  0  0  0  0  0  0  0  0  0
  -28.6024   69.1733   64.9173 H   0  0  0  0  0  0  0  0  0  0  0  0
  -30.8664   67.2257   58.6981 O   0  0  0  0  0  0  0  0  0  0  0  0
  -30.1003   65.4922   57.2099 O   0  0  0  0  0  0  0  0  0  0  0  0
  -29.2646   67.8495   56.9638 O   0  0  0  0  0  0  0  0  0  0  0  0
  -31.4900   67.2443   56.3997 O   0  0  0  0  0  0  0  0  0  0  0  0
  -30.2668   66.8974   57.2642 S   0  0  0  0  0  0  0  0  0  0  0  0
  -29.3339   65.2364   57.7466 H   0  0  0  0  0  0  0  0  0  0  0  0
  -32.2023   66.6105   56.5781 H   0  0  0  0  0  0  0  0  0  0  0  0
  2  1  1  0  0  0
  2  4  1  0  0  0
  2  5  1  0  0  0
 47 48  1  0  0  0
 47  1  1  0  0  0
 48 52  1  0  0  0
  1 30  1  0  0  0
 29 30  1  0  0  0
 29 31  1  0  0  0
 30 32  1  0  0  0
  3  4  2  0  0  0
 32 33  2  0  0  0
 49 53  1  0  0  0
 49 57  1  0  0  0
 33 34  1  0  0  0
 62 54  1  0  0  0
 62 66  1  0  0  0
 34 35  1  0  0  0
 50 55  1  0  0  0
 50 58  1  0  0  0
 35 36  1  0  0  0
 51 52  1  0  0  0
 51 56  1  0  0  0
 36 37  1  0  0  0
 59 60  1  0  0  0
 59 61  1  0  0  0
 37 38  1  0  0  0
 63 66  1  0  0  0
 63 67  1  0  0  0
 38 39  1  0  0  0
 64 66  1  0  0  0
 39 40  1  0  0  0
 65 66  1  0  0  0
 65 68  1  0  0  0
 40 41  1  0  0  0
 41 42  1  0  0  0
 42 43  1  0  0  0
 43 44  1  0  0  0
 44 45  1  0  0  0
 45 46  1  0  0  0
  4  6  1  0  0  0
  6  7  1  0  0  0
  7  8  1  0  0  0
  8  9  1  0  0  0
  9 10  1  0  0  0
 10 11  1  0  0  0
 11 12  1  0  0  0
 12 13  1  0  0  0
 13 14  1  0  0  0
 14 15  1  0  0  0
 15 16  1  0  0  0
 16 17  1  0  0  0
 17 18  1  0  0  0
 18 19  1  0  0  0
 19 20  2  0  0  0
 20 21  1  0  0  0
 21 22  1  0  0  0
 22 23  1  0  0  0
 23 24  1  0  0  0
 24 25  1  0  0  0
 25 26  1  0  0  0
 26 27  1  0  0  0
 27 28  1  0  0  0
 52 53  1  0  0  0
 53 54  1  0  0  0
 54 55  1  0  0  0
 55 56  1  0  0  0
 56 60  1  0  0  0
M  CHG 1  64  -1
M  END
> <minimizedAffinity>
-8.77393

> <CNNscore>
0.4446349740

> <CNNaffinity>
7.0017328262

> <CNN_VS>
3.1132152081

> <CNNaffinity_variance>
1.0012556314

$$$$
/media/chris/experiments/cd1a-new-docking/inputs/ligands/7ryn_ligand.pdb


 68 68  0  0  0  0  0  0  0  0999 V2000
  -33.1562   62.1837   63.3228 C   0  0  0  0  0  0  0  0  0  0  0  0
  -34.0323   61.5536   64.3060 N   0  0  0  0  0  0  0  0  0  0  0  0
  -35.9357   61.8330   63.1370 O   0  0  0  0  0  0  0  0  0  0  0  0
  -35.3512   61.4273   64.1374 C   0  0  0  0  0  0  0  0  0  0  0  0
  -33.6310   61.2045   65.1345 H   0  0  0  0  0  0  0  0  0  0  0  0
  -36.0897   60.7411   65.2595 C   0  0  0  0  0  0  0  0  0  0  0  0
  -37.4476   60.2052   64.8243 C   0  0  0  0  0  0  0  0  0  0  0  0
  -38.4323   60.0966   65.9775 C   0  0  0  0  0  0  0  0  0  0  0  0
  -39.8351   59.6939   65.5540 C   0  0  0  0  0  0  0  0  0  0  0  0
  -40.9337   60.5384   66.1820 C   0  0  0  0  0  0  0  0  0  0  0  0
  -42.1477   59.7381   66.6362 C   0  0  0  0  0  0  0  0  0  0  0  0
  -42.1199   58.2772   66.2059 C   0  0  0  0  0  0  0  0  0  0  0  0
  -43.4166   57.5150   66.4666 C   0  0  0  0  0  0  0  0  0  0  0  0
  -44.3781   57.4989   65.2793 C   0  0  0  0  0  0  0  0  0  0  0  0
  -45.4049   58.6311   65.2757 C   0  0  0  0  0  0  0  0  0  0  0  0
  -46.8527   58.1402   65.2552 C   0  0  0  0  0  0  0  0  0  0  0  0
  -47.7299   58.6644   66.3920 C   0  0  0  0  0  0  0  0  0  0  0  0
  -48.9659   59.4489   65.9438 C   0  0  0  0  0  0  0  0  0  0  0  0
  -48.7195   60.2721   64.7127 C   0  0  0  0  0  0  0  0  0  0  0  0
  -49.5420   60.4041   63.6870 C   0  0  0  0  0  0  0  0  0  0  0  0
  -50.8882   59.7604   63.5477 C   0  0  0  0  0  0  0  0  0  0  0  0
  -50.9328   58.6505   62.4953 C   0  0  0  0  0  0  0  0  0  0  0  0
  -49.5781   58.3695   61.8588 C   0  0  0  0  0  0  0  0  0  0  0  0
  -49.6654   57.4991   60.6102 C   0  0  0  0  0  0  0  0  0  0  0  0
  -48.5305   57.7085   59.6142 C   0  0  0  0  0  0  0  0  0  0  0  0
  -47.8189   56.4229   59.2167 C   0  0  0  0  0  0  0  0  0  0  0  0
  -47.0194   56.5272   57.9277 C   0  0  0  0  0  0  0  0  0  0  0  0
  -47.6290   57.4937   56.9326 C   0  0  0  0  0  0  0  0  0  0  0  0
  -31.7267   61.4492   61.5196 O   0  0  0  0  0  0  0  0  0  0  0  0
  -32.0824   61.1777   62.8783 C   0  0  0  0  0  0  0  0  0  0  0  0
  -31.4236   62.3675   61.4420 H   0  0  0  0  0  0  0  0  0  0  0  0
  -32.5562   59.7654   63.0361 C   0  0  0  0  0  0  0  0  0  0  0  0
  -32.9499   58.9833   62.0505 C   0  0  0  0  0  0  0  0  0  0  0  0
  -33.4033   57.5728   62.2388 C   0  0  0  0  0  0  0  0  0  0  0  0
  -34.6957   57.5147   63.0559 C   0  0  0  0  0  0  0  0  0  0  0  0
  -35.9481   57.8593   62.2664 C   0  0  0  0  0  0  0  0  0  0  0  0
  -37.2228   57.2430   62.8170 C   0  0  0  0  0  0  0  0  0  0  0  0
  -38.4725   57.5927   62.0221 C   0  0  0  0  0  0  0  0  0  0  0  0
  -38.2832   58.7637   61.0702 C   0  0  0  0  0  0  0  0  0  0  0  0
  -39.5395   59.1383   60.3037 C   0  0  0  0  0  0  0  0  0  0  0  0
  -40.5430   58.0079   60.1710 C   0  0  0  0  0  0  0  0  0  0  0  0
  -41.9061   58.3223   60.7631 C   0  0  0  0  0  0  0  0  0  0  0  0
  -41.8907   58.4032   62.2783 C   0  0  0  0  0  0  0  0  0  0  0  0
  -42.6543   59.5822   62.8503 C   0  0  0  0  0  0  0  0  0  0  0  0
  -41.9496   60.9034   62.6123 C   0  0  0  0  0  0  0  0  0  0  0  0
  -42.7905   61.8729   61.8077 C   0  0  0  0  0  0  0  0  0  0  0  0
  -32.5490   63.4453   63.9009 C   0  0  0  0  0  0  0  0  0  0  0  0
  -31.2424   63.6144   63.3399 O   0  0  0  0  0  0  0  0  0  0  0  0
  -30.3602   63.9694   60.7061 O   0  0  0  0  0  0  0  0  0  0  0  0
  -33.3011   67.0521   61.3147 O   0  0  0  0  0  0  0  0  0  0  0  0
  -31.8337   65.8418   63.4732 O   0  0  0  0  0  0  0  0  0  0  0  0
  -30.9915   64.8960   62.8411 C   0  0  0  0  0  0  0  0  0  0  0  0
  -31.2520   64.8773   61.3405 C   0  0  0  0  0  0  0  0  0  0  0  0
  -31.0753   66.2776   60.7669 C   0  0  0  0  0  0  0  0  0  0  0  0
  -31.9142   67.2912   61.5310 C   0  0  0  0  0  0  0  0  0  0  0  0
  -31.6099   67.1877   63.0234 C   0  0  0  0  0  0  0  0  0  0  0  0
  -30.4822   63.0825   61.0794 H   0  0  0  0  0  0  0  0  0  0  0  0
  -33.4966   67.1175   60.3669 H   0  0  0  0  0  0  0  0  0  0  0  0
  -32.9921   69.1799   63.1221 O   0  0  0  0  0  0  0  0  0  0  0  0
  -32.4823   68.0831   63.8717 C   0  0  0  0  0  0  0  0  0  0  0  0
  -33.5462   69.7332   63.6945 H   0  0  0  0  0  0  0  0  0  0  0  0
  -31.5632   66.1778   59.3916 O   0  0  0  0  0  0  0  0  0  0  0  0
  -30.9236   66.0813   57.0704 O   0  0  0  0  0  0  0  0  0  0  0  0
  -29.4537   67.2298   58.7544 O   0  0  0  0  0  0  0  0  0  0  0  0
  -31.5285   68.1554   58.0651 O   0  0  0  0  0  0  0  0  0  0  0  0
  -30.7164   66.8609   58.2342 S   0  0  0  0  0  0  0  0  0  0  0  0
  -30.4237   65.2531   57.1427 H   0  0  0  0  0  0  0  0  0  0  0  0
  -32.4052   67.9429   57.7085 H   0  0  0  0  0  0  0  0  0  0  0  0
  2  1  1  0  0  0
  2  4  1  0  0  0
  2  5  1  0  0  0
 47 48  1  0  0  0
 47  1  1  0  0  0
 48 52  1  0  0  0
  1 30  1  0  0  0
 29 30  1  0  0  0
 29 31  1  0  0  0
 30 32  1  0  0  0
  3  4  2  0  0  0
 32 33  2  0  0  0
 49 53  1  0  0  0
 49 57  1  0  0  0
 33 34  1  0  0  0
 62 54  1  0  0  0
 62 66  1  0  0  0
 34 35  1  0  0  0
 50 55  1  0  0  0
 50 58  1  0  0  0
 35 36  1  0  0  0
 51 52  1  0  0  0
 51 56  1  0  0  0
 36 37  1  0  0  0
 59 60  1  0  0  0
 59 61  1  0  0  0
 37 38  1  0  0  0
 63 66  1  0  0  0
 63 67  1  0  0  0
 38 39  1  0  0  0
 64 66  1  0  0  0
 39 40  1  0  0  0
 65 66  1  0  0  0
 65 68  1  0  0  0
 40 41  1  0  0  0
 41 42  1  0  0  0
 42 43  1  0  0  0
 43 44  1  0  0  0
 44 45  1  0  0  0
 45 46  1  0  0  0
  4  6  1  0  0  0
  6  7  1  0  0  0
  7  8  1  0  0  0
  8  9  1  0  0  0
  9 10  1  0  0  0
 10 11  1  0  0  0
 11 12  1  0  0  0
 12 13  1  0  0  0
 13 14  1  0  0  0
 14 15  1  0  0  0
 15 16  1  0  0  0
 16 17  1  0  0  0
 17 18  1  0  0  0
 18 19  1  0  0  0
 19 20  2  0  0  0
 20 21  1  0  0  0
 21 22  1  0  0  0
 22 23  1  0  0  0
 23 24  1  0  0  0
 24 25  1  0  0  0
 25 26  1  0  0  0
 26 27  1  0  0  0
 27 28  1  0  0  0
 52 53  1  0  0  0
 53 54  1  0  0  0
 54 55  1  0  0  0
 55 56  1  0  0  0
 56 60  1  0  0  0
M  CHG 1  64  -1
M  END
> <minimizedAffinity>
-9.44282

> <CNNscore>
0.4109430015

> <CNNaffinity>
7.0075693130

> <CNN_VS>
2.8797116280

> <CNNaffinity_variance>
1.5180375576

$$$$
/media/chris/experiments/cd1a-new-docking/inputs/ligands/7ryn_ligand.pdb


 68 68  0  0  0  0  0  0  0  0999 V2000
  -34.7761   62.9016   63.9706 C   0  0  0  0  0  0  0  0  0  0  0  0
  -35.4354   61.7953   64.6581 N   0  0  0  0  0  0  0  0  0  0  0  0
  -37.3804   61.9471   63.5349 O   0  0  0  0  0  0  0  0  0  0  0  0
  -36.6837   61.4046   64.3877 C   0  0  0  0  0  0  0  0  0  0  0  0
  -34.9351   61.3134   65.3557 H   0  0  0  0  0  0  0  0  0  0  0  0
  -37.1917   60.2373   65.1967 C   0  0  0  0  0  0  0  0  0  0  0  0
  -38.4177   60.5917   66.0286 C   0  0  0  0  0  0  0  0  0  0  0  0
  -39.6825   59.9129   65.5279 C   0  0  0  0  0  0  0  0  0  0  0  0
  -40.9490   60.3766   66.2279 C   0  0  0  0  0  0  0  0  0  0  0  0
  -42.0893   59.3713   66.1664 C   0  0  0  0  0  0  0  0  0  0  0  0
  -41.6763   57.9959   65.6580 C   0  0  0  0  0  0  0  0  0  0  0  0
  -42.8482   57.1068   65.2622 C   0  0  0  0  0  0  0  0  0  0  0  0
  -44.2211   57.6751   65.6120 C   0  0  0  0  0  0  0  0  0  0  0  0
  -44.9194   58.3757   64.4476 C   0  0  0  0  0  0  0  0  0  0  0  0
  -46.3719   58.7671   64.7181 C   0  0  0  0  0  0  0  0  0  0  0  0
  -46.7549   58.7019   66.1968 C   0  0  0  0  0  0  0  0  0  0  0  0
  -47.9959   59.5078   66.5801 C   0  0  0  0  0  0  0  0  0  0  0  0
  -48.8617   59.9589   65.4006 C   0  0  0  0  0  0  0  0  0  0  0  0
  -50.1544   59.2015   65.3027 C   0  0  0  0  0  0  0  0  0  0  0  0
  -50.8516   58.9909   64.2002 C   0  0  0  0  0  0  0  0  0  0  0  0
  -50.4905   59.4638   62.8246 C   0  0  0  0  0  0  0  0  0  0  0  0
  -49.6158   58.4787   62.0461 C   0  0  0  0  0  0  0  0  0  0  0  0
  -50.3984   57.6407   61.0438 C   0  0  0  0  0  0  0  0  0  0  0  0
  -49.9695   57.8693   59.5987 C   0  0  0  0  0  0  0  0  0  0  0  0
  -48.5845   57.3310   59.2587 C   0  0  0  0  0  0  0  0  0  0  0  0
  -47.8207   58.1905   58.2612 C   0  0  0  0  0  0  0  0  0  0  0  0
  -47.0718   57.3977   57.2019 C   0  0  0  0  0  0  0  0  0  0  0  0
  -47.4059   55.9199   57.2257 C   0  0  0  0  0  0  0  0  0  0  0  0
  -33.4681   62.6643   61.9538 O   0  0  0  0  0  0  0  0  0  0  0  0
  -33.4543   62.4075   63.3610 C   0  0  0  0  0  0  0  0  0  0  0  0
  -33.6120   63.6111   61.7993 H   0  0  0  0  0  0  0  0  0  0  0  0
  -33.2339   60.9520   63.6379 C   0  0  0  0  0  0  0  0  0  0  0  0
  -32.8319   60.0638   62.7504 C   0  0  0  0  0  0  0  0  0  0  0  0
  -32.6067   58.6206   63.0616 C   0  0  0  0  0  0  0  0  0  0  0  0
  -33.2969   58.2254   64.3688 C   0  0  0  0  0  0  0  0  0  0  0  0
  -34.7407   57.7803   64.2013 C   0  0  0  0  0  0  0  0  0  0  0  0
  -35.1068   57.3678   62.7858 C   0  0  0  0  0  0  0  0  0  0  0  0
  -36.2735   58.1472   62.1965 C   0  0  0  0  0  0  0  0  0  0  0  0
  -37.6116   57.8266   62.8443 C   0  0  0  0  0  0  0  0  0  0  0  0
  -38.6424   57.2716   61.8769 C   0  0  0  0  0  0  0  0  0  0  0  0
  -40.0656   57.3079   62.4020 C   0  0  0  0  0  0  0  0  0  0  0  0
  -41.0727   57.8668   61.4117 C   0  0  0  0  0  0  0  0  0  0  0  0
  -41.1776   59.3798   61.4618 C   0  0  0  0  0  0  0  0  0  0  0  0
  -42.1290   59.9069   62.5188 C   0  0  0  0  0  0  0  0  0  0  0  0
  -41.9676   61.3954   62.7576 C   0  0  0  0  0  0  0  0  0  0  0  0
  -42.9647   62.2208   61.9709 C   0  0  0  0  0  0  0  0  0  0  0  0
  -34.5643   64.0560   64.9281 C   0  0  0  0  0  0  0  0  0  0  0  0
  -34.3230   65.2402   64.1598 O   0  0  0  0  0  0  0  0  0  0  0  0
  -33.5655   65.6021   61.4885 O   0  0  0  0  0  0  0  0  0  0  0  0
  -31.2870   68.5143   63.6906 O   0  0  0  0  0  0  0  0  0  0  0  0
  -32.3053   66.1003   64.8792 O   0  0  0  0  0  0  0  0  0  0  0  0
  -32.9818   65.4446   63.8229 C   0  0  0  0  0  0  0  0  0  0  0  0
  -32.9371   66.2946   62.5597 C   0  0  0  0  0  0  0  0  0  0  0  0
  -31.4914   66.6167   62.2034 C   0  0  0  0  0  0  0  0  0  0  0  0
  -30.7589   67.2266   63.3894 C   0  0  0  0  0  0  0  0  0  0  0  0
  -30.9117   66.3198   64.6079 C   0  0  0  0  0  0  0  0  0  0  0  0
  -34.4843   65.4028   61.7271 H   0  0  0  0  0  0  0  0  0  0  0  0
  -31.1908   69.0922   62.9176 H   0  0  0  0  0  0  0  0  0  0  0  0
  -30.7376   66.2041   67.0257 O   0  0  0  0  0  0  0  0  0  0  0  0
  -30.3084   66.9043   65.8636 C   0  0  0  0  0  0  0  0  0  0  0  0
  -30.3334   66.6035   67.8117 H   0  0  0  0  0  0  0  0  0  0  0  0
  -31.5870   67.6041   61.1285 O   0  0  0  0  0  0  0  0  0  0  0  0
  -31.4331   66.1788   59.1916 O   0  0  0  0  0  0  0  0  0  0  0  0
  -29.4329   67.4767   59.9854 O   0  0  0  0  0  0  0  0  0  0  0  0
  -31.2904   68.5416   58.9594 O   0  0  0  0  0  0  0  0  0  0  0  0
  -30.8215   67.3195   59.7660 S   0  0  0  0  0  0  0  0  0  0  0  0
  -31.1585   65.3854   59.6776 H   0  0  0  0  0  0  0  0  0  0  0  0
  -32.2424   68.4701   58.7880 H   0  0  0  0  0  0  0  0  0  0  0  0
  2  1  1  0  0  0
  2  4  1  0  0  0
  2  5  1  0  0  0
 47 48  1  0  0  0
 47  1  1  0  0  0
 48 52  1  0  0  0
  1 30  1  0  0  0
 29 30  1  0  0  0
 29 31  1  0  0  0
 30 32  1  0  0  0
  3  4  2  0  0  0
 32 33  2  0  0  0
 49 53  1  0  0  0
 49 57  1  0  0  0
 33 34  1  0  0  0
 62 54  1  0  0  0
 62 66  1  0  0  0
 34 35  1  0  0  0
 50 55  1  0  0  0
 50 58  1  0  0  0
 35 36  1  0  0  0
 51 52  1  0  0  0
 51 56  1  0  0  0
 36 37  1  0  0  0
 59 60  1  0  0  0
 59 61  1  0  0  0
 37 38  1  0  0  0
 63 66  1  0  0  0
 63 67  1  0  0  0
 38 39  1  0  0  0
 64 66  1  0  0  0
 39 40  1  0  0  0
 65 66  1  0  0  0
 65 68  1  0  0  0
 40 41  1  0  0  0
 41 42  1  0  0  0
 42 43  1  0  0  0
 43 44  1  0  0  0
 44 45  1  0  0  0
 45 46  1  0  0  0
  4  6  1  0  0  0
  6  7  1  0  0  0
  7  8  1  0  0  0
  8  9  1  0  0  0
  9 10  1  0  0  0
 10 11  1  0  0  0
 11 12  1  0  0  0
 12 13  1  0  0  0
 13 14  1  0  0  0
 14 15  1  0  0  0
 15 16  1  0  0  0
 16 17  1  0  0  0
 17 18  1  0  0  0
 18 19  1  0  0  0
 19 20  2  0  0  0
 20 21  1  0  0  0
 21 22  1  0  0  0
 22 23  1  0  0  0
 23 24  1  0  0  0
 24 25  1  0  0  0
 25 26  1  0  0  0
 26 27  1  0  0  0
 27 28  1  0  0  0
 52 53  1  0  0  0
 53 54  1  0  0  0
 54 55  1  0  0  0
 55 56  1  0  0  0
 56 60  1  0  0  0
M  CHG 1  64  -1
M  END
> <minimizedAffinity>
-9.61115

> <CNNscore>
0.3360581100

> <CNNaffinity>
7.1406006813

> <CNN_VS>
2.3996567726

> <CNNaffinity_variance>
1.1461594105

$$$$
/media/chris/experiments/cd1a-new-docking/inputs/ligands/7ryn_ligand.pdb


 68 68  0  0  0  0  0  0  0  0999 V2000
  -32.5242   62.3952   61.9918 C   0  0  0  0  0  0  0  0  0  0  0  0
  -33.0158   62.9169   63.2636 N   0  0  0  0  0  0  0  0  0  0  0  0
  -35.0190   63.5855   62.4839 O   0  0  0  0  0  0  0  0  0  0  0  0
  -34.2225   63.4705   63.4108 C   0  0  0  0  0  0  0  0  0  0  0  0
  -32.4289   62.8579   64.0518 H   0  0  0  0  0  0  0  0  0  0  0  0
  -34.5568   63.9456   64.8028 C   0  0  0  0  0  0  0  0  0  0  0  0
  -35.9655   63.5550   65.2315 C   0  0  0  0  0  0  0  0  0  0  0  0
  -36.0444   62.1316   65.7598 C   0  0  0  0  0  0  0  0  0  0  0  0
  -36.6863   61.1504   64.7931 C   0  0  0  0  0  0  0  0  0  0  0  0
  -37.6194   60.1509   65.4601 C   0  0  0  0  0  0  0  0  0  0  0  0
  -39.0634   60.2366   64.9822 C   0  0  0  0  0  0  0  0  0  0  0  0
  -40.0891   60.1990   66.1077 C   0  0  0  0  0  0  0  0  0  0  0  0
  -41.5421   60.2538   65.6430 C   0  0  0  0  0  0  0  0  0  0  0  0
  -41.9414   59.1091   64.7133 C   0  0  0  0  0  0  0  0  0  0  0  0
  -43.0226   59.4644   63.6930 C   0  0  0  0  0  0  0  0  0  0  0  0
  -44.2923   58.6244   63.8336 C   0  0  0  0  0  0  0  0  0  0  0  0
  -44.3333   57.7140   65.0608 C   0  0  0  0  0  0  0  0  0  0  0  0
  -45.7033   57.6015   65.7350 C   0  0  0  0  0  0  0  0  0  0  0  0
  -46.4467   58.9056   65.7663 C   0  0  0  0  0  0  0  0  0  0  0  0
  -47.6530   59.1260   65.2740 C   0  0  0  0  0  0  0  0  0  0  0  0
  -48.5231   58.1172   64.5876 C   0  0  0  0  0  0  0  0  0  0  0  0
  -48.7781   58.4287   63.1113 C   0  0  0  0  0  0  0  0  0  0  0  0
  -50.2494   58.3525   62.7252 C   0  0  0  0  0  0  0  0  0  0  0  0
  -50.4893   58.4926   61.2262 C   0  0  0  0  0  0  0  0  0  0  0  0
  -49.2187   58.5950   60.3904 C   0  0  0  0  0  0  0  0  0  0  0  0
  -48.9819   57.3939   59.4855 C   0  0  0  0  0  0  0  0  0  0  0  0
  -47.6871   57.4590   58.6912 C   0  0  0  0  0  0  0  0  0  0  0  0
  -47.9091   57.3794   57.1945 C   0  0  0  0  0  0  0  0  0  0  0  0
  -31.2539   60.5899   61.0108 O   0  0  0  0  0  0  0  0  0  0  0  0
  -31.8968   61.0102   62.2177 C   0  0  0  0  0  0  0  0  0  0  0  0
  -30.5959   61.2522   60.7475 H   0  0  0  0  0  0  0  0  0  0  0  0
  -32.9219   60.0094   62.6553 C   0  0  0  0  0  0  0  0  0  0  0  0
  -32.7214   59.0591   63.5469 C   0  0  0  0  0  0  0  0  0  0  0  0
  -33.7696   58.0846   63.9734 C   0  0  0  0  0  0  0  0  0  0  0  0
  -34.3283   57.3171   62.7734 C   0  0  0  0  0  0  0  0  0  0  0  0
  -35.8460   57.3131   62.6879 C   0  0  0  0  0  0  0  0  0  0  0  0
  -36.4545   58.6564   62.3228 C   0  0  0  0  0  0  0  0  0  0  0  0
  -37.5846   58.5682   61.3075 C   0  0  0  0  0  0  0  0  0  0  0  0
  -38.5785   59.7158   61.3986 C   0  0  0  0  0  0  0  0  0  0  0  0
  -39.4056   59.9103   60.1399 C   0  0  0  0  0  0  0  0  0  0  0  0
  -40.8764   59.5778   60.3091 C   0  0  0  0  0  0  0  0  0  0  0  0
  -41.2473   58.1775   59.8521 C   0  0  0  0  0  0  0  0  0  0  0  0
  -41.8755   57.3412   60.9515 C   0  0  0  0  0  0  0  0  0  0  0  0
  -40.8875   56.7910   61.9620 C   0  0  0  0  0  0  0  0  0  0  0  0
  -41.4080   55.5578   62.6739 C   0  0  0  0  0  0  0  0  0  0  0  0
  -41.4510   55.7308   64.1781 C   0  0  0  0  0  0  0  0  0  0  0  0
  -31.5429   63.3702   61.3748 C   0  0  0  0  0  0  0  0  0  0  0  0
  -30.3181   63.3052   62.1140 O   0  0  0  0  0  0  0  0  0  0  0  0
  -29.4042   65.5882   60.7746 O   0  0  0  0  0  0  0  0  0  0  0  0
  -32.2196   67.0596   63.6781 O   0  0  0  0  0  0  0  0  0  0  0  0
  -30.8180   64.5655   63.9822 O   0  0  0  0  0  0  0  0  0  0  0  0
  -30.0112   64.4701   62.8232 C   0  0  0  0  0  0  0  0  0  0  0  0
  -30.2621   65.6603   61.9063 C   0  0  0  0  0  0  0  0  0  0  0  0
  -30.0238   66.9588   62.6667 C   0  0  0  0  0  0  0  0  0  0  0  0
  -30.8254   66.9902   63.9596 C   0  0  0  0  0  0  0  0  0  0  0  0
  -30.5359   65.7312   64.7731 C   0  0  0  0  0  0  0  0  0  0  0  0
  -29.5651   64.7581   60.2993 H   0  0  0  0  0  0  0  0  0  0  0  0
  -32.4058   67.8590   63.1613 H   0  0  0  0  0  0  0  0  0  0  0  0
  -30.7188   66.2008   67.1469 O   0  0  0  0  0  0  0  0  0  0  0  0
  -31.3764   65.6250   66.0240 C   0  0  0  0  0  0  0  0  0  0  0  0
  -31.2836   66.1161   67.9309 H   0  0  0  0  0  0  0  0  0  0  0  0
  -30.5061   68.0071   61.7678 O   0  0  0  0  0  0  0  0  0  0  0  0
  -29.1766   69.8297   62.6147 O   0  0  0  0  0  0  0  0  0  0  0  0
  -30.0274   69.8592   60.2501 O   0  0  0  0  0  0  0  0  0  0  0  0
  -28.3036   68.3807   60.9426 O   0  0  0  0  0  0  0  0  0  0  0  0
  -29.5240   69.1989   61.3955 S   0  0  0  0  0  0  0  0  0  0  0  0
  -29.9267   70.3570   62.9312 H   0  0  0  0  0  0  0  0  0  0  0  0
  -27.9285   67.9111   61.7040 H   0  0  0  0  0  0  0  0  0  0  0  0
  2  1  1  0  0  0
  2  4  1  0  0  0
  2  5  1  0  0  0
 47 48  1  0  0  0
 47  1  1  0  0  0
 48 52  1  0  0  0
  1 30  1  0  0  0
 29 30  1  0  0  0
 29 31  1  0  0  0
 30 32  1  0  0  0
  3  4  2  0  0  0
 32 33  2  0  0  0
 49 53  1  0  0  0
 49 57  1  0  0  0
 33 34  1  0  0  0
 62 54  1  0  0  0
 62 66  1  0  0  0
 34 35  1  0  0  0
 50 55  1  0  0  0
 50 58  1  0  0  0
 35 36  1  0  0  0
 51 52  1  0  0  0
 51 56  1  0  0  0
 36 37  1  0  0  0
 59 60  1  0  0  0
 59 61  1  0  0  0
 37 38  1  0  0  0
 63 66  1  0  0  0
 63 67  1  0  0  0
 38 39  1  0  0  0
 64 66  1  0  0  0
 39 40  1  0  0  0
 65 66  1  0  0  0
 65 68  1  0  0  0
 40 41  1  0  0  0
 41 42  1  0  0  0
 42 43  1  0  0  0
 43 44  1  0  0  0
 44 45  1  0  0  0
 45 46  1  0  0  0
  4  6  1  0  0  0
  6  7  1  0  0  0
  7  8  1  0  0  0
  8  9  1  0  0  0
  9 10  1  0  0  0
 10 11  1  0  0  0
 11 12  1  0  0  0
 12 13  1  0  0  0
 13 14  1  0  0  0
 14 15  1  0  0  0
 15 16  1  0  0  0
 16 17  1  0  0  0
 17 18  1  0  0  0
 18 19  1  0  0  0
 19 20  2  0  0  0
 20 21  1  0  0  0
 21 22  1  0  0  0
 22 23  1  0  0  0
 23 24  1  0  0  0
 24 25  1  0  0  0
 25 26  1  0  0  0
 26 27  1  0  0  0
 27 28  1  0  0  0
 52 53  1  0  0  0
 53 54  1  0  0  0
 54 55  1  0  0  0
 55 56  1  0  0  0
 56 60  1  0  0  0
M  CHG 1  64  -1
M  END
> <minimizedAffinity>
-8.68295

> <CNNscore>
0.3269264698

> <CNNaffinity>
7.1191735268

> <CNN_VS>
2.3274462223

> <CNNaffinity_variance>
1.4241937399

$$$$
/media/chris/experiments/cd1a-new-docking/inputs/ligands/7ryn_ligand.pdb


 68 68  0  0  0  0  0  0  0  0999 V2000
  -34.2201   61.9506   64.3004 C   0  0  0  0  0  0  0  0  0  0  0  0
  -35.4530   61.2199   64.5789 N   0  0  0  0  0  0  0  0  0  0  0  0
  -36.7074   62.2820   63.0406 O   0  0  0  0  0  0  0  0  0  0  0  0
  -36.5986   61.4416   63.9289 C   0  0  0  0  0  0  0  0  0  0  0  0
  -35.4393   60.5294   65.2805 H   0  0  0  0  0  0  0  0  0  0  0  0
  -37.7646   60.5826   64.3503 C   0  0  0  0  0  0  0  0  0  0  0  0
  -37.9697   60.5745   65.8597 C   0  0  0  0  0  0  0  0  0  0  0  0
  -39.1873   59.7680   66.2820 C   0  0  0  0  0  0  0  0  0  0  0  0
  -40.4532   60.1173   65.5173 C   0  0  0  0  0  0  0  0  0  0  0  0
  -41.7210   60.0306   66.3537 C   0  0  0  0  0  0  0  0  0  0  0  0
  -42.3204   58.6320   66.4276 C   0  0  0  0  0  0  0  0  0  0  0  0
  -43.1341   58.2438   65.1998 C   0  0  0  0  0  0  0  0  0  0  0  0
  -44.6402   58.1658   65.4363 C   0  0  0  0  0  0  0  0  0  0  0  0
  -45.0800   58.6609   66.8131 C   0  0  0  0  0  0  0  0  0  0  0  0
  -46.3305   57.9778   67.3663 C   0  0  0  0  0  0  0  0  0  0  0  0
  -47.2091   57.3480   66.2852 C   0  0  0  0  0  0  0  0  0  0  0  0
  -48.5858   57.9901   66.1148 C   0  0  0  0  0  0  0  0  0  0  0  0
  -48.5981   59.5193   66.1902 C   0  0  0  0  0  0  0  0  0  0  0  0
  -48.4131   60.1708   64.8502 C   0  0  0  0  0  0  0  0  0  0  0  0
  -49.3327   60.2898   63.9089 C   0  0  0  0  0  0  0  0  0  0  0  0
  -50.7470   59.8006   63.9909 C   0  0  0  0  0  0  0  0  0  0  0  0
  -51.1838   58.9774   62.7772 C   0  0  0  0  0  0  0  0  0  0  0  0
  -50.1791   59.0116   61.6332 C   0  0  0  0  0  0  0  0  0  0  0  0
  -49.8121   57.6279   61.1088 C   0  0  0  0  0  0  0  0  0  0  0  0
  -49.2089   57.6229   59.7089 C   0  0  0  0  0  0  0  0  0  0  0  0
  -48.2351   56.4785   59.4652 C   0  0  0  0  0  0  0  0  0  0  0  0
  -47.1538   56.7888   58.4425 C   0  0  0  0  0  0  0  0  0  0  0  0
  -47.4251   58.0609   57.6652 C   0  0  0  0  0  0  0  0  0  0  0  0
  -33.0070   61.5148   62.2576 O   0  0  0  0  0  0  0  0  0  0  0  0
  -33.2284   61.0215   63.5820 C   0  0  0  0  0  0  0  0  0  0  0  0
  -32.6864   62.4293   62.3026 H   0  0  0  0  0  0  0  0  0  0  0  0
  -33.7252   59.6087   63.5514 C   0  0  0  0  0  0  0  0  0  0  0  0
  -33.8636   58.8771   62.4634 C   0  0  0  0  0  0  0  0  0  0  0  0
  -34.3481   57.4644   62.4675 C   0  0  0  0  0  0  0  0  0  0  0  0
  -35.7799   57.3753   62.9997 C   0  0  0  0  0  0  0  0  0  0  0  0
  -36.8327   57.9250   62.0508 C   0  0  0  0  0  0  0  0  0  0  0  0
  -38.1445   57.1589   62.0621 C   0  0  0  0  0  0  0  0  0  0  0  0
  -39.1297   57.6347   63.1200 C   0  0  0  0  0  0  0  0  0  0  0  0
  -40.4651   56.9079   63.0819 C   0  0  0  0  0  0  0  0  0  0  0  0
  -40.9909   56.6672   61.6777 C   0  0  0  0  0  0  0  0  0  0  0  0
  -42.0064   57.6945   61.2133 C   0  0  0  0  0  0  0  0  0  0  0  0
  -41.4214   58.7816   60.3282 C   0  0  0  0  0  0  0  0  0  0  0  0
  -41.2983   60.1193   61.0339 C   0  0  0  0  0  0  0  0  0  0  0  0
  -42.1545   60.2518   62.2787 C   0  0  0  0  0  0  0  0  0  0  0  0
  -42.2433   61.6815   62.7752 C   0  0  0  0  0  0  0  0  0  0  0  0
  -43.1349   62.5436   61.9056 C   0  0  0  0  0  0  0  0  0  0  0  0
  -33.6463   62.5102   65.5857 C   0  0  0  0  0  0  0  0  0  0  0  0
  -34.2628   63.7774   65.8401 O   0  0  0  0  0  0  0  0  0  0  0  0
  -31.6484   64.7770   65.9220 O   0  0  0  0  0  0  0  0  0  0  0  0
  -32.5656   64.4153   61.7328 O   0  0  0  0  0  0  0  0  0  0  0  0
  -34.5880   64.7167   63.7567 O   0  0  0  0  0  0  0  0  0  0  0  0
  -33.8641   64.7965   64.9703 C   0  0  0  0  0  0  0  0  0  0  0  0
  -32.3727   64.6348   64.7066 C   0  0  0  0  0  0  0  0  0  0  0  0
  -31.9105   65.6738   63.6927 C   0  0  0  0  0  0  0  0  0  0  0  0
  -32.7714   65.6346   62.4388 C   0  0  0  0  0  0  0  0  0  0  0  0
  -34.2439   65.7537   62.8238 C   0  0  0  0  0  0  0  0  0  0  0  0
  -31.9513   64.1109   66.5587 H   0  0  0  0  0  0  0  0  0  0  0  0
  -31.6305   64.3377   61.4870 H   0  0  0  0  0  0  0  0  0  0  0  0
  -35.2976   64.2549   61.2325 O   0  0  0  0  0  0  0  0  0  0  0  0
  -35.1799   65.6112   61.6465 C   0  0  0  0  0  0  0  0  0  0  0  0
  -35.9036   64.1988   60.4773 H   0  0  0  0  0  0  0  0  0  0  0  0
  -30.5422   65.2800   63.3578 O   0  0  0  0  0  0  0  0  0  0  0  0
  -29.9764   67.5126   64.0666 O   0  0  0  0  0  0  0  0  0  0  0  0
  -28.4051   66.1966   62.6123 O   0  0  0  0  0  0  0  0  0  0  0  0
  -28.7592   65.6441   64.8941 O   0  0  0  0  0  0  0  0  0  0  0  0
  -29.3648   66.3068   63.6458 S   0  0  0  0  0  0  0  0  0  0  0  0
  -30.3708   67.9593   63.3012 H   0  0  0  0  0  0  0  0  0  0  0  0
  -29.3906   65.6999   65.6283 H   0  0  0  0  0  0  0  0  0  0  0  0
  2  1  1  0  0  0
  2  4  1  0  0  0
  2  5  1  0  0  0
 47 48  1  0  0  0
 47  1  1  0  0  0
 48 52  1  0  0  0
  1 30  1  0  0  0
 29 30  1  0  0  0
 29 31  1  0  0  0
 30 32  1  0  0  0
  3  4  2  0  0  0
 32 33  2  0  0  0
 49 53  1  0  0  0
 49 57  1  0  0  0
 33 34  1  0  0  0
 62 54  1  0  0  0
 62 66  1  0  0  0
 34 35  1  0  0  0
 50 55  1  0  0  0
 50 58  1  0  0  0
 35 36  1  0  0  0
 51 52  1  0  0  0
 51 56  1  0  0  0
 36 37  1  0  0  0
 59 60  1  0  0  0
 59 61  1  0  0  0
 37 38  1  0  0  0
 63 66  1  0  0  0
 63 67  1  0  0  0
 38 39  1  0  0  0
 64 66  1  0  0  0
 39 40  1  0  0  0
 65 66  1  0  0  0
 65 68  1  0  0  0
 40 41  1  0  0  0
 41 42  1  0  0  0
 42 43  1  0  0  0
 43 44  1  0  0  0
 44 45  1  0  0  0
 45 46  1  0  0  0
  4  6  1  0  0  0
  6  7  1  0  0  0
  7  8  1  0  0  0
  8  9  1  0  0  0
  9 10  1  0  0  0
 10 11  1  0  0  0
 11 12  1  0  0  0
 12 13  1  0  0  0
 13 14  1  0  0  0
 14 15  1  0  0  0
 15 16  1  0  0  0
 16 17  1  0  0  0
 17 18  1  0  0  0
 18 19  1  0  0  0
 19 20  2  0  0  0
 20 21  1  0  0  0
 21 22  1  0  0  0
 22 23  1  0  0  0
 23 24  1  0  0  0
 24 25  1  0  0  0
 25 26  1  0  0  0
 26 27  1  0  0  0
 27 28  1  0  0  0
 52 53  1  0  0  0
 53 54  1  0  0  0
 54 55  1  0  0  0
 55 56  1  0  0  0
 56 60  1  0  0  0
M  CHG 1  64  -1
M  END
> <minimizedAffinity>
-9.63334

> <CNNscore>
0.1805147976

> <CNNaffinity>
7.1506295204

> <CNN_VS>
1.2907944918

> <CNNaffinity_variance>
1.7243497372

$$$$
/media/chris/experiments/cd1a-new-docking/inputs/ligands/7ryn_ligand.pdb


 68 68  0  0  0  0  0  0  0  0999 V2000
  -39.5941   58.4567   64.9621 C   0  0  0  0  0  0  0  0  0  0  0  0
  -38.7658   58.2761   63.7735 N   0  0  0  0  0  0  0  0  0  0  0  0
  -37.0893   57.1962   64.8181 O   0  0  0  0  0  0  0  0  0  0  0  0
  -37.5802   57.6612   63.7935 C   0  0  0  0  0  0  0  0  0  0  0  0
  -39.0975   58.6248   62.9147 H   0  0  0  0  0  0  0  0  0  0  0  0
  -36.8735   57.5634   62.4645 C   0  0  0  0  0  0  0  0  0  0  0  0
  -35.4611   58.1324   62.5099 C   0  0  0  0  0  0  0  0  0  0  0  0
  -34.4052   57.0634   62.7416 C   0  0  0  0  0  0  0  0  0  0  0  0
  -32.9803   57.5507   62.5384 C   0  0  0  0  0  0  0  0  0  0  0  0
  -32.8867   58.9482   61.9445 C   0  0  0  0  0  0  0  0  0  0  0  0
  -31.7738   59.8014   62.5398 C   0  0  0  0  0  0  0  0  0  0  0  0
  -31.0087   60.6233   61.5105 C   0  0  0  0  0  0  0  0  0  0  0  0
  -29.5011   60.6844   61.7422 C   0  0  0  0  0  0  0  0  0  0  0  0
  -29.0749   61.7032   62.7980 C   0  0  0  0  0  0  0  0  0  0  0  0
  -29.9162   62.9789   62.8286 C   0  0  0  0  0  0  0  0  0  0  0  0
  -29.4114   64.0644   61.8777 C   0  0  0  0  0  0  0  0  0  0  0  0
  -30.2886   64.3083   60.6499 C   0  0  0  0  0  0  0  0  0  0  0  0
  -30.1385   65.6933   60.0147 C   0  0  0  0  0  0  0  0  0  0  0  0
  -31.4476   66.4143   59.8715 C   0  0  0  0  0  0  0  0  0  0  0  0
  -32.1517   66.9516   60.8521 C   0  0  0  0  0  0  0  0  0  0  0  0
  -31.7833   66.9516   62.3049 C   0  0  0  0  0  0  0  0  0  0  0  0
  -30.7593   68.0253   62.6792 C   0  0  0  0  0  0  0  0  0  0  0  0
  -29.3972   67.4547   63.0511 C   0  0  0  0  0  0  0  0  0  0  0  0
  -29.3616   66.8315   64.4420 C   0  0  0  0  0  0  0  0  0  0  0  0
  -30.4295   67.3548   65.3956 C   0  0  0  0  0  0  0  0  0  0  0  0
  -31.3127   66.2640   65.9849 C   0  0  0  0  0  0  0  0  0  0  0  0
  -30.9972   64.8660   65.4772 C   0  0  0  0  0  0  0  0  0  0  0  0
  -32.2092   63.9566   65.4627 C   0  0  0  0  0  0  0  0  0  0  0  0
  -41.2161   60.2362   64.7699 O   0  0  0  0  0  0  0  0  0  0  0  0
  -41.0207   58.8386   64.5357 C   0  0  0  0  0  0  0  0  0  0  0  0
  -40.5419   60.7420   64.2896 H   0  0  0  0  0  0  0  0  0  0  0  0
  -42.0462   58.0248   65.2637 C   0  0  0  0  0  0  0  0  0  0  0  0
  -43.2797   58.4131   65.5199 C   0  0  0  0  0  0  0  0  0  0  0  0
  -44.2845   57.5714   66.2358 C   0  0  0  0  0  0  0  0  0  0  0  0
  -45.6674   58.2260   66.2124 C   0  0  0  0  0  0  0  0  0  0  0  0
  -46.1310   58.6536   64.8293 C   0  0  0  0  0  0  0  0  0  0  0  0
  -47.3719   59.5299   64.8298 C   0  0  0  0  0  0  0  0  0  0  0  0
  -48.4930   59.0155   63.9385 C   0  0  0  0  0  0  0  0  0  0  0  0
  -49.2838   60.1192   63.2533 C   0  0  0  0  0  0  0  0  0  0  0  0
  -50.0667   59.6482   62.0402 C   0  0  0  0  0  0  0  0  0  0  0  0
  -50.6412   58.2507   62.1796 C   0  0  0  0  0  0  0  0  0  0  0  0
  -50.8218   57.5249   60.8575 C   0  0  0  0  0  0  0  0  0  0  0  0
  -49.5540   56.8439   60.3762 C   0  0  0  0  0  0  0  0  0  0  0  0
  -49.1875   57.1482   58.9363 C   0  0  0  0  0  0  0  0  0  0  0  0
  -47.8867   57.9176   58.8164 C   0  0  0  0  0  0  0  0  0  0  0  0
  -47.4022   58.0190   57.3849 C   0  0  0  0  0  0  0  0  0  0  0  0
  -38.9753   59.4965   65.8733 C   0  0  0  0  0  0  0  0  0  0  0  0
  -38.7856   60.6998   65.1205 O   0  0  0  0  0  0  0  0  0  0  0  0
  -37.3132   60.9152   62.7485 O   0  0  0  0  0  0  0  0  0  0  0  0
  -36.4804   64.5464   64.9032 O   0  0  0  0  0  0  0  0  0  0  0  0
  -37.3143   62.1157   66.1970 O   0  0  0  0  0  0  0  0  0  0  0  0
  -37.4767   61.1900   65.1386 C   0  0  0  0  0  0  0  0  0  0  0  0
  -37.2076   61.8661   63.8005 C   0  0  0  0  0  0  0  0  0  0  0  0
  -35.8192   62.4932   63.8071 C   0  0  0  0  0  0  0  0  0  0  0  0
  -35.6367   63.4044   65.0118 C   0  0  0  0  0  0  0  0  0  0  0  0
  -35.9805   62.6414   66.2887 C   0  0  0  0  0  0  0  0  0  0  0  0
  -38.2005   60.5234   62.7546 H   0  0  0  0  0  0  0  0  0  0  0  0
  -36.2636   65.0328   64.0925 H   0  0  0  0  0  0  0  0  0  0  0  0
  -36.4925   62.8352   68.6528 O   0  0  0  0  0  0  0  0  0  0  0  0
  -35.9347   63.5044   67.5278 C   0  0  0  0  0  0  0  0  0  0  0  0
  -36.4477   63.4150   69.4291 H   0  0  0  0  0  0  0  0  0  0  0  0
  -35.7674   63.2889   62.5809 O   0  0  0  0  0  0  0  0  0  0  0  0
  -33.3990   63.0053   62.2390 O   0  0  0  0  0  0  0  0  0  0  0  0
  -34.3402   65.2499   62.8645 O   0  0  0  0  0  0  0  0  0  0  0  0
  -34.6865   64.3013   60.7158 O   0  0  0  0  0  0  0  0  0  0  0  0
  -34.4019   64.0041   62.1972 S   0  0  0  0  0  0  0  0  0  0  0  0
  -33.1933   62.7920   63.1627 H   0  0  0  0  0  0  0  0  0  0  0  0
  -34.7362   63.4676   60.2225 H   0  0  0  0  0  0  0  0  0  0  0  0
  2  1  1  0  0  0
  2  4  1  0  0  0
  2  5  1  0  0  0
 47 48  1  0  0  0
 47  1  1  0  0  0
 48 52  1  0  0  0
  1 30  1  0  0  0
 29 30  1  0  0  0
 29 31  1  0  0  0
 30 32  1  0  0  0
  3  4  2  0  0  0
 32 33  2  0  0  0
 49 53  1  0  0  0
 49 57  1  0  0  0
 33 34  1  0  0  0
 62 54  1  0  0  0
 62 66  1  0  0  0
 34 35  1  0  0  0
 50 55  1  0  0  0
 50 58  1  0  0  0
 35 36  1  0  0  0
 51 52  1  0  0  0
 51 56  1  0  0  0
 36 37  1  0  0  0
 59 60  1  0  0  0
 59 61  1  0  0  0
 37 38  1  0  0  0
 63 66  1  0  0  0
 63 67  1  0  0  0
 38 39  1  0  0  0
 64 66  1  0  0  0
 39 40  1  0  0  0
 65 66  1  0  0  0
 65 68  1  0  0  0
 40 41  1  0  0  0
 41 42  1  0  0  0
 42 43  1  0  0  0
 43 44  1  0  0  0
 44 45  1  0  0  0
 45 46  1  0  0  0
  4  6  1  0  0  0
  6  7  1  0  0  0
  7  8  1  0  0  0
  8  9  1  0  0  0
  9 10  1  0  0  0
 10 11  1  0  0  0
 11 12  1  0  0  0
 12 13  1  0  0  0
 13 14  1  0  0  0
 14 15  1  0  0  0
 15 16  1  0  0  0
 16 17  1  0  0  0
 17 18  1  0  0  0
 18 19  1  0  0  0
 19 20  2  0  0  0
 20 21  1  0  0  0
 21 22  1  0  0  0
 22 23  1  0  0  0
 23 24  1  0  0  0
 24 25  1  0  0  0
 25 26  1  0  0  0
 26 27  1  0  0  0
 27 28  1  0  0  0
 52 53  1  0  0  0
 53 54  1  0  0  0
 54 55  1  0  0  0
 55 56  1  0  0  0
 56 60  1  0  0  0
M  CHG 1  64  -1
M  END
> <minimizedAffinity>
-8.94446

> <CNNscore>
0.1359571517

> <CNNaffinity>
6.8034067154

> <CNN_VS>
0.9249718189

> <CNNaffinity_variance>
0.6416786909

$$$$
/media/chris/experiments/cd1a-new-docking/inputs/ligands/7ryn_ligand.pdb


 68 68  0  0  0  0  0  0  0  0999 V2000
  -39.2332   60.1002   61.0612 C   0  0  0  0  0  0  0  0  0  0  0  0
  -40.1912   59.0404   61.3619 N   0  0  0  0  0  0  0  0  0  0  0  0
  -41.4534   59.3363   59.5215 O   0  0  0  0  0  0  0  0  0  0  0  0
  -41.2248   58.7412   60.5706 C   0  0  0  0  0  0  0  0  0  0  0  0
  -40.0694   58.5205   62.1890 H   0  0  0  0  0  0  0  0  0  0  0  0
  -42.1023   57.6092   61.0435 C   0  0  0  0  0  0  0  0  0  0  0  0
  -41.3187   56.3270   61.2937 C   0  0  0  0  0  0  0  0  0  0  0  0
  -41.4371   55.8376   62.7282 C   0  0  0  0  0  0  0  0  0  0  0  0
  -42.2019   56.7822   63.6403 C   0  0  0  0  0  0  0  0  0  0  0  0
  -41.8106   56.6731   65.1065 C   0  0  0  0  0  0  0  0  0  0  0  0
  -41.5507   58.0145   65.7802 C   0  0  0  0  0  0  0  0  0  0  0  0
  -42.6605   59.0363   65.5691 C   0  0  0  0  0  0  0  0  0  0  0  0
  -43.9635   58.7161   66.2971 C   0  0  0  0  0  0  0  0  0  0  0  0
  -45.1225   58.3564   65.3689 C   0  0  0  0  0  0  0  0  0  0  0  0
  -46.5022   58.4021   66.0251 C   0  0  0  0  0  0  0  0  0  0  0  0
  -47.6213   58.8010   65.0628 C   0  0  0  0  0  0  0  0  0  0  0  0
  -48.8597   59.4046   65.7250 C   0  0  0  0  0  0  0  0  0  0  0  0
  -50.1885   58.7674   65.3097 C   0  0  0  0  0  0  0  0  0  0  0  0
  -51.1584   59.7609   64.7385 C   0  0  0  0  0  0  0  0  0  0  0  0
  -51.3353   60.0274   63.4564 C   0  0  0  0  0  0  0  0  0  0  0  0
  -50.6048   59.3891   62.3141 C   0  0  0  0  0  0  0  0  0  0  0  0
  -51.0907   57.9755   61.9869 C   0  0  0  0  0  0  0  0  0  0  0  0
  -50.5065   57.4221   60.6940 C   0  0  0  0  0  0  0  0  0  0  0  0
  -49.3334   58.2379   60.1624 C   0  0  0  0  0  0  0  0  0  0  0  0
  -48.3378   57.4415   59.3269 C   0  0  0  0  0  0  0  0  0  0  0  0
  -47.7088   58.2421   58.1952 C   0  0  0  0  0  0  0  0  0  0  0  0
  -47.4011   57.4244   56.9508 C   0  0  0  0  0  0  0  0  0  0  0  0
  -47.3652   55.9336   57.2191 C   0  0  0  0  0  0  0  0  0  0  0  0
  -38.2121   59.0437   59.1440 O   0  0  0  0  0  0  0  0  0  0  0  0
  -37.9520   59.4796   60.4815 C   0  0  0  0  0  0  0  0  0  0  0  0
  -38.5283   59.7931   58.6155 H   0  0  0  0  0  0  0  0  0  0  0  0
  -37.4609   58.3459   61.3285 C   0  0  0  0  0  0  0  0  0  0  0  0
  -36.2664   58.2752   61.8819 C   0  0  0  0  0  0  0  0  0  0  0  0
  -35.8112   57.1368   62.7347 C   0  0  0  0  0  0  0  0  0  0  0  0
  -34.4839   57.4616   63.4234 C   0  0  0  0  0  0  0  0  0  0  0  0
  -33.3812   57.9027   62.4746 C   0  0  0  0  0  0  0  0  0  0  0  0
  -32.3991   58.8934   63.0762 C   0  0  0  0  0  0  0  0  0  0  0  0
  -32.8413   60.3456   62.9691 C   0  0  0  0  0  0  0  0  0  0  0  0
  -31.9379   61.1959   62.0895 C   0  0  0  0  0  0  0  0  0  0  0  0
  -30.5094   60.6872   62.0069 C   0  0  0  0  0  0  0  0  0  0  0  0
  -29.4577   61.7624   62.2082 C   0  0  0  0  0  0  0  0  0  0  0  0
  -30.0024   63.0544   62.7923 C   0  0  0  0  0  0  0  0  0  0  0  0
  -29.4503   64.2929   62.1113 C   0  0  0  0  0  0  0  0  0  0  0  0
  -30.3641   64.8879   61.0571 C   0  0  0  0  0  0  0  0  0  0  0  0
  -31.7344   65.2370   61.6039 C   0  0  0  0  0  0  0  0  0  0  0  0
  -32.3691   66.4045   60.8770 C   0  0  0  0  0  0  0  0  0  0  0  0
  -38.9562   60.9184   62.3055 C   0  0  0  0  0  0  0  0  0  0  0  0
  -37.6476   61.4881   62.1879 O   0  0  0  0  0  0  0  0  0  0  0  0
  -35.3019   62.9929   62.4604 O   0  0  0  0  0  0  0  0  0  0  0  0
  -37.2387   63.2560   66.2946 O   0  0  0  0  0  0  0  0  0  0  0  0
  -37.6882   61.0854   64.4605 O   0  0  0  0  0  0  0  0  0  0  0  0
  -36.8707   61.3898   63.3459 C   0  0  0  0  0  0  0  0  0  0  0  0
  -36.1671   62.7242   63.5564 C   0  0  0  0  0  0  0  0  0  0  0  0
  -35.3754   62.6924   64.8577 C   0  0  0  0  0  0  0  0  0  0  0  0
  -36.2552   62.2629   66.0224 C   0  0  0  0  0  0  0  0  0  0  0  0
  -36.9475   60.9452   65.6834 C   0  0  0  0  0  0  0  0  0  0  0  0
  -35.8169   63.0105   61.6387 H   0  0  0  0  0  0  0  0  0  0  0  0
  -36.8010   64.0942   66.5104 H   0  0  0  0  0  0  0  0  0  0  0  0
  -39.2638   60.8612   66.4021 O   0  0  0  0  0  0  0  0  0  0  0  0
  -37.9299   60.5001   66.7413 C   0  0  0  0  0  0  0  0  0  0  0  0
  -39.8673   60.5619   67.0999 H   0  0  0  0  0  0  0  0  0  0  0  0
  -34.9396   64.0741   65.0588 O   0  0  0  0  0  0  0  0  0  0  0  0
  -33.0773   65.5672   64.7284 O   0  0  0  0  0  0  0  0  0  0  0  0
  -32.6919   63.1355   65.2323 O   0  0  0  0  0  0  0  0  0  0  0  0
  -33.5089   64.6411   66.8763 O   0  0  0  0  0  0  0  0  0  0  0  0
  -33.4063   64.3487   65.3704 S   0  0  0  0  0  0  0  0  0  0  0  0
  -33.0041   65.4197   63.7725 H   0  0  0  0  0  0  0  0  0  0  0  0
  -33.9946   65.4695   67.0125 H   0  0  0  0  0  0  0  0  0  0  0  0
  2  1  1  0  0  0
  2  4  1  0  0  0
  2  5  1  0  0  0
 47 48  1  0  0  0
 47  1  1  0  0  0
 48 52  1  0  0  0
  1 30  1  0  0  0
 29 30  1  0  0  0
 29 31  1  0  0  0
 30 32  1  0  0  0
  3  4  2  0  0  0
 32 33  2  0  0  0
 49 53  1  0  0  0
 49 57  1  0  0  0
 33 34  1  0  0  0
 62 54  1  0  0  0
 62 66  1  0  0  0
 34 35  1  0  0  0
 50 55  1  0  0  0
 50 58  1  0  0  0
 35 36  1  0  0  0
 51 52  1  0  0  0
 51 56  1  0  0  0
 36 37  1  0  0  0
 59 60  1  0  0  0
 59 61  1  0  0  0
 37 38  1  0  0  0
 63 66  1  0  0  0
 63 67  1  0  0  0
 38 39  1  0  0  0
 64 66  1  0  0  0
 39 40  1  0  0  0
 65 66  1  0  0  0
 65 68  1  0  0  0
 40 41  1  0  0  0
 41 42  1  0  0  0
 42 43  1  0  0  0
 43 44  1  0  0  0
 44 45  1  0  0  0
 45 46  1  0  0  0
  4  6  1  0  0  0
  6  7  1  0  0  0
  7  8  1  0  0  0
  8  9  1  0  0  0
  9 10  1  0  0  0
 10 11  1  0  0  0
 11 12  1  0  0  0
 12 13  1  0  0  0
 13 14  1  0  0  0
 14 15  1  0  0  0
 15 16  1  0  0  0
 16 17  1  0  0  0
 17 18  1  0  0  0
 18 19  1  0  0  0
 19 20  2  0  0  0
 20 21  1  0  0  0
 21 22  1  0  0  0
 22 23  1  0  0  0
 23 24  1  0  0  0
 24 25  1  0  0  0
 25 26  1  0  0  0
 26 27  1  0  0  0
 27 28  1  0  0  0
 52 53  1  0  0  0
 53 54  1  0  0  0
 54 55  1  0  0  0
 55 56  1  0  0  0
 56 60  1  0  0  0
M  CHG 1  64  -1
M  END
> <minimizedAffinity>
-9.31796

> <CNNscore>
0.1141769737

> <CNNaffinity>
6.9507508278

> <CNN_VS>
0.7936156988

> <CNNaffinity_variance>
1.1039496660

$$$$
/media/chris/experiments/cd1a-new-docking/inputs/ligands/7ryn_ligand.pdb


 68 68  0  0  0  0  0  0  0  0999 V2000
  -43.3083   57.2288   65.0573 C   0  0  0  0  0  0  0  0  0  0  0  0
  -42.5570   56.8301   63.8708 N   0  0  0  0  0  0  0  0  0  0  0  0
  -41.7452   54.9183   64.7390 O   0  0  0  0  0  0  0  0  0  0  0  0
  -41.8353   55.7082   63.8036 C   0  0  0  0  0  0  0  0  0  0  0  0
  -42.5837   57.4172   63.0810 H   0  0  0  0  0  0  0  0  0  0  0  0
  -41.1339   55.4612   62.4913 C   0  0  0  0  0  0  0  0  0  0  0  0
  -41.3343   56.5986   61.4979 C   0  0  0  0  0  0  0  0  0  0  0  0
  -40.0518   57.3652   61.2173 C   0  0  0  0  0  0  0  0  0  0  0  0
  -38.9045   57.0082   62.1476 C   0  0  0  0  0  0  0  0  0  0  0  0
  -37.5550   57.5447   61.6942 C   0  0  0  0  0  0  0  0  0  0  0  0
  -36.4758   57.4956   62.7683 C   0  0  0  0  0  0  0  0  0  0  0  0
  -35.1488   58.1077   62.3383 C   0  0  0  0  0  0  0  0  0  0  0  0
  -33.9555   57.1599   62.4271 C   0  0  0  0  0  0  0  0  0  0  0  0
  -32.6691   57.8236   62.9161 C   0  0  0  0  0  0  0  0  0  0  0  0
  -32.8822   59.0569   63.7934 C   0  0  0  0  0  0  0  0  0  0  0  0
  -32.5379   60.3706   63.0912 C   0  0  0  0  0  0  0  0  0  0  0  0
  -31.8328   60.2186   61.7436 C   0  0  0  0  0  0  0  0  0  0  0  0
  -31.0739   61.4608   61.2689 C   0  0  0  0  0  0  0  0  0  0  0  0
  -29.6051   61.3990   61.5739 C   0  0  0  0  0  0  0  0  0  0  0  0
  -29.0138   61.8761   62.6549 C   0  0  0  0  0  0  0  0  0  0  0  0
  -29.6913   62.5727   63.7959 C   0  0  0  0  0  0  0  0  0  0  0  0
  -29.6368   64.0991   63.7035 C   0  0  0  0  0  0  0  0  0  0  0  0
  -30.6901   64.7921   64.5578 C   0  0  0  0  0  0  0  0  0  0  0  0
  -31.7719   63.8472   65.0687 C   0  0  0  0  0  0  0  0  0  0  0  0
  -33.1789   64.1777   64.5843 C   0  0  0  0  0  0  0  0  0  0  0  0
  -33.2092   65.0939   63.3689 C   0  0  0  0  0  0  0  0  0  0  0  0
  -33.3063   64.3616   62.0400 C   0  0  0  0  0  0  0  0  0  0  0  0
  -32.2222   64.7680   61.0625 C   0  0  0  0  0  0  0  0  0  0  0  0
  -44.2726   59.1255   63.9137 O   0  0  0  0  0  0  0  0  0  0  0  0
  -44.6062   57.9309   64.6265 C   0  0  0  0  0  0  0  0  0  0  0  0
  -43.7071   58.9035   63.1574 H   0  0  0  0  0  0  0  0  0  0  0  0
  -45.4806   58.2359   65.8039 C   0  0  0  0  0  0  0  0  0  0  0  0
  -46.7040   58.7221   65.7338 C   0  0  0  0  0  0  0  0  0  0  0  0
  -47.5572   59.0019   66.9273 C   0  0  0  0  0  0  0  0  0  0  0  0
  -48.8518   59.7110   66.5241 C   0  0  0  0  0  0  0  0  0  0  0  0
  -49.8171   58.8433   65.7328 C   0  0  0  0  0  0  0  0  0  0  0  0
  -50.9031   59.6192   65.0072 C   0  0  0  0  0  0  0  0  0  0  0  0
  -51.0608   59.2395   63.5420 C   0  0  0  0  0  0  0  0  0  0  0  0
  -49.8854   59.6584   62.6725 C   0  0  0  0  0  0  0  0  0  0  0  0
  -49.3538   58.5465   61.7852 C   0  0  0  0  0  0  0  0  0  0  0  0
  -50.0690   58.4237   60.4525 C   0  0  0  0  0  0  0  0  0  0  0  0
  -49.5508   57.2951   59.5778 C   0  0  0  0  0  0  0  0  0  0  0  0
  -48.0370   57.2694   59.4769 C   0  0  0  0  0  0  0  0  0  0  0  0
  -47.4831   56.1169   58.6613 C   0  0  0  0  0  0  0  0  0  0  0  0
  -47.2100   56.5013   57.2204 C   0  0  0  0  0  0  0  0  0  0  0  0
  -47.0169   57.9932   57.0443 C   0  0  0  0  0  0  0  0  0  0  0  0
  -42.4518   58.1103   65.9426 C   0  0  0  0  0  0  0  0  0  0  0  0
  -41.1432   58.1914   65.3666 O   0  0  0  0  0  0  0  0  0  0  0  0
  -38.5399   59.1769   65.6704 O   0  0  0  0  0  0  0  0  0  0  0  0
  -39.6738   60.2595   61.6624 O   0  0  0  0  0  0  0  0  0  0  0  0
  -41.5893   59.7833   63.7555 O   0  0  0  0  0  0  0  0  0  0  0  0
  -40.8030   59.4596   64.8870 C   0  0  0  0  0  0  0  0  0  0  0  0
  -39.3259   59.4426   64.5156 C   0  0  0  0  0  0  0  0  0  0  0  0
  -38.9301   60.7811   63.9050 C   0  0  0  0  0  0  0  0  0  0  0  0
  -39.8559   61.1529   62.7561 C   0  0  0  0  0  0  0  0  0  0  0  0
  -41.3071   61.0884   63.2255 C   0  0  0  0  0  0  0  0  0  0  0  0
  -38.8009   58.3231   66.0497 H   0  0  0  0  0  0  0  0  0  0  0  0
  -38.7522   60.2990   61.3624 H   0  0  0  0  0  0  0  0  0  0  0  0
  -43.0209   62.5463   62.3165 O   0  0  0  0  0  0  0  0  0  0  0  0
  -42.3025   61.3345   62.1160 C   0  0  0  0  0  0  0  0  0  0  0  0
  -43.6495   62.6738   61.5889 H   0  0  0  0  0  0  0  0  0  0  0  0
  -37.5771   60.5676   63.3921 O   0  0  0  0  0  0  0  0  0  0  0  0
  -35.6417   61.9905   63.2015 O   0  0  0  0  0  0  0  0  0  0  0  0
  -35.7932   60.2775   65.0341 O   0  0  0  0  0  0  0  0  0  0  0  0
  -37.1372   62.2347   65.0350 O   0  0  0  0  0  0  0  0  0  0  0  0
  -36.3591   61.2366   64.1618 S   0  0  0  0  0  0  0  0  0  0  0  0
  -35.1369   61.3904   62.6306 H   0  0  0  0  0  0  0  0  0  0  0  0
  -37.5418   62.9115   64.4702 H   0  0  0  0  0  0  0  0  0  0  0  0
  2  1  1  0  0  0
  2  4  1  0  0  0
  2  5  1  0  0  0
 47 48  1  0  0  0
 47  1  1  0  0  0
 48 52  1  0  0  0
  1 30  1  0  0  0
 29 30  1  0  0  0
 29 31  1  0  0  0
 30 32  1  0  0  0
  3  4  2  0  0  0
 32 33  2  0  0  0
 49 53  1  0  0  0
 49 57  1  0  0  0
 33 34  1  0  0  0
 62 54  1  0  0  0
 62 66  1  0  0  0
 34 35  1  0  0  0
 50 55  1  0  0  0
 50 58  1  0  0  0
 35 36  1  0  0  0
 51 52  1  0  0  0
 51 56  1  0  0  0
 36 37  1  0  0  0
 59 60  1  0  0  0
 59 61  1  0  0  0
 37 38  1  0  0  0
 63 66  1  0  0  0
 63 67  1  0  0  0
 38 39  1  0  0  0
 64 66  1  0  0  0
 39 40  1  0  0  0
 65 66  1  0  0  0
 65 68  1  0  0  0
 40 41  1  0  0  0
 41 42  1  0  0  0
 42 43  1  0  0  0
 43 44  1  0  0  0
 44 45  1  0  0  0
 45 46  1  0  0  0
  4  6  1  0  0  0
  6  7  1  0  0  0
  7  8  1  0  0  0
  8  9  1  0  0  0
  9 10  1  0  0  0
 10 11  1  0  0  0
 11 12  1  0  0  0
 12 13  1  0  0  0
 13 14  1  0  0  0
 14 15  1  0  0  0
 15 16  1  0  0  0
 16 17  1  0  0  0
 17 18  1  0  0  0
 18 19  1  0  0  0
 19 20  2  0  0  0
 20 21  1  0  0  0
 21 22  1  0  0  0
 22 23  1  0  0  0
 23 24  1  0  0  0
 24 25  1  0  0  0
 25 26  1  0  0  0
 26 27  1  0  0  0
 27 28  1  0  0  0
 52 53  1  0  0  0
 53 54  1  0  0  0
 54 55  1  0  0  0
 55 56  1  0  0  0
 56 60  1  0  0  0
M  CHG 1  64  -1
M  END
> <minimizedAffinity>
-8.99492

> <CNNscore>
0.1104165092

> <CNNaffinity>
6.7481336594

> <CNN_VS>
0.7451053858

> <CNNaffinity_variance>
1.4262498617

$$$$
