/media/chris/experiments/cd1a-new-docking/inputs/ligands/7ryn_ligand.pdb


 68 68  0  0  0  0  0  0  0  0999 V2000
  -40.8536   60.1621   65.6881 C   0  0  0  0  0  0  0  0  0  0  0  0
  -41.2287   58.7781   65.9623 N   0  0  0  0  0  0  0  0  0  0  0  0
  -40.8482   56.5682   65.7636 O   0  0  0  0  0  0  0  0  0  0  0  0
  -40.5183   57.7292   65.5391 C   0  0  0  0  0  0  0  0  0  0  0  0
  -42.0458   58.6097   66.4849 H   0  0  0  0  0  0  0  0  0  0  0  0
  -39.2742   58.0584   64.7522 C   0  0  0  0  0  0  0  0  0  0  0  0
  -38.0456   57.3172   65.2634 C   0  0  0  0  0  0  0  0  0  0  0  0
  -36.7485   58.0459   64.9506 C   0  0  0  0  0  0  0  0  0  0  0  0
  -35.5164   57.1576   64.9961 C   0  0  0  0  0  0  0  0  0  0  0  0
  -34.2244   57.9114   65.2741 C   0  0  0  0  0  0  0  0  0  0  0  0
  -34.3188   59.4128   65.0339 C   0  0  0  0  0  0  0  0  0  0  0  0
  -33.2154   59.9652   64.1407 C   0  0  0  0  0  0  0  0  0  0  0  0
  -32.4404   58.9053   63.3618 C   0  0  0  0  0  0  0  0  0  0  0  0
  -32.8746   58.7632   61.9039 C   0  0  0  0  0  0  0  0  0  0  0  0
  -33.9800   57.7348   61.6656 C   0  0  0  0  0  0  0  0  0  0  0  0
  -35.3836   58.3406   61.6563 C   0  0  0  0  0  0  0  0  0  0  0  0
  -36.5148   57.3573   61.9565 C   0  0  0  0  0  0  0  0  0  0  0  0
  -37.8902   57.7761   61.4306 C   0  0  0  0  0  0  0  0  0  0  0  0
  -37.8068   58.6892   60.2416 C   0  0  0  0  0  0  0  0  0  0  0  0
  -38.5960   59.7198   59.9947 C   0  0  0  0  0  0  0  0  0  0  0  0
  -39.7319   60.1863   60.8537 C   0  0  0  0  0  0  0  0  0  0  0  0
  -41.0259   60.4396   60.0773 C   0  0  0  0  0  0  0  0  0  0  0  0
  -41.9782   59.2512   60.0900 C   0  0  0  0  0  0  0  0  0  0  0  0
  -41.3555   57.9713   59.5440 C   0  0  0  0  0  0  0  0  0  0  0  0
  -41.3483   56.8044   60.5250 C   0  0  0  0  0  0  0  0  0  0  0  0
  -41.6628   57.2074   61.9589 C   0  0  0  0  0  0  0  0  0  0  0  0
  -42.0006   56.0406   62.8734 C   0  0  0  0  0  0  0  0  0  0  0  0
  -41.0374   54.8800   62.7282 C   0  0  0  0  0  0  0  0  0  0  0  0
  -41.5148   61.9144   64.1626 O   0  0  0  0  0  0  0  0  0  0  0  0
  -41.2296   60.5147   64.2400 C   0  0  0  0  0  0  0  0  0  0  0  0
  -40.7473   62.4185   64.4755 H   0  0  0  0  0  0  0  0  0  0  0  0
  -42.3952   59.7033   63.7638 C   0  0  0  0  0  0  0  0  0  0  0  0
  -43.4693   59.4283   64.4770 C   0  0  0  0  0  0  0  0  0  0  0  0
  -44.6230   58.6280   63.9680 C   0  0  0  0  0  0  0  0  0  0  0  0
  -45.4237   58.0212   65.1220 C   0  0  0  0  0  0  0  0  0  0  0  0
  -46.6470   58.8290   65.5240 C   0  0  0  0  0  0  0  0  0  0  0  0
  -47.7424   58.8692   64.4722 C   0  0  0  0  0  0  0  0  0  0  0  0
  -48.4556   60.2098   64.3726 C   0  0  0  0  0  0  0  0  0  0  0  0
  -49.5986   60.2205   63.3693 C   0  0  0  0  0  0  0  0  0  0  0  0
  -50.5049   59.0054   63.4613 C   0  0  0  0  0  0  0  0  0  0  0  0
  -50.6881   58.2699   62.1468 C   0  0  0  0  0  0  0  0  0  0  0  0
  -49.3903   58.0099   61.4012 C   0  0  0  0  0  0  0  0  0  0  0  0
  -49.5973   57.7593   59.9190 C   0  0  0  0  0  0  0  0  0  0  0  0
  -48.3784   58.0376   59.0606 C   0  0  0  0  0  0  0  0  0  0  0  0
  -48.3854   57.2490   57.7657 C   0  0  0  0  0  0  0  0  0  0  0  0
  -47.2722   57.6654   56.8266 C   0  0  0  0  0  0  0  0  0  0  0  0
  -39.3766   60.3630   65.9572 C   0  0  0  0  0  0  0  0  0  0  0  0
  -38.7770   60.9230   64.7834 O   0  0  0  0  0  0  0  0  0  0  0  0
  -37.0387   61.1285   62.5978 O   0  0  0  0  0  0  0  0  0  0  0  0
  -36.3134   64.6737   64.9276 O   0  0  0  0  0  0  0  0  0  0  0  0
  -37.3824   62.2522   66.0551 O   0  0  0  0  0  0  0  0  0  0  0  0
  -37.4602   61.3575   64.9610 C   0  0  0  0  0  0  0  0  0  0  0  0
  -37.0156   62.0509   63.6798 C   0  0  0  0  0  0  0  0  0  0  0  0
  -35.6133   62.6190   63.8584 C   0  0  0  0  0  0  0  0  0  0  0  0
  -35.5326   63.4954   65.0997 C   0  0  0  0  0  0  0  0  0  0  0  0
  -36.0480   62.7196   66.3093 C   0  0  0  0  0  0  0  0  0  0  0  0
  -37.9357   60.7741   62.4942 H   0  0  0  0  0  0  0  0  0  0  0  0
  -35.9875   65.1681   64.1593 H   0  0  0  0  0  0  0  0  0  0  0  0
  -36.5262   62.7799   68.6876 O   0  0  0  0  0  0  0  0  0  0  0  0
  -36.1086   63.5526   67.5682 C   0  0  0  0  0  0  0  0  0  0  0  0
  -36.5544   63.3431   69.4769 H   0  0  0  0  0  0  0  0  0  0  0  0
  -35.3923   63.4386   62.6673 O   0  0  0  0  0  0  0  0  0  0  0  0
  -33.0135   63.0956   62.8432 O   0  0  0  0  0  0  0  0  0  0  0  0
  -33.9764   65.4164   62.8834 O   0  0  0  0  0  0  0  0  0  0  0  0
  -33.9413   64.1093   60.9018 O   0  0  0  0  0  0  0  0  0  0  0  0
  -33.9542   64.0737   62.4389 S   0  0  0  0  0  0  0  0  0  0  0  0
  -32.9950   63.0457   63.8117 H   0  0  0  0  0  0  0  0  0  0  0  0
  -33.9258   63.2026   60.5575 H   0  0  0  0  0  0  0  0  0  0  0  0
  2  1  1  0  0  0
  2  4  1  0  0  0
  2  5  1  0  0  0
 47 48  1  0  0  0
 47  1  1  0  0  0
 48 52  1  0  0  0
  1 30  1  0  0  0
 29 30  1  0  0  0
 29 31  1  0  0  0
 30 32  1  0  0  0
  3  4  2  0  0  0
 32 33  2  0  0  0
 49 53  1  0  0  0
 49 57  1  0  0  0
 33 34  1  0  0  0
 62 54  1  0  0  0
 62 66  1  0  0  0
 34 35  1  0  0  0
 50 55  1  0  0  0
 50 58  1  0  0  0
 35 36  1  0  0  0
 51 52  1  0  0  0
 51 56  1  0  0  0
 36 37  1  0  0  0
 59 60  1  0  0  0
 59 61  1  0  0  0
 37 38  1  0  0  0
 63 66  1  0  0  0
 63 67  1  0  0  0
 38 39  1  0  0  0
 64 66  1  0  0  0
 39 40  1  0  0  0
 65 66  1  0  0  0
 65 68  1  0  0  0
 40 41  1  0  0  0
 41 42  1  0  0  0
 42 43  1  0  0  0
 43 44  1  0  0  0
 44 45  1  0  0  0
 45 46  1  0  0  0
  4  6  1  0  0  0
  6  7  1  0  0  0
  7  8  1  0  0  0
  8  9  1  0  0  0
  9 10  1  0  0  0
 10 11  1  0  0  0
 11 12  1  0  0  0
 12 13  1  0  0  0
 13 14  1  0  0  0
 14 15  1  0  0  0
 15 16  1  0  0  0
 16 17  1  0  0  0
 17 18  1  0  0  0
 18 19  1  0  0  0
 19 20  2  0  0  0
 20 21  1  0  0  0
 21 22  1  0  0  0
 22 23  1  0  0  0
 23 24  1  0  0  0
 24 25  1  0  0  0
 25 26  1  0  0  0
 26 27  1  0  0  0
 27 28  1  0  0  0
 52 53  1  0  0  0
 53 54  1  0  0  0
 54 55  1  0  0  0
 55 56  1  0  0  0
 56 60  1  0  0  0
M  CHG 1  64  -1
M  END
> <minimizedAffinity>
-8.22425

> <CNNscore>
0.1420788914

> <CNNaffinity>
7.3131790161

> <CNN_VS>
1.0390483141

> <CNNaffinity_variance>
2.0908551216

$$$$
/media/chris/experiments/cd1a-new-docking/inputs/ligands/7ryn_ligand.pdb


 68 68  0  0  0  0  0  0  0  0999 V2000
  -36.4226   58.6436   62.8860 C   0  0  0  0  0  0  0  0  0  0  0  0
  -36.4706   60.0699   63.1941 N   0  0  0  0  0  0  0  0  0  0  0  0
  -37.1918   61.7753   64.4744 O   0  0  0  0  0  0  0  0  0  0  0  0
  -37.1467   60.5730   64.2303 C   0  0  0  0  0  0  0  0  0  0  0  0
  -35.9802   60.6916   62.6090 H   0  0  0  0  0  0  0  0  0  0  0  0
  -37.8676   59.5650   65.0903 C   0  0  0  0  0  0  0  0  0  0  0  0
  -38.8718   60.2136   66.0344 C   0  0  0  0  0  0  0  0  0  0  0  0
  -40.2807   59.6715   65.8547 C   0  0  0  0  0  0  0  0  0  0  0  0
  -41.3605   60.5458   66.4702 C   0  0  0  0  0  0  0  0  0  0  0  0
  -42.3891   59.7731   67.2823 C   0  0  0  0  0  0  0  0  0  0  0  0
  -42.8039   58.4474   66.6567 C   0  0  0  0  0  0  0  0  0  0  0  0
  -43.9099   58.5752   65.6170 C   0  0  0  0  0  0  0  0  0  0  0  0
  -45.0176   57.5319   65.7387 C   0  0  0  0  0  0  0  0  0  0  0  0
  -46.0654   57.8581   66.8017 C   0  0  0  0  0  0  0  0  0  0  0  0
  -47.3823   57.0965   66.6532 C   0  0  0  0  0  0  0  0  0  0  0  0
  -48.5326   57.9634   66.1409 C   0  0  0  0  0  0  0  0  0  0  0  0
  -48.1670   59.4194   65.8525 C   0  0  0  0  0  0  0  0  0  0  0  0
  -47.8937   59.7364   64.3799 C   0  0  0  0  0  0  0  0  0  0  0  0
  -48.9307   60.6380   63.7751 C   0  0  0  0  0  0  0  0  0  0  0  0
  -50.0910   60.2600   63.2684 C   0  0  0  0  0  0  0  0  0  0  0  0
  -50.6065   58.8546   63.1980 C   0  0  0  0  0  0  0  0  0  0  0  0
  -49.9023   57.9934   62.1474 C   0  0  0  0  0  0  0  0  0  0  0  0
  -49.7290   58.6985   60.8087 C   0  0  0  0  0  0  0  0  0  0  0  0
  -49.4912   57.7406   59.6468 C   0  0  0  0  0  0  0  0  0  0  0  0
  -48.0436   57.2905   59.4858 C   0  0  0  0  0  0  0  0  0  0  0  0
  -47.8687   56.1192   58.5294 C   0  0  0  0  0  0  0  0  0  0  0  0
  -47.2616   56.4968   57.1876 C   0  0  0  0  0  0  0  0  0  0  0  0
  -46.9788   57.9803   57.0651 C   0  0  0  0  0  0  0  0  0  0  0  0
  -35.2831   57.3901   64.6080 O   0  0  0  0  0  0  0  0  0  0  0  0
  -35.0809   58.0643   63.3626 C   0  0  0  0  0  0  0  0  0  0  0  0
  -35.9605   56.7045   64.4982 H   0  0  0  0  0  0  0  0  0  0  0  0
  -34.0391   59.1325   63.4946 C   0  0  0  0  0  0  0  0  0  0  0  0
  -33.0502   59.3357   62.6467 C   0  0  0  0  0  0  0  0  0  0  0  0
  -32.0346   60.4202   62.7983 C   0  0  0  0  0  0  0  0  0  0  0  0
  -31.2542   60.6289   61.4990 C   0  0  0  0  0  0  0  0  0  0  0  0
  -31.1271   62.0831   61.0751 C   0  0  0  0  0  0  0  0  0  0  0  0
  -31.8055   63.0684   62.0116 C   0  0  0  0  0  0  0  0  0  0  0  0
  -32.6893   64.0857   61.3047 C   0  0  0  0  0  0  0  0  0  0  0  0
  -32.4595   65.5175   61.7633 C   0  0  0  0  0  0  0  0  0  0  0  0
  -31.6589   65.6272   63.0490 C   0  0  0  0  0  0  0  0  0  0  0  0
  -32.4046   66.3008   64.1860 C   0  0  0  0  0  0  0  0  0  0  0  0
  -32.7551   65.3660   65.3311 C   0  0  0  0  0  0  0  0  0  0  0  0
  -33.9671   64.5005   65.0410 C   0  0  0  0  0  0  0  0  0  0  0  0
  -33.7122   63.0093   65.1495 C   0  0  0  0  0  0  0  0  0  0  0  0
  -34.2716   62.4141   66.4267 C   0  0  0  0  0  0  0  0  0  0  0  0
  -35.4084   63.2348   67.0001 C   0  0  0  0  0  0  0  0  0  0  0  0
  -36.6420   58.4247   61.4033 C   0  0  0  0  0  0  0  0  0  0  0  0
  -37.8255   57.6362   61.2348 O   0  0  0  0  0  0  0  0  0  0  0  0
  -38.9114   60.2169   61.2794 O   0  0  0  0  0  0  0  0  0  0  0  0
  -42.3038   57.5824   61.5505 O   0  0  0  0  0  0  0  0  0  0  0  0
  -39.6566   56.8142   62.3750 O   0  0  0  0  0  0  0  0  0  0  0  0
  -38.8610   57.9563   62.1175 C   0  0  0  0  0  0  0  0  0  0  0  0
  -39.7034   59.0528   61.4785 C   0  0  0  0  0  0  0  0  0  0  0  0
  -40.8975   59.3735   62.3687 C   0  0  0  0  0  0  0  0  0  0  0  0
  -41.6763   58.1126   62.7136 C   0  0  0  0  0  0  0  0  0  0  0  0
  -40.7283   57.0680   63.2973 C   0  0  0  0  0  0  0  0  0  0  0  0
  -38.1551   60.0002   60.7119 H   0  0  0  0  0  0  0  0  0  0  0  0
  -42.9066   58.2447   61.1780 H   0  0  0  0  0  0  0  0  0  0  0  0
  -41.4283   54.9247   62.4001 O   0  0  0  0  0  0  0  0  0  0  0  0
  -41.3983   55.7408   63.5654 C   0  0  0  0  0  0  0  0  0  0  0  0
  -41.8637   54.0827   62.6062 H   0  0  0  0  0  0  0  0  0  0  0  0
  -41.7349   60.2581   61.5590 O   0  0  0  0  0  0  0  0  0  0  0  0
  -43.5476   60.7153   63.0795 O   0  0  0  0  0  0  0  0  0  0  0  0
  -42.8544   62.4198   61.3680 O   0  0  0  0  0  0  0  0  0  0  0  0
  -41.5017   61.9159   63.2528 O   0  0  0  0  0  0  0  0  0  0  0  0
  -42.5795   61.3856   62.2931 S   0  0  0  0  0  0  0  0  0  0  0  0
  -44.2461   60.3661   62.5041 H   0  0  0  0  0  0  0  0  0  0  0  0
  -41.2852   61.2320   63.9056 H   0  0  0  0  0  0  0  0  0  0  0  0
  2  1  1  0  0  0
  2  4  1  0  0  0
  2  5  1  0  0  0
 47 48  1  0  0  0
 47  1  1  0  0  0
 48 52  1  0  0  0
  1 30  1  0  0  0
 29 30  1  0  0  0
 29 31  1  0  0  0
 30 32  1  0  0  0
  3  4  2  0  0  0
 32 33  2  0  0  0
 49 53  1  0  0  0
 49 57  1  0  0  0
 33 34  1  0  0  0
 62 54  1  0  0  0
 62 66  1  0  0  0
 34 35  1  0  0  0
 50 55  1  0  0  0
 50 58  1  0  0  0
 35 36  1  0  0  0
 51 52  1  0  0  0
 51 56  1  0  0  0
 36 37  1  0  0  0
 59 60  1  0  0  0
 59 61  1  0  0  0
 37 38  1  0  0  0
 63 66  1  0  0  0
 63 67  1  0  0  0
 38 39  1  0  0  0
 64 66  1  0  0  0
 39 40  1  0  0  0
 65 66  1  0  0  0
 65 68  1  0  0  0
 40 41  1  0  0  0
 41 42  1  0  0  0
 42 43  1  0  0  0
 43 44  1  0  0  0
 44 45  1  0  0  0
 45 46  1  0  0  0
  4  6  1  0  0  0
  6  7  1  0  0  0
  7  8  1  0  0  0
  8  9  1  0  0  0
  9 10  1  0  0  0
 10 11  1  0  0  0
 11 12  1  0  0  0
 12 13  1  0  0  0
 13 14  1  0  0  0
 14 15  1  0  0  0
 15 16  1  0  0  0
 16 17  1  0  0  0
 17 18  1  0  0  0
 18 19  1  0  0  0
 19 20  2  0  0  0
 20 21  1  0  0  0
 21 22  1  0  0  0
 22 23  1  0  0  0
 23 24  1  0  0  0
 24 25  1  0  0  0
 25 26  1  0  0  0
 26 27  1  0  0  0
 27 28  1  0  0  0
 52 53  1  0  0  0
 53 54  1  0  0  0
 54 55  1  0  0  0
 55 56  1  0  0  0
 56 60  1  0  0  0
M  CHG 1  64  -1
M  END
> <minimizedAffinity>
-9.11003

> <CNNscore>
0.1281655580

> <CNNaffinity>
7.0251364708

> <CNN_VS>
0.9003805518

> <CNNaffinity_variance>
2.2065031528

$$$$
/media/chris/experiments/cd1a-new-docking/inputs/ligands/7ryn_ligand.pdb


 68 68  0  0  0  0  0  0  0  0999 V2000
  -39.0568   59.0275   60.9662 C   0  0  0  0  0  0  0  0  0  0  0  0
  -39.2347   57.8839   61.8562 N   0  0  0  0  0  0  0  0  0  0  0  0
  -40.5172   56.2366   62.6983 O   0  0  0  0  0  0  0  0  0  0  0  0
  -40.3726   57.1893   61.9377 C   0  0  0  0  0  0  0  0  0  0  0  0
  -38.4783   57.6113   62.4244 H   0  0  0  0  0  0  0  0  0  0  0  0
  -41.4872   57.6546   61.0340 C   0  0  0  0  0  0  0  0  0  0  0  0
  -42.7254   58.0879   61.8082 C   0  0  0  0  0  0  0  0  0  0  0  0
  -42.4706   59.2978   62.6927 C   0  0  0  0  0  0  0  0  0  0  0  0
  -43.4662   59.4499   63.8307 C   0  0  0  0  0  0  0  0  0  0  0  0
  -44.3666   58.2392   64.0262 C   0  0  0  0  0  0  0  0  0  0  0  0
  -43.9164   57.3058   65.1427 C   0  0  0  0  0  0  0  0  0  0  0  0
  -44.1088   57.8787   66.5410 C   0  0  0  0  0  0  0  0  0  0  0  0
  -45.4787   58.5065   66.7856 C   0  0  0  0  0  0  0  0  0  0  0  0
  -46.6215   57.4955   66.8628 C   0  0  0  0  0  0  0  0  0  0  0  0
  -47.9219   57.9522   66.2018 C   0  0  0  0  0  0  0  0  0  0  0  0
  -48.0021   59.4650   65.9965 C   0  0  0  0  0  0  0  0  0  0  0  0
  -47.7614   59.9372   64.5627 C   0  0  0  0  0  0  0  0  0  0  0  0
  -48.8878   60.7843   63.9649 C   0  0  0  0  0  0  0  0  0  0  0  0
  -50.2533   60.2452   64.2797 C   0  0  0  0  0  0  0  0  0  0  0  0
  -50.8259   59.1973   63.7141 C   0  0  0  0  0  0  0  0  0  0  0  0
  -50.2260   58.3340   62.6461 C   0  0  0  0  0  0  0  0  0  0  0  0
  -50.0702   59.0424   61.2987 C   0  0  0  0  0  0  0  0  0  0  0  0
  -50.2693   58.1172   60.1055 C   0  0  0  0  0  0  0  0  0  0  0  0
  -49.5229   56.7942   60.2348 C   0  0  0  0  0  0  0  0  0  0  0  0
  -48.2830   56.6804   59.3551 C   0  0  0  0  0  0  0  0  0  0  0  0
  -48.0651   57.8808   58.4447 C   0  0  0  0  0  0  0  0  0  0  0  0
  -47.3671   57.5501   57.1351 C   0  0  0  0  0  0  0  0  0  0  0  0
  -47.0363   56.0777   56.9990 C   0  0  0  0  0  0  0  0  0  0  0  0
  -37.6711   58.7640   59.0053 O   0  0  0  0  0  0  0  0  0  0  0  0
  -37.6234   59.0232   60.4114 C   0  0  0  0  0  0  0  0  0  0  0  0
  -38.2299   59.4285   58.5728 H   0  0  0  0  0  0  0  0  0  0  0  0
  -36.7673   58.0143   61.1135 C   0  0  0  0  0  0  0  0  0  0  0  0
  -35.7547   58.3007   61.9076 C   0  0  0  0  0  0  0  0  0  0  0  0
  -34.9286   57.2709   62.6059 C   0  0  0  0  0  0  0  0  0  0  0  0
  -33.4361   57.5072   62.3657 C   0  0  0  0  0  0  0  0  0  0  0  0
  -33.0661   58.9621   62.1271 C   0  0  0  0  0  0  0  0  0  0  0  0
  -31.8453   59.4311   62.9002 C   0  0  0  0  0  0  0  0  0  0  0  0
  -31.0304   60.4972   62.1824 C   0  0  0  0  0  0  0  0  0  0  0  0
  -31.2112   61.8938   62.7567 C   0  0  0  0  0  0  0  0  0  0  0  0
  -31.6165   62.9319   61.7251 C   0  0  0  0  0  0  0  0  0  0  0  0
  -33.0560   63.3960   61.8477 C   0  0  0  0  0  0  0  0  0  0  0  0
  -33.3288   64.7363   61.1866 C   0  0  0  0  0  0  0  0  0  0  0  0
  -34.0693   65.7042   62.0907 C   0  0  0  0  0  0  0  0  0  0  0  0
  -33.8755   65.4494   63.5732 C   0  0  0  0  0  0  0  0  0  0  0  0
  -32.6427   66.1372   64.1262 C   0  0  0  0  0  0  0  0  0  0  0  0
  -31.7648   65.1984   64.9278 C   0  0  0  0  0  0  0  0  0  0  0  0
  -39.3785   60.3125   61.7009 C   0  0  0  0  0  0  0  0  0  0  0  0
  -38.1461   60.9578   62.0405 O   0  0  0  0  0  0  0  0  0  0  0  0
  -36.5386   62.7205   63.5067 O   0  0  0  0  0  0  0  0  0  0  0  0
  -39.1490   60.9205   66.4166 O   0  0  0  0  0  0  0  0  0  0  0  0
  -38.4845   59.6582   63.9181 O   0  0  0  0  0  0  0  0  0  0  0  0
  -37.6185   60.5766   63.2776 C   0  0  0  0  0  0  0  0  0  0  0  0
  -37.4569   61.8301   64.1278 C   0  0  0  0  0  0  0  0  0  0  0  0
  -36.9656   61.4521   65.5194 C   0  0  0  0  0  0  0  0  0  0  0  0
  -37.8568   60.3883   66.1435 C   0  0  0  0  0  0  0  0  0  0  0  0
  -37.9888   59.2050   65.1879 C   0  0  0  0  0  0  0  0  0  0  0  0
  -36.8620   62.9536   62.6224 H   0  0  0  0  0  0  0  0  0  0  0  0
  -39.0673   61.6725   67.0237 H   0  0  0  0  0  0  0  0  0  0  0  0
  -40.2987   58.4882   65.3859 O   0  0  0  0  0  0  0  0  0  0  0  0
  -38.9489   58.1475   65.6802 C   0  0  0  0  0  0  0  0  0  0  0  0
  -40.8873   57.7905   65.7144 H   0  0  0  0  0  0  0  0  0  0  0  0
  -37.0651   62.6883   66.2948 O   0  0  0  0  0  0  0  0  0  0  0  0
  -36.0938   63.1622   68.4487 O   0  0  0  0  0  0  0  0  0  0  0  0
  -35.2586   64.3289   66.3855 O   0  0  0  0  0  0  0  0  0  0  0  0
  -34.8296   62.0280   66.7835 O   0  0  0  0  0  0  0  0  0  0  0  0
  -35.7775   63.2044   67.0692 S   0  0  0  0  0  0  0  0  0  0  0  0
  -36.6930   63.8935   68.6656 H   0  0  0  0  0  0  0  0  0  0  0  0
  -35.1533   61.2343   67.2375 H   0  0  0  0  0  0  0  0  0  0  0  0
  2  1  1  0  0  0
  2  4  1  0  0  0
  2  5  1  0  0  0
 47 48  1  0  0  0
 47  1  1  0  0  0
 48 52  1  0  0  0
  1 30  1  0  0  0
 29 30  1  0  0  0
 29 31  1  0  0  0
 30 32  1  0  0  0
  3  4  2  0  0  0
 32 33  2  0  0  0
 49 53  1  0  0  0
 49 57  1  0  0  0
 33 34  1  0  0  0
 62 54  1  0  0  0
 62 66  1  0  0  0
 34 35  1  0  0  0
 50 55  1  0  0  0
 50 58  1  0  0  0
 35 36  1  0  0  0
 51 52  1  0  0  0
 51 56  1  0  0  0
 36 37  1  0  0  0
 59 60  1  0  0  0
 59 61  1  0  0  0
 37 38  1  0  0  0
 63 66  1  0  0  0
 63 67  1  0  0  0
 38 39  1  0  0  0
 64 66  1  0  0  0
 39 40  1  0  0  0
 65 66  1  0  0  0
 65 68  1  0  0  0
 40 41  1  0  0  0
 41 42  1  0  0  0
 42 43  1  0  0  0
 43 44  1  0  0  0
 44 45  1  0  0  0
 45 46  1  0  0  0
  4  6  1  0  0  0
  6  7  1  0  0  0
  7  8  1  0  0  0
  8  9  1  0  0  0
  9 10  1  0  0  0
 10 11  1  0  0  0
 11 12  1  0  0  0
 12 13  1  0  0  0
 13 14  1  0  0  0
 14 15  1  0  0  0
 15 16  1  0  0  0
 16 17  1  0  0  0
 17 18  1  0  0  0
 18 19  1  0  0  0
 19 20  2  0  0  0
 20 21  1  0  0  0
 21 22  1  0  0  0
 22 23  1  0  0  0
 23 24  1  0  0  0
 24 25  1  0  0  0
 25 26  1  0  0  0
 26 27  1  0  0  0
 27 28  1  0  0  0
 52 53  1  0  0  0
 53 54  1  0  0  0
 54 55  1  0  0  0
 55 56  1  0  0  0
 56 60  1  0  0  0
M  CHG 1  64  -1
M  END
> <minimizedAffinity>
-9.08926

> <CNNscore>
0.1074757501

> <CNNaffinity>
6.9604697227

> <CNN_VS>
0.7480816841

> <CNNaffinity_variance>
1.6047897339

$$$$
/media/chris/experiments/cd1a-new-docking/inputs/ligands/7ryn_ligand.pdb


 68 68  0  0  0  0  0  0  0  0999 V2000
  -39.2141   59.6019   65.3652 C   0  0  0  0  0  0  0  0  0  0  0  0
  -40.3785   60.0711   66.1103 N   0  0  0  0  0  0  0  0  0  0  0  0
  -42.4071   61.0455   66.1666 O   0  0  0  0  0  0  0  0  0  0  0  0
  -41.4375   60.6424   65.5305 C   0  0  0  0  0  0  0  0  0  0  0  0
  -40.3834   59.9608   67.0886 H   0  0  0  0  0  0  0  0  0  0  0  0
  -41.3685   60.7722   64.0293 C   0  0  0  0  0  0  0  0  0  0  0  0
  -42.7204   60.5571   63.3610 C   0  0  0  0  0  0  0  0  0  0  0  0
  -43.1294   59.0934   63.3225 C   0  0  0  0  0  0  0  0  0  0  0  0
  -44.3465   58.7711   64.1734 C   0  0  0  0  0  0  0  0  0  0  0  0
  -44.2175   57.4801   64.9678 C   0  0  0  0  0  0  0  0  0  0  0  0
  -44.2406   57.6768   66.4783 C   0  0  0  0  0  0  0  0  0  0  0  0
  -45.1448   58.8130   66.9386 C   0  0  0  0  0  0  0  0  0  0  0  0
  -46.4389   58.3606   67.6103 C   0  0  0  0  0  0  0  0  0  0  0  0
  -47.7026   58.7160   66.8286 C   0  0  0  0  0  0  0  0  0  0  0  0
  -47.9557   57.8467   65.5971 C   0  0  0  0  0  0  0  0  0  0  0  0
  -47.9644   58.6346   64.2870 C   0  0  0  0  0  0  0  0  0  0  0  0
  -47.8789   60.1527   64.4443 C   0  0  0  0  0  0  0  0  0  0  0  0
  -49.1270   60.9188   63.9982 C   0  0  0  0  0  0  0  0  0  0  0  0
  -50.3984   60.1624   64.2543 C   0  0  0  0  0  0  0  0  0  0  0  0
  -51.0778   59.4585   63.3662 C   0  0  0  0  0  0  0  0  0  0  0  0
  -50.7142   59.2713   61.9245 C   0  0  0  0  0  0  0  0  0  0  0  0
  -50.9651   57.8535   61.4065 C   0  0  0  0  0  0  0  0  0  0  0  0
  -49.6968   57.0169   61.3032 C   0  0  0  0  0  0  0  0  0  0  0  0
  -48.9401   57.2243   59.9961 C   0  0  0  0  0  0  0  0  0  0  0  0
  -48.2579   55.9724   59.4562 C   0  0  0  0  0  0  0  0  0  0  0  0
  -47.0793   56.2644   58.5381 C   0  0  0  0  0  0  0  0  0  0  0  0
  -47.4742   56.7755   57.1617 C   0  0  0  0  0  0  0  0  0  0  0  0
  -46.9801   58.1822   56.8913 C   0  0  0  0  0  0  0  0  0  0  0  0
  -37.8160   57.6367   65.5009 O   0  0  0  0  0  0  0  0  0  0  0  0
  -39.1765   58.0654   65.3931 C   0  0  0  0  0  0  0  0  0  0  0  0
  -37.4156   58.0279   66.2932 H   0  0  0  0  0  0  0  0  0  0  0  0
  -39.8282   57.4795   64.1782 C   0  0  0  0  0  0  0  0  0  0  0  0
  -40.8112   56.6012   64.1944 C   0  0  0  0  0  0  0  0  0  0  0  0
  -41.4508   56.0463   62.9641 C   0  0  0  0  0  0  0  0  0  0  0  0
  -40.6813   56.4617   61.7087 C   0  0  0  0  0  0  0  0  0  0  0  0
  -41.5568   57.0126   60.5949 C   0  0  0  0  0  0  0  0  0  0  0  0
  -41.1833   58.4137   60.1418 C   0  0  0  0  0  0  0  0  0  0  0  0
  -39.6838   58.6668   60.0860 C   0  0  0  0  0  0  0  0  0  0  0  0
  -39.2192   59.7884   61.0021 C   0  0  0  0  0  0  0  0  0  0  0  0
  -37.9774   59.4466   61.8067 C   0  0  0  0  0  0  0  0  0  0  0  0
  -37.1835   58.2785   61.2519 C   0  0  0  0  0  0  0  0  0  0  0  0
  -36.7381   57.2807   62.3072 C   0  0  0  0  0  0  0  0  0  0  0  0
  -35.4428   57.6778   62.9904 C   0  0  0  0  0  0  0  0  0  0  0  0
  -34.2446   57.7562   62.0639 C   0  0  0  0  0  0  0  0  0  0  0  0
  -32.9362   57.9066   62.8151 C   0  0  0  0  0  0  0  0  0  0  0  0
  -33.1372   58.3667   64.2443 C   0  0  0  0  0  0  0  0  0  0  0  0
  -37.9511   60.2121   65.9368 C   0  0  0  0  0  0  0  0  0  0  0  0
  -36.9544   60.2304   64.9087 O   0  0  0  0  0  0  0  0  0  0  0  0
  -35.0972   60.8041   62.8931 O   0  0  0  0  0  0  0  0  0  0  0  0
  -35.9397   64.6006   64.7367 O   0  0  0  0  0  0  0  0  0  0  0  0
  -36.2806   62.0897   66.0994 O   0  0  0  0  0  0  0  0  0  0  0  0
  -35.8989   61.1157   65.1459 C   0  0  0  0  0  0  0  0  0  0  0  0
  -35.5375   61.7834   63.8254 C   0  0  0  0  0  0  0  0  0  0  0  0
  -34.4474   62.8232   64.0522 C   0  0  0  0  0  0  0  0  0  0  0  0
  -34.8410   63.7965   65.1536 C   0  0  0  0  0  0  0  0  0  0  0  0
  -35.2305   63.0198   66.4090 C   0  0  0  0  0  0  0  0  0  0  0  0
  -35.7990   60.1485   62.7572 H   0  0  0  0  0  0  0  0  0  0  0  0
  -35.6942   65.0950   63.9391 H   0  0  0  0  0  0  0  0  0  0  0  0
  -36.4157   63.1506   68.5225 O   0  0  0  0  0  0  0  0  0  0  0  0
  -35.7437   63.9050   67.5205 C   0  0  0  0  0  0  0  0  0  0  0  0
  -36.7316   63.7473   69.2190 H   0  0  0  0  0  0  0  0  0  0  0  0
  -34.3493   63.5391   62.7806 O   0  0  0  0  0  0  0  0  0  0  0  0
  -33.1586   64.2543   60.8114 O   0  0  0  0  0  0  0  0  0  0  0  0
  -32.6322   62.0474   61.8920 O   0  0  0  0  0  0  0  0  0  0  0  0
  -32.0408   64.1110   62.9060 O   0  0  0  0  0  0  0  0  0  0  0  0
  -33.0085   63.4102   61.9383 S   0  0  0  0  0  0  0  0  0  0  0  0
  -33.7654   63.8418   60.1769 H   0  0  0  0  0  0  0  0  0  0  0  0
  -32.2676   65.0523   62.9648 H   0  0  0  0  0  0  0  0  0  0  0  0
  2  1  1  0  0  0
  2  4  1  0  0  0
  2  5  1  0  0  0
 47 48  1  0  0  0
 47  1  1  0  0  0
 48 52  1  0  0  0
  1 30  1  0  0  0
 29 30  1  0  0  0
 29 31  1  0  0  0
 30 32  1  0  0  0
  3  4  2  0  0  0
 32 33  2  0  0  0
 49 53  1  0  0  0
 49 57  1  0  0  0
 33 34  1  0  0  0
 62 54  1  0  0  0
 62 66  1  0  0  0
 34 35  1  0  0  0
 50 55  1  0  0  0
 50 58  1  0  0  0
 35 36  1  0  0  0
 51 52  1  0  0  0
 51 56  1  0  0  0
 36 37  1  0  0  0
 59 60  1  0  0  0
 59 61  1  0  0  0
 37 38  1  0  0  0
 63 66  1  0  0  0
 63 67  1  0  0  0
 38 39  1  0  0  0
 64 66  1  0  0  0
 39 40  1  0  0  0
 65 66  1  0  0  0
 65 68  1  0  0  0
 40 41  1  0  0  0
 41 42  1  0  0  0
 42 43  1  0  0  0
 43 44  1  0  0  0
 44 45  1  0  0  0
 45 46  1  0  0  0
  4  6  1  0  0  0
  6  7  1  0  0  0
  7  8  1  0  0  0
  8  9  1  0  0  0
  9 10  1  0  0  0
 10 11  1  0  0  0
 11 12  1  0  0  0
 12 13  1  0  0  0
 13 14  1  0  0  0
 14 15  1  0  0  0
 15 16  1  0  0  0
 16 17  1  0  0  0
 17 18  1  0  0  0
 18 19  1  0  0  0
 19 20  2  0  0  0
 20 21  1  0  0  0
 21 22  1  0  0  0
 22 23  1  0  0  0
 23 24  1  0  0  0
 24 25  1  0  0  0
 25 26  1  0  0  0
 26 27  1  0  0  0
 27 28  1  0  0  0
 52 53  1  0  0  0
 53 54  1  0  0  0
 54 55  1  0  0  0
 55 56  1  0  0  0
 56 60  1  0  0  0
M  CHG 1  64  -1
M  END
> <minimizedAffinity>
-9.15023

> <CNNscore>
0.0983447433

> <CNNaffinity>
7.3720536232

> <CNN_VS>
0.7250027061

> <CNNaffinity_variance>
2.1434409618

$$$$
/media/chris/experiments/cd1a-new-docking/inputs/ligands/7ryn_ligand.pdb


 68 68  0  0  0  0  0  0  0  0999 V2000
  -40.7230   59.8309   65.1979 C   0  0  0  0  0  0  0  0  0  0  0  0
  -41.6107   60.3603   66.2289 N   0  0  0  0  0  0  0  0  0  0  0  0
  -43.1545   60.0452   67.8367 O   0  0  0  0  0  0  0  0  0  0  0  0
  -42.4017   59.5899   66.9804 C   0  0  0  0  0  0  0  0  0  0  0  0
  -41.6271   61.3333   66.3775 H   0  0  0  0  0  0  0  0  0  0  0  0
  -42.3208   58.1087   66.7069 C   0  0  0  0  0  0  0  0  0  0  0  0
  -43.6851   57.4892   66.4326 C   0  0  0  0  0  0  0  0  0  0  0  0
  -44.3359   58.0379   65.1730 C   0  0  0  0  0  0  0  0  0  0  0  0
  -45.7127   58.6389   65.4025 C   0  0  0  0  0  0  0  0  0  0  0  0
  -46.1909   58.5487   66.8439 C   0  0  0  0  0  0  0  0  0  0  0  0
  -47.3207   57.5501   67.0608 C   0  0  0  0  0  0  0  0  0  0  0  0
  -48.2798   57.4382   65.8826 C   0  0  0  0  0  0  0  0  0  0  0  0
  -49.7217   57.8259   66.2004 C   0  0  0  0  0  0  0  0  0  0  0  0
  -50.1736   59.1306   65.5463 C   0  0  0  0  0  0  0  0  0  0  0  0
  -49.1519   60.2654   65.6158 C   0  0  0  0  0  0  0  0  0  0  0  0
  -48.5820   60.6559   64.2520 C   0  0  0  0  0  0  0  0  0  0  0  0
  -48.9423   59.7113   63.1055 C   0  0  0  0  0  0  0  0  0  0  0  0
  -49.9875   60.2535   62.1271 C   0  0  0  0  0  0  0  0  0  0  0  0
  -49.7076   59.8699   60.7028 C   0  0  0  0  0  0  0  0  0  0  0  0
  -50.0108   58.7168   60.1332 C   0  0  0  0  0  0  0  0  0  0  0  0
  -50.6980   57.5606   60.7940 C   0  0  0  0  0  0  0  0  0  0  0  0
  -49.8544   56.2846   60.8324 C   0  0  0  0  0  0  0  0  0  0  0  0
  -49.0767   56.0379   59.5465 C   0  0  0  0  0  0  0  0  0  0  0  0
  -47.5692   56.1943   59.7118 C   0  0  0  0  0  0  0  0  0  0  0  0
  -46.7718   56.0222   58.4240 C   0  0  0  0  0  0  0  0  0  0  0  0
  -47.6214   56.0932   57.1629 C   0  0  0  0  0  0  0  0  0  0  0  0
  -47.7517   57.4906   56.5782 C   0  0  0  0  0  0  0  0  0  0  0  0
  -46.6632   58.4319   57.0527 C   0  0  0  0  0  0  0  0  0  0  0  0
  -38.8668   61.1607   65.9859 O   0  0  0  0  0  0  0  0  0  0  0  0
  -39.2798   59.8158   65.7268 C   0  0  0  0  0  0  0  0  0  0  0  0
  -39.4826   61.5731   66.6118 H   0  0  0  0  0  0  0  0  0  0  0  0
  -38.3499   59.1462   64.7620 C   0  0  0  0  0  0  0  0  0  0  0  0
  -37.4537   58.2338   65.0821 C   0  0  0  0  0  0  0  0  0  0  0  0
  -36.5501   57.5731   64.0933 C   0  0  0  0  0  0  0  0  0  0  0  0
  -35.4276   58.5168   63.6572 C   0  0  0  0  0  0  0  0  0  0  0  0
  -34.2213   58.5195   64.5821 C   0  0  0  0  0  0  0  0  0  0  0  0
  -32.9013   58.2299   63.8880 C   0  0  0  0  0  0  0  0  0  0  0  0
  -32.7333   58.9449   62.5552 C   0  0  0  0  0  0  0  0  0  0  0  0
  -31.6647   60.0270   62.5730 C   0  0  0  0  0  0  0  0  0  0  0  0
  -32.1898   61.4112   62.2347 C   0  0  0  0  0  0  0  0  0  0  0  0
  -31.7199   62.4992   63.1824 C   0  0  0  0  0  0  0  0  0  0  0  0
  -32.8486   63.2238   63.8955 C   0  0  0  0  0  0  0  0  0  0  0  0
  -34.0372   62.3275   64.1893 C   0  0  0  0  0  0  0  0  0  0  0  0
  -34.1453   61.8850   65.6359 C   0  0  0  0  0  0  0  0  0  0  0  0
  -34.7402   62.9556   66.5296 C   0  0  0  0  0  0  0  0  0  0  0  0
  -36.0363   63.5154   65.9808 C   0  0  0  0  0  0  0  0  0  0  0  0
  -40.8552   60.6475   63.9291 C   0  0  0  0  0  0  0  0  0  0  0  0
  -42.1062   60.3226   63.3126 O   0  0  0  0  0  0  0  0  0  0  0  0
  -41.3062   60.5252   60.6368 O   0  0  0  0  0  0  0  0  0  0  0  0
  -39.3827   56.9649   62.1018 O   0  0  0  0  0  0  0  0  0  0  0  0
  -41.7853   58.0371   63.2661 O   0  0  0  0  0  0  0  0  0  0  0  0
  -42.0678   59.1897   62.4946 C   0  0  0  0  0  0  0  0  0  0  0  0
  -40.9833   59.4016   61.4462 C   0  0  0  0  0  0  0  0  0  0  0  0
  -40.8455   58.1530   60.5841 C   0  0  0  0  0  0  0  0  0  0  0  0
  -40.6448   56.9142   61.4445 C   0  0  0  0  0  0  0  0  0  0  0  0
  -41.7555   56.8296   62.4884 C   0  0  0  0  0  0  0  0  0  0  0  0
  -41.3912   61.3130   61.1963 H   0  0  0  0  0  0  0  0  0  0  0  0
  -38.6755   57.0187   61.4402 H   0  0  0  0  0  0  0  0  0  0  0  0
  -41.2095   54.4848   62.7924 O   0  0  0  0  0  0  0  0  0  0  0  0
  -41.5723   55.6876   63.4604 C   0  0  0  0  0  0  0  0  0  0  0  0
  -41.1000   53.7738   63.4432 H   0  0  0  0  0  0  0  0  0  0  0  0
  -39.6459   58.3890   59.7812 O   0  0  0  0  0  0  0  0  0  0  0  0
  -37.4175   58.0598   60.6372 O   0  0  0  0  0  0  0  0  0  0  0  0
  -38.8534   59.9337   61.4985 O   0  0  0  0  0  0  0  0  0  0  0  0
  -37.9264   59.9689   59.3131 O   0  0  0  0  0  0  0  0  0  0  0  0
  -38.3914   59.0745   60.4740 S   0  0  0  0  0  0  0  0  0  0  0  0
  -37.6795   57.4741   61.3647 H   0  0  0  0  0  0  0  0  0  0  0  0
  -37.6008   59.4137   58.5875 H   0  0  0  0  0  0  0  0  0  0  0  0
  2  1  1  0  0  0
  2  4  1  0  0  0
  2  5  1  0  0  0
 47 48  1  0  0  0
 47  1  1  0  0  0
 48 52  1  0  0  0
  1 30  1  0  0  0
 29 30  1  0  0  0
 29 31  1  0  0  0
 30 32  1  0  0  0
  3  4  2  0  0  0
 32 33  2  0  0  0
 49 53  1  0  0  0
 49 57  1  0  0  0
 33 34  1  0  0  0
 62 54  1  0  0  0
 62 66  1  0  0  0
 34 35  1  0  0  0
 50 55  1  0  0  0
 50 58  1  0  0  0
 35 36  1  0  0  0
 51 52  1  0  0  0
 51 56  1  0  0  0
 36 37  1  0  0  0
 59 60  1  0  0  0
 59 61  1  0  0  0
 37 38  1  0  0  0
 63 66  1  0  0  0
 63 67  1  0  0  0
 38 39  1  0  0  0
 64 66  1  0  0  0
 39 40  1  0  0  0
 65 66  1  0  0  0
 65 68  1  0  0  0
 40 41  1  0  0  0
 41 42  1  0  0  0
 42 43  1  0  0  0
 43 44  1  0  0  0
 44 45  1  0  0  0
 45 46  1  0  0  0
  4  6  1  0  0  0
  6  7  1  0  0  0
  7  8  1  0  0  0
  8  9  1  0  0  0
  9 10  1  0  0  0
 10 11  1  0  0  0
 11 12  1  0  0  0
 12 13  1  0  0  0
 13 14  1  0  0  0
 14 15  1  0  0  0
 15 16  1  0  0  0
 16 17  1  0  0  0
 17 18  1  0  0  0
 18 19  1  0  0  0
 19 20  2  0  0  0
 20 21  1  0  0  0
 21 22  1  0  0  0
 22 23  1  0  0  0
 23 24  1  0  0  0
 24 25  1  0  0  0
 25 26  1  0  0  0
 26 27  1  0  0  0
 27 28  1  0  0  0
 52 53  1  0  0  0
 53 54  1  0  0  0
 54 55  1  0  0  0
 55 56  1  0  0  0
 56 60  1  0  0  0
M  CHG 1  64  -1
M  END
> <minimizedAffinity>
-8.87750

> <CNNscore>
0.0845721886

> <CNNaffinity>
6.9214963913

> <CNN_VS>
0.5853660703

> <CNNaffinity_variance>
2.2239289284

$$$$
/media/chris/experiments/cd1a-new-docking/inputs/ligands/7ryn_ligand.pdb


 68 68  0  0  0  0  0  0  0  0999 V2000
  -40.9386   58.3659   64.6749 C   0  0  0  0  0  0  0  0  0  0  0  0
  -39.8758   57.7068   65.4281 N   0  0  0  0  0  0  0  0  0  0  0  0
  -37.6898   57.3711   65.8487 O   0  0  0  0  0  0  0  0  0  0  0  0
  -38.5772   57.9395   65.2190 C   0  0  0  0  0  0  0  0  0  0  0  0
  -40.1287   57.0587   66.1246 H   0  0  0  0  0  0  0  0  0  0  0  0
  -38.2601   58.9495   64.1444 C   0  0  0  0  0  0  0  0  0  0  0  0
  -36.8104   58.8764   63.6826 C   0  0  0  0  0  0  0  0  0  0  0  0
  -36.5008   57.5968   62.9223 C   0  0  0  0  0  0  0  0  0  0  0  0
  -35.0162   57.2958   62.8012 C   0  0  0  0  0  0  0  0  0  0  0  0
  -34.1234   58.3151   63.4931 C   0  0  0  0  0  0  0  0  0  0  0  0
  -33.1980   59.0711   62.5481 C   0  0  0  0  0  0  0  0  0  0  0  0
  -31.7909   59.2751   63.0949 C   0  0  0  0  0  0  0  0  0  0  0  0
  -30.9684   60.3247   62.3517 C   0  0  0  0  0  0  0  0  0  0  0  0
  -31.8087   61.3648   61.6126 C   0  0  0  0  0  0  0  0  0  0  0  0
  -31.7363   62.7750   62.1978 C   0  0  0  0  0  0  0  0  0  0  0  0
  -32.3517   63.8422   61.2925 C   0  0  0  0  0  0  0  0  0  0  0  0
  -31.8098   65.2566   61.4985 C   0  0  0  0  0  0  0  0  0  0  0  0
  -32.8452   66.2822   61.9675 C   0  0  0  0  0  0  0  0  0  0  0  0
  -33.9750   65.6607   62.7365 C   0  0  0  0  0  0  0  0  0  0  0  0
  -33.9849   65.4009   64.0319 C   0  0  0  0  0  0  0  0  0  0  0  0
  -32.8706   65.6772   64.9952 C   0  0  0  0  0  0  0  0  0  0  0  0
  -32.1122   64.4226   65.4339 C   0  0  0  0  0  0  0  0  0  0  0  0
  -33.0205   63.2256   65.6812 C   0  0  0  0  0  0  0  0  0  0  0  0
  -33.8388   63.3416   66.9622 C   0  0  0  0  0  0  0  0  0  0  0  0
  -35.3400   63.1568   66.7713 C   0  0  0  0  0  0  0  0  0  0  0  0
  -35.7027   62.0024   65.8477 C   0  0  0  0  0  0  0  0  0  0  0  0
  -36.2662   62.4344   64.5033 C   0  0  0  0  0  0  0  0  0  0  0  0
  -35.3304   62.1373   63.3491 C   0  0  0  0  0  0  0  0  0  0  0  0
  -40.9837   59.7442   66.6581 O   0  0  0  0  0  0  0  0  0  0  0  0
  -41.8149   59.1824   65.6383 C   0  0  0  0  0  0  0  0  0  0  0  0
  -40.2887   60.2828   66.2484 H   0  0  0  0  0  0  0  0  0  0  0  0
  -42.9018   58.3423   66.2355 C   0  0  0  0  0  0  0  0  0  0  0  0
  -44.1883   58.6276   66.1965 C   0  0  0  0  0  0  0  0  0  0  0  0
  -45.2505   57.7608   66.7891 C   0  0  0  0  0  0  0  0  0  0  0  0
  -46.5439   57.8416   65.9758 C   0  0  0  0  0  0  0  0  0  0  0  0
  -47.4189   59.0377   66.3140 C   0  0  0  0  0  0  0  0  0  0  0  0
  -47.9719   59.7694   65.1029 C   0  0  0  0  0  0  0  0  0  0  0  0
  -48.3348   58.8563   63.9409 C   0  0  0  0  0  0  0  0  0  0  0  0
  -49.3462   59.4627   62.9804 C   0  0  0  0  0  0  0  0  0  0  0  0
  -49.9017   58.4730   61.9714 C   0  0  0  0  0  0  0  0  0  0  0  0
  -49.6868   58.8784   60.5251 C   0  0  0  0  0  0  0  0  0  0  0  0
  -49.4909   57.7054   59.5798 C   0  0  0  0  0  0  0  0  0  0  0  0
  -48.1172   57.0716   59.6970 C   0  0  0  0  0  0  0  0  0  0  0  0
  -47.7239   56.2063   58.5152 C   0  0  0  0  0  0  0  0  0  0  0  0
  -47.8982   56.9185   57.1881 C   0  0  0  0  0  0  0  0  0  0  0  0
  -46.8870   58.0284   56.9880 C   0  0  0  0  0  0  0  0  0  0  0  0
  -41.7436   57.3392   63.9054 C   0  0  0  0  0  0  0  0  0  0  0  0
  -40.8923   56.7476   62.9175 O   0  0  0  0  0  0  0  0  0  0  0  0
  -43.0294   58.3606   62.0977 O   0  0  0  0  0  0  0  0  0  0  0  0
  -39.5026   60.6711   61.2346 O   0  0  0  0  0  0  0  0  0  0  0  0
  -39.4853   57.8001   61.4204 O   0  0  0  0  0  0  0  0  0  0  0  0
  -40.8267   57.4571   61.7148 C   0  0  0  0  0  0  0  0  0  0  0  0
  -41.6726   58.7152   61.8627 C   0  0  0  0  0  0  0  0  0  0  0  0
  -41.5604   59.5655   60.6036 C   0  0  0  0  0  0  0  0  0  0  0  0
  -40.1041   59.8333   60.2529 C   0  0  0  0  0  0  0  0  0  0  0  0
  -39.3429   58.5119   60.1808 C   0  0  0  0  0  0  0  0  0  0  0  0
  -43.0879   57.8200   62.9010 H   0  0  0  0  0  0  0  0  0  0  0  0
  -39.9849   61.5114   61.2820 H   0  0  0  0  0  0  0  0  0  0  0  0
  -37.5747   59.9485   59.3451 O   0  0  0  0  0  0  0  0  0  0  0  0
  -37.8611   58.6914   59.9471 C   0  0  0  0  0  0  0  0  0  0  0  0
  -36.6177   60.0314   59.2092 H   0  0  0  0  0  0  0  0  0  0  0  0
  -42.2187   60.8252   60.9487 O   0  0  0  0  0  0  0  0  0  0  0  0
  -41.0326   61.3056   62.9906 O   0  0  0  0  0  0  0  0  0  0  0  0
  -43.3967   60.4559   63.0556 O   0  0  0  0  0  0  0  0  0  0  0  0
  -42.8755   62.6541   62.3256 O   0  0  0  0  0  0  0  0  0  0  0  0
  -42.3512   61.2172   62.4825 S   0  0  0  0  0  0  0  0  0  0  0  0
  -40.6688   60.4134   63.1027 H   0  0  0  0  0  0  0  0  0  0  0  0
  -42.1838   63.2097   61.9338 H   0  0  0  0  0  0  0  0  0  0  0  0
  2  1  1  0  0  0
  2  4  1  0  0  0
  2  5  1  0  0  0
 47 48  1  0  0  0
 47  1  1  0  0  0
 48 52  1  0  0  0
  1 30  1  0  0  0
 29 30  1  0  0  0
 29 31  1  0  0  0
 30 32  1  0  0  0
  3  4  2  0  0  0
 32 33  2  0  0  0
 49 53  1  0  0  0
 49 57  1  0  0  0
 33 34  1  0  0  0
 62 54  1  0  0  0
 62 66  1  0  0  0
 34 35  1  0  0  0
 50 55  1  0  0  0
 50 58  1  0  0  0
 35 36  1  0  0  0
 51 52  1  0  0  0
 51 56  1  0  0  0
 36 37  1  0  0  0
 59 60  1  0  0  0
 59 61  1  0  0  0
 37 38  1  0  0  0
 63 66  1  0  0  0
 63 67  1  0  0  0
 38 39  1  0  0  0
 64 66  1  0  0  0
 39 40  1  0  0  0
 65 66  1  0  0  0
 65 68  1  0  0  0
 40 41  1  0  0  0
 41 42  1  0  0  0
 42 43  1  0  0  0
 43 44  1  0  0  0
 44 45  1  0  0  0
 45 46  1  0  0  0
  4  6  1  0  0  0
  6  7  1  0  0  0
  7  8  1  0  0  0
  8  9  1  0  0  0
  9 10  1  0  0  0
 10 11  1  0  0  0
 11 12  1  0  0  0
 12 13  1  0  0  0
 13 14  1  0  0  0
 14 15  1  0  0  0
 15 16  1  0  0  0
 16 17  1  0  0  0
 17 18  1  0  0  0
 18 19  1  0  0  0
 19 20  2  0  0  0
 20 21  1  0  0  0
 21 22  1  0  0  0
 22 23  1  0  0  0
 23 24  1  0  0  0
 24 25  1  0  0  0
 25 26  1  0  0  0
 26 27  1  0  0  0
 27 28  1  0  0  0
 52 53  1  0  0  0
 53 54  1  0  0  0
 54 55  1  0  0  0
 55 56  1  0  0  0
 56 60  1  0  0  0
M  CHG 1  64  -1
M  END
> <minimizedAffinity>
-8.06516

> <CNNscore>
0.0740213096

> <CNNaffinity>
7.1279692650

> <CNN_VS>
0.5276216269

> <CNNaffinity_variance>
1.4260126352

$$$$
/media/chris/experiments/cd1a-new-docking/inputs/ligands/7ryn_ligand.pdb


 68 68  0  0  0  0  0  0  0  0999 V2000
  -40.9086   56.9739   64.1369 C   0  0  0  0  0  0  0  0  0  0  0  0
  -39.5474   56.8860   64.6569 N   0  0  0  0  0  0  0  0  0  0  0  0
  -37.7626   57.8353   65.6476 O   0  0  0  0  0  0  0  0  0  0  0  0
  -38.9122   57.9150   65.2243 C   0  0  0  0  0  0  0  0  0  0  0  0
  -39.0741   56.0257   64.5859 H   0  0  0  0  0  0  0  0  0  0  0  0
  -39.6976   59.2000   65.3090 C   0  0  0  0  0  0  0  0  0  0  0  0
  -38.9731   60.2767   66.1067 C   0  0  0  0  0  0  0  0  0  0  0  0
  -37.8317   60.9137   65.3303 C   0  0  0  0  0  0  0  0  0  0  0  0
  -36.8437   61.6734   66.1997 C   0  0  0  0  0  0  0  0  0  0  0  0
  -35.6748   62.2672   65.4278 C   0  0  0  0  0  0  0  0  0  0  0  0
  -34.3212   62.0572   66.0944 C   0  0  0  0  0  0  0  0  0  0  0  0
  -33.1700   62.7623   65.3887 C   0  0  0  0  0  0  0  0  0  0  0  0
  -32.7805   64.1062   65.9992 C   0  0  0  0  0  0  0  0  0  0  0  0
  -31.8031   64.9159   65.1487 C   0  0  0  0  0  0  0  0  0  0  0  0
  -32.3565   66.2438   64.6322 C   0  0  0  0  0  0  0  0  0  0  0  0
  -32.7589   66.2035   63.1578 C   0  0  0  0  0  0  0  0  0  0  0  0
  -34.1015   65.5311   62.8716 C   0  0  0  0  0  0  0  0  0  0  0  0
  -34.0055   64.1579   62.2015 C   0  0  0  0  0  0  0  0  0  0  0  0
  -32.8480   64.0522   61.2513 C   0  0  0  0  0  0  0  0  0  0  0  0
  -31.8486   63.1918   61.3344 C   0  0  0  0  0  0  0  0  0  0  0  0
  -31.6712   62.1460   62.3930 C   0  0  0  0  0  0  0  0  0  0  0  0
  -31.9580   60.7239   61.9062 C   0  0  0  0  0  0  0  0  0  0  0  0
  -31.6848   59.6599   62.9609 C   0  0  0  0  0  0  0  0  0  0  0  0
  -32.6165   58.4572   62.8623 C   0  0  0  0  0  0  0  0  0  0  0  0
  -33.8305   58.5221   63.7821 C   0  0  0  0  0  0  0  0  0  0  0  0
  -34.8868   59.5220   63.3330 C   0  0  0  0  0  0  0  0  0  0  0  0
  -36.1074   58.8886   62.6844 C   0  0  0  0  0  0  0  0  0  0  0  0
  -36.0520   57.3744   62.6772 C   0  0  0  0  0  0  0  0  0  0  0  0
  -42.5936   55.3163   64.6347 O   0  0  0  0  0  0  0  0  0  0  0  0
  -41.8915   56.4332   65.1878 C   0  0  0  0  0  0  0  0  0  0  0  0
  -41.9563   54.6435   64.3481 H   0  0  0  0  0  0  0  0  0  0  0  0
  -42.8460   57.4945   65.6422 C   0  0  0  0  0  0  0  0  0  0  0  0
  -44.1587   57.3746   65.6635 C   0  0  0  0  0  0  0  0  0  0  0  0
  -45.0840   58.4472   66.1369 C   0  0  0  0  0  0  0  0  0  0  0  0
  -46.5446   58.0106   66.0071 C   0  0  0  0  0  0  0  0  0  0  0  0
  -47.5521   59.1112   66.2977 C   0  0  0  0  0  0  0  0  0  0  0  0
  -48.3321   59.5811   65.0816 C   0  0  0  0  0  0  0  0  0  0  0  0
  -49.3640   58.5797   64.5836 C   0  0  0  0  0  0  0  0  0  0  0  0
  -50.6175   59.2263   64.0145 C   0  0  0  0  0  0  0  0  0  0  0  0
  -51.0166   58.6914   62.6505 C   0  0  0  0  0  0  0  0  0  0  0  0
  -49.8457   58.2460   61.7943 C   0  0  0  0  0  0  0  0  0  0  0  0
  -50.2031   57.1863   60.7662 C   0  0  0  0  0  0  0  0  0  0  0  0
  -49.0405   56.8201   59.8625 C   0  0  0  0  0  0  0  0  0  0  0  0
  -48.5010   57.9730   59.0379 C   0  0  0  0  0  0  0  0  0  0  0  0
  -47.4734   57.5276   58.0160 C   0  0  0  0  0  0  0  0  0  0  0  0
  -47.6768   56.0925   57.5760 C   0  0  0  0  0  0  0  0  0  0  0  0
  -41.0123   56.2264   62.8235 C   0  0  0  0  0  0  0  0  0  0  0  0
  -42.1125   56.7669   62.0832 O   0  0  0  0  0  0  0  0  0  0  0  0
  -43.3868   59.1642   62.7692 O   0  0  0  0  0  0  0  0  0  0  0  0
  -39.2670   60.2393   62.1418 O   0  0  0  0  0  0  0  0  0  0  0  0
  -40.4823   57.9284   60.9334 O   0  0  0  0  0  0  0  0  0  0  0  0
  -41.8194   57.9492   61.3973 C   0  0  0  0  0  0  0  0  0  0  0  0
  -42.0271   59.1146   62.3559 C   0  0  0  0  0  0  0  0  0  0  0  0
  -41.6346   60.4203   61.6763 C   0  0  0  0  0  0  0  0  0  0  0  0
  -40.2301   60.3345   61.0973 C   0  0  0  0  0  0  0  0  0  0  0  0
  -40.1214   59.1071   60.1959 C   0  0  0  0  0  0  0  0  0  0  0  0
  -43.6245   58.3282   63.1999 H   0  0  0  0  0  0  0  0  0  0  0  0
  -39.3345   61.0183   62.7157 H   0  0  0  0  0  0  0  0  0  0  0  0
  -37.9869   60.0956   59.5995 O   0  0  0  0  0  0  0  0  0  0  0  0
  -38.7250   58.8809   59.6654 C   0  0  0  0  0  0  0  0  0  0  0  0
  -37.0978   59.9155   59.2559 H   0  0  0  0  0  0  0  0  0  0  0  0
  -41.6609   61.4165   62.7470 O   0  0  0  0  0  0  0  0  0  0  0  0
  -42.3708   63.5949   63.4939 O   0  0  0  0  0  0  0  0  0  0  0  0
  -44.0574   61.7907   63.0297 O   0  0  0  0  0  0  0  0  0  0  0  0
  -42.8591   62.8640   61.2838 O   0  0  0  0  0  0  0  0  0  0  0  0
  -42.8462   62.4740   62.7710 S   0  0  0  0  0  0  0  0  0  0  0  0
  -42.3493   63.3837   64.4404 H   0  0  0  0  0  0  0  0  0  0  0  0
  -42.0407   63.3371   61.0664 H   0  0  0  0  0  0  0  0  0  0  0  0
  2  1  1  0  0  0
  2  4  1  0  0  0
  2  5  1  0  0  0
 47 48  1  0  0  0
 47  1  1  0  0  0
 48 52  1  0  0  0
  1 30  1  0  0  0
 29 30  1  0  0  0
 29 31  1  0  0  0
 30 32  1  0  0  0
  3  4  2  0  0  0
 32 33  2  0  0  0
 49 53  1  0  0  0
 49 57  1  0  0  0
 33 34  1  0  0  0
 62 54  1  0  0  0
 62 66  1  0  0  0
 34 35  1  0  0  0
 50 55  1  0  0  0
 50 58  1  0  0  0
 35 36  1  0  0  0
 51 52  1  0  0  0
 51 56  1  0  0  0
 36 37  1  0  0  0
 59 60  1  0  0  0
 59 61  1  0  0  0
 37 38  1  0  0  0
 63 66  1  0  0  0
 63 67  1  0  0  0
 38 39  1  0  0  0
 64 66  1  0  0  0
 39 40  1  0  0  0
 65 66  1  0  0  0
 65 68  1  0  0  0
 40 41  1  0  0  0
 41 42  1  0  0  0
 42 43  1  0  0  0
 43 44  1  0  0  0
 44 45  1  0  0  0
 45 46  1  0  0  0
  4  6  1  0  0  0
  6  7  1  0  0  0
  7  8  1  0  0  0
  8  9  1  0  0  0
  9 10  1  0  0  0
 10 11  1  0  0  0
 11 12  1  0  0  0
 12 13  1  0  0  0
 13 14  1  0  0  0
 14 15  1  0  0  0
 15 16  1  0  0  0
 16 17  1  0  0  0
 17 18  1  0  0  0
 18 19  1  0  0  0
 19 20  2  0  0  0
 20 21  1  0  0  0
 21 22  1  0  0  0
 22 23  1  0  0  0
 23 24  1  0  0  0
 24 25  1  0  0  0
 25 26  1  0  0  0
 26 27  1  0  0  0
 27 28  1  0  0  0
 52 53  1  0  0  0
 53 54  1  0  0  0
 54 55  1  0  0  0
 55 56  1  0  0  0
 56 60  1  0  0  0
M  CHG 1  64  -1
M  END
> <minimizedAffinity>
-8.07672

> <CNNscore>
0.0732481480

> <CNNaffinity>
7.1624464989

> <CNN_VS>
0.5246359706

> <CNNaffinity_variance>
1.4958229065

$$$$
/media/chris/experiments/cd1a-new-docking/inputs/ligands/7ryn_ligand.pdb


 68 68  0  0  0  0  0  0  0  0999 V2000
  -34.4708   60.4269   63.6993 C   0  0  0  0  0  0  0  0  0  0  0  0
  -35.6825   61.0441   63.1682 N   0  0  0  0  0  0  0  0  0  0  0  0
  -37.7059   61.9793   63.4836 O   0  0  0  0  0  0  0  0  0  0  0  0
  -36.6849   61.4728   63.9399 C   0  0  0  0  0  0  0  0  0  0  0  0
  -35.7649   61.1496   62.1928 H   0  0  0  0  0  0  0  0  0  0  0  0
  -36.4900   61.2889   65.4244 C   0  0  0  0  0  0  0  0  0  0  0  0
  -37.7952   60.9979   66.1539 C   0  0  0  0  0  0  0  0  0  0  0  0
  -38.2518   59.5575   65.9873 C   0  0  0  0  0  0  0  0  0  0  0  0
  -39.4772   59.3980   65.1029 C   0  0  0  0  0  0  0  0  0  0  0  0
  -40.7185   58.9328   65.8494 C   0  0  0  0  0  0  0  0  0  0  0  0
  -41.5534   60.0667   66.4308 C   0  0  0  0  0  0  0  0  0  0  0  0
  -42.6927   59.5974   67.3264 C   0  0  0  0  0  0  0  0  0  0  0  0
  -43.5130   58.4433   66.7558 C   0  0  0  0  0  0  0  0  0  0  0  0
  -45.0046   58.7462   66.6230 C   0  0  0  0  0  0  0  0  0  0  0  0
  -45.7618   57.8159   65.6756 C   0  0  0  0  0  0  0  0  0  0  0  0
  -47.0748   57.2917   66.2575 C   0  0  0  0  0  0  0  0  0  0  0  0
  -48.3344   57.7309   65.5112 C   0  0  0  0  0  0  0  0  0  0  0  0
  -48.7579   59.1813   65.7581 C   0  0  0  0  0  0  0  0  0  0  0  0
  -48.5326   60.0658   64.5661 C   0  0  0  0  0  0  0  0  0  0  0  0
  -49.3445   60.2009   63.5324 C   0  0  0  0  0  0  0  0  0  0  0  0
  -50.6555   59.5000   63.3434 C   0  0  0  0  0  0  0  0  0  0  0  0
  -50.6204   58.4094   62.2706 C   0  0  0  0  0  0  0  0  0  0  0  0
  -49.2749   58.3014   61.5656 C   0  0  0  0  0  0  0  0  0  0  0  0
  -49.3739   58.4322   60.0500 C   0  0  0  0  0  0  0  0  0  0  0  0
  -48.4242   57.5260   59.2748 C   0  0  0  0  0  0  0  0  0  0  0  0
  -47.7203   58.2220   58.1183 C   0  0  0  0  0  0  0  0  0  0  0  0
  -47.4520   57.3233   56.9216 C   0  0  0  0  0  0  0  0  0  0  0  0
  -47.4453   55.8511   57.2799 C   0  0  0  0  0  0  0  0  0  0  0  0
  -33.6686   58.5615   65.0075 O   0  0  0  0  0  0  0  0  0  0  0  0
  -34.8561   59.2604   64.6233 C   0  0  0  0  0  0  0  0  0  0  0  0
  -33.0534   59.1790   65.4333 H   0  0  0  0  0  0  0  0  0  0  0  0
  -35.8312   58.3361   63.9608 C   0  0  0  0  0  0  0  0  0  0  0  0
  -35.8987   58.1083   62.6641 C   0  0  0  0  0  0  0  0  0  0  0  0
  -36.8739   57.1682   62.0348 C   0  0  0  0  0  0  0  0  0  0  0  0
  -38.2928   57.7392   62.0745 C   0  0  0  0  0  0  0  0  0  0  0  0
  -38.4053   59.1650   61.5596 C   0  0  0  0  0  0  0  0  0  0  0  0
  -38.9931   59.2804   60.1635 C   0  0  0  0  0  0  0  0  0  0  0  0
  -39.8923   58.1166   59.7726 C   0  0  0  0  0  0  0  0  0  0  0  0
  -41.3752   58.4045   59.9494 C   0  0  0  0  0  0  0  0  0  0  0  0
  -42.0750   57.4488   60.8998 C   0  0  0  0  0  0  0  0  0  0  0  0
  -41.8600   57.7687   62.3675 C   0  0  0  0  0  0  0  0  0  0  0  0
  -43.1278   58.1703   63.1018 C   0  0  0  0  0  0  0  0  0  0  0  0
  -43.2660   59.6720   63.2698 C   0  0  0  0  0  0  0  0  0  0  0  0
  -42.0880   60.4716   62.7470 C   0  0  0  0  0  0  0  0  0  0  0  0
  -42.4962   61.5005   61.7110 C   0  0  0  0  0  0  0  0  0  0  0  0
  -43.2489   62.6671   62.3169 C   0  0  0  0  0  0  0  0  0  0  0  0
  -33.6297   61.4644   64.4138 C   0  0  0  0  0  0  0  0  0  0  0  0
  -32.3500   61.5252   63.7738 O   0  0  0  0  0  0  0  0  0  0  0  0
  -32.8665   62.7167   61.2930 O   0  0  0  0  0  0  0  0  0  0  0  0
  -33.5948   65.8192   64.1854 O   0  0  0  0  0  0  0  0  0  0  0  0
  -31.8556   63.5842   64.6929 O   0  0  0  0  0  0  0  0  0  0  0  0
  -31.9037   62.8216   63.5014 C   0  0  0  0  0  0  0  0  0  0  0  0
  -32.8703   63.4544   62.5087 C   0  0  0  0  0  0  0  0  0  0  0  0
  -32.4717   64.9016   62.2486 C   0  0  0  0  0  0  0  0  0  0  0  0
  -32.3276   65.6717   63.5530 C   0  0  0  0  0  0  0  0  0  0  0  0
  -31.3800   64.9241   64.4877 C   0  0  0  0  0  0  0  0  0  0  0  0
  -33.1215   61.7980   61.4714 H   0  0  0  0  0  0  0  0  0  0  0  0
  -34.1985   66.2941   63.5930 H   0  0  0  0  0  0  0  0  0  0  0  0
  -32.4498   65.3741   66.6188 O   0  0  0  0  0  0  0  0  0  0  0  0
  -31.2655   65.5616   65.8526 C   0  0  0  0  0  0  0  0  0  0  0  0
  -32.3433   65.7942   67.4867 H   0  0  0  0  0  0  0  0  0  0  0  0
  -33.5813   65.4568   61.4741 O   0  0  0  0  0  0  0  0  0  0  0  0
  -35.7937   66.2645   61.9841 O   0  0  0  0  0  0  0  0  0  0  0  0
  -35.0070   64.0479   62.8689 O   0  0  0  0  0  0  0  0  0  0  0  0
  -35.5006   64.3748   60.5698 O   0  0  0  0  0  0  0  0  0  0  0  0
  -35.0645   65.0555   61.8777 S   0  0  0  0  0  0  0  0  0  0  0  0
  -35.5428   66.7226   62.8015 H   0  0  0  0  0  0  0  0  0  0  0  0
  -35.5519   65.0365   59.8624 H   0  0  0  0  0  0  0  0  0  0  0  0
  2  1  1  0  0  0
  2  4  1  0  0  0
  2  5  1  0  0  0
 47 48  1  0  0  0
 47  1  1  0  0  0
 48 52  1  0  0  0
  1 30  1  0  0  0
 29 30  1  0  0  0
 29 31  1  0  0  0
 30 32  1  0  0  0
  3  4  2  0  0  0
 32 33  2  0  0  0
 49 53  1  0  0  0
 49 57  1  0  0  0
 33 34  1  0  0  0
 62 54  1  0  0  0
 62 66  1  0  0  0
 34 35  1  0  0  0
 50 55  1  0  0  0
 50 58  1  0  0  0
 35 36  1  0  0  0
 51 52  1  0  0  0
 51 56  1  0  0  0
 36 37  1  0  0  0
 59 60  1  0  0  0
 59 61  1  0  0  0
 37 38  1  0  0  0
 63 66  1  0  0  0
 63 67  1  0  0  0
 38 39  1  0  0  0
 64 66  1  0  0  0
 39 40  1  0  0  0
 65 66  1  0  0  0
 65 68  1  0  0  0
 40 41  1  0  0  0
 41 42  1  0  0  0
 42 43  1  0  0  0
 43 44  1  0  0  0
 44 45  1  0  0  0
 45 46  1  0  0  0
  4  6  1  0  0  0
  6  7  1  0  0  0
  7  8  1  0  0  0
  8  9  1  0  0  0
  9 10  1  0  0  0
 10 11  1  0  0  0
 11 12  1  0  0  0
 12 13  1  0  0  0
 13 14  1  0  0  0
 14 15  1  0  0  0
 15 16  1  0  0  0
 16 17  1  0  0  0
 17 18  1  0  0  0
 18 19  1  0  0  0
 19 20  2  0  0  0
 20 21  1  0  0  0
 21 22  1  0  0  0
 22 23  1  0  0  0
 23 24  1  0  0  0
 24 25  1  0  0  0
 25 26  1  0  0  0
 26 27  1  0  0  0
 27 28  1  0  0  0
 52 53  1  0  0  0
 53 54  1  0  0  0
 54 55  1  0  0  0
 55 56  1  0  0  0
 56 60  1  0  0  0
M  CHG 1  64  -1
M  END
> <minimizedAffinity>
-9.25821

> <CNNscore>
0.0708469599

> <CNNaffinity>
7.0744199753

> <CNN_VS>
0.5012011528

> <CNNaffinity_variance>
2.1368317604

$$$$
/media/chris/experiments/cd1a-new-docking/inputs/ligands/7ryn_ligand.pdb


 68 68  0  0  0  0  0  0  0  0999 V2000
  -36.4095   60.5453   63.9155 C   0  0  0  0  0  0  0  0  0  0  0  0
  -36.5423   59.1740   64.3982 N   0  0  0  0  0  0  0  0  0  0  0  0
  -37.7043   57.5838   65.4886 O   0  0  0  0  0  0  0  0  0  0  0  0
  -37.6068   58.7358   65.0756 C   0  0  0  0  0  0  0  0  0  0  0  0
  -35.8110   58.5408   64.2153 H   0  0  0  0  0  0  0  0  0  0  0  0
  -38.6936   59.7546   65.3132 C   0  0  0  0  0  0  0  0  0  0  0  0
  -39.8850   59.1743   66.0644 C   0  0  0  0  0  0  0  0  0  0  0  0
  -40.9372   60.2210   66.3938 C   0  0  0  0  0  0  0  0  0  0  0  0
  -42.2690   59.6380   66.8361 C   0  0  0  0  0  0  0  0  0  0  0  0
  -42.3434   58.1223   66.7281 C   0  0  0  0  0  0  0  0  0  0  0  0
  -43.7338   57.5917   66.4024 C   0  0  0  0  0  0  0  0  0  0  0  0
  -44.4140   58.3128   65.2458 C   0  0  0  0  0  0  0  0  0  0  0  0
  -45.8823   58.6538   65.4873 C   0  0  0  0  0  0  0  0  0  0  0  0
  -46.2554   58.7871   66.9628 C   0  0  0  0  0  0  0  0  0  0  0  0
  -47.7570   58.7500   67.2462 C   0  0  0  0  0  0  0  0  0  0  0  0
  -48.5429   59.8338   66.5080 C   0  0  0  0  0  0  0  0  0  0  0  0
  -49.7808   59.3394   65.7598 C   0  0  0  0  0  0  0  0  0  0  0  0
  -49.4916   58.6115   64.4443 C   0  0  0  0  0  0  0  0  0  0  0  0
  -49.4001   59.5428   63.2703 C   0  0  0  0  0  0  0  0  0  0  0  0
  -50.0195   59.3986   62.1121 C   0  0  0  0  0  0  0  0  0  0  0  0
  -50.9407   58.2772   61.7384 C   0  0  0  0  0  0  0  0  0  0  0  0
  -50.5858   57.6072   60.4093 C   0  0  0  0  0  0  0  0  0  0  0  0
  -49.0859   57.5225   60.1593 C   0  0  0  0  0  0  0  0  0  0  0  0
  -48.6231   56.1378   59.7205 C   0  0  0  0  0  0  0  0  0  0  0  0
  -47.2844   56.1214   58.9913 C   0  0  0  0  0  0  0  0  0  0  0  0
  -47.4099   55.9569   57.4832 C   0  0  0  0  0  0  0  0  0  0  0  0
  -47.7603   57.2388   56.7444 C   0  0  0  0  0  0  0  0  0  0  0  0
  -46.8658   58.4013   57.1243 C   0  0  0  0  0  0  0  0  0  0  0  0
  -36.9176   62.6880   64.9082 O   0  0  0  0  0  0  0  0  0  0  0  0
  -36.1707   61.4846   65.1086 C   0  0  0  0  0  0  0  0  0  0  0  0
  -37.8562   62.4709   64.7944 H   0  0  0  0  0  0  0  0  0  0  0  0
  -34.7136   61.7820   65.2884 C   0  0  0  0  0  0  0  0  0  0  0  0
  -34.1876   62.9896   65.3438 C   0  0  0  0  0  0  0  0  0  0  0  0
  -32.7307   63.2538   65.5391 C   0  0  0  0  0  0  0  0  0  0  0  0
  -32.4662   64.7449   65.7572 C   0  0  0  0  0  0  0  0  0  0  0  0
  -32.9083   65.6313   64.6041 C   0  0  0  0  0  0  0  0  0  0  0  0
  -31.7933   66.0101   63.6443 C   0  0  0  0  0  0  0  0  0  0  0  0
  -32.0268   65.5507   62.2124 C   0  0  0  0  0  0  0  0  0  0  0  0
  -33.1932   64.5862   62.0630 C   0  0  0  0  0  0  0  0  0  0  0  0
  -32.7985   63.2306   61.5038 C   0  0  0  0  0  0  0  0  0  0  0  0
  -31.3788   62.8130   61.8396 C   0  0  0  0  0  0  0  0  0  0  0  0
  -31.2932   61.5991   62.7489 C   0  0  0  0  0  0  0  0  0  0  0  0
  -31.7311   60.3156   62.0682 C   0  0  0  0  0  0  0  0  0  0  0  0
  -32.2109   59.2351   63.0182 C   0  0  0  0  0  0  0  0  0  0  0  0
  -32.7589   58.0222   62.2921 C   0  0  0  0  0  0  0  0  0  0  0  0
  -34.2563   58.1016   62.0779 C   0  0  0  0  0  0  0  0  0  0  0  0
  -37.6376   60.9373   63.1201 C   0  0  0  0  0  0  0  0  0  0  0  0
  -37.5436   60.3389   61.8225 O   0  0  0  0  0  0  0  0  0  0  0  0
  -37.7162   57.5466   61.7030 O   0  0  0  0  0  0  0  0  0  0  0  0
  -41.4783   58.8194   63.3610 O   0  0  0  0  0  0  0  0  0  0  0  0
  -39.8426   60.5151   61.7099 O   0  0  0  0  0  0  0  0  0  0  0  0
  -38.7183   59.7174   61.3888 C   0  0  0  0  0  0  0  0  0  0  0  0
  -38.8179   58.3632   62.0792 C   0  0  0  0  0  0  0  0  0  0  0  0
  -40.1294   57.6854   61.7029 C   0  0  0  0  0  0  0  0  0  0  0  0
  -41.3139   58.6044   61.9630 C   0  0  0  0  0  0  0  0  0  0  0  0
  -41.0850   59.9447   61.2688 C   0  0  0  0  0  0  0  0  0  0  0  0
  -36.8880   57.9883   61.9475 H   0  0  0  0  0  0  0  0  0  0  0  0
  -41.6239   57.9688   63.8040 H   0  0  0  0  0  0  0  0  0  0  0  0
  -41.9417   61.6077   62.8146 O   0  0  0  0  0  0  0  0  0  0  0  0
  -42.1630   60.9604   61.5669 C   0  0  0  0  0  0  0  0  0  0  0  0
  -42.6494   62.2514   62.9749 H   0  0  0  0  0  0  0  0  0  0  0  0
  -40.2109   56.5224   62.5862 O   0  0  0  0  0  0  0  0  0  0  0  0
  -40.9501   54.2447   62.8557 O   0  0  0  0  0  0  0  0  0  0  0  0
  -41.9935   55.7297   61.1176 O   0  0  0  0  0  0  0  0  0  0  0  0
  -42.3846   56.0506   63.4371 O   0  0  0  0  0  0  0  0  0  0  0  0
  -41.4089   55.4987   62.3848 S   0  0  0  0  0  0  0  0  0  0  0  0
  -40.3295   53.8656   62.2137 H   0  0  0  0  0  0  0  0  0  0  0  0
  -42.0173   55.9102   64.3238 H   0  0  0  0  0  0  0  0  0  0  0  0
  2  1  1  0  0  0
  2  4  1  0  0  0
  2  5  1  0  0  0
 47 48  1  0  0  0
 47  1  1  0  0  0
 48 52  1  0  0  0
  1 30  1  0  0  0
 29 30  1  0  0  0
 29 31  1  0  0  0
 30 32  1  0  0  0
  3  4  2  0  0  0
 32 33  2  0  0  0
 49 53  1  0  0  0
 49 57  1  0  0  0
 33 34  1  0  0  0
 62 54  1  0  0  0
 62 66  1  0  0  0
 34 35  1  0  0  0
 50 55  1  0  0  0
 50 58  1  0  0  0
 35 36  1  0  0  0
 51 52  1  0  0  0
 51 56  1  0  0  0
 36 37  1  0  0  0
 59 60  1  0  0  0
 59 61  1  0  0  0
 37 38  1  0  0  0
 63 66  1  0  0  0
 63 67  1  0  0  0
 38 39  1  0  0  0
 64 66  1  0  0  0
 39 40  1  0  0  0
 65 66  1  0  0  0
 65 68  1  0  0  0
 40 41  1  0  0  0
 41 42  1  0  0  0
 42 43  1  0  0  0
 43 44  1  0  0  0
 44 45  1  0  0  0
 45 46  1  0  0  0
  4  6  1  0  0  0
  6  7  1  0  0  0
  7  8  1  0  0  0
  8  9  1  0  0  0
  9 10  1  0  0  0
 10 11  1  0  0  0
 11 12  1  0  0  0
 12 13  1  0  0  0
 13 14  1  0  0  0
 14 15  1  0  0  0
 15 16  1  0  0  0
 16 17  1  0  0  0
 17 18  1  0  0  0
 18 19  1  0  0  0
 19 20  2  0  0  0
 20 21  1  0  0  0
 21 22  1  0  0  0
 22 23  1  0  0  0
 23 24  1  0  0  0
 24 25  1  0  0  0
 25 26  1  0  0  0
 26 27  1  0  0  0
 27 28  1  0  0  0
 52 53  1  0  0  0
 53 54  1  0  0  0
 54 55  1  0  0  0
 55 56  1  0  0  0
 56 60  1  0  0  0
M  CHG 1  64  -1
M  END
> <minimizedAffinity>
-8.83193

> <CNNscore>
0.0663519576

> <CNNaffinity>
6.7778611183

> <CNN_VS>
0.4497243464

> <CNNaffinity_variance>
1.6884682178

$$$$
