/media/chris/experiments/cd1a-new-docking/inputs/ligands/7ryn_ligand.pdb


 68 68  0  0  0  0  0  0  0  0999 V2000
  -32.8804   61.8537   62.9463 C   0  0  0  0  0  0  0  0  0  0  0  0
  -33.7760   61.2441   63.9249 N   0  0  0  0  0  0  0  0  0  0  0  0
  -35.6663   62.1602   63.1151 O   0  0  0  0  0  0  0  0  0  0  0  0
  -35.0966   61.4440   63.9335 C   0  0  0  0  0  0  0  0  0  0  0  0
  -33.3873   60.6566   64.6126 H   0  0  0  0  0  0  0  0  0  0  0  0
  -35.8586   60.7231   65.0175 C   0  0  0  0  0  0  0  0  0  0  0  0
  -37.3536   60.6533   64.7341 C   0  0  0  0  0  0  0  0  0  0  0  0
  -38.0916   59.7390   65.6989 C   0  0  0  0  0  0  0  0  0  0  0  0
  -39.5006   59.3833   65.2550 C   0  0  0  0  0  0  0  0  0  0  0  0
  -40.5836   60.2267   65.9109 C   0  0  0  0  0  0  0  0  0  0  0  0
  -41.9328   59.5275   66.0199 C   0  0  0  0  0  0  0  0  0  0  0  0
  -41.8787   58.0335   65.7278 C   0  0  0  0  0  0  0  0  0  0  0  0
  -43.0547   57.5046   64.9107 C   0  0  0  0  0  0  0  0  0  0  0  0
  -44.3331   58.3286   65.0548 C   0  0  0  0  0  0  0  0  0  0  0  0
  -45.4168   57.6785   65.9147 C   0  0  0  0  0  0  0  0  0  0  0  0
  -46.3800   58.6851   66.5442 C   0  0  0  0  0  0  0  0  0  0  0  0
  -47.8325   58.5662   66.0832 C   0  0  0  0  0  0  0  0  0  0  0  0
  -48.5873   59.8944   65.9801 C   0  0  0  0  0  0  0  0  0  0  0  0
  -48.5655   60.4715   64.5942 C   0  0  0  0  0  0  0  0  0  0  0  0
  -49.5193   60.3551   63.6874 C   0  0  0  0  0  0  0  0  0  0  0  0
  -50.8168   59.6254   63.8609 C   0  0  0  0  0  0  0  0  0  0  0  0
  -51.2612   58.8568   62.6146 C   0  0  0  0  0  0  0  0  0  0  0  0
  -50.1323   58.6168   61.6209 C   0  0  0  0  0  0  0  0  0  0  0  0
  -50.1669   57.2296   60.9895 C   0  0  0  0  0  0  0  0  0  0  0  0
  -48.9920   56.9266   60.0667 C   0  0  0  0  0  0  0  0  0  0  0  0
  -48.5348   58.1227   59.2436 C   0  0  0  0  0  0  0  0  0  0  0  0
  -47.8486   57.7538   57.9379 C   0  0  0  0  0  0  0  0  0  0  0  0
  -47.4088   56.3045   57.8923 C   0  0  0  0  0  0  0  0  0  0  0  0
  -31.5501   61.0029   61.1185 O   0  0  0  0  0  0  0  0  0  0  0  0
  -31.8250   60.8244   62.5109 C   0  0  0  0  0  0  0  0  0  0  0  0
  -31.2600   61.9150   60.9605 H   0  0  0  0  0  0  0  0  0  0  0  0
  -32.2767   59.4242   62.7927 C   0  0  0  0  0  0  0  0  0  0  0  0
  -32.9411   58.6579   61.9504 C   0  0  0  0  0  0  0  0  0  0  0  0
  -33.3648   57.2588   62.2561 C   0  0  0  0  0  0  0  0  0  0  0  0
  -34.6842   57.2401   63.0306 C   0  0  0  0  0  0  0  0  0  0  0  0
  -35.8218   57.9759   62.3414 C   0  0  0  0  0  0  0  0  0  0  0  0
  -37.2077   57.5302   62.7754 C   0  0  0  0  0  0  0  0  0  0  0  0
  -38.2653   57.6503   61.6878 C   0  0  0  0  0  0  0  0  0  0  0  0
  -38.0712   58.8531   60.7774 C   0  0  0  0  0  0  0  0  0  0  0  0
  -39.1529   59.0024   59.7220 C   0  0  0  0  0  0  0  0  0  0  0  0
  -40.3251   58.0556   59.9000 C   0  0  0  0  0  0  0  0  0  0  0  0
  -41.6224   58.7474   60.2825 C   0  0  0  0  0  0  0  0  0  0  0  0
  -41.7679   58.9501   61.7793 C   0  0  0  0  0  0  0  0  0  0  0  0
  -41.5460   60.3772   62.2425 C   0  0  0  0  0  0  0  0  0  0  0  0
  -42.8317   61.0577   62.6693 C   0  0  0  0  0  0  0  0  0  0  0  0
  -43.0254   62.4036   62.0017 C   0  0  0  0  0  0  0  0  0  0  0  0
  -32.2508   63.1034   63.5260 C   0  0  0  0  0  0  0  0  0  0  0  0
  -30.8786   63.1471   63.1185 O   0  0  0  0  0  0  0  0  0  0  0  0
  -30.4482   63.6090   60.3904 O   0  0  0  0  0  0  0  0  0  0  0  0
  -32.4776   67.1312   61.8040 O   0  0  0  0  0  0  0  0  0  0  0  0
  -30.9333   65.4187   63.5245 O   0  0  0  0  0  0  0  0  0  0  0  0
  -30.4514   64.3997   62.6685 C   0  0  0  0  0  0  0  0  0  0  0  0
  -30.9854   64.6010   61.2563 C   0  0  0  0  0  0  0  0  0  0  0  0
  -30.6172   65.9922   60.7568 C   0  0  0  0  0  0  0  0  0  0  0  0
  -31.0565   67.0620   61.7457 C   0  0  0  0  0  0  0  0  0  0  0  0
  -30.5089   66.7341   63.1325 C   0  0  0  0  0  0  0  0  0  0  0  0
  -30.6890   62.7285   60.7186 H   0  0  0  0  0  0  0  0  0  0  0  0
  -32.8275   67.3396   60.9236 H   0  0  0  0  0  0  0  0  0  0  0  0
  -32.3181   67.3829   64.6138 O   0  0  0  0  0  0  0  0  0  0  0  0
  -30.9902   67.6861   64.2022 C   0  0  0  0  0  0  0  0  0  0  0  0
  -32.5956   68.0107   65.2991 H   0  0  0  0  0  0  0  0  0  0  0  0
  -31.3633   66.1460   59.5081 O   0  0  0  0  0  0  0  0  0  0  0  0
  -30.8951   66.0653   57.1456 O   0  0  0  0  0  0  0  0  0  0  0  0
  -29.3853   67.3316   58.7053 O   0  0  0  0  0  0  0  0  0  0  0  0
  -31.5648   68.1053   58.1692 O   0  0  0  0  0  0  0  0  0  0  0  0
  -30.6551   66.8712   58.2850 S   0  0  0  0  0  0  0  0  0  0  0  0
  -30.3354   65.2741   57.1856 H   0  0  0  0  0  0  0  0  0  0  0  0
  -32.4492   67.8292   57.8818 H   0  0  0  0  0  0  0  0  0  0  0  0
  2  1  1  0  0  0
  2  4  1  0  0  0
  2  5  1  0  0  0
 47 48  1  0  0  0
 47  1  1  0  0  0
 48 52  1  0  0  0
  1 30  1  0  0  0
 29 30  1  0  0  0
 29 31  1  0  0  0
 30 32  1  0  0  0
  3  4  2  0  0  0
 32 33  2  0  0  0
 49 53  1  0  0  0
 49 57  1  0  0  0
 33 34  1  0  0  0
 62 54  1  0  0  0
 62 66  1  0  0  0
 34 35  1  0  0  0
 50 55  1  0  0  0
 50 58  1  0  0  0
 35 36  1  0  0  0
 51 52  1  0  0  0
 51 56  1  0  0  0
 36 37  1  0  0  0
 59 60  1  0  0  0
 59 61  1  0  0  0
 37 38  1  0  0  0
 63 66  1  0  0  0
 63 67  1  0  0  0
 38 39  1  0  0  0
 64 66  1  0  0  0
 39 40  1  0  0  0
 65 66  1  0  0  0
 65 68  1  0  0  0
 40 41  1  0  0  0
 41 42  1  0  0  0
 42 43  1  0  0  0
 43 44  1  0  0  0
 44 45  1  0  0  0
 45 46  1  0  0  0
  4  6  1  0  0  0
  6  7  1  0  0  0
  7  8  1  0  0  0
  8  9  1  0  0  0
  9 10  1  0  0  0
 10 11  1  0  0  0
 11 12  1  0  0  0
 12 13  1  0  0  0
 13 14  1  0  0  0
 14 15  1  0  0  0
 15 16  1  0  0  0
 16 17  1  0  0  0
 17 18  1  0  0  0
 18 19  1  0  0  0
 19 20  2  0  0  0
 20 21  1  0  0  0
 21 22  1  0  0  0
 22 23  1  0  0  0
 23 24  1  0  0  0
 24 25  1  0  0  0
 25 26  1  0  0  0
 26 27  1  0  0  0
 27 28  1  0  0  0
 52 53  1  0  0  0
 53 54  1  0  0  0
 54 55  1  0  0  0
 55 56  1  0  0  0
 56 60  1  0  0  0
M  CHG 1  64  -1
M  END
> <minimizedAffinity>
-9.35682

> <CNNscore>
0.3763333261

> <CNNaffinity>
7.0066118240

> <CNN_VS>
2.6368215084

> <CNNaffinity_variance>
1.3681917191

$$$$
/media/chris/experiments/cd1a-new-docking/inputs/ligands/7ryn_ligand.pdb


 68 68  0  0  0  0  0  0  0  0999 V2000
  -38.5674   59.7653   62.5353 C   0  0  0  0  0  0  0  0  0  0  0  0
  -39.0635   58.8560   63.5640 N   0  0  0  0  0  0  0  0  0  0  0  0
  -41.1695   58.7388   62.7774 O   0  0  0  0  0  0  0  0  0  0  0  0
  -40.3233   58.4140   63.6054 C   0  0  0  0  0  0  0  0  0  0  0  0
  -38.4384   58.5535   64.2619 H   0  0  0  0  0  0  0  0  0  0  0  0
  -40.6481   57.4743   64.7396 C   0  0  0  0  0  0  0  0  0  0  0  0
  -41.5689   58.1049   65.7764 C   0  0  0  0  0  0  0  0  0  0  0  0
  -42.7970   57.2562   66.0639 C   0  0  0  0  0  0  0  0  0  0  0  0
  -43.8463   57.2991   64.9656 C   0  0  0  0  0  0  0  0  0  0  0  0
  -45.1285   58.0126   65.3672 C   0  0  0  0  0  0  0  0  0  0  0  0
  -45.4188   57.9711   66.8622 C   0  0  0  0  0  0  0  0  0  0  0  0
  -46.8993   57.8524   67.2001 C   0  0  0  0  0  0  0  0  0  0  0  0
  -47.7337   59.0762   66.8307 C   0  0  0  0  0  0  0  0  0  0  0  0
  -48.3366   59.0178   65.4281 C   0  0  0  0  0  0  0  0  0  0  0  0
  -48.0874   60.2616   64.5752 C   0  0  0  0  0  0  0  0  0  0  0  0
  -49.3686   60.8922   64.0293 C   0  0  0  0  0  0  0  0  0  0  0  0
  -50.6625   60.1940   64.4474 C   0  0  0  0  0  0  0  0  0  0  0  0
  -51.5613   59.7536   63.2887 C   0  0  0  0  0  0  0  0  0  0  0  0
  -51.1839   58.4095   62.7362 C   0  0  0  0  0  0  0  0  0  0  0  0
  -50.3802   58.1869   61.7114 C   0  0  0  0  0  0  0  0  0  0  0  0
  -49.6810   59.2319   60.8957 C   0  0  0  0  0  0  0  0  0  0  0  0
  -48.9195   58.6665   59.6948 C   0  0  0  0  0  0  0  0  0  0  0  0
  -49.3918   57.2790   59.2814 C   0  0  0  0  0  0  0  0  0  0  0  0
  -48.4229   56.1688   59.6725 C   0  0  0  0  0  0  0  0  0  0  0  0
  -47.1811   56.0760   58.7931 C   0  0  0  0  0  0  0  0  0  0  0  0
  -47.4871   56.0395   57.3023 C   0  0  0  0  0  0  0  0  0  0  0  0
  -47.6268   57.4114   56.6620 C   0  0  0  0  0  0  0  0  0  0  0  0
  -46.4534   58.3228   56.9595 C   0  0  0  0  0  0  0  0  0  0  0  0
  -38.6515   58.2534   60.6533 O   0  0  0  0  0  0  0  0  0  0  0  0
  -37.7515   58.9705   61.5031 C   0  0  0  0  0  0  0  0  0  0  0  0
  -39.2660   58.8761   60.2343 H   0  0  0  0  0  0  0  0  0  0  0  0
  -36.7856   58.0387   62.1686 C   0  0  0  0  0  0  0  0  0  0  0  0
  -35.4732   58.1046   62.0623 C   0  0  0  0  0  0  0  0  0  0  0  0
  -34.5353   57.1685   62.7512 C   0  0  0  0  0  0  0  0  0  0  0  0
  -33.0874   57.4339   62.3338 C   0  0  0  0  0  0  0  0  0  0  0  0
  -32.4016   58.5335   63.1279 C   0  0  0  0  0  0  0  0  0  0  0  0
  -31.8157   59.6468   62.2762 C   0  0  0  0  0  0  0  0  0  0  0  0
  -30.4582   60.1419   62.7533 C   0  0  0  0  0  0  0  0  0  0  0  0
  -29.9684   61.3818   62.0211 C   0  0  0  0  0  0  0  0  0  0  0  0
  -30.9198   61.8720   60.9438 C   0  0  0  0  0  0  0  0  0  0  0  0
  -30.9752   63.3823   60.8087 C   0  0  0  0  0  0  0  0  0  0  0  0
  -29.7728   64.0977   61.4005 C   0  0  0  0  0  0  0  0  0  0  0  0
  -29.4976   65.4380   60.7444 C   0  0  0  0  0  0  0  0  0  0  0  0
  -30.2233   65.6527   59.4300 C   0  0  0  0  0  0  0  0  0  0  0  0
  -31.1904   66.8190   59.4822 C   0  0  0  0  0  0  0  0  0  0  0  0
  -30.6138   68.0789   58.8701 C   0  0  0  0  0  0  0  0  0  0  0  0
  -37.7548   60.8746   63.1704 C   0  0  0  0  0  0  0  0  0  0  0  0
  -36.9847   60.3135   64.2395 O   0  0  0  0  0  0  0  0  0  0  0  0
  -34.7877   61.1811   62.7355 O   0  0  0  0  0  0  0  0  0  0  0  0
  -36.1773   64.6948   64.7958 O   0  0  0  0  0  0  0  0  0  0  0  0
  -36.6614   62.0254   65.7537 O   0  0  0  0  0  0  0  0  0  0  0  0
  -36.0453   61.1883   64.7930 C   0  0  0  0  0  0  0  0  0  0  0  0
  -35.4571   62.0247   63.6642 C   0  0  0  0  0  0  0  0  0  0  0  0
  -34.4895   63.0548   64.2330 C   0  0  0  0  0  0  0  0  0  0  0  0
  -35.1473   63.8725   65.3349 C   0  0  0  0  0  0  0  0  0  0  0  0
  -35.7443   62.9355   66.3818 C   0  0  0  0  0  0  0  0  0  0  0  0
  -35.4134   60.5302   62.3807 H   0  0  0  0  0  0  0  0  0  0  0  0
  -35.8000   65.2911   64.1303 H   0  0  0  0  0  0  0  0  0  0  0  0
  -36.5027   62.9440   68.6869 O   0  0  0  0  0  0  0  0  0  0  0  0
  -36.5166   63.6616   67.4583 C   0  0  0  0  0  0  0  0  0  0  0  0
  -37.0058   63.4360   69.3545 H   0  0  0  0  0  0  0  0  0  0  0  0
  -34.1710   63.9265   63.1024 O   0  0  0  0  0  0  0  0  0  0  0  0
  -33.1619   65.4467   64.6764 O   0  0  0  0  0  0  0  0  0  0  0  0
  -34.8306   66.2749   62.9897 O   0  0  0  0  0  0  0  0  0  0  0  0
  -32.6444   65.5967   62.3597 O   0  0  0  0  0  0  0  0  0  0  0  0
  -33.7679   65.4346   63.3966 S   0  0  0  0  0  0  0  0  0  0  0  0
  -33.8444   65.3461   65.3583 H   0  0  0  0  0  0  0  0  0  0  0  0
  -31.8940   65.0332   62.6052 H   0  0  0  0  0  0  0  0  0  0  0  0
  2  1  1  0  0  0
  2  4  1  0  0  0
  2  5  1  0  0  0
 47 48  1  0  0  0
 47  1  1  0  0  0
 48 52  1  0  0  0
  1 30  1  0  0  0
 29 30  1  0  0  0
 29 31  1  0  0  0
 30 32  1  0  0  0
  3  4  2  0  0  0
 32 33  2  0  0  0
 49 53  1  0  0  0
 49 57  1  0  0  0
 33 34  1  0  0  0
 62 54  1  0  0  0
 62 66  1  0  0  0
 34 35  1  0  0  0
 50 55  1  0  0  0
 50 58  1  0  0  0
 35 36  1  0  0  0
 51 52  1  0  0  0
 51 56  1  0  0  0
 36 37  1  0  0  0
 59 60  1  0  0  0
 59 61  1  0  0  0
 37 38  1  0  0  0
 63 66  1  0  0  0
 63 67  1  0  0  0
 38 39  1  0  0  0
 64 66  1  0  0  0
 39 40  1  0  0  0
 65 66  1  0  0  0
 65 68  1  0  0  0
 40 41  1  0  0  0
 41 42  1  0  0  0
 42 43  1  0  0  0
 43 44  1  0  0  0
 44 45  1  0  0  0
 45 46  1  0  0  0
  4  6  1  0  0  0
  6  7  1  0  0  0
  7  8  1  0  0  0
  8  9  1  0  0  0
  9 10  1  0  0  0
 10 11  1  0  0  0
 11 12  1  0  0  0
 12 13  1  0  0  0
 13 14  1  0  0  0
 14 15  1  0  0  0
 15 16  1  0  0  0
 16 17  1  0  0  0
 17 18  1  0  0  0
 18 19  1  0  0  0
 19 20  2  0  0  0
 20 21  1  0  0  0
 21 22  1  0  0  0
 22 23  1  0  0  0
 23 24  1  0  0  0
 24 25  1  0  0  0
 25 26  1  0  0  0
 26 27  1  0  0  0
 27 28  1  0  0  0
 52 53  1  0  0  0
 53 54  1  0  0  0
 54 55  1  0  0  0
 55 56  1  0  0  0
 56 60  1  0  0  0
M  CHG 1  64  -1
M  END
> <minimizedAffinity>
-9.12044

> <CNNscore>
0.2648200989

> <CNNaffinity>
6.7152853012

> <CNN_VS>
1.7783424854

> <CNNaffinity_variance>
0.5960465670

$$$$
/media/chris/experiments/cd1a-new-docking/inputs/ligands/7ryn_ligand.pdb


 68 68  0  0  0  0  0  0  0  0999 V2000
  -35.1669   62.1264   64.2919 C   0  0  0  0  0  0  0  0  0  0  0  0
  -36.0489   61.3191   65.1295 N   0  0  0  0  0  0  0  0  0  0  0  0
  -37.7805   61.2950   63.6912 O   0  0  0  0  0  0  0  0  0  0  0  0
  -37.2847   60.9666   64.7651 C   0  0  0  0  0  0  0  0  0  0  0  0
  -35.7163   61.0196   66.0064 H   0  0  0  0  0  0  0  0  0  0  0  0
  -38.0429   60.1240   65.7603 C   0  0  0  0  0  0  0  0  0  0  0  0
  -39.5499   60.1783   65.5447 C   0  0  0  0  0  0  0  0  0  0  0  0
  -40.1940   58.8012   65.5548 C   0  0  0  0  0  0  0  0  0  0  0  0
  -41.7076   58.8281   65.4229 C   0  0  0  0  0  0  0  0  0  0  0  0
  -42.3916   57.5663   65.9273 C   0  0  0  0  0  0  0  0  0  0  0  0
  -43.5379   57.0878   65.0452 C   0  0  0  0  0  0  0  0  0  0  0  0
  -44.1496   58.1827   64.1808 C   0  0  0  0  0  0  0  0  0  0  0  0
  -45.5435   58.6286   64.6152 C   0  0  0  0  0  0  0  0  0  0  0  0
  -45.8954   58.2560   66.0544 C   0  0  0  0  0  0  0  0  0  0  0  0
  -47.3835   58.0100   66.3033 C   0  0  0  0  0  0  0  0  0  0  0  0
  -48.1839   59.2934   66.5254 C   0  0  0  0  0  0  0  0  0  0  0  0
  -49.6459   59.2288   66.0837 C   0  0  0  0  0  0  0  0  0  0  0  0
  -50.0019   60.1300   64.8982 C   0  0  0  0  0  0  0  0  0  0  0  0
  -49.2487   59.7751   63.6489 C   0  0  0  0  0  0  0  0  0  0  0  0
  -49.7258   59.1019   62.6169 C   0  0  0  0  0  0  0  0  0  0  0  0
  -51.1166   58.5595   62.4848 C   0  0  0  0  0  0  0  0  0  0  0  0
  -51.2773   57.5511   61.3450 C   0  0  0  0  0  0  0  0  0  0  0  0
  -50.1323   57.5890   60.3417 C   0  0  0  0  0  0  0  0  0  0  0  0
  -49.3431   56.2862   60.2750 C   0  0  0  0  0  0  0  0  0  0  0  0
  -48.0424   56.3759   59.4851 C   0  0  0  0  0  0  0  0  0  0  0  0
  -47.8557   57.7015   58.7603 C   0  0  0  0  0  0  0  0  0  0  0  0
  -47.6421   57.5661   57.2610 C   0  0  0  0  0  0  0  0  0  0  0  0
  -47.0700   56.2196   56.8665 C   0  0  0  0  0  0  0  0  0  0  0  0
  -33.5351   61.7278   62.5561 O   0  0  0  0  0  0  0  0  0  0  0  0
  -33.9709   61.2728   63.8404 C   0  0  0  0  0  0  0  0  0  0  0  0
  -33.3148   62.6712   62.6049 H   0  0  0  0  0  0  0  0  0  0  0  0
  -34.3205   59.8167   63.8028 C   0  0  0  0  0  0  0  0  0  0  0  0
  -34.2299   59.0426   62.7395 C   0  0  0  0  0  0  0  0  0  0  0  0
  -34.5723   57.5889   62.7379 C   0  0  0  0  0  0  0  0  0  0  0  0
  -36.0846   57.3798   62.6355 C   0  0  0  0  0  0  0  0  0  0  0  0
  -36.7780   58.3142   61.6576 C   0  0  0  0  0  0  0  0  0  0  0  0
  -38.2777   58.0990   61.5443 C   0  0  0  0  0  0  0  0  0  0  0  0
  -38.7844   56.8709   62.2864 C   0  0  0  0  0  0  0  0  0  0  0  0
  -40.2598   56.9418   62.6488 C   0  0  0  0  0  0  0  0  0  0  0  0
  -41.1908   56.7056   61.4725 C   0  0  0  0  0  0  0  0  0  0  0  0
  -42.0694   57.8946   61.1311 C   0  0  0  0  0  0  0  0  0  0  0  0
  -41.4804   58.8113   60.0726 C   0  0  0  0  0  0  0  0  0  0  0  0
  -41.4588   60.2686   60.4952 C   0  0  0  0  0  0  0  0  0  0  0  0
  -41.3915   60.4850   61.9948 C   0  0  0  0  0  0  0  0  0  0  0  0
  -42.6715   61.0715   62.5569 C   0  0  0  0  0  0  0  0  0  0  0  0
  -43.0020   62.4235   61.9590 C   0  0  0  0  0  0  0  0  0  0  0  0
  -34.7291   63.3668   65.0430 C   0  0  0  0  0  0  0  0  0  0  0  0
  -34.5795   64.4348   64.1008 O   0  0  0  0  0  0  0  0  0  0  0  0
  -33.6663   64.5658   61.4570 O   0  0  0  0  0  0  0  0  0  0  0  0
  -31.9545   68.0076   63.3926 O   0  0  0  0  0  0  0  0  0  0  0  0
  -32.7496   65.6417   64.8238 O   0  0  0  0  0  0  0  0  0  0  0  0
  -33.2526   64.7760   63.8233 C   0  0  0  0  0  0  0  0  0  0  0  0
  -33.2166   65.4631   62.4644 C   0  0  0  0  0  0  0  0  0  0  0  0
  -31.7997   65.9319   62.1586 C   0  0  0  0  0  0  0  0  0  0  0  0
  -31.2458   66.7762   63.2969 C   0  0  0  0  0  0  0  0  0  0  0  0
  -31.3780   66.0132   64.6125 C   0  0  0  0  0  0  0  0  0  0  0  0
  -34.5684   64.2746   61.6625 H   0  0  0  0  0  0  0  0  0  0  0  0
  -31.8717   68.4941   62.5575 H   0  0  0  0  0  0  0  0  0  0  0  0
  -30.6139   65.9882   66.9156 O   0  0  0  0  0  0  0  0  0  0  0  0
  -30.9540   66.8235   65.8150 C   0  0  0  0  0  0  0  0  0  0  0  0
  -30.3470   66.5382   67.6686 H   0  0  0  0  0  0  0  0  0  0  0  0
  -31.9347   66.7581   60.9591 O   0  0  0  0  0  0  0  0  0  0  0  0
  -30.7713   65.2812   59.4516 O   0  0  0  0  0  0  0  0  0  0  0  0
  -29.7082   67.4275   60.2126 O   0  0  0  0  0  0  0  0  0  0  0  0
  -31.5389   67.4038   58.7012 O   0  0  0  0  0  0  0  0  0  0  0  0
  -30.8227   66.6448   59.8303 S   0  0  0  0  0  0  0  0  0  0  0  0
  -30.3240   64.7701   60.1441 H   0  0  0  0  0  0  0  0  0  0  0  0
  -32.3128   66.8963   58.4106 H   0  0  0  0  0  0  0  0  0  0  0  0
  2  1  1  0  0  0
  2  4  1  0  0  0
  2  5  1  0  0  0
 47 48  1  0  0  0
 47  1  1  0  0  0
 48 52  1  0  0  0
  1 30  1  0  0  0
 29 30  1  0  0  0
 29 31  1  0  0  0
 30 32  1  0  0  0
  3  4  2  0  0  0
 32 33  2  0  0  0
 49 53  1  0  0  0
 49 57  1  0  0  0
 33 34  1  0  0  0
 62 54  1  0  0  0
 62 66  1  0  0  0
 34 35  1  0  0  0
 50 55  1  0  0  0
 50 58  1  0  0  0
 35 36  1  0  0  0
 51 52  1  0  0  0
 51 56  1  0  0  0
 36 37  1  0  0  0
 59 60  1  0  0  0
 59 61  1  0  0  0
 37 38  1  0  0  0
 63 66  1  0  0  0
 63 67  1  0  0  0
 38 39  1  0  0  0
 64 66  1  0  0  0
 39 40  1  0  0  0
 65 66  1  0  0  0
 65 68  1  0  0  0
 40 41  1  0  0  0
 41 42  1  0  0  0
 42 43  1  0  0  0
 43 44  1  0  0  0
 44 45  1  0  0  0
 45 46  1  0  0  0
  4  6  1  0  0  0
  6  7  1  0  0  0
  7  8  1  0  0  0
  8  9  1  0  0  0
  9 10  1  0  0  0
 10 11  1  0  0  0
 11 12  1  0  0  0
 12 13  1  0  0  0
 13 14  1  0  0  0
 14 15  1  0  0  0
 15 16  1  0  0  0
 16 17  1  0  0  0
 17 18  1  0  0  0
 18 19  1  0  0  0
 19 20  2  0  0  0
 20 21  1  0  0  0
 21 22  1  0  0  0
 22 23  1  0  0  0
 23 24  1  0  0  0
 24 25  1  0  0  0
 25 26  1  0  0  0
 26 27  1  0  0  0
 27 28  1  0  0  0
 52 53  1  0  0  0
 53 54  1  0  0  0
 54 55  1  0  0  0
 55 56  1  0  0  0
 56 60  1  0  0  0
M  CHG 1  64  -1
M  END
> <minimizedAffinity>
-9.66537

> <CNNscore>
0.2530298531

> <CNNaffinity>
7.1351699829

> <CNN_VS>
1.8054109812

> <CNNaffinity_variance>
1.2184855938

$$$$
/media/chris/experiments/cd1a-new-docking/inputs/ligands/7ryn_ligand.pdb


 68 68  0  0  0  0  0  0  0  0999 V2000
  -32.5387   61.5878   63.1635 C   0  0  0  0  0  0  0  0  0  0  0  0
  -33.5227   60.9576   64.0386 N   0  0  0  0  0  0  0  0  0  0  0  0
  -35.3266   61.9126   63.0889 O   0  0  0  0  0  0  0  0  0  0  0  0
  -34.8376   61.1682   63.9338 C   0  0  0  0  0  0  0  0  0  0  0  0
  -33.2012   60.3471   64.7409 H   0  0  0  0  0  0  0  0  0  0  0  0
  -35.6986   60.4224   64.9226 C   0  0  0  0  0  0  0  0  0  0  0  0
  -37.1866   60.6578   64.6966 C   0  0  0  0  0  0  0  0  0  0  0  0
  -38.0597   59.7158   65.5101 C   0  0  0  0  0  0  0  0  0  0  0  0
  -39.4920   59.6191   65.0120 C   0  0  0  0  0  0  0  0  0  0  0  0
  -40.4637   60.5251   65.7533 C   0  0  0  0  0  0  0  0  0  0  0  0
  -41.7675   59.8437   66.1491 C   0  0  0  0  0  0  0  0  0  0  0  0
  -41.7353   58.3265   66.0179 C   0  0  0  0  0  0  0  0  0  0  0  0
  -42.7635   57.7523   65.0465 C   0  0  0  0  0  0  0  0  0  0  0  0
  -44.1187   58.4566   65.0870 C   0  0  0  0  0  0  0  0  0  0  0  0
  -45.2597   57.6107   65.6520 C   0  0  0  0  0  0  0  0  0  0  0  0
  -46.2858   58.4227   66.4425 C   0  0  0  0  0  0  0  0  0  0  0  0
  -47.6696   58.5177   65.8001 C   0  0  0  0  0  0  0  0  0  0  0  0
  -48.3646   59.8722   65.9629 C   0  0  0  0  0  0  0  0  0  0  0  0
  -48.5467   60.5947   64.6594 C   0  0  0  0  0  0  0  0  0  0  0  0
  -49.5547   60.4422   63.8189 C   0  0  0  0  0  0  0  0  0  0  0  0
  -50.7213   59.5187   63.9994 C   0  0  0  0  0  0  0  0  0  0  0  0
  -51.1360   58.7945   62.7167 C   0  0  0  0  0  0  0  0  0  0  0  0
  -50.2524   59.1308   61.5229 C   0  0  0  0  0  0  0  0  0  0  0  0
  -49.9820   57.9363   60.6149 C   0  0  0  0  0  0  0  0  0  0  0  0
  -48.9450   58.1922   59.5272 C   0  0  0  0  0  0  0  0  0  0  0  0
  -47.9322   57.0669   59.3690 C   0  0  0  0  0  0  0  0  0  0  0  0
  -47.1451   57.1163   58.0690 C   0  0  0  0  0  0  0  0  0  0  0  0
  -47.3626   55.8930   57.2017 C   0  0  0  0  0  0  0  0  0  0  0  0
  -31.3522   60.7450   61.2357 O   0  0  0  0  0  0  0  0  0  0  0  0
  -31.5714   60.5185   62.6311 C   0  0  0  0  0  0  0  0  0  0  0  0
  -31.0137   61.6444   61.1034 H   0  0  0  0  0  0  0  0  0  0  0  0
  -32.0955   59.1363   62.8737 C   0  0  0  0  0  0  0  0  0  0  0  0
  -32.8713   58.4637   62.0468 C   0  0  0  0  0  0  0  0  0  0  0  0
  -33.3658   57.0795   62.3111 C   0  0  0  0  0  0  0  0  0  0  0  0
  -34.6924   57.1051   63.0731 C   0  0  0  0  0  0  0  0  0  0  0  0
  -35.7995   57.8744   62.3712 C   0  0  0  0  0  0  0  0  0  0  0  0
  -37.1999   57.5281   62.8475 C   0  0  0  0  0  0  0  0  0  0  0  0
  -38.2542   57.5687   61.7510 C   0  0  0  0  0  0  0  0  0  0  0  0
  -38.2019   58.8280   60.8996 C   0  0  0  0  0  0  0  0  0  0  0  0
  -39.2730   58.8847   59.8246 C   0  0  0  0  0  0  0  0  0  0  0  0
  -40.4215   57.9180   60.0448 C   0  0  0  0  0  0  0  0  0  0  0  0
  -41.7569   58.5962   60.2987 C   0  0  0  0  0  0  0  0  0  0  0  0
  -41.9932   58.9115   61.7641 C   0  0  0  0  0  0  0  0  0  0  0  0
  -41.7295   60.3558   62.1444 C   0  0  0  0  0  0  0  0  0  0  0  0
  -42.9533   61.0389   62.7222 C   0  0  0  0  0  0  0  0  0  0  0  0
  -43.0948   62.4718   62.2516 C   0  0  0  0  0  0  0  0  0  0  0  0
  -31.8139   62.6911   63.9064 C   0  0  0  0  0  0  0  0  0  0  0  0
  -30.8522   63.2745   63.0202 O   0  0  0  0  0  0  0  0  0  0  0  0
  -33.5371   64.0697   63.0170 O   0  0  0  0  0  0  0  0  0  0  0  0
  -31.4114   67.3373   61.1929 O   0  0  0  0  0  0  0  0  0  0  0  0
  -30.4157   64.6380   61.2095 O   0  0  0  0  0  0  0  0  0  0  0  0
  -31.4068   63.9001   61.8999 C   0  0  0  0  0  0  0  0  0  0  0  0
  -32.5168   64.8269   62.3784 C   0  0  0  0  0  0  0  0  0  0  0  0
  -33.0931   65.5974   61.1973 C   0  0  0  0  0  0  0  0  0  0  0  0
  -31.9935   66.2979   60.4128 C   0  0  0  0  0  0  0  0  0  0  0  0
  -30.9144   65.2884   60.0296 C   0  0  0  0  0  0  0  0  0  0  0  0
  -33.1583   63.5841   63.7664 H   0  0  0  0  0  0  0  0  0  0  0  0
  -32.0956   67.9799   61.4374 H   0  0  0  0  0  0  0  0  0  0  0  0
  -30.0481   67.2003   58.8119 O   0  0  0  0  0  0  0  0  0  0  0  0
  -29.7262   65.9200   59.3429 C   0  0  0  0  0  0  0  0  0  0  0  0
  -29.2659   67.5770   58.3793 H   0  0  0  0  0  0  0  0  0  0  0  0
  -33.9734   66.5968   61.8022 O   0  0  0  0  0  0  0  0  0  0  0  0
  -36.2520   67.3193   61.4974 O   0  0  0  0  0  0  0  0  0  0  0  0
  -35.6645   65.6700   63.3002 O   0  0  0  0  0  0  0  0  0  0  0  0
  -35.6248   65.0792   61.0011 O   0  0  0  0  0  0  0  0  0  0  0  0
  -35.5052   66.2317   62.0118 S   0  0  0  0  0  0  0  0  0  0  0  0
  -36.1986   68.0677   62.1121 H   0  0  0  0  0  0  0  0  0  0  0  0
  -35.5205   65.4261   60.1013 H   0  0  0  0  0  0  0  0  0  0  0  0
  2  1  1  0  0  0
  2  4  1  0  0  0
  2  5  1  0  0  0
 47 48  1  0  0  0
 47  1  1  0  0  0
 48 52  1  0  0  0
  1 30  1  0  0  0
 29 30  1  0  0  0
 29 31  1  0  0  0
 30 32  1  0  0  0
  3  4  2  0  0  0
 32 33  2  0  0  0
 49 53  1  0  0  0
 49 57  1  0  0  0
 33 34  1  0  0  0
 62 54  1  0  0  0
 62 66  1  0  0  0
 34 35  1  0  0  0
 50 55  1  0  0  0
 50 58  1  0  0  0
 35 36  1  0  0  0
 51 52  1  0  0  0
 51 56  1  0  0  0
 36 37  1  0  0  0
 59 60  1  0  0  0
 59 61  1  0  0  0
 37 38  1  0  0  0
 63 66  1  0  0  0
 63 67  1  0  0  0
 38 39  1  0  0  0
 64 66  1  0  0  0
 39 40  1  0  0  0
 65 66  1  0  0  0
 65 68  1  0  0  0
 40 41  1  0  0  0
 41 42  1  0  0  0
 42 43  1  0  0  0
 43 44  1  0  0  0
 44 45  1  0  0  0
 45 46  1  0  0  0
  4  6  1  0  0  0
  6  7  1  0  0  0
  7  8  1  0  0  0
  8  9  1  0  0  0
  9 10  1  0  0  0
 10 11  1  0  0  0
 11 12  1  0  0  0
 12 13  1  0  0  0
 13 14  1  0  0  0
 14 15  1  0  0  0
 15 16  1  0  0  0
 16 17  1  0  0  0
 17 18  1  0  0  0
 18 19  1  0  0  0
 19 20  2  0  0  0
 20 21  1  0  0  0
 21 22  1  0  0  0
 22 23  1  0  0  0
 23 24  1  0  0  0
 24 25  1  0  0  0
 25 26  1  0  0  0
 26 27  1  0  0  0
 27 28  1  0  0  0
 52 53  1  0  0  0
 53 54  1  0  0  0
 54 55  1  0  0  0
 55 56  1  0  0  0
 56 60  1  0  0  0
M  CHG 1  64  -1
M  END
> <minimizedAffinity>
-8.95882

> <CNNscore>
0.2081665993

> <CNNaffinity>
7.1241860390

> <CNN_VS>
1.4830175638

> <CNNaffinity_variance>
1.4407939911

$$$$
/media/chris/experiments/cd1a-new-docking/inputs/ligands/7ryn_ligand.pdb


 68 68  0  0  0  0  0  0  0  0999 V2000
  -38.0575   59.4892   62.6292 C   0  0  0  0  0  0  0  0  0  0  0  0
  -39.2622   59.1501   61.8776 N   0  0  0  0  0  0  0  0  0  0  0  0
  -38.3565   59.4454   59.8378 O   0  0  0  0  0  0  0  0  0  0  0  0
  -39.3184   59.1544   60.5430 C   0  0  0  0  0  0  0  0  0  0  0  0
  -40.0734   58.9062   62.3792 H   0  0  0  0  0  0  0  0  0  0  0  0
  -40.6481   58.7684   59.9448 C   0  0  0  0  0  0  0  0  0  0  0  0
  -41.1397   57.4132   60.4368 C   0  0  0  0  0  0  0  0  0  0  0  0
  -42.2622   57.5308   61.4554 C   0  0  0  0  0  0  0  0  0  0  0  0
  -41.9041   56.9946   62.8314 C   0  0  0  0  0  0  0  0  0  0  0  0
  -42.5959   57.7223   63.9744 C   0  0  0  0  0  0  0  0  0  0  0  0
  -43.1459   56.7991   65.0543 C   0  0  0  0  0  0  0  0  0  0  0  0
  -43.3699   57.4842   66.3962 C   0  0  0  0  0  0  0  0  0  0  0  0
  -44.2941   58.6979   66.3416 C   0  0  0  0  0  0  0  0  0  0  0  0
  -45.7799   58.3529   66.4283 C   0  0  0  0  0  0  0  0  0  0  0  0
  -46.5304   58.4285   65.0988 C   0  0  0  0  0  0  0  0  0  0  0  0
  -47.6266   59.4940   65.0781 C   0  0  0  0  0  0  0  0  0  0  0  0
  -48.7281   59.3094   66.1218 C   0  0  0  0  0  0  0  0  0  0  0  0
  -50.0200   58.6814   65.5919 C   0  0  0  0  0  0  0  0  0  0  0  0
  -50.8881   59.6632   64.8594 C   0  0  0  0  0  0  0  0  0  0  0  0
  -51.2553   59.5840   63.5926 C   0  0  0  0  0  0  0  0  0  0  0  0
  -50.8810   58.4958   62.6324 C   0  0  0  0  0  0  0  0  0  0  0  0
  -49.5038   58.6869   61.9933 C   0  0  0  0  0  0  0  0  0  0  0  0
  -49.5716   59.0895   60.5262 C   0  0  0  0  0  0  0  0  0  0  0  0
  -49.8102   57.9129   59.5865 C   0  0  0  0  0  0  0  0  0  0  0  0
  -49.0131   56.6596   59.9293 C   0  0  0  0  0  0  0  0  0  0  0  0
  -47.9167   56.3363   58.9240 C   0  0  0  0  0  0  0  0  0  0  0  0
  -48.1226   56.9652   57.5551 C   0  0  0  0  0  0  0  0  0  0  0  0
  -47.0794   58.0135   57.2253 C   0  0  0  0  0  0  0  0  0  0  0  0
  -38.0234   59.2655   65.0341 O   0  0  0  0  0  0  0  0  0  0  0  0
  -37.9089   58.5239   63.8162 C   0  0  0  0  0  0  0  0  0  0  0  0
  -38.8717   59.7359   65.0478 H   0  0  0  0  0  0  0  0  0  0  0  0
  -36.6082   57.7831   63.7602 C   0  0  0  0  0  0  0  0  0  0  0  0
  -35.7891   57.7665   62.7273 C   0  0  0  0  0  0  0  0  0  0  0  0
  -34.4904   57.0292   62.7077 C   0  0  0  0  0  0  0  0  0  0  0  0
  -33.3445   57.9445   62.2717 C   0  0  0  0  0  0  0  0  0  0  0  0
  -32.8111   58.8439   63.3749 C   0  0  0  0  0  0  0  0  0  0  0  0
  -31.5931   59.6616   62.9802 C   0  0  0  0  0  0  0  0  0  0  0  0
  -31.7529   60.4160   61.6683 C   0  0  0  0  0  0  0  0  0  0  0  0
  -30.4535   61.0031   61.1391 C   0  0  0  0  0  0  0  0  0  0  0  0
  -29.4327   61.3052   62.2222 C   0  0  0  0  0  0  0  0  0  0  0  0
  -29.4253   62.7524   62.6781 C   0  0  0  0  0  0  0  0  0  0  0  0
  -29.8862   63.7350   61.6152 C   0  0  0  0  0  0  0  0  0  0  0  0
  -29.4160   65.1542   61.8751 C   0  0  0  0  0  0  0  0  0  0  0  0
  -30.3893   66.2281   61.4281 C   0  0  0  0  0  0  0  0  0  0  0  0
  -30.9813   65.9455   60.0614 C   0  0  0  0  0  0  0  0  0  0  0  0
  -30.6074   66.9979   59.0380 C   0  0  0  0  0  0  0  0  0  0  0  0
  -38.1138   60.9355   63.0760 C   0  0  0  0  0  0  0  0  0  0  0  0
  -36.8817   61.5678   62.7115 O   0  0  0  0  0  0  0  0  0  0  0  0
  -34.6189   63.1795   62.3608 O   0  0  0  0  0  0  0  0  0  0  0  0
  -36.3759   64.5244   66.0522 O   0  0  0  0  0  0  0  0  0  0  0  0
  -36.7857   61.8795   64.9967 O   0  0  0  0  0  0  0  0  0  0  0  0
  -36.0439   61.8614   63.7914 C   0  0  0  0  0  0  0  0  0  0  0  0
  -35.4113   63.2240   63.5408 C   0  0  0  0  0  0  0  0  0  0  0  0
  -34.5556   63.6253   64.7356 C   0  0  0  0  0  0  0  0  0  0  0  0
  -35.3497   63.5374   66.0306 C   0  0  0  0  0  0  0  0  0  0  0  0
  -35.9783   62.1516   66.1534 C   0  0  0  0  0  0  0  0  0  0  0  0
  -35.1741   62.9231   61.6079 H   0  0  0  0  0  0  0  0  0  0  0  0
  -35.9784   65.4058   65.9743 H   0  0  0  0  0  0  0  0  0  0  0  0
  -36.4696   62.8665   68.4197 O   0  0  0  0  0  0  0  0  0  0  0  0
  -36.8790   62.0119   67.3583 C   0  0  0  0  0  0  0  0  0  0  0  0
  -37.0669   62.7526   69.1754 H   0  0  0  0  0  0  0  0  0  0  0  0
  -34.1933   65.0190   64.4791 O   0  0  0  0  0  0  0  0  0  0  0  0
  -32.7474   65.5224   66.3401 O   0  0  0  0  0  0  0  0  0  0  0  0
  -32.3857   66.6182   64.1076 O   0  0  0  0  0  0  0  0  0  0  0  0
  -31.9171   64.3183   64.4644 O   0  0  0  0  0  0  0  0  0  0  0  0
  -32.7541   65.5233   64.9240 S   0  0  0  0  0  0  0  0  0  0  0  0
  -33.2684   66.2728   66.6663 H   0  0  0  0  0  0  0  0  0  0  0  0
  -32.1424   63.5438   65.0032 H   0  0  0  0  0  0  0  0  0  0  0  0
  2  1  1  0  0  0
  2  4  1  0  0  0
  2  5  1  0  0  0
 47 48  1  0  0  0
 47  1  1  0  0  0
 48 52  1  0  0  0
  1 30  1  0  0  0
 29 30  1  0  0  0
 29 31  1  0  0  0
 30 32  1  0  0  0
  3  4  2  0  0  0
 32 33  2  0  0  0
 49 53  1  0  0  0
 49 57  1  0  0  0
 33 34  1  0  0  0
 62 54  1  0  0  0
 62 66  1  0  0  0
 34 35  1  0  0  0
 50 55  1  0  0  0
 50 58  1  0  0  0
 35 36  1  0  0  0
 51 52  1  0  0  0
 51 56  1  0  0  0
 36 37  1  0  0  0
 59 60  1  0  0  0
 59 61  1  0  0  0
 37 38  1  0  0  0
 63 66  1  0  0  0
 63 67  1  0  0  0
 38 39  1  0  0  0
 64 66  1  0  0  0
 39 40  1  0  0  0
 65 66  1  0  0  0
 65 68  1  0  0  0
 40 41  1  0  0  0
 41 42  1  0  0  0
 42 43  1  0  0  0
 43 44  1  0  0  0
 44 45  1  0  0  0
 45 46  1  0  0  0
  4  6  1  0  0  0
  6  7  1  0  0  0
  7  8  1  0  0  0
  8  9  1  0  0  0
  9 10  1  0  0  0
 10 11  1  0  0  0
 11 12  1  0  0  0
 12 13  1  0  0  0
 13 14  1  0  0  0
 14 15  1  0  0  0
 15 16  1  0  0  0
 16 17  1  0  0  0
 17 18  1  0  0  0
 18 19  1  0  0  0
 19 20  2  0  0  0
 20 21  1  0  0  0
 21 22  1  0  0  0
 22 23  1  0  0  0
 23 24  1  0  0  0
 24 25  1  0  0  0
 25 26  1  0  0  0
 26 27  1  0  0  0
 27 28  1  0  0  0
 52 53  1  0  0  0
 53 54  1  0  0  0
 54 55  1  0  0  0
 55 56  1  0  0  0
 56 60  1  0  0  0
M  CHG 1  64  -1
M  END
> <minimizedAffinity>
-9.34700

> <CNNscore>
0.1995687187

> <CNNaffinity>
6.8586091995

> <CNN_VS>
1.3687638044

> <CNNaffinity_variance>
0.8587689400

$$$$
/media/chris/experiments/cd1a-new-docking/inputs/ligands/7ryn_ligand.pdb


 68 68  0  0  0  0  0  0  0  0999 V2000
  -37.6593   60.5942   63.7519 C   0  0  0  0  0  0  0  0  0  0  0  0
  -38.4703   60.1330   64.8748 N   0  0  0  0  0  0  0  0  0  0  0  0
  -40.4443   60.8128   64.0329 O   0  0  0  0  0  0  0  0  0  0  0  0
  -39.7970   60.2777   64.9283 C   0  0  0  0  0  0  0  0  0  0  0  0
  -38.0167   59.6937   65.6301 H   0  0  0  0  0  0  0  0  0  0  0  0
  -40.4636   59.7312   66.1661 C   0  0  0  0  0  0  0  0  0  0  0  0
  -41.9515   59.4749   65.9646 C   0  0  0  0  0  0  0  0  0  0  0  0
  -42.3976   58.1350   66.5277 C   0  0  0  0  0  0  0  0  0  0  0  0
  -43.2953   57.3420   65.5926 C   0  0  0  0  0  0  0  0  0  0  0  0
  -44.6883   57.9315   65.4300 C   0  0  0  0  0  0  0  0  0  0  0  0
  -45.5210   57.9152   66.7056 C   0  0  0  0  0  0  0  0  0  0  0  0
  -46.8561   57.1961   66.5616 C   0  0  0  0  0  0  0  0  0  0  0  0
  -48.0484   58.1168   66.3145 C   0  0  0  0  0  0  0  0  0  0  0  0
  -48.2894   58.4409   64.8411 C   0  0  0  0  0  0  0  0  0  0  0  0
  -47.9189   59.8667   64.4333 C   0  0  0  0  0  0  0  0  0  0  0  0
  -49.1242   60.8004   64.3205 C   0  0  0  0  0  0  0  0  0  0  0  0
  -50.4571   60.1919   64.7559 C   0  0  0  0  0  0  0  0  0  0  0  0
  -51.4914   60.0371   63.6376 C   0  0  0  0  0  0  0  0  0  0  0  0
  -51.4196   58.7004   62.9577 C   0  0  0  0  0  0  0  0  0  0  0  0
  -50.6743   58.3992   61.9091 C   0  0  0  0  0  0  0  0  0  0  0  0
  -49.7479   59.3315   61.1889 C   0  0  0  0  0  0  0  0  0  0  0  0
  -49.0363   58.6903   59.9954 C   0  0  0  0  0  0  0  0  0  0  0  0
  -49.7037   57.4089   59.5140 C   0  0  0  0  0  0  0  0  0  0  0  0
  -48.8209   56.1747   59.6615 C   0  0  0  0  0  0  0  0  0  0  0  0
  -47.3989   56.3499   59.1408 C   0  0  0  0  0  0  0  0  0  0  0  0
  -47.2325   55.9750   57.6749 C   0  0  0  0  0  0  0  0  0  0  0  0
  -47.5367   57.1058   56.7050 C   0  0  0  0  0  0  0  0  0  0  0  0
  -46.8054   58.3881   57.0468 C   0  0  0  0  0  0  0  0  0  0  0  0
  -38.6743   58.6746   62.6937 O   0  0  0  0  0  0  0  0  0  0  0  0
  -37.4677   59.4407   62.7541 C   0  0  0  0  0  0  0  0  0  0  0  0
  -39.4129   59.2535   62.4478 H   0  0  0  0  0  0  0  0  0  0  0  0
  -36.3033   58.5774   63.1320 C   0  0  0  0  0  0  0  0  0  0  0  0
  -35.3570   58.1768   62.3061 C   0  0  0  0  0  0  0  0  0  0  0  0
  -34.1993   57.3276   62.7172 C   0  0  0  0  0  0  0  0  0  0  0  0
  -32.8770   57.9312   62.2397 C   0  0  0  0  0  0  0  0  0  0  0  0
  -32.4134   59.1331   63.0464 C   0  0  0  0  0  0  0  0  0  0  0  0
  -31.7260   60.2099   62.2242 C   0  0  0  0  0  0  0  0  0  0  0  0
  -30.2128   60.2376   62.3821 C   0  0  0  0  0  0  0  0  0  0  0  0
  -29.5522   61.4408   61.7270 C   0  0  0  0  0  0  0  0  0  0  0  0
  -30.5346   62.5052   61.2706 C   0  0  0  0  0  0  0  0  0  0  0  0
  -29.9343   63.8945   61.1618 C   0  0  0  0  0  0  0  0  0  0  0  0
  -30.9217   64.9581   60.7132 C   0  0  0  0  0  0  0  0  0  0  0  0
  -30.3706   65.8569   59.6218 C   0  0  0  0  0  0  0  0  0  0  0  0
  -31.2714   67.0204   59.2542 C   0  0  0  0  0  0  0  0  0  0  0  0
  -30.9236   67.6237   57.9076 C   0  0  0  0  0  0  0  0  0  0  0  0
  -30.6631   66.5712   56.8499 C   0  0  0  0  0  0  0  0  0  0  0  0
  -36.3374   61.1371   64.2542 C   0  0  0  0  0  0  0  0  0  0  0  0
  -36.6021   62.2846   65.0690 O   0  0  0  0  0  0  0  0  0  0  0  0
  -35.2053   63.7765   66.9833 O   0  0  0  0  0  0  0  0  0  0  0  0
  -32.5666   63.5813   63.5889 O   0  0  0  0  0  0  0  0  0  0  0  0
  -35.4221   63.3065   63.3687 O   0  0  0  0  0  0  0  0  0  0  0  0
  -35.8924   63.4303   64.6979 C   0  0  0  0  0  0  0  0  0  0  0  0
  -34.7217   63.5919   65.6588 C   0  0  0  0  0  0  0  0  0  0  0  0
  -33.8676   64.7814   65.2389 C   0  0  0  0  0  0  0  0  0  0  0  0
  -33.4611   64.6733   63.7766 C   0  0  0  0  0  0  0  0  0  0  0  0
  -34.7028   64.4638   62.9135 C   0  0  0  0  0  0  0  0  0  0  0  0
  -35.7472   63.0136   67.2389 H   0  0  0  0  0  0  0  0  0  0  0  0
  -31.7768   63.7126   64.1366 H   0  0  0  0  0  0  0  0  0  0  0  0
  -35.5606   64.1884   60.6602 O   0  0  0  0  0  0  0  0  0  0  0  0
  -34.3814   64.2336   61.4553 C   0  0  0  0  0  0  0  0  0  0  0  0
  -35.3196   64.0399   59.7325 H   0  0  0  0  0  0  0  0  0  0  0  0
  -32.6766   64.6978   66.0839 O   0  0  0  0  0  0  0  0  0  0  0  0
  -31.2374   66.1936   67.3080 O   0  0  0  0  0  0  0  0  0  0  0  0
  -31.9962   66.7680   64.9820 O   0  0  0  0  0  0  0  0  0  0  0  0
  -30.4225   65.0389   65.3948 O   0  0  0  0  0  0  0  0  0  0  0  0
  -31.5894   65.8513   65.9797 S   0  0  0  0  0  0  0  0  0  0  0  0
  -31.9541   66.7091   67.7097 H   0  0  0  0  0  0  0  0  0  0  0  0
  -30.1143   64.3961   66.0526 H   0  0  0  0  0  0  0  0  0  0  0  0
  2  1  1  0  0  0
  2  4  1  0  0  0
  2  5  1  0  0  0
 47 48  1  0  0  0
 47  1  1  0  0  0
 48 52  1  0  0  0
  1 30  1  0  0  0
 29 30  1  0  0  0
 29 31  1  0  0  0
 30 32  1  0  0  0
  3  4  2  0  0  0
 32 33  2  0  0  0
 49 53  1  0  0  0
 49 57  1  0  0  0
 33 34  1  0  0  0
 62 54  1  0  0  0
 62 66  1  0  0  0
 34 35  1  0  0  0
 50 55  1  0  0  0
 50 58  1  0  0  0
 35 36  1  0  0  0
 51 52  1  0  0  0
 51 56  1  0  0  0
 36 37  1  0  0  0
 59 60  1  0  0  0
 59 61  1  0  0  0
 37 38  1  0  0  0
 63 66  1  0  0  0
 63 67  1  0  0  0
 38 39  1  0  0  0
 64 66  1  0  0  0
 39 40  1  0  0  0
 65 66  1  0  0  0
 65 68  1  0  0  0
 40 41  1  0  0  0
 41 42  1  0  0  0
 42 43  1  0  0  0
 43 44  1  0  0  0
 44 45  1  0  0  0
 45 46  1  0  0  0
  4  6  1  0  0  0
  6  7  1  0  0  0
  7  8  1  0  0  0
  8  9  1  0  0  0
  9 10  1  0  0  0
 10 11  1  0  0  0
 11 12  1  0  0  0
 12 13  1  0  0  0
 13 14  1  0  0  0
 14 15  1  0  0  0
 15 16  1  0  0  0
 16 17  1  0  0  0
 17 18  1  0  0  0
 18 19  1  0  0  0
 19 20  2  0  0  0
 20 21  1  0  0  0
 21 22  1  0  0  0
 22 23  1  0  0  0
 23 24  1  0  0  0
 24 25  1  0  0  0
 25 26  1  0  0  0
 26 27  1  0  0  0
 27 28  1  0  0  0
 52 53  1  0  0  0
 53 54  1  0  0  0
 54 55  1  0  0  0
 55 56  1  0  0  0
 56 60  1  0  0  0
M  CHG 1  64  -1
M  END
> <minimizedAffinity>
-9.43382

> <CNNscore>
0.1951214373

> <CNNaffinity>
6.4784660339

> <CNN_VS>
1.2640875578

> <CNNaffinity_variance>
0.3854873776

$$$$
/media/chris/experiments/cd1a-new-docking/inputs/ligands/7ryn_ligand.pdb


 68 68  0  0  0  0  0  0  0  0999 V2000
  -39.3881   59.5458   64.8990 C   0  0  0  0  0  0  0  0  0  0  0  0
  -40.4339   59.3003   65.8876 N   0  0  0  0  0  0  0  0  0  0  0  0
  -41.0602   61.4516   66.1054 O   0  0  0  0  0  0  0  0  0  0  0  0
  -41.1873   60.2700   66.4131 C   0  0  0  0  0  0  0  0  0  0  0  0
  -40.5916   58.3740   66.1816 H   0  0  0  0  0  0  0  0  0  0  0  0
  -42.2224   59.8217   67.4146 C   0  0  0  0  0  0  0  0  0  0  0  0
  -43.4398   59.1881   66.7537 C   0  0  0  0  0  0  0  0  0  0  0  0
  -43.2408   57.7118   66.4502 C   0  0  0  0  0  0  0  0  0  0  0  0
  -44.1284   57.1872   65.3340 C   0  0  0  0  0  0  0  0  0  0  0  0
  -45.4572   57.9176   65.2098 C   0  0  0  0  0  0  0  0  0  0  0  0
  -46.5036   57.4777   66.2258 C   0  0  0  0  0  0  0  0  0  0  0  0
  -47.8851   57.2457   65.6275 C   0  0  0  0  0  0  0  0  0  0  0  0
  -48.9722   58.1733   66.1644 C   0  0  0  0  0  0  0  0  0  0  0  0
  -48.6080   59.6560   66.1090 C   0  0  0  0  0  0  0  0  0  0  0  0
  -48.2284   60.1674   64.7194 C   0  0  0  0  0  0  0  0  0  0  0  0
  -49.3551   60.9306   64.0227 C   0  0  0  0  0  0  0  0  0  0  0  0
  -50.7670   60.5445   64.4632 C   0  0  0  0  0  0  0  0  0  0  0  0
  -51.6030   59.8318   63.3968 C   0  0  0  0  0  0  0  0  0  0  0  0
  -51.0752   58.4678   63.0572 C   0  0  0  0  0  0  0  0  0  0  0  0
  -50.3521   58.1547   61.9967 C   0  0  0  0  0  0  0  0  0  0  0  0
  -49.9105   59.0995   60.9203 C   0  0  0  0  0  0  0  0  0  0  0  0
  -48.9479   58.4726   59.9092 C   0  0  0  0  0  0  0  0  0  0  0  0
  -49.2965   57.0320   59.5593 C   0  0  0  0  0  0  0  0  0  0  0  0
  -48.1202   56.0729   59.7034 C   0  0  0  0  0  0  0  0  0  0  0  0
  -47.1487   56.0846   58.5287 C   0  0  0  0  0  0  0  0  0  0  0  0
  -47.8288   56.2041   57.1721 C   0  0  0  0  0  0  0  0  0  0  0  0
  -47.6226   57.5467   56.4888 C   0  0  0  0  0  0  0  0  0  0  0  0
  -46.5522   58.3881   57.1538 C   0  0  0  0  0  0  0  0  0  0  0  0
  -40.4148   57.4763   64.1933 O   0  0  0  0  0  0  0  0  0  0  0  0
  -39.4506   58.4615   63.8112 C   0  0  0  0  0  0  0  0  0  0  0  0
  -41.2742   57.9032   64.3356 H   0  0  0  0  0  0  0  0  0  0  0  0
  -38.1082   57.8371   63.5827 C   0  0  0  0  0  0  0  0  0  0  0  0
  -37.2917   58.1364   62.5920 C   0  0  0  0  0  0  0  0  0  0  0  0
  -35.9516   57.5058   62.3996 C   0  0  0  0  0  0  0  0  0  0  0  0
  -34.8280   58.4817   62.7551 C   0  0  0  0  0  0  0  0  0  0  0  0
  -33.4345   57.8783   62.6891 C   0  0  0  0  0  0  0  0  0  0  0  0
  -32.3250   58.8188   63.1278 C   0  0  0  0  0  0  0  0  0  0  0  0
  -32.5938   60.2828   62.8119 C   0  0  0  0  0  0  0  0  0  0  0  0
  -31.5523   60.9121   61.8994 C   0  0  0  0  0  0  0  0  0  0  0  0
  -30.1227   60.5494   62.2612 C   0  0  0  0  0  0  0  0  0  0  0  0
  -29.3160   61.7039   62.8255 C   0  0  0  0  0  0  0  0  0  0  0  0
  -30.1071   62.9919   62.9761 C   0  0  0  0  0  0  0  0  0  0  0  0
  -29.2354   64.1881   63.3107 C   0  0  0  0  0  0  0  0  0  0  0  0
  -29.9691   65.3263   63.9937 C   0  0  0  0  0  0  0  0  0  0  0  0
  -30.8183   64.8563   65.1583 C   0  0  0  0  0  0  0  0  0  0  0  0
  -31.8670   65.8731   65.5595 C   0  0  0  0  0  0  0  0  0  0  0  0
  -38.0341   59.5947   65.5762 C   0  0  0  0  0  0  0  0  0  0  0  0
  -37.6775   60.9678   65.7717 O   0  0  0  0  0  0  0  0  0  0  0  0
  -37.4824   61.5866   63.0477 O   0  0  0  0  0  0  0  0  0  0  0  0
  -35.0813   64.5556   65.0333 O   0  0  0  0  0  0  0  0  0  0  0  0
  -35.6405   61.9752   66.1765 O   0  0  0  0  0  0  0  0  0  0  0  0
  -36.4489   61.3288   65.2111 C   0  0  0  0  0  0  0  0  0  0  0  0
  -36.7213   62.2637   64.0399 C   0  0  0  0  0  0  0  0  0  0  0  0
  -35.4044   62.7535   63.4511 C   0  0  0  0  0  0  0  0  0  0  0  0
  -34.5125   63.3514   64.5293 C   0  0  0  0  0  0  0  0  0  0  0  0
  -34.3493   62.3522   65.6719 C   0  0  0  0  0  0  0  0  0  0  0  0
  -38.3175   61.2798   63.4342 H   0  0  0  0  0  0  0  0  0  0  0  0
  -35.1858   65.1919   64.3087 H   0  0  0  0  0  0  0  0  0  0  0  0
  -34.3505   63.8113   67.6109 O   0  0  0  0  0  0  0  0  0  0  0  0
  -33.5680   62.9070   66.8399 C   0  0  0  0  0  0  0  0  0  0  0  0
  -33.8209   64.1480   68.3504 H   0  0  0  0  0  0  0  0  0  0  0  0
  -35.7896   63.7978   62.5021 O   0  0  0  0  0  0  0  0  0  0  0  0
  -33.7150   63.4069   61.3400 O   0  0  0  0  0  0  0  0  0  0  0  0
  -34.3704   65.7302   62.0389 O   0  0  0  0  0  0  0  0  0  0  0  0
  -35.4829   64.5914   60.2777 O   0  0  0  0  0  0  0  0  0  0  0  0
  -34.6677   64.4287   61.5711 S   0  0  0  0  0  0  0  0  0  0  0  0
  -33.1805   63.2766   62.1389 H   0  0  0  0  0  0  0  0  0  0  0  0
  -35.7072   63.7163   59.9245 H   0  0  0  0  0  0  0  0  0  0  0  0
  2  1  1  0  0  0
  2  4  1  0  0  0
  2  5  1  0  0  0
 47 48  1  0  0  0
 47  1  1  0  0  0
 48 52  1  0  0  0
  1 30  1  0  0  0
 29 30  1  0  0  0
 29 31  1  0  0  0
 30 32  1  0  0  0
  3  4  2  0  0  0
 32 33  2  0  0  0
 49 53  1  0  0  0
 49 57  1  0  0  0
 33 34  1  0  0  0
 62 54  1  0  0  0
 62 66  1  0  0  0
 34 35  1  0  0  0
 50 55  1  0  0  0
 50 58  1  0  0  0
 35 36  1  0  0  0
 51 52  1  0  0  0
 51 56  1  0  0  0
 36 37  1  0  0  0
 59 60  1  0  0  0
 59 61  1  0  0  0
 37 38  1  0  0  0
 63 66  1  0  0  0
 63 67  1  0  0  0
 38 39  1  0  0  0
 64 66  1  0  0  0
 39 40  1  0  0  0
 65 66  1  0  0  0
 65 68  1  0  0  0
 40 41  1  0  0  0
 41 42  1  0  0  0
 42 43  1  0  0  0
 43 44  1  0  0  0
 44 45  1  0  0  0
 45 46  1  0  0  0
  4  6  1  0  0  0
  6  7  1  0  0  0
  7  8  1  0  0  0
  8  9  1  0  0  0
  9 10  1  0  0  0
 10 11  1  0  0  0
 11 12  1  0  0  0
 12 13  1  0  0  0
 13 14  1  0  0  0
 14 15  1  0  0  0
 15 16  1  0  0  0
 16 17  1  0  0  0
 17 18  1  0  0  0
 18 19  1  0  0  0
 19 20  2  0  0  0
 20 21  1  0  0  0
 21 22  1  0  0  0
 22 23  1  0  0  0
 23 24  1  0  0  0
 24 25  1  0  0  0
 25 26  1  0  0  0
 26 27  1  0  0  0
 27 28  1  0  0  0
 52 53  1  0  0  0
 53 54  1  0  0  0
 54 55  1  0  0  0
 55 56  1  0  0  0
 56 60  1  0  0  0
M  CHG 1  64  -1
M  END
> <minimizedAffinity>
-9.34679

> <CNNscore>
0.1813132018

> <CNNaffinity>
6.5519943237

> <CNN_VS>
1.1879631281

> <CNNaffinity_variance>
1.0590136051

$$$$
/media/chris/experiments/cd1a-new-docking/inputs/ligands/7ryn_ligand.pdb


 68 68  0  0  0  0  0  0  0  0999 V2000
  -35.5892   61.0331   63.8567 C   0  0  0  0  0  0  0  0  0  0  0  0
  -36.4986   60.8103   64.9768 N   0  0  0  0  0  0  0  0  0  0  0  0
  -38.3927   60.9098   63.7643 O   0  0  0  0  0  0  0  0  0  0  0  0
  -37.8269   60.7660   64.8443 C   0  0  0  0  0  0  0  0  0  0  0  0
  -36.1136   60.6867   65.8745 H   0  0  0  0  0  0  0  0  0  0  0  0
  -38.6015   60.5182   66.1147 C   0  0  0  0  0  0  0  0  0  0  0  0
  -39.9392   59.8353   65.8604 C   0  0  0  0  0  0  0  0  0  0  0  0
  -41.0999   60.5494   66.5344 C   0  0  0  0  0  0  0  0  0  0  0  0
  -42.4021   59.7666   66.5107 C   0  0  0  0  0  0  0  0  0  0  0  0
  -42.2124   58.2588   66.4403 C   0  0  0  0  0  0  0  0  0  0  0  0
  -43.4564   57.4974   66.0004 C   0  0  0  0  0  0  0  0  0  0  0  0
  -44.7110   58.3579   65.9227 C   0  0  0  0  0  0  0  0  0  0  0  0
  -45.9761   57.6824   66.4457 C   0  0  0  0  0  0  0  0  0  0  0  0
  -46.7545   58.5193   67.4595 C   0  0  0  0  0  0  0  0  0  0  0  0
  -47.8525   59.3940   66.8547 C   0  0  0  0  0  0  0  0  0  0  0  0
  -48.2429   58.9857   65.4341 C   0  0  0  0  0  0  0  0  0  0  0  0
  -47.8203   59.9657   64.3398 C   0  0  0  0  0  0  0  0  0  0  0  0
  -48.9619   60.4803   63.4588 C   0  0  0  0  0  0  0  0  0  0  0  0
  -50.3073   59.9749   63.8933 C   0  0  0  0  0  0  0  0  0  0  0  0
  -50.9675   58.9620   63.3607 C   0  0  0  0  0  0  0  0  0  0  0  0
  -50.5046   58.1115   62.2168 C   0  0  0  0  0  0  0  0  0  0  0  0
  -50.0246   58.9166   61.0072 C   0  0  0  0  0  0  0  0  0  0  0  0
  -49.7614   58.0571   59.7779 C   0  0  0  0  0  0  0  0  0  0  0  0
  -49.1445   56.7025   60.1077 C   0  0  0  0  0  0  0  0  0  0  0  0
  -47.8314   56.4151   59.3887 C   0  0  0  0  0  0  0  0  0  0  0  0
  -48.0062   56.0111   57.9314 C   0  0  0  0  0  0  0  0  0  0  0  0
  -47.0679   56.7246   56.9710 C   0  0  0  0  0  0  0  0  0  0  0  0
  -47.0507   58.2265   57.1709 C   0  0  0  0  0  0  0  0  0  0  0  0
  -33.7910   60.0348   62.5900 O   0  0  0  0  0  0  0  0  0  0  0  0
  -34.6563   59.8204   63.7088 C   0  0  0  0  0  0  0  0  0  0  0  0
  -33.3002   60.8622   62.7147 H   0  0  0  0  0  0  0  0  0  0  0  0
  -35.4320   58.5488   63.5504 C   0  0  0  0  0  0  0  0  0  0  0  0
  -36.2338   58.2706   62.5415 C   0  0  0  0  0  0  0  0  0  0  0  0
  -36.9828   56.9858   62.4046 C   0  0  0  0  0  0  0  0  0  0  0  0
  -38.4650   57.2402   62.1224 C   0  0  0  0  0  0  0  0  0  0  0  0
  -39.2948   57.5290   63.3627 C   0  0  0  0  0  0  0  0  0  0  0  0
  -40.7599   57.1473   63.2370 C   0  0  0  0  0  0  0  0  0  0  0  0
  -40.9997   55.8603   62.4612 C   0  0  0  0  0  0  0  0  0  0  0  0
  -41.4595   56.0869   61.0293 C   0  0  0  0  0  0  0  0  0  0  0  0
  -41.9782   57.4901   60.7680 C   0  0  0  0  0  0  0  0  0  0  0  0
  -41.1053   58.3078   59.8344 C   0  0  0  0  0  0  0  0  0  0  0  0
  -40.6434   59.6295   60.4237 C   0  0  0  0  0  0  0  0  0  0  0  0
  -41.7888   60.4847   60.9332 C   0  0  0  0  0  0  0  0  0  0  0  0
  -41.9706   60.4555   62.4387 C   0  0  0  0  0  0  0  0  0  0  0  0
  -42.1560   61.8391   63.0300 C   0  0  0  0  0  0  0  0  0  0  0  0
  -43.2382   62.6311   62.3257 C   0  0  0  0  0  0  0  0  0  0  0  0
  -34.8193   62.3214   64.0609 C   0  0  0  0  0  0  0  0  0  0  0  0
  -34.9906   63.1380   62.8970 O   0  0  0  0  0  0  0  0  0  0  0  0
  -34.0091   65.6620   63.6091 O   0  0  0  0  0  0  0  0  0  0  0  0
  -30.5539   63.0962   63.5833 O   0  0  0  0  0  0  0  0  0  0  0  0
  -32.9266   62.5407   62.0538 O   0  0  0  0  0  0  0  0  0  0  0  0
  -33.7972   63.6170   62.3490 C   0  0  0  0  0  0  0  0  0  0  0  0
  -33.1539   64.5525   63.3643 C   0  0  0  0  0  0  0  0  0  0  0  0
  -31.8044   65.0316   62.8447 C   0  0  0  0  0  0  0  0  0  0  0  0
  -30.9267   63.8568   62.4387 C   0  0  0  0  0  0  0  0  0  0  0  0
  -31.6868   62.9622   61.4627 C   0  0  0  0  0  0  0  0  0  0  0  0
  -34.8642   65.3445   63.9391 H   0  0  0  0  0  0  0  0  0  0  0  0
  -30.0707   63.6629   64.2048 H   0  0  0  0  0  0  0  0  0  0  0  0
  -30.8877   60.7840   62.1737 O   0  0  0  0  0  0  0  0  0  0  0  0
  -30.9299   61.7082   61.0926 C   0  0  0  0  0  0  0  0  0  0  0  0
  -30.3962   59.9926   61.9035 H   0  0  0  0  0  0  0  0  0  0  0  0
  -31.1965   65.7255   63.9799 O   0  0  0  0  0  0  0  0  0  0  0  0
  -30.6465   67.4708   62.4119 O   0  0  0  0  0  0  0  0  0  0  0  0
  -29.8039   67.5659   64.7776 O   0  0  0  0  0  0  0  0  0  0  0  0
  -32.0915   67.9161   64.2480 O   0  0  0  0  0  0  0  0  0  0  0  0
  -30.7798   67.2482   63.8040 S   0  0  0  0  0  0  0  0  0  0  0  0
  -29.8260   67.0611   62.0961 H   0  0  0  0  0  0  0  0  0  0  0  0
  -32.7886   67.7204   63.6025 H   0  0  0  0  0  0  0  0  0  0  0  0
  2  1  1  0  0  0
  2  4  1  0  0  0
  2  5  1  0  0  0
 47 48  1  0  0  0
 47  1  1  0  0  0
 48 52  1  0  0  0
  1 30  1  0  0  0
 29 30  1  0  0  0
 29 31  1  0  0  0
 30 32  1  0  0  0
  3  4  2  0  0  0
 32 33  2  0  0  0
 49 53  1  0  0  0
 49 57  1  0  0  0
 33 34  1  0  0  0
 62 54  1  0  0  0
 62 66  1  0  0  0
 34 35  1  0  0  0
 50 55  1  0  0  0
 50 58  1  0  0  0
 35 36  1  0  0  0
 51 52  1  0  0  0
 51 56  1  0  0  0
 36 37  1  0  0  0
 59 60  1  0  0  0
 59 61  1  0  0  0
 37 38  1  0  0  0
 63 66  1  0  0  0
 63 67  1  0  0  0
 38 39  1  0  0  0
 64 66  1  0  0  0
 39 40  1  0  0  0
 65 66  1  0  0  0
 65 68  1  0  0  0
 40 41  1  0  0  0
 41 42  1  0  0  0
 42 43  1  0  0  0
 43 44  1  0  0  0
 44 45  1  0  0  0
 45 46  1  0  0  0
  4  6  1  0  0  0
  6  7  1  0  0  0
  7  8  1  0  0  0
  8  9  1  0  0  0
  9 10  1  0  0  0
 10 11  1  0  0  0
 11 12  1  0  0  0
 12 13  1  0  0  0
 13 14  1  0  0  0
 14 15  1  0  0  0
 15 16  1  0  0  0
 16 17  1  0  0  0
 17 18  1  0  0  0
 18 19  1  0  0  0
 19 20  2  0  0  0
 20 21  1  0  0  0
 21 22  1  0  0  0
 22 23  1  0  0  0
 23 24  1  0  0  0
 24 25  1  0  0  0
 25 26  1  0  0  0
 26 27  1  0  0  0
 27 28  1  0  0  0
 52 53  1  0  0  0
 53 54  1  0  0  0
 54 55  1  0  0  0
 55 56  1  0  0  0
 56 60  1  0  0  0
M  CHG 1  64  -1
M  END
> <minimizedAffinity>
-9.32266

> <CNNscore>
0.1732620150

> <CNNaffinity>
7.2356085777

> <CNN_VS>
1.2536561489

> <CNNaffinity_variance>
1.2512609959

$$$$
/media/chris/experiments/cd1a-new-docking/inputs/ligands/7ryn_ligand.pdb


 68 68  0  0  0  0  0  0  0  0999 V2000
  -36.6167   59.0735   63.2583 C   0  0  0  0  0  0  0  0  0  0  0  0
  -37.4341   59.1351   62.0502 N   0  0  0  0  0  0  0  0  0  0  0  0
  -38.4329   57.1387   62.3411 O   0  0  0  0  0  0  0  0  0  0  0  0
  -38.2771   58.1651   61.6860 C   0  0  0  0  0  0  0  0  0  0  0  0
  -37.3603   59.9310   61.4756 H   0  0  0  0  0  0  0  0  0  0  0  0
  -39.0422   58.4110   60.4095 C   0  0  0  0  0  0  0  0  0  0  0  0
  -40.5359   58.1555   60.5644 C   0  0  0  0  0  0  0  0  0  0  0  0
  -41.3769   59.3809   60.2445 C   0  0  0  0  0  0  0  0  0  0  0  0
  -41.4912   60.3671   61.3949 C   0  0  0  0  0  0  0  0  0  0  0  0
  -41.5443   59.7098   62.7658 C   0  0  0  0  0  0  0  0  0  0  0  0
  -42.9566   59.4457   63.2724 C   0  0  0  0  0  0  0  0  0  0  0  0
  -43.2892   57.9676   63.4298 C   0  0  0  0  0  0  0  0  0  0  0  0
  -43.8824   57.5923   64.7854 C   0  0  0  0  0  0  0  0  0  0  0  0
  -45.1796   58.3261   65.1214 C   0  0  0  0  0  0  0  0  0  0  0  0
  -45.4061   58.5692   66.6135 C   0  0  0  0  0  0  0  0  0  0  0  0
  -46.6738   57.9064   67.1527 C   0  0  0  0  0  0  0  0  0  0  0  0
  -47.7731   57.6733   66.1165 C   0  0  0  0  0  0  0  0  0  0  0  0
  -48.8457   58.7643   66.0574 C   0  0  0  0  0  0  0  0  0  0  0  0
  -48.5665   59.8004   65.0073 C   0  0  0  0  0  0  0  0  0  0  0  0
  -49.4622   60.3800   64.2280 C   0  0  0  0  0  0  0  0  0  0  0  0
  -50.9385   60.1215   64.2375 C   0  0  0  0  0  0  0  0  0  0  0  0
  -51.4310   59.3268   63.0260 C   0  0  0  0  0  0  0  0  0  0  0  0
  -50.4238   58.2972   62.5314 C   0  0  0  0  0  0  0  0  0  0  0  0
  -50.3249   58.2295   61.0115 C   0  0  0  0  0  0  0  0  0  0  0  0
  -48.9676   57.7751   60.4870 C   0  0  0  0  0  0  0  0  0  0  0  0
  -48.8536   57.8113   58.9694 C   0  0  0  0  0  0  0  0  0  0  0  0
  -47.5036   57.3588   58.4359 C   0  0  0  0  0  0  0  0  0  0  0  0
  -47.2349   57.8433   57.0255 C   0  0  0  0  0  0  0  0  0  0  0  0
  -36.1792   57.0847   64.5575 O   0  0  0  0  0  0  0  0  0  0  0  0
  -35.8862   57.7221   63.3108 C   0  0  0  0  0  0  0  0  0  0  0  0
  -37.1396   56.9865   64.6525 H   0  0  0  0  0  0  0  0  0  0  0  0
  -34.4088   57.8907   63.1295 C   0  0  0  0  0  0  0  0  0  0  0  0
  -33.7657   59.0407   63.1758 C   0  0  0  0  0  0  0  0  0  0  0  0
  -32.2880   59.1743   63.0057 C   0  0  0  0  0  0  0  0  0  0  0  0
  -31.9169   60.5667   62.4914 C   0  0  0  0  0  0  0  0  0  0  0  0
  -30.5752   60.6311   61.7800 C   0  0  0  0  0  0  0  0  0  0  0  0
  -29.4830   61.3335   62.5684 C   0  0  0  0  0  0  0  0  0  0  0  0
  -29.6640   62.8411   62.6683 C   0  0  0  0  0  0  0  0  0  0  0  0
  -29.9983   63.3246   64.0710 C   0  0  0  0  0  0  0  0  0  0  0  0
  -31.4244   63.8243   64.2224 C   0  0  0  0  0  0  0  0  0  0  0  0
  -31.7103   64.4819   65.5595 C   0  0  0  0  0  0  0  0  0  0  0  0
  -31.7915   65.9975   65.4952 C   0  0  0  0  0  0  0  0  0  0  0  0
  -31.6897   66.5377   64.0808 C   0  0  0  0  0  0  0  0  0  0  0  0
  -30.4276   67.3315   63.8028 C   0  0  0  0  0  0  0  0  0  0  0  0
  -29.6738   66.8215   62.5904 C   0  0  0  0  0  0  0  0  0  0  0  0
  -30.5968   66.2771   61.5198 C   0  0  0  0  0  0  0  0  0  0  0  0
  -37.4801   59.3012   64.4818 C   0  0  0  0  0  0  0  0  0  0  0  0
  -37.7605   60.7020   64.5809 O   0  0  0  0  0  0  0  0  0  0  0  0
  -36.3947   61.8492   62.4224 O   0  0  0  0  0  0  0  0  0  0  0  0
  -36.5857   64.9588   65.3917 O   0  0  0  0  0  0  0  0  0  0  0  0
  -36.7321   62.1606   66.0448 O   0  0  0  0  0  0  0  0  0  0  0  0
  -36.6338   61.5009   64.7964 C   0  0  0  0  0  0  0  0  0  0  0  0
  -36.5544   62.5192   63.6665 C   0  0  0  0  0  0  0  0  0  0  0  0
  -35.3884   63.4696   63.9070 C   0  0  0  0  0  0  0  0  0  0  0  0
  -35.4640   64.0868   65.2958 C   0  0  0  0  0  0  0  0  0  0  0  0
  -35.5914   62.9820   66.3416 C   0  0  0  0  0  0  0  0  0  0  0  0
  -37.1423   61.2476   62.2807 H   0  0  0  0  0  0  0  0  0  0  0  0
  -36.5065   65.6616   64.7279 H   0  0  0  0  0  0  0  0  0  0  0  0
  -36.5736   62.6255   68.5318 O   0  0  0  0  0  0  0  0  0  0  0  0
  -35.7853   63.5100   67.7437 C   0  0  0  0  0  0  0  0  0  0  0  0
  -36.6785   62.9930   69.4233 H   0  0  0  0  0  0  0  0  0  0  0  0
  -35.5509   64.5164   62.8984 O   0  0  0  0  0  0  0  0  0  0  0  0
  -33.7456   63.3803   61.7770 O   0  0  0  0  0  0  0  0  0  0  0  0
  -34.1250   65.8391   61.4218 O   0  0  0  0  0  0  0  0  0  0  0  0
  -35.6016   64.2035   60.5379 O   0  0  0  0  0  0  0  0  0  0  0  0
  -34.5787   64.5174   61.6421 S   0  0  0  0  0  0  0  0  0  0  0  0
  -33.0852   63.5436   62.4684 H   0  0  0  0  0  0  0  0  0  0  0  0
  -35.9374   63.3012   60.6554 H   0  0  0  0  0  0  0  0  0  0  0  0
  2  1  1  0  0  0
  2  4  1  0  0  0
  2  5  1  0  0  0
 47 48  1  0  0  0
 47  1  1  0  0  0
 48 52  1  0  0  0
  1 30  1  0  0  0
 29 30  1  0  0  0
 29 31  1  0  0  0
 30 32  1  0  0  0
  3  4  2  0  0  0
 32 33  2  0  0  0
 49 53  1  0  0  0
 49 57  1  0  0  0
 33 34  1  0  0  0
 62 54  1  0  0  0
 62 66  1  0  0  0
 34 35  1  0  0  0
 50 55  1  0  0  0
 50 58  1  0  0  0
 35 36  1  0  0  0
 51 52  1  0  0  0
 51 56  1  0  0  0
 36 37  1  0  0  0
 59 60  1  0  0  0
 59 61  1  0  0  0
 37 38  1  0  0  0
 63 66  1  0  0  0
 63 67  1  0  0  0
 38 39  1  0  0  0
 64 66  1  0  0  0
 39 40  1  0  0  0
 65 66  1  0  0  0
 65 68  1  0  0  0
 40 41  1  0  0  0
 41 42  1  0  0  0
 42 43  1  0  0  0
 43 44  1  0  0  0
 44 45  1  0  0  0
 45 46  1  0  0  0
  4  6  1  0  0  0
  6  7  1  0  0  0
  7  8  1  0  0  0
  8  9  1  0  0  0
  9 10  1  0  0  0
 10 11  1  0  0  0
 11 12  1  0  0  0
 12 13  1  0  0  0
 13 14  1  0  0  0
 14 15  1  0  0  0
 15 16  1  0  0  0
 16 17  1  0  0  0
 17 18  1  0  0  0
 18 19  1  0  0  0
 19 20  2  0  0  0
 20 21  1  0  0  0
 21 22  1  0  0  0
 22 23  1  0  0  0
 23 24  1  0  0  0
 24 25  1  0  0  0
 25 26  1  0  0  0
 26 27  1  0  0  0
 27 28  1  0  0  0
 52 53  1  0  0  0
 53 54  1  0  0  0
 54 55  1  0  0  0
 55 56  1  0  0  0
 56 60  1  0  0  0
M  CHG 1  64  -1
M  END
> <minimizedAffinity>
-9.07011

> <CNNscore>
0.1527695060

> <CNNaffinity>
7.0722351074

> <CNN_VS>
1.0804218054

> <CNNaffinity_variance>
0.8969162703

$$$$
