/media/chris/experiments/cd1a-new-docking/inputs/ligands/7ryn_ligand.pdb


 68 68  0  0  0  0  0  0  0  0999 V2000
  -37.9034   60.2608   64.2571 C   0  0  0  0  0  0  0  0  0  0  0  0
  -39.2309   60.4400   64.8376 N   0  0  0  0  0  0  0  0  0  0  0  0
  -40.2859   60.8417   62.8899 O   0  0  0  0  0  0  0  0  0  0  0  0
  -40.3170   60.7160   64.1107 C   0  0  0  0  0  0  0  0  0  0  0  0
  -39.3304   60.3531   65.8131 H   0  0  0  0  0  0  0  0  0  0  0  0
  -41.6025   60.8585   64.8869 C   0  0  0  0  0  0  0  0  0  0  0  0
  -41.4320   60.5338   66.3654 C   0  0  0  0  0  0  0  0  0  0  0  0
  -42.1761   59.2742   66.7789 C   0  0  0  0  0  0  0  0  0  0  0  0
  -41.9080   58.0775   65.8816 C   0  0  0  0  0  0  0  0  0  0  0  0
  -43.1457   57.2466   65.5778 C   0  0  0  0  0  0  0  0  0  0  0  0
  -44.1217   57.9161   64.6188 C   0  0  0  0  0  0  0  0  0  0  0  0
  -45.4079   58.3934   65.2811 C   0  0  0  0  0  0  0  0  0  0  0  0
  -45.6194   57.8749   66.7013 C   0  0  0  0  0  0  0  0  0  0  0  0
  -47.0464   58.0460   67.2199 C   0  0  0  0  0  0  0  0  0  0  0  0
  -47.9094   59.0087   66.4045 C   0  0  0  0  0  0  0  0  0  0  0  0
  -49.1192   58.3390   65.7527 C   0  0  0  0  0  0  0  0  0  0  0  0
  -50.4143   59.1493   65.8055 C   0  0  0  0  0  0  0  0  0  0  0  0
  -50.8407   59.7715   64.4732 C   0  0  0  0  0  0  0  0  0  0  0  0
  -49.7227   59.8306   63.4728 C   0  0  0  0  0  0  0  0  0  0  0  0
  -49.7142   59.2619   62.2801 C   0  0  0  0  0  0  0  0  0  0  0  0
  -50.8210   58.4454   61.6848 C   0  0  0  0  0  0  0  0  0  0  0  0
  -50.3447   57.1425   61.0393 C   0  0  0  0  0  0  0  0  0  0  0  0
  -49.1313   57.3258   60.1373 C   0  0  0  0  0  0  0  0  0  0  0  0
  -48.4696   56.0114   59.7391 C   0  0  0  0  0  0  0  0  0  0  0  0
  -47.2113   56.1690   58.8929 C   0  0  0  0  0  0  0  0  0  0  0  0
  -47.4532   56.0068   57.3989 C   0  0  0  0  0  0  0  0  0  0  0  0
  -47.7410   57.3096   56.6699 C   0  0  0  0  0  0  0  0  0  0  0  0
  -46.8248   58.4385   57.0965 C   0  0  0  0  0  0  0  0  0  0  0  0
  -37.9693   58.5300   65.9407 O   0  0  0  0  0  0  0  0  0  0  0  0
  -37.3181   58.9198   64.7282 C   0  0  0  0  0  0  0  0  0  0  0  0
  -38.9266   58.4804   65.7922 H   0  0  0  0  0  0  0  0  0  0  0  0
  -35.8349   59.0069   64.9205 C   0  0  0  0  0  0  0  0  0  0  0  0
  -35.0205   57.9742   65.0109 C   0  0  0  0  0  0  0  0  0  0  0  0
  -33.5423   58.0942   65.1877 C   0  0  0  0  0  0  0  0  0  0  0  0
  -32.9265   58.9695   64.0941 C   0  0  0  0  0  0  0  0  0  0  0  0
  -32.2622   58.1889   62.9717 C   0  0  0  0  0  0  0  0  0  0  0  0
  -33.2324   57.4537   62.0628 C   0  0  0  0  0  0  0  0  0  0  0  0
  -34.3869   58.3121   61.5666 C   0  0  0  0  0  0  0  0  0  0  0  0
  -35.7545   57.6858   61.7924 C   0  0  0  0  0  0  0  0  0  0  0  0
  -36.9066   58.5292   61.2752 C   0  0  0  0  0  0  0  0  0  0  0  0
  -38.2230   57.7816   61.1735 C   0  0  0  0  0  0  0  0  0  0  0  0
  -38.6363   57.0851   62.4587 C   0  0  0  0  0  0  0  0  0  0  0  0
  -40.1283   57.1644   62.7234 C   0  0  0  0  0  0  0  0  0  0  0  0
  -40.9956   56.8114   61.5303 C   0  0  0  0  0  0  0  0  0  0  0  0
  -41.9729   57.9144   61.1738 C   0  0  0  0  0  0  0  0  0  0  0  0
  -41.5524   58.6859   59.9400 C   0  0  0  0  0  0  0  0  0  0  0  0
  -37.0135   61.4302   64.6246 C   0  0  0  0  0  0  0  0  0  0  0  0
  -37.0214   62.3616   63.5369 O   0  0  0  0  0  0  0  0  0  0  0  0
  -36.4259   64.5992   65.1116 O   0  0  0  0  0  0  0  0  0  0  0  0
  -32.7499   62.3691   64.9196 O   0  0  0  0  0  0  0  0  0  0  0  0
  -34.8061   62.1717   62.9169 O   0  0  0  0  0  0  0  0  0  0  0  0
  -35.8194   63.0537   63.3628 C   0  0  0  0  0  0  0  0  0  0  0  0
  -35.4315   63.6693   64.7008 C   0  0  0  0  0  0  0  0  0  0  0  0
  -34.0800   64.3618   64.5798 C   0  0  0  0  0  0  0  0  0  0  0  0
  -33.0334   63.4205   64.0020 C   0  0  0  0  0  0  0  0  0  0  0  0
  -33.5463   62.8249   62.6933 C   0  0  0  0  0  0  0  0  0  0  0  0
  -37.2809   64.1470   65.1849 H   0  0  0  0  0  0  0  0  0  0  0  0
  -32.4238   62.7456   65.7519 H   0  0  0  0  0  0  0  0  0  0  0  0
  -31.3042   61.8977   62.6482 O   0  0  0  0  0  0  0  0  0  0  0  0
  -32.6152   61.7903   62.1056 C   0  0  0  0  0  0  0  0  0  0  0  0
  -30.7335   61.2213   62.2510 H   0  0  0  0  0  0  0  0  0  0  0  0
  -33.7184   64.7091   65.9539 O   0  0  0  0  0  0  0  0  0  0  0  0
  -32.6504   66.1968   67.5203 O   0  0  0  0  0  0  0  0  0  0  0  0
  -32.3970   66.5505   65.0451 O   0  0  0  0  0  0  0  0  0  0  0  0
  -31.3464   64.7402   66.1656 O   0  0  0  0  0  0  0  0  0  0  0  0
  -32.5235   65.7290   66.1897 S   0  0  0  0  0  0  0  0  0  0  0  0
  -33.3870   66.8257   67.5729 H   0  0  0  0  0  0  0  0  0  0  0  0
  -31.3984   64.1566   66.9386 H   0  0  0  0  0  0  0  0  0  0  0  0
  2  1  1  0  0  0
  2  4  1  0  0  0
  2  5  1  0  0  0
 47 48  1  0  0  0
 47  1  1  0  0  0
 48 52  1  0  0  0
  1 30  1  0  0  0
 29 30  1  0  0  0
 29 31  1  0  0  0
 30 32  1  0  0  0
  3  4  2  0  0  0
 32 33  2  0  0  0
 49 53  1  0  0  0
 49 57  1  0  0  0
 33 34  1  0  0  0
 62 54  1  0  0  0
 62 66  1  0  0  0
 34 35  1  0  0  0
 50 55  1  0  0  0
 50 58  1  0  0  0
 35 36  1  0  0  0
 51 52  1  0  0  0
 51 56  1  0  0  0
 36 37  1  0  0  0
 59 60  1  0  0  0
 59 61  1  0  0  0
 37 38  1  0  0  0
 63 66  1  0  0  0
 63 67  1  0  0  0
 38 39  1  0  0  0
 64 66  1  0  0  0
 39 40  1  0  0  0
 65 66  1  0  0  0
 65 68  1  0  0  0
 40 41  1  0  0  0
 41 42  1  0  0  0
 42 43  1  0  0  0
 43 44  1  0  0  0
 44 45  1  0  0  0
 45 46  1  0  0  0
  4  6  1  0  0  0
  6  7  1  0  0  0
  7  8  1  0  0  0
  8  9  1  0  0  0
  9 10  1  0  0  0
 10 11  1  0  0  0
 11 12  1  0  0  0
 12 13  1  0  0  0
 13 14  1  0  0  0
 14 15  1  0  0  0
 15 16  1  0  0  0
 16 17  1  0  0  0
 17 18  1  0  0  0
 18 19  1  0  0  0
 19 20  2  0  0  0
 20 21  1  0  0  0
 21 22  1  0  0  0
 22 23  1  0  0  0
 23 24  1  0  0  0
 24 25  1  0  0  0
 25 26  1  0  0  0
 26 27  1  0  0  0
 27 28  1  0  0  0
 52 53  1  0  0  0
 53 54  1  0  0  0
 54 55  1  0  0  0
 55 56  1  0  0  0
 56 60  1  0  0  0
M  CHG 1  64  -1
M  END
> <minimizedAffinity>
-8.82161

> <CNNscore>
0.1637320668

> <CNNaffinity>
7.1145353317

> <CNN_VS>
1.1648775339

> <CNNaffinity_variance>
1.3666200638

$$$$
/media/chris/experiments/cd1a-new-docking/inputs/ligands/7ryn_ligand.pdb


 68 68  0  0  0  0  0  0  0  0999 V2000
  -38.0961   60.7096   64.8438 C   0  0  0  0  0  0  0  0  0  0  0  0
  -39.1058   59.7600   65.3021 N   0  0  0  0  0  0  0  0  0  0  0  0
  -40.4465   61.2905   66.2654 O   0  0  0  0  0  0  0  0  0  0  0  0
  -40.2004   60.1231   65.9760 C   0  0  0  0  0  0  0  0  0  0  0  0
  -38.9733   58.8047   65.1047 H   0  0  0  0  0  0  0  0  0  0  0  0
  -41.1329   59.0010   66.3590 C   0  0  0  0  0  0  0  0  0  0  0  0
  -41.1492   57.8773   65.3306 C   0  0  0  0  0  0  0  0  0  0  0  0
  -42.3390   56.9460   65.4981 C   0  0  0  0  0  0  0  0  0  0  0  0
  -43.3515   57.0304   64.3681 C   0  0  0  0  0  0  0  0  0  0  0  0
  -43.9976   58.4000   64.2219 C   0  0  0  0  0  0  0  0  0  0  0  0
  -45.3412   58.5300   64.9277 C   0  0  0  0  0  0  0  0  0  0  0  0
  -45.2517   58.4419   66.4458 C   0  0  0  0  0  0  0  0  0  0  0  0
  -46.5491   58.0249   67.1339 C   0  0  0  0  0  0  0  0  0  0  0  0
  -47.4366   57.1130   66.2880 C   0  0  0  0  0  0  0  0  0  0  0  0
  -48.8416   57.6553   66.0267 C   0  0  0  0  0  0  0  0  0  0  0  0
  -48.9442   59.1740   66.1684 C   0  0  0  0  0  0  0  0  0  0  0  0
  -48.7479   59.9599   64.8721 C   0  0  0  0  0  0  0  0  0  0  0  0
  -50.0276   60.5551   64.2786 C   0  0  0  0  0  0  0  0  0  0  0  0
  -51.0121   59.5074   63.8459 C   0  0  0  0  0  0  0  0  0  0  0  0
  -50.8215   58.6023   62.9023 C   0  0  0  0  0  0  0  0  0  0  0  0
  -49.5822   58.4378   62.0758 C   0  0  0  0  0  0  0  0  0  0  0  0
  -49.7061   59.0099   60.6620 C   0  0  0  0  0  0  0  0  0  0  0  0
  -49.6343   57.9468   59.5738 C   0  0  0  0  0  0  0  0  0  0  0  0
  -49.1934   56.5817   60.0899 C   0  0  0  0  0  0  0  0  0  0  0  0
  -48.0314   55.9618   59.3221 C   0  0  0  0  0  0  0  0  0  0  0  0
  -48.0850   56.2123   57.8217 C   0  0  0  0  0  0  0  0  0  0  0  0
  -46.8281   56.8507   57.2520 C   0  0  0  0  0  0  0  0  0  0  0  0
  -47.0004   58.3259   56.9520 C   0  0  0  0  0  0  0  0  0  0  0  0
  -37.7004   62.0351   62.8636 O   0  0  0  0  0  0  0  0  0  0  0  0
  -38.0734   60.7271   63.3069 C   0  0  0  0  0  0  0  0  0  0  0  0
  -36.8413   62.2733   63.2458 H   0  0  0  0  0  0  0  0  0  0  0  0
  -39.3983   60.3250   62.7350 C   0  0  0  0  0  0  0  0  0  0  0  0
  -40.4804   61.0780   62.7272 C   0  0  0  0  0  0  0  0  0  0  0  0
  -41.7842   60.6536   62.1350 C   0  0  0  0  0  0  0  0  0  0  0  0
  -41.7645   60.7832   60.6106 C   0  0  0  0  0  0  0  0  0  0  0  0
  -41.2014   59.5695   59.8893 C   0  0  0  0  0  0  0  0  0  0  0  0
  -41.9540   58.2777   60.1591 C   0  0  0  0  0  0  0  0  0  0  0  0
  -41.0960   57.1766   60.7651 C   0  0  0  0  0  0  0  0  0  0  0  0
  -39.6557   57.5946   61.0187 C   0  0  0  0  0  0  0  0  0  0  0  0
  -39.0687   57.0228   62.2971 C   0  0  0  0  0  0  0  0  0  0  0  0
  -37.5531   56.9504   62.3031 C   0  0  0  0  0  0  0  0  0  0  0  0
  -36.9206   57.3981   63.6097 C   0  0  0  0  0  0  0  0  0  0  0  0
  -35.4055   57.3175   63.5939 C   0  0  0  0  0  0  0  0  0  0  0  0
  -34.7538   58.0093   62.4120 C   0  0  0  0  0  0  0  0  0  0  0  0
  -33.2985   57.6206   62.2393 C   0  0  0  0  0  0  0  0  0  0  0  0
  -32.3946   58.2909   63.2531 C   0  0  0  0  0  0  0  0  0  0  0  0
  -36.7448   60.3536   65.4284 C   0  0  0  0  0  0  0  0  0  0  0  0
  -35.7451   60.5950   64.4320 O   0  0  0  0  0  0  0  0  0  0  0  0
  -33.7210   61.3474   62.6492 O   0  0  0  0  0  0  0  0  0  0  0  0
  -34.7308   64.9559   64.7661 O   0  0  0  0  0  0  0  0  0  0  0  0
  -35.1824   62.3286   65.8484 O   0  0  0  0  0  0  0  0  0  0  0  0
  -34.7165   61.4477   64.8432 C   0  0  0  0  0  0  0  0  0  0  0  0
  -34.2434   62.2360   63.6289 C   0  0  0  0  0  0  0  0  0  0  0  0
  -33.1799   63.2432   64.0476 C   0  0  0  0  0  0  0  0  0  0  0  0
  -33.6705   64.1094   65.1983 C   0  0  0  0  0  0  0  0  0  0  0  0
  -34.1656   63.2191   66.3353 C   0  0  0  0  0  0  0  0  0  0  0  0
  -34.4066   60.7116   62.3909 H   0  0  0  0  0  0  0  0  0  0  0  0
  -34.4181   65.5226   64.0436 H   0  0  0  0  0  0  0  0  0  0  0  0
  -35.7737   63.2402   68.1525 O   0  0  0  0  0  0  0  0  0  0  0  0
  -34.7759   63.9974   67.4773 C   0  0  0  0  0  0  0  0  0  0  0  0
  -36.1441   63.7673   68.8778 H   0  0  0  0  0  0  0  0  0  0  0  0
  -32.9734   64.0764   62.8632 O   0  0  0  0  0  0  0  0  0  0  0  0
  -30.9294   62.8213   62.6305 O   0  0  0  0  0  0  0  0  0  0  0  0
  -31.0869   65.1780   61.7721 O   0  0  0  0  0  0  0  0  0  0  0  0
  -32.2210   63.3811   60.7132 O   0  0  0  0  0  0  0  0  0  0  0  0
  -31.6297   63.8984   62.0348 S   0  0  0  0  0  0  0  0  0  0  0  0
  -30.5414   63.1130   63.4703 H   0  0  0  0  0  0  0  0  0  0  0  0
  -32.6048   62.5013   60.8531 H   0  0  0  0  0  0  0  0  0  0  0  0
  2  1  1  0  0  0
  2  4  1  0  0  0
  2  5  1  0  0  0
 47 48  1  0  0  0
 47  1  1  0  0  0
 48 52  1  0  0  0
  1 30  1  0  0  0
 29 30  1  0  0  0
 29 31  1  0  0  0
 30 32  1  0  0  0
  3  4  2  0  0  0
 32 33  2  0  0  0
 49 53  1  0  0  0
 49 57  1  0  0  0
 33 34  1  0  0  0
 62 54  1  0  0  0
 62 66  1  0  0  0
 34 35  1  0  0  0
 50 55  1  0  0  0
 50 58  1  0  0  0
 35 36  1  0  0  0
 51 52  1  0  0  0
 51 56  1  0  0  0
 36 37  1  0  0  0
 59 60  1  0  0  0
 59 61  1  0  0  0
 37 38  1  0  0  0
 63 66  1  0  0  0
 63 67  1  0  0  0
 38 39  1  0  0  0
 64 66  1  0  0  0
 39 40  1  0  0  0
 65 66  1  0  0  0
 65 68  1  0  0  0
 40 41  1  0  0  0
 41 42  1  0  0  0
 42 43  1  0  0  0
 43 44  1  0  0  0
 44 45  1  0  0  0
 45 46  1  0  0  0
  4  6  1  0  0  0
  6  7  1  0  0  0
  7  8  1  0  0  0
  8  9  1  0  0  0
  9 10  1  0  0  0
 10 11  1  0  0  0
 11 12  1  0  0  0
 12 13  1  0  0  0
 13 14  1  0  0  0
 14 15  1  0  0  0
 15 16  1  0  0  0
 16 17  1  0  0  0
 17 18  1  0  0  0
 18 19  1  0  0  0
 19 20  2  0  0  0
 20 21  1  0  0  0
 21 22  1  0  0  0
 22 23  1  0  0  0
 23 24  1  0  0  0
 24 25  1  0  0  0
 25 26  1  0  0  0
 26 27  1  0  0  0
 27 28  1  0  0  0
 52 53  1  0  0  0
 53 54  1  0  0  0
 54 55  1  0  0  0
 55 56  1  0  0  0
 56 60  1  0  0  0
M  CHG 1  64  -1
M  END
> <minimizedAffinity>
-9.15454

> <CNNscore>
0.1436194927

> <CNNaffinity>
7.5008001328

> <CNN_VS>
1.0772610903

> <CNNaffinity_variance>
1.6188564301

$$$$
/media/chris/experiments/cd1a-new-docking/inputs/ligands/7ryn_ligand.pdb


 68 68  0  0  0  0  0  0  0  0999 V2000
  -36.8003   59.3694   63.2881 C   0  0  0  0  0  0  0  0  0  0  0  0
  -37.4997   59.4500   64.5670 N   0  0  0  0  0  0  0  0  0  0  0  0
  -39.0634   60.9196   63.8866 O   0  0  0  0  0  0  0  0  0  0  0  0
  -38.5747   60.2172   64.7668 C   0  0  0  0  0  0  0  0  0  0  0  0
  -37.1623   58.9122   65.3194 H   0  0  0  0  0  0  0  0  0  0  0  0
  -39.1658   60.1635   66.1536 C   0  0  0  0  0  0  0  0  0  0  0  0
  -40.5565   59.5420   66.1730 C   0  0  0  0  0  0  0  0  0  0  0  0
  -41.6056   60.4702   66.7635 C   0  0  0  0  0  0  0  0  0  0  0  0
  -42.8157   59.7490   67.3334 C   0  0  0  0  0  0  0  0  0  0  0  0
  -42.8222   58.2515   67.0653 C   0  0  0  0  0  0  0  0  0  0  0  0
  -44.1783   57.7039   66.6392 C   0  0  0  0  0  0  0  0  0  0  0  0
  -45.3387   58.6539   66.9060 C   0  0  0  0  0  0  0  0  0  0  0  0
  -46.5732   57.9916   67.5127 C   0  0  0  0  0  0  0  0  0  0  0  0
  -47.7896   57.9781   66.5883 C   0  0  0  0  0  0  0  0  0  0  0  0
  -48.2622   59.3600   66.1370 C   0  0  0  0  0  0  0  0  0  0  0  0
  -47.9544   59.6596   64.6698 C   0  0  0  0  0  0  0  0  0  0  0  0
  -48.8488   60.7175   64.0237 C   0  0  0  0  0  0  0  0  0  0  0  0
  -50.3493   60.4199   64.0875 C   0  0  0  0  0  0  0  0  0  0  0  0
  -50.6966   59.0573   63.5611 C   0  0  0  0  0  0  0  0  0  0  0  0
  -50.5388   58.6397   62.3175 C   0  0  0  0  0  0  0  0  0  0  0  0
  -49.9783   59.4419   61.1824 C   0  0  0  0  0  0  0  0  0  0  0  0
  -49.3270   58.5901   60.0907 C   0  0  0  0  0  0  0  0  0  0  0  0
  -49.8983   57.1810   60.0053 C   0  0  0  0  0  0  0  0  0  0  0  0
  -48.8289   56.0945   59.9913 C   0  0  0  0  0  0  0  0  0  0  0  0
  -47.5942   56.4346   59.1643 C   0  0  0  0  0  0  0  0  0  0  0  0
  -47.7085   56.0356   57.6998 C   0  0  0  0  0  0  0  0  0  0  0  0
  -47.6347   57.2034   56.7289 C   0  0  0  0  0  0  0  0  0  0  0  0
  -46.7717   58.3398   57.2385 C   0  0  0  0  0  0  0  0  0  0  0  0
  -35.3231   57.8595   62.1163 O   0  0  0  0  0  0  0  0  0  0  0  0
  -36.4580   57.9016   62.9861 C   0  0  0  0  0  0  0  0  0  0  0  0
  -34.5825   58.3316   62.5281 H   0  0  0  0  0  0  0  0  0  0  0  0
  -37.6237   57.1806   62.3814 C   0  0  0  0  0  0  0  0  0  0  0  0
  -38.8487   57.1779   62.8684 C   0  0  0  0  0  0  0  0  0  0  0  0
  -39.9944   56.4606   62.2331 C   0  0  0  0  0  0  0  0  0  0  0  0
  -40.7974   55.6763   63.2729 C   0  0  0  0  0  0  0  0  0  0  0  0
  -42.1572   56.2761   63.5919 C   0  0  0  0  0  0  0  0  0  0  0  0
  -42.1956   57.7943   63.5499 C   0  0  0  0  0  0  0  0  0  0  0  0
  -43.5612   58.3693   63.2027 C   0  0  0  0  0  0  0  0  0  0  0  0
  -43.7493   59.8101   63.6520 C   0  0  0  0  0  0  0  0  0  0  0  0
  -42.5576   60.7038   63.3565 C   0  0  0  0  0  0  0  0  0  0  0  0
  -42.7726   61.6573   62.1960 C   0  0  0  0  0  0  0  0  0  0  0  0
  -42.1021   61.2176   60.9057 C   0  0  0  0  0  0  0  0  0  0  0  0
  -41.0257   60.1705   61.1231 C   0  0  0  0  0  0  0  0  0  0  0  0
  -41.0404   59.0384   60.1140 C   0  0  0  0  0  0  0  0  0  0  0  0
  -39.6545   58.6940   59.6046 C   0  0  0  0  0  0  0  0  0  0  0  0
  -38.6152   59.7172   60.0134 C   0  0  0  0  0  0  0  0  0  0  0  0
  -35.5661   60.2472   63.3148 C   0  0  0  0  0  0  0  0  0  0  0  0
  -34.8023   59.9154   64.4798 O   0  0  0  0  0  0  0  0  0  0  0  0
  -32.4996   61.1471   63.4693 O   0  0  0  0  0  0  0  0  0  0  0  0
  -35.0634   64.3940   64.6554 O   0  0  0  0  0  0  0  0  0  0  0  0
  -35.2467   61.7590   65.7958 O   0  0  0  0  0  0  0  0  0  0  0  0
  -34.2405   61.0164   65.1327 C   0  0  0  0  0  0  0  0  0  0  0  0
  -33.5484   61.8818   64.0877 C   0  0  0  0  0  0  0  0  0  0  0  0
  -32.9951   63.1412   64.7424 C   0  0  0  0  0  0  0  0  0  0  0  0
  -34.0747   63.8654   65.5332 C   0  0  0  0  0  0  0  0  0  0  0  0
  -34.7329   62.8945   66.5103 C   0  0  0  0  0  0  0  0  0  0  0  0
  -32.8639   60.3485   63.0566 H   0  0  0  0  0  0  0  0  0  0  0  0
  -34.6471   65.0113   64.0337 H   0  0  0  0  0  0  0  0  0  0  0  0
  -36.5229   62.5512   68.1124 O   0  0  0  0  0  0  0  0  0  0  0  0
  -35.8953   63.5022   67.2600 C   0  0  0  0  0  0  0  0  0  0  0  0
  -37.2626   62.9725   68.5775 H   0  0  0  0  0  0  0  0  0  0  0  0
  -32.5637   63.9798   63.6244 O   0  0  0  0  0  0  0  0  0  0  0  0
  -30.9909   65.1215   65.0492 O   0  0  0  0  0  0  0  0  0  0  0  0
  -32.7993   66.3988   63.8602 O   0  0  0  0  0  0  0  0  0  0  0  0
  -30.9518   65.4671   62.6962 O   0  0  0  0  0  0  0  0  0  0  0  0
  -31.8437   65.3593   63.9439 S   0  0  0  0  0  0  0  0  0  0  0  0
  -31.5222   65.0476   65.8574 H   0  0  0  0  0  0  0  0  0  0  0  0
  -30.2803   64.7674   62.7172 H   0  0  0  0  0  0  0  0  0  0  0  0
  2  1  1  0  0  0
  2  4  1  0  0  0
  2  5  1  0  0  0
 47 48  1  0  0  0
 47  1  1  0  0  0
 48 52  1  0  0  0
  1 30  1  0  0  0
 29 30  1  0  0  0
 29 31  1  0  0  0
 30 32  1  0  0  0
  3  4  2  0  0  0
 32 33  2  0  0  0
 49 53  1  0  0  0
 49 57  1  0  0  0
 33 34  1  0  0  0
 62 54  1  0  0  0
 62 66  1  0  0  0
 34 35  1  0  0  0
 50 55  1  0  0  0
 50 58  1  0  0  0
 35 36  1  0  0  0
 51 52  1  0  0  0
 51 56  1  0  0  0
 36 37  1  0  0  0
 59 60  1  0  0  0
 59 61  1  0  0  0
 37 38  1  0  0  0
 63 66  1  0  0  0
 63 67  1  0  0  0
 38 39  1  0  0  0
 64 66  1  0  0  0
 39 40  1  0  0  0
 65 66  1  0  0  0
 65 68  1  0  0  0
 40 41  1  0  0  0
 41 42  1  0  0  0
 42 43  1  0  0  0
 43 44  1  0  0  0
 44 45  1  0  0  0
 45 46  1  0  0  0
  4  6  1  0  0  0
  6  7  1  0  0  0
  7  8  1  0  0  0
  8  9  1  0  0  0
  9 10  1  0  0  0
 10 11  1  0  0  0
 11 12  1  0  0  0
 12 13  1  0  0  0
 13 14  1  0  0  0
 14 15  1  0  0  0
 15 16  1  0  0  0
 16 17  1  0  0  0
 17 18  1  0  0  0
 18 19  1  0  0  0
 19 20  2  0  0  0
 20 21  1  0  0  0
 21 22  1  0  0  0
 22 23  1  0  0  0
 23 24  1  0  0  0
 24 25  1  0  0  0
 25 26  1  0  0  0
 26 27  1  0  0  0
 27 28  1  0  0  0
 52 53  1  0  0  0
 53 54  1  0  0  0
 54 55  1  0  0  0
 55 56  1  0  0  0
 56 60  1  0  0  0
M  CHG 1  64  -1
M  END
> <minimizedAffinity>
-9.07307

> <CNNscore>
0.1270799488

> <CNNaffinity>
7.4276170731

> <CNN_VS>
0.9439011812

> <CNNaffinity_variance>
1.8178256750

$$$$
/media/chris/experiments/cd1a-new-docking/inputs/ligands/7ryn_ligand.pdb


 68 68  0  0  0  0  0  0  0  0999 V2000
  -40.9531   57.1334   63.9055 C   0  0  0  0  0  0  0  0  0  0  0  0
  -39.7717   57.6030   64.6232 N   0  0  0  0  0  0  0  0  0  0  0  0
  -40.5819   59.6499   65.0938 O   0  0  0  0  0  0  0  0  0  0  0  0
  -39.6778   58.8223   65.1605 C   0  0  0  0  0  0  0  0  0  0  0  0
  -39.0064   56.9907   64.7156 H   0  0  0  0  0  0  0  0  0  0  0  0
  -38.3815   59.1242   65.8704 C   0  0  0  0  0  0  0  0  0  0  0  0
  -38.0626   60.6135   65.8976 C   0  0  0  0  0  0  0  0  0  0  0  0
  -37.1032   61.0283   64.7938 C   0  0  0  0  0  0  0  0  0  0  0  0
  -35.6470   60.7131   65.0925 C   0  0  0  0  0  0  0  0  0  0  0  0
  -34.9077   61.8362   65.8041 C   0  0  0  0  0  0  0  0  0  0  0  0
  -33.7757   62.4476   64.9884 C   0  0  0  0  0  0  0  0  0  0  0  0
  -33.8743   63.9598   64.8330 C   0  0  0  0  0  0  0  0  0  0  0  0
  -35.1749   64.4483   64.2002 C   0  0  0  0  0  0  0  0  0  0  0  0
  -35.4787   63.8216   62.8403 C   0  0  0  0  0  0  0  0  0  0  0  0
  -35.0059   64.6425   61.6406 C   0  0  0  0  0  0  0  0  0  0  0  0
  -34.6719   66.0930   61.9890 C   0  0  0  0  0  0  0  0  0  0  0  0
  -33.2304   66.5124   61.7012 C   0  0  0  0  0  0  0  0  0  0  0  0
  -32.3462   65.4145   61.1039 C   0  0  0  0  0  0  0  0  0  0  0  0
  -31.3827   64.8356   62.0993 C   0  0  0  0  0  0  0  0  0  0  0  0
  -31.2237   63.5529   62.3736 C   0  0  0  0  0  0  0  0  0  0  0  0
  -31.9717   62.4172   61.7437 C   0  0  0  0  0  0  0  0  0  0  0  0
  -31.1172   61.1677   61.5199 C   0  0  0  0  0  0  0  0  0  0  0  0
  -31.2540   60.1374   62.6331 C   0  0  0  0  0  0  0  0  0  0  0  0
  -32.6879   59.6666   62.8488 C   0  0  0  0  0  0  0  0  0  0  0  0
  -33.1541   58.5942   61.8707 C   0  0  0  0  0  0  0  0  0  0  0  0
  -33.8126   57.3971   62.5418 C   0  0  0  0  0  0  0  0  0  0  0  0
  -35.2725   57.6136   62.9072 C   0  0  0  0  0  0  0  0  0  0  0  0
  -35.5757   57.2701   64.3515 C   0  0  0  0  0  0  0  0  0  0  0  0
  -41.7531   54.9412   64.5293 O   0  0  0  0  0  0  0  0  0  0  0  0
  -41.8454   56.3289   64.8643 C   0  0  0  0  0  0  0  0  0  0  0  0
  -40.8255   54.6601   64.5687 H   0  0  0  0  0  0  0  0  0  0  0  0
  -43.2670   56.7989   64.8137 C   0  0  0  0  0  0  0  0  0  0  0  0
  -43.8443   57.5657   65.7173 C   0  0  0  0  0  0  0  0  0  0  0  0
  -45.2611   58.0304   65.6307 C   0  0  0  0  0  0  0  0  0  0  0  0
  -45.7188   58.6502   66.9527 C   0  0  0  0  0  0  0  0  0  0  0  0
  -47.2243   58.8225   67.0717 C   0  0  0  0  0  0  0  0  0  0  0  0
  -48.0339   57.7710   66.3322 C   0  0  0  0  0  0  0  0  0  0  0  0
  -49.4453   58.2144   65.9756 C   0  0  0  0  0  0  0  0  0  0  0  0
  -49.4913   59.4354   65.0698 C   0  0  0  0  0  0  0  0  0  0  0  0
  -50.7820   59.5631   64.2801 C   0  0  0  0  0  0  0  0  0  0  0  0
  -50.8518   58.6637   63.0600 C   0  0  0  0  0  0  0  0  0  0  0  0
  -50.0408   59.1659   61.8778 C   0  0  0  0  0  0  0  0  0  0  0  0
  -49.4218   58.0450   61.0637 C   0  0  0  0  0  0  0  0  0  0  0  0
  -49.8527   58.0153   59.6098 C   0  0  0  0  0  0  0  0  0  0  0  0
  -48.7220   57.6334   58.6748 C   0  0  0  0  0  0  0  0  0  0  0  0
  -47.6167   56.8751   59.3801 C   0  0  0  0  0  0  0  0  0  0  0  0
  -40.5376   56.3194   62.6975 C   0  0  0  0  0  0  0  0  0  0  0  0
  -41.4512   56.5980   61.6306 O   0  0  0  0  0  0  0  0  0  0  0  0
  -42.9862   58.8478   62.2813 O   0  0  0  0  0  0  0  0  0  0  0  0
  -38.9562   60.3181   61.9356 O   0  0  0  0  0  0  0  0  0  0  0  0
  -39.8714   57.9351   60.6085 O   0  0  0  0  0  0  0  0  0  0  0  0
  -41.2302   57.8194   60.9876 C   0  0  0  0  0  0  0  0  0  0  0  0
  -41.6052   58.9357   61.9536 C   0  0  0  0  0  0  0  0  0  0  0  0
  -41.2975   60.2891   61.3255 C   0  0  0  0  0  0  0  0  0  0  0  0
  -39.8586   60.3493   60.8346 C   0  0  0  0  0  0  0  0  0  0  0  0
  -39.5794   59.1606   59.9182 C   0  0  0  0  0  0  0  0  0  0  0  0
  -43.1695   57.9827   62.6799 H   0  0  0  0  0  0  0  0  0  0  0  0
  -39.1319   61.0727   62.5192 H   0  0  0  0  0  0  0  0  0  0  0  0
  -37.3115   58.5024   60.4769 O   0  0  0  0  0  0  0  0  0  0  0  0
  -38.1382   59.0791   59.4725 C   0  0  0  0  0  0  0  0  0  0  0  0
  -36.3956   58.4649   60.1597 H   0  0  0  0  0  0  0  0  0  0  0  0
  -41.4832   61.2512   62.4115 O   0  0  0  0  0  0  0  0  0  0  0  0
  -43.7827   61.3029   63.1304 O   0  0  0  0  0  0  0  0  0  0  0  0
  -43.0181   62.7061   61.1908 O   0  0  0  0  0  0  0  0  0  0  0  0
  -42.3884   63.2074   63.4244 O   0  0  0  0  0  0  0  0  0  0  0  0
  -42.8264   62.0984   62.4537 S   0  0  0  0  0  0  0  0  0  0  0  0
  -44.0824   60.5898   62.5452 H   0  0  0  0  0  0  0  0  0  0  0  0
  -42.2463   62.8282   64.3058 H   0  0  0  0  0  0  0  0  0  0  0  0
  2  1  1  0  0  0
  2  4  1  0  0  0
  2  5  1  0  0  0
 47 48  1  0  0  0
 47  1  1  0  0  0
 48 52  1  0  0  0
  1 30  1  0  0  0
 29 30  1  0  0  0
 29 31  1  0  0  0
 30 32  1  0  0  0
  3  4  2  0  0  0
 32 33  2  0  0  0
 49 53  1  0  0  0
 49 57  1  0  0  0
 33 34  1  0  0  0
 62 54  1  0  0  0
 62 66  1  0  0  0
 34 35  1  0  0  0
 50 55  1  0  0  0
 50 58  1  0  0  0
 35 36  1  0  0  0
 51 52  1  0  0  0
 51 56  1  0  0  0
 36 37  1  0  0  0
 59 60  1  0  0  0
 59 61  1  0  0  0
 37 38  1  0  0  0
 63 66  1  0  0  0
 63 67  1  0  0  0
 38 39  1  0  0  0
 64 66  1  0  0  0
 39 40  1  0  0  0
 65 66  1  0  0  0
 65 68  1  0  0  0
 40 41  1  0  0  0
 41 42  1  0  0  0
 42 43  1  0  0  0
 43 44  1  0  0  0
 44 45  1  0  0  0
 45 46  1  0  0  0
  4  6  1  0  0  0
  6  7  1  0  0  0
  7  8  1  0  0  0
  8  9  1  0  0  0
  9 10  1  0  0  0
 10 11  1  0  0  0
 11 12  1  0  0  0
 12 13  1  0  0  0
 13 14  1  0  0  0
 14 15  1  0  0  0
 15 16  1  0  0  0
 16 17  1  0  0  0
 17 18  1  0  0  0
 18 19  1  0  0  0
 19 20  2  0  0  0
 20 21  1  0  0  0
 21 22  1  0  0  0
 22 23  1  0  0  0
 23 24  1  0  0  0
 24 25  1  0  0  0
 25 26  1  0  0  0
 26 27  1  0  0  0
 27 28  1  0  0  0
 52 53  1  0  0  0
 53 54  1  0  0  0
 54 55  1  0  0  0
 55 56  1  0  0  0
 56 60  1  0  0  0
M  CHG 1  64  -1
M  END
> <minimizedAffinity>
-8.55582

> <CNNscore>
0.1216453463

> <CNNaffinity>
6.9521102905

> <CNN_VS>
0.8456918597

> <CNNaffinity_variance>
2.2164263725

$$$$
/media/chris/experiments/cd1a-new-docking/inputs/ligands/7ryn_ligand.pdb


 68 68  0  0  0  0  0  0  0  0999 V2000
  -36.3050   59.4349   63.3097 C   0  0  0  0  0  0  0  0  0  0  0  0
  -36.9778   59.5440   64.6006 N   0  0  0  0  0  0  0  0  0  0  0  0
  -38.5701   60.9797   63.9143 O   0  0  0  0  0  0  0  0  0  0  0  0
  -38.0559   60.3063   64.8026 C   0  0  0  0  0  0  0  0  0  0  0  0
  -36.6191   59.0303   65.3600 H   0  0  0  0  0  0  0  0  0  0  0  0
  -38.6168   60.2852   66.2027 C   0  0  0  0  0  0  0  0  0  0  0  0
  -39.9369   59.5303   66.2926 C   0  0  0  0  0  0  0  0  0  0  0  0
  -41.1410   60.4573   66.3350 C   0  0  0  0  0  0  0  0  0  0  0  0
  -42.3654   59.8470   66.9966 C   0  0  0  0  0  0  0  0  0  0  0  0
  -42.4466   58.3337   66.8638 C   0  0  0  0  0  0  0  0  0  0  0  0
  -43.8275   57.8184   66.4790 C   0  0  0  0  0  0  0  0  0  0  0  0
  -44.9305   58.8624   66.5973 C   0  0  0  0  0  0  0  0  0  0  0  0
  -46.1994   58.3681   67.2874 C   0  0  0  0  0  0  0  0  0  0  0  0
  -46.8995   57.2235   66.5564 C   0  0  0  0  0  0  0  0  0  0  0  0
  -48.2962   57.5605   66.0347 C   0  0  0  0  0  0  0  0  0  0  0  0
  -48.3041   58.0443   64.5845 C   0  0  0  0  0  0  0  0  0  0  0  0
  -47.9436   59.5171   64.3915 C   0  0  0  0  0  0  0  0  0  0  0  0
  -49.1339   60.4436   64.1292 C   0  0  0  0  0  0  0  0  0  0  0  0
  -50.3357   59.7142   63.6021 C   0  0  0  0  0  0  0  0  0  0  0  0
  -50.6144   59.4900   62.3301 C   0  0  0  0  0  0  0  0  0  0  0  0
  -49.7846   59.9167   61.1573 C   0  0  0  0  0  0  0  0  0  0  0  0
  -49.4012   58.7658   60.2247 C   0  0  0  0  0  0  0  0  0  0  0  0
  -50.0449   57.4399   60.6082 C   0  0  0  0  0  0  0  0  0  0  0  0
  -49.1880   56.2282   60.2594 C   0  0  0  0  0  0  0  0  0  0  0  0
  -47.8578   56.5657   59.5956 C   0  0  0  0  0  0  0  0  0  0  0  0
  -47.7338   56.0436   58.1711 C   0  0  0  0  0  0  0  0  0  0  0  0
  -47.9707   57.0960   57.0997 C   0  0  0  0  0  0  0  0  0  0  0  0
  -46.9778   58.2386   57.1661 C   0  0  0  0  0  0  0  0  0  0  0  0
  -35.3986   57.3129   62.5953 O   0  0  0  0  0  0  0  0  0  0  0  0
  -36.6131   58.0629   62.6888 C   0  0  0  0  0  0  0  0  0  0  0  0
  -34.9977   57.2356   63.4752 H   0  0  0  0  0  0  0  0  0  0  0  0
  -37.2614   58.2027   61.3455 C   0  0  0  0  0  0  0  0  0  0  0  0
  -38.2656   59.0108   61.0691 C   0  0  0  0  0  0  0  0  0  0  0  0
  -38.8811   59.1386   59.7142 C   0  0  0  0  0  0  0  0  0  0  0  0
  -40.1767   58.3302   59.6199 C   0  0  0  0  0  0  0  0  0  0  0  0
  -41.4354   59.1357   59.8983 C   0  0  0  0  0  0  0  0  0  0  0  0
  -41.1855   60.6073   60.1808 C   0  0  0  0  0  0  0  0  0  0  0  0
  -42.2462   61.2580   61.0568 C   0  0  0  0  0  0  0  0  0  0  0  0
  -41.9789   61.1152   62.5473 C   0  0  0  0  0  0  0  0  0  0  0  0
  -42.9304   60.1639   63.2513 C   0  0  0  0  0  0  0  0  0  0  0  0
  -42.4749   58.7165   63.2445 C   0  0  0  0  0  0  0  0  0  0  0  0
  -40.9655   58.5462   63.2639 C   0  0  0  0  0  0  0  0  0  0  0  0
  -40.5273   57.1986   63.8064 C   0  0  0  0  0  0  0  0  0  0  0  0
  -41.6245   56.1522   63.8452 C   0  0  0  0  0  0  0  0  0  0  0  0
  -41.4726   55.1079   62.7567 C   0  0  0  0  0  0  0  0  0  0  0  0
  -41.5149   55.7082   61.3667 C   0  0  0  0  0  0  0  0  0  0  0  0
  -34.8168   59.6613   63.4787 C   0  0  0  0  0  0  0  0  0  0  0  0
  -34.5345   59.7749   64.8780 O   0  0  0  0  0  0  0  0  0  0  0  0
  -32.5787   61.1273   63.3992 O   0  0  0  0  0  0  0  0  0  0  0  0
  -35.4917   64.1347   64.3954 O   0  0  0  0  0  0  0  0  0  0  0  0
  -35.1283   61.7356   65.9414 O   0  0  0  0  0  0  0  0  0  0  0  0
  -34.0913   61.0398   65.2751 C   0  0  0  0  0  0  0  0  0  0  0  0
  -33.6610   61.8017   64.0285 C   0  0  0  0  0  0  0  0  0  0  0  0
  -33.2515   63.2201   64.4041 C   0  0  0  0  0  0  0  0  0  0  0  0
  -34.3441   63.9097   65.2078 C   0  0  0  0  0  0  0  0  0  0  0  0
  -34.7314   63.0380   66.3998 C   0  0  0  0  0  0  0  0  0  0  0  0
  -32.8514   60.2263   63.1651 H   0  0  0  0  0  0  0  0  0  0  0  0
  -35.2477   64.6885   63.6374 H   0  0  0  0  0  0  0  0  0  0  0  0
  -37.1104   63.5126   66.4634 O   0  0  0  0  0  0  0  0  0  0  0  0
  -35.8909   63.5952   67.1920 C   0  0  0  0  0  0  0  0  0  0  0  0
  -37.8323   63.8775   66.9988 H   0  0  0  0  0  0  0  0  0  0  0  0
  -33.0804   63.9067   63.1239 O   0  0  0  0  0  0  0  0  0  0  0  0
  -31.7874   65.6867   62.1406 O   0  0  0  0  0  0  0  0  0  0  0  0
  -30.9297   63.3246   62.1248 O   0  0  0  0  0  0  0  0  0  0  0  0
  -31.0336   64.6058   64.1208 O   0  0  0  0  0  0  0  0  0  0  0  0
  -31.6274   64.4032   62.7171 S   0  0  0  0  0  0  0  0  0  0  0  0
  -32.1617   65.5968   61.2502 H   0  0  0  0  0  0  0  0  0  0  0  0
  -31.4883   65.3408   64.5612 H   0  0  0  0  0  0  0  0  0  0  0  0
  2  1  1  0  0  0
  2  4  1  0  0  0
  2  5  1  0  0  0
 47 48  1  0  0  0
 47  1  1  0  0  0
 48 52  1  0  0  0
  1 30  1  0  0  0
 29 30  1  0  0  0
 29 31  1  0  0  0
 30 32  1  0  0  0
  3  4  2  0  0  0
 32 33  2  0  0  0
 49 53  1  0  0  0
 49 57  1  0  0  0
 33 34  1  0  0  0
 62 54  1  0  0  0
 62 66  1  0  0  0
 34 35  1  0  0  0
 50 55  1  0  0  0
 50 58  1  0  0  0
 35 36  1  0  0  0
 51 52  1  0  0  0
 51 56  1  0  0  0
 36 37  1  0  0  0
 59 60  1  0  0  0
 59 61  1  0  0  0
 37 38  1  0  0  0
 63 66  1  0  0  0
 63 67  1  0  0  0
 38 39  1  0  0  0
 64 66  1  0  0  0
 39 40  1  0  0  0
 65 66  1  0  0  0
 65 68  1  0  0  0
 40 41  1  0  0  0
 41 42  1  0  0  0
 42 43  1  0  0  0
 43 44  1  0  0  0
 44 45  1  0  0  0
 45 46  1  0  0  0
  4  6  1  0  0  0
  6  7  1  0  0  0
  7  8  1  0  0  0
  8  9  1  0  0  0
  9 10  1  0  0  0
 10 11  1  0  0  0
 11 12  1  0  0  0
 12 13  1  0  0  0
 13 14  1  0  0  0
 14 15  1  0  0  0
 15 16  1  0  0  0
 16 17  1  0  0  0
 17 18  1  0  0  0
 18 19  1  0  0  0
 19 20  2  0  0  0
 20 21  1  0  0  0
 21 22  1  0  0  0
 22 23  1  0  0  0
 23 24  1  0  0  0
 24 25  1  0  0  0
 25 26  1  0  0  0
 26 27  1  0  0  0
 27 28  1  0  0  0
 52 53  1  0  0  0
 53 54  1  0  0  0
 54 55  1  0  0  0
 55 56  1  0  0  0
 56 60  1  0  0  0
M  CHG 1  64  -1
M  END
> <minimizedAffinity>
-9.09453

> <CNNscore>
0.1126742959

> <CNNaffinity>
7.4750571251

> <CNN_VS>
0.8422467709

> <CNNaffinity_variance>
1.9064353704

$$$$
/media/chris/experiments/cd1a-new-docking/inputs/ligands/7ryn_ligand.pdb


 68 68  0  0  0  0  0  0  0  0999 V2000
  -38.9432   60.0639   61.0040 C   0  0  0  0  0  0  0  0  0  0  0  0
  -39.9676   59.0464   61.2200 N   0  0  0  0  0  0  0  0  0  0  0  0
  -41.6646   60.2307   60.3338 O   0  0  0  0  0  0  0  0  0  0  0  0
  -41.2462   59.2082   60.8690 C   0  0  0  0  0  0  0  0  0  0  0  0
  -39.7029   58.1990   61.6454 H   0  0  0  0  0  0  0  0  0  0  0  0
  -42.1566   58.0426   61.1655 C   0  0  0  0  0  0  0  0  0  0  0  0
  -41.4207   56.8748   61.8099 C   0  0  0  0  0  0  0  0  0  0  0  0
  -41.9635   56.5272   63.1867 C   0  0  0  0  0  0  0  0  0  0  0  0
  -40.9791   56.7744   64.3176 C   0  0  0  0  0  0  0  0  0  0  0  0
  -40.9365   58.2195   64.7915 C   0  0  0  0  0  0  0  0  0  0  0  0
  -41.6677   58.4627   66.1054 C   0  0  0  0  0  0  0  0  0  0  0  0
  -43.1170   58.8991   65.9333 C   0  0  0  0  0  0  0  0  0  0  0  0
  -44.1469   57.8266   66.2791 C   0  0  0  0  0  0  0  0  0  0  0  0
  -45.5940   58.3145   66.2285 C   0  0  0  0  0  0  0  0  0  0  0  0
  -46.1116   58.6287   64.8250 C   0  0  0  0  0  0  0  0  0  0  0  0
  -47.5872   59.0270   64.7952 C   0  0  0  0  0  0  0  0  0  0  0  0
  -48.4495   58.3989   65.8900 C   0  0  0  0  0  0  0  0  0  0  0  0
  -49.9185   58.1889   65.5131 C   0  0  0  0  0  0  0  0  0  0  0  0
  -50.6853   59.4761   65.4152 C   0  0  0  0  0  0  0  0  0  0  0  0
  -51.1778   60.0068   64.3100 C   0  0  0  0  0  0  0  0  0  0  0  0
  -51.0724   59.4285   62.9313 C   0  0  0  0  0  0  0  0  0  0  0  0
  -50.0218   60.1148   62.0557 C   0  0  0  0  0  0  0  0  0  0  0  0
  -49.5940   59.2756   60.8590 C   0  0  0  0  0  0  0  0  0  0  0  0
  -49.0220   57.9167   61.2467 C   0  0  0  0  0  0  0  0  0  0  0  0
  -48.6503   57.0279   60.0651 C   0  0  0  0  0  0  0  0  0  0  0  0
  -49.1770   57.5325   58.7291 C   0  0  0  0  0  0  0  0  0  0  0  0
  -48.3223   57.1393   57.5346 C   0  0  0  0  0  0  0  0  0  0  0  0
  -46.9395   57.7579   57.5703 C   0  0  0  0  0  0  0  0  0  0  0  0
  -37.7464   58.8827   59.2698 O   0  0  0  0  0  0  0  0  0  0  0  0
  -37.6245   59.3825   60.6046 C   0  0  0  0  0  0  0  0  0  0  0  0
  -37.9790   59.6104   58.6720 H   0  0  0  0  0  0  0  0  0  0  0  0
  -37.2652   58.2837   61.5574 C   0  0  0  0  0  0  0  0  0  0  0  0
  -36.1663   58.2402   62.2845 C   0  0  0  0  0  0  0  0  0  0  0  0
  -35.8435   57.1368   63.2379 C   0  0  0  0  0  0  0  0  0  0  0  0
  -34.9628   57.6396   64.3837 C   0  0  0  0  0  0  0  0  0  0  0  0
  -34.1990   58.9154   64.0687 C   0  0  0  0  0  0  0  0  0  0  0  0
  -32.8033   58.6871   63.5139 C   0  0  0  0  0  0  0  0  0  0  0  0
  -32.4528   59.5810   62.3333 C   0  0  0  0  0  0  0  0  0  0  0  0
  -31.1053   60.2730   62.4701 C   0  0  0  0  0  0  0  0  0  0  0  0
  -30.9347   61.4680   61.5488 C   0  0  0  0  0  0  0  0  0  0  0  0
  -31.1344   62.8083   62.2315 C   0  0  0  0  0  0  0  0  0  0  0  0
  -31.6530   63.8979   61.3087 C   0  0  0  0  0  0  0  0  0  0  0  0
  -32.0246   65.1718   62.0446 C   0  0  0  0  0  0  0  0  0  0  0  0
  -33.0559   66.0273   61.3341 C   0  0  0  0  0  0  0  0  0  0  0  0
  -34.1269   66.5483   62.2723 C   0  0  0  0  0  0  0  0  0  0  0  0
  -35.5225   66.3886   61.7057 C   0  0  0  0  0  0  0  0  0  0  0  0
  -38.7890   60.9175   62.2457 C   0  0  0  0  0  0  0  0  0  0  0  0
  -37.4983   61.5369   62.2091 O   0  0  0  0  0  0  0  0  0  0  0  0
  -35.1366   62.9959   62.5764 O   0  0  0  0  0  0  0  0  0  0  0  0
  -37.2302   63.3147   66.3231 O   0  0  0  0  0  0  0  0  0  0  0  0
  -37.6441   61.1453   64.4792 O   0  0  0  0  0  0  0  0  0  0  0  0
  -36.7737   61.4284   63.3996 C   0  0  0  0  0  0  0  0  0  0  0  0
  -36.0532   62.7494   63.6354 C   0  0  0  0  0  0  0  0  0  0  0  0
  -35.3186   62.7077   64.9694 C   0  0  0  0  0  0  0  0  0  0  0  0
  -36.2560   62.3010   66.0969 C   0  0  0  0  0  0  0  0  0  0  0  0
  -36.9594   60.9958   65.7333 C   0  0  0  0  0  0  0  0  0  0  0  0
  -35.6156   63.0201   61.7332 H   0  0  0  0  0  0  0  0  0  0  0  0
  -36.7851   64.1450   66.5544 H   0  0  0  0  0  0  0  0  0  0  0  0
  -39.2891   61.0588   66.4094 O   0  0  0  0  0  0  0  0  0  0  0  0
  -37.9949   60.5752   66.7498 C   0  0  0  0  0  0  0  0  0  0  0  0
  -39.9283   60.7719   67.0803 H   0  0  0  0  0  0  0  0  0  0  0  0
  -34.8642   64.0813   65.1841 O   0  0  0  0  0  0  0  0  0  0  0  0
  -33.0331   65.6087   65.5324 O   0  0  0  0  0  0  0  0  0  0  0  0
  -32.7009   63.1323   65.8025 O   0  0  0  0  0  0  0  0  0  0  0  0
  -33.9589   64.4047   67.3630 O   0  0  0  0  0  0  0  0  0  0  0  0
  -33.4697   64.3151   65.9081 S   0  0  0  0  0  0  0  0  0  0  0  0
  -32.7162   65.5894   64.6158 H   0  0  0  0  0  0  0  0  0  0  0  0
  -34.4925   65.2068   67.4758 H   0  0  0  0  0  0  0  0  0  0  0  0
  2  1  1  0  0  0
  2  4  1  0  0  0
  2  5  1  0  0  0
 47 48  1  0  0  0
 47  1  1  0  0  0
 48 52  1  0  0  0
  1 30  1  0  0  0
 29 30  1  0  0  0
 29 31  1  0  0  0
 30 32  1  0  0  0
  3  4  2  0  0  0
 32 33  2  0  0  0
 49 53  1  0  0  0
 49 57  1  0  0  0
 33 34  1  0  0  0
 62 54  1  0  0  0
 62 66  1  0  0  0
 34 35  1  0  0  0
 50 55  1  0  0  0
 50 58  1  0  0  0
 35 36  1  0  0  0
 51 52  1  0  0  0
 51 56  1  0  0  0
 36 37  1  0  0  0
 59 60  1  0  0  0
 59 61  1  0  0  0
 37 38  1  0  0  0
 63 66  1  0  0  0
 63 67  1  0  0  0
 38 39  1  0  0  0
 64 66  1  0  0  0
 39 40  1  0  0  0
 65 66  1  0  0  0
 65 68  1  0  0  0
 40 41  1  0  0  0
 41 42  1  0  0  0
 42 43  1  0  0  0
 43 44  1  0  0  0
 44 45  1  0  0  0
 45 46  1  0  0  0
  4  6  1  0  0  0
  6  7  1  0  0  0
  7  8  1  0  0  0
  8  9  1  0  0  0
  9 10  1  0  0  0
 10 11  1  0  0  0
 11 12  1  0  0  0
 12 13  1  0  0  0
 13 14  1  0  0  0
 14 15  1  0  0  0
 15 16  1  0  0  0
 16 17  1  0  0  0
 17 18  1  0  0  0
 18 19  1  0  0  0
 19 20  2  0  0  0
 20 21  1  0  0  0
 21 22  1  0  0  0
 22 23  1  0  0  0
 23 24  1  0  0  0
 24 25  1  0  0  0
 25 26  1  0  0  0
 26 27  1  0  0  0
 27 28  1  0  0  0
 52 53  1  0  0  0
 53 54  1  0  0  0
 54 55  1  0  0  0
 55 56  1  0  0  0
 56 60  1  0  0  0
M  CHG 1  64  -1
M  END
> <minimizedAffinity>
-9.05327

> <CNNscore>
0.1080097705

> <CNNaffinity>
7.1330728531

> <CNN_VS>
0.7704415321

> <CNNaffinity_variance>
1.4983007908

$$$$
/media/chris/experiments/cd1a-new-docking/inputs/ligands/7ryn_ligand.pdb


 68 68  0  0  0  0  0  0  0  0999 V2000
  -39.4056   59.5003   64.1656 C   0  0  0  0  0  0  0  0  0  0  0  0
  -40.1623   59.9542   65.3286 N   0  0  0  0  0  0  0  0  0  0  0  0
  -41.7602   61.0296   64.1631 O   0  0  0  0  0  0  0  0  0  0  0  0
  -41.2786   60.6822   65.2375 C   0  0  0  0  0  0  0  0  0  0  0  0
  -39.8336   59.7118   66.2243 H   0  0  0  0  0  0  0  0  0  0  0  0
  -41.9258   61.0509   66.5492 C   0  0  0  0  0  0  0  0  0  0  0  0
  -42.1259   59.8473   67.4613 C   0  0  0  0  0  0  0  0  0  0  0  0
  -43.2891   58.9697   67.0278 C   0  0  0  0  0  0  0  0  0  0  0  0
  -42.8699   57.6091   66.4965 C   0  0  0  0  0  0  0  0  0  0  0  0
  -43.4786   57.2615   65.1463 C   0  0  0  0  0  0  0  0  0  0  0  0
  -44.1801   58.4287   64.4636 C   0  0  0  0  0  0  0  0  0  0  0  0
  -45.6977   58.3017   64.4291 C   0  0  0  0  0  0  0  0  0  0  0  0
  -46.2935   57.5069   65.5884 C   0  0  0  0  0  0  0  0  0  0  0  0
  -47.7872   57.7457   65.8036 C   0  0  0  0  0  0  0  0  0  0  0  0
  -48.1186   58.9249   66.7181 C   0  0  0  0  0  0  0  0  0  0  0  0
  -48.9720   59.9983   66.0424 C   0  0  0  0  0  0  0  0  0  0  0  0
  -48.4117   60.5372   64.7263 C   0  0  0  0  0  0  0  0  0  0  0  0
  -49.4432   60.7075   63.6077 C   0  0  0  0  0  0  0  0  0  0  0  0
  -50.6782   59.8811   63.8224 C   0  0  0  0  0  0  0  0  0  0  0  0
  -50.9590   58.7329   63.2319 C   0  0  0  0  0  0  0  0  0  0  0  0
  -50.0991   58.0229   62.2306 C   0  0  0  0  0  0  0  0  0  0  0  0
  -50.8472   57.6096   60.9614 C   0  0  0  0  0  0  0  0  0  0  0  0
  -49.9554   57.5536   59.7281 C   0  0  0  0  0  0  0  0  0  0  0  0
  -48.4766   57.7510   60.0414 C   0  0  0  0  0  0  0  0  0  0  0  0
  -47.5438   56.7858   59.3186 C   0  0  0  0  0  0  0  0  0  0  0  0
  -48.0760   56.3102   57.9741 C   0  0  0  0  0  0  0  0  0  0  0  0
  -47.9018   57.3141   56.8455 C   0  0  0  0  0  0  0  0  0  0  0  0
  -46.6083   58.0966   56.9472 C   0  0  0  0  0  0  0  0  0  0  0  0
  -39.5055   57.5169   65.5407 O   0  0  0  0  0  0  0  0  0  0  0  0
  -38.7843   58.1268   64.4664 C   0  0  0  0  0  0  0  0  0  0  0  0
  -40.4439   57.4511   65.3040 H   0  0  0  0  0  0  0  0  0  0  0  0
  -37.3281   58.2451   64.7975 C   0  0  0  0  0  0  0  0  0  0  0  0
  -36.4612   57.2523   64.7684 C   0  0  0  0  0  0  0  0  0  0  0  0
  -35.0107   57.4055   65.0899 C   0  0  0  0  0  0  0  0  0  0  0  0
  -34.2731   58.1399   63.9684 C   0  0  0  0  0  0  0  0  0  0  0  0
  -34.3840   57.4716   62.6077 C   0  0  0  0  0  0  0  0  0  0  0  0
  -35.1388   58.2865   61.5713 C   0  0  0  0  0  0  0  0  0  0  0  0
  -36.6103   57.9190   61.4468 C   0  0  0  0  0  0  0  0  0  0  0  0
  -37.3427   58.6907   60.3599 C   0  0  0  0  0  0  0  0  0  0  0  0
  -38.8548   58.5777   60.4423 C   0  0  0  0  0  0  0  0  0  0  0  0
  -39.5824   59.9012   60.2971 C   0  0  0  0  0  0  0  0  0  0  0  0
  -41.0909   59.7934   60.4407 C   0  0  0  0  0  0  0  0  0  0  0  0
  -41.6154   58.3974   60.1605 C   0  0  0  0  0  0  0  0  0  0  0  0
  -42.1500   57.6726   61.3808 C   0  0  0  0  0  0  0  0  0  0  0  0
  -41.7341   56.2152   61.4214 C   0  0  0  0  0  0  0  0  0  0  0  0
  -41.0329   55.8475   62.7127 C   0  0  0  0  0  0  0  0  0  0  0  0
  -38.3580   60.5291   63.7936 C   0  0  0  0  0  0  0  0  0  0  0  0
  -38.0219   61.2752   64.9688 O   0  0  0  0  0  0  0  0  0  0  0  0
  -36.2769   60.9503   62.8031 O   0  0  0  0  0  0  0  0  0  0  0  0
  -35.0653   64.6396   64.6587 O   0  0  0  0  0  0  0  0  0  0  0  0
  -36.4548   62.5575   66.0770 O   0  0  0  0  0  0  0  0  0  0  0  0
  -36.6575   61.5451   65.1088 C   0  0  0  0  0  0  0  0  0  0  0  0
  -36.1245   61.9958   63.7550 C   0  0  0  0  0  0  0  0  0  0  0  0
  -34.6571   62.3853   63.8797 C   0  0  0  0  0  0  0  0  0  0  0  0
  -34.4538   63.3988   64.9964 C   0  0  0  0  0  0  0  0  0  0  0  0
  -35.0682   62.8675   66.2890 C   0  0  0  0  0  0  0  0  0  0  0  0
  -37.2144   60.7112   62.7326 H   0  0  0  0  0  0  0  0  0  0  0  0
  -34.6761   64.9789   63.8375 H   0  0  0  0  0  0  0  0  0  0  0  0
  -36.2093   63.8472   68.1934 O   0  0  0  0  0  0  0  0  0  0  0  0
  -35.0107   63.8601   67.4266 C   0  0  0  0  0  0  0  0  0  0  0  0
  -36.1395   64.4937   68.9133 H   0  0  0  0  0  0  0  0  0  0  0  0
  -34.3280   63.0023   62.5950 O   0  0  0  0  0  0  0  0  0  0  0  0
  -32.2899   61.9141   61.9103 O   0  0  0  0  0  0  0  0  0  0  0  0
  -32.2185   64.1072   63.1353 O   0  0  0  0  0  0  0  0  0  0  0  0
  -32.9664   63.9521   60.8874 O   0  0  0  0  0  0  0  0  0  0  0  0
  -32.7976   63.1998   62.2176 S   0  0  0  0  0  0  0  0  0  0  0  0
  -32.1705   61.4093   62.7299 H   0  0  0  0  0  0  0  0  0  0  0  0
  -33.3627   63.3600   60.2291 H   0  0  0  0  0  0  0  0  0  0  0  0
  2  1  1  0  0  0
  2  4  1  0  0  0
  2  5  1  0  0  0
 47 48  1  0  0  0
 47  1  1  0  0  0
 48 52  1  0  0  0
  1 30  1  0  0  0
 29 30  1  0  0  0
 29 31  1  0  0  0
 30 32  1  0  0  0
  3  4  2  0  0  0
 32 33  2  0  0  0
 49 53  1  0  0  0
 49 57  1  0  0  0
 33 34  1  0  0  0
 62 54  1  0  0  0
 62 66  1  0  0  0
 34 35  1  0  0  0
 50 55  1  0  0  0
 50 58  1  0  0  0
 35 36  1  0  0  0
 51 52  1  0  0  0
 51 56  1  0  0  0
 36 37  1  0  0  0
 59 60  1  0  0  0
 59 61  1  0  0  0
 37 38  1  0  0  0
 63 66  1  0  0  0
 63 67  1  0  0  0
 38 39  1  0  0  0
 64 66  1  0  0  0
 39 40  1  0  0  0
 65 66  1  0  0  0
 65 68  1  0  0  0
 40 41  1  0  0  0
 41 42  1  0  0  0
 42 43  1  0  0  0
 43 44  1  0  0  0
 44 45  1  0  0  0
 45 46  1  0  0  0
  4  6  1  0  0  0
  6  7  1  0  0  0
  7  8  1  0  0  0
  8  9  1  0  0  0
  9 10  1  0  0  0
 10 11  1  0  0  0
 11 12  1  0  0  0
 12 13  1  0  0  0
 13 14  1  0  0  0
 14 15  1  0  0  0
 15 16  1  0  0  0
 16 17  1  0  0  0
 17 18  1  0  0  0
 18 19  1  0  0  0
 19 20  2  0  0  0
 20 21  1  0  0  0
 21 22  1  0  0  0
 22 23  1  0  0  0
 23 24  1  0  0  0
 24 25  1  0  0  0
 25 26  1  0  0  0
 26 27  1  0  0  0
 27 28  1  0  0  0
 52 53  1  0  0  0
 53 54  1  0  0  0
 54 55  1  0  0  0
 55 56  1  0  0  0
 56 60  1  0  0  0
M  CHG 1  64  -1
M  END
> <minimizedAffinity>
-9.05431

> <CNNscore>
0.0990456343

> <CNNaffinity>
7.3024873734

> <CNN_VS>
0.7232794762

> <CNNaffinity_variance>
2.0696356297

$$$$
/media/chris/experiments/cd1a-new-docking/inputs/ligands/7ryn_ligand.pdb


 68 68  0  0  0  0  0  0  0  0999 V2000
  -38.8366   59.8010   61.3855 C   0  0  0  0  0  0  0  0  0  0  0  0
  -39.5859   58.6234   61.8133 N   0  0  0  0  0  0  0  0  0  0  0  0
  -40.5638   58.2324   59.8237 O   0  0  0  0  0  0  0  0  0  0  0  0
  -40.3898   57.9318   61.0011 C   0  0  0  0  0  0  0  0  0  0  0  0
  -39.4942   58.3242   62.7467 H   0  0  0  0  0  0  0  0  0  0  0  0
  -41.0744   56.7394   61.6213 C   0  0  0  0  0  0  0  0  0  0  0  0
  -40.8714   56.6672   63.1293 C   0  0  0  0  0  0  0  0  0  0  0  0
  -41.9058   55.7927   63.8194 C   0  0  0  0  0  0  0  0  0  0  0  0
  -42.9309   56.5712   64.6269 C   0  0  0  0  0  0  0  0  0  0  0  0
  -43.4496   57.8174   63.9250 C   0  0  0  0  0  0  0  0  0  0  0  0
  -44.6862   58.4252   64.5745 C   0  0  0  0  0  0  0  0  0  0  0  0
  -44.6508   58.4162   66.0973 C   0  0  0  0  0  0  0  0  0  0  0  0
  -45.9827   58.7510   66.7641 C   0  0  0  0  0  0  0  0  0  0  0  0
  -46.7099   57.5389   67.3443 C   0  0  0  0  0  0  0  0  0  0  0  0
  -47.5471   56.7545   66.3342 C   0  0  0  0  0  0  0  0  0  0  0  0
  -48.2807   57.6439   65.3302 C   0  0  0  0  0  0  0  0  0  0  0  0
  -49.4039   58.4963   65.9204 C   0  0  0  0  0  0  0  0  0  0  0  0
  -49.3250   59.9884   65.5862 C   0  0  0  0  0  0  0  0  0  0  0  0
  -48.9242   60.2467   64.1625 C   0  0  0  0  0  0  0  0  0  0  0  0
  -49.6276   59.9381   63.0874 C   0  0  0  0  0  0  0  0  0  0  0  0
  -50.9692   59.2703   63.0732 C   0  0  0  0  0  0  0  0  0  0  0  0
  -51.0960   58.1683   62.0192 C   0  0  0  0  0  0  0  0  0  0  0  0
  -49.9459   58.1546   61.0210 C   0  0  0  0  0  0  0  0  0  0  0  0
  -49.5261   56.7505   60.6010 C   0  0  0  0  0  0  0  0  0  0  0  0
  -48.7546   56.6886   59.2876 C   0  0  0  0  0  0  0  0  0  0  0  0
  -48.1662   58.0254   58.8588 C   0  0  0  0  0  0  0  0  0  0  0  0
  -47.4131   57.9792   57.5388 C   0  0  0  0  0  0  0  0  0  0  0  0
  -47.0453   56.5705   57.1191 C   0  0  0  0  0  0  0  0  0  0  0  0
  -37.9061   58.9743   59.3154 O   0  0  0  0  0  0  0  0  0  0  0  0
  -37.5623   59.3549   60.6508 C   0  0  0  0  0  0  0  0  0  0  0  0
  -38.3453   59.7161   58.8707 H   0  0  0  0  0  0  0  0  0  0  0  0
  -36.8805   58.2312   61.3696 C   0  0  0  0  0  0  0  0  0  0  0  0
  -35.8124   58.3565   62.1320 C   0  0  0  0  0  0  0  0  0  0  0  0
  -35.1640   57.2175   62.8483 C   0  0  0  0  0  0  0  0  0  0  0  0
  -35.4924   57.2486   64.3424 C   0  0  0  0  0  0  0  0  0  0  0  0
  -36.4751   58.3373   64.7418 C   0  0  0  0  0  0  0  0  0  0  0  0
  -37.8571   57.8263   65.1116 C   0  0  0  0  0  0  0  0  0  0  0  0
  -38.7324   58.8581   65.8083 C   0  0  0  0  0  0  0  0  0  0  0  0
  -40.1912   58.8099   65.3807 C   0  0  0  0  0  0  0  0  0  0  0  0
  -41.1354   59.5024   66.3475 C   0  0  0  0  0  0  0  0  0  0  0  0
  -41.6474   60.8441   65.8575 C   0  0  0  0  0  0  0  0  0  0  0  0
  -41.5658   61.0211   64.3510 C   0  0  0  0  0  0  0  0  0  0  0  0
  -42.3231   62.2387   63.8546 C   0  0  0  0  0  0  0  0  0  0  0  0
  -42.9184   62.0837   62.4683 C   0  0  0  0  0  0  0  0  0  0  0  0
  -42.3448   60.8982   61.7171 C   0  0  0  0  0  0  0  0  0  0  0  0
  -41.8922   61.2616   60.3181 C   0  0  0  0  0  0  0  0  0  0  0  0
  -38.5265   60.6812   62.5787 C   0  0  0  0  0  0  0  0  0  0  0  0
  -37.5199   61.6241   62.1934 O   0  0  0  0  0  0  0  0  0  0  0  0
  -35.4255   63.4198   61.7138 O   0  0  0  0  0  0  0  0  0  0  0  0
  -36.7841   64.3390   65.6928 O   0  0  0  0  0  0  0  0  0  0  0  0
  -37.1563   61.7620   64.4687 O   0  0  0  0  0  0  0  0  0  0  0  0
  -36.5728   61.8928   63.1858 C   0  0  0  0  0  0  0  0  0  0  0  0
  -36.0640   63.3136   62.9800 C   0  0  0  0  0  0  0  0  0  0  0  0
  -35.0914   63.6817   64.0934 C   0  0  0  0  0  0  0  0  0  0  0  0
  -35.7087   63.4346   65.4620 C   0  0  0  0  0  0  0  0  0  0  0  0
  -36.2282   62.0011   65.5389 C   0  0  0  0  0  0  0  0  0  0  0  0
  -36.0541   63.1832   61.0139 H   0  0  0  0  0  0  0  0  0  0  0  0
  -36.4559   65.2505   65.6443 H   0  0  0  0  0  0  0  0  0  0  0  0
  -36.5022   62.5275   67.8919 O   0  0  0  0  0  0  0  0  0  0  0  0
  -36.9590   61.7018   66.8269 C   0  0  0  0  0  0  0  0  0  0  0  0
  -36.9903   62.3104   68.7016 H   0  0  0  0  0  0  0  0  0  0  0  0
  -34.8529   65.1140   63.9170 O   0  0  0  0  0  0  0  0  0  0  0  0
  -32.7831   65.8200   64.9294 O   0  0  0  0  0  0  0  0  0  0  0  0
  -33.3815   66.5508   62.6006 O   0  0  0  0  0  0  0  0  0  0  0  0
  -32.7685   64.3103   63.0914 O   0  0  0  0  0  0  0  0  0  0  0  0
  -33.3663   65.6094   63.6563 S   0  0  0  0  0  0  0  0  0  0  0  0
  -33.1389   66.6349   65.3171 H   0  0  0  0  0  0  0  0  0  0  0  0
  -32.7412   63.6369   63.7890 H   0  0  0  0  0  0  0  0  0  0  0  0
  2  1  1  0  0  0
  2  4  1  0  0  0
  2  5  1  0  0  0
 47 48  1  0  0  0
 47  1  1  0  0  0
 48 52  1  0  0  0
  1 30  1  0  0  0
 29 30  1  0  0  0
 29 31  1  0  0  0
 30 32  1  0  0  0
  3  4  2  0  0  0
 32 33  2  0  0  0
 49 53  1  0  0  0
 49 57  1  0  0  0
 33 34  1  0  0  0
 62 54  1  0  0  0
 62 66  1  0  0  0
 34 35  1  0  0  0
 50 55  1  0  0  0
 50 58  1  0  0  0
 35 36  1  0  0  0
 51 52  1  0  0  0
 51 56  1  0  0  0
 36 37  1  0  0  0
 59 60  1  0  0  0
 59 61  1  0  0  0
 37 38  1  0  0  0
 63 66  1  0  0  0
 63 67  1  0  0  0
 38 39  1  0  0  0
 64 66  1  0  0  0
 39 40  1  0  0  0
 65 66  1  0  0  0
 65 68  1  0  0  0
 40 41  1  0  0  0
 41 42  1  0  0  0
 42 43  1  0  0  0
 43 44  1  0  0  0
 44 45  1  0  0  0
 45 46  1  0  0  0
  4  6  1  0  0  0
  6  7  1  0  0  0
  7  8  1  0  0  0
  8  9  1  0  0  0
  9 10  1  0  0  0
 10 11  1  0  0  0
 11 12  1  0  0  0
 12 13  1  0  0  0
 13 14  1  0  0  0
 14 15  1  0  0  0
 15 16  1  0  0  0
 16 17  1  0  0  0
 17 18  1  0  0  0
 18 19  1  0  0  0
 19 20  2  0  0  0
 20 21  1  0  0  0
 21 22  1  0  0  0
 22 23  1  0  0  0
 23 24  1  0  0  0
 24 25  1  0  0  0
 25 26  1  0  0  0
 26 27  1  0  0  0
 27 28  1  0  0  0
 52 53  1  0  0  0
 53 54  1  0  0  0
 54 55  1  0  0  0
 55 56  1  0  0  0
 56 60  1  0  0  0
M  CHG 1  64  -1
M  END
> <minimizedAffinity>
-8.83549

> <CNNscore>
0.0982203335

> <CNNaffinity>
7.5492830276

> <CNN_VS>
0.7414931059

> <CNNaffinity_variance>
1.8636192083

$$$$
/media/chris/experiments/cd1a-new-docking/inputs/ligands/7ryn_ligand.pdb


 68 68  0  0  0  0  0  0  0  0999 V2000
  -36.6652   59.9994   64.1656 C   0  0  0  0  0  0  0  0  0  0  0  0
  -37.8309   59.2776   64.6669 N   0  0  0  0  0  0  0  0  0  0  0  0
  -38.5825   60.9365   65.9901 O   0  0  0  0  0  0  0  0  0  0  0  0
  -38.6974   59.8008   65.5384 C   0  0  0  0  0  0  0  0  0  0  0  0
  -37.9861   58.3597   64.3467 H   0  0  0  0  0  0  0  0  0  0  0  0
  -39.8450   58.9056   65.9347 C   0  0  0  0  0  0  0  0  0  0  0  0
  -40.6471   59.4654   67.1026 C   0  0  0  0  0  0  0  0  0  0  0  0
  -41.8623   60.2601   66.6522 C   0  0  0  0  0  0  0  0  0  0  0  0
  -43.1886   59.6489   67.0726 C   0  0  0  0  0  0  0  0  0  0  0  0
  -43.1972   58.1276   67.0583 C   0  0  0  0  0  0  0  0  0  0  0  0
  -44.4804   57.5202   66.5062 C   0  0  0  0  0  0  0  0  0  0  0  0
  -45.7138   58.3896   66.7141 C   0  0  0  0  0  0  0  0  0  0  0  0
  -46.9514   57.6309   67.1867 C   0  0  0  0  0  0  0  0  0  0  0  0
  -47.9014   57.2271   66.0602 C   0  0  0  0  0  0  0  0  0  0  0  0
  -49.2687   57.9089   66.1048 C   0  0  0  0  0  0  0  0  0  0  0  0
  -49.1867   59.4333   66.1856 C   0  0  0  0  0  0  0  0  0  0  0  0
  -48.4772   60.1065   65.0109 C   0  0  0  0  0  0  0  0  0  0  0  0
  -49.4027   60.8186   64.0207 C   0  0  0  0  0  0  0  0  0  0  0  0
  -50.7202   60.1196   63.8477 C   0  0  0  0  0  0  0  0  0  0  0  0
  -50.9550   59.0847   63.0606 C   0  0  0  0  0  0  0  0  0  0  0  0
  -49.9519   58.3981   62.1839 C   0  0  0  0  0  0  0  0  0  0  0  0
  -49.7614   59.0720   60.8235 C   0  0  0  0  0  0  0  0  0  0  0  0
  -49.5638   58.0818   59.6834 C   0  0  0  0  0  0  0  0  0  0  0  0
  -49.3635   56.6466   60.1566 C   0  0  0  0  0  0  0  0  0  0  0  0
  -48.2433   55.8974   59.4440 C   0  0  0  0  0  0  0  0  0  0  0  0
  -47.1516   56.8049   58.8948 C   0  0  0  0  0  0  0  0  0  0  0  0
  -46.9218   56.6667   57.3982 C   0  0  0  0  0  0  0  0  0  0  0  0
  -47.5741   57.7750   56.5969 C   0  0  0  0  0  0  0  0  0  0  0  0
  -37.5817   62.0970   63.3941 O   0  0  0  0  0  0  0  0  0  0  0  0
  -37.0721   60.8385   62.9436 C   0  0  0  0  0  0  0  0  0  0  0  0
  -36.9120   62.5411   63.9375 H   0  0  0  0  0  0  0  0  0  0  0  0
  -38.0817   60.1228   62.0994 C   0  0  0  0  0  0  0  0  0  0  0  0
  -38.6324   60.6060   61.0034 C   0  0  0  0  0  0  0  0  0  0  0  0
  -39.6262   59.8607   60.1742 C   0  0  0  0  0  0  0  0  0  0  0  0
  -39.2720   58.3743   60.0944 C   0  0  0  0  0  0  0  0  0  0  0  0
  -40.0490   57.4959   61.0615 C   0  0  0  0  0  0  0  0  0  0  0  0
  -41.3985   57.0335   60.5390 C   0  0  0  0  0  0  0  0  0  0  0  0
  -41.9119   55.7593   61.1937 C   0  0  0  0  0  0  0  0  0  0  0  0
  -41.2422   55.4426   62.5221 C   0  0  0  0  0  0  0  0  0  0  0  0
  -41.9709   56.0130   63.7261 C   0  0  0  0  0  0  0  0  0  0  0  0
  -42.0332   57.5288   63.7501 C   0  0  0  0  0  0  0  0  0  0  0  0
  -43.3488   58.0989   63.2483 C   0  0  0  0  0  0  0  0  0  0  0  0
  -43.4574   59.6000   63.4416 C   0  0  0  0  0  0  0  0  0  0  0  0
  -42.2148   60.3740   63.0451 C   0  0  0  0  0  0  0  0  0  0  0  0
  -42.4543   61.2956   61.8653 C   0  0  0  0  0  0  0  0  0  0  0  0
  -43.1778   62.5666   62.2592 C   0  0  0  0  0  0  0  0  0  0  0  0
  -35.5511   59.0258   63.8414 C   0  0  0  0  0  0  0  0  0  0  0  0
  -34.5349   59.1545   64.8422 O   0  0  0  0  0  0  0  0  0  0  0  0
  -32.6751   59.9818   62.9192 O   0  0  0  0  0  0  0  0  0  0  0  0
  -35.2185   63.3973   63.5427 O   0  0  0  0  0  0  0  0  0  0  0  0
  -34.8512   61.3386   65.5187 O   0  0  0  0  0  0  0  0  0  0  0  0
  -33.9554   60.4245   64.9141 C   0  0  0  0  0  0  0  0  0  0  0  0
  -33.6219   60.8719   63.4969 C   0  0  0  0  0  0  0  0  0  0  0  0
  -33.0669   62.2904   63.5187 C   0  0  0  0  0  0  0  0  0  0  0  0
  -34.0018   63.2316   64.2638 C   0  0  0  0  0  0  0  0  0  0  0  0
  -34.3074   62.6621   65.6469 C   0  0  0  0  0  0  0  0  0  0  0  0
  -33.0395   59.0829   62.9110 H   0  0  0  0  0  0  0  0  0  0  0  0
  -35.0264   63.7592   62.6634 H   0  0  0  0  0  0  0  0  0  0  0  0
  -36.6522   63.1438   66.0452 O   0  0  0  0  0  0  0  0  0  0  0  0
  -35.3197   63.4785   66.4158 C   0  0  0  0  0  0  0  0  0  0  0  0
  -37.2752   63.6843   66.5557 H   0  0  0  0  0  0  0  0  0  0  0  0
  -32.9996   62.6826   62.1112 O   0  0  0  0  0  0  0  0  0  0  0  0
  -31.2427   62.9545   60.4843 O   0  0  0  0  0  0  0  0  0  0  0  0
  -31.0408   63.9845   62.7677 O   0  0  0  0  0  0  0  0  0  0  0  0
  -32.5645   64.8171   61.1486 O   0  0  0  0  0  0  0  0  0  0  0  0
  -31.7829   63.5844   61.6318 S   0  0  0  0  0  0  0  0  0  0  0  0
  -30.7408   62.1691   60.7528 H   0  0  0  0  0  0  0  0  0  0  0  0
  -33.0885   64.5817   60.3669 H   0  0  0  0  0  0  0  0  0  0  0  0
  2  1  1  0  0  0
  2  4  1  0  0  0
  2  5  1  0  0  0
 47 48  1  0  0  0
 47  1  1  0  0  0
 48 52  1  0  0  0
  1 30  1  0  0  0
 29 30  1  0  0  0
 29 31  1  0  0  0
 30 32  1  0  0  0
  3  4  2  0  0  0
 32 33  2  0  0  0
 49 53  1  0  0  0
 49 57  1  0  0  0
 33 34  1  0  0  0
 62 54  1  0  0  0
 62 66  1  0  0  0
 34 35  1  0  0  0
 50 55  1  0  0  0
 50 58  1  0  0  0
 35 36  1  0  0  0
 51 52  1  0  0  0
 51 56  1  0  0  0
 36 37  1  0  0  0
 59 60  1  0  0  0
 59 61  1  0  0  0
 37 38  1  0  0  0
 63 66  1  0  0  0
 63 67  1  0  0  0
 38 39  1  0  0  0
 64 66  1  0  0  0
 39 40  1  0  0  0
 65 66  1  0  0  0
 65 68  1  0  0  0
 40 41  1  0  0  0
 41 42  1  0  0  0
 42 43  1  0  0  0
 43 44  1  0  0  0
 44 45  1  0  0  0
 45 46  1  0  0  0
  4  6  1  0  0  0
  6  7  1  0  0  0
  7  8  1  0  0  0
  8  9  1  0  0  0
  9 10  1  0  0  0
 10 11  1  0  0  0
 11 12  1  0  0  0
 12 13  1  0  0  0
 13 14  1  0  0  0
 14 15  1  0  0  0
 15 16  1  0  0  0
 16 17  1  0  0  0
 17 18  1  0  0  0
 18 19  1  0  0  0
 19 20  2  0  0  0
 20 21  1  0  0  0
 21 22  1  0  0  0
 22 23  1  0  0  0
 23 24  1  0  0  0
 24 25  1  0  0  0
 25 26  1  0  0  0
 26 27  1  0  0  0
 27 28  1  0  0  0
 52 53  1  0  0  0
 53 54  1  0  0  0
 54 55  1  0  0  0
 55 56  1  0  0  0
 56 60  1  0  0  0
M  CHG 1  64  -1
M  END
> <minimizedAffinity>
-8.75838

> <CNNscore>
0.0962636173

> <CNNaffinity>
7.3291101456

> <CNN_VS>
0.7055266500

> <CNNaffinity_variance>
1.5604032278

$$$$
