/media/chris/experiments/cd1a-new-docking/inputs/ligands/7ryn_ligand.pdb


 68 68  0  0  0  0  0  0  0  0999 V2000
  -32.6409   62.1589   62.5047 C   0  0  0  0  0  0  0  0  0  0  0  0
  -32.5813   62.5803   63.9011 N   0  0  0  0  0  0  0  0  0  0  0  0
  -33.5838   62.9387   65.8847 O   0  0  0  0  0  0  0  0  0  0  0  0
  -33.6404   62.5706   64.7150 C   0  0  0  0  0  0  0  0  0  0  0  0
  -31.7177   62.8869   64.2609 H   0  0  0  0  0  0  0  0  0  0  0  0
  -34.9291   62.0813   64.1026 C   0  0  0  0  0  0  0  0  0  0  0  0
  -36.0117   61.8266   65.1437 C   0  0  0  0  0  0  0  0  0  0  0  0
  -37.0423   60.8090   64.6814 C   0  0  0  0  0  0  0  0  0  0  0  0
  -38.1260   60.5204   65.7069 C   0  0  0  0  0  0  0  0  0  0  0  0
  -38.5654   59.0644   65.7444 C   0  0  0  0  0  0  0  0  0  0  0  0
  -40.0692   58.8668   65.6028 C   0  0  0  0  0  0  0  0  0  0  0  0
  -40.8986   59.9991   66.1948 C   0  0  0  0  0  0  0  0  0  0  0  0
  -42.2078   59.5544   66.8418 C   0  0  0  0  0  0  0  0  0  0  0  0
  -42.4736   58.0533   66.7399 C   0  0  0  0  0  0  0  0  0  0  0  0
  -43.8065   57.6849   66.0889 C   0  0  0  0  0  0  0  0  0  0  0  0
  -44.9597   58.5993   66.5030 C   0  0  0  0  0  0  0  0  0  0  0  0
  -46.3278   57.9218   66.5789 C   0  0  0  0  0  0  0  0  0  0  0  0
  -47.1935   58.0744   65.3254 C   0  0  0  0  0  0  0  0  0  0  0  0
  -47.6833   59.4791   65.1224 C   0  0  0  0  0  0  0  0  0  0  0  0
  -48.9407   59.8484   64.9538 C   0  0  0  0  0  0  0  0  0  0  0  0
  -50.1318   58.9389   64.9343 C   0  0  0  0  0  0  0  0  0  0  0  0
  -50.5545   58.5102   63.5276 C   0  0  0  0  0  0  0  0  0  0  0  0
  -50.7353   59.6806   62.5701 C   0  0  0  0  0  0  0  0  0  0  0  0
  -49.7938   59.6329   61.3720 C   0  0  0  0  0  0  0  0  0  0  0  0
  -49.2744   58.2405   61.0325 C   0  0  0  0  0  0  0  0  0  0  0  0
  -49.4620   57.8557   59.5717 C   0  0  0  0  0  0  0  0  0  0  0  0
  -48.1879   57.9141   58.7441 C   0  0  0  0  0  0  0  0  0  0  0  0
  -47.9810   56.6780   57.8925 C   0  0  0  0  0  0  0  0  0  0  0  0
  -31.3657   60.6866   61.0760 O   0  0  0  0  0  0  0  0  0  0  0  0
  -31.9867   60.7753   62.3616 C   0  0  0  0  0  0  0  0  0  0  0  0
  -30.7245   61.4075   60.9762 H   0  0  0  0  0  0  0  0  0  0  0  0
  -32.9855   59.6750   62.5514 C   0  0  0  0  0  0  0  0  0  0  0  0
  -33.0390   58.8716   63.5952 C   0  0  0  0  0  0  0  0  0  0  0  0
  -34.0577   57.7922   63.7623 C   0  0  0  0  0  0  0  0  0  0  0  0
  -35.1645   57.9130   62.7128 C   0  0  0  0  0  0  0  0  0  0  0  0
  -36.5381   57.4853   63.2038 C   0  0  0  0  0  0  0  0  0  0  0  0
  -37.5891   57.3864   62.1114 C   0  0  0  0  0  0  0  0  0  0  0  0
  -38.6568   58.4686   62.1800 C   0  0  0  0  0  0  0  0  0  0  0  0
  -38.9377   59.1353   60.8421 C   0  0  0  0  0  0  0  0  0  0  0  0
  -39.9622   58.4005   59.9956 C   0  0  0  0  0  0  0  0  0  0  0  0
  -40.8424   57.4459   60.7806 C   0  0  0  0  0  0  0  0  0  0  0  0
  -42.1962   58.0242   61.1556 C   0  0  0  0  0  0  0  0  0  0  0  0
  -42.3943   58.1468   62.6550 C   0  0  0  0  0  0  0  0  0  0  0  0
  -42.9018   59.5015   63.1109 C   0  0  0  0  0  0  0  0  0  0  0  0
  -41.9579   60.6303   62.7453 C   0  0  0  0  0  0  0  0  0  0  0  0
  -42.5726   61.6053   61.7625 C   0  0  0  0  0  0  0  0  0  0  0  0
  -31.9785   63.1952   61.6206 C   0  0  0  0  0  0  0  0  0  0  0  0
  -30.5622   63.1165   61.8176 O   0  0  0  0  0  0  0  0  0  0  0  0
  -29.0561   64.8773   60.2454 O   0  0  0  0  0  0  0  0  0  0  0  0
  -31.5038   67.4137   62.7147 O   0  0  0  0  0  0  0  0  0  0  0  0
  -30.7896   64.7270   63.4557 O   0  0  0  0  0  0  0  0  0  0  0  0
  -29.9947   64.2635   62.3802 C   0  0  0  0  0  0  0  0  0  0  0  0
  -29.9054   65.3271   61.2934 C   0  0  0  0  0  0  0  0  0  0  0  0
  -29.3722   66.6265   61.8833 C   0  0  0  0  0  0  0  0  0  0  0  0
  -30.1829   67.0477   63.1002 C   0  0  0  0  0  0  0  0  0  0  0  0
  -30.2486   65.8932   64.0969 C   0  0  0  0  0  0  0  0  0  0  0  0
  -29.4057   64.0503   59.8783 H   0  0  0  0  0  0  0  0  0  0  0  0
  -31.4642   68.1473   62.0813 H   0  0  0  0  0  0  0  0  0  0  0  0
  -32.4595   65.7223   65.0824 O   0  0  0  0  0  0  0  0  0  0  0  0
  -31.1301   66.1859   65.2884 C   0  0  0  0  0  0  0  0  0  0  0  0
  -32.9975   65.9254   65.8637 H   0  0  0  0  0  0  0  0  0  0  0  0
  -29.5433   67.6136   60.8176 O   0  0  0  0  0  0  0  0  0  0  0  0
  -31.5945   66.5397   60.1497 O   0  0  0  0  0  0  0  0  0  0  0  0
  -29.7159   66.8401   58.5079 O   0  0  0  0  0  0  0  0  0  0  0  0
  -31.0147   68.6738   59.2739 O   0  0  0  0  0  0  0  0  0  0  0  0
  -30.5053   67.2610   59.6036 S   0  0  0  0  0  0  0  0  0  0  0  0
  -31.3081   65.6396   60.3704 H   0  0  0  0  0  0  0  0  0  0  0  0
  -31.5630   68.9986   60.0052 H   0  0  0  0  0  0  0  0  0  0  0  0
  2  1  1  0  0  0
  2  4  1  0  0  0
  2  5  1  0  0  0
 47 48  1  0  0  0
 47  1  1  0  0  0
 48 52  1  0  0  0
  1 30  1  0  0  0
 29 30  1  0  0  0
 29 31  1  0  0  0
 30 32  1  0  0  0
  3  4  2  0  0  0
 32 33  2  0  0  0
 49 53  1  0  0  0
 49 57  1  0  0  0
 33 34  1  0  0  0
 62 54  1  0  0  0
 62 66  1  0  0  0
 34 35  1  0  0  0
 50 55  1  0  0  0
 50 58  1  0  0  0
 35 36  1  0  0  0
 51 52  1  0  0  0
 51 56  1  0  0  0
 36 37  1  0  0  0
 59 60  1  0  0  0
 59 61  1  0  0  0
 37 38  1  0  0  0
 63 66  1  0  0  0
 63 67  1  0  0  0
 38 39  1  0  0  0
 64 66  1  0  0  0
 39 40  1  0  0  0
 65 66  1  0  0  0
 65 68  1  0  0  0
 40 41  1  0  0  0
 41 42  1  0  0  0
 42 43  1  0  0  0
 43 44  1  0  0  0
 44 45  1  0  0  0
 45 46  1  0  0  0
  4  6  1  0  0  0
  6  7  1  0  0  0
  7  8  1  0  0  0
  8  9  1  0  0  0
  9 10  1  0  0  0
 10 11  1  0  0  0
 11 12  1  0  0  0
 12 13  1  0  0  0
 13 14  1  0  0  0
 14 15  1  0  0  0
 15 16  1  0  0  0
 16 17  1  0  0  0
 17 18  1  0  0  0
 18 19  1  0  0  0
 19 20  2  0  0  0
 20 21  1  0  0  0
 21 22  1  0  0  0
 22 23  1  0  0  0
 23 24  1  0  0  0
 24 25  1  0  0  0
 25 26  1  0  0  0
 26 27  1  0  0  0
 27 28  1  0  0  0
 52 53  1  0  0  0
 53 54  1  0  0  0
 54 55  1  0  0  0
 55 56  1  0  0  0
 56 60  1  0  0  0
M  CHG 1  64  -1
M  END
> <minimizedAffinity>
-8.94557

> <CNNscore>
0.2370732427

> <CNNaffinity>
6.9257369041

> <CNN_VS>
1.6419068575

> <CNNaffinity_variance>
1.4717264175

$$$$
/media/chris/experiments/cd1a-new-docking/inputs/ligands/7ryn_ligand.pdb


 68 68  0  0  0  0  0  0  0  0999 V2000
  -38.8120   60.2176   63.1312 C   0  0  0  0  0  0  0  0  0  0  0  0
  -40.1317   60.4795   62.5648 N   0  0  0  0  0  0  0  0  0  0  0  0
  -41.7659   59.9915   61.0953 O   0  0  0  0  0  0  0  0  0  0  0  0
  -40.6603   59.7561   61.5741 C   0  0  0  0  0  0  0  0  0  0  0  0
  -40.6583   61.2264   62.9311 H   0  0  0  0  0  0  0  0  0  0  0  0
  -39.8048   58.6225   61.0660 C   0  0  0  0  0  0  0  0  0  0  0  0
  -40.5072   57.2737   61.1563 C   0  0  0  0  0  0  0  0  0  0  0  0
  -40.2590   56.5707   62.4813 C   0  0  0  0  0  0  0  0  0  0  0  0
  -41.4499   55.7749   62.9891 C   0  0  0  0  0  0  0  0  0  0  0  0
  -42.2565   56.4915   64.0616 C   0  0  0  0  0  0  0  0  0  0  0  0
  -41.4099   57.2941   65.0413 C   0  0  0  0  0  0  0  0  0  0  0  0
  -42.2073   57.9143   66.1814 C   0  0  0  0  0  0  0  0  0  0  0  0
  -43.6662   57.4699   66.2495 C   0  0  0  0  0  0  0  0  0  0  0  0
  -44.6688   58.5738   65.9171 C   0  0  0  0  0  0  0  0  0  0  0  0
  -46.0082   58.4582   66.6445 C   0  0  0  0  0  0  0  0  0  0  0  0
  -47.0655   57.6867   65.8544 C   0  0  0  0  0  0  0  0  0  0  0  0
  -48.5104   58.1022   66.1298 C   0  0  0  0  0  0  0  0  0  0  0  0
  -48.7467   59.6137   66.1893 C   0  0  0  0  0  0  0  0  0  0  0  0
  -48.4808   60.2976   64.8793 C   0  0  0  0  0  0  0  0  0  0  0  0
  -49.3565   60.4872   63.9083 C   0  0  0  0  0  0  0  0  0  0  0  0
  -50.7929   60.0599   63.9205 C   0  0  0  0  0  0  0  0  0  0  0  0
  -51.0681   58.8057   63.0884 C   0  0  0  0  0  0  0  0  0  0  0  0
  -50.0240   58.5590   62.0075 C   0  0  0  0  0  0  0  0  0  0  0  0
  -50.5639   57.7849   60.8103 C   0  0  0  0  0  0  0  0  0  0  0  0
  -49.5022   57.0400   60.0093 C   0  0  0  0  0  0  0  0  0  0  0  0
  -48.5542   57.9558   59.2477 C   0  0  0  0  0  0  0  0  0  0  0  0
  -47.4895   57.2226   58.4474 C   0  0  0  0  0  0  0  0  0  0  0  0
  -47.2346   57.8501   57.0919 C   0  0  0  0  0  0  0  0  0  0  0  0
  -38.9460   60.9754   65.4209 O   0  0  0  0  0  0  0  0  0  0  0  0
  -38.9627   59.8017   64.6033 C   0  0  0  0  0  0  0  0  0  0  0  0
  -39.6508   61.5780   65.1360 H   0  0  0  0  0  0  0  0  0  0  0  0
  -37.8851   58.8461   65.0155 C   0  0  0  0  0  0  0  0  0  0  0  0
  -37.3071   57.9671   64.2212 C   0  0  0  0  0  0  0  0  0  0  0  0
  -36.2235   57.0371   64.6591 C   0  0  0  0  0  0  0  0  0  0  0  0
  -34.8432   57.5966   64.3086 C   0  0  0  0  0  0  0  0  0  0  0  0
  -34.5377   57.6140   62.8196 C   0  0  0  0  0  0  0  0  0  0  0  0
  -33.0779   57.8683   62.4844 C   0  0  0  0  0  0  0  0  0  0  0  0
  -32.8512   59.0704   61.5793 C   0  0  0  0  0  0  0  0  0  0  0  0
  -32.2734   60.2781   62.3010 C   0  0  0  0  0  0  0  0  0  0  0  0
  -30.7984   60.1426   62.6361 C   0  0  0  0  0  0  0  0  0  0  0  0
  -29.8834   60.9542   61.7382 C   0  0  0  0  0  0  0  0  0  0  0  0
  -30.5410   62.1873   61.1426 C   0  0  0  0  0  0  0  0  0  0  0  0
  -29.8474   63.4783   61.5360 C   0  0  0  0  0  0  0  0  0  0  0  0
  -29.7944   63.7303   63.0307 C   0  0  0  0  0  0  0  0  0  0  0  0
  -31.1696   63.7397   63.6690 C   0  0  0  0  0  0  0  0  0  0  0  0
  -31.1139   63.9775   65.1638 C   0  0  0  0  0  0  0  0  0  0  0  0
  -37.9273   61.4369   62.9725 C   0  0  0  0  0  0  0  0  0  0  0  0
  -36.5612   61.0173   63.0653 O   0  0  0  0  0  0  0  0  0  0  0  0
  -35.1378   63.1324   61.9071 O   0  0  0  0  0  0  0  0  0  0  0  0
  -36.7521   64.7490   65.5544 O   0  0  0  0  0  0  0  0  0  0  0  0
  -36.2798   61.9380   65.1633 O   0  0  0  0  0  0  0  0  0  0  0  0
  -35.7563   61.8470   63.8514 C   0  0  0  0  0  0  0  0  0  0  0  0
  -35.7210   63.2238   63.2008 C   0  0  0  0  0  0  0  0  0  0  0  0
  -34.9246   64.1875   64.0713 C   0  0  0  0  0  0  0  0  0  0  0  0
  -35.4440   64.1890   65.5015 C   0  0  0  0  0  0  0  0  0  0  0  0
  -35.4844   62.7587   66.0337 C   0  0  0  0  0  0  0  0  0  0  0  0
  -35.6531   62.5166   61.3629 H   0  0  0  0  0  0  0  0  0  0  0  0
  -36.7286   65.6579   65.2166 H   0  0  0  0  0  0  0  0  0  0  0  0
  -36.1330   63.9180   68.0644 O   0  0  0  0  0  0  0  0  0  0  0  0
  -36.0943   62.6541   67.4119 C   0  0  0  0  0  0  0  0  0  0  0  0
  -36.5291   63.8158   68.9440 H   0  0  0  0  0  0  0  0  0  0  0  0
  -35.1496   65.5014   63.4691 O   0  0  0  0  0  0  0  0  0  0  0  0
  -33.5545   65.4861   61.6628 O   0  0  0  0  0  0  0  0  0  0  0  0
  -33.0333   66.6687   63.8180 O   0  0  0  0  0  0  0  0  0  0  0  0
  -34.6433   67.5063   62.2876 O   0  0  0  0  0  0  0  0  0  0  0  0
  -33.9193   66.2496   62.7980 S   0  0  0  0  0  0  0  0  0  0  0  0
  -33.0933   64.6819   61.9486 H   0  0  0  0  0  0  0  0  0  0  0  0
  -35.2629   67.2589   61.5835 H   0  0  0  0  0  0  0  0  0  0  0  0
  2  1  1  0  0  0
  2  4  1  0  0  0
  2  5  1  0  0  0
 47 48  1  0  0  0
 47  1  1  0  0  0
 48 52  1  0  0  0
  1 30  1  0  0  0
 29 30  1  0  0  0
 29 31  1  0  0  0
 30 32  1  0  0  0
  3  4  2  0  0  0
 32 33  2  0  0  0
 49 53  1  0  0  0
 49 57  1  0  0  0
 33 34  1  0  0  0
 62 54  1  0  0  0
 62 66  1  0  0  0
 34 35  1  0  0  0
 50 55  1  0  0  0
 50 58  1  0  0  0
 35 36  1  0  0  0
 51 52  1  0  0  0
 51 56  1  0  0  0
 36 37  1  0  0  0
 59 60  1  0  0  0
 59 61  1  0  0  0
 37 38  1  0  0  0
 63 66  1  0  0  0
 63 67  1  0  0  0
 38 39  1  0  0  0
 64 66  1  0  0  0
 39 40  1  0  0  0
 65 66  1  0  0  0
 65 68  1  0  0  0
 40 41  1  0  0  0
 41 42  1  0  0  0
 42 43  1  0  0  0
 43 44  1  0  0  0
 44 45  1  0  0  0
 45 46  1  0  0  0
  4  6  1  0  0  0
  6  7  1  0  0  0
  7  8  1  0  0  0
  8  9  1  0  0  0
  9 10  1  0  0  0
 10 11  1  0  0  0
 11 12  1  0  0  0
 12 13  1  0  0  0
 13 14  1  0  0  0
 14 15  1  0  0  0
 15 16  1  0  0  0
 16 17  1  0  0  0
 17 18  1  0  0  0
 18 19  1  0  0  0
 19 20  2  0  0  0
 20 21  1  0  0  0
 21 22  1  0  0  0
 22 23  1  0  0  0
 23 24  1  0  0  0
 24 25  1  0  0  0
 25 26  1  0  0  0
 26 27  1  0  0  0
 27 28  1  0  0  0
 52 53  1  0  0  0
 53 54  1  0  0  0
 54 55  1  0  0  0
 55 56  1  0  0  0
 56 60  1  0  0  0
M  CHG 1  64  -1
M  END
> <minimizedAffinity>
-9.00461

> <CNNscore>
0.1955339760

> <CNNaffinity>
7.2938385010

> <CNN_VS>
1.4261932373

> <CNNaffinity_variance>
1.0419580936

$$$$
/media/chris/experiments/cd1a-new-docking/inputs/ligands/7ryn_ligand.pdb


 68 68  0  0  0  0  0  0  0  0999 V2000
  -33.9554   60.6719   63.7540 C   0  0  0  0  0  0  0  0  0  0  0  0
  -33.9109   61.3794   65.0302 N   0  0  0  0  0  0  0  0  0  0  0  0
  -34.9455   62.4914   66.6918 O   0  0  0  0  0  0  0  0  0  0  0  0
  -34.9941   61.8869   65.6246 C   0  0  0  0  0  0  0  0  0  0  0  0
  -33.0392   61.4880   65.4748 H   0  0  0  0  0  0  0  0  0  0  0  0
  -36.2973   61.6773   64.8944 C   0  0  0  0  0  0  0  0  0  0  0  0
  -37.3276   60.9371   65.7376 C   0  0  0  0  0  0  0  0  0  0  0  0
  -38.3030   60.1295   64.8963 C   0  0  0  0  0  0  0  0  0  0  0  0
  -38.7503   58.8314   65.5478 C   0  0  0  0  0  0  0  0  0  0  0  0
  -40.2595   58.6408   65.5668 C   0  0  0  0  0  0  0  0  0  0  0  0
  -41.0191   59.7750   66.2430 C   0  0  0  0  0  0  0  0  0  0  0  0
  -42.3347   59.3438   66.8783 C   0  0  0  0  0  0  0  0  0  0  0  0
  -42.6346   57.8513   66.7635 C   0  0  0  0  0  0  0  0  0  0  0  0
  -44.0236   57.5368   66.2103 C   0  0  0  0  0  0  0  0  0  0  0  0
  -45.0676   58.6266   66.4521 C   0  0  0  0  0  0  0  0  0  0  0  0
  -46.3543   58.1057   67.0929 C   0  0  0  0  0  0  0  0  0  0  0  0
  -47.5366   59.0735   67.0499 C   0  0  0  0  0  0  0  0  0  0  0  0
  -48.4918   58.8728   65.8703 C   0  0  0  0  0  0  0  0  0  0  0  0
  -48.4507   60.0067   64.8871 C   0  0  0  0  0  0  0  0  0  0  0  0
  -49.4679   60.4550   64.1728 C   0  0  0  0  0  0  0  0  0  0  0  0
  -50.8687   59.9231   64.2028 C   0  0  0  0  0  0  0  0  0  0  0  0
  -51.2984   59.2498   62.8977 C   0  0  0  0  0  0  0  0  0  0  0  0
  -50.1891   58.4338   62.2474 C   0  0  0  0  0  0  0  0  0  0  0  0
  -49.7427   58.9867   60.8986 C   0  0  0  0  0  0  0  0  0  0  0  0
  -49.6541   57.9462   59.7880 C   0  0  0  0  0  0  0  0  0  0  0  0
  -48.2897   57.8813   59.1162 C   0  0  0  0  0  0  0  0  0  0  0  0
  -48.2793   57.1188   57.8008 C   0  0  0  0  0  0  0  0  0  0  0  0
  -47.2953   57.6866   56.7982 C   0  0  0  0  0  0  0  0  0  0  0  0
  -32.4225   58.9898   62.9443 O   0  0  0  0  0  0  0  0  0  0  0  0
  -33.4142   59.2456   63.9430 C   0  0  0  0  0  0  0  0  0  0  0  0
  -31.7226   59.6587   63.0048 H   0  0  0  0  0  0  0  0  0  0  0  0
  -34.5134   58.2298   63.8793 C   0  0  0  0  0  0  0  0  0  0  0  0
  -35.5121   58.2467   63.0191 C   0  0  0  0  0  0  0  0  0  0  0  0
  -36.5859   57.2096   62.9712 C   0  0  0  0  0  0  0  0  0  0  0  0
  -37.7910   57.7021   62.1672 C   0  0  0  0  0  0  0  0  0  0  0  0
  -37.5820   59.0483   61.4928 C   0  0  0  0  0  0  0  0  0  0  0  0
  -38.7623   59.5202   60.6610 C   0  0  0  0  0  0  0  0  0  0  0  0
  -39.4822   58.4036   59.9189 C   0  0  0  0  0  0  0  0  0  0  0  0
  -40.9759   58.6411   59.7580 C   0  0  0  0  0  0  0  0  0  0  0  0
  -41.8375   57.6935   60.5740 C   0  0  0  0  0  0  0  0  0  0  0  0
  -41.5593   57.7339   62.0651 C   0  0  0  0  0  0  0  0  0  0  0  0
  -42.7708   58.0947   62.9076 C   0  0  0  0  0  0  0  0  0  0  0  0
  -42.9841   59.5921   63.0297 C   0  0  0  0  0  0  0  0  0  0  0  0
  -41.7357   60.4230   62.8023 C   0  0  0  0  0  0  0  0  0  0  0  0
  -41.9672   61.9011   63.0477 C   0  0  0  0  0  0  0  0  0  0  0  0
  -43.1780   62.4297   62.3070 C   0  0  0  0  0  0  0  0  0  0  0  0
  -33.1777   61.4410   62.7062 C   0  0  0  0  0  0  0  0  0  0  0  0
  -31.8401   61.6255   63.1832 O   0  0  0  0  0  0  0  0  0  0  0  0
  -30.7552   62.8705   60.9217 O   0  0  0  0  0  0  0  0  0  0  0  0
  -33.3977   65.8012   62.6395 O   0  0  0  0  0  0  0  0  0  0  0  0
  -32.2070   63.6782   64.1734 O   0  0  0  0  0  0  0  0  0  0  0  0
  -31.4267   62.9598   63.2361 C   0  0  0  0  0  0  0  0  0  0  0  0
  -31.5888   63.5593   61.8452 C   0  0  0  0  0  0  0  0  0  0  0  0
  -31.2319   65.0400   61.8748 C   0  0  0  0  0  0  0  0  0  0  0  0
  -32.0107   65.7685   62.9602 C   0  0  0  0  0  0  0  0  0  0  0  0
  -31.8173   65.0554   64.2961 C   0  0  0  0  0  0  0  0  0  0  0  0
  -30.9918   61.9298   60.9120 H   0  0  0  0  0  0  0  0  0  0  0  0
  -33.5227   66.2539   61.7908 H   0  0  0  0  0  0  0  0  0  0  0  0
  -32.9931   64.6668   66.3830 O   0  0  0  0  0  0  0  0  0  0  0  0
  -32.6468   65.6472   65.4115 C   0  0  0  0  0  0  0  0  0  0  0  0
  -33.5238   65.0786   67.0829 H   0  0  0  0  0  0  0  0  0  0  0  0
  -31.6363   65.5438   60.5625 O   0  0  0  0  0  0  0  0  0  0  0  0
  -31.1528   66.4061   58.3648 O   0  0  0  0  0  0  0  0  0  0  0  0
  -29.3256   65.4221   59.7820 O   0  0  0  0  0  0  0  0  0  0  0  0
  -30.3233   67.5133   60.2995 O   0  0  0  0  0  0  0  0  0  0  0  0
  -30.5231   66.1548   59.6079 S   0  0  0  0  0  0  0  0  0  0  0  0
  -31.2950   65.5672   57.8989 H   0  0  0  0  0  0  0  0  0  0  0  0
  -31.1271   68.0474   60.2015 H   0  0  0  0  0  0  0  0  0  0  0  0
  2  1  1  0  0  0
  2  4  1  0  0  0
  2  5  1  0  0  0
 47 48  1  0  0  0
 47  1  1  0  0  0
 48 52  1  0  0  0
  1 30  1  0  0  0
 29 30  1  0  0  0
 29 31  1  0  0  0
 30 32  1  0  0  0
  3  4  2  0  0  0
 32 33  2  0  0  0
 49 53  1  0  0  0
 49 57  1  0  0  0
 33 34  1  0  0  0
 62 54  1  0  0  0
 62 66  1  0  0  0
 34 35  1  0  0  0
 50 55  1  0  0  0
 50 58  1  0  0  0
 35 36  1  0  0  0
 51 52  1  0  0  0
 51 56  1  0  0  0
 36 37  1  0  0  0
 59 60  1  0  0  0
 59 61  1  0  0  0
 37 38  1  0  0  0
 63 66  1  0  0  0
 63 67  1  0  0  0
 38 39  1  0  0  0
 64 66  1  0  0  0
 39 40  1  0  0  0
 65 66  1  0  0  0
 65 68  1  0  0  0
 40 41  1  0  0  0
 41 42  1  0  0  0
 42 43  1  0  0  0
 43 44  1  0  0  0
 44 45  1  0  0  0
 45 46  1  0  0  0
  4  6  1  0  0  0
  6  7  1  0  0  0
  7  8  1  0  0  0
  8  9  1  0  0  0
  9 10  1  0  0  0
 10 11  1  0  0  0
 11 12  1  0  0  0
 12 13  1  0  0  0
 13 14  1  0  0  0
 14 15  1  0  0  0
 15 16  1  0  0  0
 16 17  1  0  0  0
 17 18  1  0  0  0
 18 19  1  0  0  0
 19 20  2  0  0  0
 20 21  1  0  0  0
 21 22  1  0  0  0
 22 23  1  0  0  0
 23 24  1  0  0  0
 24 25  1  0  0  0
 25 26  1  0  0  0
 26 27  1  0  0  0
 27 28  1  0  0  0
 52 53  1  0  0  0
 53 54  1  0  0  0
 54 55  1  0  0  0
 55 56  1  0  0  0
 56 60  1  0  0  0
M  CHG 1  64  -1
M  END
> <minimizedAffinity>
-9.24148

> <CNNscore>
0.1840509921

> <CNNaffinity>
7.0781097412

> <CNN_VS>
1.3027330637

> <CNNaffinity_variance>
1.7267236710

$$$$
/media/chris/experiments/cd1a-new-docking/inputs/ligands/7ryn_ligand.pdb


 68 68  0  0  0  0  0  0  0  0999 V2000
  -36.5859   58.3271   62.9663 C   0  0  0  0  0  0  0  0  0  0  0  0
  -36.4512   59.7328   63.3368 N   0  0  0  0  0  0  0  0  0  0  0  0
  -37.0927   61.5055   64.5671 O   0  0  0  0  0  0  0  0  0  0  0  0
  -37.2045   60.3195   64.2709 C   0  0  0  0  0  0  0  0  0  0  0  0
  -35.7713   60.2752   62.8755 H   0  0  0  0  0  0  0  0  0  0  0  0
  -38.2194   59.4296   64.9441 C   0  0  0  0  0  0  0  0  0  0  0  0
  -38.8087   60.0601   66.1995 C   0  0  0  0  0  0  0  0  0  0  0  0
  -40.2615   60.4716   66.0227 C   0  0  0  0  0  0  0  0  0  0  0  0
  -41.2519   59.3361   66.2205 C   0  0  0  0  0  0  0  0  0  0  0  0
  -42.3169   59.6242   67.2679 C   0  0  0  0  0  0  0  0  0  0  0  0
  -43.7060   59.1231   66.8937 C   0  0  0  0  0  0  0  0  0  0  0  0
  -43.7199   58.1796   65.6979 C   0  0  0  0  0  0  0  0  0  0  0  0
  -45.1033   57.6560   65.3198 C   0  0  0  0  0  0  0  0  0  0  0  0
  -46.1239   57.7196   66.4549 C   0  0  0  0  0  0  0  0  0  0  0  0
  -47.5636   57.9658   66.0042 C   0  0  0  0  0  0  0  0  0  0  0  0
  -47.9360   59.4471   65.9381 C   0  0  0  0  0  0  0  0  0  0  0  0
  -47.8816   60.0666   64.5418 C   0  0  0  0  0  0  0  0  0  0  0  0
  -49.1898   60.7057   64.0683 C   0  0  0  0  0  0  0  0  0  0  0  0
  -50.4033   59.9213   64.4764 C   0  0  0  0  0  0  0  0  0  0  0  0
  -51.1519   59.1763   63.6825 C   0  0  0  0  0  0  0  0  0  0  0  0
  -50.9384   58.9621   62.2147 C   0  0  0  0  0  0  0  0  0  0  0  0
  -49.8996   57.8850   61.8955 C   0  0  0  0  0  0  0  0  0  0  0  0
  -49.0032   58.2431   60.7175 C   0  0  0  0  0  0  0  0  0  0  0  0
  -49.2062   57.3396   59.5064 C   0  0  0  0  0  0  0  0  0  0  0  0
  -48.3750   56.0619   59.5258 C   0  0  0  0  0  0  0  0  0  0  0  0
  -47.1442   56.1178   58.6318 C   0  0  0  0  0  0  0  0  0  0  0  0
  -47.4359   56.5233   57.1958 C   0  0  0  0  0  0  0  0  0  0  0  0
  -47.1958   57.9972   56.9392 C   0  0  0  0  0  0  0  0  0  0  0  0
  -35.8424   57.0686   64.8893 O   0  0  0  0  0  0  0  0  0  0  0  0
  -35.4370   57.5222   63.5946 C   0  0  0  0  0  0  0  0  0  0  0  0
  -36.6554   56.5457   64.8088 H   0  0  0  0  0  0  0  0  0  0  0  0
  -34.1816   58.3351   63.6804 C   0  0  0  0  0  0  0  0  0  0  0  0
  -33.1864   58.2861   62.8172 C   0  0  0  0  0  0  0  0  0  0  0  0
  -31.9528   59.1214   62.9223 C   0  0  0  0  0  0  0  0  0  0  0  0
  -32.0668   60.3818   62.0623 C   0  0  0  0  0  0  0  0  0  0  0  0
  -30.7414   60.8819   61.5110 C   0  0  0  0  0  0  0  0  0  0  0  0
  -30.0014   61.8358   62.4332 C   0  0  0  0  0  0  0  0  0  0  0  0
  -29.9841   63.2778   61.9472 C   0  0  0  0  0  0  0  0  0  0  0  0
  -30.9450   63.5470   60.7994 C   0  0  0  0  0  0  0  0  0  0  0  0
  -32.0727   64.4995   61.1562 C   0  0  0  0  0  0  0  0  0  0  0  0
  -31.8252   65.9360   60.7349 C   0  0  0  0  0  0  0  0  0  0  0  0
  -30.8201   66.0816   59.6052 C   0  0  0  0  0  0  0  0  0  0  0  0
  -30.3233   67.5050   59.4327 C   0  0  0  0  0  0  0  0  0  0  0  0
  -30.9438   68.2476   58.2648 C   0  0  0  0  0  0  0  0  0  0  0  0
  -30.2986   67.8923   56.9397 C   0  0  0  0  0  0  0  0  0  0  0  0
  -31.2113   67.0727   56.0511 C   0  0  0  0  0  0  0  0  0  0  0  0
  -36.6194   58.1883   61.4583 C   0  0  0  0  0  0  0  0  0  0  0  0
  -37.9135   57.7065   61.0789 O   0  0  0  0  0  0  0  0  0  0  0  0
  -38.9520   60.2978   61.2977 O   0  0  0  0  0  0  0  0  0  0  0  0
  -42.3852   57.7090   61.4805 O   0  0  0  0  0  0  0  0  0  0  0  0
  -39.7370   56.8490   62.2051 O   0  0  0  0  0  0  0  0  0  0  0  0
  -38.9262   57.9909   61.9996 C   0  0  0  0  0  0  0  0  0  0  0  0
  -39.7608   59.1374   61.4435 C   0  0  0  0  0  0  0  0  0  0  0  0
  -40.9319   59.4245   62.3748 C   0  0  0  0  0  0  0  0  0  0  0  0
  -41.7265   58.1586   62.6601 C   0  0  0  0  0  0  0  0  0  0  0  0
  -40.7863   57.0654   63.1620 C   0  0  0  0  0  0  0  0  0  0  0  0
  -38.2107   60.1026   60.7033 H   0  0  0  0  0  0  0  0  0  0  0  0
  -42.9831   58.4023   61.1599 H   0  0  0  0  0  0  0  0  0  0  0  0
  -41.4543   54.9499   62.1788 O   0  0  0  0  0  0  0  0  0  0  0  0
  -41.4748   55.7360   63.3646 C   0  0  0  0  0  0  0  0  0  0  0  0
  -41.9031   54.1056   62.3427 H   0  0  0  0  0  0  0  0  0  0  0  0
  -41.7685   60.3695   61.6356 O   0  0  0  0  0  0  0  0  0  0  0  0
  -43.0407   62.4083   61.4568 O   0  0  0  0  0  0  0  0  0  0  0  0
  -41.5300   62.0132   63.4257 O   0  0  0  0  0  0  0  0  0  0  0  0
  -43.5585   60.8126   63.1429 O   0  0  0  0  0  0  0  0  0  0  0  0
  -42.4320   61.5764   62.4275 S   0  0  0  0  0  0  0  0  0  0  0  0
  -42.3565   62.9074   60.9839 H   0  0  0  0  0  0  0  0  0  0  0  0
  -44.2004   60.4955   62.4885 H   0  0  0  0  0  0  0  0  0  0  0  0
  2  1  1  0  0  0
  2  4  1  0  0  0
  2  5  1  0  0  0
 47 48  1  0  0  0
 47  1  1  0  0  0
 48 52  1  0  0  0
  1 30  1  0  0  0
 29 30  1  0  0  0
 29 31  1  0  0  0
 30 32  1  0  0  0
  3  4  2  0  0  0
 32 33  2  0  0  0
 49 53  1  0  0  0
 49 57  1  0  0  0
 33 34  1  0  0  0
 62 54  1  0  0  0
 62 66  1  0  0  0
 34 35  1  0  0  0
 50 55  1  0  0  0
 50 58  1  0  0  0
 35 36  1  0  0  0
 51 52  1  0  0  0
 51 56  1  0  0  0
 36 37  1  0  0  0
 59 60  1  0  0  0
 59 61  1  0  0  0
 37 38  1  0  0  0
 63 66  1  0  0  0
 63 67  1  0  0  0
 38 39  1  0  0  0
 64 66  1  0  0  0
 39 40  1  0  0  0
 65 66  1  0  0  0
 65 68  1  0  0  0
 40 41  1  0  0  0
 41 42  1  0  0  0
 42 43  1  0  0  0
 43 44  1  0  0  0
 44 45  1  0  0  0
 45 46  1  0  0  0
  4  6  1  0  0  0
  6  7  1  0  0  0
  7  8  1  0  0  0
  8  9  1  0  0  0
  9 10  1  0  0  0
 10 11  1  0  0  0
 11 12  1  0  0  0
 12 13  1  0  0  0
 13 14  1  0  0  0
 14 15  1  0  0  0
 15 16  1  0  0  0
 16 17  1  0  0  0
 17 18  1  0  0  0
 18 19  1  0  0  0
 19 20  2  0  0  0
 20 21  1  0  0  0
 21 22  1  0  0  0
 22 23  1  0  0  0
 23 24  1  0  0  0
 24 25  1  0  0  0
 25 26  1  0  0  0
 26 27  1  0  0  0
 27 28  1  0  0  0
 52 53  1  0  0  0
 53 54  1  0  0  0
 54 55  1  0  0  0
 55 56  1  0  0  0
 56 60  1  0  0  0
M  CHG 1  64  -1
M  END
> <minimizedAffinity>
-8.86142

> <CNNscore>
0.1715395153

> <CNNaffinity>
6.8415312767

> <CNN_VS>
1.1735929251

> <CNNaffinity_variance>
1.3418432474

$$$$
/media/chris/experiments/cd1a-new-docking/inputs/ligands/7ryn_ligand.pdb


 68 68  0  0  0  0  0  0  0  0999 V2000
  -38.9097   58.4325   63.7257 C   0  0  0  0  0  0  0  0  0  0  0  0
  -39.5218   57.1439   64.0361 N   0  0  0  0  0  0  0  0  0  0  0  0
  -41.3486   55.8583   64.3152 O   0  0  0  0  0  0  0  0  0  0  0  0
  -40.8422   56.9424   64.0407 C   0  0  0  0  0  0  0  0  0  0  0  0
  -38.9321   56.3859   64.2527 H   0  0  0  0  0  0  0  0  0  0  0  0
  -41.6865   58.1426   63.6915 C   0  0  0  0  0  0  0  0  0  0  0  0
  -41.7660   58.3847   62.1896 C   0  0  0  0  0  0  0  0  0  0  0  0
  -41.8532   59.8610   61.8372 C   0  0  0  0  0  0  0  0  0  0  0  0
  -42.7741   60.6580   62.7462 C   0  0  0  0  0  0  0  0  0  0  0  0
  -42.0404   61.5084   63.7723 C   0  0  0  0  0  0  0  0  0  0  0  0
  -41.4806   60.7167   64.9473 C   0  0  0  0  0  0  0  0  0  0  0  0
  -41.8417   61.2957   66.3092 C   0  0  0  0  0  0  0  0  0  0  0  0
  -42.4901   60.3012   67.2689 C   0  0  0  0  0  0  0  0  0  0  0  0
  -42.1211   58.8437   66.9972 C   0  0  0  0  0  0  0  0  0  0  0  0
  -43.3148   57.9137   66.7815 C   0  0  0  0  0  0  0  0  0  0  0  0
  -44.5367   58.6182   66.1917 C   0  0  0  0  0  0  0  0  0  0  0  0
  -45.8862   58.0547   66.6364 C   0  0  0  0  0  0  0  0  0  0  0  0
  -46.9671   58.0382   65.5522 C   0  0  0  0  0  0  0  0  0  0  0  0
  -47.4806   59.4093   65.2196 C   0  0  0  0  0  0  0  0  0  0  0  0
  -48.7132   59.7107   64.8514 C   0  0  0  0  0  0  0  0  0  0  0  0
  -49.8479   58.7444   64.6944 C   0  0  0  0  0  0  0  0  0  0  0  0
  -50.9952   59.2782   63.8342 C   0  0  0  0  0  0  0  0  0  0  0  0
  -50.6844   59.2703   62.3433 C   0  0  0  0  0  0  0  0  0  0  0  0
  -50.9029   57.9117   61.6871 C   0  0  0  0  0  0  0  0  0  0  0  0
  -49.6946   57.3761   60.9274 C   0  0  0  0  0  0  0  0  0  0  0  0
  -49.1047   58.3688   59.9357 C   0  0  0  0  0  0  0  0  0  0  0  0
  -48.2644   57.7303   58.8412 C   0  0  0  0  0  0  0  0  0  0  0  0
  -47.7953   56.3341   59.1971 C   0  0  0  0  0  0  0  0  0  0  0  0
  -38.5782   57.3844   61.5748 O   0  0  0  0  0  0  0  0  0  0  0  0
  -37.9727   58.2737   62.5176 C   0  0  0  0  0  0  0  0  0  0  0  0
  -39.4494   57.7269   61.3207 H   0  0  0  0  0  0  0  0  0  0  0  0
  -36.6225   57.7755   62.9335 C   0  0  0  0  0  0  0  0  0  0  0  0
  -35.5007   57.9859   62.2739 C   0  0  0  0  0  0  0  0  0  0  0  0
  -34.1661   57.4879   62.7230 C   0  0  0  0  0  0  0  0  0  0  0  0
  -33.0350   58.3147   62.1081 C   0  0  0  0  0  0  0  0  0  0  0  0
  -32.3993   59.3100   63.0653 C   0  0  0  0  0  0  0  0  0  0  0  0
  -31.7497   60.5031   62.3854 C   0  0  0  0  0  0  0  0  0  0  0  0
  -30.2763   60.3041   62.0614 C   0  0  0  0  0  0  0  0  0  0  0  0
  -29.3615   61.3191   62.7295 C   0  0  0  0  0  0  0  0  0  0  0  0
  -29.9464   62.7189   62.7967 C   0  0  0  0  0  0  0  0  0  0  0  0
  -29.5126   63.6254   61.6599 C   0  0  0  0  0  0  0  0  0  0  0  0
  -30.5993   64.5711   61.1778 C   0  0  0  0  0  0  0  0  0  0  0  0
  -30.2660   65.2320   59.8531 C   0  0  0  0  0  0  0  0  0  0  0  0
  -30.9660   66.5574   59.6209 C   0  0  0  0  0  0  0  0  0  0  0  0
  -31.0321   66.9320   58.1533 C   0  0  0  0  0  0  0  0  0  0  0  0
  -29.8456   66.4126   57.3679 C   0  0  0  0  0  0  0  0  0  0  0  0
  -38.1837   58.9691   64.9420 C   0  0  0  0  0  0  0  0  0  0  0  0
  -38.2985   60.3966   64.9416 O   0  0  0  0  0  0  0  0  0  0  0  0
  -36.7312   60.9279   62.6827 O   0  0  0  0  0  0  0  0  0  0  0  0
  -36.5831   64.5452   65.0099 O   0  0  0  0  0  0  0  0  0  0  0  0
  -37.1235   61.9648   66.1619 O   0  0  0  0  0  0  0  0  0  0  0  0
  -37.0807   61.0720   65.0644 C   0  0  0  0  0  0  0  0  0  0  0  0
  -36.8335   61.8376   63.7709 C   0  0  0  0  0  0  0  0  0  0  0  0
  -35.5571   62.6603   63.8921 C   0  0  0  0  0  0  0  0  0  0  0  0
  -35.5870   63.5356   65.1365 C   0  0  0  0  0  0  0  0  0  0  0  0
  -35.8912   62.6758   66.3608 C   0  0  0  0  0  0  0  0  0  0  0  0
  -37.5489   60.4104   62.6159 H   0  0  0  0  0  0  0  0  0  0  0  0
  -36.3916   65.0927   64.2325 H   0  0  0  0  0  0  0  0  0  0  0  0
  -36.5882   62.6946   68.6851 O   0  0  0  0  0  0  0  0  0  0  0  0
  -36.0508   63.4818   67.6286 C   0  0  0  0  0  0  0  0  0  0  0  0
  -36.6776   63.2406   69.4819 H   0  0  0  0  0  0  0  0  0  0  0  0
  -35.5490   63.5075   62.6998 O   0  0  0  0  0  0  0  0  0  0  0  0
  -33.1699   63.7385   63.0056 O   0  0  0  0  0  0  0  0  0  0  0  0
  -34.6127   65.7618   62.6321 O   0  0  0  0  0  0  0  0  0  0  0  0
  -34.1615   64.2075   60.8952 O   0  0  0  0  0  0  0  0  0  0  0  0
  -34.2703   64.4064   62.4159 S   0  0  0  0  0  0  0  0  0  0  0  0
  -33.2065   63.8434   63.9692 H   0  0  0  0  0  0  0  0  0  0  0  0
  -33.9269   63.2856   60.7056 H   0  0  0  0  0  0  0  0  0  0  0  0
  2  1  1  0  0  0
  2  4  1  0  0  0
  2  5  1  0  0  0
 47 48  1  0  0  0
 47  1  1  0  0  0
 48 52  1  0  0  0
  1 30  1  0  0  0
 29 30  1  0  0  0
 29 31  1  0  0  0
 30 32  1  0  0  0
  3  4  2  0  0  0
 32 33  2  0  0  0
 49 53  1  0  0  0
 49 57  1  0  0  0
 33 34  1  0  0  0
 62 54  1  0  0  0
 62 66  1  0  0  0
 34 35  1  0  0  0
 50 55  1  0  0  0
 50 58  1  0  0  0
 35 36  1  0  0  0
 51 52  1  0  0  0
 51 56  1  0  0  0
 36 37  1  0  0  0
 59 60  1  0  0  0
 59 61  1  0  0  0
 37 38  1  0  0  0
 63 66  1  0  0  0
 63 67  1  0  0  0
 38 39  1  0  0  0
 64 66  1  0  0  0
 39 40  1  0  0  0
 65 66  1  0  0  0
 65 68  1  0  0  0
 40 41  1  0  0  0
 41 42  1  0  0  0
 42 43  1  0  0  0
 43 44  1  0  0  0
 44 45  1  0  0  0
 45 46  1  0  0  0
  4  6  1  0  0  0
  6  7  1  0  0  0
  7  8  1  0  0  0
  8  9  1  0  0  0
  9 10  1  0  0  0
 10 11  1  0  0  0
 11 12  1  0  0  0
 12 13  1  0  0  0
 13 14  1  0  0  0
 14 15  1  0  0  0
 15 16  1  0  0  0
 16 17  1  0  0  0
 17 18  1  0  0  0
 18 19  1  0  0  0
 19 20  2  0  0  0
 20 21  1  0  0  0
 21 22  1  0  0  0
 22 23  1  0  0  0
 23 24  1  0  0  0
 24 25  1  0  0  0
 25 26  1  0  0  0
 26 27  1  0  0  0
 27 28  1  0  0  0
 52 53  1  0  0  0
 53 54  1  0  0  0
 54 55  1  0  0  0
 55 56  1  0  0  0
 56 60  1  0  0  0
M  CHG 1  64  -1
M  END
> <minimizedAffinity>
-8.97686

> <CNNscore>
0.1527006328

> <CNNaffinity>
6.9758734703

> <CNN_VS>
1.0652202368

> <CNNaffinity_variance>
1.7252571583

$$$$
/media/chris/experiments/cd1a-new-docking/inputs/ligands/7ryn_ligand.pdb


 68 68  0  0  0  0  0  0  0  0999 V2000
  -40.0215   59.9678   66.0998 C   0  0  0  0  0  0  0  0  0  0  0  0
  -39.9772   58.6723   65.4282 N   0  0  0  0  0  0  0  0  0  0  0  0
  -40.2209   57.4152   63.5767 O   0  0  0  0  0  0  0  0  0  0  0  0
  -40.2483   58.5105   64.1303 C   0  0  0  0  0  0  0  0  0  0  0  0
  -39.7356   57.8786   65.9582 H   0  0  0  0  0  0  0  0  0  0  0  0
  -40.6022   59.7679   63.3761 C   0  0  0  0  0  0  0  0  0  0  0  0
  -41.8899   59.6262   62.5745 C   0  0  0  0  0  0  0  0  0  0  0  0
  -42.0007   60.6509   61.4568 C   0  0  0  0  0  0  0  0  0  0  0  0
  -41.4798   60.1593   60.1165 C   0  0  0  0  0  0  0  0  0  0  0  0
  -41.4636   58.6441   59.9810 C   0  0  0  0  0  0  0  0  0  0  0  0
  -40.0749   58.0270   60.0884 C   0  0  0  0  0  0  0  0  0  0  0  0
  -38.9402   59.0208   59.8759 C   0  0  0  0  0  0  0  0  0  0  0  0
  -37.6314   58.6453   60.5663 C   0  0  0  0  0  0  0  0  0  0  0  0
  -37.7842   57.5831   61.6537 C   0  0  0  0  0  0  0  0  0  0  0  0
  -36.6243   57.5164   62.6469 C   0  0  0  0  0  0  0  0  0  0  0  0
  -35.3095   58.0575   62.0848 C   0  0  0  0  0  0  0  0  0  0  0  0
  -34.0473   57.5188   62.7578 C   0  0  0  0  0  0  0  0  0  0  0  0
  -33.6175   58.2721   64.0195 C   0  0  0  0  0  0  0  0  0  0  0  0
  -33.5788   59.7604   63.8255 C   0  0  0  0  0  0  0  0  0  0  0  0
  -32.6869   60.4302   63.1172 C   0  0  0  0  0  0  0  0  0  0  0  0
  -31.5355   59.8382   62.3623 C   0  0  0  0  0  0  0  0  0  0  0  0
  -30.7827   60.8506   61.4966 C   0  0  0  0  0  0  0  0  0  0  0  0
  -29.3485   61.0842   61.9526 C   0  0  0  0  0  0  0  0  0  0  0  0
  -29.1756   62.3540   62.7784 C   0  0  0  0  0  0  0  0  0  0  0  0
  -29.8258   63.5933   62.1741 C   0  0  0  0  0  0  0  0  0  0  0  0
  -30.5448   64.4667   63.1927 C   0  0  0  0  0  0  0  0  0  0  0  0
  -30.5238   63.9159   64.6097 C   0  0  0  0  0  0  0  0  0  0  0  0
  -31.9112   63.6674   65.1660 C   0  0  0  0  0  0  0  0  0  0  0  0
  -41.4405   61.8766   66.5212 O   0  0  0  0  0  0  0  0  0  0  0  0
  -41.4441   60.5422   66.0056 C   0  0  0  0  0  0  0  0  0  0  0  0
  -40.7960   62.4109   66.0312 H   0  0  0  0  0  0  0  0  0  0  0  0
  -42.4301   59.6865   66.7404 C   0  0  0  0  0  0  0  0  0  0  0  0
  -43.3777   58.9656   66.1745 C   0  0  0  0  0  0  0  0  0  0  0  0
  -44.3371   58.1097   66.9346 C   0  0  0  0  0  0  0  0  0  0  0  0
  -45.7801   58.5639   66.7058 C   0  0  0  0  0  0  0  0  0  0  0  0
  -46.6398   57.5560   65.9604 C   0  0  0  0  0  0  0  0  0  0  0  0
  -47.9316   58.1284   65.4022 C   0  0  0  0  0  0  0  0  0  0  0  0
  -47.7317   59.0819   64.2332 C   0  0  0  0  0  0  0  0  0  0  0  0
  -48.6216   60.3141   64.2910 C   0  0  0  0  0  0  0  0  0  0  0  0
  -50.1017   60.0071   64.1462 C   0  0  0  0  0  0  0  0  0  0  0  0
  -50.5362   59.7156   62.7219 C   0  0  0  0  0  0  0  0  0  0  0  0
  -51.0712   58.3087   62.5173 C   0  0  0  0  0  0  0  0  0  0  0  0
  -50.4437   57.6020   61.3302 C   0  0  0  0  0  0  0  0  0  0  0  0
  -49.0937   58.1544   60.9145 C   0  0  0  0  0  0  0  0  0  0  0  0
  -48.8863   58.1173   59.4131 C   0  0  0  0  0  0  0  0  0  0  0  0
  -47.8639   57.0812   58.9940 C   0  0  0  0  0  0  0  0  0  0  0  0
  -38.9906   60.9004   65.4980 C   0  0  0  0  0  0  0  0  0  0  0  0
  -37.7427   60.2023   65.4202 O   0  0  0  0  0  0  0  0  0  0  0  0
  -36.7835   60.8888   62.8806 O   0  0  0  0  0  0  0  0  0  0  0  0
  -36.6118   64.5391   65.1539 O   0  0  0  0  0  0  0  0  0  0  0  0
  -36.5479   61.9332   66.3716 O   0  0  0  0  0  0  0  0  0  0  0  0
  -36.6264   61.0324   65.2826 C   0  0  0  0  0  0  0  0  0  0  0  0
  -36.7668   61.7984   63.9735 C   0  0  0  0  0  0  0  0  0  0  0  0
  -35.6133   62.7822   63.8230 C   0  0  0  0  0  0  0  0  0  0  0  0
  -35.4883   63.6701   65.0524 C   0  0  0  0  0  0  0  0  0  0  0  0
  -35.4057   62.8020   66.3055 C   0  0  0  0  0  0  0  0  0  0  0  0
  -37.5213   60.2682   62.9877 H   0  0  0  0  0  0  0  0  0  0  0  0
  -36.6660   65.0916   64.3585 H   0  0  0  0  0  0  0  0  0  0  0  0
  -36.4085   63.1754   68.4834 O   0  0  0  0  0  0  0  0  0  0  0  0
  -35.3920   63.6049   67.5851 C   0  0  0  0  0  0  0  0  0  0  0  0
  -36.3721   63.7097   69.2923 H   0  0  0  0  0  0  0  0  0  0  0  0
  -35.9740   63.5999   62.6651 O   0  0  0  0  0  0  0  0  0  0  0  0
  -33.7258   63.4058   61.8194 O   0  0  0  0  0  0  0  0  0  0  0  0
  -34.7365   65.6649   62.2558 O   0  0  0  0  0  0  0  0  0  0  0  0
  -35.4521   64.3005   60.4495 O   0  0  0  0  0  0  0  0  0  0  0  0
  -34.8130   64.3126   61.8479 S   0  0  0  0  0  0  0  0  0  0  0  0
  -33.2971   63.3877   62.6894 H   0  0  0  0  0  0  0  0  0  0  0  0
  -35.5220   63.3860   60.1339 H   0  0  0  0  0  0  0  0  0  0  0  0
  2  1  1  0  0  0
  2  4  1  0  0  0
  2  5  1  0  0  0
 47 48  1  0  0  0
 47  1  1  0  0  0
 48 52  1  0  0  0
  1 30  1  0  0  0
 29 30  1  0  0  0
 29 31  1  0  0  0
 30 32  1  0  0  0
  3  4  2  0  0  0
 32 33  2  0  0  0
 49 53  1  0  0  0
 49 57  1  0  0  0
 33 34  1  0  0  0
 62 54  1  0  0  0
 62 66  1  0  0  0
 34 35  1  0  0  0
 50 55  1  0  0  0
 50 58  1  0  0  0
 35 36  1  0  0  0
 51 52  1  0  0  0
 51 56  1  0  0  0
 36 37  1  0  0  0
 59 60  1  0  0  0
 59 61  1  0  0  0
 37 38  1  0  0  0
 63 66  1  0  0  0
 63 67  1  0  0  0
 38 39  1  0  0  0
 64 66  1  0  0  0
 39 40  1  0  0  0
 65 66  1  0  0  0
 65 68  1  0  0  0
 40 41  1  0  0  0
 41 42  1  0  0  0
 42 43  1  0  0  0
 43 44  1  0  0  0
 44 45  1  0  0  0
 45 46  1  0  0  0
  4  6  1  0  0  0
  6  7  1  0  0  0
  7  8  1  0  0  0
  8  9  1  0  0  0
  9 10  1  0  0  0
 10 11  1  0  0  0
 11 12  1  0  0  0
 12 13  1  0  0  0
 13 14  1  0  0  0
 14 15  1  0  0  0
 15 16  1  0  0  0
 16 17  1  0  0  0
 17 18  1  0  0  0
 18 19  1  0  0  0
 19 20  2  0  0  0
 20 21  1  0  0  0
 21 22  1  0  0  0
 22 23  1  0  0  0
 23 24  1  0  0  0
 24 25  1  0  0  0
 25 26  1  0  0  0
 26 27  1  0  0  0
 27 28  1  0  0  0
 52 53  1  0  0  0
 53 54  1  0  0  0
 54 55  1  0  0  0
 55 56  1  0  0  0
 56 60  1  0  0  0
M  CHG 1  64  -1
M  END
> <minimizedAffinity>
-9.42198

> <CNNscore>
0.1518544704

> <CNNaffinity>
7.2399740219

> <CNN_VS>
1.0994224548

> <CNNaffinity_variance>
2.0610084534

$$$$
/media/chris/experiments/cd1a-new-docking/inputs/ligands/7ryn_ligand.pdb


 68 68  0  0  0  0  0  0  0  0999 V2000
  -34.9414   62.0604   64.3403 C   0  0  0  0  0  0  0  0  0  0  0  0
  -35.2895   62.3140   65.7353 N   0  0  0  0  0  0  0  0  0  0  0  0
  -36.7594   62.2162   67.4375 O   0  0  0  0  0  0  0  0  0  0  0  0
  -36.4708   61.9877   66.2664 C   0  0  0  0  0  0  0  0  0  0  0  0
  -34.6203   62.7471   66.3131 H   0  0  0  0  0  0  0  0  0  0  0  0
  -37.4454   61.3197   65.3288 C   0  0  0  0  0  0  0  0  0  0  0  0
  -37.8285   59.9177   65.7850 C   0  0  0  0  0  0  0  0  0  0  0  0
  -39.2976   59.8036   66.1594 C   0  0  0  0  0  0  0  0  0  0  0  0
  -40.2325   60.5452   65.2183 C   0  0  0  0  0  0  0  0  0  0  0  0
  -41.7008   60.4430   65.6031 C   0  0  0  0  0  0  0  0  0  0  0  0
  -41.9619   59.5748   66.8273 C   0  0  0  0  0  0  0  0  0  0  0  0
  -43.2227   58.7262   66.7242 C   0  0  0  0  0  0  0  0  0  0  0  0
  -43.7478   58.5416   65.3027 C   0  0  0  0  0  0  0  0  0  0  0  0
  -45.2698   58.4468   65.2092 C   0  0  0  0  0  0  0  0  0  0  0  0
  -45.8982   57.3815   66.1073 C   0  0  0  0  0  0  0  0  0  0  0  0
  -46.7548   57.9620   67.2328 C   0  0  0  0  0  0  0  0  0  0  0  0
  -47.4195   59.3013   66.9154 C   0  0  0  0  0  0  0  0  0  0  0  0
  -48.6649   59.2094   66.0295 C   0  0  0  0  0  0  0  0  0  0  0  0
  -48.7962   60.3696   65.0856 C   0  0  0  0  0  0  0  0  0  0  0  0
  -49.6017   60.4353   64.0403 C   0  0  0  0  0  0  0  0  0  0  0  0
  -50.5487   59.3654   63.5881 C   0  0  0  0  0  0  0  0  0  0  0  0
  -49.9125   58.3381   62.6495 C   0  0  0  0  0  0  0  0  0  0  0  0
  -50.7945   57.9817   61.4601 C   0  0  0  0  0  0  0  0  0  0  0  0
  -50.1834   56.9223   60.5499 C   0  0  0  0  0  0  0  0  0  0  0  0
  -48.7338   57.1861   60.1589 C   0  0  0  0  0  0  0  0  0  0  0  0
  -48.5821   58.0352   58.9046 C   0  0  0  0  0  0  0  0  0  0  0  0
  -48.0141   57.2851   57.7102 C   0  0  0  0  0  0  0  0  0  0  0  0
  -46.8081   57.9718   57.1021 C   0  0  0  0  0  0  0  0  0  0  0  0
  -32.7818   61.1744   63.7190 O   0  0  0  0  0  0  0  0  0  0  0  0
  -34.0558   60.8068   64.2560 C   0  0  0  0  0  0  0  0  0  0  0  0
  -32.3858   61.8668   64.2710 H   0  0  0  0  0  0  0  0  0  0  0  0
  -34.6982   59.7371   63.4271 C   0  0  0  0  0  0  0  0  0  0  0  0
  -34.8147   58.4723   63.7800 C   0  0  0  0  0  0  0  0  0  0  0  0
  -35.4749   57.4312   62.9367 C   0  0  0  0  0  0  0  0  0  0  0  0
  -36.9955   57.4728   63.1012 C   0  0  0  0  0  0  0  0  0  0  0  0
  -37.7262   58.1700   61.9652 C   0  0  0  0  0  0  0  0  0  0  0  0
  -38.2794   59.5384   62.3249 C   0  0  0  0  0  0  0  0  0  0  0  0
  -38.6067   60.4097   61.1209 C   0  0  0  0  0  0  0  0  0  0  0  0
  -39.0954   59.6244   59.9135 C   0  0  0  0  0  0  0  0  0  0  0  0
  -40.6071   59.5040   59.8330 C   0  0  0  0  0  0  0  0  0  0  0  0
  -41.1061   58.0802   59.6724 C   0  0  0  0  0  0  0  0  0  0  0  0
  -41.9642   57.5947   60.8282 C   0  0  0  0  0  0  0  0  0  0  0  0
  -41.8306   58.4572   62.0695 C   0  0  0  0  0  0  0  0  0  0  0  0
  -41.2159   57.7484   63.2613 C   0  0  0  0  0  0  0  0  0  0  0  0
  -41.4256   56.2474   63.2180 C   0  0  0  0  0  0  0  0  0  0  0  0
  -41.7537   55.6679   64.5785 C   0  0  0  0  0  0  0  0  0  0  0  0
  -34.2634   63.2768   63.7446 C   0  0  0  0  0  0  0  0  0  0  0  0
  -34.2083   64.2979   64.7472 O   0  0  0  0  0  0  0  0  0  0  0  0
  -31.6800   63.2870   65.4005 O   0  0  0  0  0  0  0  0  0  0  0  0
  -31.0456   65.6584   61.8655 O   0  0  0  0  0  0  0  0  0  0  0  0
  -33.2430   66.0971   63.6701 O   0  0  0  0  0  0  0  0  0  0  0  0
  -33.0761   65.1147   64.6753 C   0  0  0  0  0  0  0  0  0  0  0  0
  -31.8769   64.2314   64.3558 C   0  0  0  0  0  0  0  0  0  0  0  0
  -30.6319   65.0919   64.1813 C   0  0  0  0  0  0  0  0  0  0  0  0
  -30.8727   66.2029   63.1698 C   0  0  0  0  0  0  0  0  0  0  0  0
  -32.1222   66.9888   63.5594 C   0  0  0  0  0  0  0  0  0  0  0  0
  -32.4786   62.7458   65.5018 H   0  0  0  0  0  0  0  0  0  0  0  0
  -30.2526   65.1586   61.6161 H   0  0  0  0  0  0  0  0  0  0  0  0
  -33.6346   68.7925   62.9694 O   0  0  0  0  0  0  0  0  0  0  0  0
  -32.5008   68.0438   62.5465 C   0  0  0  0  0  0  0  0  0  0  0  0
  -33.8505   69.4591   62.2985 H   0  0  0  0  0  0  0  0  0  0  0  0
  -29.6175   64.1734   63.6649 O   0  0  0  0  0  0  0  0  0  0  0  0
  -29.2266   63.7406   61.3267 O   0  0  0  0  0  0  0  0  0  0  0  0
  -31.3843   63.0461   62.4117 O   0  0  0  0  0  0  0  0  0  0  0  0
  -29.3351   61.9426   62.8800 O   0  0  0  0  0  0  0  0  0  0  0  0
  -29.9857   63.2576   62.4201 S   0  0  0  0  0  0  0  0  0  0  0  0
  -29.6103   64.5731   61.0094 H   0  0  0  0  0  0  0  0  0  0  0  0
  -28.3710   62.0481   62.8988 H   0  0  0  0  0  0  0  0  0  0  0  0
  2  1  1  0  0  0
  2  4  1  0  0  0
  2  5  1  0  0  0
 47 48  1  0  0  0
 47  1  1  0  0  0
 48 52  1  0  0  0
  1 30  1  0  0  0
 29 30  1  0  0  0
 29 31  1  0  0  0
 30 32  1  0  0  0
  3  4  2  0  0  0
 32 33  2  0  0  0
 49 53  1  0  0  0
 49 57  1  0  0  0
 33 34  1  0  0  0
 62 54  1  0  0  0
 62 66  1  0  0  0
 34 35  1  0  0  0
 50 55  1  0  0  0
 50 58  1  0  0  0
 35 36  1  0  0  0
 51 52  1  0  0  0
 51 56  1  0  0  0
 36 37  1  0  0  0
 59 60  1  0  0  0
 59 61  1  0  0  0
 37 38  1  0  0  0
 63 66  1  0  0  0
 63 67  1  0  0  0
 38 39  1  0  0  0
 64 66  1  0  0  0
 39 40  1  0  0  0
 65 66  1  0  0  0
 65 68  1  0  0  0
 40 41  1  0  0  0
 41 42  1  0  0  0
 42 43  1  0  0  0
 43 44  1  0  0  0
 44 45  1  0  0  0
 45 46  1  0  0  0
  4  6  1  0  0  0
  6  7  1  0  0  0
  7  8  1  0  0  0
  8  9  1  0  0  0
  9 10  1  0  0  0
 10 11  1  0  0  0
 11 12  1  0  0  0
 12 13  1  0  0  0
 13 14  1  0  0  0
 14 15  1  0  0  0
 15 16  1  0  0  0
 16 17  1  0  0  0
 17 18  1  0  0  0
 18 19  1  0  0  0
 19 20  2  0  0  0
 20 21  1  0  0  0
 21 22  1  0  0  0
 22 23  1  0  0  0
 23 24  1  0  0  0
 24 25  1  0  0  0
 25 26  1  0  0  0
 26 27  1  0  0  0
 27 28  1  0  0  0
 52 53  1  0  0  0
 53 54  1  0  0  0
 54 55  1  0  0  0
 55 56  1  0  0  0
 56 60  1  0  0  0
M  CHG 1  64  -1
M  END
> <minimizedAffinity>
-8.47694

> <CNNscore>
0.1443567723

> <CNNaffinity>
7.1753587723

> <CNN_VS>
1.0358116627

> <CNNaffinity_variance>
1.2470868826

$$$$
/media/chris/experiments/cd1a-new-docking/inputs/ligands/7ryn_ligand.pdb


 68 68  0  0  0  0  0  0  0  0999 V2000
  -35.1028   60.5543   64.3527 C   0  0  0  0  0  0  0  0  0  0  0  0
  -35.3044   61.3660   65.5492 N   0  0  0  0  0  0  0  0  0  0  0  0
  -36.6690   62.3022   67.0754 O   0  0  0  0  0  0  0  0  0  0  0  0
  -36.5078   61.6079   66.0760 C   0  0  0  0  0  0  0  0  0  0  0  0
  -34.5143   61.7543   65.9898 H   0  0  0  0  0  0  0  0  0  0  0  0
  -37.6736   60.9759   65.3571 C   0  0  0  0  0  0  0  0  0  0  0  0
  -38.6762   60.3423   66.3130 C   0  0  0  0  0  0  0  0  0  0  0  0
  -40.0474   60.1530   65.6842 C   0  0  0  0  0  0  0  0  0  0  0  0
  -40.7199   58.8419   66.0557 C   0  0  0  0  0  0  0  0  0  0  0  0
  -42.1569   59.0002   66.5293 C   0  0  0  0  0  0  0  0  0  0  0  0
  -42.8684   57.6811   66.8027 C   0  0  0  0  0  0  0  0  0  0  0  0
  -44.1861   57.5245   66.0547 C   0  0  0  0  0  0  0  0  0  0  0  0
  -45.2422   58.5695   66.4058 C   0  0  0  0  0  0  0  0  0  0  0  0
  -46.3921   58.0306   67.2553 C   0  0  0  0  0  0  0  0  0  0  0  0
  -47.3157   57.0520   66.5304 C   0  0  0  0  0  0  0  0  0  0  0  0
  -48.1513   57.7054   65.4293 C   0  0  0  0  0  0  0  0  0  0  0  0
  -49.5797   58.0714   65.8317 C   0  0  0  0  0  0  0  0  0  0  0  0
  -49.9539   59.5404   65.6171 C   0  0  0  0  0  0  0  0  0  0  0  0
  -51.1412   59.7140   64.7146 C   0  0  0  0  0  0  0  0  0  0  0  0
  -51.1141   59.7700   63.3948 C   0  0  0  0  0  0  0  0  0  0  0  0
  -49.8924   59.6684   62.5327 C   0  0  0  0  0  0  0  0  0  0  0  0
  -49.7237   58.3024   61.8643 C   0  0  0  0  0  0  0  0  0  0  0  0
  -50.4131   58.2056   60.5097 C   0  0  0  0  0  0  0  0  0  0  0  0
  -49.6161   57.4118   59.4808 C   0  0  0  0  0  0  0  0  0  0  0  0
  -48.2822   56.8781   59.9905 C   0  0  0  0  0  0  0  0  0  0  0  0
  -47.2696   56.6045   58.8874 C   0  0  0  0  0  0  0  0  0  0  0  0
  -47.8601   56.6061   57.4863 C   0  0  0  0  0  0  0  0  0  0  0  0
  -47.3741   57.7675   56.6432 C   0  0  0  0  0  0  0  0  0  0  0  0
  -33.3518   58.9015   64.1603 O   0  0  0  0  0  0  0  0  0  0  0  0
  -34.6248   59.1521   64.7628 C   0  0  0  0  0  0  0  0  0  0  0  0
  -32.7266   59.5942   64.4254 H   0  0  0  0  0  0  0  0  0  0  0  0
  -35.6178   58.0997   64.3747 C   0  0  0  0  0  0  0  0  0  0  0  0
  -36.7782   58.3301   63.7932 C   0  0  0  0  0  0  0  0  0  0  0  0
  -37.7412   57.2566   63.4045 C   0  0  0  0  0  0  0  0  0  0  0  0
  -38.0336   57.2970   61.9032 C   0  0  0  0  0  0  0  0  0  0  0  0
  -37.1919   58.3002   61.1312 C   0  0  0  0  0  0  0  0  0  0  0  0
  -37.9516   59.0549   60.0536 C   0  0  0  0  0  0  0  0  0  0  0  0
  -39.2665   59.6556   60.5289 C   0  0  0  0  0  0  0  0  0  0  0  0
  -40.4699   59.2179   59.7081 C   0  0  0  0  0  0  0  0  0  0  0  0
  -40.8941   57.7820   59.9620 C   0  0  0  0  0  0  0  0  0  0  0  0
  -42.0954   57.6452   60.8786 C   0  0  0  0  0  0  0  0  0  0  0  0
  -41.8322   58.0863   62.3083 C   0  0  0  0  0  0  0  0  0  0  0  0
  -43.0371   58.7399   62.9590 C   0  0  0  0  0  0  0  0  0  0  0  0
  -42.8425   60.2024   63.3107 C   0  0  0  0  0  0  0  0  0  0  0  0
  -42.2746   61.0080   62.1587 C   0  0  0  0  0  0  0  0  0  0  0  0
  -43.0312   62.2992   61.9250 C   0  0  0  0  0  0  0  0  0  0  0  0
  -34.1249   61.2382   63.4197 C   0  0  0  0  0  0  0  0  0  0  0  0
  -34.7163   62.4604   62.9646 O   0  0  0  0  0  0  0  0  0  0  0  0
  -34.1018   64.1669   65.0981 O   0  0  0  0  0  0  0  0  0  0  0  0
  -30.3257   63.3706   63.1931 O   0  0  0  0  0  0  0  0  0  0  0  0
  -32.8446   63.1734   61.8169 O   0  0  0  0  0  0  0  0  0  0  0  0
  -33.8094   63.5108   62.7961 C   0  0  0  0  0  0  0  0  0  0  0  0
  -33.1329   63.7695   64.1361 C   0  0  0  0  0  0  0  0  0  0  0  0
  -32.0709   64.8505   63.9798 C   0  0  0  0  0  0  0  0  0  0  0  0
  -31.1071   64.5110   62.8523 C   0  0  0  0  0  0  0  0  0  0  0  0
  -31.8931   64.2223   61.5757 C   0  0  0  0  0  0  0  0  0  0  0  0
  -34.7718   63.4713   65.1885 H   0  0  0  0  0  0  0  0  0  0  0  0
  -29.8255   63.5520   64.0041 H   0  0  0  0  0  0  0  0  0  0  0  0
  -30.2501   64.8387   59.8997 O   0  0  0  0  0  0  0  0  0  0  0  0
  -31.0200   63.7661   60.4303 C   0  0  0  0  0  0  0  0  0  0  0  0
  -29.7024   64.5127   59.1683 H   0  0  0  0  0  0  0  0  0  0  0  0
  -31.3517   64.8486   65.2535 O   0  0  0  0  0  0  0  0  0  0  0  0
  -30.7632   66.1111   67.2200 O   0  0  0  0  0  0  0  0  0  0  0  0
  -31.3879   67.2847   65.0875 O   0  0  0  0  0  0  0  0  0  0  0  0
  -29.3352   66.1143   65.3178 O   0  0  0  0  0  0  0  0  0  0  0  0
  -30.7879   66.2261   65.8089 S   0  0  0  0  0  0  0  0  0  0  0  0
  -31.6671   66.1774   67.5657 H   0  0  0  0  0  0  0  0  0  0  0  0
  -28.8882   65.3955   65.7915 H   0  0  0  0  0  0  0  0  0  0  0  0
  2  1  1  0  0  0
  2  4  1  0  0  0
  2  5  1  0  0  0
 47 48  1  0  0  0
 47  1  1  0  0  0
 48 52  1  0  0  0
  1 30  1  0  0  0
 29 30  1  0  0  0
 29 31  1  0  0  0
 30 32  1  0  0  0
  3  4  2  0  0  0
 32 33  2  0  0  0
 49 53  1  0  0  0
 49 57  1  0  0  0
 33 34  1  0  0  0
 62 54  1  0  0  0
 62 66  1  0  0  0
 34 35  1  0  0  0
 50 55  1  0  0  0
 50 58  1  0  0  0
 35 36  1  0  0  0
 51 52  1  0  0  0
 51 56  1  0  0  0
 36 37  1  0  0  0
 59 60  1  0  0  0
 59 61  1  0  0  0
 37 38  1  0  0  0
 63 66  1  0  0  0
 63 67  1  0  0  0
 38 39  1  0  0  0
 64 66  1  0  0  0
 39 40  1  0  0  0
 65 66  1  0  0  0
 65 68  1  0  0  0
 40 41  1  0  0  0
 41 42  1  0  0  0
 42 43  1  0  0  0
 43 44  1  0  0  0
 44 45  1  0  0  0
 45 46  1  0  0  0
  4  6  1  0  0  0
  6  7  1  0  0  0
  7  8  1  0  0  0
  8  9  1  0  0  0
  9 10  1  0  0  0
 10 11  1  0  0  0
 11 12  1  0  0  0
 12 13  1  0  0  0
 13 14  1  0  0  0
 14 15  1  0  0  0
 15 16  1  0  0  0
 16 17  1  0  0  0
 17 18  1  0  0  0
 18 19  1  0  0  0
 19 20  2  0  0  0
 20 21  1  0  0  0
 21 22  1  0  0  0
 22 23  1  0  0  0
 23 24  1  0  0  0
 24 25  1  0  0  0
 25 26  1  0  0  0
 26 27  1  0  0  0
 27 28  1  0  0  0
 52 53  1  0  0  0
 53 54  1  0  0  0
 54 55  1  0  0  0
 55 56  1  0  0  0
 56 60  1  0  0  0
M  CHG 1  64  -1
M  END
> <minimizedAffinity>
-9.65947

> <CNNscore>
0.1180148348

> <CNNaffinity>
7.0189375877

> <CNN_VS>
0.8283387423

> <CNNaffinity_variance>
1.5008224249

$$$$
/media/chris/experiments/cd1a-new-docking/inputs/ligands/7ryn_ligand.pdb


 68 68  0  0  0  0  0  0  0  0999 V2000
  -36.2149   63.0274   63.9089 C   0  0  0  0  0  0  0  0  0  0  0  0
  -36.0471   63.1316   65.3553 N   0  0  0  0  0  0  0  0  0  0  0  0
  -36.4225   62.3510   67.4332 O   0  0  0  0  0  0  0  0  0  0  0  0
  -36.5580   62.2485   66.2175 C   0  0  0  0  0  0  0  0  0  0  0  0
  -35.5319   63.8904   65.7131 H   0  0  0  0  0  0  0  0  0  0  0  0
  -37.3278   61.1065   65.6022 C   0  0  0  0  0  0  0  0  0  0  0  0
  -38.3677   60.5240   66.5508 C   0  0  0  0  0  0  0  0  0  0  0  0
  -39.6197   60.0508   65.8297 C   0  0  0  0  0  0  0  0  0  0  0  0
  -40.9147   60.5230   66.4696 C   0  0  0  0  0  0  0  0  0  0  0  0
  -42.1521   59.7992   65.9603 C   0  0  0  0  0  0  0  0  0  0  0  0
  -42.2965   58.3755   66.4827 C   0  0  0  0  0  0  0  0  0  0  0  0
  -43.7254   57.8487   66.4510 C   0  0  0  0  0  0  0  0  0  0  0  0
  -44.2742   57.5891   65.0502 C   0  0  0  0  0  0  0  0  0  0  0  0
  -45.4534   58.4823   64.6687 C   0  0  0  0  0  0  0  0  0  0  0  0
  -46.7668   58.1380   65.3706 C   0  0  0  0  0  0  0  0  0  0  0  0
  -47.1289   59.1085   66.4951 C   0  0  0  0  0  0  0  0  0  0  0  0
  -48.5862   59.5695   66.5081 C   0  0  0  0  0  0  0  0  0  0  0  0
  -49.5881   58.5566   65.9476 C   0  0  0  0  0  0  0  0  0  0  0  0
  -50.7191   59.2055   65.2033 C   0  0  0  0  0  0  0  0  0  0  0  0
  -50.6913   59.6144   63.9472 C   0  0  0  0  0  0  0  0  0  0  0  0
  -49.5254   59.5099   63.0115 C   0  0  0  0  0  0  0  0  0  0  0  0
  -49.5195   58.2268   62.1778 C   0  0  0  0  0  0  0  0  0  0  0  0
  -50.3562   58.3290   60.9094 C   0  0  0  0  0  0  0  0  0  0  0  0
  -49.7557   57.5776   59.7266 C   0  0  0  0  0  0  0  0  0  0  0  0
  -48.2771   57.2394   59.8785 C   0  0  0  0  0  0  0  0  0  0  0  0
  -47.7362   56.3445   58.7724 C   0  0  0  0  0  0  0  0  0  0  0  0
  -48.0749   56.8175   57.3676 C   0  0  0  0  0  0  0  0  0  0  0  0
  -47.1217   57.8791   56.8574 C   0  0  0  0  0  0  0  0  0  0  0  0
  -34.9376   61.1407   63.1066 O   0  0  0  0  0  0  0  0  0  0  0  0
  -36.2506   61.5445   63.5056 C   0  0  0  0  0  0  0  0  0  0  0  0
  -34.3137   61.3091   63.8300 H   0  0  0  0  0  0  0  0  0  0  0  0
  -37.2429   61.2984   62.4106 C   0  0  0  0  0  0  0  0  0  0  0  0
  -38.4488   60.7937   62.5799 C   0  0  0  0  0  0  0  0  0  0  0  0
  -39.4219   60.5741   61.4683 C   0  0  0  0  0  0  0  0  0  0  0  0
  -38.7774   59.7973   60.3183 C   0  0  0  0  0  0  0  0  0  0  0  0
  -39.6670   58.7209   59.7177 C   0  0  0  0  0  0  0  0  0  0  0  0
  -41.1318   58.8338   60.1042 C   0  0  0  0  0  0  0  0  0  0  0  0
  -41.8244   57.4935   60.3031 C   0  0  0  0  0  0  0  0  0  0  0  0
  -41.2895   56.6991   61.4847 C   0  0  0  0  0  0  0  0  0  0  0  0
  -41.3752   57.4387   62.8083 C   0  0  0  0  0  0  0  0  0  0  0  0
  -40.0587   57.5181   63.5584 C   0  0  0  0  0  0  0  0  0  0  0  0
  -38.8630   57.0341   62.7561 C   0  0  0  0  0  0  0  0  0  0  0  0
  -37.5393   57.5360   63.3026 C   0  0  0  0  0  0  0  0  0  0  0  0
  -36.4296   57.6241   62.2724 C   0  0  0  0  0  0  0  0  0  0  0  0
  -35.0495   57.6066   62.9000 C   0  0  0  0  0  0  0  0  0  0  0  0
  -35.0846   57.8935   64.3869 C   0  0  0  0  0  0  0  0  0  0  0  0
  -35.1084   63.7825   63.2018 C   0  0  0  0  0  0  0  0  0  0  0  0
  -34.2635   64.3766   64.1937 O   0  0  0  0  0  0  0  0  0  0  0  0
  -32.4279   62.2739   63.9699 O   0  0  0  0  0  0  0  0  0  0  0  0
  -31.7988   64.6729   60.4527 O   0  0  0  0  0  0  0  0  0  0  0  0
  -32.9240   65.7244   62.8828 O   0  0  0  0  0  0  0  0  0  0  0  0
  -32.9549   64.6181   63.7654 C   0  0  0  0  0  0  0  0  0  0  0  0
  -32.4510   63.3659   63.0595 C   0  0  0  0  0  0  0  0  0  0  0  0
  -31.0568   63.6138   62.4978 C   0  0  0  0  0  0  0  0  0  0  0  0
  -31.0298   64.8670   61.6352 C   0  0  0  0  0  0  0  0  0  0  0  0
  -31.6012   66.0436   62.4225 C   0  0  0  0  0  0  0  0  0  0  0  0
  -33.3202   62.1261   64.3204 H   0  0  0  0  0  0  0  0  0  0  0  0
  -31.4373   63.9256   59.9509 H   0  0  0  0  0  0  0  0  0  0  0  0
  -30.5797   68.1466   61.7726 O   0  0  0  0  0  0  0  0  0  0  0  0
  -31.7163   67.3075   61.6030 C   0  0  0  0  0  0  0  0  0  0  0  0
  -30.6853   68.9468   61.2345 H   0  0  0  0  0  0  0  0  0  0  0  0
  -30.7801   62.4429   61.6660 O   0  0  0  0  0  0  0  0  0  0  0  0
  -29.2554   61.8395   63.4318 O   0  0  0  0  0  0  0  0  0  0  0  0
  -29.0369   60.8130   61.1485 O   0  0  0  0  0  0  0  0  0  0  0  0
  -30.8257   60.2553   62.6063 O   0  0  0  0  0  0  0  0  0  0  0  0
  -29.7942   61.3300   62.2256 S   0  0  0  0  0  0  0  0  0  0  0  0
  -28.5978   62.5231   63.2289 H   0  0  0  0  0  0  0  0  0  0  0  0
  -31.3671   60.5741   63.3453 H   0  0  0  0  0  0  0  0  0  0  0  0
  2  1  1  0  0  0
  2  4  1  0  0  0
  2  5  1  0  0  0
 47 48  1  0  0  0
 47  1  1  0  0  0
 48 52  1  0  0  0
  1 30  1  0  0  0
 29 30  1  0  0  0
 29 31  1  0  0  0
 30 32  1  0  0  0
  3  4  2  0  0  0
 32 33  2  0  0  0
 49 53  1  0  0  0
 49 57  1  0  0  0
 33 34  1  0  0  0
 62 54  1  0  0  0
 62 66  1  0  0  0
 34 35  1  0  0  0
 50 55  1  0  0  0
 50 58  1  0  0  0
 35 36  1  0  0  0
 51 52  1  0  0  0
 51 56  1  0  0  0
 36 37  1  0  0  0
 59 60  1  0  0  0
 59 61  1  0  0  0
 37 38  1  0  0  0
 63 66  1  0  0  0
 63 67  1  0  0  0
 38 39  1  0  0  0
 64 66  1  0  0  0
 39 40  1  0  0  0
 65 66  1  0  0  0
 65 68  1  0  0  0
 40 41  1  0  0  0
 41 42  1  0  0  0
 42 43  1  0  0  0
 43 44  1  0  0  0
 44 45  1  0  0  0
 45 46  1  0  0  0
  4  6  1  0  0  0
  6  7  1  0  0  0
  7  8  1  0  0  0
  8  9  1  0  0  0
  9 10  1  0  0  0
 10 11  1  0  0  0
 11 12  1  0  0  0
 12 13  1  0  0  0
 13 14  1  0  0  0
 14 15  1  0  0  0
 15 16  1  0  0  0
 16 17  1  0  0  0
 17 18  1  0  0  0
 18 19  1  0  0  0
 19 20  2  0  0  0
 20 21  1  0  0  0
 21 22  1  0  0  0
 22 23  1  0  0  0
 23 24  1  0  0  0
 24 25  1  0  0  0
 25 26  1  0  0  0
 26 27  1  0  0  0
 27 28  1  0  0  0
 52 53  1  0  0  0
 53 54  1  0  0  0
 54 55  1  0  0  0
 55 56  1  0  0  0
 56 60  1  0  0  0
M  CHG 1  64  -1
M  END
> <minimizedAffinity>
-8.76364

> <CNNscore>
0.1128349602

> <CNNaffinity>
7.0369391441

> <CNN_VS>
0.7940127254

> <CNNaffinity_variance>
1.1781861782

$$$$
