/media/chris/experiments/cd1a-new-docking/inputs/ligands/7ryn_ligand.pdb


 68 68  0  0  0  0  0  0  0  0999 V2000
  -35.8177   62.6960   64.8276 C   0  0  0  0  0  0  0  0  0  0  0  0
  -36.6486   61.8540   65.6832 N   0  0  0  0  0  0  0  0  0  0  0  0
  -38.0863   61.2259   64.0688 O   0  0  0  0  0  0  0  0  0  0  0  0
  -37.7161   61.1857   65.2386 C   0  0  0  0  0  0  0  0  0  0  0  0
  -36.4101   61.7749   66.6351 H   0  0  0  0  0  0  0  0  0  0  0  0
  -38.4459   60.3615   66.2698 C   0  0  0  0  0  0  0  0  0  0  0  0
  -39.6570   59.6404   65.6919 C   0  0  0  0  0  0  0  0  0  0  0  0
  -40.9718   60.2940   66.0856 C   0  0  0  0  0  0  0  0  0  0  0  0
  -42.0830   59.3050   66.3962 C   0  0  0  0  0  0  0  0  0  0  0  0
  -41.9057   57.9504   65.7269 C   0  0  0  0  0  0  0  0  0  0  0  0
  -43.0999   57.5122   64.8888 C   0  0  0  0  0  0  0  0  0  0  0  0
  -43.9682   58.6652   64.4018 C   0  0  0  0  0  0  0  0  0  0  0  0
  -45.4504   58.5296   64.7411 C   0  0  0  0  0  0  0  0  0  0  0  0
  -45.7262   58.2170   66.2109 C   0  0  0  0  0  0  0  0  0  0  0  0
  -47.0254   58.8100   66.7556 C   0  0  0  0  0  0  0  0  0  0  0  0
  -48.2489   58.4868   65.8977 C   0  0  0  0  0  0  0  0  0  0  0  0
  -49.1868   59.6655   65.6379 C   0  0  0  0  0  0  0  0  0  0  0  0
  -50.6712   59.3012   65.5485 C   0  0  0  0  0  0  0  0  0  0  0  0
  -51.3939   60.0587   64.4723 C   0  0  0  0  0  0  0  0  0  0  0  0
  -51.4977   59.7012   63.2045 C   0  0  0  0  0  0  0  0  0  0  0  0
  -50.9171   58.4655   62.5864 C   0  0  0  0  0  0  0  0  0  0  0  0
  -49.5420   58.6839   61.9516 C   0  0  0  0  0  0  0  0  0  0  0  0
  -49.5697   58.6521   60.4292 C   0  0  0  0  0  0  0  0  0  0  0  0
  -49.4345   57.2480   59.8508 C   0  0  0  0  0  0  0  0  0  0  0  0
  -47.9967   56.7680   59.6886 C   0  0  0  0  0  0  0  0  0  0  0  0
  -47.7142   56.1241   58.3385 C   0  0  0  0  0  0  0  0  0  0  0  0
  -47.8870   57.0613   57.1537 C   0  0  0  0  0  0  0  0  0  0  0  0
  -46.8216   58.1371   57.0930 C   0  0  0  0  0  0  0  0  0  0  0  0
  -34.2940   62.1048   63.0490 O   0  0  0  0  0  0  0  0  0  0  0  0
  -34.5393   61.9318   64.4476 C   0  0  0  0  0  0  0  0  0  0  0  0
  -34.2294   63.0513   62.8467 H   0  0  0  0  0  0  0  0  0  0  0  0
  -34.6452   60.4790   64.7973 C   0  0  0  0  0  0  0  0  0  0  0  0
  -33.8812   59.5235   64.3062 C   0  0  0  0  0  0  0  0  0  0  0  0
  -34.0020   58.0842   64.6866 C   0  0  0  0  0  0  0  0  0  0  0  0
  -35.1897   57.4265   63.9811 C   0  0  0  0  0  0  0  0  0  0  0  0
  -35.1645   57.5561   62.4667 C   0  0  0  0  0  0  0  0  0  0  0  0
  -36.4570   58.0784   61.8630 C   0  0  0  0  0  0  0  0  0  0  0  0
  -37.6507   58.0129   62.8047 C   0  0  0  0  0  0  0  0  0  0  0  0
  -38.6737   56.9547   62.4214 C   0  0  0  0  0  0  0  0  0  0  0  0
  -40.1120   57.3798   62.6590 C   0  0  0  0  0  0  0  0  0  0  0  0
  -41.1217   56.6608   61.7837 C   0  0  0  0  0  0  0  0  0  0  0  0
  -41.9067   57.5821   60.8657 C   0  0  0  0  0  0  0  0  0  0  0  0
  -41.0177   58.4652   60.0098 C   0  0  0  0  0  0  0  0  0  0  0  0
  -41.1105   59.9448   60.3299 C   0  0  0  0  0  0  0  0  0  0  0  0
  -42.0146   60.2293   61.5132 C   0  0  0  0  0  0  0  0  0  0  0  0
  -41.2914   60.9399   62.6386 C   0  0  0  0  0  0  0  0  0  0  0  0
  -35.5116   64.0046   65.5262 C   0  0  0  0  0  0  0  0  0  0  0  0
  -34.1227   64.3000   65.3409 O   0  0  0  0  0  0  0  0  0  0  0  0
  -31.4867   64.9216   64.6292 O   0  0  0  0  0  0  0  0  0  0  0  0
  -33.5747   64.5013   60.8894 O   0  0  0  0  0  0  0  0  0  0  0  0
  -34.8981   65.1791   63.3524 O   0  0  0  0  0  0  0  0  0  0  0  0
  -33.8599   65.2112   64.3140 C   0  0  0  0  0  0  0  0  0  0  0  0
  -32.5333   64.8277   63.6711 C   0  0  0  0  0  0  0  0  0  0  0  0
  -32.2480   65.7430   62.4871 C   0  0  0  0  0  0  0  0  0  0  0  0
  -33.4228   65.7686   61.5204 C   0  0  0  0  0  0  0  0  0  0  0  0
  -34.7028   66.1127   62.2782 C   0  0  0  0  0  0  0  0  0  0  0  0
  -31.6796   64.3351   65.3773 H   0  0  0  0  0  0  0  0  0  0  0  0
  -32.7624   64.2807   60.4072 H   0  0  0  0  0  0  0  0  0  0  0  0
  -36.8285   67.1266   61.6931 O   0  0  0  0  0  0  0  0  0  0  0  0
  -35.9404   66.0504   61.4139 C   0  0  0  0  0  0  0  0  0  0  0  0
  -37.6101   67.0570   61.1229 H   0  0  0  0  0  0  0  0  0  0  0  0
  -31.0873   65.1442   61.8286 O   0  0  0  0  0  0  0  0  0  0  0  0
  -29.2454   65.1859   60.2753 O   0  0  0  0  0  0  0  0  0  0  0  0
  -30.1558   67.3223   61.2356 O   0  0  0  0  0  0  0  0  0  0  0  0
  -31.3704   66.0474   59.6432 O   0  0  0  0  0  0  0  0  0  0  0  0
  -30.3014   66.0027   60.7474 S   0  0  0  0  0  0  0  0  0  0  0  0
  -28.5498   65.1350   60.9495 H   0  0  0  0  0  0  0  0  0  0  0  0
  -31.4991   65.1565   59.2816 H   0  0  0  0  0  0  0  0  0  0  0  0
  2  1  1  0  0  0
  2  4  1  0  0  0
  2  5  1  0  0  0
 47 48  1  0  0  0
 47  1  1  0  0  0
 48 52  1  0  0  0
  1 30  1  0  0  0
 29 30  1  0  0  0
 29 31  1  0  0  0
 30 32  1  0  0  0
  3  4  2  0  0  0
 32 33  2  0  0  0
 49 53  1  0  0  0
 49 57  1  0  0  0
 33 34  1  0  0  0
 62 54  1  0  0  0
 62 66  1  0  0  0
 34 35  1  0  0  0
 50 55  1  0  0  0
 50 58  1  0  0  0
 35 36  1  0  0  0
 51 52  1  0  0  0
 51 56  1  0  0  0
 36 37  1  0  0  0
 59 60  1  0  0  0
 59 61  1  0  0  0
 37 38  1  0  0  0
 63 66  1  0  0  0
 63 67  1  0  0  0
 38 39  1  0  0  0
 64 66  1  0  0  0
 39 40  1  0  0  0
 65 66  1  0  0  0
 65 68  1  0  0  0
 40 41  1  0  0  0
 41 42  1  0  0  0
 42 43  1  0  0  0
 43 44  1  0  0  0
 44 45  1  0  0  0
 45 46  1  0  0  0
  4  6  1  0  0  0
  6  7  1  0  0  0
  7  8  1  0  0  0
  8  9  1  0  0  0
  9 10  1  0  0  0
 10 11  1  0  0  0
 11 12  1  0  0  0
 12 13  1  0  0  0
 13 14  1  0  0  0
 14 15  1  0  0  0
 15 16  1  0  0  0
 16 17  1  0  0  0
 17 18  1  0  0  0
 18 19  1  0  0  0
 19 20  2  0  0  0
 20 21  1  0  0  0
 21 22  1  0  0  0
 22 23  1  0  0  0
 23 24  1  0  0  0
 24 25  1  0  0  0
 25 26  1  0  0  0
 26 27  1  0  0  0
 27 28  1  0  0  0
 52 53  1  0  0  0
 53 54  1  0  0  0
 54 55  1  0  0  0
 55 56  1  0  0  0
 56 60  1  0  0  0
M  CHG 1  64  -1
M  END
> <minimizedAffinity>
-9.52968

> <CNNscore>
0.3893734515

> <CNNaffinity>
7.3709387779

> <CNN_VS>
2.8700478077

> <CNNaffinity_variance>
1.2066894770

$$$$
/media/chris/experiments/cd1a-new-docking/inputs/ligands/7ryn_ligand.pdb


 68 68  0  0  0  0  0  0  0  0999 V2000
  -35.8064   62.2270   64.1728 C   0  0  0  0  0  0  0  0  0  0  0  0
  -36.6064   61.5221   65.1701 N   0  0  0  0  0  0  0  0  0  0  0  0
  -38.2293   60.8722   63.7518 O   0  0  0  0  0  0  0  0  0  0  0  0
  -37.7533   60.9007   64.8830 C   0  0  0  0  0  0  0  0  0  0  0  0
  -36.2845   61.5040   66.1003 H   0  0  0  0  0  0  0  0  0  0  0  0
  -38.4350   60.2204   66.0439 C   0  0  0  0  0  0  0  0  0  0  0  0
  -39.6767   59.4458   65.6208 C   0  0  0  0  0  0  0  0  0  0  0  0
  -40.9612   60.2254   65.8513 C   0  0  0  0  0  0  0  0  0  0  0  0
  -42.0689   59.4106   66.4984 C   0  0  0  0  0  0  0  0  0  0  0  0
  -42.1275   57.9663   66.0241 C   0  0  0  0  0  0  0  0  0  0  0  0
  -43.3774   57.6277   65.2218 C   0  0  0  0  0  0  0  0  0  0  0  0
  -44.6051   58.4356   65.6221 C   0  0  0  0  0  0  0  0  0  0  0  0
  -45.5608   57.7105   66.5662 C   0  0  0  0  0  0  0  0  0  0  0  0
  -47.0100   57.6820   66.0833 C   0  0  0  0  0  0  0  0  0  0  0  0
  -47.2806   58.5146   64.8303 C   0  0  0  0  0  0  0  0  0  0  0  0
  -48.1046   59.7734   65.1021 C   0  0  0  0  0  0  0  0  0  0  0  0
  -49.1019   59.6578   66.2547 C   0  0  0  0  0  0  0  0  0  0  0  0
  -50.4914   59.1522   65.8573 C   0  0  0  0  0  0  0  0  0  0  0  0
  -51.2869   60.1717   65.0944 C   0  0  0  0  0  0  0  0  0  0  0  0
  -51.6231   60.1010   63.8185 C   0  0  0  0  0  0  0  0  0  0  0  0
  -51.2803   58.9867   62.8768 C   0  0  0  0  0  0  0  0  0  0  0  0
  -50.1142   59.3104   61.9404 C   0  0  0  0  0  0  0  0  0  0  0  0
  -49.2123   58.1143   61.6660 C   0  0  0  0  0  0  0  0  0  0  0  0
  -49.8098   57.1207   60.6760 C   0  0  0  0  0  0  0  0  0  0  0  0
  -49.4728   57.4037   59.2165 C   0  0  0  0  0  0  0  0  0  0  0  0
  -48.0685   57.9523   59.0070 C   0  0  0  0  0  0  0  0  0  0  0  0
  -47.2408   57.1744   57.9963 C   0  0  0  0  0  0  0  0  0  0  0  0
  -47.4034   57.6891   56.5804 C   0  0  0  0  0  0  0  0  0  0  0  0
  -33.9731   61.8286   62.6513 O   0  0  0  0  0  0  0  0  0  0  0  0
  -34.5016   61.4527   63.9264 C   0  0  0  0  0  0  0  0  0  0  0  0
  -33.8399   62.7891   62.6269 H   0  0  0  0  0  0  0  0  0  0  0  0
  -34.7206   59.9727   64.0004 C   0  0  0  0  0  0  0  0  0  0  0  0
  -34.5613   59.1318   62.9977 C   0  0  0  0  0  0  0  0  0  0  0  0
  -34.7734   57.6574   63.1073 C   0  0  0  0  0  0  0  0  0  0  0  0
  -36.2346   57.2904   62.8405 C   0  0  0  0  0  0  0  0  0  0  0  0
  -36.9116   58.1533   61.7880 C   0  0  0  0  0  0  0  0  0  0  0  0
  -38.3879   57.8546   61.5906 C   0  0  0  0  0  0  0  0  0  0  0  0
  -39.0355   57.1331   62.7636 C   0  0  0  0  0  0  0  0  0  0  0  0
  -40.5549   57.2005   62.7587 C   0  0  0  0  0  0  0  0  0  0  0  0
  -41.1827   56.7591   61.4483 C   0  0  0  0  0  0  0  0  0  0  0  0
  -42.0460   57.8184   60.7888 C   0  0  0  0  0  0  0  0  0  0  0  0
  -41.2579   58.8552   60.0068 C   0  0  0  0  0  0  0  0  0  0  0  0
  -41.5052   60.2738   60.4856 C   0  0  0  0  0  0  0  0  0  0  0  0
  -41.3377   60.4683   61.9804 C   0  0  0  0  0  0  0  0  0  0  0  0
  -42.6127   60.9374   62.6534 C   0  0  0  0  0  0  0  0  0  0  0  0
  -43.0836   62.2797   62.1328 C   0  0  0  0  0  0  0  0  0  0  0  0
  -35.5471   63.6490   64.6255 C   0  0  0  0  0  0  0  0  0  0  0  0
  -34.9564   64.3676   63.5367 O   0  0  0  0  0  0  0  0  0  0  0  0
  -33.2782   64.5661   61.3039 O   0  0  0  0  0  0  0  0  0  0  0  0
  -32.0681   67.7867   63.8897 O   0  0  0  0  0  0  0  0  0  0  0  0
  -33.3755   65.4125   64.8547 O   0  0  0  0  0  0  0  0  0  0  0  0
  -33.5929   64.6323   63.6938 C   0  0  0  0  0  0  0  0  0  0  0  0
  -33.1122   65.3809   62.4575 C   0  0  0  0  0  0  0  0  0  0  0  0
  -31.6480   65.7681   62.6233 C   0  0  0  0  0  0  0  0  0  0  0  0
  -31.4252   66.5168   63.9291 C   0  0  0  0  0  0  0  0  0  0  0  0
  -31.9880   65.7009   65.0903 C   0  0  0  0  0  0  0  0  0  0  0  0
  -34.2133   64.3264   61.2092 H   0  0  0  0  0  0  0  0  0  0  0  0
  -31.7118   68.3067   63.1524 H   0  0  0  0  0  0  0  0  0  0  0  0
  -30.7666   66.0209   67.1626 O   0  0  0  0  0  0  0  0  0  0  0  0
  -31.9099   66.4213   66.4160 C   0  0  0  0  0  0  0  0  0  0  0  0
  -30.7466   66.5007   68.0055 H   0  0  0  0  0  0  0  0  0  0  0  0
  -31.3717   66.6591   61.4967 O   0  0  0  0  0  0  0  0  0  0  0  0
  -29.9857   64.8481   60.7180 O   0  0  0  0  0  0  0  0  0  0  0  0
  -29.5193   67.2122   60.0048 O   0  0  0  0  0  0  0  0  0  0  0  0
  -31.4049   66.0117   59.2050 O   0  0  0  0  0  0  0  0  0  0  0  0
  -30.3918   66.1545   60.3526 S   0  0  0  0  0  0  0  0  0  0  0  0
  -29.3433   64.9000   61.4429 H   0  0  0  0  0  0  0  0  0  0  0  0
  -32.0236   65.2925   59.4075 H   0  0  0  0  0  0  0  0  0  0  0  0
  2  1  1  0  0  0
  2  4  1  0  0  0
  2  5  1  0  0  0
 47 48  1  0  0  0
 47  1  1  0  0  0
 48 52  1  0  0  0
  1 30  1  0  0  0
 29 30  1  0  0  0
 29 31  1  0  0  0
 30 32  1  0  0  0
  3  4  2  0  0  0
 32 33  2  0  0  0
 49 53  1  0  0  0
 49 57  1  0  0  0
 33 34  1  0  0  0
 62 54  1  0  0  0
 62 66  1  0  0  0
 34 35  1  0  0  0
 50 55  1  0  0  0
 50 58  1  0  0  0
 35 36  1  0  0  0
 51 52  1  0  0  0
 51 56  1  0  0  0
 36 37  1  0  0  0
 59 60  1  0  0  0
 59 61  1  0  0  0
 37 38  1  0  0  0
 63 66  1  0  0  0
 63 67  1  0  0  0
 38 39  1  0  0  0
 64 66  1  0  0  0
 39 40  1  0  0  0
 65 66  1  0  0  0
 65 68  1  0  0  0
 40 41  1  0  0  0
 41 42  1  0  0  0
 42 43  1  0  0  0
 43 44  1  0  0  0
 44 45  1  0  0  0
 45 46  1  0  0  0
  4  6  1  0  0  0
  6  7  1  0  0  0
  7  8  1  0  0  0
  8  9  1  0  0  0
  9 10  1  0  0  0
 10 11  1  0  0  0
 11 12  1  0  0  0
 12 13  1  0  0  0
 13 14  1  0  0  0
 14 15  1  0  0  0
 15 16  1  0  0  0
 16 17  1  0  0  0
 17 18  1  0  0  0
 18 19  1  0  0  0
 19 20  2  0  0  0
 20 21  1  0  0  0
 21 22  1  0  0  0
 22 23  1  0  0  0
 23 24  1  0  0  0
 24 25  1  0  0  0
 25 26  1  0  0  0
 26 27  1  0  0  0
 27 28  1  0  0  0
 52 53  1  0  0  0
 53 54  1  0  0  0
 54 55  1  0  0  0
 55 56  1  0  0  0
 56 60  1  0  0  0
M  CHG 1  64  -1
M  END
> <minimizedAffinity>
-9.70601

> <CNNscore>
0.3542385697

> <CNNaffinity>
7.2154502869

> <CNN_VS>
2.5559906960

> <CNNaffinity_variance>
1.2650763988

$$$$
/media/chris/experiments/cd1a-new-docking/inputs/ligands/7ryn_ligand.pdb


 68 68  0  0  0  0  0  0  0  0999 V2000
  -34.4387   61.6211   65.0887 C   0  0  0  0  0  0  0  0  0  0  0  0
  -35.5411   60.8803   65.6947 N   0  0  0  0  0  0  0  0  0  0  0  0
  -37.1780   62.2095   64.9064 O   0  0  0  0  0  0  0  0  0  0  0  0
  -36.8225   61.2310   65.5570 C   0  0  0  0  0  0  0  0  0  0  0  0
  -35.3294   60.0826   66.2316 H   0  0  0  0  0  0  0  0  0  0  0  0
  -37.8214   60.3386   66.2505 C   0  0  0  0  0  0  0  0  0  0  0  0
  -39.2096   60.4205   65.6286 C   0  0  0  0  0  0  0  0  0  0  0  0
  -39.5607   59.1865   64.8131 C   0  0  0  0  0  0  0  0  0  0  0  0
  -40.6094   58.2977   65.4608 C   0  0  0  0  0  0  0  0  0  0  0  0
  -41.9658   58.9665   65.6260 C   0  0  0  0  0  0  0  0  0  0  0  0
  -42.8114   58.3836   66.7511 C   0  0  0  0  0  0  0  0  0  0  0  0
  -44.2669   58.8320   66.7248 C   0  0  0  0  0  0  0  0  0  0  0  0
  -45.2459   57.7773   66.2150 C   0  0  0  0  0  0  0  0  0  0  0  0
  -46.4487   57.5514   67.1295 C   0  0  0  0  0  0  0  0  0  0  0  0
  -47.7932   57.9569   66.5259 C   0  0  0  0  0  0  0  0  0  0  0  0
  -48.0775   59.4559   66.6244 C   0  0  0  0  0  0  0  0  0  0  0  0
  -49.0047   60.0112   65.5435 C   0  0  0  0  0  0  0  0  0  0  0  0
  -50.3585   59.3050   65.4298 C   0  0  0  0  0  0  0  0  0  0  0  0
  -51.3555   60.0822   64.6198 C   0  0  0  0  0  0  0  0  0  0  0  0
  -51.7434   59.8042   63.3876 C   0  0  0  0  0  0  0  0  0  0  0  0
  -51.2678   58.6549   62.5517 C   0  0  0  0  0  0  0  0  0  0  0  0
  -49.7847   58.7349   62.1836 C   0  0  0  0  0  0  0  0  0  0  0  0
  -49.5451   59.0015   60.7035 C   0  0  0  0  0  0  0  0  0  0  0  0
  -48.4222   58.1576   60.1108 C   0  0  0  0  0  0  0  0  0  0  0  0
  -48.6396   57.7481   58.6586 C   0  0  0  0  0  0  0  0  0  0  0  0
  -47.5136   58.1734   57.7267 C   0  0  0  0  0  0  0  0  0  0  0  0
  -47.0269   57.0737   56.7963 C   0  0  0  0  0  0  0  0  0  0  0  0
  -47.5409   55.7023   57.1853 C   0  0  0  0  0  0  0  0  0  0  0  0
  -32.8469   61.4129   63.2838 O   0  0  0  0  0  0  0  0  0  0  0  0
  -33.5741   60.6591   64.2581 C   0  0  0  0  0  0  0  0  0  0  0  0
  -32.3159   62.0911   63.7301 H   0  0  0  0  0  0  0  0  0  0  0  0
  -34.4073   59.6002   63.6036 C   0  0  0  0  0  0  0  0  0  0  0  0
  -34.2888   58.3043   63.8145 C   0  0  0  0  0  0  0  0  0  0  0  0
  -35.1460   57.2730   63.1568 C   0  0  0  0  0  0  0  0  0  0  0  0
  -36.6088   57.4222   63.5798 C   0  0  0  0  0  0  0  0  0  0  0  0
  -37.5851   57.5287   62.4195 C   0  0  0  0  0  0  0  0  0  0  0  0
  -37.0431   58.2771   61.2137 C   0  0  0  0  0  0  0  0  0  0  0  0
  -38.1118   58.9831   60.3919 C   0  0  0  0  0  0  0  0  0  0  0  0
  -38.7004   60.2066   61.0775 C   0  0  0  0  0  0  0  0  0  0  0  0
  -40.1915   60.1002   61.3444 C   0  0  0  0  0  0  0  0  0  0  0  0
  -41.0437   60.0723   60.0892 C   0  0  0  0  0  0  0  0  0  0  0  0
  -41.6203   58.7042   59.7672 C   0  0  0  0  0  0  0  0  0  0  0  0
  -41.9752   57.9031   61.0062 C   0  0  0  0  0  0  0  0  0  0  0  0
  -41.0090   56.7775   61.3220 C   0  0  0  0  0  0  0  0  0  0  0  0
  -41.1089   56.3107   62.7610 C   0  0  0  0  0  0  0  0  0  0  0  0
  -41.1970   54.8029   62.8772 C   0  0  0  0  0  0  0  0  0  0  0  0
  -33.6348   62.3261   66.1615 C   0  0  0  0  0  0  0  0  0  0  0  0
  -34.2219   63.6117   66.3926 O   0  0  0  0  0  0  0  0  0  0  0  0
  -32.0416   65.3632   66.2535 O   0  0  0  0  0  0  0  0  0  0  0  0
  -32.5354   63.8876   62.2409 O   0  0  0  0  0  0  0  0  0  0  0  0
  -34.6804   63.9580   64.1569 O   0  0  0  0  0  0  0  0  0  0  0  0
  -34.0939   64.5036   65.3239 C   0  0  0  0  0  0  0  0  0  0  0  0
  -32.6094   64.7592   65.0981 C   0  0  0  0  0  0  0  0  0  0  0  0
  -32.4177   65.6597   63.8843 C   0  0  0  0  0  0  0  0  0  0  0  0
  -33.1442   65.1014   62.6694 C   0  0  0  0  0  0  0  0  0  0  0  0
  -34.6057   64.8367   63.0229 C   0  0  0  0  0  0  0  0  0  0  0  0
  -32.1698   64.7811   67.0188 H   0  0  0  0  0  0  0  0  0  0  0  0
  -31.6066   64.0537   62.0157 H   0  0  0  0  0  0  0  0  0  0  0  0
  -34.7814   64.4265   60.6376 O   0  0  0  0  0  0  0  0  0  0  0  0
  -35.3773   64.1751   61.9051 C   0  0  0  0  0  0  0  0  0  0  0  0
  -35.2999   63.9889   59.9442 H   0  0  0  0  0  0  0  0  0  0  0  0
  -30.9759   65.6472   63.6390 O   0  0  0  0  0  0  0  0  0  0  0  0
  -31.0231   67.8191   64.6818 O   0  0  0  0  0  0  0  0  0  0  0  0
  -29.2450   67.2471   63.0006 O   0  0  0  0  0  0  0  0  0  0  0  0
  -29.2700   66.2882   65.1723 O   0  0  0  0  0  0  0  0  0  0  0  0
  -30.1233   66.9197   64.0601 S   0  0  0  0  0  0  0  0  0  0  0  0
  -31.5798   68.2378   64.0068 H   0  0  0  0  0  0  0  0  0  0  0  0
  -29.8395   66.0490   65.9203 H   0  0  0  0  0  0  0  0  0  0  0  0
  2  1  1  0  0  0
  2  4  1  0  0  0
  2  5  1  0  0  0
 47 48  1  0  0  0
 47  1  1  0  0  0
 48 52  1  0  0  0
  1 30  1  0  0  0
 29 30  1  0  0  0
 29 31  1  0  0  0
 30 32  1  0  0  0
  3  4  2  0  0  0
 32 33  2  0  0  0
 49 53  1  0  0  0
 49 57  1  0  0  0
 33 34  1  0  0  0
 62 54  1  0  0  0
 62 66  1  0  0  0
 34 35  1  0  0  0
 50 55  1  0  0  0
 50 58  1  0  0  0
 35 36  1  0  0  0
 51 52  1  0  0  0
 51 56  1  0  0  0
 36 37  1  0  0  0
 59 60  1  0  0  0
 59 61  1  0  0  0
 37 38  1  0  0  0
 63 66  1  0  0  0
 63 67  1  0  0  0
 38 39  1  0  0  0
 64 66  1  0  0  0
 39 40  1  0  0  0
 65 66  1  0  0  0
 65 68  1  0  0  0
 40 41  1  0  0  0
 41 42  1  0  0  0
 42 43  1  0  0  0
 43 44  1  0  0  0
 44 45  1  0  0  0
 45 46  1  0  0  0
  4  6  1  0  0  0
  6  7  1  0  0  0
  7  8  1  0  0  0
  8  9  1  0  0  0
  9 10  1  0  0  0
 10 11  1  0  0  0
 11 12  1  0  0  0
 12 13  1  0  0  0
 13 14  1  0  0  0
 14 15  1  0  0  0
 15 16  1  0  0  0
 16 17  1  0  0  0
 17 18  1  0  0  0
 18 19  1  0  0  0
 19 20  2  0  0  0
 20 21  1  0  0  0
 21 22  1  0  0  0
 22 23  1  0  0  0
 23 24  1  0  0  0
 24 25  1  0  0  0
 25 26  1  0  0  0
 26 27  1  0  0  0
 27 28  1  0  0  0
 52 53  1  0  0  0
 53 54  1  0  0  0
 54 55  1  0  0  0
 55 56  1  0  0  0
 56 60  1  0  0  0
M  CHG 1  64  -1
M  END
> <minimizedAffinity>
-8.92688

> <CNNscore>
0.2885358930

> <CNNaffinity>
7.4978332520

> <CNN_VS>
2.1633939743

> <CNNaffinity_variance>
0.7086449265

$$$$
/media/chris/experiments/cd1a-new-docking/inputs/ligands/7ryn_ligand.pdb


 68 68  0  0  0  0  0  0  0  0999 V2000
  -36.8821   59.0336   63.3055 C   0  0  0  0  0  0  0  0  0  0  0  0
  -37.5540   59.2566   62.0287 N   0  0  0  0  0  0  0  0  0  0  0  0
  -38.4716   57.2059   61.8854 O   0  0  0  0  0  0  0  0  0  0  0  0
  -38.2951   58.3277   61.4189 C   0  0  0  0  0  0  0  0  0  0  0  0
  -37.4560   60.1354   61.5958 H   0  0  0  0  0  0  0  0  0  0  0  0
  -38.9170   58.7452   60.1097 C   0  0  0  0  0  0  0  0  0  0  0  0
  -40.3410   59.2602   60.2765 C   0  0  0  0  0  0  0  0  0  0  0  0
  -41.3875   58.2228   59.9026 C   0  0  0  0  0  0  0  0  0  0  0  0
  -41.9309   57.4411   61.0870 C   0  0  0  0  0  0  0  0  0  0  0  0
  -42.1065   58.2758   62.3467 C   0  0  0  0  0  0  0  0  0  0  0  0
  -41.5233   57.6363   63.6003 C   0  0  0  0  0  0  0  0  0  0  0  0
  -42.4459   56.6198   64.2606 C   0  0  0  0  0  0  0  0  0  0  0  0
  -43.0859   57.0964   65.5620 C   0  0  0  0  0  0  0  0  0  0  0  0
  -44.4947   57.6626   65.3916 C   0  0  0  0  0  0  0  0  0  0  0  0
  -45.0290   58.4187   66.6078 C   0  0  0  0  0  0  0  0  0  0  0  0
  -46.4400   57.9949   67.0165 C   0  0  0  0  0  0  0  0  0  0  0  0
  -47.5035   59.0864   66.8977 C   0  0  0  0  0  0  0  0  0  0  0  0
  -48.5329   58.8658   65.7861 C   0  0  0  0  0  0  0  0  0  0  0  0
  -48.4042   59.8581   64.6667 C   0  0  0  0  0  0  0  0  0  0  0  0
  -49.3767   60.2611   63.8681 C   0  0  0  0  0  0  0  0  0  0  0  0
  -50.8051   59.8107   63.9213 C   0  0  0  0  0  0  0  0  0  0  0  0
  -51.1805   58.8256   62.8122 C   0  0  0  0  0  0  0  0  0  0  0  0
  -49.9949   58.4045   61.9541 C   0  0  0  0  0  0  0  0  0  0  0  0
  -50.3907   57.5605   60.7477 C   0  0  0  0  0  0  0  0  0  0  0  0
  -49.2161   56.9491   59.9924 C   0  0  0  0  0  0  0  0  0  0  0  0
  -48.4652   57.9435   59.1181 C   0  0  0  0  0  0  0  0  0  0  0  0
  -48.2012   57.4529   57.7034 C   0  0  0  0  0  0  0  0  0  0  0  0
  -46.8567   57.8997   57.1659 C   0  0  0  0  0  0  0  0  0  0  0  0
  -36.7098   57.0549   64.6802 O   0  0  0  0  0  0  0  0  0  0  0  0
  -36.4057   57.5741   63.3824 C   0  0  0  0  0  0  0  0  0  0  0  0
  -37.6616   57.1394   64.8474 H   0  0  0  0  0  0  0  0  0  0  0  0
  -34.9412   57.4599   63.0892 C   0  0  0  0  0  0  0  0  0  0  0  0
  -34.2537   58.2883   62.3282 C   0  0  0  0  0  0  0  0  0  0  0  0
  -32.7891   58.1559   62.0669 C   0  0  0  0  0  0  0  0  0  0  0  0
  -31.9785   59.0402   63.0166 C   0  0  0  0  0  0  0  0  0  0  0  0
  -31.9045   60.4997   62.5982 C   0  0  0  0  0  0  0  0  0  0  0  0
  -31.0385   60.7561   61.3767 C   0  0  0  0  0  0  0  0  0  0  0  0
  -29.5622   60.9460   61.6936 C   0  0  0  0  0  0  0  0  0  0  0  0
  -29.2943   62.0233   62.7333 C   0  0  0  0  0  0  0  0  0  0  0  0
  -29.5176   63.4357   62.2223 C   0  0  0  0  0  0  0  0  0  0  0  0
  -30.1975   64.3541   63.2207 C   0  0  0  0  0  0  0  0  0  0  0  0
  -30.7388   63.6378   64.4461 C   0  0  0  0  0  0  0  0  0  0  0  0
  -31.3202   64.5854   65.4789 C   0  0  0  0  0  0  0  0  0  0  0  0
  -30.7740   65.9986   65.4098 C   0  0  0  0  0  0  0  0  0  0  0  0
  -31.8588   67.0318   65.1767 C   0  0  0  0  0  0  0  0  0  0  0  0
  -31.8962   67.5208   63.7435 C   0  0  0  0  0  0  0  0  0  0  0  0
  -37.8086   59.3904   64.4494 C   0  0  0  0  0  0  0  0  0  0  0  0
  -37.8036   60.8139   64.6058 O   0  0  0  0  0  0  0  0  0  0  0  0
  -37.0204   62.2782   62.3512 O   0  0  0  0  0  0  0  0  0  0  0  0
  -35.6125   64.5743   65.7080 O   0  0  0  0  0  0  0  0  0  0  0  0
  -36.0868   61.7397   65.8401 O   0  0  0  0  0  0  0  0  0  0  0  0
  -36.5342   61.3956   64.5421 C   0  0  0  0  0  0  0  0  0  0  0  0
  -36.6292   62.6405   63.6695 C   0  0  0  0  0  0  0  0  0  0  0  0
  -35.2852   63.3575   63.6423 C   0  0  0  0  0  0  0  0  0  0  0  0
  -34.7793   63.6238   65.0524 C   0  0  0  0  0  0  0  0  0  0  0  0
  -34.7734   62.3217   65.8495 C   0  0  0  0  0  0  0  0  0  0  0  0
  -37.8764   61.8230   62.3816 H   0  0  0  0  0  0  0  0  0  0  0  0
  -35.6175   65.4025   65.2031 H   0  0  0  0  0  0  0  0  0  0  0  0
  -33.9284   63.8360   67.5471 O   0  0  0  0  0  0  0  0  0  0  0  0
  -34.3900   62.5132   67.2983 C   0  0  0  0  0  0  0  0  0  0  0  0
  -33.6913   63.9249   68.4835 H   0  0  0  0  0  0  0  0  0  0  0  0
  -35.5585   64.6293   62.9736 O   0  0  0  0  0  0  0  0  0  0  0  0
  -35.4647   64.1776   60.6084 O   0  0  0  0  0  0  0  0  0  0  0  0
  -33.4191   64.9569   61.8427 O   0  0  0  0  0  0  0  0  0  0  0  0
  -35.2518   66.4046   61.4160 O   0  0  0  0  0  0  0  0  0  0  0  0
  -34.8137   64.9431   61.6060 S   0  0  0  0  0  0  0  0  0  0  0  0
  -35.2104   63.2459   60.6984 H   0  0  0  0  0  0  0  0  0  0  0  0
  -36.2070   66.4369   61.2505 H   0  0  0  0  0  0  0  0  0  0  0  0
  2  1  1  0  0  0
  2  4  1  0  0  0
  2  5  1  0  0  0
 47 48  1  0  0  0
 47  1  1  0  0  0
 48 52  1  0  0  0
  1 30  1  0  0  0
 29 30  1  0  0  0
 29 31  1  0  0  0
 30 32  1  0  0  0
  3  4  2  0  0  0
 32 33  2  0  0  0
 49 53  1  0  0  0
 49 57  1  0  0  0
 33 34  1  0  0  0
 62 54  1  0  0  0
 62 66  1  0  0  0
 34 35  1  0  0  0
 50 55  1  0  0  0
 50 58  1  0  0  0
 35 36  1  0  0  0
 51 52  1  0  0  0
 51 56  1  0  0  0
 36 37  1  0  0  0
 59 60  1  0  0  0
 59 61  1  0  0  0
 37 38  1  0  0  0
 63 66  1  0  0  0
 63 67  1  0  0  0
 38 39  1  0  0  0
 64 66  1  0  0  0
 39 40  1  0  0  0
 65 66  1  0  0  0
 65 68  1  0  0  0
 40 41  1  0  0  0
 41 42  1  0  0  0
 42 43  1  0  0  0
 43 44  1  0  0  0
 44 45  1  0  0  0
 45 46  1  0  0  0
  4  6  1  0  0  0
  6  7  1  0  0  0
  7  8  1  0  0  0
  8  9  1  0  0  0
  9 10  1  0  0  0
 10 11  1  0  0  0
 11 12  1  0  0  0
 12 13  1  0  0  0
 13 14  1  0  0  0
 14 15  1  0  0  0
 15 16  1  0  0  0
 16 17  1  0  0  0
 17 18  1  0  0  0
 18 19  1  0  0  0
 19 20  2  0  0  0
 20 21  1  0  0  0
 21 22  1  0  0  0
 22 23  1  0  0  0
 23 24  1  0  0  0
 24 25  1  0  0  0
 25 26  1  0  0  0
 26 27  1  0  0  0
 27 28  1  0  0  0
 52 53  1  0  0  0
 53 54  1  0  0  0
 54 55  1  0  0  0
 55 56  1  0  0  0
 56 60  1  0  0  0
M  CHG 1  64  -1
M  END
> <minimizedAffinity>
-9.03764

> <CNNscore>
0.2751175463

> <CNNaffinity>
7.1634492874

> <CNN_VS>
1.9707906246

> <CNNaffinity_variance>
0.9435548782

$$$$
/media/chris/experiments/cd1a-new-docking/inputs/ligands/7ryn_ligand.pdb


 68 68  0  0  0  0  0  0  0  0999 V2000
  -40.1529   59.8421   65.2051 C   0  0  0  0  0  0  0  0  0  0  0  0
  -40.0691   59.7223   63.7525 N   0  0  0  0  0  0  0  0  0  0  0  0
  -41.1371   61.6509   63.2964 O   0  0  0  0  0  0  0  0  0  0  0  0
  -40.5665   60.6339   62.9126 C   0  0  0  0  0  0  0  0  0  0  0  0
  -39.6238   58.9304   63.3734 H   0  0  0  0  0  0  0  0  0  0  0  0
  -40.3773   60.3409   61.4451 C   0  0  0  0  0  0  0  0  0  0  0  0
  -41.5652   59.6056   60.8376 C   0  0  0  0  0  0  0  0  0  0  0  0
  -41.1464   58.5394   59.8381 C   0  0  0  0  0  0  0  0  0  0  0  0
  -41.2526   57.1200   60.3704 C   0  0  0  0  0  0  0  0  0  0  0  0
  -41.3993   57.0394   61.8825 C   0  0  0  0  0  0  0  0  0  0  0  0
  -40.1364   56.5874   62.6045 C   0  0  0  0  0  0  0  0  0  0  0  0
  -38.8468   56.9654   61.8871 C   0  0  0  0  0  0  0  0  0  0  0  0
  -37.6729   57.2723   62.8135 C   0  0  0  0  0  0  0  0  0  0  0  0
  -36.3999   57.6986   62.0841 C   0  0  0  0  0  0  0  0  0  0  0  0
  -35.1214   57.5844   62.9141 C   0  0  0  0  0  0  0  0  0  0  0  0
  -33.8543   57.9290   62.1309 C   0  0  0  0  0  0  0  0  0  0  0  0
  -32.5802   58.0231   62.9703 C   0  0  0  0  0  0  0  0  0  0  0  0
  -32.0109   59.4362   63.1224 C   0  0  0  0  0  0  0  0  0  0  0  0
  -31.9415   60.1804   61.8203 C   0  0  0  0  0  0  0  0  0  0  0  0
  -30.8818   60.8027   61.3349 C   0  0  0  0  0  0  0  0  0  0  0  0
  -29.5345   60.8881   61.9856 C   0  0  0  0  0  0  0  0  0  0  0  0
  -29.3098   62.1855   62.7652 C   0  0  0  0  0  0  0  0  0  0  0  0
  -30.0412   63.3808   62.1689 C   0  0  0  0  0  0  0  0  0  0  0  0
  -29.5297   64.7215   62.6838 C   0  0  0  0  0  0  0  0  0  0  0  0
  -29.4352   64.8201   64.2020 C   0  0  0  0  0  0  0  0  0  0  0  0
  -30.0439   66.0934   64.7726 C   0  0  0  0  0  0  0  0  0  0  0  0
  -31.0457   65.8570   65.8916 C   0  0  0  0  0  0  0  0  0  0  0  0
  -32.3754   65.3306   65.3907 C   0  0  0  0  0  0  0  0  0  0  0  0
  -41.1558   61.7027   66.3744 O   0  0  0  0  0  0  0  0  0  0  0  0
  -41.4632   60.5512   65.5831 C   0  0  0  0  0  0  0  0  0  0  0  0
  -40.5540   62.2823   65.8816 H   0  0  0  0  0  0  0  0  0  0  0  0
  -42.3926   59.6314   66.3140 C   0  0  0  0  0  0  0  0  0  0  0  0
  -43.2570   58.8164   65.7426 C   0  0  0  0  0  0  0  0  0  0  0  0
  -44.1607   57.8993   66.4997 C   0  0  0  0  0  0  0  0  0  0  0  0
  -45.5095   58.5646   66.7809 C   0  0  0  0  0  0  0  0  0  0  0  0
  -46.6858   57.6020   66.8063 C   0  0  0  0  0  0  0  0  0  0  0  0
  -47.6850   57.8069   65.6805 C   0  0  0  0  0  0  0  0  0  0  0  0
  -47.2349   58.8105   64.6287 C   0  0  0  0  0  0  0  0  0  0  0  0
  -48.1015   60.0587   64.5650 C   0  0  0  0  0  0  0  0  0  0  0  0
  -49.2287   59.9698   63.5512 C   0  0  0  0  0  0  0  0  0  0  0  0
  -49.2432   58.6785   62.7546 C   0  0  0  0  0  0  0  0  0  0  0  0
  -50.5761   58.3808   62.0893 C   0  0  0  0  0  0  0  0  0  0  0  0
  -50.4510   57.4423   60.9034 C   0  0  0  0  0  0  0  0  0  0  0  0
  -49.7689   58.0504   59.6929 C   0  0  0  0  0  0  0  0  0  0  0  0
  -48.5629   57.2507   59.2407 C   0  0  0  0  0  0  0  0  0  0  0  0
  -47.8606   57.8798   58.0552 C   0  0  0  0  0  0  0  0  0  0  0  0
  -38.9371   60.5723   65.7371 C   0  0  0  0  0  0  0  0  0  0  0  0
  -37.7655   59.8738   65.3010 O   0  0  0  0  0  0  0  0  0  0  0  0
  -37.0169   60.6614   62.7203 O   0  0  0  0  0  0  0  0  0  0  0  0
  -36.5720   64.1986   65.1314 O   0  0  0  0  0  0  0  0  0  0  0  0
  -36.4568   61.5382   66.2205 O   0  0  0  0  0  0  0  0  0  0  0  0
  -36.6485   60.6905   65.1033 C   0  0  0  0  0  0  0  0  0  0  0  0
  -36.8862   61.5188   63.8472 C   0  0  0  0  0  0  0  0  0  0  0  0
  -35.7299   62.4890   63.6403 C   0  0  0  0  0  0  0  0  0  0  0  0
  -35.4801   63.3165   64.8926 C   0  0  0  0  0  0  0  0  0  0  0  0
  -35.3068   62.3897   66.0934 C   0  0  0  0  0  0  0  0  0  0  0  0
  -37.7554   60.0490   62.8638 H   0  0  0  0  0  0  0  0  0  0  0  0
  -36.6838   64.7884   64.3694 H   0  0  0  0  0  0  0  0  0  0  0  0
  -36.3900   63.7416   67.7928 O   0  0  0  0  0  0  0  0  0  0  0  0
  -35.1652   63.1318   67.4017 C   0  0  0  0  0  0  0  0  0  0  0  0
  -36.2646   64.2083   68.6339 H   0  0  0  0  0  0  0  0  0  0  0  0
  -36.1729   63.3657   62.5565 O   0  0  0  0  0  0  0  0  0  0  0  0
  -35.6317   64.4337   60.4652 O   0  0  0  0  0  0  0  0  0  0  0  0
  -33.8108   63.5978   61.9820 O   0  0  0  0  0  0  0  0  0  0  0  0
  -35.1198   65.5017   62.5279 O   0  0  0  0  0  0  0  0  0  0  0  0
  -35.0777   64.1800   61.7434 S   0  0  0  0  0  0  0  0  0  0  0  0
  -35.6211   63.6179   59.9405 H   0  0  0  0  0  0  0  0  0  0  0  0
  -35.9775   65.9329   62.3889 H   0  0  0  0  0  0  0  0  0  0  0  0
  2  1  1  0  0  0
  2  4  1  0  0  0
  2  5  1  0  0  0
 47 48  1  0  0  0
 47  1  1  0  0  0
 48 52  1  0  0  0
  1 30  1  0  0  0
 29 30  1  0  0  0
 29 31  1  0  0  0
 30 32  1  0  0  0
  3  4  2  0  0  0
 32 33  2  0  0  0
 49 53  1  0  0  0
 49 57  1  0  0  0
 33 34  1  0  0  0
 62 54  1  0  0  0
 62 66  1  0  0  0
 34 35  1  0  0  0
 50 55  1  0  0  0
 50 58  1  0  0  0
 35 36  1  0  0  0
 51 52  1  0  0  0
 51 56  1  0  0  0
 36 37  1  0  0  0
 59 60  1  0  0  0
 59 61  1  0  0  0
 37 38  1  0  0  0
 63 66  1  0  0  0
 63 67  1  0  0  0
 38 39  1  0  0  0
 64 66  1  0  0  0
 39 40  1  0  0  0
 65 66  1  0  0  0
 65 68  1  0  0  0
 40 41  1  0  0  0
 41 42  1  0  0  0
 42 43  1  0  0  0
 43 44  1  0  0  0
 44 45  1  0  0  0
 45 46  1  0  0  0
  4  6  1  0  0  0
  6  7  1  0  0  0
  7  8  1  0  0  0
  8  9  1  0  0  0
  9 10  1  0  0  0
 10 11  1  0  0  0
 11 12  1  0  0  0
 12 13  1  0  0  0
 13 14  1  0  0  0
 14 15  1  0  0  0
 15 16  1  0  0  0
 16 17  1  0  0  0
 17 18  1  0  0  0
 18 19  1  0  0  0
 19 20  2  0  0  0
 20 21  1  0  0  0
 21 22  1  0  0  0
 22 23  1  0  0  0
 23 24  1  0  0  0
 24 25  1  0  0  0
 25 26  1  0  0  0
 26 27  1  0  0  0
 27 28  1  0  0  0
 52 53  1  0  0  0
 53 54  1  0  0  0
 54 55  1  0  0  0
 55 56  1  0  0  0
 56 60  1  0  0  0
M  CHG 1  64  -1
M  END
> <minimizedAffinity>
-9.47514

> <CNNscore>
0.1822116524

> <CNNaffinity>
7.4556984901

> <CNN_VS>
1.3585151434

> <CNNaffinity_variance>
1.3163403273

$$$$
/media/chris/experiments/cd1a-new-docking/inputs/ligands/7ryn_ligand.pdb


 68 68  0  0  0  0  0  0  0  0999 V2000
  -37.2040   59.7462   62.8905 C   0  0  0  0  0  0  0  0  0  0  0  0
  -38.4416   59.6936   62.1179 N   0  0  0  0  0  0  0  0  0  0  0  0
  -37.5670   58.6121   60.3478 O   0  0  0  0  0  0  0  0  0  0  0  0
  -38.5271   59.1319   60.9091 C   0  0  0  0  0  0  0  0  0  0  0  0
  -39.2534   60.0918   62.5073 H   0  0  0  0  0  0  0  0  0  0  0  0
  -39.8922   59.1671   60.2684 C   0  0  0  0  0  0  0  0  0  0  0  0
  -41.0118   59.3416   61.2866 C   0  0  0  0  0  0  0  0  0  0  0  0
  -41.9030   58.1147   61.3944 C   0  0  0  0  0  0  0  0  0  0  0  0
  -41.1444   56.8222   61.6461 C   0  0  0  0  0  0  0  0  0  0  0  0
  -41.5971   56.0759   62.8921 C   0  0  0  0  0  0  0  0  0  0  0  0
  -41.5057   56.8954   64.1729 C   0  0  0  0  0  0  0  0  0  0  0  0
  -42.7002   56.7228   65.1024 C   0  0  0  0  0  0  0  0  0  0  0  0
  -43.5125   57.9945   65.3333 C   0  0  0  0  0  0  0  0  0  0  0  0
  -44.5700   58.2602   64.2631 C   0  0  0  0  0  0  0  0  0  0  0  0
  -45.9415   58.6588   64.8077 C   0  0  0  0  0  0  0  0  0  0  0  0
  -46.0327   58.5967   66.3326 C   0  0  0  0  0  0  0  0  0  0  0  0
  -47.4533   58.5480   66.8945 C   0  0  0  0  0  0  0  0  0  0  0  0
  -48.4740   57.8310   66.0067 C   0  0  0  0  0  0  0  0  0  0  0  0
  -49.7682   58.5818   65.8823 C   0  0  0  0  0  0  0  0  0  0  0  0
  -50.3875   58.8841   64.7549 C   0  0  0  0  0  0  0  0  0  0  0  0
  -49.9237   58.5354   63.3732 C   0  0  0  0  0  0  0  0  0  0  0  0
  -51.0447   58.5306   62.3316 C   0  0  0  0  0  0  0  0  0  0  0  0
  -50.6996   57.7355   61.0794 C   0  0  0  0  0  0  0  0  0  0  0  0
  -49.3008   58.0237   60.5460 C   0  0  0  0  0  0  0  0  0  0  0  0
  -48.9931   57.3781   59.1998 C   0  0  0  0  0  0  0  0  0  0  0  0
  -47.6780   56.6119   59.1737 C   0  0  0  0  0  0  0  0  0  0  0  0
  -46.8821   56.7854   57.8900 C   0  0  0  0  0  0  0  0  0  0  0  0
  -47.4990   57.7979   56.9463 C   0  0  0  0  0  0  0  0  0  0  0  0
  -37.1376   58.6422   65.0379 O   0  0  0  0  0  0  0  0  0  0  0  0
  -37.0089   58.4138   63.6316 C   0  0  0  0  0  0  0  0  0  0  0  0
  -38.0021   59.0416   65.2228 H   0  0  0  0  0  0  0  0  0  0  0  0
  -35.6830   57.7963   63.3083 C   0  0  0  0  0  0  0  0  0  0  0  0
  -34.7435   58.3592   62.5745 C   0  0  0  0  0  0  0  0  0  0  0  0
  -33.4241   57.7232   62.2821 C   0  0  0  0  0  0  0  0  0  0  0  0
  -32.2705   58.5901   62.7907 C   0  0  0  0  0  0  0  0  0  0  0  0
  -32.6943   59.9641   63.2841 C   0  0  0  0  0  0  0  0  0  0  0  0
  -32.1375   61.1193   62.4697 C   0  0  0  0  0  0  0  0  0  0  0  0
  -31.1414   60.6982   61.3990 C   0  0  0  0  0  0  0  0  0  0  0  0
  -29.7785   61.3584   61.5391 C   0  0  0  0  0  0  0  0  0  0  0  0
  -29.4034   61.6892   62.9729 C   0  0  0  0  0  0  0  0  0  0  0  0
  -29.5827   63.1512   63.3372 C   0  0  0  0  0  0  0  0  0  0  0  0
  -29.6261   64.0833   62.1384 C   0  0  0  0  0  0  0  0  0  0  0  0
  -29.6224   65.5502   62.5268 C   0  0  0  0  0  0  0  0  0  0  0  0
  -29.9925   66.4969   61.4011 C   0  0  0  0  0  0  0  0  0  0  0  0
  -30.9261   65.8621   60.3892 C   0  0  0  0  0  0  0  0  0  0  0  0
  -31.1666   66.7490   59.1850 C   0  0  0  0  0  0  0  0  0  0  0  0
  -37.2342   60.9260   63.8400 C   0  0  0  0  0  0  0  0  0  0  0  0
  -35.8842   61.2839   64.1567 O   0  0  0  0  0  0  0  0  0  0  0  0
  -34.4851   62.3266   66.3467 O   0  0  0  0  0  0  0  0  0  0  0  0
  -32.9767   64.4813   62.9402 O   0  0  0  0  0  0  0  0  0  0  0  0
  -35.5763   63.2497   62.9865 O   0  0  0  0  0  0  0  0  0  0  0  0
  -35.6649   62.6598   64.2701 C   0  0  0  0  0  0  0  0  0  0  0  0
  -34.3658   62.8686   65.0375 C   0  0  0  0  0  0  0  0  0  0  0  0
  -34.0404   64.3552   65.1099 C   0  0  0  0  0  0  0  0  0  0  0  0
  -34.0526   64.9854   63.7249 C   0  0  0  0  0  0  0  0  0  0  0  0
  -35.3754   64.6715   63.0304 C   0  0  0  0  0  0  0  0  0  0  0  0
  -34.6922   61.3808   66.2875 H   0  0  0  0  0  0  0  0  0  0  0  0
  -32.1351   64.6799   63.3798 H   0  0  0  0  0  0  0  0  0  0  0  0
  -35.2401   64.1039   60.6749 O   0  0  0  0  0  0  0  0  0  0  0  0
  -35.4297   65.1653   61.6036 C   0  0  0  0  0  0  0  0  0  0  0  0
  -35.2805   64.4541   59.7711 H   0  0  0  0  0  0  0  0  0  0  0  0
  -32.6860   64.4106   65.6593 O   0  0  0  0  0  0  0  0  0  0  0  0
  -32.6702   66.0957   67.3819 O   0  0  0  0  0  0  0  0  0  0  0  0
  -32.1298   66.6958   65.0021 O   0  0  0  0  0  0  0  0  0  0  0  0
  -30.6403   65.4214   66.3415 O   0  0  0  0  0  0  0  0  0  0  0  0
  -32.1077   65.8192   66.1121 S   0  0  0  0  0  0  0  0  0  0  0  0
  -33.5998   66.3513   67.2750 H   0  0  0  0  0  0  0  0  0  0  0  0
  -30.5836   64.8175   67.0985 H   0  0  0  0  0  0  0  0  0  0  0  0
  2  1  1  0  0  0
  2  4  1  0  0  0
  2  5  1  0  0  0
 47 48  1  0  0  0
 47  1  1  0  0  0
 48 52  1  0  0  0
  1 30  1  0  0  0
 29 30  1  0  0  0
 29 31  1  0  0  0
 30 32  1  0  0  0
  3  4  2  0  0  0
 32 33  2  0  0  0
 49 53  1  0  0  0
 49 57  1  0  0  0
 33 34  1  0  0  0
 62 54  1  0  0  0
 62 66  1  0  0  0
 34 35  1  0  0  0
 50 55  1  0  0  0
 50 58  1  0  0  0
 35 36  1  0  0  0
 51 52  1  0  0  0
 51 56  1  0  0  0
 36 37  1  0  0  0
 59 60  1  0  0  0
 59 61  1  0  0  0
 37 38  1  0  0  0
 63 66  1  0  0  0
 63 67  1  0  0  0
 38 39  1  0  0  0
 64 66  1  0  0  0
 39 40  1  0  0  0
 65 66  1  0  0  0
 65 68  1  0  0  0
 40 41  1  0  0  0
 41 42  1  0  0  0
 42 43  1  0  0  0
 43 44  1  0  0  0
 44 45  1  0  0  0
 45 46  1  0  0  0
  4  6  1  0  0  0
  6  7  1  0  0  0
  7  8  1  0  0  0
  8  9  1  0  0  0
  9 10  1  0  0  0
 10 11  1  0  0  0
 11 12  1  0  0  0
 12 13  1  0  0  0
 13 14  1  0  0  0
 14 15  1  0  0  0
 15 16  1  0  0  0
 16 17  1  0  0  0
 17 18  1  0  0  0
 18 19  1  0  0  0
 19 20  2  0  0  0
 20 21  1  0  0  0
 21 22  1  0  0  0
 22 23  1  0  0  0
 23 24  1  0  0  0
 24 25  1  0  0  0
 25 26  1  0  0  0
 26 27  1  0  0  0
 27 28  1  0  0  0
 52 53  1  0  0  0
 53 54  1  0  0  0
 54 55  1  0  0  0
 55 56  1  0  0  0
 56 60  1  0  0  0
M  CHG 1  64  -1
M  END
> <minimizedAffinity>
-9.40386

> <CNNscore>
0.1504773647

> <CNNaffinity>
6.6955614090

> <CNN_VS>
1.0075304508

> <CNNaffinity_variance>
1.0865724087

$$$$
/media/chris/experiments/cd1a-new-docking/inputs/ligands/7ryn_ligand.pdb


 68 68  0  0  0  0  0  0  0  0999 V2000
  -35.2921   61.2908   63.3184 C   0  0  0  0  0  0  0  0  0  0  0  0
  -36.4975   61.0779   64.1141 N   0  0  0  0  0  0  0  0  0  0  0  0
  -35.5932   61.6987   66.0800 O   0  0  0  0  0  0  0  0  0  0  0  0
  -36.5546   61.2979   65.4303 C   0  0  0  0  0  0  0  0  0  0  0  0
  -37.3084   60.7563   63.6578 H   0  0  0  0  0  0  0  0  0  0  0  0
  -37.8893   61.0286   66.0794 C   0  0  0  0  0  0  0  0  0  0  0  0
  -38.7653   60.0975   65.2510 C   0  0  0  0  0  0  0  0  0  0  0  0
  -39.9268   59.5232   66.0461 C   0  0  0  0  0  0  0  0  0  0  0  0
  -41.2814   59.7160   65.3849 C   0  0  0  0  0  0  0  0  0  0  0  0
  -42.1571   58.4721   65.4024 C   0  0  0  0  0  0  0  0  0  0  0  0
  -43.2894   58.4970   64.3837 C   0  0  0  0  0  0  0  0  0  0  0  0
  -44.6474   58.1190   64.9612 C   0  0  0  0  0  0  0  0  0  0  0  0
  -44.8051   58.4091   66.4517 C   0  0  0  0  0  0  0  0  0  0  0  0
  -46.0455   57.7768   67.0807 C   0  0  0  0  0  0  0  0  0  0  0  0
  -47.1305   57.3728   66.0827 C   0  0  0  0  0  0  0  0  0  0  0  0
  -48.4337   58.1546   66.2505 C   0  0  0  0  0  0  0  0  0  0  0  0
  -48.4091   59.5797   65.6983 C   0  0  0  0  0  0  0  0  0  0  0  0
  -48.1843   59.6824   64.1874 C   0  0  0  0  0  0  0  0  0  0  0  0
  -49.2836   60.4239   63.4832 C   0  0  0  0  0  0  0  0  0  0  0  0
  -50.3679   59.8877   62.9515 C   0  0  0  0  0  0  0  0  0  0  0  0
  -50.7198   58.4309   62.9472 C   0  0  0  0  0  0  0  0  0  0  0  0
  -51.2638   57.9341   61.6060 C   0  0  0  0  0  0  0  0  0  0  0  0
  -50.2598   57.1012   60.8203 C   0  0  0  0  0  0  0  0  0  0  0  0
  -49.7965   57.7699   59.5308 C   0  0  0  0  0  0  0  0  0  0  0  0
  -48.2952   57.6857   59.2803 C   0  0  0  0  0  0  0  0  0  0  0  0
  -47.8236   56.3068   58.8405 C   0  0  0  0  0  0  0  0  0  0  0  0
  -47.3500   56.2422   57.3972 C   0  0  0  0  0  0  0  0  0  0  0  0
  -47.1025   57.6110   56.7962 C   0  0  0  0  0  0  0  0  0  0  0  0
  -33.2733   60.1845   62.5871 O   0  0  0  0  0  0  0  0  0  0  0  0
  -34.2973   60.1498   63.5853 C   0  0  0  0  0  0  0  0  0  0  0  0
  -32.8442   61.0544   62.5941 H   0  0  0  0  0  0  0  0  0  0  0  0
  -34.9832   58.8182   63.6032 C   0  0  0  0  0  0  0  0  0  0  0  0
  -36.0690   58.5156   62.9194 C   0  0  0  0  0  0  0  0  0  0  0  0
  -36.7214   57.1723   62.9469 C   0  0  0  0  0  0  0  0  0  0  0  0
  -38.0150   57.1721   62.1298 C   0  0  0  0  0  0  0  0  0  0  0  0
  -39.2786   57.3107   62.9635 C   0  0  0  0  0  0  0  0  0  0  0  0
  -40.3881   56.3460   62.5813 C   0  0  0  0  0  0  0  0  0  0  0  0
  -41.5379   56.9941   61.8238 C   0  0  0  0  0  0  0  0  0  0  0  0
  -41.2339   57.2521   60.3560 C   0  0  0  0  0  0  0  0  0  0  0  0
  -41.3687   58.7093   59.9503 C   0  0  0  0  0  0  0  0  0  0  0  0
  -40.2184   59.5871   60.4073 C   0  0  0  0  0  0  0  0  0  0  0  0
  -40.5580   60.4815   61.5873 C   0  0  0  0  0  0  0  0  0  0  0  0
  -42.0500   60.5824   61.8454 C   0  0  0  0  0  0  0  0  0  0  0  0
  -42.6834   61.8727   61.3614 C   0  0  0  0  0  0  0  0  0  0  0  0
  -43.3101   62.6721   62.4869 C   0  0  0  0  0  0  0  0  0  0  0  0
  -42.3713   62.8549   63.6616 C   0  0  0  0  0  0  0  0  0  0  0  0
  -34.6972   62.6485   63.6299 C   0  0  0  0  0  0  0  0  0  0  0  0
  -34.6315   63.4013   62.4134 O   0  0  0  0  0  0  0  0  0  0  0  0
  -33.7675   65.9057   63.3203 O   0  0  0  0  0  0  0  0  0  0  0  0
  -30.3917   63.2969   63.8868 O   0  0  0  0  0  0  0  0  0  0  0  0
  -32.4557   62.7862   61.9487 O   0  0  0  0  0  0  0  0  0  0  0  0
  -33.3538   63.8704   62.0950 C   0  0  0  0  0  0  0  0  0  0  0  0
  -32.8941   64.7880   63.2205 C   0  0  0  0  0  0  0  0  0  0  0  0
  -31.4679   65.2550   62.9580 C   0  0  0  0  0  0  0  0  0  0  0  0
  -30.5440   64.0732   62.7029 C   0  0  0  0  0  0  0  0  0  0  0  0
  -31.1255   63.1977   61.5955 C   0  0  0  0  0  0  0  0  0  0  0  0
  -34.6714   65.5959   63.4872 H   0  0  0  0  0  0  0  0  0  0  0  0
  -30.0223   63.8514   64.5917 H   0  0  0  0  0  0  0  0  0  0  0  0
  -31.1298   60.9130   60.7774 O   0  0  0  0  0  0  0  0  0  0  0  0
  -30.3276   61.9378   61.3530 C   0  0  0  0  0  0  0  0  0  0  0  0
  -30.5887   60.1205   60.6351 H   0  0  0  0  0  0  0  0  0  0  0  0
  -31.0672   65.9300   64.1922 O   0  0  0  0  0  0  0  0  0  0  0  0
  -29.6710   67.7040   65.0352 O   0  0  0  0  0  0  0  0  0  0  0  0
  -31.9622   68.2013   64.1303 O   0  0  0  0  0  0  0  0  0  0  0  0
  -30.1669   67.5652   62.7130 O   0  0  0  0  0  0  0  0  0  0  0  0
  -30.7428   67.4842   64.1363 S   0  0  0  0  0  0  0  0  0  0  0  0
  -29.9994   67.6599   65.9468 H   0  0  0  0  0  0  0  0  0  0  0  0
  -29.3261   67.0827   62.6766 H   0  0  0  0  0  0  0  0  0  0  0  0
  2  1  1  0  0  0
  2  4  1  0  0  0
  2  5  1  0  0  0
 47 48  1  0  0  0
 47  1  1  0  0  0
 48 52  1  0  0  0
  1 30  1  0  0  0
 29 30  1  0  0  0
 29 31  1  0  0  0
 30 32  1  0  0  0
  3  4  2  0  0  0
 32 33  2  0  0  0
 49 53  1  0  0  0
 49 57  1  0  0  0
 33 34  1  0  0  0
 62 54  1  0  0  0
 62 66  1  0  0  0
 34 35  1  0  0  0
 50 55  1  0  0  0
 50 58  1  0  0  0
 35 36  1  0  0  0
 51 52  1  0  0  0
 51 56  1  0  0  0
 36 37  1  0  0  0
 59 60  1  0  0  0
 59 61  1  0  0  0
 37 38  1  0  0  0
 63 66  1  0  0  0
 63 67  1  0  0  0
 38 39  1  0  0  0
 64 66  1  0  0  0
 39 40  1  0  0  0
 65 66  1  0  0  0
 65 68  1  0  0  0
 40 41  1  0  0  0
 41 42  1  0  0  0
 42 43  1  0  0  0
 43 44  1  0  0  0
 44 45  1  0  0  0
 45 46  1  0  0  0
  4  6  1  0  0  0
  6  7  1  0  0  0
  7  8  1  0  0  0
  8  9  1  0  0  0
  9 10  1  0  0  0
 10 11  1  0  0  0
 11 12  1  0  0  0
 12 13  1  0  0  0
 13 14  1  0  0  0
 14 15  1  0  0  0
 15 16  1  0  0  0
 16 17  1  0  0  0
 17 18  1  0  0  0
 18 19  1  0  0  0
 19 20  2  0  0  0
 20 21  1  0  0  0
 21 22  1  0  0  0
 22 23  1  0  0  0
 23 24  1  0  0  0
 24 25  1  0  0  0
 25 26  1  0  0  0
 26 27  1  0  0  0
 27 28  1  0  0  0
 52 53  1  0  0  0
 53 54  1  0  0  0
 54 55  1  0  0  0
 55 56  1  0  0  0
 56 60  1  0  0  0
M  CHG 1  64  -1
M  END
> <minimizedAffinity>
-8.96136

> <CNNscore>
0.1309628338

> <CNNaffinity>
7.1716318130

> <CNN_VS>
0.9392172098

> <CNNaffinity_variance>
1.1413570642

$$$$
/media/chris/experiments/cd1a-new-docking/inputs/ligands/7ryn_ligand.pdb


 68 68  0  0  0  0  0  0  0  0999 V2000
  -37.0052   61.3851   63.9388 C   0  0  0  0  0  0  0  0  0  0  0  0
  -37.6610   60.2375   64.5587 N   0  0  0  0  0  0  0  0  0  0  0  0
  -38.3291   61.3235   66.4140 O   0  0  0  0  0  0  0  0  0  0  0  0
  -38.2708   60.2954   65.7456 C   0  0  0  0  0  0  0  0  0  0  0  0
  -37.6534   59.3784   64.0779 H   0  0  0  0  0  0  0  0  0  0  0  0
  -38.8987   59.0085   66.2199 C   0  0  0  0  0  0  0  0  0  0  0  0
  -39.9580   58.4854   65.2583 C   0  0  0  0  0  0  0  0  0  0  0  0
  -41.3048   59.1660   65.4424 C   0  0  0  0  0  0  0  0  0  0  0  0
  -41.6642   60.1332   64.3267 C   0  0  0  0  0  0  0  0  0  0  0  0
  -42.9568   59.7854   63.6037 C   0  0  0  0  0  0  0  0  0  0  0  0
  -43.4654   58.3776   63.8861 C   0  0  0  0  0  0  0  0  0  0  0  0
  -44.8598   58.3365   64.4980 C   0  0  0  0  0  0  0  0  0  0  0  0
  -44.9092   57.8027   65.9274 C   0  0  0  0  0  0  0  0  0  0  0  0
  -45.4472   58.8048   66.9474 C   0  0  0  0  0  0  0  0  0  0  0  0
  -46.8642   58.5132   67.4409 C   0  0  0  0  0  0  0  0  0  0  0  0
  -47.9449   59.2767   66.6749 C   0  0  0  0  0  0  0  0  0  0  0  0
  -48.6429   58.4794   65.5733 C   0  0  0  0  0  0  0  0  0  0  0  0
  -50.1627   58.3683   65.7216 C   0  0  0  0  0  0  0  0  0  0  0  0
  -50.8731   59.6583   65.4289 C   0  0  0  0  0  0  0  0  0  0  0  0
  -51.3451   60.0380   64.2546 C   0  0  0  0  0  0  0  0  0  0  0  0
  -51.2687   59.2554   62.9788 C   0  0  0  0  0  0  0  0  0  0  0  0
  -50.0362   59.5798   62.1318 C   0  0  0  0  0  0  0  0  0  0  0  0
  -49.3957   58.3487   61.5045 C   0  0  0  0  0  0  0  0  0  0  0  0
  -50.0645   57.9144   60.2051 C   0  0  0  0  0  0  0  0  0  0  0  0
  -49.1402   57.1955   59.2290 C   0  0  0  0  0  0  0  0  0  0  0  0
  -48.0534   58.0868   58.6445 C   0  0  0  0  0  0  0  0  0  0  0  0
  -47.5515   57.6427   57.2797 C   0  0  0  0  0  0  0  0  0  0  0  0
  -47.2049   56.1683   57.2304 C   0  0  0  0  0  0  0  0  0  0  0  0
  -36.9690   62.6541   61.8838 O   0  0  0  0  0  0  0  0  0  0  0  0
  -37.2636   61.3626   62.4237 C   0  0  0  0  0  0  0  0  0  0  0  0
  -36.0528   62.8920   62.0962 H   0  0  0  0  0  0  0  0  0  0  0  0
  -38.6734   60.9614   62.1144 C   0  0  0  0  0  0  0  0  0  0  0  0
  -39.0508   60.2749   61.0542 C   0  0  0  0  0  0  0  0  0  0  0  0
  -40.4643   59.8769   60.7813 C   0  0  0  0  0  0  0  0  0  0  0  0
  -40.5522   58.9635   59.5570 C   0  0  0  0  0  0  0  0  0  0  0  0
  -41.2474   57.6371   59.8178 C   0  0  0  0  0  0  0  0  0  0  0  0
  -41.7546   57.4666   61.2397 C   0  0  0  0  0  0  0  0  0  0  0  0
  -41.0819   56.3365   62.0053 C   0  0  0  0  0  0  0  0  0  0  0  0
  -39.8518   56.7745   62.7851 C   0  0  0  0  0  0  0  0  0  0  0  0
  -38.5980   56.8898   61.9361 C   0  0  0  0  0  0  0  0  0  0  0  0
  -37.3608   57.2997   62.7130 C   0  0  0  0  0  0  0  0  0  0  0  0
  -36.3223   58.0277   61.8769 C   0  0  0  0  0  0  0  0  0  0  0  0
  -35.0418   58.3147   62.6390 C   0  0  0  0  0  0  0  0  0  0  0  0
  -33.7804   57.8340   61.9474 C   0  0  0  0  0  0  0  0  0  0  0  0
  -32.5636   57.8907   62.8499 C   0  0  0  0  0  0  0  0  0  0  0  0
  -32.8590   58.5487   64.1820 C   0  0  0  0  0  0  0  0  0  0  0  0
  -35.5258   61.3760   64.2636 C   0  0  0  0  0  0  0  0  0  0  0  0
  -35.2330   62.5275   65.0630 O   0  0  0  0  0  0  0  0  0  0  0  0
  -32.5299   62.0793   64.4853 O   0  0  0  0  0  0  0  0  0  0  0  0
  -34.1269   63.9341   60.9453 O   0  0  0  0  0  0  0  0  0  0  0  0
  -35.2972   64.2713   63.5518 O   0  0  0  0  0  0  0  0  0  0  0  0
  -34.4744   63.5036   64.4104 C   0  0  0  0  0  0  0  0  0  0  0  0
  -33.3879   62.7987   63.6087 C   0  0  0  0  0  0  0  0  0  0  0  0
  -32.5887   63.8204   62.8096 C   0  0  0  0  0  0  0  0  0  0  0  0
  -33.5069   64.6996   61.9734 C   0  0  0  0  0  0  0  0  0  0  0  0
  -34.5830   65.3123   62.8664 C   0  0  0  0  0  0  0  0  0  0  0  0
  -33.0497   61.4327   64.9880 H   0  0  0  0  0  0  0  0  0  0  0  0
  -33.4448   63.5438   60.3767 H   0  0  0  0  0  0  0  0  0  0  0  0
  -35.1745   67.4520   61.8860 O   0  0  0  0  0  0  0  0  0  0  0  0
  -35.6080   66.1133   62.0980 C   0  0  0  0  0  0  0  0  0  0  0  0
  -35.8535   67.9372   61.3915 H   0  0  0  0  0  0  0  0  0  0  0  0
  -31.7430   63.0185   61.9259 O   0  0  0  0  0  0  0  0  0  0  0  0
  -29.5795   62.0342   61.5290 O   0  0  0  0  0  0  0  0  0  0  0  0
  -29.8442   63.9197   63.1691 O   0  0  0  0  0  0  0  0  0  0  0  0
  -30.0338   64.2610   60.8273 O   0  0  0  0  0  0  0  0  0  0  0  0
  -30.1709   63.2425   61.9709 S   0  0  0  0  0  0  0  0  0  0  0  0
  -29.6481   61.3658   62.2286 H   0  0  0  0  0  0  0  0  0  0  0  0
  -30.2507   63.8321   59.9847 H   0  0  0  0  0  0  0  0  0  0  0  0
  2  1  1  0  0  0
  2  4  1  0  0  0
  2  5  1  0  0  0
 47 48  1  0  0  0
 47  1  1  0  0  0
 48 52  1  0  0  0
  1 30  1  0  0  0
 29 30  1  0  0  0
 29 31  1  0  0  0
 30 32  1  0  0  0
  3  4  2  0  0  0
 32 33  2  0  0  0
 49 53  1  0  0  0
 49 57  1  0  0  0
 33 34  1  0  0  0
 62 54  1  0  0  0
 62 66  1  0  0  0
 34 35  1  0  0  0
 50 55  1  0  0  0
 50 58  1  0  0  0
 35 36  1  0  0  0
 51 52  1  0  0  0
 51 56  1  0  0  0
 36 37  1  0  0  0
 59 60  1  0  0  0
 59 61  1  0  0  0
 37 38  1  0  0  0
 63 66  1  0  0  0
 63 67  1  0  0  0
 38 39  1  0  0  0
 64 66  1  0  0  0
 39 40  1  0  0  0
 65 66  1  0  0  0
 65 68  1  0  0  0
 40 41  1  0  0  0
 41 42  1  0  0  0
 42 43  1  0  0  0
 43 44  1  0  0  0
 44 45  1  0  0  0
 45 46  1  0  0  0
  4  6  1  0  0  0
  6  7  1  0  0  0
  7  8  1  0  0  0
  8  9  1  0  0  0
  9 10  1  0  0  0
 10 11  1  0  0  0
 11 12  1  0  0  0
 12 13  1  0  0  0
 13 14  1  0  0  0
 14 15  1  0  0  0
 15 16  1  0  0  0
 16 17  1  0  0  0
 17 18  1  0  0  0
 18 19  1  0  0  0
 19 20  2  0  0  0
 20 21  1  0  0  0
 21 22  1  0  0  0
 22 23  1  0  0  0
 23 24  1  0  0  0
 24 25  1  0  0  0
 25 26  1  0  0  0
 26 27  1  0  0  0
 27 28  1  0  0  0
 52 53  1  0  0  0
 53 54  1  0  0  0
 54 55  1  0  0  0
 55 56  1  0  0  0
 56 60  1  0  0  0
M  CHG 1  64  -1
M  END
> <minimizedAffinity>
-8.92721

> <CNNscore>
0.1194936857

> <CNNaffinity>
7.2737283707

> <CNN_VS>
0.8691645861

> <CNNaffinity_variance>
1.1990061998

$$$$
/media/chris/experiments/cd1a-new-docking/inputs/ligands/7ryn_ligand.pdb


 68 68  0  0  0  0  0  0  0  0999 V2000
  -36.1200   60.5565   63.6120 C   0  0  0  0  0  0  0  0  0  0  0  0
  -37.5733   60.4304   63.6697 N   0  0  0  0  0  0  0  0  0  0  0  0
  -37.9536   61.1386   61.5669 O   0  0  0  0  0  0  0  0  0  0  0  0
  -38.3758   60.7305   62.6450 C   0  0  0  0  0  0  0  0  0  0  0  0
  -37.9820   60.1081   64.5053 H   0  0  0  0  0  0  0  0  0  0  0  0
  -39.8503   60.5289   62.8904 C   0  0  0  0  0  0  0  0  0  0  0  0
  -40.5363   59.7844   61.7520 C   0  0  0  0  0  0  0  0  0  0  0  0
  -39.8984   58.4345   61.4656 C   0  0  0  0  0  0  0  0  0  0  0  0
  -40.6148   57.2636   62.1176 C   0  0  0  0  0  0  0  0  0  0  0  0
  -42.1142   57.4691   62.2729 C   0  0  0  0  0  0  0  0  0  0  0  0
  -42.5921   57.4767   63.7193 C   0  0  0  0  0  0  0  0  0  0  0  0
  -43.3533   58.7367   64.1110 C   0  0  0  0  0  0  0  0  0  0  0  0
  -44.8484   58.5288   64.3391 C   0  0  0  0  0  0  0  0  0  0  0  0
  -45.2354   58.3543   65.8068 C   0  0  0  0  0  0  0  0  0  0  0  0
  -46.6991   57.9806   66.0397 C   0  0  0  0  0  0  0  0  0  0  0  0
  -47.4582   58.9962   66.8941 C   0  0  0  0  0  0  0  0  0  0  0  0
  -48.7457   59.5335   66.2695 C   0  0  0  0  0  0  0  0  0  0  0  0
  -49.5781   58.4948   65.5129 C   0  0  0  0  0  0  0  0  0  0  0  0
  -50.7159   59.1050   64.7466 C   0  0  0  0  0  0  0  0  0  0  0  0
  -50.6528   59.6027   63.5242 C   0  0  0  0  0  0  0  0  0  0  0  0
  -49.4327   59.6555   62.6556 C   0  0  0  0  0  0  0  0  0  0  0  0
  -49.7289   59.4583   61.1673 C   0  0  0  0  0  0  0  0  0  0  0  0
  -50.4242   58.1384   60.8615 C   0  0  0  0  0  0  0  0  0  0  0  0
  -49.8064   57.3869   59.6876 C   0  0  0  0  0  0  0  0  0  0  0  0
  -48.3133   57.6293   59.4985 C   0  0  0  0  0  0  0  0  0  0  0  0
  -47.5451   56.3967   59.0428 C   0  0  0  0  0  0  0  0  0  0  0  0
  -47.2926   56.3394   57.5446 C   0  0  0  0  0  0  0  0  0  0  0  0
  -47.4093   57.6938   56.8751 C   0  0  0  0  0  0  0  0  0  0  0  0
  -36.0844   58.3297   64.5473 O   0  0  0  0  0  0  0  0  0  0  0  0
  -35.4894   59.1564   63.5429 C   0  0  0  0  0  0  0  0  0  0  0  0
  -37.0456   58.3059   64.4188 H   0  0  0  0  0  0  0  0  0  0  0  0
  -34.0020   59.2167   63.7106 C   0  0  0  0  0  0  0  0  0  0  0  0
  -33.1383   59.4401   62.7401 C   0  0  0  0  0  0  0  0  0  0  0  0
  -31.6600   59.5093   62.9422 C   0  0  0  0  0  0  0  0  0  0  0  0
  -31.0081   60.4436   61.9209 C   0  0  0  0  0  0  0  0  0  0  0  0
  -29.5345   60.7153   62.1767 C   0  0  0  0  0  0  0  0  0  0  0  0
  -29.2564   62.0240   62.8962 C   0  0  0  0  0  0  0  0  0  0  0  0
  -29.7933   63.2524   62.1760 C   0  0  0  0  0  0  0  0  0  0  0  0
  -29.5242   64.5571   62.9099 C   0  0  0  0  0  0  0  0  0  0  0  0
  -29.7308   65.7943   62.0541 C   0  0  0  0  0  0  0  0  0  0  0  0
  -30.3642   65.5135   60.7041 C   0  0  0  0  0  0  0  0  0  0  0  0
  -31.3830   66.5549   60.2738 C   0  0  0  0  0  0  0  0  0  0  0  0
  -31.1232   67.0994   58.8814 C   0  0  0  0  0  0  0  0  0  0  0  0
  -30.1410   66.2833   58.0631 C   0  0  0  0  0  0  0  0  0  0  0  0
  -30.1945   66.6178   56.5854 C   0  0  0  0  0  0  0  0  0  0  0  0
  -31.4975   67.2796   56.1869 C   0  0  0  0  0  0  0  0  0  0  0  0
  -35.6195   61.3475   64.8028 C   0  0  0  0  0  0  0  0  0  0  0  0
  -36.4988   62.4592   65.0069 O   0  0  0  0  0  0  0  0  0  0  0  0
  -34.6252   63.6039   66.7446 O   0  0  0  0  0  0  0  0  0  0  0  0
  -33.0565   64.3134   62.8002 O   0  0  0  0  0  0  0  0  0  0  0  0
  -35.8555   63.8965   63.3191 O   0  0  0  0  0  0  0  0  0  0  0  0
  -35.9302   63.7034   64.7193 C   0  0  0  0  0  0  0  0  0  0  0  0
  -34.5360   63.7377   65.3317 C   0  0  0  0  0  0  0  0  0  0  0  0
  -33.8429   65.0448   64.9685 C   0  0  0  0  0  0  0  0  0  0  0  0
  -33.8673   65.2769   63.4649 C   0  0  0  0  0  0  0  0  0  0  0  0
  -35.3017   65.1704   62.9529 C   0  0  0  0  0  0  0  0  0  0  0  0
  -35.0677   62.7689   66.9631 H   0  0  0  0  0  0  0  0  0  0  0  0
  -32.1446   64.3795   63.1241 H   0  0  0  0  0  0  0  0  0  0  0  0
  -35.2973   64.0025   60.8257 O   0  0  0  0  0  0  0  0  0  0  0  0
  -35.4057   65.2769   61.4494 C   0  0  0  0  0  0  0  0  0  0  0  0
  -35.3680   64.1063   59.8639 H   0  0  0  0  0  0  0  0  0  0  0  0
  -32.4607   64.8658   65.4122 O   0  0  0  0  0  0  0  0  0  0  0  0
  -32.3624   66.2311   67.3955 O   0  0  0  0  0  0  0  0  0  0  0  0
  -31.5322   67.1138   65.1940 O   0  0  0  0  0  0  0  0  0  0  0  0
  -30.3626   65.4283   66.3888 O   0  0  0  0  0  0  0  0  0  0  0  0
  -31.7330   66.0781   66.1364 S   0  0  0  0  0  0  0  0  0  0  0  0
  -33.2336   66.6401   67.2740 H   0  0  0  0  0  0  0  0  0  0  0  0
  -30.4594   64.7096   67.0331 H   0  0  0  0  0  0  0  0  0  0  0  0
  2  1  1  0  0  0
  2  4  1  0  0  0
  2  5  1  0  0  0
 47 48  1  0  0  0
 47  1  1  0  0  0
 48 52  1  0  0  0
  1 30  1  0  0  0
 29 30  1  0  0  0
 29 31  1  0  0  0
 30 32  1  0  0  0
  3  4  2  0  0  0
 32 33  2  0  0  0
 49 53  1  0  0  0
 49 57  1  0  0  0
 33 34  1  0  0  0
 62 54  1  0  0  0
 62 66  1  0  0  0
 34 35  1  0  0  0
 50 55  1  0  0  0
 50 58  1  0  0  0
 35 36  1  0  0  0
 51 52  1  0  0  0
 51 56  1  0  0  0
 36 37  1  0  0  0
 59 60  1  0  0  0
 59 61  1  0  0  0
 37 38  1  0  0  0
 63 66  1  0  0  0
 63 67  1  0  0  0
 38 39  1  0  0  0
 64 66  1  0  0  0
 39 40  1  0  0  0
 65 66  1  0  0  0
 65 68  1  0  0  0
 40 41  1  0  0  0
 41 42  1  0  0  0
 42 43  1  0  0  0
 43 44  1  0  0  0
 44 45  1  0  0  0
 45 46  1  0  0  0
  4  6  1  0  0  0
  6  7  1  0  0  0
  7  8  1  0  0  0
  8  9  1  0  0  0
  9 10  1  0  0  0
 10 11  1  0  0  0
 11 12  1  0  0  0
 12 13  1  0  0  0
 13 14  1  0  0  0
 14 15  1  0  0  0
 15 16  1  0  0  0
 16 17  1  0  0  0
 17 18  1  0  0  0
 18 19  1  0  0  0
 19 20  2  0  0  0
 20 21  1  0  0  0
 21 22  1  0  0  0
 22 23  1  0  0  0
 23 24  1  0  0  0
 24 25  1  0  0  0
 25 26  1  0  0  0
 26 27  1  0  0  0
 27 28  1  0  0  0
 52 53  1  0  0  0
 53 54  1  0  0  0
 54 55  1  0  0  0
 55 56  1  0  0  0
 56 60  1  0  0  0
M  CHG 1  64  -1
M  END
> <minimizedAffinity>
-9.13483

> <CNNscore>
0.1161256358

> <CNNaffinity>
6.5932846069

> <CNN_VS>
0.7656493783

> <CNNaffinity_variance>
0.3741867542

$$$$
