/media/chris/experiments/cd1a-new-docking/inputs/ligands/7ryn_ligand.pdb


 68 68  0  0  0  0  0  0  0  0999 V2000
  -35.7109   62.0486   64.2197 C   0  0  0  0  0  0  0  0  0  0  0  0
  -36.5547   61.3964   65.2168 N   0  0  0  0  0  0  0  0  0  0  0  0
  -38.3730   61.2146   63.9021 O   0  0  0  0  0  0  0  0  0  0  0  0
  -37.8176   61.0307   64.9813 C   0  0  0  0  0  0  0  0  0  0  0  0
  -36.1739   61.2173   66.1068 H   0  0  0  0  0  0  0  0  0  0  0  0
  -38.5287   60.3629   66.1318 C   0  0  0  0  0  0  0  0  0  0  0  0
  -39.0818   58.9928   65.7612 C   0  0  0  0  0  0  0  0  0  0  0  0
  -40.5676   59.0270   65.4412 C   0  0  0  0  0  0  0  0  0  0  0  0
  -41.3468   60.0572   66.2417 C   0  0  0  0  0  0  0  0  0  0  0  0
  -42.5566   59.4864   66.9665 C   0  0  0  0  0  0  0  0  0  0  0  0
  -42.7378   57.9850   66.7827 C   0  0  0  0  0  0  0  0  0  0  0  0
  -43.8631   57.6120   65.8261 C   0  0  0  0  0  0  0  0  0  0  0  0
  -45.0311   58.5947   65.8079 C   0  0  0  0  0  0  0  0  0  0  0  0
  -46.0928   58.3188   66.8715 C   0  0  0  0  0  0  0  0  0  0  0  0
  -47.0688   57.1959   66.5214 C   0  0  0  0  0  0  0  0  0  0  0  0
  -48.1876   57.6343   65.5761 C   0  0  0  0  0  0  0  0  0  0  0  0
  -49.0196   58.8201   66.0640 C   0  0  0  0  0  0  0  0  0  0  0  0
  -50.5219   58.7099   65.7908 C   0  0  0  0  0  0  0  0  0  0  0  0
  -51.0231   59.7689   64.8517 C   0  0  0  0  0  0  0  0  0  0  0  0
  -51.0950   59.6717   63.5360 C   0  0  0  0  0  0  0  0  0  0  0  0
  -50.6934   58.4831   62.7162 C   0  0  0  0  0  0  0  0  0  0  0  0
  -49.3533   58.6565   61.9979 C   0  0  0  0  0  0  0  0  0  0  0  0
  -49.5005   58.9422   60.5093 C   0  0  0  0  0  0  0  0  0  0  0  0
  -49.8947   57.7158   59.6941 C   0  0  0  0  0  0  0  0  0  0  0  0
  -49.0549   56.4748   59.9745 C   0  0  0  0  0  0  0  0  0  0  0  0
  -47.8838   56.2983   59.0182 C   0  0  0  0  0  0  0  0  0  0  0  0
  -48.1089   56.9015   57.6407 C   0  0  0  0  0  0  0  0  0  0  0  0
  -47.1815   58.0634   57.3475 C   0  0  0  0  0  0  0  0  0  0  0  0
  -33.8387   61.5834   62.7661 O   0  0  0  0  0  0  0  0  0  0  0  0
  -34.4298   61.2235   64.0181 C   0  0  0  0  0  0  0  0  0  0  0  0
  -33.6662   62.5378   62.7525 H   0  0  0  0  0  0  0  0  0  0  0  0
  -34.7107   59.7531   64.0750 C   0  0  0  0  0  0  0  0  0  0  0  0
  -34.5811   58.9169   63.0641 C   0  0  0  0  0  0  0  0  0  0  0  0
  -34.8549   57.4516   63.1567 C   0  0  0  0  0  0  0  0  0  0  0  0
  -36.0527   57.1724   64.0669 C   0  0  0  0  0  0  0  0  0  0  0  0
  -37.3818   57.6622   63.5153 C   0  0  0  0  0  0  0  0  0  0  0  0
  -37.7351   57.1024   62.1479 C   0  0  0  0  0  0  0  0  0  0  0  0
  -37.4471   58.0544   60.9963 C   0  0  0  0  0  0  0  0  0  0  0  0
  -38.0314   59.4449   61.1925 C   0  0  0  0  0  0  0  0  0  0  0  0
  -39.1163   59.7995   60.1907 C   0  0  0  0  0  0  0  0  0  0  0  0
  -40.5045   59.9048   60.7942 C   0  0  0  0  0  0  0  0  0  0  0  0
  -41.5392   59.0238   60.1152 C   0  0  0  0  0  0  0  0  0  0  0  0
  -41.5483   57.6023   60.6460 C   0  0  0  0  0  0  0  0  0  0  0  0
  -41.1999   57.4807   62.1170 C   0  0  0  0  0  0  0  0  0  0  0  0
  -42.0582   56.4587   62.8364 C   0  0  0  0  0  0  0  0  0  0  0  0
  -41.3100   55.7518   63.9477 C   0  0  0  0  0  0  0  0  0  0  0  0
  -35.4102   63.4712   64.6441 C   0  0  0  0  0  0  0  0  0  0  0  0
  -34.8502   64.1665   63.5244 O   0  0  0  0  0  0  0  0  0  0  0  0
  -33.1958   64.3591   61.2736 O   0  0  0  0  0  0  0  0  0  0  0  0
  -32.0849   67.6961   63.7540 O   0  0  0  0  0  0  0  0  0  0  0  0
  -33.2989   65.3060   64.7986 O   0  0  0  0  0  0  0  0  0  0  0  0
  -33.4960   64.4845   63.6629 C   0  0  0  0  0  0  0  0  0  0  0  0
  -33.0513   65.2131   62.4014 C   0  0  0  0  0  0  0  0  0  0  0  0
  -31.6011   65.6574   62.5440 C   0  0  0  0  0  0  0  0  0  0  0  0
  -31.3963   66.4518   63.8255 C   0  0  0  0  0  0  0  0  0  0  0  0
  -31.9212   65.6509   65.0145 C   0  0  0  0  0  0  0  0  0  0  0  0
  -34.1222   64.0833   61.1934 H   0  0  0  0  0  0  0  0  0  0  0  0
  -31.7528   68.2065   62.9990 H   0  0  0  0  0  0  0  0  0  0  0  0
  -30.7505   66.0051   67.1105 O   0  0  0  0  0  0  0  0  0  0  0  0
  -31.8599   66.4125   66.3179 C   0  0  0  0  0  0  0  0  0  0  0  0
  -30.7406   66.5119   67.9375 H   0  0  0  0  0  0  0  0  0  0  0  0
  -31.3648   66.5240   61.3896 O   0  0  0  0  0  0  0  0  0  0  0  0
  -29.5503   65.0124   60.9105 O   0  0  0  0  0  0  0  0  0  0  0  0
  -29.6550   67.2713   59.8144 O   0  0  0  0  0  0  0  0  0  0  0  0
  -31.1591   65.5278   59.2362 O   0  0  0  0  0  0  0  0  0  0  0  0
  -30.2522   66.1006   60.3377 S   0  0  0  0  0  0  0  0  0  0  0  0
  -28.9657   65.3383   61.6127 H   0  0  0  0  0  0  0  0  0  0  0  0
  -31.5886   64.7200   59.5586 H   0  0  0  0  0  0  0  0  0  0  0  0
  2  1  1  0  0  0
  2  4  1  0  0  0
  2  5  1  0  0  0
 47 48  1  0  0  0
 47  1  1  0  0  0
 48 52  1  0  0  0
  1 30  1  0  0  0
 29 30  1  0  0  0
 29 31  1  0  0  0
 30 32  1  0  0  0
  3  4  2  0  0  0
 32 33  2  0  0  0
 49 53  1  0  0  0
 49 57  1  0  0  0
 33 34  1  0  0  0
 62 54  1  0  0  0
 62 66  1  0  0  0
 34 35  1  0  0  0
 50 55  1  0  0  0
 50 58  1  0  0  0
 35 36  1  0  0  0
 51 52  1  0  0  0
 51 56  1  0  0  0
 36 37  1  0  0  0
 59 60  1  0  0  0
 59 61  1  0  0  0
 37 38  1  0  0  0
 63 66  1  0  0  0
 63 67  1  0  0  0
 38 39  1  0  0  0
 64 66  1  0  0  0
 39 40  1  0  0  0
 65 66  1  0  0  0
 65 68  1  0  0  0
 40 41  1  0  0  0
 41 42  1  0  0  0
 42 43  1  0  0  0
 43 44  1  0  0  0
 44 45  1  0  0  0
 45 46  1  0  0  0
  4  6  1  0  0  0
  6  7  1  0  0  0
  7  8  1  0  0  0
  8  9  1  0  0  0
  9 10  1  0  0  0
 10 11  1  0  0  0
 11 12  1  0  0  0
 12 13  1  0  0  0
 13 14  1  0  0  0
 14 15  1  0  0  0
 15 16  1  0  0  0
 16 17  1  0  0  0
 17 18  1  0  0  0
 18 19  1  0  0  0
 19 20  2  0  0  0
 20 21  1  0  0  0
 21 22  1  0  0  0
 22 23  1  0  0  0
 23 24  1  0  0  0
 24 25  1  0  0  0
 25 26  1  0  0  0
 26 27  1  0  0  0
 27 28  1  0  0  0
 52 53  1  0  0  0
 53 54  1  0  0  0
 54 55  1  0  0  0
 55 56  1  0  0  0
 56 60  1  0  0  0
M  CHG 1  64  -1
M  END
> <minimizedAffinity>
-9.48769

> <CNNscore>
0.3056977093

> <CNNaffinity>
7.3150773048

> <CNN_VS>
2.2362024784

> <CNNaffinity_variance>
0.8350777626

$$$$
/media/chris/experiments/cd1a-new-docking/inputs/ligands/7ryn_ligand.pdb


 68 68  0  0  0  0  0  0  0  0999 V2000
  -35.7513   61.9466   64.5783 C   0  0  0  0  0  0  0  0  0  0  0  0
  -37.0093   61.2310   64.7697 N   0  0  0  0  0  0  0  0  0  0  0  0
  -37.6410   61.2856   62.6096 O   0  0  0  0  0  0  0  0  0  0  0  0
  -37.8549   60.9566   63.7728 C   0  0  0  0  0  0  0  0  0  0  0  0
  -37.2461   60.9361   65.6787 H   0  0  0  0  0  0  0  0  0  0  0  0
  -39.1011   60.2019   64.1635 C   0  0  0  0  0  0  0  0  0  0  0  0
  -38.8506   59.1984   65.2819 C   0  0  0  0  0  0  0  0  0  0  0  0
  -39.5105   57.8538   65.0221 C   0  0  0  0  0  0  0  0  0  0  0  0
  -40.1634   57.7417   63.6544 C   0  0  0  0  0  0  0  0  0  0  0  0
  -41.1529   56.5920   63.5374 C   0  0  0  0  0  0  0  0  0  0  0  0
  -41.8342   56.2246   64.8495 C   0  0  0  0  0  0  0  0  0  0  0  0
  -43.3276   56.5236   64.8741 C   0  0  0  0  0  0  0  0  0  0  0  0
  -43.7141   57.8710   64.2696 C   0  0  0  0  0  0  0  0  0  0  0  0
  -44.8590   58.5738   64.9974 C   0  0  0  0  0  0  0  0  0  0  0  0
  -44.9618   58.2486   66.4873 C   0  0  0  0  0  0  0  0  0  0  0  0
  -46.2614   58.7357   67.1287 C   0  0  0  0  0  0  0  0  0  0  0  0
  -47.5294   58.4357   66.3296 C   0  0  0  0  0  0  0  0  0  0  0  0
  -48.4321   59.6455   66.0739 C   0  0  0  0  0  0  0  0  0  0  0  0
  -49.8916   59.2928   66.0656 C   0  0  0  0  0  0  0  0  0  0  0  0
  -50.5994   58.9330   65.0096 C   0  0  0  0  0  0  0  0  0  0  0  0
  -50.0868   58.8015   63.6074 C   0  0  0  0  0  0  0  0  0  0  0  0
  -51.1910   58.6169   62.5642 C   0  0  0  0  0  0  0  0  0  0  0  0
  -50.7227   57.8819   61.3153 C   0  0  0  0  0  0  0  0  0  0  0  0
  -49.2099   57.9090   61.1290 C   0  0  0  0  0  0  0  0  0  0  0  0
  -48.6921   56.9841   60.0333 C   0  0  0  0  0  0  0  0  0  0  0  0
  -48.8412   57.5535   58.6295 C   0  0  0  0  0  0  0  0  0  0  0  0
  -47.8421   57.0017   57.6249 C   0  0  0  0  0  0  0  0  0  0  0  0
  -46.8907   58.0573   57.0992 C   0  0  0  0  0  0  0  0  0  0  0  0
  -34.0678   62.3989   66.2504 O   0  0  0  0  0  0  0  0  0  0  0  0
  -34.6777   61.3452   65.4994 C   0  0  0  0  0  0  0  0  0  0  0  0
  -34.7494   62.8791   66.7462 H   0  0  0  0  0  0  0  0  0  0  0  0
  -33.6526   60.5803   64.7194 C   0  0  0  0  0  0  0  0  0  0  0  0
  -33.4918   60.6443   63.4125 C   0  0  0  0  0  0  0  0  0  0  0  0
  -32.4492   59.8796   62.6647 C   0  0  0  0  0  0  0  0  0  0  0  0
  -32.6666   58.3715   62.8052 C   0  0  0  0  0  0  0  0  0  0  0  0
  -33.8461   57.8355   62.0100 C   0  0  0  0  0  0  0  0  0  0  0  0
  -34.9181   57.1690   62.8552 C   0  0  0  0  0  0  0  0  0  0  0  0
  -36.2509   57.9034   62.8559 C   0  0  0  0  0  0  0  0  0  0  0  0
  -36.7581   58.2500   61.4646 C   0  0  0  0  0  0  0  0  0  0  0  0
  -38.2117   57.8764   61.2325 C   0  0  0  0  0  0  0  0  0  0  0  0
  -38.9297   58.7730   60.2412 C   0  0  0  0  0  0  0  0  0  0  0  0
  -40.2732   58.2319   59.7829 C   0  0  0  0  0  0  0  0  0  0  0  0
  -41.4439   58.8321   60.5391 C   0  0  0  0  0  0  0  0  0  0  0  0
  -41.1958   60.2310   61.0697 C   0  0  0  0  0  0  0  0  0  0  0  0
  -42.1530   60.6102   62.1827 C   0  0  0  0  0  0  0  0  0  0  0  0
  -42.8517   61.9289   61.9230 C   0  0  0  0  0  0  0  0  0  0  0  0
  -35.9521   63.4268   64.8297 C   0  0  0  0  0  0  0  0  0  0  0  0
  -35.3613   64.1521   63.7455 O   0  0  0  0  0  0  0  0  0  0  0  0
  -33.8046   63.8025   61.4443 O   0  0  0  0  0  0  0  0  0  0  0  0
  -32.0400   67.1611   63.4762 O   0  0  0  0  0  0  0  0  0  0  0  0
  -33.5843   65.1475   64.8319 O   0  0  0  0  0  0  0  0  0  0  0  0
  -33.9681   64.2480   63.8085 C   0  0  0  0  0  0  0  0  0  0  0  0
  -33.4678   64.7420   62.4573 C   0  0  0  0  0  0  0  0  0  0  0  0
  -31.9587   64.9456   62.5068 C   0  0  0  0  0  0  0  0  0  0  0  0
  -31.5652   65.8339   63.6778 C   0  0  0  0  0  0  0  0  0  0  0  0
  -32.1599   65.2746   64.9680 C   0  0  0  0  0  0  0  0  0  0  0  0
  -34.7667   63.6815   61.4226 H   0  0  0  0  0  0  0  0  0  0  0  0
  -31.6631   67.5182   62.6568 H   0  0  0  0  0  0  0  0  0  0  0  0
  -30.6000   66.7080   66.1516 O   0  0  0  0  0  0  0  0  0  0  0  0
  -31.9122   66.1578   66.1685 C   0  0  0  0  0  0  0  0  0  0  0  0
  -30.4742   67.2680   66.9336 H   0  0  0  0  0  0  0  0  0  0  0  0
  -31.6358   65.6223   61.2510 O   0  0  0  0  0  0  0  0  0  0  0  0
  -29.7595   64.1322   60.9938 O   0  0  0  0  0  0  0  0  0  0  0  0
  -29.4408   66.6218   60.8685 O   0  0  0  0  0  0  0  0  0  0  0  0
  -30.5401   65.4117   59.1469 O   0  0  0  0  0  0  0  0  0  0  0  0
  -30.1804   65.4375   60.6415 S   0  0  0  0  0  0  0  0  0  0  0  0
  -29.5237   64.1113   61.9345 H   0  0  0  0  0  0  0  0  0  0  0  0
  -31.0503   64.6102   58.9509 H   0  0  0  0  0  0  0  0  0  0  0  0
  2  1  1  0  0  0
  2  4  1  0  0  0
  2  5  1  0  0  0
 47 48  1  0  0  0
 47  1  1  0  0  0
 48 52  1  0  0  0
  1 30  1  0  0  0
 29 30  1  0  0  0
 29 31  1  0  0  0
 30 32  1  0  0  0
  3  4  2  0  0  0
 32 33  2  0  0  0
 49 53  1  0  0  0
 49 57  1  0  0  0
 33 34  1  0  0  0
 62 54  1  0  0  0
 62 66  1  0  0  0
 34 35  1  0  0  0
 50 55  1  0  0  0
 50 58  1  0  0  0
 35 36  1  0  0  0
 51 52  1  0  0  0
 51 56  1  0  0  0
 36 37  1  0  0  0
 59 60  1  0  0  0
 59 61  1  0  0  0
 37 38  1  0  0  0
 63 66  1  0  0  0
 63 67  1  0  0  0
 38 39  1  0  0  0
 64 66  1  0  0  0
 39 40  1  0  0  0
 65 66  1  0  0  0
 65 68  1  0  0  0
 40 41  1  0  0  0
 41 42  1  0  0  0
 42 43  1  0  0  0
 43 44  1  0  0  0
 44 45  1  0  0  0
 45 46  1  0  0  0
  4  6  1  0  0  0
  6  7  1  0  0  0
  7  8  1  0  0  0
  8  9  1  0  0  0
  9 10  1  0  0  0
 10 11  1  0  0  0
 11 12  1  0  0  0
 12 13  1  0  0  0
 13 14  1  0  0  0
 14 15  1  0  0  0
 15 16  1  0  0  0
 16 17  1  0  0  0
 17 18  1  0  0  0
 18 19  1  0  0  0
 19 20  2  0  0  0
 20 21  1  0  0  0
 21 22  1  0  0  0
 22 23  1  0  0  0
 23 24  1  0  0  0
 24 25  1  0  0  0
 25 26  1  0  0  0
 26 27  1  0  0  0
 27 28  1  0  0  0
 52 53  1  0  0  0
 53 54  1  0  0  0
 54 55  1  0  0  0
 55 56  1  0  0  0
 56 60  1  0  0  0
M  CHG 1  64  -1
M  END
> <minimizedAffinity>
-9.50008

> <CNNscore>
0.2400332391

> <CNNaffinity>
7.2323865891

> <CNN_VS>
1.7360131741

> <CNNaffinity_variance>
1.0215141773

$$$$
/media/chris/experiments/cd1a-new-docking/inputs/ligands/7ryn_ligand.pdb


 68 68  0  0  0  0  0  0  0  0999 V2000
  -36.2109   59.2933   63.6811 C   0  0  0  0  0  0  0  0  0  0  0  0
  -37.2542   59.9033   64.5001 N   0  0  0  0  0  0  0  0  0  0  0  0
  -37.9014   57.9992   65.5117 O   0  0  0  0  0  0  0  0  0  0  0  0
  -38.0170   59.2106   65.3500 C   0  0  0  0  0  0  0  0  0  0  0  0
  -37.4029   60.8734   64.4220 H   0  0  0  0  0  0  0  0  0  0  0  0
  -39.0374   60.0156   66.1156 C   0  0  0  0  0  0  0  0  0  0  0  0
  -40.4675   59.5899   65.8092 C   0  0  0  0  0  0  0  0  0  0  0  0
  -41.5004   60.5390   66.3954 C   0  0  0  0  0  0  0  0  0  0  0  0
  -42.5654   59.8500   67.2322 C   0  0  0  0  0  0  0  0  0  0  0  0
  -42.5590   58.3336   67.1091 C   0  0  0  0  0  0  0  0  0  0  0  0
  -43.9258   57.7301   66.8113 C   0  0  0  0  0  0  0  0  0  0  0  0
  -45.0616   58.7452   66.8114 C   0  0  0  0  0  0  0  0  0  0  0  0
  -46.4080   58.1895   67.2683 C   0  0  0  0  0  0  0  0  0  0  0  0
  -47.0370   57.1996   66.2891 C   0  0  0  0  0  0  0  0  0  0  0  0
  -48.2980   57.7082   65.5908 C   0  0  0  0  0  0  0  0  0  0  0  0
  -48.7269   59.1026   66.0481 C   0  0  0  0  0  0  0  0  0  0  0  0
  -48.2475   60.2508   65.1603 C   0  0  0  0  0  0  0  0  0  0  0  0
  -49.1990   60.6258   64.0210 C   0  0  0  0  0  0  0  0  0  0  0  0
  -50.5683   60.0322   64.1854 C   0  0  0  0  0  0  0  0  0  0  0  0
  -51.2311   59.3402   63.2756 C   0  0  0  0  0  0  0  0  0  0  0  0
  -50.7477   59.0059   61.8970 C   0  0  0  0  0  0  0  0  0  0  0  0
  -51.1963   57.6277   61.4059 C   0  0  0  0  0  0  0  0  0  0  0  0
  -50.1712   56.9444   60.5106 C   0  0  0  0  0  0  0  0  0  0  0  0
  -48.7919   57.5914   60.5672 C   0  0  0  0  0  0  0  0  0  0  0  0
  -47.8550   57.1803   59.4370 C   0  0  0  0  0  0  0  0  0  0  0  0
  -47.8776   58.1288   58.2466 C   0  0  0  0  0  0  0  0  0  0  0  0
  -47.5384   57.4694   56.9191 C   0  0  0  0  0  0  0  0  0  0  0  0
  -47.1504   56.0122   57.0670 C   0  0  0  0  0  0  0  0  0  0  0  0
  -35.4927   57.0339   63.2187 O   0  0  0  0  0  0  0  0  0  0  0  0
  -36.6469   57.8772   63.2721 C   0  0  0  0  0  0  0  0  0  0  0  0
  -35.0437   57.0455   64.0784 H   0  0  0  0  0  0  0  0  0  0  0  0
  -37.3670   57.8839   61.9585 C   0  0  0  0  0  0  0  0  0  0  0  0
  -37.6867   58.9648   61.2748 C   0  0  0  0  0  0  0  0  0  0  0  0
  -38.3925   58.9377   59.9588 C   0  0  0  0  0  0  0  0  0  0  0  0
  -39.8865   59.2201   60.1299 C   0  0  0  0  0  0  0  0  0  0  0  0
  -40.7923   58.2605   59.3753 C   0  0  0  0  0  0  0  0  0  0  0  0
  -41.5761   57.3110   60.2651 C   0  0  0  0  0  0  0  0  0  0  0  0
  -40.7715   56.7448   61.4260 C   0  0  0  0  0  0  0  0  0  0  0  0
  -41.4638   55.5989   62.1477 C   0  0  0  0  0  0  0  0  0  0  0  0
  -41.8071   55.9056   63.5949 C   0  0  0  0  0  0  0  0  0  0  0  0
  -41.9750   57.3844   63.8904 C   0  0  0  0  0  0  0  0  0  0  0  0
  -43.2857   57.9671   63.3900 C   0  0  0  0  0  0  0  0  0  0  0  0
  -43.3170   59.4834   63.4364 C   0  0  0  0  0  0  0  0  0  0  0  0
  -42.2321   60.1575   62.6188 C   0  0  0  0  0  0  0  0  0  0  0  0
  -42.1391   61.6465   62.8892 C   0  0  0  0  0  0  0  0  0  0  0  0
  -43.1514   62.4450   62.0943 C   0  0  0  0  0  0  0  0  0  0  0  0
  -34.8962   59.2885   64.4335 C   0  0  0  0  0  0  0  0  0  0  0  0
  -34.0104   60.2174   63.7985 O   0  0  0  0  0  0  0  0  0  0  0  0
  -33.1017   62.4393   62.3568 O   0  0  0  0  0  0  0  0  0  0  0  0
  -36.6003   63.8277   64.4436 O   0  0  0  0  0  0  0  0  0  0  0  0
  -35.0213   61.5989   65.3472 O   0  0  0  0  0  0  0  0  0  0  0  0
  -33.9879   61.4854   64.3865 C   0  0  0  0  0  0  0  0  0  0  0  0
  -34.1765   62.5198   63.2844 C   0  0  0  0  0  0  0  0  0  0  0  0
  -34.2462   63.9156   63.8908 C   0  0  0  0  0  0  0  0  0  0  0  0
  -35.2949   63.9818   64.9913 C   0  0  0  0  0  0  0  0  0  0  0  0
  -35.0398   62.8733   66.0097 C   0  0  0  0  0  0  0  0  0  0  0  0
  -33.0676   61.5470   61.9780 H   0  0  0  0  0  0  0  0  0  0  0  0
  -36.7643   64.5311   63.7962 H   0  0  0  0  0  0  0  0  0  0  0  0
  -36.0212   63.8936   67.9808 O   0  0  0  0  0  0  0  0  0  0  0  0
  -36.1023   62.7941   67.0809 C   0  0  0  0  0  0  0  0  0  0  0  0
  -36.7150   63.8123   68.6538 H   0  0  0  0  0  0  0  0  0  0  0  0
  -34.6476   64.7806   62.7817 O   0  0  0  0  0  0  0  0  0  0  0  0
  -34.4374   66.9399   61.7326 O   0  0  0  0  0  0  0  0  0  0  0  0
  -32.5334   65.3007   61.6759 O   0  0  0  0  0  0  0  0  0  0  0  0
  -33.1652   66.4176   63.6733 O   0  0  0  0  0  0  0  0  0  0  0  0
  -33.6437   65.9144   62.3015 S   0  0  0  0  0  0  0  0  0  0  0  0
  -34.7578   66.6555   60.8623 H   0  0  0  0  0  0  0  0  0  0  0  0
  -33.9023   66.8468   64.1353 H   0  0  0  0  0  0  0  0  0  0  0  0
  2  1  1  0  0  0
  2  4  1  0  0  0
  2  5  1  0  0  0
 47 48  1  0  0  0
 47  1  1  0  0  0
 48 52  1  0  0  0
  1 30  1  0  0  0
 29 30  1  0  0  0
 29 31  1  0  0  0
 30 32  1  0  0  0
  3  4  2  0  0  0
 32 33  2  0  0  0
 49 53  1  0  0  0
 49 57  1  0  0  0
 33 34  1  0  0  0
 62 54  1  0  0  0
 62 66  1  0  0  0
 34 35  1  0  0  0
 50 55  1  0  0  0
 50 58  1  0  0  0
 35 36  1  0  0  0
 51 52  1  0  0  0
 51 56  1  0  0  0
 36 37  1  0  0  0
 59 60  1  0  0  0
 59 61  1  0  0  0
 37 38  1  0  0  0
 63 66  1  0  0  0
 63 67  1  0  0  0
 38 39  1  0  0  0
 64 66  1  0  0  0
 39 40  1  0  0  0
 65 66  1  0  0  0
 65 68  1  0  0  0
 40 41  1  0  0  0
 41 42  1  0  0  0
 42 43  1  0  0  0
 43 44  1  0  0  0
 44 45  1  0  0  0
 45 46  1  0  0  0
  4  6  1  0  0  0
  6  7  1  0  0  0
  7  8  1  0  0  0
  8  9  1  0  0  0
  9 10  1  0  0  0
 10 11  1  0  0  0
 11 12  1  0  0  0
 12 13  1  0  0  0
 13 14  1  0  0  0
 14 15  1  0  0  0
 15 16  1  0  0  0
 16 17  1  0  0  0
 17 18  1  0  0  0
 18 19  1  0  0  0
 19 20  2  0  0  0
 20 21  1  0  0  0
 21 22  1  0  0  0
 22 23  1  0  0  0
 23 24  1  0  0  0
 24 25  1  0  0  0
 25 26  1  0  0  0
 26 27  1  0  0  0
 27 28  1  0  0  0
 52 53  1  0  0  0
 53 54  1  0  0  0
 54 55  1  0  0  0
 55 56  1  0  0  0
 56 60  1  0  0  0
M  CHG 1  64  -1
M  END
> <minimizedAffinity>
-9.61349

> <CNNscore>
0.1879359782

> <CNNaffinity>
7.5513639450

> <CNN_VS>
1.4191730022

> <CNNaffinity_variance>
2.1748878956

$$$$
/media/chris/experiments/cd1a-new-docking/inputs/ligands/7ryn_ligand.pdb


 68 68  0  0  0  0  0  0  0  0999 V2000
  -37.6493   60.6468   64.3859 C   0  0  0  0  0  0  0  0  0  0  0  0
  -38.6436   59.6225   64.6917 N   0  0  0  0  0  0  0  0  0  0  0  0
  -39.6326   60.7500   66.3706 O   0  0  0  0  0  0  0  0  0  0  0  0
  -39.5562   59.7531   65.6583 C   0  0  0  0  0  0  0  0  0  0  0  0
  -38.6413   58.7944   64.1592 H   0  0  0  0  0  0  0  0  0  0  0  0
  -40.5052   58.5919   65.8207 C   0  0  0  0  0  0  0  0  0  0  0  0
  -40.7473   57.8473   64.5141 C   0  0  0  0  0  0  0  0  0  0  0  0
  -41.3823   56.4823   64.7257 C   0  0  0  0  0  0  0  0  0  0  0  0
  -42.8989   56.4867   64.6292 C   0  0  0  0  0  0  0  0  0  0  0  0
  -43.4640   57.6820   63.8765 C   0  0  0  0  0  0  0  0  0  0  0  0
  -44.3520   58.5846   64.7237 C   0  0  0  0  0  0  0  0  0  0  0  0
  -44.4024   58.1948   66.1955 C   0  0  0  0  0  0  0  0  0  0  0  0
  -45.8102   57.9865   66.7479 C   0  0  0  0  0  0  0  0  0  0  0  0
  -46.8530   58.9417   66.1694 C   0  0  0  0  0  0  0  0  0  0  0  0
  -47.8941   58.2785   65.2681 C   0  0  0  0  0  0  0  0  0  0  0  0
  -49.1042   57.7384   66.0306 C   0  0  0  0  0  0  0  0  0  0  0  0
  -50.3577   58.6099   65.9561 C   0  0  0  0  0  0  0  0  0  0  0  0
  -50.2310   59.8472   65.0635 C   0  0  0  0  0  0  0  0  0  0  0  0
  -51.4461   60.0794   64.2126 C   0  0  0  0  0  0  0  0  0  0  0  0
  -51.6800   59.5449   63.0271 C   0  0  0  0  0  0  0  0  0  0  0  0
  -50.7802   58.5963   62.2944 C   0  0  0  0  0  0  0  0  0  0  0  0
  -49.7727   59.2908   61.3756 C   0  0  0  0  0  0  0  0  0  0  0  0
  -49.3756   58.4479   60.1710 C   0  0  0  0  0  0  0  0  0  0  0  0
  -48.8242   57.0773   60.5472 C   0  0  0  0  0  0  0  0  0  0  0  0
  -48.5772   56.1495   59.3630 C   0  0  0  0  0  0  0  0  0  0  0  0
  -47.1866   56.2842   58.7585 C   0  0  0  0  0  0  0  0  0  0  0  0
  -47.1729   56.3589   57.2399 C   0  0  0  0  0  0  0  0  0  0  0  0
  -47.4073   57.7616   56.7167 C   0  0  0  0  0  0  0  0  0  0  0  0
  -37.4594   62.4378   62.7763 O   0  0  0  0  0  0  0  0  0  0  0  0
  -37.7688   61.0473   62.9066 C   0  0  0  0  0  0  0  0  0  0  0  0
  -36.5727   62.6065   63.1315 H   0  0  0  0  0  0  0  0  0  0  0  0
  -39.1342   60.7492   62.3671 C   0  0  0  0  0  0  0  0  0  0  0  0
  -40.2651   61.1922   62.8797 C   0  0  0  0  0  0  0  0  0  0  0  0
  -41.6116   60.8893   62.3089 C   0  0  0  0  0  0  0  0  0  0  0  0
  -41.4901   60.2136   60.9415 C   0  0  0  0  0  0  0  0  0  0  0  0
  -41.8211   58.7300   60.9482 C   0  0  0  0  0  0  0  0  0  0  0  0
  -40.8070   57.8604   60.2248 C   0  0  0  0  0  0  0  0  0  0  0  0
  -39.5858   58.6188   59.7258 C   0  0  0  0  0  0  0  0  0  0  0  0
  -38.3092   58.2869   60.4831 C   0  0  0  0  0  0  0  0  0  0  0  0
  -38.5369   57.4474   61.7279 C   0  0  0  0  0  0  0  0  0  0  0  0
  -37.2738   57.1558   62.5164 C   0  0  0  0  0  0  0  0  0  0  0  0
  -36.0388   57.8623   61.9839 C   0  0  0  0  0  0  0  0  0  0  0  0
  -34.7655   57.4527   62.7005 C   0  0  0  0  0  0  0  0  0  0  0  0
  -33.4900   57.9283   62.0319 C   0  0  0  0  0  0  0  0  0  0  0  0
  -32.4286   58.3442   63.0315 C   0  0  0  0  0  0  0  0  0  0  0  0
  -32.9000   58.2167   64.4654 C   0  0  0  0  0  0  0  0  0  0  0  0
  -36.2624   60.1432   64.7284 C   0  0  0  0  0  0  0  0  0  0  0  0
  -35.3316   60.7269   63.8100 O   0  0  0  0  0  0  0  0  0  0  0  0
  -33.0950   61.5428   62.3360 O   0  0  0  0  0  0  0  0  0  0  0  0
  -34.1497   64.9591   64.7317 O   0  0  0  0  0  0  0  0  0  0  0  0
  -34.8403   62.2631   65.4614 O   0  0  0  0  0  0  0  0  0  0  0  0
  -34.3129   61.4680   64.4159 C   0  0  0  0  0  0  0  0  0  0  0  0
  -33.6755   62.3516   63.3515 C   0  0  0  0  0  0  0  0  0  0  0  0
  -32.6153   63.2433   63.9856 C   0  0  0  0  0  0  0  0  0  0  0  0
  -33.1835   64.0097   65.1709 C   0  0  0  0  0  0  0  0  0  0  0  0
  -33.8396   63.0343   66.1451 C   0  0  0  0  0  0  0  0  0  0  0  0
  -33.7789   60.9803   61.9403 H   0  0  0  0  0  0  0  0  0  0  0  0
  -33.7347   65.5798   64.1125 H   0  0  0  0  0  0  0  0  0  0  0  0
  -33.8385   64.9003   67.6967 O   0  0  0  0  0  0  0  0  0  0  0  0
  -34.5300   63.7216   67.2999 C   0  0  0  0  0  0  0  0  0  0  0  0
  -34.3067   65.3158   68.4377 H   0  0  0  0  0  0  0  0  0  0  0  0
  -32.2437   64.1841   62.9291 O   0  0  0  0  0  0  0  0  0  0  0  0
  -30.4472   65.2162   61.6985 O   0  0  0  0  0  0  0  0  0  0  0  0
  -30.0403   64.2442   63.9800 O   0  0  0  0  0  0  0  0  0  0  0  0
  -31.2934   66.2372   63.6731 O   0  0  0  0  0  0  0  0  0  0  0  0
  -30.8384   64.9185   63.0265 S   0  0  0  0  0  0  0  0  0  0  0  0
  -30.1529   64.4035   61.2583 H   0  0  0  0  0  0  0  0  0  0  0  0
  -31.8459   66.7306   63.0469 H   0  0  0  0  0  0  0  0  0  0  0  0
  2  1  1  0  0  0
  2  4  1  0  0  0
  2  5  1  0  0  0
 47 48  1  0  0  0
 47  1  1  0  0  0
 48 52  1  0  0  0
  1 30  1  0  0  0
 29 30  1  0  0  0
 29 31  1  0  0  0
 30 32  1  0  0  0
  3  4  2  0  0  0
 32 33  2  0  0  0
 49 53  1  0  0  0
 49 57  1  0  0  0
 33 34  1  0  0  0
 62 54  1  0  0  0
 62 66  1  0  0  0
 34 35  1  0  0  0
 50 55  1  0  0  0
 50 58  1  0  0  0
 35 36  1  0  0  0
 51 52  1  0  0  0
 51 56  1  0  0  0
 36 37  1  0  0  0
 59 60  1  0  0  0
 59 61  1  0  0  0
 37 38  1  0  0  0
 63 66  1  0  0  0
 63 67  1  0  0  0
 38 39  1  0  0  0
 64 66  1  0  0  0
 39 40  1  0  0  0
 65 66  1  0  0  0
 65 68  1  0  0  0
 40 41  1  0  0  0
 41 42  1  0  0  0
 42 43  1  0  0  0
 43 44  1  0  0  0
 44 45  1  0  0  0
 45 46  1  0  0  0
  4  6  1  0  0  0
  6  7  1  0  0  0
  7  8  1  0  0  0
  8  9  1  0  0  0
  9 10  1  0  0  0
 10 11  1  0  0  0
 11 12  1  0  0  0
 12 13  1  0  0  0
 13 14  1  0  0  0
 14 15  1  0  0  0
 15 16  1  0  0  0
 16 17  1  0  0  0
 17 18  1  0  0  0
 18 19  1  0  0  0
 19 20  2  0  0  0
 20 21  1  0  0  0
 21 22  1  0  0  0
 22 23  1  0  0  0
 23 24  1  0  0  0
 24 25  1  0  0  0
 25 26  1  0  0  0
 26 27  1  0  0  0
 27 28  1  0  0  0
 52 53  1  0  0  0
 53 54  1  0  0  0
 54 55  1  0  0  0
 55 56  1  0  0  0
 56 60  1  0  0  0
M  CHG 1  64  -1
M  END
> <minimizedAffinity>
-9.39046

> <CNNscore>
0.1788321435

> <CNNaffinity>
7.3444657326

> <CNN_VS>
1.3134264946

> <CNNaffinity_variance>
1.3933129311

$$$$
/media/chris/experiments/cd1a-new-docking/inputs/ligands/7ryn_ligand.pdb


 68 68  0  0  0  0  0  0  0  0999 V2000
  -37.7149   61.2179   64.3804 C   0  0  0  0  0  0  0  0  0  0  0  0
  -38.4725   60.0986   64.9323 N   0  0  0  0  0  0  0  0  0  0  0  0
  -39.9194   61.3548   66.1139 O   0  0  0  0  0  0  0  0  0  0  0  0
  -39.5137   60.2533   65.7544 C   0  0  0  0  0  0  0  0  0  0  0  0
  -38.2025   59.1843   64.6862 H   0  0  0  0  0  0  0  0  0  0  0  0
  -40.1758   58.9789   66.2157 C   0  0  0  0  0  0  0  0  0  0  0  0
  -41.6215   59.1932   66.6452 C   0  0  0  0  0  0  0  0  0  0  0  0
  -42.4154   57.8979   66.7000 C   0  0  0  0  0  0  0  0  0  0  0  0
  -42.1687   56.9736   65.5193 C   0  0  0  0  0  0  0  0  0  0  0  0
  -43.3793   56.7938   64.6154 C   0  0  0  0  0  0  0  0  0  0  0  0
  -43.9039   58.0925   64.0163 C   0  0  0  0  0  0  0  0  0  0  0  0
  -45.2488   58.5329   64.5800 C   0  0  0  0  0  0  0  0  0  0  0  0
  -45.8773   57.5479   65.5624 C   0  0  0  0  0  0  0  0  0  0  0  0
  -46.0634   58.1083   66.9716 C   0  0  0  0  0  0  0  0  0  0  0  0
  -47.2689   59.0336   67.1353 C   0  0  0  0  0  0  0  0  0  0  0  0
  -48.5287   58.5218   66.4365 C   0  0  0  0  0  0  0  0  0  0  0  0
  -49.3823   59.6003   65.7696 C   0  0  0  0  0  0  0  0  0  0  0  0
  -50.8001   59.1607   65.3948 C   0  0  0  0  0  0  0  0  0  0  0  0
  -51.4033   60.0023   64.3074 C   0  0  0  0  0  0  0  0  0  0  0  0
  -51.4347   59.7055   63.0203 C   0  0  0  0  0  0  0  0  0  0  0  0
  -50.8767   58.4670   62.3870 C   0  0  0  0  0  0  0  0  0  0  0  0
  -49.9722   58.7457   61.1846 C   0  0  0  0  0  0  0  0  0  0  0  0
  -50.1206   57.7200   60.0688 C   0  0  0  0  0  0  0  0  0  0  0  0
  -49.2099   56.5087   60.2356 C   0  0  0  0  0  0  0  0  0  0  0  0
  -47.9102   56.5821   59.4424 C   0  0  0  0  0  0  0  0  0  0  0  0
  -48.0092   55.9826   58.0467 C   0  0  0  0  0  0  0  0  0  0  0  0
  -47.1484   56.6819   57.0065 C   0  0  0  0  0  0  0  0  0  0  0  0
  -47.0455   58.1763   57.2349 C   0  0  0  0  0  0  0  0  0  0  0  0
  -36.9895   62.2162   62.3040 O   0  0  0  0  0  0  0  0  0  0  0  0
  -37.5599   61.0293   62.8628 C   0  0  0  0  0  0  0  0  0  0  0  0
  -36.1429   62.4038   62.7387 H   0  0  0  0  0  0  0  0  0  0  0  0
  -38.8714   60.7082   62.2140 C   0  0  0  0  0  0  0  0  0  0  0  0
  -39.0161   60.2220   60.9972 C   0  0  0  0  0  0  0  0  0  0  0  0
  -40.3385   59.8977   60.3833 C   0  0  0  0  0  0  0  0  0  0  0  0
  -40.2723   58.5888   59.5937 C   0  0  0  0  0  0  0  0  0  0  0  0
  -41.1178   57.4672   60.1749 C   0  0  0  0  0  0  0  0  0  0  0  0
  -41.2552   57.5078   61.6873 C   0  0  0  0  0  0  0  0  0  0  0  0
  -40.3668   56.5103   62.4162 C   0  0  0  0  0  0  0  0  0  0  0  0
  -39.1648   57.1464   63.0970 C   0  0  0  0  0  0  0  0  0  0  0  0
  -37.9073   57.1442   62.2456 C   0  0  0  0  0  0  0  0  0  0  0  0
  -36.6325   57.4087   63.0250 C   0  0  0  0  0  0  0  0  0  0  0  0
  -35.5534   58.1119   62.2196 C   0  0  0  0  0  0  0  0  0  0  0  0
  -34.1503   57.6785   62.6019 C   0  0  0  0  0  0  0  0  0  0  0  0
  -33.4480   58.6124   63.5687 C   0  0  0  0  0  0  0  0  0  0  0  0
  -33.2018   59.9862   62.9767 C   0  0  0  0  0  0  0  0  0  0  0  0
  -32.0953   59.9825   61.9422 C   0  0  0  0  0  0  0  0  0  0  0  0
  -36.3758   61.3334   65.0789 C   0  0  0  0  0  0  0  0  0  0  0  0
  -36.4590   62.3914   66.0403 O   0  0  0  0  0  0  0  0  0  0  0  0
  -34.2902   63.3415   67.5351 O   0  0  0  0  0  0  0  0  0  0  0  0
  -33.1074   63.8393   63.4271 O   0  0  0  0  0  0  0  0  0  0  0  0
  -35.8589   63.7345   64.2613 O   0  0  0  0  0  0  0  0  0  0  0  0
  -35.7962   63.5637   65.6651 C   0  0  0  0  0  0  0  0  0  0  0  0
  -34.3464   63.4515   66.1185 C   0  0  0  0  0  0  0  0  0  0  0  0
  -33.5624   64.6720   65.6530 C   0  0  0  0  0  0  0  0  0  0  0  0
  -33.7305   64.8915   64.1567 C   0  0  0  0  0  0  0  0  0  0  0  0
  -35.2164   64.9371   63.8089 C   0  0  0  0  0  0  0  0  0  0  0  0
  -34.7923   62.5617   67.8191 H   0  0  0  0  0  0  0  0  0  0  0  0
  -32.1631   63.8087   63.6467 H   0  0  0  0  0  0  0  0  0  0  0  0
  -35.8332   66.3650   61.9463 O   0  0  0  0  0  0  0  0  0  0  0  0
  -35.4766   65.0403   62.3243 C   0  0  0  0  0  0  0  0  0  0  0  0
  -35.9930   66.3964   60.9901 H   0  0  0  0  0  0  0  0  0  0  0  0
  -32.1664   64.3477   65.9448 O   0  0  0  0  0  0  0  0  0  0  0  0
  -30.6883   65.9374   66.9915 O   0  0  0  0  0  0  0  0  0  0  0  0
  -31.4668   66.2809   64.6269 O   0  0  0  0  0  0  0  0  0  0  0  0
  -29.9159   64.5770   65.1998 O   0  0  0  0  0  0  0  0  0  0  0  0
  -31.0623   65.4656   65.7098 S   0  0  0  0  0  0  0  0  0  0  0  0
  -31.3916   66.5040   67.3453 H   0  0  0  0  0  0  0  0  0  0  0  0
  -29.6098   64.0006   65.9174 H   0  0  0  0  0  0  0  0  0  0  0  0
  2  1  1  0  0  0
  2  4  1  0  0  0
  2  5  1  0  0  0
 47 48  1  0  0  0
 47  1  1  0  0  0
 48 52  1  0  0  0
  1 30  1  0  0  0
 29 30  1  0  0  0
 29 31  1  0  0  0
 30 32  1  0  0  0
  3  4  2  0  0  0
 32 33  2  0  0  0
 49 53  1  0  0  0
 49 57  1  0  0  0
 33 34  1  0  0  0
 62 54  1  0  0  0
 62 66  1  0  0  0
 34 35  1  0  0  0
 50 55  1  0  0  0
 50 58  1  0  0  0
 35 36  1  0  0  0
 51 52  1  0  0  0
 51 56  1  0  0  0
 36 37  1  0  0  0
 59 60  1  0  0  0
 59 61  1  0  0  0
 37 38  1  0  0  0
 63 66  1  0  0  0
 63 67  1  0  0  0
 38 39  1  0  0  0
 64 66  1  0  0  0
 39 40  1  0  0  0
 65 66  1  0  0  0
 65 68  1  0  0  0
 40 41  1  0  0  0
 41 42  1  0  0  0
 42 43  1  0  0  0
 43 44  1  0  0  0
 44 45  1  0  0  0
 45 46  1  0  0  0
  4  6  1  0  0  0
  6  7  1  0  0  0
  7  8  1  0  0  0
  8  9  1  0  0  0
  9 10  1  0  0  0
 10 11  1  0  0  0
 11 12  1  0  0  0
 12 13  1  0  0  0
 13 14  1  0  0  0
 14 15  1  0  0  0
 15 16  1  0  0  0
 16 17  1  0  0  0
 17 18  1  0  0  0
 18 19  1  0  0  0
 19 20  2  0  0  0
 20 21  1  0  0  0
 21 22  1  0  0  0
 22 23  1  0  0  0
 23 24  1  0  0  0
 24 25  1  0  0  0
 25 26  1  0  0  0
 26 27  1  0  0  0
 27 28  1  0  0  0
 52 53  1  0  0  0
 53 54  1  0  0  0
 54 55  1  0  0  0
 55 56  1  0  0  0
 56 60  1  0  0  0
M  CHG 1  64  -1
M  END
> <minimizedAffinity>
-9.68743

> <CNNscore>
0.1681933850

> <CNNaffinity>
7.3941597939

> <CNN_VS>
1.2436487675

> <CNNaffinity_variance>
0.9832050204

$$$$
/media/chris/experiments/cd1a-new-docking/inputs/ligands/7ryn_ligand.pdb


 68 68  0  0  0  0  0  0  0  0999 V2000
  -31.7627   61.6959   62.9921 C   0  0  0  0  0  0  0  0  0  0  0  0
  -32.7246   61.3910   64.0471 N   0  0  0  0  0  0  0  0  0  0  0  0
  -34.4683   62.4406   63.0849 O   0  0  0  0  0  0  0  0  0  0  0  0
  -34.0001   61.7861   64.0120 C   0  0  0  0  0  0  0  0  0  0  0  0
  -32.4180   60.8683   64.8231 H   0  0  0  0  0  0  0  0  0  0  0  0
  -34.8449   61.3692   65.1900 C   0  0  0  0  0  0  0  0  0  0  0  0
  -35.9747   60.4268   64.7950 C   0  0  0  0  0  0  0  0  0  0  0  0
  -37.3154   60.8408   65.3799 C   0  0  0  0  0  0  0  0  0  0  0  0
  -38.5041   60.1179   64.7684 C   0  0  0  0  0  0  0  0  0  0  0  0
  -38.9129   58.8603   65.5207 C   0  0  0  0  0  0  0  0  0  0  0  0
  -40.4187   58.6387   65.5854 C   0  0  0  0  0  0  0  0  0  0  0  0
  -41.1694   59.7216   66.3496 C   0  0  0  0  0  0  0  0  0  0  0  0
  -42.5244   59.2847   66.9007 C   0  0  0  0  0  0  0  0  0  0  0  0
  -42.9189   57.8579   66.5224 C   0  0  0  0  0  0  0  0  0  0  0  0
  -44.2749   57.7347   65.8280 C   0  0  0  0  0  0  0  0  0  0  0  0
  -45.4399   58.2555   66.6700 C   0  0  0  0  0  0  0  0  0  0  0  0
  -46.7982   57.6306   66.3522 C   0  0  0  0  0  0  0  0  0  0  0  0
  -47.4609   58.1445   65.0713 C   0  0  0  0  0  0  0  0  0  0  0  0
  -47.9893   59.5431   65.2087 C   0  0  0  0  0  0  0  0  0  0  0  0
  -49.2489   59.9166   65.0683 C   0  0  0  0  0  0  0  0  0  0  0  0
  -50.4045   59.0182   64.7464 C   0  0  0  0  0  0  0  0  0  0  0  0
  -51.1590   59.4185   63.4767 C   0  0  0  0  0  0  0  0  0  0  0  0
  -51.0748   58.3741   62.3715 C   0  0  0  0  0  0  0  0  0  0  0  0
  -49.6441   58.0013   61.9993 C   0  0  0  0  0  0  0  0  0  0  0  0
  -49.4984   57.3451   60.6311 C   0  0  0  0  0  0  0  0  0  0  0  0
  -48.8712   58.2508   59.5806 C   0  0  0  0  0  0  0  0  0  0  0  0
  -48.1342   57.5073   58.4779 C   0  0  0  0  0  0  0  0  0  0  0  0
  -47.6068   56.1595   58.9265 C   0  0  0  0  0  0  0  0  0  0  0  0
  -31.3286   60.5477   60.9117 O   0  0  0  0  0  0  0  0  0  0  0  0
  -31.2978   60.3874   62.3329 C   0  0  0  0  0  0  0  0  0  0  0  0
  -30.7743   61.3027   60.6594 H   0  0  0  0  0  0  0  0  0  0  0  0
  -32.1448   59.2279   62.7599 C   0  0  0  0  0  0  0  0  0  0  0  0
  -33.0870   58.6674   62.0278 C   0  0  0  0  0  0  0  0  0  0  0  0
  -33.9052   57.5012   62.4766 C   0  0  0  0  0  0  0  0  0  0  0  0
  -35.1777   57.9638   63.1893 C   0  0  0  0  0  0  0  0  0  0  0  0
  -36.4657   57.5099   62.5216 C   0  0  0  0  0  0  0  0  0  0  0  0
  -36.8063   58.2609   61.2457 C   0  0  0  0  0  0  0  0  0  0  0  0
  -38.1565   58.9618   61.2821 C   0  0  0  0  0  0  0  0  0  0  0  0
  -39.0625   58.6032   60.1143 C   0  0  0  0  0  0  0  0  0  0  0  0
  -40.3667   57.9462   60.5311 C   0  0  0  0  0  0  0  0  0  0  0  0
  -40.5354   57.8043   62.0323 C   0  0  0  0  0  0  0  0  0  0  0  0
  -41.9687   57.5556   62.4699 C   0  0  0  0  0  0  0  0  0  0  0  0
  -42.7670   58.8345   62.6420 C   0  0  0  0  0  0  0  0  0  0  0  0
  -41.9228   60.0897   62.7518 C   0  0  0  0  0  0  0  0  0  0  0  0
  -42.2153   61.0868   61.6477 C   0  0  0  0  0  0  0  0  0  0  0  0
  -43.0177   62.2750   62.1364 C   0  0  0  0  0  0  0  0  0  0  0  0
  -30.6042   62.4901   63.5590 C   0  0  0  0  0  0  0  0  0  0  0  0
  -30.2064   63.4631   62.5866 O   0  0  0  0  0  0  0  0  0  0  0  0
  -32.5502   64.3803   61.3593 O   0  0  0  0  0  0  0  0  0  0  0  0
  -32.8250   65.7446   65.4318 O   0  0  0  0  0  0  0  0  0  0  0  0
  -30.3196   65.1654   64.1416 O   0  0  0  0  0  0  0  0  0  0  0  0
  -30.6812   64.7540   62.8363 C   0  0  0  0  0  0  0  0  0  0  0  0
  -32.1972   64.7355   62.6902 C   0  0  0  0  0  0  0  0  0  0  0  0
  -32.7678   66.1041   63.0397 C   0  0  0  0  0  0  0  0  0  0  0  0
  -32.2806   66.5671   64.4048 C   0  0  0  0  0  0  0  0  0  0  0  0
  -30.7563   66.4974   64.4558 C   0  0  0  0  0  0  0  0  0  0  0  0
  -32.1816   63.5082   61.1488 H   0  0  0  0  0  0  0  0  0  0  0  0
  -33.7936   65.7876   65.4010 H   0  0  0  0  0  0  0  0  0  0  0  0
  -30.5529   65.8601   66.7886 O   0  0  0  0  0  0  0  0  0  0  0  0
  -30.1910   66.8338   65.8159 C   0  0  0  0  0  0  0  0  0  0  0  0
  -30.1751   66.1054   67.6476 H   0  0  0  0  0  0  0  0  0  0  0  0
  -34.2157   65.9011   63.0814 O   0  0  0  0  0  0  0  0  0  0  0  0
  -35.8773   67.2957   62.0322 O   0  0  0  0  0  0  0  0  0  0  0  0
  -35.5153   64.9337   61.2543 O   0  0  0  0  0  0  0  0  0  0  0  0
  -33.9251   66.6468   60.8384 O   0  0  0  0  0  0  0  0  0  0  0  0
  -35.0586   66.1723   61.7624 S   0  0  0  0  0  0  0  0  0  0  0  0
  -36.6063   67.0320   62.6153 H   0  0  0  0  0  0  0  0  0  0  0  0
  -33.5841   67.4978   61.1556 H   0  0  0  0  0  0  0  0  0  0  0  0
  2  1  1  0  0  0
  2  4  1  0  0  0
  2  5  1  0  0  0
 47 48  1  0  0  0
 47  1  1  0  0  0
 48 52  1  0  0  0
  1 30  1  0  0  0
 29 30  1  0  0  0
 29 31  1  0  0  0
 30 32  1  0  0  0
  3  4  2  0  0  0
 32 33  2  0  0  0
 49 53  1  0  0  0
 49 57  1  0  0  0
 33 34  1  0  0  0
 62 54  1  0  0  0
 62 66  1  0  0  0
 34 35  1  0  0  0
 50 55  1  0  0  0
 50 58  1  0  0  0
 35 36  1  0  0  0
 51 52  1  0  0  0
 51 56  1  0  0  0
 36 37  1  0  0  0
 59 60  1  0  0  0
 59 61  1  0  0  0
 37 38  1  0  0  0
 63 66  1  0  0  0
 63 67  1  0  0  0
 38 39  1  0  0  0
 64 66  1  0  0  0
 39 40  1  0  0  0
 65 66  1  0  0  0
 65 68  1  0  0  0
 40 41  1  0  0  0
 41 42  1  0  0  0
 42 43  1  0  0  0
 43 44  1  0  0  0
 44 45  1  0  0  0
 45 46  1  0  0  0
  4  6  1  0  0  0
  6  7  1  0  0  0
  7  8  1  0  0  0
  8  9  1  0  0  0
  9 10  1  0  0  0
 10 11  1  0  0  0
 11 12  1  0  0  0
 12 13  1  0  0  0
 13 14  1  0  0  0
 14 15  1  0  0  0
 15 16  1  0  0  0
 16 17  1  0  0  0
 17 18  1  0  0  0
 18 19  1  0  0  0
 19 20  2  0  0  0
 20 21  1  0  0  0
 21 22  1  0  0  0
 22 23  1  0  0  0
 23 24  1  0  0  0
 24 25  1  0  0  0
 25 26  1  0  0  0
 26 27  1  0  0  0
 27 28  1  0  0  0
 52 53  1  0  0  0
 53 54  1  0  0  0
 54 55  1  0  0  0
 55 56  1  0  0  0
 56 60  1  0  0  0
M  CHG 1  64  -1
M  END
> <minimizedAffinity>
-9.12585

> <CNNscore>
0.1580840945

> <CNNaffinity>
7.0591979027

> <CNN_VS>
1.1159468889

> <CNNaffinity_variance>
1.6919190884

$$$$
/media/chris/experiments/cd1a-new-docking/inputs/ligands/7ryn_ligand.pdb


 68 68  0  0  0  0  0  0  0  0999 V2000
  -36.6748   61.0530   64.5281 C   0  0  0  0  0  0  0  0  0  0  0  0
  -37.4506   59.9031   64.9831 N   0  0  0  0  0  0  0  0  0  0  0  0
  -38.8538   61.0728   66.2987 O   0  0  0  0  0  0  0  0  0  0  0  0
  -38.4778   60.0017   65.8313 C   0  0  0  0  0  0  0  0  0  0  0  0
  -37.2045   59.0106   64.6482 H   0  0  0  0  0  0  0  0  0  0  0  0
  -39.1627   58.7039   66.1802 C   0  0  0  0  0  0  0  0  0  0  0  0
  -40.5237   58.5626   65.5108 C   0  0  0  0  0  0  0  0  0  0  0  0
  -40.6494   57.2815   64.7019 C   0  0  0  0  0  0  0  0  0  0  0  0
  -41.7262   57.3323   63.6308 C   0  0  0  0  0  0  0  0  0  0  0  0
  -42.9919   58.0564   64.0648 C   0  0  0  0  0  0  0  0  0  0  0  0
  -43.9226   57.2143   64.9283 C   0  0  0  0  0  0  0  0  0  0  0  0
  -44.2653   57.8516   66.2688 C   0  0  0  0  0  0  0  0  0  0  0  0
  -45.7493   57.8191   66.6249 C   0  0  0  0  0  0  0  0  0  0  0  0
  -46.5714   58.9260   65.9664 C   0  0  0  0  0  0  0  0  0  0  0  0
  -47.6435   58.4317   64.9956 C   0  0  0  0  0  0  0  0  0  0  0  0
  -48.6986   57.5429   65.6546 C   0  0  0  0  0  0  0  0  0  0  0  0
  -50.0207   58.2387   65.9777 C   0  0  0  0  0  0  0  0  0  0  0  0
  -50.1054   59.7012   65.5331 C   0  0  0  0  0  0  0  0  0  0  0  0
  -51.3546   60.0034   64.7568 C   0  0  0  0  0  0  0  0  0  0  0  0
  -51.4951   59.9213   63.4456 C   0  0  0  0  0  0  0  0  0  0  0  0
  -50.4361   59.5069   62.4694 C   0  0  0  0  0  0  0  0  0  0  0  0
  -50.3748   57.9961   62.2338 C   0  0  0  0  0  0  0  0  0  0  0  0
  -50.9133   57.5766   60.8724 C   0  0  0  0  0  0  0  0  0  0  0  0
  -50.0199   58.0000   59.7119 C   0  0  0  0  0  0  0  0  0  0  0  0
  -48.5642   57.5678   59.8456 C   0  0  0  0  0  0  0  0  0  0  0  0
  -48.1287   56.5497   58.8010 C   0  0  0  0  0  0  0  0  0  0  0  0
  -46.9720   57.0098   57.9280 C   0  0  0  0  0  0  0  0  0  0  0  0
  -47.4296   57.6929   56.6552 C   0  0  0  0  0  0  0  0  0  0  0  0
  -37.1559   62.7967   62.9272 O   0  0  0  0  0  0  0  0  0  0  0  0
  -37.0503   61.3776   63.0733 C   0  0  0  0  0  0  0  0  0  0  0  0
  -36.3202   63.2120   63.1917 H   0  0  0  0  0  0  0  0  0  0  0  0
  -38.3256   60.7013   62.6729 C   0  0  0  0  0  0  0  0  0  0  0  0
  -39.5351   61.1889   62.8658 C   0  0  0  0  0  0  0  0  0  0  0  0
  -40.7884   60.4963   62.4410 C   0  0  0  0  0  0  0  0  0  0  0  0
  -41.1431   60.8401   60.9928 C   0  0  0  0  0  0  0  0  0  0  0  0
  -41.4546   59.6322   60.1242 C   0  0  0  0  0  0  0  0  0  0  0  0
  -40.4268   58.5170   60.2132 C   0  0  0  0  0  0  0  0  0  0  0  0
  -39.0513   58.8999   59.6868 C   0  0  0  0  0  0  0  0  0  0  0  0
  -37.9040   58.3628   60.5284 C   0  0  0  0  0  0  0  0  0  0  0  0
  -38.3495   57.4608   61.6660 C   0  0  0  0  0  0  0  0  0  0  0  0
  -37.2790   57.2099   62.7116 C   0  0  0  0  0  0  0  0  0  0  0  0
  -35.9456   57.8663   62.3970 C   0  0  0  0  0  0  0  0  0  0  0  0
  -34.7679   57.1529   63.0348 C   0  0  0  0  0  0  0  0  0  0  0  0
  -33.9853   57.9962   64.0229 C   0  0  0  0  0  0  0  0  0  0  0  0
  -32.6054   58.3618   63.5122 C   0  0  0  0  0  0  0  0  0  0  0  0
  -32.6216   58.8067   62.0643 C   0  0  0  0  0  0  0  0  0  0  0  0
  -35.1940   60.7755   64.6849 C   0  0  0  0  0  0  0  0  0  0  0  0
  -34.5974   61.8851   65.3658 O   0  0  0  0  0  0  0  0  0  0  0  0
  -33.4864   64.2377   66.4011 O   0  0  0  0  0  0  0  0  0  0  0  0
  -30.5514   62.7545   63.6246 O   0  0  0  0  0  0  0  0  0  0  0  0
  -33.3489   62.1094   63.4372 O   0  0  0  0  0  0  0  0  0  0  0  0
  -33.9425   62.7910   64.5265 C   0  0  0  0  0  0  0  0  0  0  0  0
  -32.8758   63.5063   65.3455 C   0  0  0  0  0  0  0  0  0  0  0  0
  -32.0761   64.4430   64.4488 C   0  0  0  0  0  0  0  0  0  0  0  0
  -31.5355   63.7060   63.2323 C   0  0  0  0  0  0  0  0  0  0  0  0
  -32.6779   62.9870   62.5190 C   0  0  0  0  0  0  0  0  0  0  0  0
  -33.9921   63.6312   66.9644 H   0  0  0  0  0  0  0  0  0  0  0  0
  -29.8246   63.2095   64.0781 H   0  0  0  0  0  0  0  0  0  0  0  0
  -30.9118   62.5109   60.9243 O   0  0  0  0  0  0  0  0  0  0  0  0
  -32.2134   62.1359   61.3604 C   0  0  0  0  0  0  0  0  0  0  0  0
  -30.6446   61.9467   60.1819 H   0  0  0  0  0  0  0  0  0  0  0  0
  -30.9614   64.8910   65.2831 O   0  0  0  0  0  0  0  0  0  0  0  0
  -32.2118   66.9425   65.4698 O   0  0  0  0  0  0  0  0  0  0  0  0
  -29.7000   66.9788   65.3990 O   0  0  0  0  0  0  0  0  0  0  0  0
  -30.8881   66.1720   67.2895 O   0  0  0  0  0  0  0  0  0  0  0  0
  -30.9376   66.4029   65.7703 S   0  0  0  0  0  0  0  0  0  0  0  0
  -32.2787   67.1015   64.5152 H   0  0  0  0  0  0  0  0  0  0  0  0
  -31.7234   65.7760   67.5837 H   0  0  0  0  0  0  0  0  0  0  0  0
  2  1  1  0  0  0
  2  4  1  0  0  0
  2  5  1  0  0  0
 47 48  1  0  0  0
 47  1  1  0  0  0
 48 52  1  0  0  0
  1 30  1  0  0  0
 29 30  1  0  0  0
 29 31  1  0  0  0
 30 32  1  0  0  0
  3  4  2  0  0  0
 32 33  2  0  0  0
 49 53  1  0  0  0
 49 57  1  0  0  0
 33 34  1  0  0  0
 62 54  1  0  0  0
 62 66  1  0  0  0
 34 35  1  0  0  0
 50 55  1  0  0  0
 50 58  1  0  0  0
 35 36  1  0  0  0
 51 52  1  0  0  0
 51 56  1  0  0  0
 36 37  1  0  0  0
 59 60  1  0  0  0
 59 61  1  0  0  0
 37 38  1  0  0  0
 63 66  1  0  0  0
 63 67  1  0  0  0
 38 39  1  0  0  0
 64 66  1  0  0  0
 39 40  1  0  0  0
 65 66  1  0  0  0
 65 68  1  0  0  0
 40 41  1  0  0  0
 41 42  1  0  0  0
 42 43  1  0  0  0
 43 44  1  0  0  0
 44 45  1  0  0  0
 45 46  1  0  0  0
  4  6  1  0  0  0
  6  7  1  0  0  0
  7  8  1  0  0  0
  8  9  1  0  0  0
  9 10  1  0  0  0
 10 11  1  0  0  0
 11 12  1  0  0  0
 12 13  1  0  0  0
 13 14  1  0  0  0
 14 15  1  0  0  0
 15 16  1  0  0  0
 16 17  1  0  0  0
 17 18  1  0  0  0
 18 19  1  0  0  0
 19 20  2  0  0  0
 20 21  1  0  0  0
 21 22  1  0  0  0
 22 23  1  0  0  0
 23 24  1  0  0  0
 24 25  1  0  0  0
 25 26  1  0  0  0
 26 27  1  0  0  0
 27 28  1  0  0  0
 52 53  1  0  0  0
 53 54  1  0  0  0
 54 55  1  0  0  0
 55 56  1  0  0  0
 56 60  1  0  0  0
M  CHG 1  64  -1
M  END
> <minimizedAffinity>
-8.94621

> <CNNscore>
0.1578005552

> <CNNaffinity>
7.2611999512

> <CNN_VS>
1.1458213329

> <CNNaffinity_variance>
0.7254713178

$$$$
/media/chris/experiments/cd1a-new-docking/inputs/ligands/7ryn_ligand.pdb


 68 68  0  0  0  0  0  0  0  0999 V2000
  -33.3686   60.4824   63.2830 C   0  0  0  0  0  0  0  0  0  0  0  0
  -33.9683   61.3341   64.3058 N   0  0  0  0  0  0  0  0  0  0  0  0
  -35.7342   61.9794   63.0675 O   0  0  0  0  0  0  0  0  0  0  0  0
  -35.1021   62.0152   64.1193 C   0  0  0  0  0  0  0  0  0  0  0  0
  -33.5146   61.4103   65.1762 H   0  0  0  0  0  0  0  0  0  0  0  0
  -35.5711   62.8359   65.2948 C   0  0  0  0  0  0  0  0  0  0  0  0
  -36.5337   62.0718   66.1947 C   0  0  0  0  0  0  0  0  0  0  0  0
  -37.1783   60.8875   65.4926 C   0  0  0  0  0  0  0  0  0  0  0  0
  -38.4728   60.4195   66.1364 C   0  0  0  0  0  0  0  0  0  0  0  0
  -38.8786   59.0063   65.7451 C   0  0  0  0  0  0  0  0  0  0  0  0
  -40.3843   58.8021   65.6342 C   0  0  0  0  0  0  0  0  0  0  0  0
  -41.2064   59.9431   66.2195 C   0  0  0  0  0  0  0  0  0  0  0  0
  -42.3749   59.4979   67.0951 C   0  0  0  0  0  0  0  0  0  0  0  0
  -43.1595   58.3145   66.5308 C   0  0  0  0  0  0  0  0  0  0  0  0
  -44.6780   58.4431   66.6472 C   0  0  0  0  0  0  0  0  0  0  0  0
  -45.4316   57.8679   65.4478 C   0  0  0  0  0  0  0  0  0  0  0  0
  -46.1771   58.8966   64.5979 C   0  0  0  0  0  0  0  0  0  0  0  0
  -47.7031   58.8386   64.7059 C   0  0  0  0  0  0  0  0  0  0  0  0
  -48.3696   60.0984   64.2335 C   0  0  0  0  0  0  0  0  0  0  0  0
  -49.6238   60.2128   63.8340 C   0  0  0  0  0  0  0  0  0  0  0  0
  -50.6349   59.1079   63.7752 C   0  0  0  0  0  0  0  0  0  0  0  0
  -50.6852   58.3924   62.4235 C   0  0  0  0  0  0  0  0  0  0  0  0
  -50.0620   59.1986   61.2917 C   0  0  0  0  0  0  0  0  0  0  0  0
  -48.9598   58.4497   60.5512 C   0  0  0  0  0  0  0  0  0  0  0  0
  -49.4401   57.6499   59.3456 C   0  0  0  0  0  0  0  0  0  0  0  0
  -48.3941   56.6954   58.7870 C   0  0  0  0  0  0  0  0  0  0  0  0
  -48.0768   56.9117   57.3158 C   0  0  0  0  0  0  0  0  0  0  0  0
  -47.0872   58.0358   57.0854 C   0  0  0  0  0  0  0  0  0  0  0  0
  -32.3982   58.2991   62.9273 O   0  0  0  0  0  0  0  0  0  0  0  0
  -33.1867   59.0630   63.8444 C   0  0  0  0  0  0  0  0  0  0  0  0
  -31.5503   58.7465   62.7793 H   0  0  0  0  0  0  0  0  0  0  0  0
  -34.5064   58.4007   64.0973 C   0  0  0  0  0  0  0  0  0  0  0  0
  -35.4890   58.3105   63.2230 C   0  0  0  0  0  0  0  0  0  0  0  0
  -36.7890   57.6297   63.5008 C   0  0  0  0  0  0  0  0  0  0  0  0
  -37.3559   56.9880   62.2327 C   0  0  0  0  0  0  0  0  0  0  0  0
  -38.5886   57.6845   61.6796 C   0  0  0  0  0  0  0  0  0  0  0  0
  -38.2956   58.6998   60.5882 C   0  0  0  0  0  0  0  0  0  0  0  0
  -38.9417   60.0583   60.8174 C   0  0  0  0  0  0  0  0  0  0  0  0
  -39.0127   60.4618   62.2821 C   0  0  0  0  0  0  0  0  0  0  0  0
  -40.3849   60.9445   62.7181 C   0  0  0  0  0  0  0  0  0  0  0  0
  -41.5348   60.2965   61.9696 C   0  0  0  0  0  0  0  0  0  0  0  0
  -42.6582   59.8100   62.8690 C   0  0  0  0  0  0  0  0  0  0  0  0
  -42.9063   58.3174   62.7539 C   0  0  0  0  0  0  0  0  0  0  0  0
  -41.6465   57.4790   62.6539 C   0  0  0  0  0  0  0  0  0  0  0  0
  -41.7327   56.1993   63.4623 C   0  0  0  0  0  0  0  0  0  0  0  0
  -41.3171   54.9802   62.6651 C   0  0  0  0  0  0  0  0  0  0  0  0
  -32.0588   61.0798   62.8120 C   0  0  0  0  0  0  0  0  0  0  0  0
  -32.3040   62.4257   62.3886 O   0  0  0  0  0  0  0  0  0  0  0  0
  -30.0221   63.4709   61.1472 O   0  0  0  0  0  0  0  0  0  0  0  0
  -31.9540   66.8659   62.9539 O   0  0  0  0  0  0  0  0  0  0  0  0
  -32.3193   64.1726   63.8974 O   0  0  0  0  0  0  0  0  0  0  0  0
  -31.5193   63.3848   63.0355 C   0  0  0  0  0  0  0  0  0  0  0  0
  -30.8713   64.2601   61.9707 C   0  0  0  0  0  0  0  0  0  0  0  0
  -30.0741   65.3767   62.6331 C   0  0  0  0  0  0  0  0  0  0  0  0
  -30.9309   66.1426   63.6304 C   0  0  0  0  0  0  0  0  0  0  0  0
  -31.5688   65.1654   64.6148 C   0  0  0  0  0  0  0  0  0  0  0  0
  -30.5405   62.7643   60.7315 H   0  0  0  0  0  0  0  0  0  0  0  0
  -31.5506   67.4874   62.3279 H   0  0  0  0  0  0  0  0  0  0  0  0
  -32.8663   64.9690   66.6562 O   0  0  0  0  0  0  0  0  0  0  0  0
  -32.5278   65.8298   65.5748 C   0  0  0  0  0  0  0  0  0  0  0  0
  -33.4814   65.4247   67.2518 H   0  0  0  0  0  0  0  0  0  0  0  0
  -29.6955   66.2632   61.5330 O   0  0  0  0  0  0  0  0  0  0  0  0
  -31.0219   68.0260   60.5633 O   0  0  0  0  0  0  0  0  0  0  0  0
  -31.7966   65.6377   60.4571 O   0  0  0  0  0  0  0  0  0  0  0  0
  -29.9593   66.4167   59.1710 O   0  0  0  0  0  0  0  0  0  0  0  0
  -30.7922   66.6338   60.4450 S   0  0  0  0  0  0  0  0  0  0  0  0
  -31.5470   68.2006   61.3600 H   0  0  0  0  0  0  0  0  0  0  0  0
  -29.2565   67.0839   59.1266 H   0  0  0  0  0  0  0  0  0  0  0  0
  2  1  1  0  0  0
  2  4  1  0  0  0
  2  5  1  0  0  0
 47 48  1  0  0  0
 47  1  1  0  0  0
 48 52  1  0  0  0
  1 30  1  0  0  0
 29 30  1  0  0  0
 29 31  1  0  0  0
 30 32  1  0  0  0
  3  4  2  0  0  0
 32 33  2  0  0  0
 49 53  1  0  0  0
 49 57  1  0  0  0
 33 34  1  0  0  0
 62 54  1  0  0  0
 62 66  1  0  0  0
 34 35  1  0  0  0
 50 55  1  0  0  0
 50 58  1  0  0  0
 35 36  1  0  0  0
 51 52  1  0  0  0
 51 56  1  0  0  0
 36 37  1  0  0  0
 59 60  1  0  0  0
 59 61  1  0  0  0
 37 38  1  0  0  0
 63 66  1  0  0  0
 63 67  1  0  0  0
 38 39  1  0  0  0
 64 66  1  0  0  0
 39 40  1  0  0  0
 65 66  1  0  0  0
 65 68  1  0  0  0
 40 41  1  0  0  0
 41 42  1  0  0  0
 42 43  1  0  0  0
 43 44  1  0  0  0
 44 45  1  0  0  0
 45 46  1  0  0  0
  4  6  1  0  0  0
  6  7  1  0  0  0
  7  8  1  0  0  0
  8  9  1  0  0  0
  9 10  1  0  0  0
 10 11  1  0  0  0
 11 12  1  0  0  0
 12 13  1  0  0  0
 13 14  1  0  0  0
 14 15  1  0  0  0
 15 16  1  0  0  0
 16 17  1  0  0  0
 17 18  1  0  0  0
 18 19  1  0  0  0
 19 20  2  0  0  0
 20 21  1  0  0  0
 21 22  1  0  0  0
 22 23  1  0  0  0
 23 24  1  0  0  0
 24 25  1  0  0  0
 25 26  1  0  0  0
 26 27  1  0  0  0
 27 28  1  0  0  0
 52 53  1  0  0  0
 53 54  1  0  0  0
 54 55  1  0  0  0
 55 56  1  0  0  0
 56 60  1  0  0  0
M  CHG 1  64  -1
M  END
> <minimizedAffinity>
-8.98326

> <CNNscore>
0.1479338557

> <CNNaffinity>
7.0750184059

> <CNN_VS>
1.0466347933

> <CNNaffinity_variance>
1.0912777185

$$$$
/media/chris/experiments/cd1a-new-docking/inputs/ligands/7ryn_ligand.pdb


 68 68  0  0  0  0  0  0  0  0999 V2000
  -37.3484   60.0733   62.8871 C   0  0  0  0  0  0  0  0  0  0  0  0
  -38.6985   59.9264   62.3514 N   0  0  0  0  0  0  0  0  0  0  0  0
  -38.0878   59.8851   60.1850 O   0  0  0  0  0  0  0  0  0  0  0  0
  -38.9631   59.8438   61.0447 C   0  0  0  0  0  0  0  0  0  0  0  0
  -39.4513   59.8861   62.9846 H   0  0  0  0  0  0  0  0  0  0  0  0
  -40.4190   59.6873   60.6825 C   0  0  0  0  0  0  0  0  0  0  0  0
  -40.7425   58.2981   60.1479 C   0  0  0  0  0  0  0  0  0  0  0  0
  -41.8075   57.5875   60.9676 C   0  0  0  0  0  0  0  0  0  0  0  0
  -41.2623   56.4933   61.8703 C   0  0  0  0  0  0  0  0  0  0  0  0
  -41.7025   56.6168   63.3214 C   0  0  0  0  0  0  0  0  0  0  0  0
  -42.8209   57.6265   63.5461 C   0  0  0  0  0  0  0  0  0  0  0  0
  -43.7223   57.2956   64.7286 C   0  0  0  0  0  0  0  0  0  0  0  0
  -44.6572   58.4270   65.1488 C   0  0  0  0  0  0  0  0  0  0  0  0
  -45.0129   58.4204   66.6347 C   0  0  0  0  0  0  0  0  0  0  0  0
  -46.3868   57.8341   66.9583 C   0  0  0  0  0  0  0  0  0  0  0  0
  -47.3546   57.8612   65.7751 C   0  0  0  0  0  0  0  0  0  0  0  0
  -48.8288   58.0153   66.1482 C   0  0  0  0  0  0  0  0  0  0  0  0
  -49.4048   59.4179   65.9359 C   0  0  0  0  0  0  0  0  0  0  0  0
  -48.5479   60.2718   65.0465 C   0  0  0  0  0  0  0  0  0  0  0  0
  -48.7556   60.5134   63.7643 C   0  0  0  0  0  0  0  0  0  0  0  0
  -49.8908   59.9858   62.9401 C   0  0  0  0  0  0  0  0  0  0  0  0
  -49.7870   58.4893   62.6377 C   0  0  0  0  0  0  0  0  0  0  0  0
  -50.9540   57.9587   61.8157 C   0  0  0  0  0  0  0  0  0  0  0  0
  -50.5207   57.2500   60.5372 C   0  0  0  0  0  0  0  0  0  0  0  0
  -49.5087   58.0229   59.6990 C   0  0  0  0  0  0  0  0  0  0  0  0
  -48.2833   57.2072   59.3117 C   0  0  0  0  0  0  0  0  0  0  0  0
  -47.4204   57.8519   58.2385 C   0  0  0  0  0  0  0  0  0  0  0  0
  -47.7869   57.4023   56.8387 C   0  0  0  0  0  0  0  0  0  0  0  0
  -36.7311   58.4374   64.5536 O   0  0  0  0  0  0  0  0  0  0  0  0
  -36.7481   58.6818   63.1442 C   0  0  0  0  0  0  0  0  0  0  0  0
  -37.6307   58.5197   64.9070 H   0  0  0  0  0  0  0  0  0  0  0  0
  -35.3725   58.5628   62.5631 C   0  0  0  0  0  0  0  0  0  0  0  0
  -34.4195   57.7780   63.0257 C   0  0  0  0  0  0  0  0  0  0  0  0
  -33.0611   57.6704   62.4142 C   0  0  0  0  0  0  0  0  0  0  0  0
  -32.1586   58.8173   62.8737 C   0  0  0  0  0  0  0  0  0  0  0  0
  -32.1639   60.0233   61.9483 C   0  0  0  0  0  0  0  0  0  0  0  0
  -30.8037   60.6736   61.7618 C   0  0  0  0  0  0  0  0  0  0  0  0
  -30.8606   62.0568   61.1300 C   0  0  0  0  0  0  0  0  0  0  0  0
  -29.7025   62.9585   61.5285 C   0  0  0  0  0  0  0  0  0  0  0  0
  -29.6470   63.2622   63.0154 C   0  0  0  0  0  0  0  0  0  0  0  0
  -29.4283   64.7283   63.3392 C   0  0  0  0  0  0  0  0  0  0  0  0
  -29.4372   65.6357   62.1209 C   0  0  0  0  0  0  0  0  0  0  0  0
  -30.6751   66.5097   62.0409 C   0  0  0  0  0  0  0  0  0  0  0  0
  -31.4351   66.4008   60.7331 C   0  0  0  0  0  0  0  0  0  0  0  0
  -30.7087   67.0652   59.5801 C   0  0  0  0  0  0  0  0  0  0  0  0
  -30.2624   66.0728   58.5263 C   0  0  0  0  0  0  0  0  0  0  0  0
  -37.3768   60.9212   64.1419 C   0  0  0  0  0  0  0  0  0  0  0  0
  -36.0292   61.2627   64.4854 O   0  0  0  0  0  0  0  0  0  0  0  0
  -34.7114   62.4133   66.6718 O   0  0  0  0  0  0  0  0  0  0  0  0
  -32.9682   64.2912   63.2138 O   0  0  0  0  0  0  0  0  0  0  0  0
  -35.6031   63.1359   63.2054 O   0  0  0  0  0  0  0  0  0  0  0  0
  -35.7743   62.6368   64.5189 C   0  0  0  0  0  0  0  0  0  0  0  0
  -34.5098   62.8620   65.3375 C   0  0  0  0  0  0  0  0  0  0  0  0
  -34.1435   64.3408   65.3284 C   0  0  0  0  0  0  0  0  0  0  0  0
  -34.0666   64.8760   63.9060 C   0  0  0  0  0  0  0  0  0  0  0  0
  -35.3617   64.5514   63.1655 C   0  0  0  0  0  0  0  0  0  0  0  0
  -34.9438   61.4716   66.6646 H   0  0  0  0  0  0  0  0  0  0  0  0
  -32.1443   64.4963   63.6829 H   0  0  0  0  0  0  0  0  0  0  0  0
  -34.6727   63.9681   60.9129 O   0  0  0  0  0  0  0  0  0  0  0  0
  -35.3288   64.9488   61.7083 C   0  0  0  0  0  0  0  0  0  0  0  0
  -34.6690   64.2533   59.9858 H   0  0  0  0  0  0  0  0  0  0  0  0
  -32.8175   64.3969   65.9431 O   0  0  0  0  0  0  0  0  0  0  0  0
  -32.6749   66.1465   67.5941 O   0  0  0  0  0  0  0  0  0  0  0  0
  -32.3050   66.6525   65.1604 O   0  0  0  0  0  0  0  0  0  0  0  0
  -30.7261   65.4231   66.4380 O   0  0  0  0  0  0  0  0  0  0  0  0
  -32.2053   65.8190   66.2989 S   0  0  0  0  0  0  0  0  0  0  0  0
  -33.6093   66.4021   67.5441 H   0  0  0  0  0  0  0  0  0  0  0  0
  -30.6166   64.8483   67.2117 H   0  0  0  0  0  0  0  0  0  0  0  0
  2  1  1  0  0  0
  2  4  1  0  0  0
  2  5  1  0  0  0
 47 48  1  0  0  0
 47  1  1  0  0  0
 48 52  1  0  0  0
  1 30  1  0  0  0
 29 30  1  0  0  0
 29 31  1  0  0  0
 30 32  1  0  0  0
  3  4  2  0  0  0
 32 33  2  0  0  0
 49 53  1  0  0  0
 49 57  1  0  0  0
 33 34  1  0  0  0
 62 54  1  0  0  0
 62 66  1  0  0  0
 34 35  1  0  0  0
 50 55  1  0  0  0
 50 58  1  0  0  0
 35 36  1  0  0  0
 51 52  1  0  0  0
 51 56  1  0  0  0
 36 37  1  0  0  0
 59 60  1  0  0  0
 59 61  1  0  0  0
 37 38  1  0  0  0
 63 66  1  0  0  0
 63 67  1  0  0  0
 38 39  1  0  0  0
 64 66  1  0  0  0
 39 40  1  0  0  0
 65 66  1  0  0  0
 65 68  1  0  0  0
 40 41  1  0  0  0
 41 42  1  0  0  0
 42 43  1  0  0  0
 43 44  1  0  0  0
 44 45  1  0  0  0
 45 46  1  0  0  0
  4  6  1  0  0  0
  6  7  1  0  0  0
  7  8  1  0  0  0
  8  9  1  0  0  0
  9 10  1  0  0  0
 10 11  1  0  0  0
 11 12  1  0  0  0
 12 13  1  0  0  0
 13 14  1  0  0  0
 14 15  1  0  0  0
 15 16  1  0  0  0
 16 17  1  0  0  0
 17 18  1  0  0  0
 18 19  1  0  0  0
 19 20  2  0  0  0
 20 21  1  0  0  0
 21 22  1  0  0  0
 22 23  1  0  0  0
 23 24  1  0  0  0
 24 25  1  0  0  0
 25 26  1  0  0  0
 26 27  1  0  0  0
 27 28  1  0  0  0
 52 53  1  0  0  0
 53 54  1  0  0  0
 54 55  1  0  0  0
 55 56  1  0  0  0
 56 60  1  0  0  0
M  CHG 1  64  -1
M  END
> <minimizedAffinity>
-9.32668

> <CNNscore>
0.1262850463

> <CNNaffinity>
6.7765302658

> <CNN_VS>
0.8557744622

> <CNNaffinity_variance>
0.5961797833

$$$$
