/media/chris/experiments/cd1a-new-docking/inputs/ligands/7ryn_ligand.pdb


 68 68  0  0  0  0  0  0  0  0999 V2000
  -35.8920   62.0398   65.3958 C   0  0  0  0  0  0  0  0  0  0  0  0
  -37.1246   61.5760   66.0259 N   0  0  0  0  0  0  0  0  0  0  0  0
  -37.5176   59.9048   64.5696 O   0  0  0  0  0  0  0  0  0  0  0  0
  -37.8403   60.5467   65.5651 C   0  0  0  0  0  0  0  0  0  0  0  0
  -37.4440   62.0451   66.8303 H   0  0  0  0  0  0  0  0  0  0  0  0
  -39.0810   60.2096   66.3539 C   0  0  0  0  0  0  0  0  0  0  0  0
  -40.3530   60.3353   65.5252 C   0  0  0  0  0  0  0  0  0  0  0  0
  -41.4003   59.2979   65.8973 C   0  0  0  0  0  0  0  0  0  0  0  0
  -41.1926   57.9470   65.2330 C   0  0  0  0  0  0  0  0  0  0  0  0
  -42.4283   57.4134   64.5241 C   0  0  0  0  0  0  0  0  0  0  0  0
  -43.4653   58.4808   64.1983 C   0  0  0  0  0  0  0  0  0  0  0  0
  -44.8317   58.2238   64.8208 C   0  0  0  0  0  0  0  0  0  0  0  0
  -44.8078   57.9972   66.3303 C   0  0  0  0  0  0  0  0  0  0  0  0
  -46.1897   57.8015   66.9519 C   0  0  0  0  0  0  0  0  0  0  0  0
  -47.2642   57.3192   65.9774 C   0  0  0  0  0  0  0  0  0  0  0  0
  -48.5779   58.0933   66.0878 C   0  0  0  0  0  0  0  0  0  0  0  0
  -48.4620   59.6006   65.8616 C   0  0  0  0  0  0  0  0  0  0  0  0
  -48.0092   60.0093   64.4574 C   0  0  0  0  0  0  0  0  0  0  0  0
  -49.1320   60.5406   63.6141 C   0  0  0  0  0  0  0  0  0  0  0  0
  -49.8889   59.8357   62.7919 C   0  0  0  0  0  0  0  0  0  0  0  0
  -49.7806   58.3627   62.5379 C   0  0  0  0  0  0  0  0  0  0  0  0
  -50.7504   57.8501   61.4709 C   0  0  0  0  0  0  0  0  0  0  0  0
  -50.1068   57.6881   60.1002 C   0  0  0  0  0  0  0  0  0  0  0  0
  -48.6004   57.9223   60.1078 C   0  0  0  0  0  0  0  0  0  0  0  0
  -47.7854   56.8110   59.4562 C   0  0  0  0  0  0  0  0  0  0  0  0
  -48.3241   56.3688   58.1029 C   0  0  0  0  0  0  0  0  0  0  0  0
  -47.4698   56.8010   56.9217 C   0  0  0  0  0  0  0  0  0  0  0  0
  -46.8023   58.1441   57.1372 C   0  0  0  0  0  0  0  0  0  0  0  0
  -33.8720   61.9373   66.7164 O   0  0  0  0  0  0  0  0  0  0  0  0
  -34.7195   61.1625   65.8632 C   0  0  0  0  0  0  0  0  0  0  0  0
  -34.3906   62.2829   67.4598 H   0  0  0  0  0  0  0  0  0  0  0  0
  -33.9507   60.6115   64.7015 C   0  0  0  0  0  0  0  0  0  0  0  0
  -33.8786   59.3358   64.3770 C   0  0  0  0  0  0  0  0  0  0  0  0
  -33.1148   58.8187   63.2022 C   0  0  0  0  0  0  0  0  0  0  0  0
  -34.0468   58.1444   62.1935 C   0  0  0  0  0  0  0  0  0  0  0  0
  -35.3920   57.7306   62.7678 C   0  0  0  0  0  0  0  0  0  0  0  0
  -36.5633   57.9301   61.8212 C   0  0  0  0  0  0  0  0  0  0  0  0
  -37.8381   57.2221   62.2563 C   0  0  0  0  0  0  0  0  0  0  0  0
  -39.0993   58.0418   62.0313 C   0  0  0  0  0  0  0  0  0  0  0  0
  -40.2625   57.2359   61.4802 C   0  0  0  0  0  0  0  0  0  0  0  0
  -41.1417   58.0033   60.5103 C   0  0  0  0  0  0  0  0  0  0  0  0
  -40.7658   59.4679   60.3656 C   0  0  0  0  0  0  0  0  0  0  0  0
  -41.7789   60.4057   60.9955 C   0  0  0  0  0  0  0  0  0  0  0  0
  -41.3928   60.9111   62.3724 C   0  0  0  0  0  0  0  0  0  0  0  0
  -42.4174   61.8676   62.9504 C   0  0  0  0  0  0  0  0  0  0  0  0
  -43.1763   62.6222   61.8784 C   0  0  0  0  0  0  0  0  0  0  0  0
  -35.6671   63.5044   65.7103 C   0  0  0  0  0  0  0  0  0  0  0  0
  -34.2561   63.7463   65.7439 O   0  0  0  0  0  0  0  0  0  0  0  0
  -31.5889   64.5981   65.7857 O   0  0  0  0  0  0  0  0  0  0  0  0
  -32.6734   64.5564   61.6211 O   0  0  0  0  0  0  0  0  0  0  0  0
  -34.6026   64.8340   63.7374 O   0  0  0  0  0  0  0  0  0  0  0  0
  -33.8325   64.7968   64.9245 C   0  0  0  0  0  0  0  0  0  0  0  0
  -32.3627   64.5732   64.5930 C   0  0  0  0  0  0  0  0  0  0  0  0
  -31.8799   65.6494   63.6287 C   0  0  0  0  0  0  0  0  0  0  0  0
  -32.7859   65.7368   62.4093 C   0  0  0  0  0  0  0  0  0  0  0  0
  -34.2348   65.9090   62.8584 C   0  0  0  0  0  0  0  0  0  0  0  0
  -31.9055   63.9094   66.3910 H   0  0  0  0  0  0  0  0  0  0  0  0
  -31.7533   64.4451   61.3348 H   0  0  0  0  0  0  0  0  0  0  0  0
  -36.0443   67.0516   61.7143 O   0  0  0  0  0  0  0  0  0  0  0  0
  -35.2186   65.8927   61.7119 C   0  0  0  0  0  0  0  0  0  0  0  0
  -36.6624   67.0097   60.9680 H   0  0  0  0  0  0  0  0  0  0  0  0
  -30.5485   65.2058   63.2166 O   0  0  0  0  0  0  0  0  0  0  0  0
  -28.5227   65.5753   64.4683 O   0  0  0  0  0  0  0  0  0  0  0  0
  -29.7868   67.5107   63.4824 O   0  0  0  0  0  0  0  0  0  0  0  0
  -28.5790   65.9821   62.1255 O   0  0  0  0  0  0  0  0  0  0  0  0
  -29.3154   66.1770   63.4610 S   0  0  0  0  0  0  0  0  0  0  0  0
  -28.9589   65.6797   65.3284 H   0  0  0  0  0  0  0  0  0  0  0  0
  -28.2393   65.0750   62.0730 H   0  0  0  0  0  0  0  0  0  0  0  0
  2  1  1  0  0  0
  2  4  1  0  0  0
  2  5  1  0  0  0
 47 48  1  0  0  0
 47  1  1  0  0  0
 48 52  1  0  0  0
  1 30  1  0  0  0
 29 30  1  0  0  0
 29 31  1  0  0  0
 30 32  1  0  0  0
  3  4  2  0  0  0
 32 33  2  0  0  0
 49 53  1  0  0  0
 49 57  1  0  0  0
 33 34  1  0  0  0
 62 54  1  0  0  0
 62 66  1  0  0  0
 34 35  1  0  0  0
 50 55  1  0  0  0
 50 58  1  0  0  0
 35 36  1  0  0  0
 51 52  1  0  0  0
 51 56  1  0  0  0
 36 37  1  0  0  0
 59 60  1  0  0  0
 59 61  1  0  0  0
 37 38  1  0  0  0
 63 66  1  0  0  0
 63 67  1  0  0  0
 38 39  1  0  0  0
 64 66  1  0  0  0
 39 40  1  0  0  0
 65 66  1  0  0  0
 65 68  1  0  0  0
 40 41  1  0  0  0
 41 42  1  0  0  0
 42 43  1  0  0  0
 43 44  1  0  0  0
 44 45  1  0  0  0
 45 46  1  0  0  0
  4  6  1  0  0  0
  6  7  1  0  0  0
  7  8  1  0  0  0
  8  9  1  0  0  0
  9 10  1  0  0  0
 10 11  1  0  0  0
 11 12  1  0  0  0
 12 13  1  0  0  0
 13 14  1  0  0  0
 14 15  1  0  0  0
 15 16  1  0  0  0
 16 17  1  0  0  0
 17 18  1  0  0  0
 18 19  1  0  0  0
 19 20  2  0  0  0
 20 21  1  0  0  0
 21 22  1  0  0  0
 22 23  1  0  0  0
 23 24  1  0  0  0
 24 25  1  0  0  0
 25 26  1  0  0  0
 26 27  1  0  0  0
 27 28  1  0  0  0
 52 53  1  0  0  0
 53 54  1  0  0  0
 54 55  1  0  0  0
 55 56  1  0  0  0
 56 60  1  0  0  0
M  CHG 1  64  -1
M  END
> <minimizedAffinity>
-9.65014

> <CNNscore>
0.3180618286

> <CNNaffinity>
7.3865752220

> <CNN_VS>
2.3493876457

> <CNNaffinity_variance>
1.1778419018

$$$$
/media/chris/experiments/cd1a-new-docking/inputs/ligands/7ryn_ligand.pdb


 68 68  0  0  0  0  0  0  0  0999 V2000
  -40.3189   59.0329   65.5952 C   0  0  0  0  0  0  0  0  0  0  0  0
  -40.3394   58.5201   64.2285 N   0  0  0  0  0  0  0  0  0  0  0  0
  -41.4350   56.6133   64.7101 O   0  0  0  0  0  0  0  0  0  0  0  0
  -40.8947   57.3526   63.8924 C   0  0  0  0  0  0  0  0  0  0  0  0
  -39.9234   59.0616   63.5193 H   0  0  0  0  0  0  0  0  0  0  0  0
  -40.8248   56.9942   62.4289 C   0  0  0  0  0  0  0  0  0  0  0  0
  -41.9440   57.6327   61.6163 C   0  0  0  0  0  0  0  0  0  0  0  0
  -41.4526   58.2244   60.3049 C   0  0  0  0  0  0  0  0  0  0  0  0
  -40.9950   59.6693   60.4139 C   0  0  0  0  0  0  0  0  0  0  0  0
  -39.4865   59.8454   60.3247 C   0  0  0  0  0  0  0  0  0  0  0  0
  -38.7262   58.5523   60.0591 C   0  0  0  0  0  0  0  0  0  0  0  0
  -37.3453   58.5058   60.7004 C   0  0  0  0  0  0  0  0  0  0  0  0
  -37.2817   57.7278   62.0123 C   0  0  0  0  0  0  0  0  0  0  0  0
  -35.8639   57.5114   62.5391 C   0  0  0  0  0  0  0  0  0  0  0  0
  -35.6747   57.8510   64.0174 C   0  0  0  0  0  0  0  0  0  0  0  0
  -34.6441   58.9534   64.2618 C   0  0  0  0  0  0  0  0  0  0  0  0
  -33.1951   58.4758   64.3548 C   0  0  0  0  0  0  0  0  0  0  0  0
  -32.3373   58.7735   63.1222 C   0  0  0  0  0  0  0  0  0  0  0  0
  -32.5448   60.1615   62.5886 C   0  0  0  0  0  0  0  0  0  0  0  0
  -31.6194   60.9337   62.0472 C   0  0  0  0  0  0  0  0  0  0  0  0
  -30.1764   60.5780   61.8541 C   0  0  0  0  0  0  0  0  0  0  0  0
  -29.2138   61.4602   62.6521 C   0  0  0  0  0  0  0  0  0  0  0  0
  -29.6564   62.9152   62.7321 C   0  0  0  0  0  0  0  0  0  0  0  0
  -29.6982   63.4573   64.1564 C   0  0  0  0  0  0  0  0  0  0  0  0
  -30.3187   64.8436   64.2862 C   0  0  0  0  0  0  0  0  0  0  0  0
  -31.1216   65.0383   65.5648 C   0  0  0  0  0  0  0  0  0  0  0  0
  -32.2876   66.0042   65.4262 C   0  0  0  0  0  0  0  0  0  0  0  0
  -31.9810   67.1705   64.5087 C   0  0  0  0  0  0  0  0  0  0  0  0
  -40.9110   61.2524   66.3419 O   0  0  0  0  0  0  0  0  0  0  0  0
  -41.4516   60.0567   65.7723 C   0  0  0  0  0  0  0  0  0  0  0  0
  -40.1991   61.5876   65.7747 H   0  0  0  0  0  0  0  0  0  0  0  0
  -42.5563   59.5096   66.6235 C   0  0  0  0  0  0  0  0  0  0  0  0
  -43.6462   58.9250   66.1671 C   0  0  0  0  0  0  0  0  0  0  0  0
  -44.7239   58.3756   67.0432 C   0  0  0  0  0  0  0  0  0  0  0  0
  -46.1092   58.7476   66.5107 C   0  0  0  0  0  0  0  0  0  0  0  0
  -46.2353   58.6746   64.9976 C   0  0  0  0  0  0  0  0  0  0  0  0
  -47.5491   59.2095   64.4538 C   0  0  0  0  0  0  0  0  0  0  0  0
  -48.6240   59.4039   65.5132 C   0  0  0  0  0  0  0  0  0  0  0  0
  -49.9661   58.7930   65.1409 C   0  0  0  0  0  0  0  0  0  0  0  0
  -50.9266   59.7747   64.4928 C   0  0  0  0  0  0  0  0  0  0  0  0
  -51.1738   59.5156   63.0183 C   0  0  0  0  0  0  0  0  0  0  0  0
  -50.5854   58.2083   62.5160 C   0  0  0  0  0  0  0  0  0  0  0  0
  -49.4626   58.4087   61.5151 C   0  0  0  0  0  0  0  0  0  0  0  0
  -49.7630   57.8846   60.1239 C   0  0  0  0  0  0  0  0  0  0  0  0
  -48.6365   58.1515   59.1449 C   0  0  0  0  0  0  0  0  0  0  0  0
  -47.7161   56.9597   58.9804 C   0  0  0  0  0  0  0  0  0  0  0  0
  -38.9610   59.6275   65.9066 C   0  0  0  0  0  0  0  0  0  0  0  0
  -38.6743   60.6328   64.9278 O   0  0  0  0  0  0  0  0  0  0  0  0
  -37.1972   61.0276   62.5820 O   0  0  0  0  0  0  0  0  0  0  0  0
  -36.4166   64.5132   64.9828 O   0  0  0  0  0  0  0  0  0  0  0  0
  -37.2241   61.9898   66.1043 O   0  0  0  0  0  0  0  0  0  0  0  0
  -37.3716   61.1365   64.9846 C   0  0  0  0  0  0  0  0  0  0  0  0
  -37.1068   61.9057   63.6968 C   0  0  0  0  0  0  0  0  0  0  0  0
  -35.7263   62.5478   63.7518 C   0  0  0  0  0  0  0  0  0  0  0  0
  -35.5592   63.3770   65.0166 C   0  0  0  0  0  0  0  0  0  0  0  0
  -35.8973   62.5243   66.2370 C   0  0  0  0  0  0  0  0  0  0  0  0
  -38.0795   60.6254   62.5579 H   0  0  0  0  0  0  0  0  0  0  0  0
  -36.2034   65.0563   64.2079 H   0  0  0  0  0  0  0  0  0  0  0  0
  -34.5499   63.7404   67.8476 O   0  0  0  0  0  0  0  0  0  0  0  0
  -35.8661   63.3013   67.5323 C   0  0  0  0  0  0  0  0  0  0  0  0
  -34.5651   64.2343   68.6823 H   0  0  0  0  0  0  0  0  0  0  0  0
  -35.6806   63.4260   62.5830 O   0  0  0  0  0  0  0  0  0  0  0  0
  -34.2351   64.1881   60.8119 O   0  0  0  0  0  0  0  0  0  0  0  0
  -33.2989   63.6394   63.0786 O   0  0  0  0  0  0  0  0  0  0  0  0
  -34.6391   65.5640   62.7095 O   0  0  0  0  0  0  0  0  0  0  0  0
  -34.3088   64.1427   62.2252 S   0  0  0  0  0  0  0  0  0  0  0  0
  -34.0273   63.3043   60.4704 H   0  0  0  0  0  0  0  0  0  0  0  0
  -35.3311   65.9448   62.1464 H   0  0  0  0  0  0  0  0  0  0  0  0
  2  1  1  0  0  0
  2  4  1  0  0  0
  2  5  1  0  0  0
 47 48  1  0  0  0
 47  1  1  0  0  0
 48 52  1  0  0  0
  1 30  1  0  0  0
 29 30  1  0  0  0
 29 31  1  0  0  0
 30 32  1  0  0  0
  3  4  2  0  0  0
 32 33  2  0  0  0
 49 53  1  0  0  0
 49 57  1  0  0  0
 33 34  1  0  0  0
 62 54  1  0  0  0
 62 66  1  0  0  0
 34 35  1  0  0  0
 50 55  1  0  0  0
 50 58  1  0  0  0
 35 36  1  0  0  0
 51 52  1  0  0  0
 51 56  1  0  0  0
 36 37  1  0  0  0
 59 60  1  0  0  0
 59 61  1  0  0  0
 37 38  1  0  0  0
 63 66  1  0  0  0
 63 67  1  0  0  0
 38 39  1  0  0  0
 64 66  1  0  0  0
 39 40  1  0  0  0
 65 66  1  0  0  0
 65 68  1  0  0  0
 40 41  1  0  0  0
 41 42  1  0  0  0
 42 43  1  0  0  0
 43 44  1  0  0  0
 44 45  1  0  0  0
 45 46  1  0  0  0
  4  6  1  0  0  0
  6  7  1  0  0  0
  7  8  1  0  0  0
  8  9  1  0  0  0
  9 10  1  0  0  0
 10 11  1  0  0  0
 11 12  1  0  0  0
 12 13  1  0  0  0
 13 14  1  0  0  0
 14 15  1  0  0  0
 15 16  1  0  0  0
 16 17  1  0  0  0
 17 18  1  0  0  0
 18 19  1  0  0  0
 19 20  2  0  0  0
 20 21  1  0  0  0
 21 22  1  0  0  0
 22 23  1  0  0  0
 23 24  1  0  0  0
 24 25  1  0  0  0
 25 26  1  0  0  0
 26 27  1  0  0  0
 27 28  1  0  0  0
 52 53  1  0  0  0
 53 54  1  0  0  0
 54 55  1  0  0  0
 55 56  1  0  0  0
 56 60  1  0  0  0
M  CHG 1  64  -1
M  END
> <minimizedAffinity>
-9.71939

> <CNNscore>
0.2913619876

> <CNNaffinity>
7.3266782761

> <CNN_VS>
2.1347155571

> <CNNaffinity_variance>
2.1278612614

$$$$
/media/chris/experiments/cd1a-new-docking/inputs/ligands/7ryn_ligand.pdb


 68 68  0  0  0  0  0  0  0  0999 V2000
  -35.6366   61.9003   64.7853 C   0  0  0  0  0  0  0  0  0  0  0  0
  -36.7752   61.4502   65.5806 N   0  0  0  0  0  0  0  0  0  0  0  0
  -37.8109   60.3554   63.9083 O   0  0  0  0  0  0  0  0  0  0  0  0
  -37.7719   60.7142   65.0817 C   0  0  0  0  0  0  0  0  0  0  0  0
  -36.8100   61.7016   66.5318 H   0  0  0  0  0  0  0  0  0  0  0  0
  -38.8577   60.3382   66.0589 C   0  0  0  0  0  0  0  0  0  0  0  0
  -40.2359   60.2900   65.4116 C   0  0  0  0  0  0  0  0  0  0  0  0
  -41.1270   59.2126   66.0088 C   0  0  0  0  0  0  0  0  0  0  0  0
  -42.2193   59.7507   66.9181 C   0  0  0  0  0  0  0  0  0  0  0  0
  -43.4571   58.8686   66.9812 C   0  0  0  0  0  0  0  0  0  0  0  0
  -43.3008   57.5294   66.2721 C   0  0  0  0  0  0  0  0  0  0  0  0
  -44.2887   57.3158   65.1325 C   0  0  0  0  0  0  0  0  0  0  0  0
  -44.7431   58.5977   64.4391 C   0  0  0  0  0  0  0  0  0  0  0  0
  -46.2411   58.8728   64.5596 C   0  0  0  0  0  0  0  0  0  0  0  0
  -46.9622   58.0252   65.6076 C   0  0  0  0  0  0  0  0  0  0  0  0
  -47.7108   58.8545   66.6512 C   0  0  0  0  0  0  0  0  0  0  0  0
  -48.8607   59.6994   66.1032 C   0  0  0  0  0  0  0  0  0  0  0  0
  -50.0483   58.8992   65.5618 C   0  0  0  0  0  0  0  0  0  0  0  0
  -50.9836   59.7319   64.7336 C   0  0  0  0  0  0  0  0  0  0  0  0
  -51.2755   59.5401   63.4593 C   0  0  0  0  0  0  0  0  0  0  0  0
  -50.7334   58.4504   62.5847 C   0  0  0  0  0  0  0  0  0  0  0  0
  -49.4163   58.8134   61.8956 C   0  0  0  0  0  0  0  0  0  0  0  0
  -49.5444   58.9472   60.3840 C   0  0  0  0  0  0  0  0  0  0  0  0
  -49.5096   57.6097   59.6533 C   0  0  0  0  0  0  0  0  0  0  0  0
  -48.1801   56.8706   59.7525 C   0  0  0  0  0  0  0  0  0  0  0  0
  -47.8101   56.1029   58.4913 C   0  0  0  0  0  0  0  0  0  0  0  0
  -48.0141   56.8857   57.2039 C   0  0  0  0  0  0  0  0  0  0  0  0
  -47.0545   58.0500   57.0638 C   0  0  0  0  0  0  0  0  0  0  0  0
  -33.2242   61.8122   64.6998 O   0  0  0  0  0  0  0  0  0  0  0  0
  -34.3734   61.1471   65.2322 C   0  0  0  0  0  0  0  0  0  0  0  0
  -33.2221   62.7374   64.9914 H   0  0  0  0  0  0  0  0  0  0  0  0
  -34.4098   59.7127   64.8016 C   0  0  0  0  0  0  0  0  0  0  0  0
  -34.4629   59.2979   63.5514 C   0  0  0  0  0  0  0  0  0  0  0  0
  -34.4830   57.8585   63.1533 C   0  0  0  0  0  0  0  0  0  0  0  0
  -35.8885   57.4230   62.7342 C   0  0  0  0  0  0  0  0  0  0  0  0
  -36.4276   58.1493   61.5125 C   0  0  0  0  0  0  0  0  0  0  0  0
  -37.9395   58.0993   61.3727 C   0  0  0  0  0  0  0  0  0  0  0  0
  -38.6052   57.0322   62.2293 C   0  0  0  0  0  0  0  0  0  0  0  0
  -39.7880   57.5462   63.0355 C   0  0  0  0  0  0  0  0  0  0  0  0
  -41.0996   56.8556   62.7057 C   0  0  0  0  0  0  0  0  0  0  0  0
  -42.0931   57.7349   61.9694 C   0  0  0  0  0  0  0  0  0  0  0  0
  -41.5535   58.3253   60.6780 C   0  0  0  0  0  0  0  0  0  0  0  0
  -41.5238   59.8424   60.6859 C   0  0  0  0  0  0  0  0  0  0  0  0
  -41.9019   60.4693   62.0142 C   0  0  0  0  0  0  0  0  0  0  0  0
  -42.7349   61.7253   61.8497 C   0  0  0  0  0  0  0  0  0  0  0  0
  -42.6756   62.6246   63.0672 C   0  0  0  0  0  0  0  0  0  0  0  0
  -35.4774   63.4015   64.9093 C   0  0  0  0  0  0  0  0  0  0  0  0
  -34.9915   63.9075   63.6609 O   0  0  0  0  0  0  0  0  0  0  0  0
  -33.6333   64.5317   61.2931 O   0  0  0  0  0  0  0  0  0  0  0  0
  -32.5812   67.6768   64.0360 O   0  0  0  0  0  0  0  0  0  0  0  0
  -33.4248   65.0652   64.8994 O   0  0  0  0  0  0  0  0  0  0  0  0
  -33.6686   64.3576   63.6979 C   0  0  0  0  0  0  0  0  0  0  0  0
  -33.4458   65.2664   62.4960 C   0  0  0  0  0  0  0  0  0  0  0  0
  -32.0398   65.8514   62.5429 C   0  0  0  0  0  0  0  0  0  0  0  0
  -31.7692   66.5170   63.8841 C   0  0  0  0  0  0  0  0  0  0  0  0
  -32.0723   65.5359   65.0138 C   0  0  0  0  0  0  0  0  0  0  0  0
  -34.5309   64.1646   61.2750 H   0  0  0  0  0  0  0  0  0  0  0  0
  -32.3900   68.3015   63.3190 H   0  0  0  0  0  0  0  0  0  0  0  0
  -30.6228   65.9888   66.9065 O   0  0  0  0  0  0  0  0  0  0  0  0
  -31.9378   66.1506   66.3873 C   0  0  0  0  0  0  0  0  0  0  0  0
  -30.5707   66.3933   67.7866 H   0  0  0  0  0  0  0  0  0  0  0  0
  -32.0245   66.8613   61.4850 O   0  0  0  0  0  0  0  0  0  0  0  0
  -31.3285   65.4804   59.6368 O   0  0  0  0  0  0  0  0  0  0  0  0
  -29.7020   67.0386   60.7514 O   0  0  0  0  0  0  0  0  0  0  0  0
  -31.4708   67.8414   59.3862 O   0  0  0  0  0  0  0  0  0  0  0  0
  -30.9931   66.6919   60.2887 S   0  0  0  0  0  0  0  0  0  0  0  0
  -31.0405   64.7303   60.1804 H   0  0  0  0  0  0  0  0  0  0  0  0
  -32.3571   67.6397   59.0477 H   0  0  0  0  0  0  0  0  0  0  0  0
  2  1  1  0  0  0
  2  4  1  0  0  0
  2  5  1  0  0  0
 47 48  1  0  0  0
 47  1  1  0  0  0
 48 52  1  0  0  0
  1 30  1  0  0  0
 29 30  1  0  0  0
 29 31  1  0  0  0
 30 32  1  0  0  0
  3  4  2  0  0  0
 32 33  2  0  0  0
 49 53  1  0  0  0
 49 57  1  0  0  0
 33 34  1  0  0  0
 62 54  1  0  0  0
 62 66  1  0  0  0
 34 35  1  0  0  0
 50 55  1  0  0  0
 50 58  1  0  0  0
 35 36  1  0  0  0
 51 52  1  0  0  0
 51 56  1  0  0  0
 36 37  1  0  0  0
 59 60  1  0  0  0
 59 61  1  0  0  0
 37 38  1  0  0  0
 63 66  1  0  0  0
 63 67  1  0  0  0
 38 39  1  0  0  0
 64 66  1  0  0  0
 39 40  1  0  0  0
 65 66  1  0  0  0
 65 68  1  0  0  0
 40 41  1  0  0  0
 41 42  1  0  0  0
 42 43  1  0  0  0
 43 44  1  0  0  0
 44 45  1  0  0  0
 45 46  1  0  0  0
  4  6  1  0  0  0
  6  7  1  0  0  0
  7  8  1  0  0  0
  8  9  1  0  0  0
  9 10  1  0  0  0
 10 11  1  0  0  0
 11 12  1  0  0  0
 12 13  1  0  0  0
 13 14  1  0  0  0
 14 15  1  0  0  0
 15 16  1  0  0  0
 16 17  1  0  0  0
 17 18  1  0  0  0
 18 19  1  0  0  0
 19 20  2  0  0  0
 20 21  1  0  0  0
 21 22  1  0  0  0
 22 23  1  0  0  0
 23 24  1  0  0  0
 24 25  1  0  0  0
 25 26  1  0  0  0
 26 27  1  0  0  0
 27 28  1  0  0  0
 52 53  1  0  0  0
 53 54  1  0  0  0
 54 55  1  0  0  0
 55 56  1  0  0  0
 56 60  1  0  0  0
M  CHG 1  64  -1
M  END
> <minimizedAffinity>
-9.84763

> <CNNscore>
0.2380421907

> <CNNaffinity>
7.1431074142

> <CNN_VS>
1.7003608942

> <CNNaffinity_variance>
1.2755067348

$$$$
/media/chris/experiments/cd1a-new-docking/inputs/ligands/7ryn_ligand.pdb


 68 68  0  0  0  0  0  0  0  0999 V2000
  -36.2256   59.0386   63.6375 C   0  0  0  0  0  0  0  0  0  0  0  0
  -37.1193   59.1555   64.7859 N   0  0  0  0  0  0  0  0  0  0  0  0
  -37.9193   61.1914   64.2541 O   0  0  0  0  0  0  0  0  0  0  0  0
  -37.8953   60.2204   65.0049 C   0  0  0  0  0  0  0  0  0  0  0  0
  -37.1516   58.4125   65.4311 H   0  0  0  0  0  0  0  0  0  0  0  0
  -38.7574   60.1565   66.2409 C   0  0  0  0  0  0  0  0  0  0  0  0
  -40.1816   59.7088   65.9381 C   0  0  0  0  0  0  0  0  0  0  0  0
  -41.2171   60.7608   66.3019 C   0  0  0  0  0  0  0  0  0  0  0  0
  -42.2258   60.2992   67.3405 C   0  0  0  0  0  0  0  0  0  0  0  0
  -42.8642   58.9553   67.0234 C   0  0  0  0  0  0  0  0  0  0  0  0
  -44.3473   59.0379   66.6854 C   0  0  0  0  0  0  0  0  0  0  0  0
  -45.0272   57.6809   66.5564 C   0  0  0  0  0  0  0  0  0  0  0  0
  -46.4373   57.7314   65.9738 C   0  0  0  0  0  0  0  0  0  0  0  0
  -46.6637   58.8793   64.9913 C   0  0  0  0  0  0  0  0  0  0  0  0
  -47.9988   59.6052   65.1562 C   0  0  0  0  0  0  0  0  0  0  0  0
  -49.0449   58.7905   65.9170 C   0  0  0  0  0  0  0  0  0  0  0  0
  -50.4921   59.2330   65.7018 C   0  0  0  0  0  0  0  0  0  0  0  0
  -50.7475   59.9911   64.3964 C   0  0  0  0  0  0  0  0  0  0  0  0
  -51.4284   59.1490   63.3566 C   0  0  0  0  0  0  0  0  0  0  0  0
  -50.8852   58.7039   62.2374 C   0  0  0  0  0  0  0  0  0  0  0  0
  -49.4783   58.9479   61.7821 C   0  0  0  0  0  0  0  0  0  0  0  0
  -49.3049   58.8876   60.2629 C   0  0  0  0  0  0  0  0  0  0  0  0
  -49.8542   57.6089   59.6445 C   0  0  0  0  0  0  0  0  0  0  0  0
  -48.9970   56.3813   59.9315 C   0  0  0  0  0  0  0  0  0  0  0  0
  -47.6335   56.3902   59.2499 C   0  0  0  0  0  0  0  0  0  0  0  0
  -47.6763   55.9673   57.7882 C   0  0  0  0  0  0  0  0  0  0  0  0
  -47.7275   57.1269   56.8062 C   0  0  0  0  0  0  0  0  0  0  0  0
  -46.8440   58.2872   57.2177 C   0  0  0  0  0  0  0  0  0  0  0  0
  -35.1140   57.1631   62.5974 O   0  0  0  0  0  0  0  0  0  0  0  0
  -36.3977   57.6519   62.9970 C   0  0  0  0  0  0  0  0  0  0  0  0
  -34.5227   57.1413   63.3661 H   0  0  0  0  0  0  0  0  0  0  0  0
  -37.3392   57.6994   61.8327 C   0  0  0  0  0  0  0  0  0  0  0  0
  -37.6442   58.7841   61.1484 C   0  0  0  0  0  0  0  0  0  0  0  0
  -38.5763   58.7961   59.9814 C   0  0  0  0  0  0  0  0  0  0  0  0
  -40.0288   58.9444   60.4388 C   0  0  0  0  0  0  0  0  0  0  0  0
  -41.0274   58.1551   59.6077 C   0  0  0  0  0  0  0  0  0  0  0  0
  -41.5091   56.8719   60.2627 C   0  0  0  0  0  0  0  0  0  0  0  0
  -40.8084   56.5453   61.5735 C   0  0  0  0  0  0  0  0  0  0  0  0
  -41.5062   55.4660   62.3867 C   0  0  0  0  0  0  0  0  0  0  0  0
  -41.7007   55.8306   63.8480 C   0  0  0  0  0  0  0  0  0  0  0  0
  -41.7889   57.3232   64.1062 C   0  0  0  0  0  0  0  0  0  0  0  0
  -43.0196   57.9801   63.5049 C   0  0  0  0  0  0  0  0  0  0  0  0
  -42.6990   59.2465   62.7330 C   0  0  0  0  0  0  0  0  0  0  0  0
  -43.0488   60.5297   63.4619 C   0  0  0  0  0  0  0  0  0  0  0  0
  -42.2997   61.7309   62.9192 C   0  0  0  0  0  0  0  0  0  0  0  0
  -43.0519   62.4291   61.8050 C   0  0  0  0  0  0  0  0  0  0  0  0
  -34.7950   59.2943   64.0644 C   0  0  0  0  0  0  0  0  0  0  0  0
  -34.3886   60.5636   63.5404 O   0  0  0  0  0  0  0  0  0  0  0  0
  -31.9366   61.8340   63.0771 O   0  0  0  0  0  0  0  0  0  0  0  0
  -34.4549   64.8761   64.7877 O   0  0  0  0  0  0  0  0  0  0  0  0
  -34.8816   62.0645   65.2236 O   0  0  0  0  0  0  0  0  0  0  0  0
  -33.8474   61.4326   64.4922 C   0  0  0  0  0  0  0  0  0  0  0  0
  -33.0089   62.4718   63.7593 C   0  0  0  0  0  0  0  0  0  0  0  0
  -32.4688   63.4945   64.7511 C   0  0  0  0  0  0  0  0  0  0  0  0
  -33.5903   64.0830   65.5945 C   0  0  0  0  0  0  0  0  0  0  0  0
  -34.3930   62.9555   66.2390 C   0  0  0  0  0  0  0  0  0  0  0  0
  -32.2927   61.1860   62.4493 H   0  0  0  0  0  0  0  0  0  0  0  0
  -33.9467   65.5931   64.3772 H   0  0  0  0  0  0  0  0  0  0  0  0
  -36.8031   63.2345   66.2806 O   0  0  0  0  0  0  0  0  0  0  0  0
  -35.5979   63.4470   67.0065 C   0  0  0  0  0  0  0  0  0  0  0  0
  -37.5549   63.5602   66.7998 H   0  0  0  0  0  0  0  0  0  0  0  0
  -31.8829   64.5438   63.9175 O   0  0  0  0  0  0  0  0  0  0  0  0
  -30.4619   65.2506   65.7309 O   0  0  0  0  0  0  0  0  0  0  0  0
  -32.1065   66.8465   64.6993 O   0  0  0  0  0  0  0  0  0  0  0  0
  -30.1549   66.1401   63.5465 O   0  0  0  0  0  0  0  0  0  0  0  0
  -31.1821   65.7777   64.6316 S   0  0  0  0  0  0  0  0  0  0  0  0
  -31.0811   65.0100   66.4377 H   0  0  0  0  0  0  0  0  0  0  0  0
  -29.5007   65.4280   63.4698 H   0  0  0  0  0  0  0  0  0  0  0  0
  2  1  1  0  0  0
  2  4  1  0  0  0
  2  5  1  0  0  0
 47 48  1  0  0  0
 47  1  1  0  0  0
 48 52  1  0  0  0
  1 30  1  0  0  0
 29 30  1  0  0  0
 29 31  1  0  0  0
 30 32  1  0  0  0
  3  4  2  0  0  0
 32 33  2  0  0  0
 49 53  1  0  0  0
 49 57  1  0  0  0
 33 34  1  0  0  0
 62 54  1  0  0  0
 62 66  1  0  0  0
 34 35  1  0  0  0
 50 55  1  0  0  0
 50 58  1  0  0  0
 35 36  1  0  0  0
 51 52  1  0  0  0
 51 56  1  0  0  0
 36 37  1  0  0  0
 59 60  1  0  0  0
 59 61  1  0  0  0
 37 38  1  0  0  0
 63 66  1  0  0  0
 63 67  1  0  0  0
 38 39  1  0  0  0
 64 66  1  0  0  0
 39 40  1  0  0  0
 65 66  1  0  0  0
 65 68  1  0  0  0
 40 41  1  0  0  0
 41 42  1  0  0  0
 42 43  1  0  0  0
 43 44  1  0  0  0
 44 45  1  0  0  0
 45 46  1  0  0  0
  4  6  1  0  0  0
  6  7  1  0  0  0
  7  8  1  0  0  0
  8  9  1  0  0  0
  9 10  1  0  0  0
 10 11  1  0  0  0
 11 12  1  0  0  0
 12 13  1  0  0  0
 13 14  1  0  0  0
 14 15  1  0  0  0
 15 16  1  0  0  0
 16 17  1  0  0  0
 17 18  1  0  0  0
 18 19  1  0  0  0
 19 20  2  0  0  0
 20 21  1  0  0  0
 21 22  1  0  0  0
 22 23  1  0  0  0
 23 24  1  0  0  0
 24 25  1  0  0  0
 25 26  1  0  0  0
 26 27  1  0  0  0
 27 28  1  0  0  0
 52 53  1  0  0  0
 53 54  1  0  0  0
 54 55  1  0  0  0
 55 56  1  0  0  0
 56 60  1  0  0  0
M  CHG 1  64  -1
M  END
> <minimizedAffinity>
-9.70699

> <CNNscore>
0.1697526276

> <CNNaffinity>
7.3456368446

> <CNN_VS>
1.2469412088

> <CNNaffinity_variance>
2.0713832378

$$$$
/media/chris/experiments/cd1a-new-docking/inputs/ligands/7ryn_ligand.pdb


 68 68  0  0  0  0  0  0  0  0999 V2000
  -36.4829   61.2029   64.8221 C   0  0  0  0  0  0  0  0  0  0  0  0
  -37.3038   60.0271   65.0958 N   0  0  0  0  0  0  0  0  0  0  0  0
  -38.9363   61.1297   66.1853 O   0  0  0  0  0  0  0  0  0  0  0  0
  -38.4644   60.0814   65.7547 C   0  0  0  0  0  0  0  0  0  0  0  0
  -36.9862   59.1508   64.7790 H   0  0  0  0  0  0  0  0  0  0  0  0
  -39.1747   58.7629   65.9348 C   0  0  0  0  0  0  0  0  0  0  0  0
  -40.4577   58.6735   65.1185 C   0  0  0  0  0  0  0  0  0  0  0  0
  -41.6957   58.5170   65.9869 C   0  0  0  0  0  0  0  0  0  0  0  0
  -42.3276   57.1367   65.9160 C   0  0  0  0  0  0  0  0  0  0  0  0
  -43.4293   57.0173   64.8738 C   0  0  0  0  0  0  0  0  0  0  0  0
  -44.0300   58.3519   64.4510 C   0  0  0  0  0  0  0  0  0  0  0  0
  -45.4880   58.5280   64.8554 C   0  0  0  0  0  0  0  0  0  0  0  0
  -45.7360   58.4983   66.3614 C   0  0  0  0  0  0  0  0  0  0  0  0
  -46.8052   57.4973   66.7962 C   0  0  0  0  0  0  0  0  0  0  0  0
  -47.9562   57.3238   65.8054 C   0  0  0  0  0  0  0  0  0  0  0  0
  -49.1736   58.1901   66.1286 C   0  0  0  0  0  0  0  0  0  0  0  0
  -48.9522   59.6959   65.9878 C   0  0  0  0  0  0  0  0  0  0  0  0
  -49.1981   60.2556   64.5841 C   0  0  0  0  0  0  0  0  0  0  0  0
  -50.6452   60.2163   64.1859 C   0  0  0  0  0  0  0  0  0  0  0  0
  -51.2010   59.3508   63.3566 C   0  0  0  0  0  0  0  0  0  0  0  0
  -50.4989   58.2319   62.6487 C   0  0  0  0  0  0  0  0  0  0  0  0
  -51.2545   57.7087   61.4252 C   0  0  0  0  0  0  0  0  0  0  0  0
  -50.3355   57.2201   60.3134 C   0  0  0  0  0  0  0  0  0  0  0  0
  -49.0473   58.0267   60.1953 C   0  0  0  0  0  0  0  0  0  0  0  0
  -47.9909   57.4005   59.2921 C   0  0  0  0  0  0  0  0  0  0  0  0
  -47.7045   58.2071   58.0334 C   0  0  0  0  0  0  0  0  0  0  0  0
  -47.1429   57.3867   56.8830 C   0  0  0  0  0  0  0  0  0  0  0  0
  -47.2425   55.8935   57.1203 C   0  0  0  0  0  0  0  0  0  0  0  0
  -36.7761   63.0964   63.3512 O   0  0  0  0  0  0  0  0  0  0  0  0
  -36.7234   61.6670   63.3766 C   0  0  0  0  0  0  0  0  0  0  0  0
  -35.9547   63.4568   63.7203 H   0  0  0  0  0  0  0  0  0  0  0  0
  -37.9785   61.0744   62.8128 C   0  0  0  0  0  0  0  0  0  0  0  0
  -38.2088   60.8652   61.5317 C   0  0  0  0  0  0  0  0  0  0  0  0
  -39.4661   60.2579   61.0015 C   0  0  0  0  0  0  0  0  0  0  0  0
  -40.5577   60.2287   62.0731 C   0  0  0  0  0  0  0  0  0  0  0  0
  -41.8269   59.5070   61.6502 C   0  0  0  0  0  0  0  0  0  0  0  0
  -41.7010   58.7319   60.3498 C   0  0  0  0  0  0  0  0  0  0  0  0
  -41.1203   57.3352   60.5156 C   0  0  0  0  0  0  0  0  0  0  0  0
  -41.2840   56.7680   61.9173 C   0  0  0  0  0  0  0  0  0  0  0  0
  -39.9697   56.4213   62.5944 C   0  0  0  0  0  0  0  0  0  0  0  0
  -38.7566   57.0782   61.9624 C   0  0  0  0  0  0  0  0  0  0  0  0
  -37.6038   57.2987   62.9268 C   0  0  0  0  0  0  0  0  0  0  0  0
  -36.3212   57.7177   62.2326 C   0  0  0  0  0  0  0  0  0  0  0  0
  -35.1026   57.7501   63.1349 C   0  0  0  0  0  0  0  0  0  0  0  0
  -33.8327   58.1048   62.3864 C   0  0  0  0  0  0  0  0  0  0  0  0
  -32.6462   58.2869   63.3104 C   0  0  0  0  0  0  0  0  0  0  0  0
  -35.0240   60.8902   65.0837 C   0  0  0  0  0  0  0  0  0  0  0  0
  -34.3010   62.1252   65.1357 O   0  0  0  0  0  0  0  0  0  0  0  0
  -34.7107   64.7629   64.2895 O   0  0  0  0  0  0  0  0  0  0  0  0
  -30.6311   63.8830   63.2382 O   0  0  0  0  0  0  0  0  0  0  0  0
  -32.6381   61.8467   63.5590 O   0  0  0  0  0  0  0  0  0  0  0  0
  -33.8129   62.5590   63.8997 C   0  0  0  0  0  0  0  0  0  0  0  0
  -33.5139   64.0487   64.0072 C   0  0  0  0  0  0  0  0  0  0  0  0
  -32.8962   64.5480   62.7071 C   0  0  0  0  0  0  0  0  0  0  0  0
  -31.6963   63.7001   62.3111 C   0  0  0  0  0  0  0  0  0  0  0  0
  -32.0960   62.2269   62.2841 C   0  0  0  0  0  0  0  0  0  0  0  0
  -35.0942   64.4363   65.1185 H   0  0  0  0  0  0  0  0  0  0  0  0
  -30.3757   64.8186   63.2568 H   0  0  0  0  0  0  0  0  0  0  0  0
  -30.8034   61.0251   60.6188 O   0  0  0  0  0  0  0  0  0  0  0  0
  -30.9347   61.3007   62.0087 C   0  0  0  0  0  0  0  0  0  0  0  0
  -30.0510   60.4296   60.4770 H   0  0  0  0  0  0  0  0  0  0  0  0
  -32.4540   65.9095   63.0071 O   0  0  0  0  0  0  0  0  0  0  0  0
  -32.3733   68.2765   62.5622 O   0  0  0  0  0  0  0  0  0  0  0  0
  -34.4871   66.9742   62.1729 O   0  0  0  0  0  0  0  0  0  0  0  0
  -32.5860   66.7238   60.7730 O   0  0  0  0  0  0  0  0  0  0  0  0
  -33.0791   67.1109   62.1769 S   0  0  0  0  0  0  0  0  0  0  0  0
  -32.6604   68.5505   63.4473 H   0  0  0  0  0  0  0  0  0  0  0  0
  -31.6202   66.8053   60.7356 H   0  0  0  0  0  0  0  0  0  0  0  0
  2  1  1  0  0  0
  2  4  1  0  0  0
  2  5  1  0  0  0
 47 48  1  0  0  0
 47  1  1  0  0  0
 48 52  1  0  0  0
  1 30  1  0  0  0
 29 30  1  0  0  0
 29 31  1  0  0  0
 30 32  1  0  0  0
  3  4  2  0  0  0
 32 33  2  0  0  0
 49 53  1  0  0  0
 49 57  1  0  0  0
 33 34  1  0  0  0
 62 54  1  0  0  0
 62 66  1  0  0  0
 34 35  1  0  0  0
 50 55  1  0  0  0
 50 58  1  0  0  0
 35 36  1  0  0  0
 51 52  1  0  0  0
 51 56  1  0  0  0
 36 37  1  0  0  0
 59 60  1  0  0  0
 59 61  1  0  0  0
 37 38  1  0  0  0
 63 66  1  0  0  0
 63 67  1  0  0  0
 38 39  1  0  0  0
 64 66  1  0  0  0
 39 40  1  0  0  0
 65 66  1  0  0  0
 65 68  1  0  0  0
 40 41  1  0  0  0
 41 42  1  0  0  0
 42 43  1  0  0  0
 43 44  1  0  0  0
 44 45  1  0  0  0
 45 46  1  0  0  0
  4  6  1  0  0  0
  6  7  1  0  0  0
  7  8  1  0  0  0
  8  9  1  0  0  0
  9 10  1  0  0  0
 10 11  1  0  0  0
 11 12  1  0  0  0
 12 13  1  0  0  0
 13 14  1  0  0  0
 14 15  1  0  0  0
 15 16  1  0  0  0
 16 17  1  0  0  0
 17 18  1  0  0  0
 18 19  1  0  0  0
 19 20  2  0  0  0
 20 21  1  0  0  0
 21 22  1  0  0  0
 22 23  1  0  0  0
 23 24  1  0  0  0
 24 25  1  0  0  0
 25 26  1  0  0  0
 26 27  1  0  0  0
 27 28  1  0  0  0
 52 53  1  0  0  0
 53 54  1  0  0  0
 54 55  1  0  0  0
 55 56  1  0  0  0
 56 60  1  0  0  0
M  CHG 1  64  -1
M  END
> <minimizedAffinity>
-9.43482

> <CNNscore>
0.1666575372

> <CNNaffinity>
7.3116121292

> <CNN_VS>
1.2185353041

> <CNNaffinity_variance>
1.2632602453

$$$$
/media/chris/experiments/cd1a-new-docking/inputs/ligands/7ryn_ligand.pdb


 68 68  0  0  0  0  0  0  0  0999 V2000
  -38.4770   61.1033   65.3422 C   0  0  0  0  0  0  0  0  0  0  0  0
  -39.3235   60.3775   66.2846 N   0  0  0  0  0  0  0  0  0  0  0  0
  -41.2477   61.3875   65.6968 O   0  0  0  0  0  0  0  0  0  0  0  0
  -40.6404   60.5753   66.3887 C   0  0  0  0  0  0  0  0  0  0  0  0
  -38.9028   59.7093   66.8725 H   0  0  0  0  0  0  0  0  0  0  0  0
  -41.3486   59.7260   67.4146 C   0  0  0  0  0  0  0  0  0  0  0  0
  -42.8282   59.5433   67.1017 C   0  0  0  0  0  0  0  0  0  0  0  0
  -43.0853   58.4063   66.1257 C   0  0  0  0  0  0  0  0  0  0  0  0
  -43.7345   58.8466   64.8241 C   0  0  0  0  0  0  0  0  0  0  0  0
  -45.1181   58.2566   64.5963 C   0  0  0  0  0  0  0  0  0  0  0  0
  -46.1200   58.5832   65.6964 C   0  0  0  0  0  0  0  0  0  0  0  0
  -46.5174   57.3824   66.5453 C   0  0  0  0  0  0  0  0  0  0  0  0
  -47.9293   56.8628   66.2865 C   0  0  0  0  0  0  0  0  0  0  0  0
  -48.7271   57.7002   65.2882 C   0  0  0  0  0  0  0  0  0  0  0  0
  -49.6707   58.7213   65.9235 C   0  0  0  0  0  0  0  0  0  0  0  0
  -49.9050   59.9569   65.0543 C   0  0  0  0  0  0  0  0  0  0  0  0
  -51.3687   60.2470   64.7228 C   0  0  0  0  0  0  0  0  0  0  0  0
  -51.7740   59.9492   63.2768 C   0  0  0  0  0  0  0  0  0  0  0  0
  -51.3892   58.5664   62.8363 C   0  0  0  0  0  0  0  0  0  0  0  0
  -50.4937   58.2646   61.9128 C   0  0  0  0  0  0  0  0  0  0  0  0
  -49.6795   59.2424   61.1210 C   0  0  0  0  0  0  0  0  0  0  0  0
  -49.0066   58.6284   59.8915 C   0  0  0  0  0  0  0  0  0  0  0  0
  -49.5343   57.2423   59.5455 C   0  0  0  0  0  0  0  0  0  0  0  0
  -48.5077   56.1348   59.7545 C   0  0  0  0  0  0  0  0  0  0  0  0
  -47.2978   56.2129   58.8305 C   0  0  0  0  0  0  0  0  0  0  0  0
  -47.6406   56.0474   57.3567 C   0  0  0  0  0  0  0  0  0  0  0  0
  -47.6203   57.3444   56.5636 C   0  0  0  0  0  0  0  0  0  0  0  0
  -46.6629   58.3701   57.1357 C   0  0  0  0  0  0  0  0  0  0  0  0
  -38.1150   61.0842   62.9541 O   0  0  0  0  0  0  0  0  0  0  0  0
  -38.2383   60.2335   64.0975 C   0  0  0  0  0  0  0  0  0  0  0  0
  -37.3974   61.7203   63.1001 H   0  0  0  0  0  0  0  0  0  0  0  0
  -39.3395   59.2359   63.9071 C   0  0  0  0  0  0  0  0  0  0  0  0
  -39.2406   57.9431   64.1458 C   0  0  0  0  0  0  0  0  0  0  0  0
  -40.3629   56.9753   63.9599 C   0  0  0  0  0  0  0  0  0  0  0  0
  -41.3899   57.5091   62.9594 C   0  0  0  0  0  0  0  0  0  0  0  0
  -41.4229   56.7566   61.6390 C   0  0  0  0  0  0  0  0  0  0  0  0
  -41.9524   57.5694   60.4699 C   0  0  0  0  0  0  0  0  0  0  0  0
  -40.8654   58.2029   59.6138 C   0  0  0  0  0  0  0  0  0  0  0  0
  -40.4186   59.5703   60.1073 C   0  0  0  0  0  0  0  0  0  0  0  0
  -38.9181   59.6873   60.3099 C   0  0  0  0  0  0  0  0  0  0  0  0
  -38.2025   58.3533   60.4136 C   0  0  0  0  0  0  0  0  0  0  0  0
  -36.8682   58.4251   61.1362 C   0  0  0  0  0  0  0  0  0  0  0  0
  -36.7224   57.3724   62.2192 C   0  0  0  0  0  0  0  0  0  0  0  0
  -35.4228   57.4501   62.9971 C   0  0  0  0  0  0  0  0  0  0  0  0
  -34.3033   58.0891   62.1990 C   0  0  0  0  0  0  0  0  0  0  0  0
  -32.9322   57.6380   62.6587 C   0  0  0  0  0  0  0  0  0  0  0  0
  -37.1795   61.5052   66.0125 C   0  0  0  0  0  0  0  0  0  0  0  0
  -36.6456   62.6379   65.3177 O   0  0  0  0  0  0  0  0  0  0  0  0
  -35.2130   61.3876   63.2621 O   0  0  0  0  0  0  0  0  0  0  0  0
  -33.2631   65.1833   63.8217 O   0  0  0  0  0  0  0  0  0  0  0  0
  -34.7920   63.8903   65.8876 O   0  0  0  0  0  0  0  0  0  0  0  0
  -35.2490   62.6908   65.2907 C   0  0  0  0  0  0  0  0  0  0  0  0
  -34.8024   62.6221   63.8361 C   0  0  0  0  0  0  0  0  0  0  0  0
  -33.2879   62.7648   63.7521 C   0  0  0  0  0  0  0  0  0  0  0  0
  -32.8144   64.0086   64.4896 C   0  0  0  0  0  0  0  0  0  0  0  0
  -33.3598   63.9980   65.9155 C   0  0  0  0  0  0  0  0  0  0  0  0
  -36.1779   61.3084   63.3216 H   0  0  0  0  0  0  0  0  0  0  0  0
  -32.9176   65.1919   62.9153 H   0  0  0  0  0  0  0  0  0  0  0  0
  -31.7126   65.7110   66.4061 O   0  0  0  0  0  0  0  0  0  0  0  0
  -33.0305   65.2542   66.6875 C   0  0  0  0  0  0  0  0  0  0  0  0
  -31.5338   66.5164   66.9162 H   0  0  0  0  0  0  0  0  0  0  0  0
  -33.0090   62.9087   62.3236 O   0  0  0  0  0  0  0  0  0  0  0  0
  -31.2886   63.0029   60.6388 O   0  0  0  0  0  0  0  0  0  0  0  0
  -31.9416   60.8096   61.6772 O   0  0  0  0  0  0  0  0  0  0  0  0
  -30.7393   62.4600   62.8884 O   0  0  0  0  0  0  0  0  0  0  0  0
  -31.7152   62.2051   61.7281 S   0  0  0  0  0  0  0  0  0  0  0  0
  -31.8843   62.8667   59.8854 H   0  0  0  0  0  0  0  0  0  0  0  0
  -30.5584   63.4106   62.9558 H   0  0  0  0  0  0  0  0  0  0  0  0
  2  1  1  0  0  0
  2  4  1  0  0  0
  2  5  1  0  0  0
 47 48  1  0  0  0
 47  1  1  0  0  0
 48 52  1  0  0  0
  1 30  1  0  0  0
 29 30  1  0  0  0
 29 31  1  0  0  0
 30 32  1  0  0  0
  3  4  2  0  0  0
 32 33  2  0  0  0
 49 53  1  0  0  0
 49 57  1  0  0  0
 33 34  1  0  0  0
 62 54  1  0  0  0
 62 66  1  0  0  0
 34 35  1  0  0  0
 50 55  1  0  0  0
 50 58  1  0  0  0
 35 36  1  0  0  0
 51 52  1  0  0  0
 51 56  1  0  0  0
 36 37  1  0  0  0
 59 60  1  0  0  0
 59 61  1  0  0  0
 37 38  1  0  0  0
 63 66  1  0  0  0
 63 67  1  0  0  0
 38 39  1  0  0  0
 64 66  1  0  0  0
 39 40  1  0  0  0
 65 66  1  0  0  0
 65 68  1  0  0  0
 40 41  1  0  0  0
 41 42  1  0  0  0
 42 43  1  0  0  0
 43 44  1  0  0  0
 44 45  1  0  0  0
 45 46  1  0  0  0
  4  6  1  0  0  0
  6  7  1  0  0  0
  7  8  1  0  0  0
  8  9  1  0  0  0
  9 10  1  0  0  0
 10 11  1  0  0  0
 11 12  1  0  0  0
 12 13  1  0  0  0
 13 14  1  0  0  0
 14 15  1  0  0  0
 15 16  1  0  0  0
 16 17  1  0  0  0
 17 18  1  0  0  0
 18 19  1  0  0  0
 19 20  2  0  0  0
 20 21  1  0  0  0
 21 22  1  0  0  0
 22 23  1  0  0  0
 23 24  1  0  0  0
 24 25  1  0  0  0
 25 26  1  0  0  0
 26 27  1  0  0  0
 27 28  1  0  0  0
 52 53  1  0  0  0
 53 54  1  0  0  0
 54 55  1  0  0  0
 55 56  1  0  0  0
 56 60  1  0  0  0
M  CHG 1  64  -1
M  END
> <minimizedAffinity>
-9.09015

> <CNNscore>
0.1317145675

> <CNNaffinity>
7.1661415100

> <CNN_VS>
0.9438852072

> <CNNaffinity_variance>
1.4880994558

$$$$
/media/chris/experiments/cd1a-new-docking/inputs/ligands/7ryn_ligand.pdb


 68 68  0  0  0  0  0  0  0  0999 V2000
  -39.2435   60.5990   65.4478 C   0  0  0  0  0  0  0  0  0  0  0  0
  -40.3185   60.0781   66.2870 N   0  0  0  0  0  0  0  0  0  0  0  0
  -41.5288   61.9759   66.3223 O   0  0  0  0  0  0  0  0  0  0  0  0
  -41.3756   60.8052   66.6585 C   0  0  0  0  0  0  0  0  0  0  0  0
  -40.2615   59.1445   66.5944 H   0  0  0  0  0  0  0  0  0  0  0  0
  -42.3875   60.0922   67.5205 C   0  0  0  0  0  0  0  0  0  0  0  0
  -43.4297   59.3427   66.7005 C   0  0  0  0  0  0  0  0  0  0  0  0
  -43.0616   57.8848   66.4756 C   0  0  0  0  0  0  0  0  0  0  0  0
  -44.1052   57.0984   65.6998 C   0  0  0  0  0  0  0  0  0  0  0  0
  -45.4198   57.8403   65.5111 C   0  0  0  0  0  0  0  0  0  0  0  0
  -46.4336   57.5973   66.6220 C   0  0  0  0  0  0  0  0  0  0  0  0
  -47.6753   56.8401   66.1691 C   0  0  0  0  0  0  0  0  0  0  0  0
  -48.8328   57.7300   65.7231 C   0  0  0  0  0  0  0  0  0  0  0  0
  -48.6491   59.2076   66.0656 C   0  0  0  0  0  0  0  0  0  0  0  0
  -48.2763   60.0953   64.8783 C   0  0  0  0  0  0  0  0  0  0  0  0
  -49.4379   60.9476   64.3670 C   0  0  0  0  0  0  0  0  0  0  0  0
  -50.8298   60.4195   64.7135 C   0  0  0  0  0  0  0  0  0  0  0  0
  -51.6902   60.0292   63.5088 C   0  0  0  0  0  0  0  0  0  0  0  0
  -51.4042   58.6411   63.0132 C   0  0  0  0  0  0  0  0  0  0  0  0
  -50.5407   58.3146   62.0679 C   0  0  0  0  0  0  0  0  0  0  0  0
  -49.6705   59.2645   61.3020 C   0  0  0  0  0  0  0  0  0  0  0  0
  -49.1202   58.6797   59.9994 C   0  0  0  0  0  0  0  0  0  0  0  0
  -49.7979   57.3789   59.5897 C   0  0  0  0  0  0  0  0  0  0  0  0
  -48.8807   56.1646   59.6794 C   0  0  0  0  0  0  0  0  0  0  0  0
  -47.4278   56.4423   59.3110 C   0  0  0  0  0  0  0  0  0  0  0  0
  -47.0695   56.0421   57.8867 C   0  0  0  0  0  0  0  0  0  0  0  0
  -47.5009   57.0473   56.8307 C   0  0  0  0  0  0  0  0  0  0  0  0
  -46.8735   58.4127   57.0256 C   0  0  0  0  0  0  0  0  0  0  0  0
  -39.8767   61.0818   63.1673 O   0  0  0  0  0  0  0  0  0  0  0  0
  -39.3940   60.0421   64.0230 C   0  0  0  0  0  0  0  0  0  0  0  0
  -39.2702   61.8380   63.2034 H   0  0  0  0  0  0  0  0  0  0  0  0
  -40.3078   58.8554   63.9925 C   0  0  0  0  0  0  0  0  0  0  0  0
  -39.9153   57.5971   63.9646 C   0  0  0  0  0  0  0  0  0  0  0  0
  -40.8524   56.4342   63.9497 C   0  0  0  0  0  0  0  0  0  0  0  0
  -42.0166   56.6778   62.9873 C   0  0  0  0  0  0  0  0  0  0  0  0
  -41.6456   56.5592   61.5180 C   0  0  0  0  0  0  0  0  0  0  0  0
  -42.0647   57.7480   60.6700 C   0  0  0  0  0  0  0  0  0  0  0  0
  -40.9783   58.2522   59.7312 C   0  0  0  0  0  0  0  0  0  0  0  0
  -39.5685   58.0565   60.2675 C   0  0  0  0  0  0  0  0  0  0  0  0
  -38.7296   59.3223   60.2588 C   0  0  0  0  0  0  0  0  0  0  0  0
  -37.5151   59.2652   61.1666 C   0  0  0  0  0  0  0  0  0  0  0  0
  -37.1910   57.8705   61.6739 C   0  0  0  0  0  0  0  0  0  0  0  0
  -36.4955   57.8762   63.0226 C   0  0  0  0  0  0  0  0  0  0  0  0
  -35.1188   57.2399   63.0200 C   0  0  0  0  0  0  0  0  0  0  0  0
  -34.1372   57.9786   62.1315 C   0  0  0  0  0  0  0  0  0  0  0  0
  -32.6964   57.6305   62.4438 C   0  0  0  0  0  0  0  0  0  0  0  0
  -37.8985   60.2553   66.0537 C   0  0  0  0  0  0  0  0  0  0  0  0
  -37.3752   61.4298   66.6842 O   0  0  0  0  0  0  0  0  0  0  0  0
  -36.3603   63.8744   67.5978 O   0  0  0  0  0  0  0  0  0  0  0  0
  -33.1072   62.0606   65.4414 O   0  0  0  0  0  0  0  0  0  0  0  0
  -35.8670   61.4233   64.9366 O   0  0  0  0  0  0  0  0  0  0  0  0
  -36.5884   62.2291   65.8498 C   0  0  0  0  0  0  0  0  0  0  0  0
  -35.6279   63.0229   66.7257 C   0  0  0  0  0  0  0  0  0  0  0  0
  -34.6892   63.8450   65.8516 C   0  0  0  0  0  0  0  0  0  0  0  0
  -34.0040   62.9702   64.8121 C   0  0  0  0  0  0  0  0  0  0  0  0
  -35.0542   62.1854   64.0299 C   0  0  0  0  0  0  0  0  0  0  0  0
  -36.9537   63.3400   68.1484 H   0  0  0  0  0  0  0  0  0  0  0  0
  -32.4391   62.5574   65.9391 H   0  0  0  0  0  0  0  0  0  0  0  0
  -33.2688   61.7179   62.4543 O   0  0  0  0  0  0  0  0  0  0  0  0
  -34.4551   61.2046   63.0493 C   0  0  0  0  0  0  0  0  0  0  0  0
  -32.9109   61.0655   61.8321 H   0  0  0  0  0  0  0  0  0  0  0  0
  -33.6898   64.3745   66.7791 O   0  0  0  0  0  0  0  0  0  0  0  0
  -32.3172   66.2696   67.3552 O   0  0  0  0  0  0  0  0  0  0  0  0
  -33.1115   65.9376   64.9942 O   0  0  0  0  0  0  0  0  0  0  0  0
  -31.4570   64.5403   65.9671 O   0  0  0  0  0  0  0  0  0  0  0  0
  -32.6583   65.4585   66.2457 S   0  0  0  0  0  0  0  0  0  0  0  0
  -33.0556   66.8643   67.5601 H   0  0  0  0  0  0  0  0  0  0  0  0
  -31.1163   64.1903   66.8052 H   0  0  0  0  0  0  0  0  0  0  0  0
  2  1  1  0  0  0
  2  4  1  0  0  0
  2  5  1  0  0  0
 47 48  1  0  0  0
 47  1  1  0  0  0
 48 52  1  0  0  0
  1 30  1  0  0  0
 29 30  1  0  0  0
 29 31  1  0  0  0
 30 32  1  0  0  0
  3  4  2  0  0  0
 32 33  2  0  0  0
 49 53  1  0  0  0
 49 57  1  0  0  0
 33 34  1  0  0  0
 62 54  1  0  0  0
 62 66  1  0  0  0
 34 35  1  0  0  0
 50 55  1  0  0  0
 50 58  1  0  0  0
 35 36  1  0  0  0
 51 52  1  0  0  0
 51 56  1  0  0  0
 36 37  1  0  0  0
 59 60  1  0  0  0
 59 61  1  0  0  0
 37 38  1  0  0  0
 63 66  1  0  0  0
 63 67  1  0  0  0
 38 39  1  0  0  0
 64 66  1  0  0  0
 39 40  1  0  0  0
 65 66  1  0  0  0
 65 68  1  0  0  0
 40 41  1  0  0  0
 41 42  1  0  0  0
 42 43  1  0  0  0
 43 44  1  0  0  0
 44 45  1  0  0  0
 45 46  1  0  0  0
  4  6  1  0  0  0
  6  7  1  0  0  0
  7  8  1  0  0  0
  8  9  1  0  0  0
  9 10  1  0  0  0
 10 11  1  0  0  0
 11 12  1  0  0  0
 12 13  1  0  0  0
 13 14  1  0  0  0
 14 15  1  0  0  0
 15 16  1  0  0  0
 16 17  1  0  0  0
 17 18  1  0  0  0
 18 19  1  0  0  0
 19 20  2  0  0  0
 20 21  1  0  0  0
 21 22  1  0  0  0
 22 23  1  0  0  0
 23 24  1  0  0  0
 24 25  1  0  0  0
 25 26  1  0  0  0
 26 27  1  0  0  0
 27 28  1  0  0  0
 52 53  1  0  0  0
 53 54  1  0  0  0
 54 55  1  0  0  0
 55 56  1  0  0  0
 56 60  1  0  0  0
M  CHG 1  64  -1
M  END
> <minimizedAffinity>
-9.17899

> <CNNscore>
0.1302371323

> <CNNaffinity>
7.3286919594

> <CNN_VS>
0.9544678330

> <CNNaffinity_variance>
1.4725035429

$$$$
/media/chris/experiments/cd1a-new-docking/inputs/ligands/7ryn_ligand.pdb


 68 68  0  0  0  0  0  0  0  0999 V2000
  -35.9471   62.2208   63.2513 C   0  0  0  0  0  0  0  0  0  0  0  0
  -36.7316   61.5912   62.1933 N   0  0  0  0  0  0  0  0  0  0  0  0
  -38.6189   61.3708   63.4005 O   0  0  0  0  0  0  0  0  0  0  0  0
  -38.0039   61.2158   62.3494 C   0  0  0  0  0  0  0  0  0  0  0  0
  -36.3015   61.4355   61.3215 H   0  0  0  0  0  0  0  0  0  0  0  0
  -38.6521   60.5886   61.1404 C   0  0  0  0  0  0  0  0  0  0  0  0
  -39.8093   59.6688   61.5083 C   0  0  0  0  0  0  0  0  0  0  0  0
  -40.0998   58.6329   60.4341 C   0  0  0  0  0  0  0  0  0  0  0  0
  -40.8275   57.4012   60.9465 C   0  0  0  0  0  0  0  0  0  0  0  0
  -41.6441   57.6487   62.2060 C   0  0  0  0  0  0  0  0  0  0  0  0
  -41.5192   56.5480   63.2518 C   0  0  0  0  0  0  0  0  0  0  0  0
  -42.7228   56.4387   64.1791 C   0  0  0  0  0  0  0  0  0  0  0  0
  -42.4282   56.7654   65.6409 C   0  0  0  0  0  0  0  0  0  0  0  0
  -43.4303   57.7271   66.2775 C   0  0  0  0  0  0  0  0  0  0  0  0
  -44.3831   58.4005   65.2899 C   0  0  0  0  0  0  0  0  0  0  0  0
  -45.8583   58.1312   65.5871 C   0  0  0  0  0  0  0  0  0  0  0  0
  -46.8262   58.5296   64.4731 C   0  0  0  0  0  0  0  0  0  0  0  0
  -47.6661   59.7762   64.7635 C   0  0  0  0  0  0  0  0  0  0  0  0
  -48.3776   59.7056   66.0837 C   0  0  0  0  0  0  0  0  0  0  0  0
  -49.6186   59.2959   66.2782 C   0  0  0  0  0  0  0  0  0  0  0  0
  -50.5651   58.8165   65.2198 C   0  0  0  0  0  0  0  0  0  0  0  0
  -51.3004   59.9462   64.4954 C   0  0  0  0  0  0  0  0  0  0  0  0
  -51.5145   59.6717   63.0127 C   0  0  0  0  0  0  0  0  0  0  0  0
  -50.7683   58.4404   62.5116 C   0  0  0  0  0  0  0  0  0  0  0  0
  -49.5055   58.7483   61.7151 C   0  0  0  0  0  0  0  0  0  0  0  0
  -49.6000   58.3662   60.2447 C   0  0  0  0  0  0  0  0  0  0  0  0
  -48.3871   57.6161   59.7175 C   0  0  0  0  0  0  0  0  0  0  0  0
  -48.2799   57.6566   58.2066 C   0  0  0  0  0  0  0  0  0  0  0  0
  -36.5695   62.9520   65.4678 O   0  0  0  0  0  0  0  0  0  0  0  0
  -36.5080   61.8016   64.6197 C   0  0  0  0  0  0  0  0  0  0  0  0
  -37.1097   63.6374   65.0444 H   0  0  0  0  0  0  0  0  0  0  0  0
  -35.6799   60.7200   65.2430 C   0  0  0  0  0  0  0  0  0  0  0  0
  -34.7692   60.0046   64.6131 C   0  0  0  0  0  0  0  0  0  0  0  0
  -33.9484   58.9418   65.2670 C   0  0  0  0  0  0  0  0  0  0  0  0
  -33.4931   57.8939   64.2495 C   0  0  0  0  0  0  0  0  0  0  0  0
  -34.3258   57.8567   62.9783 C   0  0  0  0  0  0  0  0  0  0  0  0
  -35.5745   56.9967   63.0744 C   0  0  0  0  0  0  0  0  0  0  0  0
  -36.8033   57.6152   62.4240 C   0  0  0  0  0  0  0  0  0  0  0  0
  -37.9927   57.7426   63.3632 C   0  0  0  0  0  0  0  0  0  0  0  0
  -37.6357   57.5711   64.8292 C   0  0  0  0  0  0  0  0  0  0  0  0
  -38.3708   58.5181   65.7594 C   0  0  0  0  0  0  0  0  0  0  0  0
  -39.7215   58.9724   65.2334 C   0  0  0  0  0  0  0  0  0  0  0  0
  -40.3870   60.0070   66.1218 C   0  0  0  0  0  0  0  0  0  0  0  0
  -41.5106   60.7763   65.4540 C   0  0  0  0  0  0  0  0  0  0  0  0
  -41.6598   60.4318   63.9851 C   0  0  0  0  0  0  0  0  0  0  0  0
  -42.3593   61.5231   63.2013 C   0  0  0  0  0  0  0  0  0  0  0  0
  -35.9475   63.7251   63.0731 C   0  0  0  0  0  0  0  0  0  0  0  0
  -35.0696   64.0505   61.9896 O   0  0  0  0  0  0  0  0  0  0  0  0
  -33.3265   61.8805   62.2962 O   0  0  0  0  0  0  0  0  0  0  0  0
  -31.0164   64.8758   60.2434 O   0  0  0  0  0  0  0  0  0  0  0  0
  -33.2834   65.5100   61.8976 O   0  0  0  0  0  0  0  0  0  0  0  0
  -33.7395   64.2552   62.3680 C   0  0  0  0  0  0  0  0  0  0  0  0
  -32.9013   63.1319   61.7717 C   0  0  0  0  0  0  0  0  0  0  0  0
  -31.4283   63.3622   62.0857 C   0  0  0  0  0  0  0  0  0  0  0  0
  -30.9907   64.7566   61.6621 C   0  0  0  0  0  0  0  0  0  0  0  0
  -31.9268   65.7958   62.2741 C   0  0  0  0  0  0  0  0  0  0  0  0
  -34.2647   61.7456   62.0902 H   0  0  0  0  0  0  0  0  0  0  0  0
  -30.4222   64.2162   59.8527 H   0  0  0  0  0  0  0  0  0  0  0  0
  -32.1595   67.4522   60.5160 O   0  0  0  0  0  0  0  0  0  0  0  0
  -31.6329   67.2047   61.8146 C   0  0  0  0  0  0  0  0  0  0  0  0
  -31.9539   68.3627   60.2520 H   0  0  0  0  0  0  0  0  0  0  0  0
  -30.7195   62.3641   61.2854 O   0  0  0  0  0  0  0  0  0  0  0  0
  -28.9621   60.7219   61.1364 O   0  0  0  0  0  0  0  0  0  0  0  0
  -30.8883   60.3927   62.7166 O   0  0  0  0  0  0  0  0  0  0  0  0
  -29.2173   62.0341   63.1037 O   0  0  0  0  0  0  0  0  0  0  0  0
  -29.9448   61.1989   62.0375 S   0  0  0  0  0  0  0  0  0  0  0  0
  -29.3874   60.1883   60.4469 H   0  0  0  0  0  0  0  0  0  0  0  0
  -28.5587   62.6028   62.6751 H   0  0  0  0  0  0  0  0  0  0  0  0
  2  1  1  0  0  0
  2  4  1  0  0  0
  2  5  1  0  0  0
 47 48  1  0  0  0
 47  1  1  0  0  0
 48 52  1  0  0  0
  1 30  1  0  0  0
 29 30  1  0  0  0
 29 31  1  0  0  0
 30 32  1  0  0  0
  3  4  2  0  0  0
 32 33  2  0  0  0
 49 53  1  0  0  0
 49 57  1  0  0  0
 33 34  1  0  0  0
 62 54  1  0  0  0
 62 66  1  0  0  0
 34 35  1  0  0  0
 50 55  1  0  0  0
 50 58  1  0  0  0
 35 36  1  0  0  0
 51 52  1  0  0  0
 51 56  1  0  0  0
 36 37  1  0  0  0
 59 60  1  0  0  0
 59 61  1  0  0  0
 37 38  1  0  0  0
 63 66  1  0  0  0
 63 67  1  0  0  0
 38 39  1  0  0  0
 64 66  1  0  0  0
 39 40  1  0  0  0
 65 66  1  0  0  0
 65 68  1  0  0  0
 40 41  1  0  0  0
 41 42  1  0  0  0
 42 43  1  0  0  0
 43 44  1  0  0  0
 44 45  1  0  0  0
 45 46  1  0  0  0
  4  6  1  0  0  0
  6  7  1  0  0  0
  7  8  1  0  0  0
  8  9  1  0  0  0
  9 10  1  0  0  0
 10 11  1  0  0  0
 11 12  1  0  0  0
 12 13  1  0  0  0
 13 14  1  0  0  0
 14 15  1  0  0  0
 15 16  1  0  0  0
 16 17  1  0  0  0
 17 18  1  0  0  0
 18 19  1  0  0  0
 19 20  2  0  0  0
 20 21  1  0  0  0
 21 22  1  0  0  0
 22 23  1  0  0  0
 23 24  1  0  0  0
 24 25  1  0  0  0
 25 26  1  0  0  0
 26 27  1  0  0  0
 27 28  1  0  0  0
 52 53  1  0  0  0
 53 54  1  0  0  0
 54 55  1  0  0  0
 55 56  1  0  0  0
 56 60  1  0  0  0
M  CHG 1  64  -1
M  END
> <minimizedAffinity>
-8.44832

> <CNNscore>
0.1301577985

> <CNNaffinity>
7.1658658981

> <CNN_VS>
0.9326933026

> <CNNaffinity_variance>
1.2582314014

$$$$
/media/chris/experiments/cd1a-new-docking/inputs/ligands/7ryn_ligand.pdb


 68 68  0  0  0  0  0  0  0  0999 V2000
  -40.3690   59.1074   65.3011 C   0  0  0  0  0  0  0  0  0  0  0  0
  -40.6405   57.8292   64.6502 N   0  0  0  0  0  0  0  0  0  0  0  0
  -42.0159   57.0401   66.2482 O   0  0  0  0  0  0  0  0  0  0  0  0
  -41.4412   56.8965   65.1729 C   0  0  0  0  0  0  0  0  0  0  0  0
  -40.2123   57.6455   63.7830 H   0  0  0  0  0  0  0  0  0  0  0  0
  -41.6063   55.6429   64.3505 C   0  0  0  0  0  0  0  0  0  0  0  0
  -40.8809   55.7210   63.0133 C   0  0  0  0  0  0  0  0  0  0  0  0
  -41.8111   55.5153   61.8285 C   0  0  0  0  0  0  0  0  0  0  0  0
  -41.5576   56.4696   60.6733 C   0  0  0  0  0  0  0  0  0  0  0  0
  -42.0205   57.8941   60.9392 C   0  0  0  0  0  0  0  0  0  0  0  0
  -41.4488   58.9224   59.9714 C   0  0  0  0  0  0  0  0  0  0  0  0
  -40.5141   59.9320   60.6251 C   0  0  0  0  0  0  0  0  0  0  0  0
  -39.0619   59.8430   60.1629 C   0  0  0  0  0  0  0  0  0  0  0  0
  -38.3999   58.4959   60.4482 C   0  0  0  0  0  0  0  0  0  0  0  0
  -38.4654   58.0503   61.9089 C   0  0  0  0  0  0  0  0  0  0  0  0
  -37.3739   57.0500   62.2899 C   0  0  0  0  0  0  0  0  0  0  0  0
  -36.1733   57.6495   63.0218 C   0  0  0  0  0  0  0  0  0  0  0  0
  -35.0282   58.1082   62.1150 C   0  0  0  0  0  0  0  0  0  0  0  0
  -33.6772   57.7095   62.6347 C   0  0  0  0  0  0  0  0  0  0  0  0
  -32.6928   58.5307   62.9545 C   0  0  0  0  0  0  0  0  0  0  0  0
  -32.7279   60.0263   62.8656 C   0  0  0  0  0  0  0  0  0  0  0  0
  -31.7020   60.6082   61.8907 C   0  0  0  0  0  0  0  0  0  0  0  0
  -30.2609   60.3951   62.3348 C   0  0  0  0  0  0  0  0  0  0  0  0
  -29.2974   61.4403   61.7841 C   0  0  0  0  0  0  0  0  0  0  0  0
  -29.7099   62.8830   62.0531 C   0  0  0  0  0  0  0  0  0  0  0  0
  -29.6001   63.2892   63.5160 C   0  0  0  0  0  0  0  0  0  0  0  0
  -29.2304   64.7483   63.7306 C   0  0  0  0  0  0  0  0  0  0  0  0
  -29.2261   65.5504   62.4450 C   0  0  0  0  0  0  0  0  0  0  0  0
  -41.3476   61.3081   65.4853 O   0  0  0  0  0  0  0  0  0  0  0  0
  -41.1415   60.2220   64.5774 C   0  0  0  0  0  0  0  0  0  0  0  0
  -40.4912   61.6147   65.8224 H   0  0  0  0  0  0  0  0  0  0  0  0
  -42.4455   59.7217   64.0356 C   0  0  0  0  0  0  0  0  0  0  0  0
  -43.4852   59.3708   64.7663 C   0  0  0  0  0  0  0  0  0  0  0  0
  -44.7784   58.8894   64.1948 C   0  0  0  0  0  0  0  0  0  0  0  0
  -45.5470   58.0413   65.2101 C   0  0  0  0  0  0  0  0  0  0  0  0
  -45.5659   58.6180   66.6165 C   0  0  0  0  0  0  0  0  0  0  0  0
  -46.9478   58.6909   67.2432 C   0  0  0  0  0  0  0  0  0  0  0  0
  -48.0789   58.3308   66.2910 C   0  0  0  0  0  0  0  0  0  0  0  0
  -49.1028   59.4410   66.1112 C   0  0  0  0  0  0  0  0  0  0  0  0
  -50.3266   59.0217   65.3158 C   0  0  0  0  0  0  0  0  0  0  0  0
  -50.8609   60.0985   64.3900 C   0  0  0  0  0  0  0  0  0  0  0  0
  -51.6989   59.5628   63.2419 C   0  0  0  0  0  0  0  0  0  0  0  0
  -50.9964   58.4744   62.4517 C   0  0  0  0  0  0  0  0  0  0  0  0
  -49.7818   58.9481   61.6766 C   0  0  0  0  0  0  0  0  0  0  0  0
  -49.1041   57.8270   60.9134 C   0  0  0  0  0  0  0  0  0  0  0  0
  -49.0508   58.0895   59.4225 C   0  0  0  0  0  0  0  0  0  0  0  0
  -38.8777   59.3719   65.3245 C   0  0  0  0  0  0  0  0  0  0  0  0
  -38.6455   60.6877   64.8092 O   0  0  0  0  0  0  0  0  0  0  0  0
  -36.9983   60.9918   62.5653 O   0  0  0  0  0  0  0  0  0  0  0  0
  -36.2326   64.4701   64.9814 O   0  0  0  0  0  0  0  0  0  0  0  0
  -37.2210   61.9966   66.0688 O   0  0  0  0  0  0  0  0  0  0  0  0
  -37.3292   61.1369   64.9495 C   0  0  0  0  0  0  0  0  0  0  0  0
  -36.9457   61.8786   63.6756 C   0  0  0  0  0  0  0  0  0  0  0  0
  -35.5458   62.4627   63.8180 C   0  0  0  0  0  0  0  0  0  0  0  0
  -35.4288   63.2993   65.0836 C   0  0  0  0  0  0  0  0  0  0  0  0
  -35.8845   62.4763   66.2861 C   0  0  0  0  0  0  0  0  0  0  0  0
  -37.8934   60.6268   62.4852 H   0  0  0  0  0  0  0  0  0  0  0  0
  -35.9446   64.9944   64.2178 H   0  0  0  0  0  0  0  0  0  0  0  0
  -34.7069   64.0097   67.7527 O   0  0  0  0  0  0  0  0  0  0  0  0
  -35.9073   63.2669   67.5734 C   0  0  0  0  0  0  0  0  0  0  0  0
  -34.7542   64.5042   68.5858 H   0  0  0  0  0  0  0  0  0  0  0  0
  -35.3840   63.3241   62.6471 O   0  0  0  0  0  0  0  0  0  0  0  0
  -33.7321   63.8347   60.9684 O   0  0  0  0  0  0  0  0  0  0  0  0
  -33.0606   63.5285   63.3707 O   0  0  0  0  0  0  0  0  0  0  0  0
  -34.2774   65.4329   62.6434 O   0  0  0  0  0  0  0  0  0  0  0  0
  -33.9549   63.9563   62.3615 S   0  0  0  0  0  0  0  0  0  0  0  0
  -33.5250   62.9117   60.7535 H   0  0  0  0  0  0  0  0  0  0  0  0
  -34.8910   65.7643   61.9692 H   0  0  0  0  0  0  0  0  0  0  0  0
  2  1  1  0  0  0
  2  4  1  0  0  0
  2  5  1  0  0  0
 47 48  1  0  0  0
 47  1  1  0  0  0
 48 52  1  0  0  0
  1 30  1  0  0  0
 29 30  1  0  0  0
 29 31  1  0  0  0
 30 32  1  0  0  0
  3  4  2  0  0  0
 32 33  2  0  0  0
 49 53  1  0  0  0
 49 57  1  0  0  0
 33 34  1  0  0  0
 62 54  1  0  0  0
 62 66  1  0  0  0
 34 35  1  0  0  0
 50 55  1  0  0  0
 50 58  1  0  0  0
 35 36  1  0  0  0
 51 52  1  0  0  0
 51 56  1  0  0  0
 36 37  1  0  0  0
 59 60  1  0  0  0
 59 61  1  0  0  0
 37 38  1  0  0  0
 63 66  1  0  0  0
 63 67  1  0  0  0
 38 39  1  0  0  0
 64 66  1  0  0  0
 39 40  1  0  0  0
 65 66  1  0  0  0
 65 68  1  0  0  0
 40 41  1  0  0  0
 41 42  1  0  0  0
 42 43  1  0  0  0
 43 44  1  0  0  0
 44 45  1  0  0  0
 45 46  1  0  0  0
  4  6  1  0  0  0
  6  7  1  0  0  0
  7  8  1  0  0  0
  8  9  1  0  0  0
  9 10  1  0  0  0
 10 11  1  0  0  0
 11 12  1  0  0  0
 12 13  1  0  0  0
 13 14  1  0  0  0
 14 15  1  0  0  0
 15 16  1  0  0  0
 16 17  1  0  0  0
 17 18  1  0  0  0
 18 19  1  0  0  0
 19 20  2  0  0  0
 20 21  1  0  0  0
 21 22  1  0  0  0
 22 23  1  0  0  0
 23 24  1  0  0  0
 24 25  1  0  0  0
 25 26  1  0  0  0
 26 27  1  0  0  0
 27 28  1  0  0  0
 52 53  1  0  0  0
 53 54  1  0  0  0
 54 55  1  0  0  0
 55 56  1  0  0  0
 56 60  1  0  0  0
M  CHG 1  64  -1
M  END
> <minimizedAffinity>
-9.21637

> <CNNscore>
0.1273937672

> <CNNaffinity>
7.2082719803

> <CNN_VS>
0.9182889462

> <CNNaffinity_variance>
1.7504298687

$$$$
