/media/chris/experiments/cd1a-new-docking/inputs/ligands/4x6d_1_ligand.pdb
 OpenBabel07012320263D

 56 55  0  0  0  0  0  0  0  0999 V2000
  -46.5599   63.2369   70.9078 C   0  0  0  0  0  0  0  0  0  0  0  0
  -47.7291   63.6945   70.8364 O   0  0  0  0  0  0  0  0  0  0  0  0
  -46.3355   61.7572   71.1513 C   0  0  0  0  0  0  0  0  0  0  0  0
  -45.5808   64.0152   70.7712 O   0  0  0  0  0  0  0  0  0  0  0  0
  -46.2557   61.0235   69.8165 C   0  0  0  0  0  0  0  0  0  0  0  0
  -45.0998   61.5408   68.9749 C   0  0  0  0  0  0  0  0  0  0  0  0
  -45.0340   60.8182   67.6366 C   0  0  0  0  0  0  0  0  0  0  0  0
  -46.3218   61.0478   66.8512 C   0  0  0  0  0  0  0  0  0  0  0  0
  -46.2869   60.3217   65.5183 C   0  0  0  0  0  0  0  0  0  0  0  0
  -46.1420   58.8190   65.6970 C   0  0  0  0  0  0  0  0  0  0  0  0
  -47.3380   58.3370   66.4800 C   0  0  0  0  0  0  0  0  0  0  0  0
  -48.6910   58.5200   65.9370 C   0  0  0  0  0  0  0  0  0  0  0  0
  -49.0768   57.8833   64.6205 C   0  0  0  0  0  0  0  0  0  0  0  0
  -48.9503   56.3630   64.7112 C   0  0  0  0  0  0  0  0  0  0  0  0
  -49.3083   55.6511   63.4094 C   0  0  0  0  0  0  0  0  0  0  0  0
  -49.1860   54.1311   63.5462 C   0  0  0  0  0  0  0  0  0  0  0  0
  -49.5129   53.3402   62.2737 C   0  0  0  0  0  0  0  0  0  0  0  0
  -50.9437   53.5985   61.7831 C   0  0  0  0  0  0  0  0  0  0  0  0
  -51.2883   52.8011   60.5225 C   0  0  0  0  0  0  0  0  0  0  0  0
  -50.3666   53.1090   59.3362 C   0  0  0  0  0  0  0  0  0  0  0  0
  -47.1482   61.3639   71.7254 H   0  0  0  0  0  0  0  0  0  0  0  0
  -45.4189   61.6209   71.6862 H   0  0  0  0  0  0  0  0  0  0  0  0
  -44.7066   63.6820   70.8231 H   0  0  0  0  0  0  0  0  0  0  0  0
  -47.1706   61.1709   69.2816 H   0  0  0  0  0  0  0  0  0  0  0  0
  -46.0961   59.9833   70.0098 H   0  0  0  0  0  0  0  0  0  0  0  0
  -44.1832   61.3822   69.5037 H   0  0  0  0  0  0  0  0  0  0  0  0
  -45.2509   62.5842   68.7922 H   0  0  0  0  0  0  0  0  0  0  0  0
  -44.9058   59.7697   67.8068 H   0  0  0  0  0  0  0  0  0  0  0  0
  -44.2083   61.2000   67.0733 H   0  0  0  0  0  0  0  0  0  0  0  0
  -46.4412   62.0964   66.6748 H   0  0  0  0  0  0  0  0  0  0  0  0
  -47.1414   60.6668   67.4241 H   0  0  0  0  0  0  0  0  0  0  0  0
  -45.4571   60.6841   64.9482 H   0  0  0  0  0  0  0  0  0  0  0  0
  -47.2116   60.5087   65.0136 H   0  0  0  0  0  0  0  0  0  0  0  0
  -45.2422   58.6001   66.2331 H   0  0  0  0  0  0  0  0  0  0  0  0
  -46.0923   58.3300   64.7466 H   0  0  0  0  0  0  0  0  0  0  0  0
  -47.3129   58.8400   67.4241 H   0  0  0  0  0  0  0  0  0  0  0  0
  -47.2164   57.2740   66.4873 H   0  0  0  0  0  0  0  0  0  0  0  0
  -48.8369   59.5739   65.8234 H   0  0  0  0  0  0  0  0  0  0  0  0
  -49.3084   58.0076   66.6449 H   0  0  0  0  0  0  0  0  0  0  0  0
  -48.4296   58.2462   63.8495 H   0  0  0  0  0  0  0  0  0  0  0  0
  -50.0918   58.1359   64.3951 H   0  0  0  0  0  0  0  0  0  0  0  0
  -49.6051   56.0127   65.4816 H   0  0  0  0  0  0  0  0  0  0  0  0
  -47.9253   56.1413   64.9233 H   0  0  0  0  0  0  0  0  0  0  0  0
  -48.6463   55.9847   62.6378 H   0  0  0  0  0  0  0  0  0  0  0  0
  -50.3244   55.8847   63.1686 H   0  0  0  0  0  0  0  0  0  0  0  0
  -49.8555   53.8117   64.3173 H   0  0  0  0  0  0  0  0  0  0  0  0
  -48.1585   53.9313   63.7682 H   0  0  0  0  0  0  0  0  0  0  0  0
  -49.4021   52.2959   62.4789 H   0  0  0  0  0  0  0  0  0  0  0  0
  -48.8395   53.6596   61.5060 H   0  0  0  0  0  0  0  0  0  0  0  0
  -51.0489   54.6414   61.5680 H   0  0  0  0  0  0  0  0  0  0  0  0
  -51.6126   53.2849   62.5571 H   0  0  0  0  0  0  0  0  0  0  0  0
  -52.2940   53.0321   60.2394 H   0  0  0  0  0  0  0  0  0  0  0  0
  -51.1626   51.7654   60.7597 H   0  0  0  0  0  0  0  0  0  0  0  0
  -50.4636   54.1401   59.0673 H   0  0  0  0  0  0  0  0  0  0  0  0
  -50.6406   52.4959   58.5032 H   0  0  0  0  0  0  0  0  0  0  0  0
  -49.3524   52.9057   59.6103 H   0  0  0  0  0  0  0  0  0  0  0  0
  1  2  2  0  0  0  0
  1  3  1  0  0  0  0
  1  4  1  0  0  0  0
  3  5  1  0  0  0  0
  3 21  1  0  0  0  0
  3 22  1  0  0  0  0
  4 23  1  0  0  0  0
  5  6  1  0  0  0  0
  5 24  1  0  0  0  0
  5 25  1  0  0  0  0
  6  7  1  0  0  0  0
  6 26  1  0  0  0  0
  6 27  1  0  0  0  0
  7  8  1  0  0  0  0
  7 28  1  0  0  0  0
  7 29  1  0  0  0  0
  8  9  1  0  0  0  0
  8 30  1  0  0  0  0
  8 31  1  0  0  0  0
  9 10  1  0  0  0  0
  9 32  1  0  0  0  0
  9 33  1  0  0  0  0
 10 11  1  0  0  0  0
 10 34  1  0  0  0  0
 10 35  1  0  0  0  0
 11 12  1  0  0  0  0
 11 36  1  0  0  0  0
 11 37  1  0  0  0  0
 12 13  1  0  0  0  0
 12 38  1  0  0  0  0
 12 39  1  0  0  0  0
 13 14  1  0  0  0  0
 13 40  1  0  0  0  0
 13 41  1  0  0  0  0
 14 15  1  0  0  0  0
 14 42  1  0  0  0  0
 14 43  1  0  0  0  0
 15 16  1  0  0  0  0
 15 44  1  0  0  0  0
 15 45  1  0  0  0  0
 16 17  1  0  0  0  0
 16 46  1  0  0  0  0
 16 47  1  0  0  0  0
 17 18  1  0  0  0  0
 17 48  1  0  0  0  0
 17 49  1  0  0  0  0
 18 19  1  0  0  0  0
 18 50  1  0  0  0  0
 18 51  1  0  0  0  0
 19 20  1  0  0  0  0
 19 52  1  0  0  0  0
 19 53  1  0  0  0  0
 20 54  1  0  0  0  0
 20 55  1  0  0  0  0
 20 56  1  0  0  0  0
M  END
$$$$