/media/chris/experiments/cd1a-new-docking/inputs/ligands/4x6d_1_ligand.pdb
 OpenBabel07012320263D

 56 55  0  0  0  0  0  0  0  0999 V2000
  -42.9414   64.8623   65.5863 C   0  0  0  0  0  0  0  0  0  0  0  0
  -43.5545   65.5617   66.4328 O   0  0  0  0  0  0  0  0  0  0  0  0
  -42.7859   63.3695   65.8021 C   0  0  0  0  0  0  0  0  0  0  0  0
  -42.4637   65.4102   64.5593 O   0  0  0  0  0  0  0  0  0  0  0  0
  -43.9717   62.8400   66.6021 C   0  0  0  0  0  0  0  0  0  0  0  0
  -43.8404   61.3460   66.8529 C   0  0  0  0  0  0  0  0  0  0  0  0
  -45.0340   60.8182   67.6366 C   0  0  0  0  0  0  0  0  0  0  0  0
  -46.3218   61.0478   66.8512 C   0  0  0  0  0  0  0  0  0  0  0  0
  -46.2869   60.3217   65.5183 C   0  0  0  0  0  0  0  0  0  0  0  0
  -46.1420   58.8190   65.6970 C   0  0  0  0  0  0  0  0  0  0  0  0
  -47.3380   58.3370   66.4800 C   0  0  0  0  0  0  0  0  0  0  0  0
  -48.6910   58.5200   65.9370 C   0  0  0  0  0  0  0  0  0  0  0  0
  -49.0768   57.8833   64.6205 C   0  0  0  0  0  0  0  0  0  0  0  0
  -48.9503   56.3630   64.7112 C   0  0  0  0  0  0  0  0  0  0  0  0
  -49.3083   55.6511   63.4094 C   0  0  0  0  0  0  0  0  0  0  0  0
  -49.1860   54.1311   63.5462 C   0  0  0  0  0  0  0  0  0  0  0  0
  -47.7899   53.6283   63.9331 C   0  0  0  0  0  0  0  0  0  0  0  0
  -46.7223   54.0398   62.9106 C   0  0  0  0  0  0  0  0  0  0  0  0
  -46.5946   55.5588   62.7696 C   0  0  0  0  0  0  0  0  0  0  0  0
  -45.5437   55.9885   61.7388 C   0  0  0  0  0  0  0  0  0  0  0  0
  -41.8807   63.1802   66.3402 H   0  0  0  0  0  0  0  0  0  0  0  0
  -42.7496   62.8760   64.8534 H   0  0  0  0  0  0  0  0  0  0  0  0
  -42.0056   64.8959   63.9240 H   0  0  0  0  0  0  0  0  0  0  0  0
  -44.8726   63.0247   66.0552 H   0  0  0  0  0  0  0  0  0  0  0  0
  -43.9952   63.3421   67.5468 H   0  0  0  0  0  0  0  0  0  0  0  0
  -42.9462   61.1620   67.4109 H   0  0  0  0  0  0  0  0  0  0  0  0
  -43.8029   60.8436   65.9089 H   0  0  0  0  0  0  0  0  0  0  0  0
  -45.0957   61.3299   68.5743 H   0  0  0  0  0  0  0  0  0  0  0  0
  -44.9075   59.7686   67.8014 H   0  0  0  0  0  0  0  0  0  0  0  0
  -46.4412   62.0964   66.6748 H   0  0  0  0  0  0  0  0  0  0  0  0
  -47.1414   60.6668   67.4241 H   0  0  0  0  0  0  0  0  0  0  0  0
  -45.4571   60.6841   64.9482 H   0  0  0  0  0  0  0  0  0  0  0  0
  -47.2116   60.5087   65.0136 H   0  0  0  0  0  0  0  0  0  0  0  0
  -45.2422   58.6001   66.2331 H   0  0  0  0  0  0  0  0  0  0  0  0
  -46.0923   58.3300   64.7466 H   0  0  0  0  0  0  0  0  0  0  0  0
  -47.3129   58.8400   67.4241 H   0  0  0  0  0  0  0  0  0  0  0  0
  -47.2164   57.2740   66.4873 H   0  0  0  0  0  0  0  0  0  0  0  0
  -48.8369   59.5739   65.8234 H   0  0  0  0  0  0  0  0  0  0  0  0
  -49.3084   58.0076   66.6449 H   0  0  0  0  0  0  0  0  0  0  0  0
  -48.4296   58.2462   63.8495 H   0  0  0  0  0  0  0  0  0  0  0  0
  -50.0918   58.1359   64.3951 H   0  0  0  0  0  0  0  0  0  0  0  0
  -49.6051   56.0127   65.4816 H   0  0  0  0  0  0  0  0  0  0  0  0
  -47.9253   56.1413   64.9233 H   0  0  0  0  0  0  0  0  0  0  0  0
  -48.6463   55.9847   62.6378 H   0  0  0  0  0  0  0  0  0  0  0  0
  -50.3244   55.8847   63.1686 H   0  0  0  0  0  0  0  0  0  0  0  0
  -49.4497   53.6905   62.6075 H   0  0  0  0  0  0  0  0  0  0  0  0
  -49.8391   53.8480   64.3451 H   0  0  0  0  0  0  0  0  0  0  0  0
  -47.8133   52.5604   63.9962 H   0  0  0  0  0  0  0  0  0  0  0  0
  -47.5311   54.0680   64.8736 H   0  0  0  0  0  0  0  0  0  0  0  0
  -46.9838   53.6282   61.9582 H   0  0  0  0  0  0  0  0  0  0  0  0
  -45.7814   53.6669   63.2576 H   0  0  0  0  0  0  0  0  0  0  0  0
  -46.3229   55.9661   63.7210 H   0  0  0  0  0  0  0  0  0  0  0  0
  -47.5402   55.9249   62.4280 H   0  0  0  0  0  0  0  0  0  0  0  0
  -44.5798   55.6398   62.0455 H   0  0  0  0  0  0  0  0  0  0  0  0
  -45.5305   57.0560   61.6666 H   0  0  0  0  0  0  0  0  0  0  0  0
  -45.7876   55.5695   60.7849 H   0  0  0  0  0  0  0  0  0  0  0  0
  1  2  2  0  0  0  0
  1  3  1  0  0  0  0
  1  4  1  0  0  0  0
  3  5  1  0  0  0  0
  3 21  1  0  0  0  0
  3 22  1  0  0  0  0
  4 23  1  0  0  0  0
  5  6  1  0  0  0  0
  5 24  1  0  0  0  0
  5 25  1  0  0  0  0
  6  7  1  0  0  0  0
  6 26  1  0  0  0  0
  6 27  1  0  0  0  0
  7  8  1  0  0  0  0
  7 28  1  0  0  0  0
  7 29  1  0  0  0  0
  8  9  1  0  0  0  0
  8 30  1  0  0  0  0
  8 31  1  0  0  0  0
  9 10  1  0  0  0  0
  9 32  1  0  0  0  0
  9 33  1  0  0  0  0
 10 11  1  0  0  0  0
 10 34  1  0  0  0  0
 10 35  1  0  0  0  0
 11 12  1  0  0  0  0
 11 36  1  0  0  0  0
 11 37  1  0  0  0  0
 12 13  1  0  0  0  0
 12 38  1  0  0  0  0
 12 39  1  0  0  0  0
 13 14  1  0  0  0  0
 13 40  1  0  0  0  0
 13 41  1  0  0  0  0
 14 15  1  0  0  0  0
 14 42  1  0  0  0  0
 14 43  1  0  0  0  0
 15 16  1  0  0  0  0
 15 44  1  0  0  0  0
 15 45  1  0  0  0  0
 16 17  1  0  0  0  0
 16 46  1  0  0  0  0
 16 47  1  0  0  0  0
 17 18  1  0  0  0  0
 17 48  1  0  0  0  0
 17 49  1  0  0  0  0
 18 19  1  0  0  0  0
 18 50  1  0  0  0  0
 18 51  1  0  0  0  0
 19 20  1  0  0  0  0
 19 52  1  0  0  0  0
 19 53  1  0  0  0  0
 20 54  1  0  0  0  0
 20 55  1  0  0  0  0
 20 56  1  0  0  0  0
M  END
$$$$