/media/chris/experiments/cd1a-new-docking/inputs/ligands/4x6d_1_ligand.pdb
 OpenBabel07012320263D

 56 55  0  0  0  0  0  0  0  0999 V2000
  -44.1291   65.0072   67.8598 C   0  0  0  0  0  0  0  0  0  0  0  0
  -43.9154   65.4664   69.0110 O   0  0  0  0  0  0  0  0  0  0  0  0
  -45.4530   65.2708   67.1693 C   0  0  0  0  0  0  0  0  0  0  0  0
  -43.2350   64.3329   67.2862 O   0  0  0  0  0  0  0  0  0  0  0  0
  -45.4628   64.5943   65.8023 C   0  0  0  0  0  0  0  0  0  0  0  0
  -45.2944   63.0888   65.9345 C   0  0  0  0  0  0  0  0  0  0  0  0
  -45.2873   62.4192   64.5674 C   0  0  0  0  0  0  0  0  0  0  0  0
  -45.1351   60.9090   64.7223 C   0  0  0  0  0  0  0  0  0  0  0  0
  -46.2869   60.3217   65.5183 C   0  0  0  0  0  0  0  0  0  0  0  0
  -46.1420   58.8190   65.6970 C   0  0  0  0  0  0  0  0  0  0  0  0
  -47.3380   58.3370   66.4800 C   0  0  0  0  0  0  0  0  0  0  0  0
  -48.6910   58.5200   65.9370 C   0  0  0  0  0  0  0  0  0  0  0  0
  -49.0768   57.8833   64.6205 C   0  0  0  0  0  0  0  0  0  0  0  0
  -50.5214   58.2342   64.2666 C   0  0  0  0  0  0  0  0  0  0  0  0
  -50.7548   59.7345   64.1102 C   0  0  0  0  0  0  0  0  0  0  0  0
  -49.8946   60.3249   62.9897 C   0  0  0  0  0  0  0  0  0  0  0  0
  -50.0576   61.8349   62.7785 C   0  0  0  0  0  0  0  0  0  0  0  0
  -51.5035   62.2191   62.4373 C   0  0  0  0  0  0  0  0  0  0  0  0
  -52.0119   61.5342   61.1660 C   0  0  0  0  0  0  0  0  0  0  0  0
  -53.4502   61.9199   60.8000 C   0  0  0  0  0  0  0  0  0  0  0  0
  -45.5859   66.3252   67.0453 H   0  0  0  0  0  0  0  0  0  0  0  0
  -46.2488   64.8762   67.7658 H   0  0  0  0  0  0  0  0  0  0  0  0
  -43.3866   63.9873   66.4285 H   0  0  0  0  0  0  0  0  0  0  0  0
  -44.6596   64.9852   65.2133 H   0  0  0  0  0  0  0  0  0  0  0  0
  -46.4041   64.7907   65.3329 H   0  0  0  0  0  0  0  0  0  0  0  0
  -46.1042   62.6955   66.5128 H   0  0  0  0  0  0  0  0  0  0  0  0
  -44.3596   62.8911   66.4162 H   0  0  0  0  0  0  0  0  0  0  0  0
  -44.4697   62.7998   63.9915 H   0  0  0  0  0  0  0  0  0  0  0  0
  -46.2118   62.6283   64.0709 H   0  0  0  0  0  0  0  0  0  0  0  0
  -44.2170   60.7008   65.2309 H   0  0  0  0  0  0  0  0  0  0  0  0
  -45.1347   60.4661   63.7483 H   0  0  0  0  0  0  0  0  0  0  0  0
  -47.2024   60.5223   65.0020 H   0  0  0  0  0  0  0  0  0  0  0  0
  -46.2850   60.7734   66.4883 H   0  0  0  0  0  0  0  0  0  0  0  0
  -45.2422   58.6001   66.2331 H   0  0  0  0  0  0  0  0  0  0  0  0
  -46.0923   58.3300   64.7466 H   0  0  0  0  0  0  0  0  0  0  0  0
  -47.3129   58.8400   67.4241 H   0  0  0  0  0  0  0  0  0  0  0  0
  -47.2164   57.2740   66.4873 H   0  0  0  0  0  0  0  0  0  0  0  0
  -48.8369   59.5739   65.8234 H   0  0  0  0  0  0  0  0  0  0  0  0
  -49.3084   58.0076   66.6449 H   0  0  0  0  0  0  0  0  0  0  0  0
  -48.9808   56.8206   64.7005 H   0  0  0  0  0  0  0  0  0  0  0  0
  -48.4300   58.2521   63.8520 H   0  0  0  0  0  0  0  0  0  0  0  0
  -51.1601   57.8699   65.0440 H   0  0  0  0  0  0  0  0  0  0  0  0
  -50.7372   57.7788   63.3227 H   0  0  0  0  0  0  0  0  0  0  0  0
  -50.5088   60.2219   65.0304 H   0  0  0  0  0  0  0  0  0  0  0  0
  -51.7834   59.8888   63.8591 H   0  0  0  0  0  0  0  0  0  0  0  0
  -50.1540   59.8315   62.0763 H   0  0  0  0  0  0  0  0  0  0  0  0
  -48.8763   60.1705   63.2799 H   0  0  0  0  0  0  0  0  0  0  0  0
  -49.4209   62.1413   61.9750 H   0  0  0  0  0  0  0  0  0  0  0  0
  -49.7942   62.3251   63.6924 H   0  0  0  0  0  0  0  0  0  0  0  0
  -51.5526   63.2789   62.2983 H   0  0  0  0  0  0  0  0  0  0  0  0
  -52.1235   61.8975   63.2479 H   0  0  0  0  0  0  0  0  0  0  0  0
  -51.9715   60.4750   61.3121 H   0  0  0  0  0  0  0  0  0  0  0  0
  -51.3841   61.8557   60.3614 H   0  0  0  0  0  0  0  0  0  0  0  0
  -54.1119   61.6139   61.5832 H   0  0  0  0  0  0  0  0  0  0  0  0
  -53.7286   61.4345   59.8880 H   0  0  0  0  0  0  0  0  0  0  0  0
  -53.5138   62.9805   60.6733 H   0  0  0  0  0  0  0  0  0  0  0  0
  1  2  2  0  0  0  0
  1  3  1  0  0  0  0
  1  4  1  0  0  0  0
  3  5  1  0  0  0  0
  3 21  1  0  0  0  0
  3 22  1  0  0  0  0
  4 23  1  0  0  0  0
  5  6  1  0  0  0  0
  5 24  1  0  0  0  0
  5 25  1  0  0  0  0
  6  7  1  0  0  0  0
  6 26  1  0  0  0  0
  6 27  1  0  0  0  0
  7  8  1  0  0  0  0
  7 28  1  0  0  0  0
  7 29  1  0  0  0  0
  8  9  1  0  0  0  0
  8 30  1  0  0  0  0
  8 31  1  0  0  0  0
  9 10  1  0  0  0  0
  9 32  1  0  0  0  0
  9 33  1  0  0  0  0
 10 11  1  0  0  0  0
 10 34  1  0  0  0  0
 10 35  1  0  0  0  0
 11 12  1  0  0  0  0
 11 36  1  0  0  0  0
 11 37  1  0  0  0  0
 12 13  1  0  0  0  0
 12 38  1  0  0  0  0
 12 39  1  0  0  0  0
 13 14  1  0  0  0  0
 13 40  1  0  0  0  0
 13 41  1  0  0  0  0
 14 15  1  0  0  0  0
 14 42  1  0  0  0  0
 14 43  1  0  0  0  0
 15 16  1  0  0  0  0
 15 44  1  0  0  0  0
 15 45  1  0  0  0  0
 16 17  1  0  0  0  0
 16 46  1  0  0  0  0
 16 47  1  0  0  0  0
 17 18  1  0  0  0  0
 17 48  1  0  0  0  0
 17 49  1  0  0  0  0
 18 19  1  0  0  0  0
 18 50  1  0  0  0  0
 18 51  1  0  0  0  0
 19 20  1  0  0  0  0
 19 52  1  0  0  0  0
 19 53  1  0  0  0  0
 20 54  1  0  0  0  0
 20 55  1  0  0  0  0
 20 56  1  0  0  0  0
M  END
$$$$