/media/chris/experiments/cd1a-new-docking/inputs/ligands/4x6d_1_ligand.pdb
 OpenBabel07012320263D

 56 55  0  0  0  0  0  0  0  0999 V2000
  -41.3512   61.1071   70.0086 C   0  0  0  0  0  0  0  0  0  0  0  0
  -40.8926   61.9177   70.8537 O   0  0  0  0  0  0  0  0  0  0  0  0
  -42.5695   61.4754   69.1844 C   0  0  0  0  0  0  0  0  0  0  0  0
  -40.7887   59.9928   69.8503 O   0  0  0  0  0  0  0  0  0  0  0  0
  -42.4961   60.7888   67.8244 C   0  0  0  0  0  0  0  0  0  0  0  0
  -43.6958   61.1499   66.9627 C   0  0  0  0  0  0  0  0  0  0  0  0
  -43.6277   60.4492   65.6129 C   0  0  0  0  0  0  0  0  0  0  0  0
  -43.6307   58.9356   65.8055 C   0  0  0  0  0  0  0  0  0  0  0  0
  -44.8989   58.4750   66.5016 C   0  0  0  0  0  0  0  0  0  0  0  0
  -46.1420   58.8190   65.6970 C   0  0  0  0  0  0  0  0  0  0  0  0
  -47.3380   58.3370   66.4800 C   0  0  0  0  0  0  0  0  0  0  0  0
  -48.6910   58.5200   65.9370 C   0  0  0  0  0  0  0  0  0  0  0  0
  -49.0768   57.8833   64.6205 C   0  0  0  0  0  0  0  0  0  0  0  0
  -48.1632   58.3848   63.5027 C   0  0  0  0  0  0  0  0  0  0  0  0
  -48.5053   57.7959   62.1368 C   0  0  0  0  0  0  0  0  0  0  0  0
  -47.5580   58.3087   61.0487 C   0  0  0  0  0  0  0  0  0  0  0  0
  -47.8454   57.7764   59.6396 C   0  0  0  0  0  0  0  0  0  0  0  0
  -49.2460   58.1653   59.1482 C   0  0  0  0  0  0  0  0  0  0  0  0
  -49.4443   59.6812   59.0701 C   0  0  0  0  0  0  0  0  0  0  0  0
  -48.4745   60.3734   58.1046 C   0  0  0  0  0  0  0  0  0  0  0  0
  -42.5983   62.5360   69.0464 H   0  0  0  0  0  0  0  0  0  0  0  0
  -43.4534   61.1557   69.6958 H   0  0  0  0  0  0  0  0  0  0  0  0
  -41.1243   59.3835   69.2227 H   0  0  0  0  0  0  0  0  0  0  0  0
  -42.4762   59.7288   67.9688 H   0  0  0  0  0  0  0  0  0  0  0  0
  -41.6084   61.1175   67.3255 H   0  0  0  0  0  0  0  0  0  0  0  0
  -43.7091   62.2085   66.8072 H   0  0  0  0  0  0  0  0  0  0  0  0
  -44.5853   60.8341   67.4666 H   0  0  0  0  0  0  0  0  0  0  0  0
  -42.7298   60.7397   65.1085 H   0  0  0  0  0  0  0  0  0  0  0  0
  -44.4803   60.7292   65.0303 H   0  0  0  0  0  0  0  0  0  0  0  0
  -42.7853   58.6574   66.3995 H   0  0  0  0  0  0  0  0  0  0  0  0
  -43.5837   58.4708   64.8428 H   0  0  0  0  0  0  0  0  0  0  0  0
  -44.9621   58.9519   67.4573 H   0  0  0  0  0  0  0  0  0  0  0  0
  -44.8537   57.4109   66.6046 H   0  0  0  0  0  0  0  0  0  0  0  0
  -46.1077   58.3309   64.7454 H   0  0  0  0  0  0  0  0  0  0  0  0
  -46.2020   59.8741   65.5296 H   0  0  0  0  0  0  0  0  0  0  0  0
  -47.3129   58.8400   67.4241 H   0  0  0  0  0  0  0  0  0  0  0  0
  -47.2164   57.2740   66.4873 H   0  0  0  0  0  0  0  0  0  0  0  0
  -48.8369   59.5739   65.8234 H   0  0  0  0  0  0  0  0  0  0  0  0
  -49.3084   58.0076   66.6449 H   0  0  0  0  0  0  0  0  0  0  0  0
  -50.0902   58.1369   64.3890 H   0  0  0  0  0  0  0  0  0  0  0  0
  -48.9753   56.8214   64.7037 H   0  0  0  0  0  0  0  0  0  0  0  0
  -47.1546   58.1210   63.7438 H   0  0  0  0  0  0  0  0  0  0  0  0
  -48.2963   59.4443   63.4346 H   0  0  0  0  0  0  0  0  0  0  0  0
  -49.5077   58.0698   61.8817 H   0  0  0  0  0  0  0  0  0  0  0  0
  -48.4029   56.7324   62.1956 H   0  0  0  0  0  0  0  0  0  0  0  0
  -46.5613   58.0245   61.3146 H   0  0  0  0  0  0  0  0  0  0  0  0
  -47.6983   59.3685   61.0037 H   0  0  0  0  0  0  0  0  0  0  0  0
  -47.7684   56.7092   59.6520 H   0  0  0  0  0  0  0  0  0  0  0  0
  -47.1306   58.2104   58.9721 H   0  0  0  0  0  0  0  0  0  0  0  0
  -49.9706   57.7595   59.8230 H   0  0  0  0  0  0  0  0  0  0  0  0
  -49.3626   57.7725   58.1598 H   0  0  0  0  0  0  0  0  0  0  0  0
  -49.3013   60.0928   60.0474 H   0  0  0  0  0  0  0  0  0  0  0  0
  -50.4337   59.8517   58.7002 H   0  0  0  0  0  0  0  0  0  0  0  0
  -47.4697   60.2254   58.4413 H   0  0  0  0  0  0  0  0  0  0  0  0
  -48.6895   61.4211   58.0731 H   0  0  0  0  0  0  0  0  0  0  0  0
  -48.5877   59.9565   57.1256 H   0  0  0  0  0  0  0  0  0  0  0  0
  1  2  2  0  0  0  0
  1  3  1  0  0  0  0
  1  4  1  0  0  0  0
  3  5  1  0  0  0  0
  3 21  1  0  0  0  0
  3 22  1  0  0  0  0
  4 23  1  0  0  0  0
  5  6  1  0  0  0  0
  5 24  1  0  0  0  0
  5 25  1  0  0  0  0
  6  7  1  0  0  0  0
  6 26  1  0  0  0  0
  6 27  1  0  0  0  0
  7  8  1  0  0  0  0
  7 28  1  0  0  0  0
  7 29  1  0  0  0  0
  8  9  1  0  0  0  0
  8 30  1  0  0  0  0
  8 31  1  0  0  0  0
  9 10  1  0  0  0  0
  9 32  1  0  0  0  0
  9 33  1  0  0  0  0
 10 11  1  0  0  0  0
 10 34  1  0  0  0  0
 10 35  1  0  0  0  0
 11 12  1  0  0  0  0
 11 36  1  0  0  0  0
 11 37  1  0  0  0  0
 12 13  1  0  0  0  0
 12 38  1  0  0  0  0
 12 39  1  0  0  0  0
 13 14  1  0  0  0  0
 13 40  1  0  0  0  0
 13 41  1  0  0  0  0
 14 15  1  0  0  0  0
 14 42  1  0  0  0  0
 14 43  1  0  0  0  0
 15 16  1  0  0  0  0
 15 44  1  0  0  0  0
 15 45  1  0  0  0  0
 16 17  1  0  0  0  0
 16 46  1  0  0  0  0
 16 47  1  0  0  0  0
 17 18  1  0  0  0  0
 17 48  1  0  0  0  0
 17 49  1  0  0  0  0
 18 19  1  0  0  0  0
 18 50  1  0  0  0  0
 18 51  1  0  0  0  0
 19 20  1  0  0  0  0
 19 52  1  0  0  0  0
 19 53  1  0  0  0  0
 20 54  1  0  0  0  0
 20 55  1  0  0  0  0
 20 56  1  0  0  0  0
M  END
$$$$