/media/chris/experiments/cd1a-new-docking/inputs/ligands/4x6d_1_ligand.pdb
 OpenBabel07012320263D

 56 55  0  0  0  0  0  0  0  0999 V2000
  -42.7262   62.6730   64.4565 C   0  0  0  0  0  0  0  0  0  0  0  0
  -41.8108   62.9532   63.6410 O   0  0  0  0  0  0  0  0  0  0  0  0
  -42.7859   63.3695   65.8021 C   0  0  0  0  0  0  0  0  0  0  0  0
  -43.5922   61.8151   64.1447 O   0  0  0  0  0  0  0  0  0  0  0  0
  -43.9717   62.8400   66.6021 C   0  0  0  0  0  0  0  0  0  0  0  0
  -43.8404   61.3460   66.8529 C   0  0  0  0  0  0  0  0  0  0  0  0
  -45.0340   60.8182   67.6366 C   0  0  0  0  0  0  0  0  0  0  0  0
  -46.3218   61.0478   66.8512 C   0  0  0  0  0  0  0  0  0  0  0  0
  -46.2869   60.3217   65.5183 C   0  0  0  0  0  0  0  0  0  0  0  0
  -46.1420   58.8190   65.6970 C   0  0  0  0  0  0  0  0  0  0  0  0
  -47.3380   58.3370   66.4800 C   0  0  0  0  0  0  0  0  0  0  0  0
  -48.6910   58.5200   65.9370 C   0  0  0  0  0  0  0  0  0  0  0  0
  -49.2055   59.9072   65.6232 C   0  0  0  0  0  0  0  0  0  0  0  0
  -50.6357   59.8327   65.0901 C   0  0  0  0  0  0  0  0  0  0  0  0
  -50.7617   58.9932   63.8216 C   0  0  0  0  0  0  0  0  0  0  0  0
  -49.8921   59.5478   62.6900 C   0  0  0  0  0  0  0  0  0  0  0  0
  -49.9749   58.7690   61.3716 C   0  0  0  0  0  0  0  0  0  0  0  0
  -49.0677   59.3669   60.2881 C   0  0  0  0  0  0  0  0  0  0  0  0
  -49.1544   58.6083   58.9612 C   0  0  0  0  0  0  0  0  0  0  0  0
  -48.2409   59.1818   57.8710 C   0  0  0  0  0  0  0  0  0  0  0  0
  -42.8995   64.4229   65.6526 H   0  0  0  0  0  0  0  0  0  0  0  0
  -41.8812   63.1787   66.3406 H   0  0  0  0  0  0  0  0  0  0  0  0
  -44.2774   61.6008   64.7469 H   0  0  0  0  0  0  0  0  0  0  0  0
  -44.8726   63.0247   66.0552 H   0  0  0  0  0  0  0  0  0  0  0  0
  -43.9952   63.3421   67.5468 H   0  0  0  0  0  0  0  0  0  0  0  0
  -42.9462   61.1620   67.4109 H   0  0  0  0  0  0  0  0  0  0  0  0
  -43.8029   60.8436   65.9089 H   0  0  0  0  0  0  0  0  0  0  0  0
  -45.0957   61.3299   68.5743 H   0  0  0  0  0  0  0  0  0  0  0  0
  -44.9075   59.7686   67.8014 H   0  0  0  0  0  0  0  0  0  0  0  0
  -46.4412   62.0964   66.6748 H   0  0  0  0  0  0  0  0  0  0  0  0
  -47.1414   60.6668   67.4241 H   0  0  0  0  0  0  0  0  0  0  0  0
  -45.4571   60.6841   64.9482 H   0  0  0  0  0  0  0  0  0  0  0  0
  -47.2116   60.5087   65.0136 H   0  0  0  0  0  0  0  0  0  0  0  0
  -45.2422   58.6001   66.2331 H   0  0  0  0  0  0  0  0  0  0  0  0
  -46.0923   58.3300   64.7466 H   0  0  0  0  0  0  0  0  0  0  0  0
  -47.3129   58.8400   67.4241 H   0  0  0  0  0  0  0  0  0  0  0  0
  -47.2164   57.2740   66.4873 H   0  0  0  0  0  0  0  0  0  0  0  0
  -49.3680   58.0944   66.6480 H   0  0  0  0  0  0  0  0  0  0  0  0
  -48.6304   58.0595   64.9731 H   0  0  0  0  0  0  0  0  0  0  0  0
  -48.5763   60.3587   64.8849 H   0  0  0  0  0  0  0  0  0  0  0  0
  -49.1972   60.4930   66.5186 H   0  0  0  0  0  0  0  0  0  0  0  0
  -50.9707   60.8260   64.8752 H   0  0  0  0  0  0  0  0  0  0  0  0
  -51.2318   59.3617   65.8436 H   0  0  0  0  0  0  0  0  0  0  0  0
  -51.7839   58.9927   63.5056 H   0  0  0  0  0  0  0  0  0  0  0  0
  -50.4297   58.0004   64.0430 H   0  0  0  0  0  0  0  0  0  0  0  0
  -48.8737   59.5385   63.0183 H   0  0  0  0  0  0  0  0  0  0  0  0
  -50.2609   60.5304   62.4820 H   0  0  0  0  0  0  0  0  0  0  0  0
  -50.9864   58.7877   61.0232 H   0  0  0  0  0  0  0  0  0  0  0  0
  -49.6465   57.7682   61.5598 H   0  0  0  0  0  0  0  0  0  0  0  0
  -48.0556   59.3371   60.6341 H   0  0  0  0  0  0  0  0  0  0  0  0
  -49.3951   60.3698   60.1093 H   0  0  0  0  0  0  0  0  0  0  0  0
  -50.1652   58.6489   58.6127 H   0  0  0  0  0  0  0  0  0  0  0  0
  -48.8312   57.6057   59.1489 H   0  0  0  0  0  0  0  0  0  0  0  0
  -48.5330   60.1880   57.6539 H   0  0  0  0  0  0  0  0  0  0  0  0
  -48.3254   58.5869   56.9857 H   0  0  0  0  0  0  0  0  0  0  0  0
  -47.2271   59.1705   58.2129 H   0  0  0  0  0  0  0  0  0  0  0  0
  1  2  2  0  0  0  0
  1  3  1  0  0  0  0
  1  4  1  0  0  0  0
  3  5  1  0  0  0  0
  3 21  1  0  0  0  0
  3 22  1  0  0  0  0
  4 23  1  0  0  0  0
  5  6  1  0  0  0  0
  5 24  1  0  0  0  0
  5 25  1  0  0  0  0
  6  7  1  0  0  0  0
  6 26  1  0  0  0  0
  6 27  1  0  0  0  0
  7  8  1  0  0  0  0
  7 28  1  0  0  0  0
  7 29  1  0  0  0  0
  8  9  1  0  0  0  0
  8 30  1  0  0  0  0
  8 31  1  0  0  0  0
  9 10  1  0  0  0  0
  9 32  1  0  0  0  0
  9 33  1  0  0  0  0
 10 11  1  0  0  0  0
 10 34  1  0  0  0  0
 10 35  1  0  0  0  0
 11 12  1  0  0  0  0
 11 36  1  0  0  0  0
 11 37  1  0  0  0  0
 12 13  1  0  0  0  0
 12 38  1  0  0  0  0
 12 39  1  0  0  0  0
 13 14  1  0  0  0  0
 13 40  1  0  0  0  0
 13 41  1  0  0  0  0
 14 15  1  0  0  0  0
 14 42  1  0  0  0  0
 14 43  1  0  0  0  0
 15 16  1  0  0  0  0
 15 44  1  0  0  0  0
 15 45  1  0  0  0  0
 16 17  1  0  0  0  0
 16 46  1  0  0  0  0
 16 47  1  0  0  0  0
 17 18  1  0  0  0  0
 17 48  1  0  0  0  0
 17 49  1  0  0  0  0
 18 19  1  0  0  0  0
 18 50  1  0  0  0  0
 18 51  1  0  0  0  0
 19 20  1  0  0  0  0
 19 52  1  0  0  0  0
 19 53  1  0  0  0  0
 20 54  1  0  0  0  0
 20 55  1  0  0  0  0
 20 56  1  0  0  0  0
M  END
$$$$