/media/chris/experiments/cd1a-new-docking/inputs/ligands/4x6d_1_ligand.pdb
 OpenBabel07012320263D

 56 55  0  0  0  0  0  0  0  0999 V2000
  -45.6402   66.7659   67.0003 C   0  0  0  0  0  0  0  0  0  0  0  0
  -45.6494   67.5186   68.0077 O   0  0  0  0  0  0  0  0  0  0  0  0
  -45.4530   65.2708   67.1693 C   0  0  0  0  0  0  0  0  0  0  0  0
  -45.7920   67.2630   65.8544 O   0  0  0  0  0  0  0  0  0  0  0  0
  -45.4628   64.5943   65.8023 C   0  0  0  0  0  0  0  0  0  0  0  0
  -45.2944   63.0888   65.9345 C   0  0  0  0  0  0  0  0  0  0  0  0
  -45.2873   62.4192   64.5674 C   0  0  0  0  0  0  0  0  0  0  0  0
  -45.1351   60.9090   64.7223 C   0  0  0  0  0  0  0  0  0  0  0  0
  -46.2869   60.3217   65.5183 C   0  0  0  0  0  0  0  0  0  0  0  0
  -46.1420   58.8190   65.6970 C   0  0  0  0  0  0  0  0  0  0  0  0
  -47.3380   58.3370   66.4800 C   0  0  0  0  0  0  0  0  0  0  0  0
  -48.6910   58.5200   65.9370 C   0  0  0  0  0  0  0  0  0  0  0  0
  -49.2055   59.9072   65.6232 C   0  0  0  0  0  0  0  0  0  0  0  0
  -50.6357   59.8327   65.0901 C   0  0  0  0  0  0  0  0  0  0  0  0
  -51.2168   61.1986   64.7345 C   0  0  0  0  0  0  0  0  0  0  0  0
  -52.6547   61.0831   64.2213 C   0  0  0  0  0  0  0  0  0  0  0  0
  -52.8255   60.2122   62.9708 C   0  0  0  0  0  0  0  0  0  0  0  0
  -52.0029   60.7338   61.7852 C   0  0  0  0  0  0  0  0  0  0  0  0
  -52.1784   59.8825   60.5250 C   0  0  0  0  0  0  0  0  0  0  0  0
  -51.3498   60.3793   59.3341 C   0  0  0  0  0  0  0  0  0  0  0  0
  -46.2492   64.8778   67.7664 H   0  0  0  0  0  0  0  0  0  0  0  0
  -44.5163   65.0829   67.6511 H   0  0  0  0  0  0  0  0  0  0  0  0
  -45.7863   66.7089   65.0988 H   0  0  0  0  0  0  0  0  0  0  0  0
  -44.6596   64.9852   65.2133 H   0  0  0  0  0  0  0  0  0  0  0  0
  -46.4041   64.7907   65.3329 H   0  0  0  0  0  0  0  0  0  0  0  0
  -46.1042   62.6955   66.5128 H   0  0  0  0  0  0  0  0  0  0  0  0
  -44.3596   62.8911   66.4162 H   0  0  0  0  0  0  0  0  0  0  0  0
  -44.4697   62.7998   63.9915 H   0  0  0  0  0  0  0  0  0  0  0  0
  -46.2118   62.6283   64.0709 H   0  0  0  0  0  0  0  0  0  0  0  0
  -44.2170   60.7008   65.2309 H   0  0  0  0  0  0  0  0  0  0  0  0
  -45.1347   60.4661   63.7483 H   0  0  0  0  0  0  0  0  0  0  0  0
  -47.2024   60.5223   65.0020 H   0  0  0  0  0  0  0  0  0  0  0  0
  -46.2850   60.7734   66.4883 H   0  0  0  0  0  0  0  0  0  0  0  0
  -45.2422   58.6001   66.2331 H   0  0  0  0  0  0  0  0  0  0  0  0
  -46.0923   58.3300   64.7466 H   0  0  0  0  0  0  0  0  0  0  0  0
  -47.3129   58.8400   67.4241 H   0  0  0  0  0  0  0  0  0  0  0  0
  -47.2164   57.2740   66.4873 H   0  0  0  0  0  0  0  0  0  0  0  0
  -49.3680   58.0944   66.6480 H   0  0  0  0  0  0  0  0  0  0  0  0
  -48.6304   58.0595   64.9731 H   0  0  0  0  0  0  0  0  0  0  0  0
  -48.5763   60.3587   64.8849 H   0  0  0  0  0  0  0  0  0  0  0  0
  -49.1972   60.4930   66.5186 H   0  0  0  0  0  0  0  0  0  0  0  0
  -51.2548   59.3842   65.8387 H   0  0  0  0  0  0  0  0  0  0  0  0
  -50.6099   59.2542   64.1903 H   0  0  0  0  0  0  0  0  0  0  0  0
  -50.6116   61.6461   63.9740 H   0  0  0  0  0  0  0  0  0  0  0  0
  -51.2246   61.7997   65.6196 H   0  0  0  0  0  0  0  0  0  0  0  0
  -53.0057   62.0674   63.9915 H   0  0  0  0  0  0  0  0  0  0  0  0
  -53.2134   60.6051   64.9987 H   0  0  0  0  0  0  0  0  0  0  0  0
  -53.8595   60.2034   62.6955 H   0  0  0  0  0  0  0  0  0  0  0  0
  -52.4768   59.2282   63.2053 H   0  0  0  0  0  0  0  0  0  0  0  0
  -50.9684   60.7314   62.0587 H   0  0  0  0  0  0  0  0  0  0  0  0
  -52.3500   61.7205   61.5598 H   0  0  0  0  0  0  0  0  0  0  0  0
  -53.2119   59.8955   60.2481 H   0  0  0  0  0  0  0  0  0  0  0  0
  -51.8349   58.8966   60.7595 H   0  0  0  0  0  0  0  0  0  0  0  0
  -51.6644   61.3667   59.0678 H   0  0  0  0  0  0  0  0  0  0  0  0
  -51.4927   59.7226   58.5014 H   0  0  0  0  0  0  0  0  0  0  0  0
  -50.3140   60.3951   59.6021 H   0  0  0  0  0  0  0  0  0  0  0  0
  1  2  2  0  0  0  0
  1  3  1  0  0  0  0
  1  4  1  0  0  0  0
  3  5  1  0  0  0  0
  3 21  1  0  0  0  0
  3 22  1  0  0  0  0
  4 23  1  0  0  0  0
  5  6  1  0  0  0  0
  5 24  1  0  0  0  0
  5 25  1  0  0  0  0
  6  7  1  0  0  0  0
  6 26  1  0  0  0  0
  6 27  1  0  0  0  0
  7  8  1  0  0  0  0
  7 28  1  0  0  0  0
  7 29  1  0  0  0  0
  8  9  1  0  0  0  0
  8 30  1  0  0  0  0
  8 31  1  0  0  0  0
  9 10  1  0  0  0  0
  9 32  1  0  0  0  0
  9 33  1  0  0  0  0
 10 11  1  0  0  0  0
 10 34  1  0  0  0  0
 10 35  1  0  0  0  0
 11 12  1  0  0  0  0
 11 36  1  0  0  0  0
 11 37  1  0  0  0  0
 12 13  1  0  0  0  0
 12 38  1  0  0  0  0
 12 39  1  0  0  0  0
 13 14  1  0  0  0  0
 13 40  1  0  0  0  0
 13 41  1  0  0  0  0
 14 15  1  0  0  0  0
 14 42  1  0  0  0  0
 14 43  1  0  0  0  0
 15 16  1  0  0  0  0
 15 44  1  0  0  0  0
 15 45  1  0  0  0  0
 16 17  1  0  0  0  0
 16 46  1  0  0  0  0
 16 47  1  0  0  0  0
 17 18  1  0  0  0  0
 17 48  1  0  0  0  0
 17 49  1  0  0  0  0
 18 19  1  0  0  0  0
 18 50  1  0  0  0  0
 18 51  1  0  0  0  0
 19 20  1  0  0  0  0
 19 52  1  0  0  0  0
 19 53  1  0  0  0  0
 20 54  1  0  0  0  0
 20 55  1  0  0  0  0
 20 56  1  0  0  0  0
M  END
$$$$