/media/chris/experiments/cd1a-new-docking/inputs/ligands/4x6d_1_ligand.pdb
 OpenBabel07012320263D

 56 55  0  0  0  0  0  0  0  0999 V2000
  -41.5115   63.0639   66.6202 C   0  0  0  0  0  0  0  0  0  0  0  0
  -40.5384   63.8519   66.5030 O   0  0  0  0  0  0  0  0  0  0  0  0
  -41.2761   61.5670   66.6751 C   0  0  0  0  0  0  0  0  0  0  0  0
  -42.6786   63.5280   66.6958 O   0  0  0  0  0  0  0  0  0  0  0  0
  -41.3201   60.9882   65.2647 C   0  0  0  0  0  0  0  0  0  0  0  0
  -42.6629   61.2566   64.6037 C   0  0  0  0  0  0  0  0  0  0  0  0
  -43.7994   60.6440   65.4104 C   0  0  0  0  0  0  0  0  0  0  0  0
  -45.1351   60.9090   64.7223 C   0  0  0  0  0  0  0  0  0  0  0  0
  -46.2869   60.3217   65.5183 C   0  0  0  0  0  0  0  0  0  0  0  0
  -46.1420   58.8190   65.6970 C   0  0  0  0  0  0  0  0  0  0  0  0
  -47.3380   58.3370   66.4800 C   0  0  0  0  0  0  0  0  0  0  0  0
  -48.6910   58.5200   65.9370 C   0  0  0  0  0  0  0  0  0  0  0  0
  -49.8970   58.0544   66.7220 C   0  0  0  0  0  0  0  0  0  0  0  0
  -49.9684   58.7830   68.0634 C   0  0  0  0  0  0  0  0  0  0  0  0
  -50.0999   60.2968   67.9193 C   0  0  0  0  0  0  0  0  0  0  0  0
  -50.1507   60.9906   69.2832 C   0  0  0  0  0  0  0  0  0  0  0  0
  -50.2999   62.5157   69.2262 C   0  0  0  0  0  0  0  0  0  0  0  0
  -49.1465   63.1823   68.4648 C   0  0  0  0  0  0  0  0  0  0  0  0
  -49.2749   64.7070   68.4157 C   0  0  0  0  0  0  0  0  0  0  0  0
  -50.5665   65.1881   67.7435 C   0  0  0  0  0  0  0  0  0  0  0  0
  -42.0371   61.1089   67.2716 H   0  0  0  0  0  0  0  0  0  0  0  0
  -40.3164   61.3747   67.1076 H   0  0  0  0  0  0  0  0  0  0  0  0
  -43.4088   62.9475   66.7833 H   0  0  0  0  0  0  0  0  0  0  0  0
  -41.1609   59.9313   65.3157 H   0  0  0  0  0  0  0  0  0  0  0  0
  -40.5549   61.4564   64.6814 H   0  0  0  0  0  0  0  0  0  0  0  0
  -42.6613   60.8307   63.6221 H   0  0  0  0  0  0  0  0  0  0  0  0
  -42.8126   62.3148   64.5526 H   0  0  0  0  0  0  0  0  0  0  0  0
  -43.8130   61.0782   66.3883 H   0  0  0  0  0  0  0  0  0  0  0  0
  -43.6469   59.5874   65.4826 H   0  0  0  0  0  0  0  0  0  0  0  0
  -45.1208   60.4649   63.7489 H   0  0  0  0  0  0  0  0  0  0  0  0
  -45.2763   61.9673   64.6512 H   0  0  0  0  0  0  0  0  0  0  0  0
  -47.2024   60.5223   65.0020 H   0  0  0  0  0  0  0  0  0  0  0  0
  -46.2850   60.7734   66.4883 H   0  0  0  0  0  0  0  0  0  0  0  0
  -45.2422   58.6001   66.2331 H   0  0  0  0  0  0  0  0  0  0  0  0
  -46.0923   58.3300   64.7466 H   0  0  0  0  0  0  0  0  0  0  0  0
  -47.3129   58.8400   67.4241 H   0  0  0  0  0  0  0  0  0  0  0  0
  -47.2164   57.2740   66.4873 H   0  0  0  0  0  0  0  0  0  0  0  0
  -48.7179   58.0067   64.9986 H   0  0  0  0  0  0  0  0  0  0  0  0
  -48.8057   59.5838   65.9236 H   0  0  0  0  0  0  0  0  0  0  0  0
  -49.8205   57.0014   66.8956 H   0  0  0  0  0  0  0  0  0  0  0  0
  -50.7824   58.2692   66.1609 H   0  0  0  0  0  0  0  0  0  0  0  0
  -49.0759   58.5701   68.6139 H   0  0  0  0  0  0  0  0  0  0  0  0
  -50.8449   58.4344   68.5684 H   0  0  0  0  0  0  0  0  0  0  0  0
  -50.9995   60.5177   67.3836 H   0  0  0  0  0  0  0  0  0  0  0  0
  -49.2423   60.6586   67.3915 H   0  0  0  0  0  0  0  0  0  0  0  0
  -49.2445   60.7644   69.8051 H   0  0  0  0  0  0  0  0  0  0  0  0
  -51.0262   60.6214   69.7753 H   0  0  0  0  0  0  0  0  0  0  0  0
  -50.3195   62.8977   70.2255 H   0  0  0  0  0  0  0  0  0  0  0  0
  -51.2086   62.7380   68.7068 H   0  0  0  0  0  0  0  0  0  0  0  0
  -49.1357   62.8071   67.4627 H   0  0  0  0  0  0  0  0  0  0  0  0
  -48.2398   62.9505   68.9835 H   0  0  0  0  0  0  0  0  0  0  0  0
  -48.4421   65.1001   67.8708 H   0  0  0  0  0  0  0  0  0  0  0  0
  -49.2968   65.0548   69.4273 H   0  0  0  0  0  0  0  0  0  0  0  0
  -50.5827   64.8590   66.7255 H   0  0  0  0  0  0  0  0  0  0  0  0
  -50.6074   66.2569   67.7735 H   0  0  0  0  0  0  0  0  0  0  0  0
  -51.4105   64.7842   68.2625 H   0  0  0  0  0  0  0  0  0  0  0  0
  1  2  2  0  0  0  0
  1  3  1  0  0  0  0
  1  4  1  0  0  0  0
  3  5  1  0  0  0  0
  3 21  1  0  0  0  0
  3 22  1  0  0  0  0
  4 23  1  0  0  0  0
  5  6  1  0  0  0  0
  5 24  1  0  0  0  0
  5 25  1  0  0  0  0
  6  7  1  0  0  0  0
  6 26  1  0  0  0  0
  6 27  1  0  0  0  0
  7  8  1  0  0  0  0
  7 28  1  0  0  0  0
  7 29  1  0  0  0  0
  8  9  1  0  0  0  0
  8 30  1  0  0  0  0
  8 31  1  0  0  0  0
  9 10  1  0  0  0  0
  9 32  1  0  0  0  0
  9 33  1  0  0  0  0
 10 11  1  0  0  0  0
 10 34  1  0  0  0  0
 10 35  1  0  0  0  0
 11 12  1  0  0  0  0
 11 36  1  0  0  0  0
 11 37  1  0  0  0  0
 12 13  1  0  0  0  0
 12 38  1  0  0  0  0
 12 39  1  0  0  0  0
 13 14  1  0  0  0  0
 13 40  1  0  0  0  0
 13 41  1  0  0  0  0
 14 15  1  0  0  0  0
 14 42  1  0  0  0  0
 14 43  1  0  0  0  0
 15 16  1  0  0  0  0
 15 44  1  0  0  0  0
 15 45  1  0  0  0  0
 16 17  1  0  0  0  0
 16 46  1  0  0  0  0
 16 47  1  0  0  0  0
 17 18  1  0  0  0  0
 17 48  1  0  0  0  0
 17 49  1  0  0  0  0
 18 19  1  0  0  0  0
 18 50  1  0  0  0  0
 18 51  1  0  0  0  0
 19 20  1  0  0  0  0
 19 52  1  0  0  0  0
 19 53  1  0  0  0  0
 20 54  1  0  0  0  0
 20 55  1  0  0  0  0
 20 56  1  0  0  0  0
M  END
$$$$