/media/chris/experiments/cd1a-new-docking/inputs/ligands/4x6d_1_ligand.pdb
 OpenBabel07012320263D

 56 55  0  0  0  0  0  0  0  0999 V2000
  -46.1987   64.1911   63.1662 C   0  0  0  0  0  0  0  0  0  0  0  0
  -46.6757   65.0110   63.9920 O   0  0  0  0  0  0  0  0  0  0  0  0
  -46.1609   62.7120   63.4980 C   0  0  0  0  0  0  0  0  0  0  0  0
  -45.7586   64.6077   62.0636 O   0  0  0  0  0  0  0  0  0  0  0  0
  -46.2796   61.8949   62.2155 C   0  0  0  0  0  0  0  0  0  0  0  0
  -46.2626   60.4037   62.5123 C   0  0  0  0  0  0  0  0  0  0  0  0
  -44.9754   60.0036   63.2198 C   0  0  0  0  0  0  0  0  0  0  0  0
  -44.9702   58.5025   63.4927 C   0  0  0  0  0  0  0  0  0  0  0  0
  -46.1509   58.0994   64.3580 C   0  0  0  0  0  0  0  0  0  0  0  0
  -46.1420   58.8190   65.6970 C   0  0  0  0  0  0  0  0  0  0  0  0
  -47.3380   58.3370   66.4800 C   0  0  0  0  0  0  0  0  0  0  0  0
  -48.6910   58.5200   65.9370 C   0  0  0  0  0  0  0  0  0  0  0  0
  -49.0768   57.8833   64.6205 C   0  0  0  0  0  0  0  0  0  0  0  0
  -50.5214   58.2342   64.2666 C   0  0  0  0  0  0  0  0  0  0  0  0
  -51.5272   57.7724   65.3177 C   0  0  0  0  0  0  0  0  0  0  0  0
  -52.9622   58.1268   64.9187 C   0  0  0  0  0  0  0  0  0  0  0  0
  -53.4423   57.4937   63.6071 C   0  0  0  0  0  0  0  0  0  0  0  0
  -54.8794   57.9032   63.2585 C   0  0  0  0  0  0  0  0  0  0  0  0
  -55.0339   59.4149   63.0732 C   0  0  0  0  0  0  0  0  0  0  0  0
  -54.1699   59.9811   61.9398 C   0  0  0  0  0  0  0  0  0  0  0  0
  -46.9755   62.4726   64.1491 H   0  0  0  0  0  0  0  0  0  0  0  0
  -45.2348   62.4806   63.9814 H   0  0  0  0  0  0  0  0  0  0  0  0
  -45.4016   64.0031   61.4431 H   0  0  0  0  0  0  0  0  0  0  0  0
  -45.4579   62.1326   61.5726 H   0  0  0  0  0  0  0  0  0  0  0  0
  -47.2089   62.1367   61.7436 H   0  0  0  0  0  0  0  0  0  0  0  0
  -46.3390   59.8628   61.5922 H   0  0  0  0  0  0  0  0  0  0  0  0
  -47.0891   60.1736   63.1516 H   0  0  0  0  0  0  0  0  0  0  0  0
  -44.9028   60.5319   64.1474 H   0  0  0  0  0  0  0  0  0  0  0  0
  -44.1423   60.2481   62.5945 H   0  0  0  0  0  0  0  0  0  0  0  0
  -44.0629   58.2422   63.9966 H   0  0  0  0  0  0  0  0  0  0  0  0
  -45.0427   57.9871   62.5578 H   0  0  0  0  0  0  0  0  0  0  0  0
  -46.1087   57.0444   64.5316 H   0  0  0  0  0  0  0  0  0  0  0  0
  -47.0486   58.3689   63.8418 H   0  0  0  0  0  0  0  0  0  0  0  0
  -46.2076   59.8760   65.5439 H   0  0  0  0  0  0  0  0  0  0  0  0
  -45.2364   58.6137   66.2287 H   0  0  0  0  0  0  0  0  0  0  0  0
  -47.3129   58.8400   67.4241 H   0  0  0  0  0  0  0  0  0  0  0  0
  -47.2164   57.2740   66.4873 H   0  0  0  0  0  0  0  0  0  0  0  0
  -48.8369   59.5739   65.8234 H   0  0  0  0  0  0  0  0  0  0  0  0
  -49.3084   58.0076   66.6449 H   0  0  0  0  0  0  0  0  0  0  0  0
  -48.9808   56.8206   64.7005 H   0  0  0  0  0  0  0  0  0  0  0  0
  -48.4300   58.2521   63.8520 H   0  0  0  0  0  0  0  0  0  0  0  0
  -50.7659   57.7690   63.3345 H   0  0  0  0  0  0  0  0  0  0  0  0
  -50.5854   59.3009   64.2123 H   0  0  0  0  0  0  0  0  0  0  0  0
  -51.2986   58.2469   66.2491 H   0  0  0  0  0  0  0  0  0  0  0  0
  -51.4568   56.7082   65.4035 H   0  0  0  0  0  0  0  0  0  0  0  0
  -53.0262   59.1901   64.8175 H   0  0  0  0  0  0  0  0  0  0  0  0
  -53.5934   57.7361   65.6893 H   0  0  0  0  0  0  0  0  0  0  0  0
  -53.4010   56.4288   63.7030 H   0  0  0  0  0  0  0  0  0  0  0  0
  -52.8025   57.8388   62.8219 H   0  0  0  0  0  0  0  0  0  0  0  0
  -55.5270   57.5872   64.0496 H   0  0  0  0  0  0  0  0  0  0  0  0
  -55.1326   57.4360   62.3298 H   0  0  0  0  0  0  0  0  0  0  0  0
  -54.7554   59.8987   63.9861 H   0  0  0  0  0  0  0  0  0  0  0  0
  -56.0555   59.5986   62.8136 H   0  0  0  0  0  0  0  0  0  0  0  0
  -53.1365   59.8164   62.1628 H   0  0  0  0  0  0  0  0  0  0  0  0
  -54.3512   61.0312   61.8436 H   0  0  0  0  0  0  0  0  0  0  0  0
  -54.4193   59.4906   61.0221 H   0  0  0  0  0  0  0  0  0  0  0  0
  1  2  2  0  0  0  0
  1  3  1  0  0  0  0
  1  4  1  0  0  0  0
  3  5  1  0  0  0  0
  3 21  1  0  0  0  0
  3 22  1  0  0  0  0
  4 23  1  0  0  0  0
  5  6  1  0  0  0  0
  5 24  1  0  0  0  0
  5 25  1  0  0  0  0
  6  7  1  0  0  0  0
  6 26  1  0  0  0  0
  6 27  1  0  0  0  0
  7  8  1  0  0  0  0
  7 28  1  0  0  0  0
  7 29  1  0  0  0  0
  8  9  1  0  0  0  0
  8 30  1  0  0  0  0
  8 31  1  0  0  0  0
  9 10  1  0  0  0  0
  9 32  1  0  0  0  0
  9 33  1  0  0  0  0
 10 11  1  0  0  0  0
 10 34  1  0  0  0  0
 10 35  1  0  0  0  0
 11 12  1  0  0  0  0
 11 36  1  0  0  0  0
 11 37  1  0  0  0  0
 12 13  1  0  0  0  0
 12 38  1  0  0  0  0
 12 39  1  0  0  0  0
 13 14  1  0  0  0  0
 13 40  1  0  0  0  0
 13 41  1  0  0  0  0
 14 15  1  0  0  0  0
 14 42  1  0  0  0  0
 14 43  1  0  0  0  0
 15 16  1  0  0  0  0
 15 44  1  0  0  0  0
 15 45  1  0  0  0  0
 16 17  1  0  0  0  0
 16 46  1  0  0  0  0
 16 47  1  0  0  0  0
 17 18  1  0  0  0  0
 17 48  1  0  0  0  0
 17 49  1  0  0  0  0
 18 19  1  0  0  0  0
 18 50  1  0  0  0  0
 18 51  1  0  0  0  0
 19 20  1  0  0  0  0
 19 52  1  0  0  0  0
 19 53  1  0  0  0  0
 20 54  1  0  0  0  0
 20 55  1  0  0  0  0
 20 56  1  0  0  0  0
M  END
$$$$