/media/chris/experiments/cd1a-new-docking/inputs/ligands/4x6d_1_ligand.pdb
 OpenBabel07012320263D

 56 55  0  0  0  0  0  0  0  0999 V2000
  -43.2353   60.0474   61.3064 C   0  0  0  0  0  0  0  0  0  0  0  0
  -42.3723   60.7552   61.8859 O   0  0  0  0  0  0  0  0  0  0  0  0
  -43.2165   58.5399   61.4686 C   0  0  0  0  0  0  0  0  0  0  0  0
  -44.1147   60.6004   60.5965 O   0  0  0  0  0  0  0  0  0  0  0  0
  -42.0605   58.1356   62.3778 C   0  0  0  0  0  0  0  0  0  0  0  0
  -42.2074   58.7541   63.7591 C   0  0  0  0  0  0  0  0  0  0  0  0
  -43.4934   58.2911   64.4294 C   0  0  0  0  0  0  0  0  0  0  0  0
  -43.6307   58.9356   65.8055 C   0  0  0  0  0  0  0  0  0  0  0  0
  -44.8989   58.4750   66.5016 C   0  0  0  0  0  0  0  0  0  0  0  0
  -46.1420   58.8190   65.6970 C   0  0  0  0  0  0  0  0  0  0  0  0
  -47.3380   58.3370   66.4800 C   0  0  0  0  0  0  0  0  0  0  0  0
  -48.6910   58.5200   65.9370 C   0  0  0  0  0  0  0  0  0  0  0  0
  -49.2055   59.9072   65.6232 C   0  0  0  0  0  0  0  0  0  0  0  0
  -50.6357   59.8327   65.0901 C   0  0  0  0  0  0  0  0  0  0  0  0
  -51.2168   61.1986   64.7345 C   0  0  0  0  0  0  0  0  0  0  0  0
  -52.6547   61.0831   64.2213 C   0  0  0  0  0  0  0  0  0  0  0  0
  -53.6493   60.4780   65.2194 C   0  0  0  0  0  0  0  0  0  0  0  0
  -53.7621   61.3120   66.5024 C   0  0  0  0  0  0  0  0  0  0  0  0
  -54.2515   62.7383   66.2381 C   0  0  0  0  0  0  0  0  0  0  0  0
  -54.3539   63.5921   67.5078 C   0  0  0  0  0  0  0  0  0  0  0  0
  -43.0928   58.0805   60.5102 H   0  0  0  0  0  0  0  0  0  0  0  0
  -44.1394   58.2187   61.9044 H   0  0  0  0  0  0  0  0  0  0  0  0
  -44.7611   60.0799   60.1615 H   0  0  0  0  0  0  0  0  0  0  0  0
  -41.1411   58.4674   61.9424 H   0  0  0  0  0  0  0  0  0  0  0  0
  -42.0656   57.0706   62.4803 H   0  0  0  0  0  0  0  0  0  0  0  0
  -42.2256   59.8198   63.6653 H   0  0  0  0  0  0  0  0  0  0  0  0
  -41.3785   58.4453   64.3611 H   0  0  0  0  0  0  0  0  0  0  0  0
  -43.4722   57.2268   64.5379 H   0  0  0  0  0  0  0  0  0  0  0  0
  -44.3268   58.5795   63.8235 H   0  0  0  0  0  0  0  0  0  0  0  0
  -43.6612   59.9991   65.6916 H   0  0  0  0  0  0  0  0  0  0  0  0
  -42.7912   58.6449   66.4019 H   0  0  0  0  0  0  0  0  0  0  0  0
  -44.9621   58.9519   67.4573 H   0  0  0  0  0  0  0  0  0  0  0  0
  -44.8537   57.4109   66.6046 H   0  0  0  0  0  0  0  0  0  0  0  0
  -46.1077   58.3309   64.7454 H   0  0  0  0  0  0  0  0  0  0  0  0
  -46.2020   59.8741   65.5296 H   0  0  0  0  0  0  0  0  0  0  0  0
  -47.3129   58.8400   67.4241 H   0  0  0  0  0  0  0  0  0  0  0  0
  -47.2164   57.2740   66.4873 H   0  0  0  0  0  0  0  0  0  0  0  0
  -49.3680   58.0944   66.6480 H   0  0  0  0  0  0  0  0  0  0  0  0
  -48.6304   58.0595   64.9731 H   0  0  0  0  0  0  0  0  0  0  0  0
  -48.5763   60.3587   64.8849 H   0  0  0  0  0  0  0  0  0  0  0  0
  -49.1972   60.4930   66.5186 H   0  0  0  0  0  0  0  0  0  0  0  0
  -51.2548   59.3842   65.8387 H   0  0  0  0  0  0  0  0  0  0  0  0
  -50.6099   59.2542   64.1903 H   0  0  0  0  0  0  0  0  0  0  0  0
  -50.6116   61.6461   63.9740 H   0  0  0  0  0  0  0  0  0  0  0  0
  -51.2246   61.7997   65.6196 H   0  0  0  0  0  0  0  0  0  0  0  0
  -52.6468   60.4683   63.3456 H   0  0  0  0  0  0  0  0  0  0  0  0
  -52.9878   62.0825   64.0340 H   0  0  0  0  0  0  0  0  0  0  0  0
  -53.3227   59.4921   65.4767 H   0  0  0  0  0  0  0  0  0  0  0  0
  -54.6124   60.4597   64.7535 H   0  0  0  0  0  0  0  0  0  0  0  0
  -52.7984   61.3609   66.9648 H   0  0  0  0  0  0  0  0  0  0  0  0
  -54.4809   60.8355   67.1358 H   0  0  0  0  0  0  0  0  0  0  0  0
  -55.2196   62.6862   65.7854 H   0  0  0  0  0  0  0  0  0  0  0  0
  -53.5313   63.2062   65.6000 H   0  0  0  0  0  0  0  0  0  0  0  0
  -55.0676   63.1554   68.1747 H   0  0  0  0  0  0  0  0  0  0  0  0
  -54.6675   64.5816   67.2479 H   0  0  0  0  0  0  0  0  0  0  0  0
  -53.3980   63.6352   67.9867 H   0  0  0  0  0  0  0  0  0  0  0  0
  1  2  2  0  0  0  0
  1  3  1  0  0  0  0
  1  4  1  0  0  0  0
  3  5  1  0  0  0  0
  3 21  1  0  0  0  0
  3 22  1  0  0  0  0
  4 23  1  0  0  0  0
  5  6  1  0  0  0  0
  5 24  1  0  0  0  0
  5 25  1  0  0  0  0
  6  7  1  0  0  0  0
  6 26  1  0  0  0  0
  6 27  1  0  0  0  0
  7  8  1  0  0  0  0
  7 28  1  0  0  0  0
  7 29  1  0  0  0  0
  8  9  1  0  0  0  0
  8 30  1  0  0  0  0
  8 31  1  0  0  0  0
  9 10  1  0  0  0  0
  9 32  1  0  0  0  0
  9 33  1  0  0  0  0
 10 11  1  0  0  0  0
 10 34  1  0  0  0  0
 10 35  1  0  0  0  0
 11 12  1  0  0  0  0
 11 36  1  0  0  0  0
 11 37  1  0  0  0  0
 12 13  1  0  0  0  0
 12 38  1  0  0  0  0
 12 39  1  0  0  0  0
 13 14  1  0  0  0  0
 13 40  1  0  0  0  0
 13 41  1  0  0  0  0
 14 15  1  0  0  0  0
 14 42  1  0  0  0  0
 14 43  1  0  0  0  0
 15 16  1  0  0  0  0
 15 44  1  0  0  0  0
 15 45  1  0  0  0  0
 16 17  1  0  0  0  0
 16 46  1  0  0  0  0
 16 47  1  0  0  0  0
 17 18  1  0  0  0  0
 17 48  1  0  0  0  0
 17 49  1  0  0  0  0
 18 19  1  0  0  0  0
 18 50  1  0  0  0  0
 18 51  1  0  0  0  0
 19 20  1  0  0  0  0
 19 52  1  0  0  0  0
 19 53  1  0  0  0  0
 20 54  1  0  0  0  0
 20 55  1  0  0  0  0
 20 56  1  0  0  0  0
M  END
$$$$