/media/chris/experiments/cd1a-new-docking/inputs/ligands/4x6d_1_ligand.pdb
 OpenBabel07012320263D

 56 55  0  0  0  0  0  0  0  0999 V2000
  -42.6827   57.1961   57.7649 C   0  0  0  0  0  0  0  0  0  0  0  0
  -41.7689   57.3714   56.9187 O   0  0  0  0  0  0  0  0  0  0  0  0
  -42.6160   57.8901   59.1114 C   0  0  0  0  0  0  0  0  0  0  0  0
  -43.6523   56.4455   57.4829 O   0  0  0  0  0  0  0  0  0  0  0  0
  -43.8274   57.4987   59.9514 C   0  0  0  0  0  0  0  0  0  0  0  0
  -43.8027   58.1910   61.3050 C   0  0  0  0  0  0  0  0  0  0  0  0
  -45.0041   57.7845   62.1469 C   0  0  0  0  0  0  0  0  0  0  0  0
  -44.9702   58.5025   63.4927 C   0  0  0  0  0  0  0  0  0  0  0  0
  -46.1509   58.0994   64.3580 C   0  0  0  0  0  0  0  0  0  0  0  0
  -46.1420   58.8190   65.6970 C   0  0  0  0  0  0  0  0  0  0  0  0
  -47.3380   58.3370   66.4800 C   0  0  0  0  0  0  0  0  0  0  0  0
  -48.6910   58.5200   65.9370 C   0  0  0  0  0  0  0  0  0  0  0  0
  -49.0768   57.8833   64.6205 C   0  0  0  0  0  0  0  0  0  0  0  0
  -50.5214   58.2342   64.2666 C   0  0  0  0  0  0  0  0  0  0  0  0
  -50.7548   59.7345   64.1102 C   0  0  0  0  0  0  0  0  0  0  0  0
  -49.8946   60.3249   62.9897 C   0  0  0  0  0  0  0  0  0  0  0  0
  -50.1557   59.7369   61.5977 C   0  0  0  0  0  0  0  0  0  0  0  0
  -49.2499   60.3594   60.5270 C   0  0  0  0  0  0  0  0  0  0  0  0
  -47.7623   60.1283   60.8053 C   0  0  0  0  0  0  0  0  0  0  0  0
  -46.8409   60.7585   59.7539 C   0  0  0  0  0  0  0  0  0  0  0  0
  -42.6117   58.9501   58.9655 H   0  0  0  0  0  0  0  0  0  0  0  0
  -41.7219   57.5939   59.6191 H   0  0  0  0  0  0  0  0  0  0  0  0
  -44.3370   56.3098   58.1080 H   0  0  0  0  0  0  0  0  0  0  0  0
  -43.8214   56.4392   60.1008 H   0  0  0  0  0  0  0  0  0  0  0  0
  -44.7128   57.8005   59.4317 H   0  0  0  0  0  0  0  0  0  0  0  0
  -43.8216   59.2505   61.1566 H   0  0  0  0  0  0  0  0  0  0  0  0
  -42.9110   57.9009   61.8203 H   0  0  0  0  0  0  0  0  0  0  0  0
  -44.9805   56.7272   62.3094 H   0  0  0  0  0  0  0  0  0  0  0  0
  -45.9010   58.0542   61.6293 H   0  0  0  0  0  0  0  0  0  0  0  0
  -45.0038   59.5589   63.3261 H   0  0  0  0  0  0  0  0  0  0  0  0
  -44.0685   58.2299   64.0003 H   0  0  0  0  0  0  0  0  0  0  0  0
  -46.1087   57.0444   64.5316 H   0  0  0  0  0  0  0  0  0  0  0  0
  -47.0486   58.3689   63.8418 H   0  0  0  0  0  0  0  0  0  0  0  0
  -46.2076   59.8760   65.5439 H   0  0  0  0  0  0  0  0  0  0  0  0
  -45.2364   58.6137   66.2287 H   0  0  0  0  0  0  0  0  0  0  0  0
  -47.3129   58.8400   67.4241 H   0  0  0  0  0  0  0  0  0  0  0  0
  -47.2164   57.2740   66.4873 H   0  0  0  0  0  0  0  0  0  0  0  0
  -48.8369   59.5739   65.8234 H   0  0  0  0  0  0  0  0  0  0  0  0
  -49.3084   58.0076   66.6449 H   0  0  0  0  0  0  0  0  0  0  0  0
  -48.9808   56.8206   64.7005 H   0  0  0  0  0  0  0  0  0  0  0  0
  -48.4300   58.2521   63.8520 H   0  0  0  0  0  0  0  0  0  0  0  0
  -51.1601   57.8699   65.0440 H   0  0  0  0  0  0  0  0  0  0  0  0
  -50.7372   57.7788   63.3227 H   0  0  0  0  0  0  0  0  0  0  0  0
  -50.5088   60.2219   65.0304 H   0  0  0  0  0  0  0  0  0  0  0  0
  -51.7834   59.8888   63.8591 H   0  0  0  0  0  0  0  0  0  0  0  0
  -48.8670   60.1550   63.2349 H   0  0  0  0  0  0  0  0  0  0  0  0
  -50.1498   61.3623   62.9302 H   0  0  0  0  0  0  0  0  0  0  0  0
  -51.1766   59.9178   61.3331 H   0  0  0  0  0  0  0  0  0  0  0  0
  -49.9441   58.6889   61.6385 H   0  0  0  0  0  0  0  0  0  0  0  0
  -49.4324   61.4132   60.4945 H   0  0  0  0  0  0  0  0  0  0  0  0
  -49.4813   59.8890   59.5942 H   0  0  0  0  0  0  0  0  0  0  0  0
  -47.5811   59.0739   60.8267 H   0  0  0  0  0  0  0  0  0  0  0  0
  -47.5398   60.5960   61.7415 H   0  0  0  0  0  0  0  0  0  0  0  0
  -47.0335   60.3154   58.7992 H   0  0  0  0  0  0  0  0  0  0  0  0
  -45.8202   60.5888   60.0265 H   0  0  0  0  0  0  0  0  0  0  0  0
  -47.0260   61.8112   59.7025 H   0  0  0  0  0  0  0  0  0  0  0  0
  1  2  2  0  0  0  0
  1  3  1  0  0  0  0
  1  4  1  0  0  0  0
  3  5  1  0  0  0  0
  3 21  1  0  0  0  0
  3 22  1  0  0  0  0
  4 23  1  0  0  0  0
  5  6  1  0  0  0  0
  5 24  1  0  0  0  0
  5 25  1  0  0  0  0
  6  7  1  0  0  0  0
  6 26  1  0  0  0  0
  6 27  1  0  0  0  0
  7  8  1  0  0  0  0
  7 28  1  0  0  0  0
  7 29  1  0  0  0  0
  8  9  1  0  0  0  0
  8 30  1  0  0  0  0
  8 31  1  0  0  0  0
  9 10  1  0  0  0  0
  9 32  1  0  0  0  0
  9 33  1  0  0  0  0
 10 11  1  0  0  0  0
 10 34  1  0  0  0  0
 10 35  1  0  0  0  0
 11 12  1  0  0  0  0
 11 36  1  0  0  0  0
 11 37  1  0  0  0  0
 12 13  1  0  0  0  0
 12 38  1  0  0  0  0
 12 39  1  0  0  0  0
 13 14  1  0  0  0  0
 13 40  1  0  0  0  0
 13 41  1  0  0  0  0
 14 15  1  0  0  0  0
 14 42  1  0  0  0  0
 14 43  1  0  0  0  0
 15 16  1  0  0  0  0
 15 44  1  0  0  0  0
 15 45  1  0  0  0  0
 16 17  1  0  0  0  0
 16 46  1  0  0  0  0
 16 47  1  0  0  0  0
 17 18  1  0  0  0  0
 17 48  1  0  0  0  0
 17 49  1  0  0  0  0
 18 19  1  0  0  0  0
 18 50  1  0  0  0  0
 18 51  1  0  0  0  0
 19 20  1  0  0  0  0
 19 52  1  0  0  0  0
 19 53  1  0  0  0  0
 20 54  1  0  0  0  0
 20 55  1  0  0  0  0
 20 56  1  0  0  0  0
M  END
$$$$