/media/chris/experiments/cd1a-new-docking/inputs/ligands/4x6d_1_ligand.pdb
 OpenBabel07012320263D

 56 55  0  0  0  0  0  0  0  0999 V2000
  -42.2081   58.9030   66.5185 C   0  0  0  0  0  0  0  0  0  0  0  0
  -42.3194   59.5460   65.4434 O   0  0  0  0  0  0  0  0  0  0  0  0
  -42.3082   59.6227   67.8493 C   0  0  0  0  0  0  0  0  0  0  0  0
  -42.0181   57.6598   66.4798 O   0  0  0  0  0  0  0  0  0  0  0  0
  -42.5440   61.1108   67.6119 C   0  0  0  0  0  0  0  0  0  0  0  0
  -43.8404   61.3460   66.8529 C   0  0  0  0  0  0  0  0  0  0  0  0
  -45.0340   60.8182   67.6366 C   0  0  0  0  0  0  0  0  0  0  0  0
  -46.3218   61.0478   66.8512 C   0  0  0  0  0  0  0  0  0  0  0  0
  -46.2869   60.3217   65.5183 C   0  0  0  0  0  0  0  0  0  0  0  0
  -46.1420   58.8190   65.6970 C   0  0  0  0  0  0  0  0  0  0  0  0
  -47.3380   58.3370   66.4800 C   0  0  0  0  0  0  0  0  0  0  0  0
  -48.6910   58.5200   65.9370 C   0  0  0  0  0  0  0  0  0  0  0  0
  -49.0768   57.8833   64.6205 C   0  0  0  0  0  0  0  0  0  0  0  0
  -48.9503   56.3630   64.7112 C   0  0  0  0  0  0  0  0  0  0  0  0
  -49.3083   55.6511   63.4094 C   0  0  0  0  0  0  0  0  0  0  0  0
  -48.3898   56.0793   62.2618 C   0  0  0  0  0  0  0  0  0  0  0  0
  -46.9018   55.7796   62.4800 C   0  0  0  0  0  0  0  0  0  0  0  0
  -46.6326   54.2788   62.6518 C   0  0  0  0  0  0  0  0  0  0  0  0
  -47.0478   53.4606   61.4263 C   0  0  0  0  0  0  0  0  0  0  0  0
  -46.3008   53.8577   60.1473 C   0  0  0  0  0  0  0  0  0  0  0  0
  -41.3976   59.4895   68.3952 H   0  0  0  0  0  0  0  0  0  0  0  0
  -43.1253   59.2193   68.4101 H   0  0  0  0  0  0  0  0  0  0  0  0
  -41.9342   57.1737   67.2764 H   0  0  0  0  0  0  0  0  0  0  0  0
  -41.7292   61.5072   67.0429 H   0  0  0  0  0  0  0  0  0  0  0  0
  -42.6129   61.5994   68.5613 H   0  0  0  0  0  0  0  0  0  0  0  0
  -43.7904   60.8425   65.9101 H   0  0  0  0  0  0  0  0  0  0  0  0
  -43.9653   62.3989   66.7090 H   0  0  0  0  0  0  0  0  0  0  0  0
  -45.0957   61.3299   68.5743 H   0  0  0  0  0  0  0  0  0  0  0  0
  -44.9075   59.7686   67.8014 H   0  0  0  0  0  0  0  0  0  0  0  0
  -46.4412   62.0964   66.6748 H   0  0  0  0  0  0  0  0  0  0  0  0
  -47.1414   60.6668   67.4241 H   0  0  0  0  0  0  0  0  0  0  0  0
  -45.4571   60.6841   64.9482 H   0  0  0  0  0  0  0  0  0  0  0  0
  -47.2116   60.5087   65.0136 H   0  0  0  0  0  0  0  0  0  0  0  0
  -45.2422   58.6001   66.2331 H   0  0  0  0  0  0  0  0  0  0  0  0
  -46.0923   58.3300   64.7466 H   0  0  0  0  0  0  0  0  0  0  0  0
  -47.3129   58.8400   67.4241 H   0  0  0  0  0  0  0  0  0  0  0  0
  -47.2164   57.2740   66.4873 H   0  0  0  0  0  0  0  0  0  0  0  0
  -48.8369   59.5739   65.8234 H   0  0  0  0  0  0  0  0  0  0  0  0
  -49.3084   58.0076   66.6449 H   0  0  0  0  0  0  0  0  0  0  0  0
  -48.4296   58.2462   63.8495 H   0  0  0  0  0  0  0  0  0  0  0  0
  -50.0918   58.1359   64.3951 H   0  0  0  0  0  0  0  0  0  0  0  0
  -49.6051   56.0127   65.4816 H   0  0  0  0  0  0  0  0  0  0  0  0
  -47.9253   56.1413   64.9233 H   0  0  0  0  0  0  0  0  0  0  0  0
  -50.3196   55.8870   63.1513 H   0  0  0  0  0  0  0  0  0  0  0  0
  -49.1879   54.5985   63.5595 H   0  0  0  0  0  0  0  0  0  0  0  0
  -48.4996   57.1347   62.1242 H   0  0  0  0  0  0  0  0  0  0  0  0
  -48.6892   55.5077   61.4083 H   0  0  0  0  0  0  0  0  0  0  0  0
  -46.5724   56.2918   63.3598 H   0  0  0  0  0  0  0  0  0  0  0  0
  -46.3690   56.1121   61.6137 H   0  0  0  0  0  0  0  0  0  0  0  0
  -47.1817   53.9273   63.5002 H   0  0  0  0  0  0  0  0  0  0  0  0
  -45.5783   54.1523   62.7831 H   0  0  0  0  0  0  0  0  0  0  0  0
  -48.0961   53.6008   61.2642 H   0  0  0  0  0  0  0  0  0  0  0  0
  -46.8031   52.4392   61.6308 H   0  0  0  0  0  0  0  0  0  0  0  0
  -46.5203   54.8773   59.9080 H   0  0  0  0  0  0  0  0  0  0  0  0
  -46.6132   53.2270   59.3414 H   0  0  0  0  0  0  0  0  0  0  0  0
  -45.2476   53.7460   60.3000 H   0  0  0  0  0  0  0  0  0  0  0  0
  1  2  2  0  0  0  0
  1  3  1  0  0  0  0
  1  4  1  0  0  0  0
  3  5  1  0  0  0  0
  3 21  1  0  0  0  0
  3 22  1  0  0  0  0
  4 23  1  0  0  0  0
  5  6  1  0  0  0  0
  5 24  1  0  0  0  0
  5 25  1  0  0  0  0
  6  7  1  0  0  0  0
  6 26  1  0  0  0  0
  6 27  1  0  0  0  0
  7  8  1  0  0  0  0
  7 28  1  0  0  0  0
  7 29  1  0  0  0  0
  8  9  1  0  0  0  0
  8 30  1  0  0  0  0
  8 31  1  0  0  0  0
  9 10  1  0  0  0  0
  9 32  1  0  0  0  0
  9 33  1  0  0  0  0
 10 11  1  0  0  0  0
 10 34  1  0  0  0  0
 10 35  1  0  0  0  0
 11 12  1  0  0  0  0
 11 36  1  0  0  0  0
 11 37  1  0  0  0  0
 12 13  1  0  0  0  0
 12 38  1  0  0  0  0
 12 39  1  0  0  0  0
 13 14  1  0  0  0  0
 13 40  1  0  0  0  0
 13 41  1  0  0  0  0
 14 15  1  0  0  0  0
 14 42  1  0  0  0  0
 14 43  1  0  0  0  0
 15 16  1  0  0  0  0
 15 44  1  0  0  0  0
 15 45  1  0  0  0  0
 16 17  1  0  0  0  0
 16 46  1  0  0  0  0
 16 47  1  0  0  0  0
 17 18  1  0  0  0  0
 17 48  1  0  0  0  0
 17 49  1  0  0  0  0
 18 19  1  0  0  0  0
 18 50  1  0  0  0  0
 18 51  1  0  0  0  0
 19 20  1  0  0  0  0
 19 52  1  0  0  0  0
 19 53  1  0  0  0  0
 20 54  1  0  0  0  0
 20 55  1  0  0  0  0
 20 56  1  0  0  0  0
M  END
$$$$