/media/chris/experiments/cd1a-new-docking/inputs/ligands/4x6d_1_ligand.pdb
 OpenBabel07012320263D

 56 55  0  0  0  0  0  0  0  0999 V2000
  -41.0184   59.4272   68.6222 C   0  0  0  0  0  0  0  0  0  0  0  0
  -40.3294   60.4228   68.9622 O   0  0  0  0  0  0  0  0  0  0  0  0
  -42.3082   59.6227   67.8493 C   0  0  0  0  0  0  0  0  0  0  0  0
  -40.6264   58.2704   68.9243 O   0  0  0  0  0  0  0  0  0  0  0  0
  -42.5440   61.1108   67.6119 C   0  0  0  0  0  0  0  0  0  0  0  0
  -43.8404   61.3460   66.8529 C   0  0  0  0  0  0  0  0  0  0  0  0
  -45.0340   60.8182   67.6366 C   0  0  0  0  0  0  0  0  0  0  0  0
  -46.3218   61.0478   66.8512 C   0  0  0  0  0  0  0  0  0  0  0  0
  -46.2869   60.3217   65.5183 C   0  0  0  0  0  0  0  0  0  0  0  0
  -46.1420   58.8190   65.6970 C   0  0  0  0  0  0  0  0  0  0  0  0
  -47.3380   58.3370   66.4800 C   0  0  0  0  0  0  0  0  0  0  0  0
  -48.6910   58.5200   65.9370 C   0  0  0  0  0  0  0  0  0  0  0  0
  -49.8970   58.0544   66.7220 C   0  0  0  0  0  0  0  0  0  0  0  0
  -49.9684   58.7830   68.0634 C   0  0  0  0  0  0  0  0  0  0  0  0
  -50.0999   60.2968   67.9193 C   0  0  0  0  0  0  0  0  0  0  0  0
  -51.3756   60.6824   67.1656 C   0  0  0  0  0  0  0  0  0  0  0  0
  -52.6807   60.2341   67.8344 C   0  0  0  0  0  0  0  0  0  0  0  0
  -52.8559   60.8462   69.2305 C   0  0  0  0  0  0  0  0  0  0  0  0
  -52.9056   62.3761   69.2021 C   0  0  0  0  0  0  0  0  0  0  0  0
  -54.0688   62.9324   68.3720 C   0  0  0  0  0  0  0  0  0  0  0  0
  -43.1243   59.2183   68.4110 H   0  0  0  0  0  0  0  0  0  0  0  0
  -42.2368   59.1203   66.9073 H   0  0  0  0  0  0  0  0  0  0  0  0
  -41.1341   57.5235   68.6745 H   0  0  0  0  0  0  0  0  0  0  0  0
  -41.7292   61.5072   67.0429 H   0  0  0  0  0  0  0  0  0  0  0  0
  -42.6129   61.5994   68.5613 H   0  0  0  0  0  0  0  0  0  0  0  0
  -43.7904   60.8425   65.9101 H   0  0  0  0  0  0  0  0  0  0  0  0
  -43.9653   62.3989   66.7090 H   0  0  0  0  0  0  0  0  0  0  0  0
  -45.0957   61.3299   68.5743 H   0  0  0  0  0  0  0  0  0  0  0  0
  -44.9075   59.7686   67.8014 H   0  0  0  0  0  0  0  0  0  0  0  0
  -46.4412   62.0964   66.6748 H   0  0  0  0  0  0  0  0  0  0  0  0
  -47.1414   60.6668   67.4241 H   0  0  0  0  0  0  0  0  0  0  0  0
  -45.4571   60.6841   64.9482 H   0  0  0  0  0  0  0  0  0  0  0  0
  -47.2116   60.5087   65.0136 H   0  0  0  0  0  0  0  0  0  0  0  0
  -45.2422   58.6001   66.2331 H   0  0  0  0  0  0  0  0  0  0  0  0
  -46.0923   58.3300   64.7466 H   0  0  0  0  0  0  0  0  0  0  0  0
  -47.3129   58.8400   67.4241 H   0  0  0  0  0  0  0  0  0  0  0  0
  -47.2164   57.2740   66.4873 H   0  0  0  0  0  0  0  0  0  0  0  0
  -48.7179   58.0067   64.9986 H   0  0  0  0  0  0  0  0  0  0  0  0
  -48.8057   59.5838   65.9236 H   0  0  0  0  0  0  0  0  0  0  0  0
  -49.8205   57.0014   66.8956 H   0  0  0  0  0  0  0  0  0  0  0  0
  -50.7824   58.2692   66.1609 H   0  0  0  0  0  0  0  0  0  0  0  0
  -49.0759   58.5701   68.6139 H   0  0  0  0  0  0  0  0  0  0  0  0
  -50.8449   58.4344   68.5684 H   0  0  0  0  0  0  0  0  0  0  0  0
  -49.2530   60.6694   67.3818 H   0  0  0  0  0  0  0  0  0  0  0  0
  -50.1483   60.7234   68.8993 H   0  0  0  0  0  0  0  0  0  0  0  0
  -51.3326   60.2413   66.1917 H   0  0  0  0  0  0  0  0  0  0  0  0
  -51.4007   61.7519   67.1452 H   0  0  0  0  0  0  0  0  0  0  0  0
  -52.6735   59.1679   67.9240 H   0  0  0  0  0  0  0  0  0  0  0  0
  -53.4941   60.5679   67.2246 H   0  0  0  0  0  0  0  0  0  0  0  0
  -52.0336   60.5417   69.8436 H   0  0  0  0  0  0  0  0  0  0  0  0
  -53.7899   60.4995   69.6208 H   0  0  0  0  0  0  0  0  0  0  0  0
  -51.9885   62.7375   68.7860 H   0  0  0  0  0  0  0  0  0  0  0  0
  -53.0504   62.7061   70.2096 H   0  0  0  0  0  0  0  0  0  0  0  0
  -53.9600   62.6230   67.3535 H   0  0  0  0  0  0  0  0  0  0  0  0
  -54.0639   64.0012   68.4225 H   0  0  0  0  0  0  0  0  0  0  0  0
  -54.9940   62.5611   68.7606 H   0  0  0  0  0  0  0  0  0  0  0  0
  1  2  2  0  0  0  0
  1  3  1  0  0  0  0
  1  4  1  0  0  0  0
  3  5  1  0  0  0  0
  3 21  1  0  0  0  0
  3 22  1  0  0  0  0
  4 23  1  0  0  0  0
  5  6  1  0  0  0  0
  5 24  1  0  0  0  0
  5 25  1  0  0  0  0
  6  7  1  0  0  0  0
  6 26  1  0  0  0  0
  6 27  1  0  0  0  0
  7  8  1  0  0  0  0
  7 28  1  0  0  0  0
  7 29  1  0  0  0  0
  8  9  1  0  0  0  0
  8 30  1  0  0  0  0
  8 31  1  0  0  0  0
  9 10  1  0  0  0  0
  9 32  1  0  0  0  0
  9 33  1  0  0  0  0
 10 11  1  0  0  0  0
 10 34  1  0  0  0  0
 10 35  1  0  0  0  0
 11 12  1  0  0  0  0
 11 36  1  0  0  0  0
 11 37  1  0  0  0  0
 12 13  1  0  0  0  0
 12 38  1  0  0  0  0
 12 39  1  0  0  0  0
 13 14  1  0  0  0  0
 13 40  1  0  0  0  0
 13 41  1  0  0  0  0
 14 15  1  0  0  0  0
 14 42  1  0  0  0  0
 14 43  1  0  0  0  0
 15 16  1  0  0  0  0
 15 44  1  0  0  0  0
 15 45  1  0  0  0  0
 16 17  1  0  0  0  0
 16 46  1  0  0  0  0
 16 47  1  0  0  0  0
 17 18  1  0  0  0  0
 17 48  1  0  0  0  0
 17 49  1  0  0  0  0
 18 19  1  0  0  0  0
 18 50  1  0  0  0  0
 18 51  1  0  0  0  0
 19 20  1  0  0  0  0
 19 52  1  0  0  0  0
 19 53  1  0  0  0  0
 20 54  1  0  0  0  0
 20 55  1  0  0  0  0
 20 56  1  0  0  0  0
M  END
$$$$