/media/chris/experiments/cd1a-new-docking/inputs/ligands/4x6d_1_ligand.pdb
 OpenBabel07012320263D

 56 55  0  0  0  0  0  0  0  0999 V2000
  -44.8993   64.6172   65.8199 C   0  0  0  0  0  0  0  0  0  0  0  0
  -45.8448   65.3175   66.2639 O   0  0  0  0  0  0  0  0  0  0  0  0
  -44.9258   63.1102   65.9855 C   0  0  0  0  0  0  0  0  0  0  0  0
  -43.9362   65.1765   65.2345 O   0  0  0  0  0  0  0  0  0  0  0  0
  -43.7113   62.6607   66.7913 C   0  0  0  0  0  0  0  0  0  0  0  0
  -43.6958   61.1499   66.9627 C   0  0  0  0  0  0  0  0  0  0  0  0
  -43.6277   60.4492   65.6129 C   0  0  0  0  0  0  0  0  0  0  0  0
  -43.6307   58.9356   65.8055 C   0  0  0  0  0  0  0  0  0  0  0  0
  -44.8989   58.4750   66.5016 C   0  0  0  0  0  0  0  0  0  0  0  0
  -46.1420   58.8190   65.6970 C   0  0  0  0  0  0  0  0  0  0  0  0
  -47.3380   58.3370   66.4800 C   0  0  0  0  0  0  0  0  0  0  0  0
  -48.6910   58.5200   65.9370 C   0  0  0  0  0  0  0  0  0  0  0  0
  -49.0768   57.8833   64.6205 C   0  0  0  0  0  0  0  0  0  0  0  0
  -48.9503   56.3630   64.7112 C   0  0  0  0  0  0  0  0  0  0  0  0
  -49.3083   55.6511   63.4094 C   0  0  0  0  0  0  0  0  0  0  0  0
  -49.1860   54.1311   63.5462 C   0  0  0  0  0  0  0  0  0  0  0  0
  -47.7899   53.6283   63.9331 C   0  0  0  0  0  0  0  0  0  0  0  0
  -47.7334   52.0983   64.0359 C   0  0  0  0  0  0  0  0  0  0  0  0
  -46.3486   51.5846   64.4386 C   0  0  0  0  0  0  0  0  0  0  0  0
  -46.2689   50.0559   64.5296 C   0  0  0  0  0  0  0  0  0  0  0  0
  -44.9049   62.6459   65.0216 H   0  0  0  0  0  0  0  0  0  0  0  0
  -45.8188   62.8258   66.5017 H   0  0  0  0  0  0  0  0  0  0  0  0
  -43.2280   64.6616   64.9008 H   0  0  0  0  0  0  0  0  0  0  0  0
  -43.7425   63.1215   67.7565 H   0  0  0  0  0  0  0  0  0  0  0  0
  -42.8271   62.9517   66.2637 H   0  0  0  0  0  0  0  0  0  0  0  0
  -44.5873   60.8460   67.4702 H   0  0  0  0  0  0  0  0  0  0  0  0
  -42.8305   60.8799   67.5313 H   0  0  0  0  0  0  0  0  0  0  0  0
  -42.7298   60.7397   65.1085 H   0  0  0  0  0  0  0  0  0  0  0  0
  -44.4803   60.7292   65.0303 H   0  0  0  0  0  0  0  0  0  0  0  0
  -42.7853   58.6574   66.3995 H   0  0  0  0  0  0  0  0  0  0  0  0
  -43.5837   58.4708   64.8428 H   0  0  0  0  0  0  0  0  0  0  0  0
  -44.9621   58.9519   67.4573 H   0  0  0  0  0  0  0  0  0  0  0  0
  -44.8537   57.4109   66.6046 H   0  0  0  0  0  0  0  0  0  0  0  0
  -46.1077   58.3309   64.7454 H   0  0  0  0  0  0  0  0  0  0  0  0
  -46.2020   59.8741   65.5296 H   0  0  0  0  0  0  0  0  0  0  0  0
  -47.3129   58.8400   67.4241 H   0  0  0  0  0  0  0  0  0  0  0  0
  -47.2164   57.2740   66.4873 H   0  0  0  0  0  0  0  0  0  0  0  0
  -48.8369   59.5739   65.8234 H   0  0  0  0  0  0  0  0  0  0  0  0
  -49.3084   58.0076   66.6449 H   0  0  0  0  0  0  0  0  0  0  0  0
  -48.4296   58.2462   63.8495 H   0  0  0  0  0  0  0  0  0  0  0  0
  -50.0918   58.1359   64.3951 H   0  0  0  0  0  0  0  0  0  0  0  0
  -49.6051   56.0127   65.4816 H   0  0  0  0  0  0  0  0  0  0  0  0
  -47.9253   56.1413   64.9233 H   0  0  0  0  0  0  0  0  0  0  0  0
  -48.6463   55.9847   62.6378 H   0  0  0  0  0  0  0  0  0  0  0  0
  -50.3244   55.8847   63.1686 H   0  0  0  0  0  0  0  0  0  0  0  0
  -49.4497   53.6905   62.6075 H   0  0  0  0  0  0  0  0  0  0  0  0
  -49.8391   53.8480   64.3451 H   0  0  0  0  0  0  0  0  0  0  0  0
  -47.5229   54.0475   64.8807 H   0  0  0  0  0  0  0  0  0  0  0  0
  -47.1072   53.9317   63.1671 H   0  0  0  0  0  0  0  0  0  0  0  0
  -47.9899   51.6815   63.0845 H   0  0  0  0  0  0  0  0  0  0  0  0
  -48.4232   51.7997   64.7974 H   0  0  0  0  0  0  0  0  0  0  0  0
  -46.0996   51.9948   65.3949 H   0  0  0  0  0  0  0  0  0  0  0  0
  -45.6638   51.8918   63.6760 H   0  0  0  0  0  0  0  0  0  0  0  0
  -46.9424   49.7080   65.2848 H   0  0  0  0  0  0  0  0  0  0  0  0
  -45.2703   49.7651   64.7809 H   0  0  0  0  0  0  0  0  0  0  0  0
  -46.5385   49.6279   63.5867 H   0  0  0  0  0  0  0  0  0  0  0  0
  1  2  2  0  0  0  0
  1  3  1  0  0  0  0
  1  4  1  0  0  0  0
  3  5  1  0  0  0  0
  3 21  1  0  0  0  0
  3 22  1  0  0  0  0
  4 23  1  0  0  0  0
  5  6  1  0  0  0  0
  5 24  1  0  0  0  0
  5 25  1  0  0  0  0
  6  7  1  0  0  0  0
  6 26  1  0  0  0  0
  6 27  1  0  0  0  0
  7  8  1  0  0  0  0
  7 28  1  0  0  0  0
  7 29  1  0  0  0  0
  8  9  1  0  0  0  0
  8 30  1  0  0  0  0
  8 31  1  0  0  0  0
  9 10  1  0  0  0  0
  9 32  1  0  0  0  0
  9 33  1  0  0  0  0
 10 11  1  0  0  0  0
 10 34  1  0  0  0  0
 10 35  1  0  0  0  0
 11 12  1  0  0  0  0
 11 36  1  0  0  0  0
 11 37  1  0  0  0  0
 12 13  1  0  0  0  0
 12 38  1  0  0  0  0
 12 39  1  0  0  0  0
 13 14  1  0  0  0  0
 13 40  1  0  0  0  0
 13 41  1  0  0  0  0
 14 15  1  0  0  0  0
 14 42  1  0  0  0  0
 14 43  1  0  0  0  0
 15 16  1  0  0  0  0
 15 44  1  0  0  0  0
 15 45  1  0  0  0  0
 16 17  1  0  0  0  0
 16 46  1  0  0  0  0
 16 47  1  0  0  0  0
 17 18  1  0  0  0  0
 17 48  1  0  0  0  0
 17 49  1  0  0  0  0
 18 19  1  0  0  0  0
 18 50  1  0  0  0  0
 18 51  1  0  0  0  0
 19 20  1  0  0  0  0
 19 52  1  0  0  0  0
 19 53  1  0  0  0  0
 20 54  1  0  0  0  0
 20 55  1  0  0  0  0
 20 56  1  0  0  0  0
M  END
$$$$