/media/chris/experiments/cd1a-new-docking/inputs/ligands/4x6d_1_ligand.pdb
 OpenBabel07012320263D

 56 55  0  0  0  0  0  0  0  0999 V2000
  -41.8931   55.8763   61.1675 C   0  0  0  0  0  0  0  0  0  0  0  0
  -40.8843   56.0827   60.4454 O   0  0  0  0  0  0  0  0  0  0  0  0
  -42.0047   56.5398   62.5264 C   0  0  0  0  0  0  0  0  0  0  0  0
  -42.8084   55.1199   60.7513 O   0  0  0  0  0  0  0  0  0  0  0  0
  -43.3046   56.1136   63.2007 C   0  0  0  0  0  0  0  0  0  0  0  0
  -43.4587   56.7749   64.5613 C   0  0  0  0  0  0  0  0  0  0  0  0
  -43.4934   58.2911   64.4294 C   0  0  0  0  0  0  0  0  0  0  0  0
  -43.6307   58.9356   65.8055 C   0  0  0  0  0  0  0  0  0  0  0  0
  -44.8989   58.4750   66.5016 C   0  0  0  0  0  0  0  0  0  0  0  0
  -46.1420   58.8190   65.6970 C   0  0  0  0  0  0  0  0  0  0  0  0
  -47.3380   58.3370   66.4800 C   0  0  0  0  0  0  0  0  0  0  0  0
  -48.6910   58.5200   65.9370 C   0  0  0  0  0  0  0  0  0  0  0  0
  -49.8970   58.0544   66.7220 C   0  0  0  0  0  0  0  0  0  0  0  0
  -49.9684   58.7830   68.0634 C   0  0  0  0  0  0  0  0  0  0  0  0
  -50.0999   60.2968   67.9193 C   0  0  0  0  0  0  0  0  0  0  0  0
  -51.3756   60.6824   67.1656 C   0  0  0  0  0  0  0  0  0  0  0  0
  -52.6807   60.2341   67.8344 C   0  0  0  0  0  0  0  0  0  0  0  0
  -52.8559   60.8462   69.2305 C   0  0  0  0  0  0  0  0  0  0  0  0
  -54.1473   60.3926   69.9160 C   0  0  0  0  0  0  0  0  0  0  0  0
  -54.2223   58.8761   70.1313 C   0  0  0  0  0  0  0  0  0  0  0  0
  -41.9988   57.6029   62.4047 H   0  0  0  0  0  0  0  0  0  0  0  0
  -41.1759   56.2435   63.1348 H   0  0  0  0  0  0  0  0  0  0  0  0
  -43.5631   54.9611   61.2834 H   0  0  0  0  0  0  0  0  0  0  0  0
  -43.3006   55.0511   63.3272 H   0  0  0  0  0  0  0  0  0  0  0  0
  -44.1233   56.4160   62.5816 H   0  0  0  0  0  0  0  0  0  0  0  0
  -42.6324   56.4963   65.1815 H   0  0  0  0  0  0  0  0  0  0  0  0
  -44.3802   56.4491   64.9967 H   0  0  0  0  0  0  0  0  0  0  0  0
  -44.3272   58.5742   63.8215 H   0  0  0  0  0  0  0  0  0  0  0  0
  -42.5825   58.6236   63.9769 H   0  0  0  0  0  0  0  0  0  0  0  0
  -43.6612   59.9991   65.6916 H   0  0  0  0  0  0  0  0  0  0  0  0
  -42.7912   58.6449   66.4019 H   0  0  0  0  0  0  0  0  0  0  0  0
  -44.9621   58.9519   67.4573 H   0  0  0  0  0  0  0  0  0  0  0  0
  -44.8537   57.4109   66.6046 H   0  0  0  0  0  0  0  0  0  0  0  0
  -46.1077   58.3309   64.7454 H   0  0  0  0  0  0  0  0  0  0  0  0
  -46.2020   59.8741   65.5296 H   0  0  0  0  0  0  0  0  0  0  0  0
  -47.3129   58.8400   67.4241 H   0  0  0  0  0  0  0  0  0  0  0  0
  -47.2164   57.2740   66.4873 H   0  0  0  0  0  0  0  0  0  0  0  0
  -48.7179   58.0067   64.9986 H   0  0  0  0  0  0  0  0  0  0  0  0
  -48.8057   59.5838   65.9236 H   0  0  0  0  0  0  0  0  0  0  0  0
  -49.8205   57.0014   66.8956 H   0  0  0  0  0  0  0  0  0  0  0  0
  -50.7824   58.2692   66.1609 H   0  0  0  0  0  0  0  0  0  0  0  0
  -49.0759   58.5701   68.6139 H   0  0  0  0  0  0  0  0  0  0  0  0
  -50.8449   58.4344   68.5684 H   0  0  0  0  0  0  0  0  0  0  0  0
  -49.2530   60.6694   67.3818 H   0  0  0  0  0  0  0  0  0  0  0  0
  -50.1483   60.7234   68.8993 H   0  0  0  0  0  0  0  0  0  0  0  0
  -51.3326   60.2413   66.1917 H   0  0  0  0  0  0  0  0  0  0  0  0
  -51.4007   61.7519   67.1452 H   0  0  0  0  0  0  0  0  0  0  0  0
  -52.6735   59.1679   67.9240 H   0  0  0  0  0  0  0  0  0  0  0  0
  -53.4941   60.5679   67.2246 H   0  0  0  0  0  0  0  0  0  0  0  0
  -52.8739   61.9120   69.1372 H   0  0  0  0  0  0  0  0  0  0  0  0
  -52.0362   60.5159   69.8337 H   0  0  0  0  0  0  0  0  0  0  0  0
  -54.9764   60.6903   69.3087 H   0  0  0  0  0  0  0  0  0  0  0  0
  -54.1693   60.8503   70.8829 H   0  0  0  0  0  0  0  0  0  0  0  0
  -54.2029   58.3799   69.1835 H   0  0  0  0  0  0  0  0  0  0  0  0
  -55.1302   58.6329   70.6426 H   0  0  0  0  0  0  0  0  0  0  0  0
  -53.3862   58.5574   70.7180 H   0  0  0  0  0  0  0  0  0  0  0  0
  1  2  2  0  0  0  0
  1  3  1  0  0  0  0
  1  4  1  0  0  0  0
  3  5  1  0  0  0  0
  3 21  1  0  0  0  0
  3 22  1  0  0  0  0
  4 23  1  0  0  0  0
  5  6  1  0  0  0  0
  5 24  1  0  0  0  0
  5 25  1  0  0  0  0
  6  7  1  0  0  0  0
  6 26  1  0  0  0  0
  6 27  1  0  0  0  0
  7  8  1  0  0  0  0
  7 28  1  0  0  0  0
  7 29  1  0  0  0  0
  8  9  1  0  0  0  0
  8 30  1  0  0  0  0
  8 31  1  0  0  0  0
  9 10  1  0  0  0  0
  9 32  1  0  0  0  0
  9 33  1  0  0  0  0
 10 11  1  0  0  0  0
 10 34  1  0  0  0  0
 10 35  1  0  0  0  0
 11 12  1  0  0  0  0
 11 36  1  0  0  0  0
 11 37  1  0  0  0  0
 12 13  1  0  0  0  0
 12 38  1  0  0  0  0
 12 39  1  0  0  0  0
 13 14  1  0  0  0  0
 13 40  1  0  0  0  0
 13 41  1  0  0  0  0
 14 15  1  0  0  0  0
 14 42  1  0  0  0  0
 14 43  1  0  0  0  0
 15 16  1  0  0  0  0
 15 44  1  0  0  0  0
 15 45  1  0  0  0  0
 16 17  1  0  0  0  0
 16 46  1  0  0  0  0
 16 47  1  0  0  0  0
 17 18  1  0  0  0  0
 17 48  1  0  0  0  0
 17 49  1  0  0  0  0
 18 19  1  0  0  0  0
 18 50  1  0  0  0  0
 18 51  1  0  0  0  0
 19 20  1  0  0  0  0
 19 52  1  0  0  0  0
 19 53  1  0  0  0  0
 20 54  1  0  0  0  0
 20 55  1  0  0  0  0
 20 56  1  0  0  0  0
M  END
$$$$