/media/chris/experiments/cd1a-new-docking/inputs/ligands/4x6d_1_ligand.pdb
 OpenBabel07012320263D

 56 55  0  0  0  0  0  0  0  0999 V2000
  -45.6402   66.7659   67.0003 C   0  0  0  0  0  0  0  0  0  0  0  0
  -45.6494   67.5186   68.0077 O   0  0  0  0  0  0  0  0  0  0  0  0
  -45.4530   65.2708   67.1693 C   0  0  0  0  0  0  0  0  0  0  0  0
  -45.7920   67.2630   65.8544 O   0  0  0  0  0  0  0  0  0  0  0  0
  -45.4628   64.5943   65.8023 C   0  0  0  0  0  0  0  0  0  0  0  0
  -45.2944   63.0888   65.9345 C   0  0  0  0  0  0  0  0  0  0  0  0
  -45.2873   62.4192   64.5674 C   0  0  0  0  0  0  0  0  0  0  0  0
  -45.1351   60.9090   64.7223 C   0  0  0  0  0  0  0  0  0  0  0  0
  -46.2869   60.3217   65.5183 C   0  0  0  0  0  0  0  0  0  0  0  0
  -46.1420   58.8190   65.6970 C   0  0  0  0  0  0  0  0  0  0  0  0
  -47.3380   58.3370   66.4800 C   0  0  0  0  0  0  0  0  0  0  0  0
  -48.6910   58.5200   65.9370 C   0  0  0  0  0  0  0  0  0  0  0  0
  -49.0768   57.8833   64.6205 C   0  0  0  0  0  0  0  0  0  0  0  0
  -50.5214   58.2342   64.2666 C   0  0  0  0  0  0  0  0  0  0  0  0
  -50.9877   57.6100   62.9541 C   0  0  0  0  0  0  0  0  0  0  0  0
  -52.4319   57.9988   62.6267 C   0  0  0  0  0  0  0  0  0  0  0  0
  -53.4659   57.5871   63.6817 C   0  0  0  0  0  0  0  0  0  0  0  0
  -53.4868   56.0700   63.9108 C   0  0  0  0  0  0  0  0  0  0  0  0
  -52.1440   55.5299   64.4096 C   0  0  0  0  0  0  0  0  0  0  0  0
  -52.1412   54.0120   64.6278 C   0  0  0  0  0  0  0  0  0  0  0  0
  -46.2492   64.8778   67.7664 H   0  0  0  0  0  0  0  0  0  0  0  0
  -44.5163   65.0829   67.6511 H   0  0  0  0  0  0  0  0  0  0  0  0
  -45.7863   66.7089   65.0988 H   0  0  0  0  0  0  0  0  0  0  0  0
  -44.6596   64.9852   65.2133 H   0  0  0  0  0  0  0  0  0  0  0  0
  -46.4041   64.7907   65.3329 H   0  0  0  0  0  0  0  0  0  0  0  0
  -46.1042   62.6955   66.5128 H   0  0  0  0  0  0  0  0  0  0  0  0
  -44.3596   62.8911   66.4162 H   0  0  0  0  0  0  0  0  0  0  0  0
  -44.4697   62.7998   63.9915 H   0  0  0  0  0  0  0  0  0  0  0  0
  -46.2118   62.6283   64.0709 H   0  0  0  0  0  0  0  0  0  0  0  0
  -44.2170   60.7008   65.2309 H   0  0  0  0  0  0  0  0  0  0  0  0
  -45.1347   60.4661   63.7483 H   0  0  0  0  0  0  0  0  0  0  0  0
  -47.2024   60.5223   65.0020 H   0  0  0  0  0  0  0  0  0  0  0  0
  -46.2850   60.7734   66.4883 H   0  0  0  0  0  0  0  0  0  0  0  0
  -45.2422   58.6001   66.2331 H   0  0  0  0  0  0  0  0  0  0  0  0
  -46.0923   58.3300   64.7466 H   0  0  0  0  0  0  0  0  0  0  0  0
  -47.3129   58.8400   67.4241 H   0  0  0  0  0  0  0  0  0  0  0  0
  -47.2164   57.2740   66.4873 H   0  0  0  0  0  0  0  0  0  0  0  0
  -48.8369   59.5739   65.8234 H   0  0  0  0  0  0  0  0  0  0  0  0
  -49.3084   58.0076   66.6449 H   0  0  0  0  0  0  0  0  0  0  0  0
  -48.9808   56.8206   64.7005 H   0  0  0  0  0  0  0  0  0  0  0  0
  -48.4300   58.2521   63.8520 H   0  0  0  0  0  0  0  0  0  0  0  0
  -50.6028   59.2980   64.1850 H   0  0  0  0  0  0  0  0  0  0  0  0
  -51.1435   57.8419   65.0438 H   0  0  0  0  0  0  0  0  0  0  0  0
  -50.9245   56.5449   63.0344 H   0  0  0  0  0  0  0  0  0  0  0  0
  -50.3574   57.9720   62.1688 H   0  0  0  0  0  0  0  0  0  0  0  0
  -52.6993   57.5349   61.7004 H   0  0  0  0  0  0  0  0  0  0  0  0
  -52.4533   59.0678   62.5866 H   0  0  0  0  0  0  0  0  0  0  0  0
  -54.4355   57.8996   63.3543 H   0  0  0  0  0  0  0  0  0  0  0  0
  -53.1974   58.0554   64.6055 H   0  0  0  0  0  0  0  0  0  0  0  0
  -53.7280   55.5874   62.9868 H   0  0  0  0  0  0  0  0  0  0  0  0
  -54.2175   55.8669   64.6656 H   0  0  0  0  0  0  0  0  0  0  0  0
  -51.9107   56.0066   65.3387 H   0  0  0  0  0  0  0  0  0  0  0  0
  -51.4177   55.7416   63.6529 H   0  0  0  0  0  0  0  0  0  0  0  0
  -52.8578   53.7587   65.3809 H   0  0  0  0  0  0  0  0  0  0  0  0
  -51.1676   53.6987   64.9421 H   0  0  0  0  0  0  0  0  0  0  0  0
  -52.3963   53.5197   63.7127 H   0  0  0  0  0  0  0  0  0  0  0  0
  1  2  2  0  0  0  0
  1  3  1  0  0  0  0
  1  4  1  0  0  0  0
  3  5  1  0  0  0  0
  3 21  1  0  0  0  0
  3 22  1  0  0  0  0
  4 23  1  0  0  0  0
  5  6  1  0  0  0  0
  5 24  1  0  0  0  0
  5 25  1  0  0  0  0
  6  7  1  0  0  0  0
  6 26  1  0  0  0  0
  6 27  1  0  0  0  0
  7  8  1  0  0  0  0
  7 28  1  0  0  0  0
  7 29  1  0  0  0  0
  8  9  1  0  0  0  0
  8 30  1  0  0  0  0
  8 31  1  0  0  0  0
  9 10  1  0  0  0  0
  9 32  1  0  0  0  0
  9 33  1  0  0  0  0
 10 11  1  0  0  0  0
 10 34  1  0  0  0  0
 10 35  1  0  0  0  0
 11 12  1  0  0  0  0
 11 36  1  0  0  0  0
 11 37  1  0  0  0  0
 12 13  1  0  0  0  0
 12 38  1  0  0  0  0
 12 39  1  0  0  0  0
 13 14  1  0  0  0  0
 13 40  1  0  0  0  0
 13 41  1  0  0  0  0
 14 15  1  0  0  0  0
 14 42  1  0  0  0  0
 14 43  1  0  0  0  0
 15 16  1  0  0  0  0
 15 44  1  0  0  0  0
 15 45  1  0  0  0  0
 16 17  1  0  0  0  0
 16 46  1  0  0  0  0
 16 47  1  0  0  0  0
 17 18  1  0  0  0  0
 17 48  1  0  0  0  0
 17 49  1  0  0  0  0
 18 19  1  0  0  0  0
 18 50  1  0  0  0  0
 18 51  1  0  0  0  0
 19 20  1  0  0  0  0
 19 52  1  0  0  0  0
 19 53  1  0  0  0  0
 20 54  1  0  0  0  0
 20 55  1  0  0  0  0
 20 56  1  0  0  0  0
M  END
$$$$