/media/chris/experiments/cd1a-new-docking/inputs/ligands/4x6d_1_ligand.pdb
 OpenBabel07012320263D

 56 55  0  0  0  0  0  0  0  0999 V2000
  -46.4359   64.7327   68.2696 C   0  0  0  0  0  0  0  0  0  0  0  0
  -47.4286   65.2982   67.7439 O   0  0  0  0  0  0  0  0  0  0  0  0
  -46.3813   63.2200   68.3596 C   0  0  0  0  0  0  0  0  0  0  0  0
  -45.4889   65.4314   68.7147 O   0  0  0  0  0  0  0  0  0  0  0  0
  -45.0903   62.7929   69.0504 C   0  0  0  0  0  0  0  0  0  0  0  0
  -44.9933   61.2783   69.1428 C   0  0  0  0  0  0  0  0  0  0  0  0
  -44.9957   60.6466   67.7577 C   0  0  0  0  0  0  0  0  0  0  0  0
  -44.9155   59.1273   67.8725 C   0  0  0  0  0  0  0  0  0  0  0  0
  -44.8989   58.4750   66.5016 C   0  0  0  0  0  0  0  0  0  0  0  0
  -46.1420   58.8190   65.6970 C   0  0  0  0  0  0  0  0  0  0  0  0
  -47.3380   58.3370   66.4800 C   0  0  0  0  0  0  0  0  0  0  0  0
  -48.6910   58.5200   65.9370 C   0  0  0  0  0  0  0  0  0  0  0  0
  -49.2055   59.9072   65.6232 C   0  0  0  0  0  0  0  0  0  0  0  0
  -48.3233   60.5721   64.5673 C   0  0  0  0  0  0  0  0  0  0  0  0
  -48.7733   61.9865   64.2115 C   0  0  0  0  0  0  0  0  0  0  0  0
  -47.8759   62.6107   63.1396 C   0  0  0  0  0  0  0  0  0  0  0  0
  -47.8464   61.8576   61.8041 C   0  0  0  0  0  0  0  0  0  0  0  0
  -49.2331   61.7814   61.1516 C   0  0  0  0  0  0  0  0  0  0  0  0
  -49.2201   61.0167   59.8254 C   0  0  0  0  0  0  0  0  0  0  0  0
  -48.7634   59.5597   59.9670 C   0  0  0  0  0  0  0  0  0  0  0  0
  -46.4123   62.8037   67.3744 H   0  0  0  0  0  0  0  0  0  0  0  0
  -47.2190   62.8680   68.9246 H   0  0  0  0  0  0  0  0  0  0  0  0
  -44.7458   65.0176   69.1078 H   0  0  0  0  0  0  0  0  0  0  0  0
  -45.0693   63.2052   70.0375 H   0  0  0  0  0  0  0  0  0  0  0  0
  -44.2626   63.1517   68.4749 H   0  0  0  0  0  0  0  0  0  0  0  0
  -45.8293   60.9072   69.6982 H   0  0  0  0  0  0  0  0  0  0  0  0
  -44.0763   61.0243   69.6321 H   0  0  0  0  0  0  0  0  0  0  0  0
  -44.1526   61.0045   67.2044 H   0  0  0  0  0  0  0  0  0  0  0  0
  -45.9018   60.9118   67.2541 H   0  0  0  0  0  0  0  0  0  0  0  0
  -45.7651   58.7728   68.4178 H   0  0  0  0  0  0  0  0  0  0  0  0
  -44.0090   58.8726   68.3807 H   0  0  0  0  0  0  0  0  0  0  0  0
  -44.8486   57.4132   66.6239 H   0  0  0  0  0  0  0  0  0  0  0  0
  -44.0464   58.8419   65.9692 H   0  0  0  0  0  0  0  0  0  0  0  0
  -46.1077   58.3309   64.7454 H   0  0  0  0  0  0  0  0  0  0  0  0
  -46.2020   59.8741   65.5296 H   0  0  0  0  0  0  0  0  0  0  0  0
  -47.3129   58.8400   67.4241 H   0  0  0  0  0  0  0  0  0  0  0  0
  -47.2164   57.2740   66.4873 H   0  0  0  0  0  0  0  0  0  0  0  0
  -49.3680   58.0944   66.6480 H   0  0  0  0  0  0  0  0  0  0  0  0
  -48.6304   58.0595   64.9731 H   0  0  0  0  0  0  0  0  0  0  0  0
  -49.1949   60.4980   66.5153 H   0  0  0  0  0  0  0  0  0  0  0  0
  -50.2040   59.8318   65.2462 H   0  0  0  0  0  0  0  0  0  0  0  0
  -48.3461   59.9747   63.6799 H   0  0  0  0  0  0  0  0  0  0  0  0
  -47.3375   60.6457   64.9770 H   0  0  0  0  0  0  0  0  0  0  0  0
  -48.7372   62.5941   65.0916 H   0  0  0  0  0  0  0  0  0  0  0  0
  -49.7695   61.9334   63.8246 H   0  0  0  0  0  0  0  0  0  0  0  0
  -46.8774   62.6479   63.5224 H   0  0  0  0  0  0  0  0  0  0  0  0
  -48.2854   63.5769   62.9305 H   0  0  0  0  0  0  0  0  0  0  0  0
  -47.4917   60.8630   61.9770 H   0  0  0  0  0  0  0  0  0  0  0  0
  -47.1994   62.3915   61.1399 H   0  0  0  0  0  0  0  0  0  0  0  0
  -49.5810   62.7767   60.9696 H   0  0  0  0  0  0  0  0  0  0  0  0
  -49.8779   61.2537   61.8229 H   0  0  0  0  0  0  0  0  0  0  0  0
  -48.5555   61.5166   59.1522 H   0  0  0  0  0  0  0  0  0  0  0  0
  -50.2262   60.9985   59.4615 H   0  0  0  0  0  0  0  0  0  0  0  0
  -47.7572   59.5350   60.3303 H   0  0  0  0  0  0  0  0  0  0  0  0
  -48.8102   59.0769   59.0132 H   0  0  0  0  0  0  0  0  0  0  0  0
  -49.4041   59.0504   60.6563 H   0  0  0  0  0  0  0  0  0  0  0  0
  1  2  2  0  0  0  0
  1  3  1  0  0  0  0
  1  4  1  0  0  0  0
  3  5  1  0  0  0  0
  3 21  1  0  0  0  0
  3 22  1  0  0  0  0
  4 23  1  0  0  0  0
  5  6  1  0  0  0  0
  5 24  1  0  0  0  0
  5 25  1  0  0  0  0
  6  7  1  0  0  0  0
  6 26  1  0  0  0  0
  6 27  1  0  0  0  0
  7  8  1  0  0  0  0
  7 28  1  0  0  0  0
  7 29  1  0  0  0  0
  8  9  1  0  0  0  0
  8 30  1  0  0  0  0
  8 31  1  0  0  0  0
  9 10  1  0  0  0  0
  9 32  1  0  0  0  0
  9 33  1  0  0  0  0
 10 11  1  0  0  0  0
 10 34  1  0  0  0  0
 10 35  1  0  0  0  0
 11 12  1  0  0  0  0
 11 36  1  0  0  0  0
 11 37  1  0  0  0  0
 12 13  1  0  0  0  0
 12 38  1  0  0  0  0
 12 39  1  0  0  0  0
 13 14  1  0  0  0  0
 13 40  1  0  0  0  0
 13 41  1  0  0  0  0
 14 15  1  0  0  0  0
 14 42  1  0  0  0  0
 14 43  1  0  0  0  0
 15 16  1  0  0  0  0
 15 44  1  0  0  0  0
 15 45  1  0  0  0  0
 16 17  1  0  0  0  0
 16 46  1  0  0  0  0
 16 47  1  0  0  0  0
 17 18  1  0  0  0  0
 17 48  1  0  0  0  0
 17 49  1  0  0  0  0
 18 19  1  0  0  0  0
 18 50  1  0  0  0  0
 18 51  1  0  0  0  0
 19 20  1  0  0  0  0
 19 52  1  0  0  0  0
 19 53  1  0  0  0  0
 20 54  1  0  0  0  0
 20 55  1  0  0  0  0
 20 56  1  0  0  0  0
M  END
$$$$