/media/chris/experiments/cd1a-new-docking/inputs/ligands/4x6d_1_ligand.pdb
 OpenBabel07012320263D

 56 55  0  0  0  0  0  0  0  0999 V2000
  -47.2745   59.0511   70.9366 C   0  0  0  0  0  0  0  0  0  0  0  0
  -48.1857   59.8523   71.2673 O   0  0  0  0  0  0  0  0  0  0  0  0
  -46.0977   59.5355   70.1121 C   0  0  0  0  0  0  0  0  0  0  0  0
  -47.3457   57.8483   71.2990 O   0  0  0  0  0  0  0  0  0  0  0  0
  -46.2557   61.0235   69.8165 C   0  0  0  0  0  0  0  0  0  0  0  0
  -45.0998   61.5408   68.9749 C   0  0  0  0  0  0  0  0  0  0  0  0
  -45.0340   60.8182   67.6366 C   0  0  0  0  0  0  0  0  0  0  0  0
  -46.3218   61.0478   66.8512 C   0  0  0  0  0  0  0  0  0  0  0  0
  -46.2869   60.3217   65.5183 C   0  0  0  0  0  0  0  0  0  0  0  0
  -46.1420   58.8190   65.6970 C   0  0  0  0  0  0  0  0  0  0  0  0
  -47.3380   58.3370   66.4800 C   0  0  0  0  0  0  0  0  0  0  0  0
  -48.6910   58.5200   65.9370 C   0  0  0  0  0  0  0  0  0  0  0  0
  -49.8970   58.0544   66.7220 C   0  0  0  0  0  0  0  0  0  0  0  0
  -49.8087   56.5516   66.9851 C   0  0  0  0  0  0  0  0  0  0  0  0
  -48.5795   56.1547   67.7983 C   0  0  0  0  0  0  0  0  0  0  0  0
  -48.5762   56.8215   69.1765 C   0  0  0  0  0  0  0  0  0  0  0  0
  -49.7719   56.4658   70.0683 C   0  0  0  0  0  0  0  0  0  0  0  0
  -49.8453   54.9623   70.3659 C   0  0  0  0  0  0  0  0  0  0  0  0
  -48.6068   54.4452   71.1025 C   0  0  0  0  0  0  0  0  0  0  0  0
  -48.3857   55.1130   72.4652 C   0  0  0  0  0  0  0  0  0  0  0  0
  -46.0607   58.9918   69.1912 H   0  0  0  0  0  0  0  0  0  0  0  0
  -45.1921   59.3769   70.6594 H   0  0  0  0  0  0  0  0  0  0  0  0
  -46.6708   57.2452   71.0566 H   0  0  0  0  0  0  0  0  0  0  0  0
  -46.2836   61.5622   70.7406 H   0  0  0  0  0  0  0  0  0  0  0  0
  -47.1644   61.1665   69.2699 H   0  0  0  0  0  0  0  0  0  0  0  0
  -44.1832   61.3822   69.5037 H   0  0  0  0  0  0  0  0  0  0  0  0
  -45.2509   62.5842   68.7922 H   0  0  0  0  0  0  0  0  0  0  0  0
  -44.9058   59.7697   67.8068 H   0  0  0  0  0  0  0  0  0  0  0  0
  -44.2083   61.2000   67.0733 H   0  0  0  0  0  0  0  0  0  0  0  0
  -46.4412   62.0964   66.6748 H   0  0  0  0  0  0  0  0  0  0  0  0
  -47.1414   60.6668   67.4241 H   0  0  0  0  0  0  0  0  0  0  0  0
  -45.4571   60.6841   64.9482 H   0  0  0  0  0  0  0  0  0  0  0  0
  -47.2116   60.5087   65.0136 H   0  0  0  0  0  0  0  0  0  0  0  0
  -45.2422   58.6001   66.2331 H   0  0  0  0  0  0  0  0  0  0  0  0
  -46.0923   58.3300   64.7466 H   0  0  0  0  0  0  0  0  0  0  0  0
  -47.3129   58.8400   67.4241 H   0  0  0  0  0  0  0  0  0  0  0  0
  -47.2164   57.2740   66.4873 H   0  0  0  0  0  0  0  0  0  0  0  0
  -48.7179   58.0067   64.9986 H   0  0  0  0  0  0  0  0  0  0  0  0
  -48.8057   59.5838   65.9236 H   0  0  0  0  0  0  0  0  0  0  0  0
  -50.7849   58.2635   66.1626 H   0  0  0  0  0  0  0  0  0  0  0  0
  -49.9244   58.5714   67.6584 H   0  0  0  0  0  0  0  0  0  0  0  0
  -49.7728   56.0431   66.0443 H   0  0  0  0  0  0  0  0  0  0  0  0
  -50.6704   56.2778   67.5573 H   0  0  0  0  0  0  0  0  0  0  0  0
  -47.7002   56.4526   67.2663 H   0  0  0  0  0  0  0  0  0  0  0  0
  -48.5998   55.0943   67.9396 H   0  0  0  0  0  0  0  0  0  0  0  0
  -48.5723   57.8818   69.0329 H   0  0  0  0  0  0  0  0  0  0  0  0
  -47.7058   56.4597   69.6829 H   0  0  0  0  0  0  0  0  0  0  0  0
  -50.6722   56.7634   69.5726 H   0  0  0  0  0  0  0  0  0  0  0  0
  -49.6520   56.9797   70.9992 H   0  0  0  0  0  0  0  0  0  0  0  0
  -49.9383   54.4341   69.4400 H   0  0  0  0  0  0  0  0  0  0  0  0
  -50.6909   54.7991   71.0009 H   0  0  0  0  0  0  0  0  0  0  0  0
  -47.7477   54.6285   70.4916 H   0  0  0  0  0  0  0  0  0  0  0  0
  -48.7595   53.4017   71.2831 H   0  0  0  0  0  0  0  0  0  0  0  0
  -48.2286   56.1623   72.3269 H   0  0  0  0  0  0  0  0  0  0  0  0
  -47.5275   54.6831   72.9379 H   0  0  0  0  0  0  0  0  0  0  0  0
  -49.2468   54.9594   73.0815 H   0  0  0  0  0  0  0  0  0  0  0  0
  1  2  2  0  0  0  0
  1  3  1  0  0  0  0
  1  4  1  0  0  0  0
  3  5  1  0  0  0  0
  3 21  1  0  0  0  0
  3 22  1  0  0  0  0
  4 23  1  0  0  0  0
  5  6  1  0  0  0  0
  5 24  1  0  0  0  0
  5 25  1  0  0  0  0
  6  7  1  0  0  0  0
  6 26  1  0  0  0  0
  6 27  1  0  0  0  0
  7  8  1  0  0  0  0
  7 28  1  0  0  0  0
  7 29  1  0  0  0  0
  8  9  1  0  0  0  0
  8 30  1  0  0  0  0
  8 31  1  0  0  0  0
  9 10  1  0  0  0  0
  9 32  1  0  0  0  0
  9 33  1  0  0  0  0
 10 11  1  0  0  0  0
 10 34  1  0  0  0  0
 10 35  1  0  0  0  0
 11 12  1  0  0  0  0
 11 36  1  0  0  0  0
 11 37  1  0  0  0  0
 12 13  1  0  0  0  0
 12 38  1  0  0  0  0
 12 39  1  0  0  0  0
 13 14  1  0  0  0  0
 13 40  1  0  0  0  0
 13 41  1  0  0  0  0
 14 15  1  0  0  0  0
 14 42  1  0  0  0  0
 14 43  1  0  0  0  0
 15 16  1  0  0  0  0
 15 44  1  0  0  0  0
 15 45  1  0  0  0  0
 16 17  1  0  0  0  0
 16 46  1  0  0  0  0
 16 47  1  0  0  0  0
 17 18  1  0  0  0  0
 17 48  1  0  0  0  0
 17 49  1  0  0  0  0
 18 19  1  0  0  0  0
 18 50  1  0  0  0  0
 18 51  1  0  0  0  0
 19 20  1  0  0  0  0
 19 52  1  0  0  0  0
 19 53  1  0  0  0  0
 20 54  1  0  0  0  0
 20 55  1  0  0  0  0
 20 56  1  0  0  0  0
M  END
$$$$