/media/chris/experiments/cd1a-new-docking/inputs/ligands/4x6d_1_ligand.pdb
 OpenBabel07012320263D

 56 55  0  0  0  0  0  0  0  0999 V2000
  -42.7555   63.3829   68.7019 C   0  0  0  0  0  0  0  0  0  0  0  0
  -42.6021   63.9220   69.8277 O   0  0  0  0  0  0  0  0  0  0  0  0
  -44.0305   63.6147   67.9147 C   0  0  0  0  0  0  0  0  0  0  0  0
  -41.8419   62.6552   68.2341 O   0  0  0  0  0  0  0  0  0  0  0  0
  -43.9717   62.8400   66.6021 C   0  0  0  0  0  0  0  0  0  0  0  0
  -43.8404   61.3460   66.8529 C   0  0  0  0  0  0  0  0  0  0  0  0
  -45.0340   60.8182   67.6366 C   0  0  0  0  0  0  0  0  0  0  0  0
  -46.3218   61.0478   66.8512 C   0  0  0  0  0  0  0  0  0  0  0  0
  -46.2869   60.3217   65.5183 C   0  0  0  0  0  0  0  0  0  0  0  0
  -46.1420   58.8190   65.6970 C   0  0  0  0  0  0  0  0  0  0  0  0
  -47.3380   58.3370   66.4800 C   0  0  0  0  0  0  0  0  0  0  0  0
  -48.6910   58.5200   65.9370 C   0  0  0  0  0  0  0  0  0  0  0  0
  -49.8970   58.0544   66.7220 C   0  0  0  0  0  0  0  0  0  0  0  0
  -51.1790   58.3402   65.9408 C   0  0  0  0  0  0  0  0  0  0  0  0
  -52.4428   57.9111   66.6813 C   0  0  0  0  0  0  0  0  0  0  0  0
  -52.4335   56.4116   66.9900 C   0  0  0  0  0  0  0  0  0  0  0  0
  -53.6793   55.8953   67.7200 C   0  0  0  0  0  0  0  0  0  0  0  0
  -53.5970   54.3913   68.0131 C   0  0  0  0  0  0  0  0  0  0  0  0
  -54.8429   53.8600   68.7266 C   0  0  0  0  0  0  0  0  0  0  0  0
  -55.1125   54.5445   70.0722 C   0  0  0  0  0  0  0  0  0  0  0  0
  -44.1355   64.6591   67.7070 H   0  0  0  0  0  0  0  0  0  0  0  0
  -44.8680   63.2768   68.4886 H   0  0  0  0  0  0  0  0  0  0  0  0
  -41.9486   62.2500   67.3960 H   0  0  0  0  0  0  0  0  0  0  0  0
  -43.1274   63.1748   66.0365 H   0  0  0  0  0  0  0  0  0  0  0  0
  -44.8793   63.0155   66.0633 H   0  0  0  0  0  0  0  0  0  0  0  0
  -42.9462   61.1620   67.4109 H   0  0  0  0  0  0  0  0  0  0  0  0
  -43.8029   60.8436   65.9089 H   0  0  0  0  0  0  0  0  0  0  0  0
  -45.0957   61.3299   68.5743 H   0  0  0  0  0  0  0  0  0  0  0  0
  -44.9075   59.7686   67.8014 H   0  0  0  0  0  0  0  0  0  0  0  0
  -46.4412   62.0964   66.6748 H   0  0  0  0  0  0  0  0  0  0  0  0
  -47.1414   60.6668   67.4241 H   0  0  0  0  0  0  0  0  0  0  0  0
  -45.4571   60.6841   64.9482 H   0  0  0  0  0  0  0  0  0  0  0  0
  -47.2116   60.5087   65.0136 H   0  0  0  0  0  0  0  0  0  0  0  0
  -45.2422   58.6001   66.2331 H   0  0  0  0  0  0  0  0  0  0  0  0
  -46.0923   58.3300   64.7466 H   0  0  0  0  0  0  0  0  0  0  0  0
  -47.3129   58.8400   67.4241 H   0  0  0  0  0  0  0  0  0  0  0  0
  -47.2164   57.2740   66.4873 H   0  0  0  0  0  0  0  0  0  0  0  0
  -48.7179   58.0067   64.9986 H   0  0  0  0  0  0  0  0  0  0  0  0
  -48.8057   59.5838   65.9236 H   0  0  0  0  0  0  0  0  0  0  0  0
  -49.9308   58.5721   67.6578 H   0  0  0  0  0  0  0  0  0  0  0  0
  -49.8184   57.0005   66.8895 H   0  0  0  0  0  0  0  0  0  0  0  0
  -51.1348   57.8137   65.0103 H   0  0  0  0  0  0  0  0  0  0  0  0
  -51.2366   59.3994   65.8008 H   0  0  0  0  0  0  0  0  0  0  0  0
  -53.2944   58.1353   66.0735 H   0  0  0  0  0  0  0  0  0  0  0  0
  -52.4843   58.4435   67.6086 H   0  0  0  0  0  0  0  0  0  0  0  0
  -51.5800   56.2032   67.6009 H   0  0  0  0  0  0  0  0  0  0  0  0
  -52.4101   55.9106   66.0449 H   0  0  0  0  0  0  0  0  0  0  0  0
  -54.5382   56.0810   67.1096 H   0  0  0  0  0  0  0  0  0  0  0  0
  -53.7486   56.4093   68.6559 H   0  0  0  0  0  0  0  0  0  0  0  0
  -52.7438   54.2094   68.6327 H   0  0  0  0  0  0  0  0  0  0  0  0
  -53.5200   53.8827   67.0749 H   0  0  0  0  0  0  0  0  0  0  0  0
  -54.7139   52.8119   68.8991 H   0  0  0  0  0  0  0  0  0  0  0  0
  -55.6810   54.0657   68.0941 H   0  0  0  0  0  0  0  0  0  0  0  0
  -54.2934   54.3616   70.7358 H   0  0  0  0  0  0  0  0  0  0  0  0
  -56.0116   54.1512   70.4985 H   0  0  0  0  0  0  0  0  0  0  0  0
  -55.2206   55.5982   69.9210 H   0  0  0  0  0  0  0  0  0  0  0  0
  1  2  2  0  0  0  0
  1  3  1  0  0  0  0
  1  4  1  0  0  0  0
  3  5  1  0  0  0  0
  3 21  1  0  0  0  0
  3 22  1  0  0  0  0
  4 23  1  0  0  0  0
  5  6  1  0  0  0  0
  5 24  1  0  0  0  0
  5 25  1  0  0  0  0
  6  7  1  0  0  0  0
  6 26  1  0  0  0  0
  6 27  1  0  0  0  0
  7  8  1  0  0  0  0
  7 28  1  0  0  0  0
  7 29  1  0  0  0  0
  8  9  1  0  0  0  0
  8 30  1  0  0  0  0
  8 31  1  0  0  0  0
  9 10  1  0  0  0  0
  9 32  1  0  0  0  0
  9 33  1  0  0  0  0
 10 11  1  0  0  0  0
 10 34  1  0  0  0  0
 10 35  1  0  0  0  0
 11 12  1  0  0  0  0
 11 36  1  0  0  0  0
 11 37  1  0  0  0  0
 12 13  1  0  0  0  0
 12 38  1  0  0  0  0
 12 39  1  0  0  0  0
 13 14  1  0  0  0  0
 13 40  1  0  0  0  0
 13 41  1  0  0  0  0
 14 15  1  0  0  0  0
 14 42  1  0  0  0  0
 14 43  1  0  0  0  0
 15 16  1  0  0  0  0
 15 44  1  0  0  0  0
 15 45  1  0  0  0  0
 16 17  1  0  0  0  0
 16 46  1  0  0  0  0
 16 47  1  0  0  0  0
 17 18  1  0  0  0  0
 17 48  1  0  0  0  0
 17 49  1  0  0  0  0
 18 19  1  0  0  0  0
 18 50  1  0  0  0  0
 18 51  1  0  0  0  0
 19 20  1  0  0  0  0
 19 52  1  0  0  0  0
 19 53  1  0  0  0  0
 20 54  1  0  0  0  0
 20 55  1  0  0  0  0
 20 56  1  0  0  0  0
M  END
$$$$