/media/chris/experiments/cd1a-new-docking/inputs/ligands/4x6d_1_ligand.pdb
 OpenBabel07012320263D

 56 55  0  0  0  0  0  0  0  0999 V2000
  -45.1864   64.9370   70.3060 C   0  0  0  0  0  0  0  0  0  0  0  0
  -45.1767   65.6615   71.3339 O   0  0  0  0  0  0  0  0  0  0  0  0
  -45.0707   63.4307   70.4357 C   0  0  0  0  0  0  0  0  0  0  0  0
  -45.2973   65.4716   69.1724 O   0  0  0  0  0  0  0  0  0  0  0  0
  -45.0903   62.7929   69.0504 C   0  0  0  0  0  0  0  0  0  0  0  0
  -44.9933   61.2783   69.1428 C   0  0  0  0  0  0  0  0  0  0  0  0
  -44.9957   60.6466   67.7577 C   0  0  0  0  0  0  0  0  0  0  0  0
  -44.9155   59.1273   67.8725 C   0  0  0  0  0  0  0  0  0  0  0  0
  -44.8989   58.4750   66.5016 C   0  0  0  0  0  0  0  0  0  0  0  0
  -46.1420   58.8190   65.6970 C   0  0  0  0  0  0  0  0  0  0  0  0
  -47.3380   58.3370   66.4800 C   0  0  0  0  0  0  0  0  0  0  0  0
  -48.6910   58.5200   65.9370 C   0  0  0  0  0  0  0  0  0  0  0  0
  -49.8970   58.0544   66.7220 C   0  0  0  0  0  0  0  0  0  0  0  0
  -49.9684   58.7830   68.0634 C   0  0  0  0  0  0  0  0  0  0  0  0
  -51.1550   58.3503   68.9204 C   0  0  0  0  0  0  0  0  0  0  0  0
  -52.4863   58.5990   68.2064 C   0  0  0  0  0  0  0  0  0  0  0  0
  -52.6591   57.8450   66.8823 C   0  0  0  0  0  0  0  0  0  0  0  0
  -52.5991   56.3233   67.0704 C   0  0  0  0  0  0  0  0  0  0  0  0
  -52.7531   55.5592   65.7529 C   0  0  0  0  0  0  0  0  0  0  0  0
  -51.6558   55.8800   64.7309 C   0  0  0  0  0  0  0  0  0  0  0  0
  -45.8933   63.0589   71.0102 H   0  0  0  0  0  0  0  0  0  0  0  0
  -44.1513   63.1865   70.9255 H   0  0  0  0  0  0  0  0  0  0  0  0
  -45.3053   64.9387   68.4018 H   0  0  0  0  0  0  0  0  0  0  0  0
  -44.2609   63.1621   68.4841 H   0  0  0  0  0  0  0  0  0  0  0  0
  -46.0141   63.0455   68.5732 H   0  0  0  0  0  0  0  0  0  0  0  0
  -45.8293   60.9072   69.6982 H   0  0  0  0  0  0  0  0  0  0  0  0
  -44.0763   61.0243   69.6321 H   0  0  0  0  0  0  0  0  0  0  0  0
  -44.1526   61.0045   67.2044 H   0  0  0  0  0  0  0  0  0  0  0  0
  -45.9018   60.9118   67.2541 H   0  0  0  0  0  0  0  0  0  0  0  0
  -45.7651   58.7728   68.4178 H   0  0  0  0  0  0  0  0  0  0  0  0
  -44.0090   58.8726   68.3807 H   0  0  0  0  0  0  0  0  0  0  0  0
  -44.8486   57.4132   66.6239 H   0  0  0  0  0  0  0  0  0  0  0  0
  -44.0464   58.8419   65.9692 H   0  0  0  0  0  0  0  0  0  0  0  0
  -46.1077   58.3309   64.7454 H   0  0  0  0  0  0  0  0  0  0  0  0
  -46.2020   59.8741   65.5296 H   0  0  0  0  0  0  0  0  0  0  0  0
  -47.3129   58.8400   67.4241 H   0  0  0  0  0  0  0  0  0  0  0  0
  -47.2164   57.2740   66.4873 H   0  0  0  0  0  0  0  0  0  0  0  0
  -48.7179   58.0067   64.9986 H   0  0  0  0  0  0  0  0  0  0  0  0
  -48.8057   59.5838   65.9236 H   0  0  0  0  0  0  0  0  0  0  0  0
  -49.8205   57.0014   66.8956 H   0  0  0  0  0  0  0  0  0  0  0  0
  -50.7824   58.2692   66.1609 H   0  0  0  0  0  0  0  0  0  0  0  0
  -50.0493   59.8334   67.8760 H   0  0  0  0  0  0  0  0  0  0  0  0
  -49.0788   58.5388   68.6056 H   0  0  0  0  0  0  0  0  0  0  0  0
  -51.1429   58.9047   69.8355 H   0  0  0  0  0  0  0  0  0  0  0  0
  -51.0670   57.3006   69.1084 H   0  0  0  0  0  0  0  0  0  0  0  0
  -52.5648   59.6469   68.0049 H   0  0  0  0  0  0  0  0  0  0  0  0
  -53.2506   58.2353   68.8609 H   0  0  0  0  0  0  0  0  0  0  0  0
  -51.8784   58.1406   66.2129 H   0  0  0  0  0  0  0  0  0  0  0  0
  -53.6232   58.0897   66.4880 H   0  0  0  0  0  0  0  0  0  0  0  0
  -53.3873   56.0287   67.7314 H   0  0  0  0  0  0  0  0  0  0  0  0
  -51.6364   56.0848   67.4720 H   0  0  0  0  0  0  0  0  0  0  0  0
  -53.7004   55.8107   65.3237 H   0  0  0  0  0  0  0  0  0  0  0  0
  -52.6768   54.5167   65.9816 H   0  0  0  0  0  0  0  0  0  0  0  0
  -51.6990   56.9181   64.4752 H   0  0  0  0  0  0  0  0  0  0  0  0
  -51.8042   55.2895   63.8510 H   0  0  0  0  0  0  0  0  0  0  0  0
  -50.6985   55.6562   65.1533 H   0  0  0  0  0  0  0  0  0  0  0  0
  1  2  2  0  0  0  0
  1  3  1  0  0  0  0
  1  4  1  0  0  0  0
  3  5  1  0  0  0  0
  3 21  1  0  0  0  0
  3 22  1  0  0  0  0
  4 23  1  0  0  0  0
  5  6  1  0  0  0  0
  5 24  1  0  0  0  0
  5 25  1  0  0  0  0
  6  7  1  0  0  0  0
  6 26  1  0  0  0  0
  6 27  1  0  0  0  0
  7  8  1  0  0  0  0
  7 28  1  0  0  0  0
  7 29  1  0  0  0  0
  8  9  1  0  0  0  0
  8 30  1  0  0  0  0
  8 31  1  0  0  0  0
  9 10  1  0  0  0  0
  9 32  1  0  0  0  0
  9 33  1  0  0  0  0
 10 11  1  0  0  0  0
 10 34  1  0  0  0  0
 10 35  1  0  0  0  0
 11 12  1  0  0  0  0
 11 36  1  0  0  0  0
 11 37  1  0  0  0  0
 12 13  1  0  0  0  0
 12 38  1  0  0  0  0
 12 39  1  0  0  0  0
 13 14  1  0  0  0  0
 13 40  1  0  0  0  0
 13 41  1  0  0  0  0
 14 15  1  0  0  0  0
 14 42  1  0  0  0  0
 14 43  1  0  0  0  0
 15 16  1  0  0  0  0
 15 44  1  0  0  0  0
 15 45  1  0  0  0  0
 16 17  1  0  0  0  0
 16 46  1  0  0  0  0
 16 47  1  0  0  0  0
 17 18  1  0  0  0  0
 17 48  1  0  0  0  0
 17 49  1  0  0  0  0
 18 19  1  0  0  0  0
 18 50  1  0  0  0  0
 18 51  1  0  0  0  0
 19 20  1  0  0  0  0
 19 52  1  0  0  0  0
 19 53  1  0  0  0  0
 20 54  1  0  0  0  0
 20 55  1  0  0  0  0
 20 56  1  0  0  0  0
M  END
$$$$