/media/chris/experiments/cd1a-new-docking/inputs/ligands/4x6d_1_ligand.pdb
 OpenBabel07012320263D

 56 55  0  0  0  0  0  0  0  0999 V2000
  -43.5079   54.9843   70.7273 C   0  0  0  0  0  0  0  0  0  0  0  0
  -43.2450   53.7901   71.0212 O   0  0  0  0  0  0  0  0  0  0  0  0
  -44.7459   55.3133   69.9160 C   0  0  0  0  0  0  0  0  0  0  0  0
  -42.7389   55.9014   71.1156 O   0  0  0  0  0  0  0  0  0  0  0  0
  -44.8227   56.8189   69.6841 C   0  0  0  0  0  0  0  0  0  0  0  0
  -43.6106   57.3172   68.9131 C   0  0  0  0  0  0  0  0  0  0  0  0
  -43.5235   56.6528   67.5461 C   0  0  0  0  0  0  0  0  0  0  0  0
  -44.7660   56.9788   66.7229 C   0  0  0  0  0  0  0  0  0  0  0  0
  -44.8989   58.4750   66.5016 C   0  0  0  0  0  0  0  0  0  0  0  0
  -46.1420   58.8190   65.6970 C   0  0  0  0  0  0  0  0  0  0  0  0
  -47.3380   58.3370   66.4800 C   0  0  0  0  0  0  0  0  0  0  0  0
  -48.6910   58.5200   65.9370 C   0  0  0  0  0  0  0  0  0  0  0  0
  -49.2055   59.9072   65.6232 C   0  0  0  0  0  0  0  0  0  0  0  0
  -48.3233   60.5721   64.5673 C   0  0  0  0  0  0  0  0  0  0  0  0
  -48.2899   59.8101   63.2451 C   0  0  0  0  0  0  0  0  0  0  0  0
  -47.3831   60.4979   62.2210 C   0  0  0  0  0  0  0  0  0  0  0  0
  -45.9139   60.6240   62.6418 C   0  0  0  0  0  0  0  0  0  0  0  0
  -45.0664   61.3365   61.5795 C   0  0  0  0  0  0  0  0  0  0  0  0
  -43.5936   61.4534   61.9804 C   0  0  0  0  0  0  0  0  0  0  0  0
  -42.7343   62.1784   60.9375 C   0  0  0  0  0  0  0  0  0  0  0  0
  -45.6162   54.9904   70.4482 H   0  0  0  0  0  0  0  0  0  0  0  0
  -44.6952   54.8113   68.9724 H   0  0  0  0  0  0  0  0  0  0  0  0
  -42.9279   56.7936   70.9008 H   0  0  0  0  0  0  0  0  0  0  0  0
  -44.8636   57.3165   70.6305 H   0  0  0  0  0  0  0  0  0  0  0  0
  -45.7006   57.0296   69.1098 H   0  0  0  0  0  0  0  0  0  0  0  0
  -42.7248   57.0913   69.4692 H   0  0  0  0  0  0  0  0  0  0  0  0
  -43.7058   58.3738   68.7734 H   0  0  0  0  0  0  0  0  0  0  0  0
  -43.4509   55.5928   67.6722 H   0  0  0  0  0  0  0  0  0  0  0  0
  -42.6586   57.0194   67.0338 H   0  0  0  0  0  0  0  0  0  0  0  0
  -45.6319   56.6242   67.2419 H   0  0  0  0  0  0  0  0  0  0  0  0
  -44.6767   56.5011   65.7696 H   0  0  0  0  0  0  0  0  0  0  0  0
  -44.0367   58.8248   65.9732 H   0  0  0  0  0  0  0  0  0  0  0  0
  -44.9814   58.9465   67.4585 H   0  0  0  0  0  0  0  0  0  0  0  0
  -46.1077   58.3309   64.7454 H   0  0  0  0  0  0  0  0  0  0  0  0
  -46.2020   59.8741   65.5296 H   0  0  0  0  0  0  0  0  0  0  0  0
  -47.3129   58.8400   67.4241 H   0  0  0  0  0  0  0  0  0  0  0  0
  -47.2164   57.2740   66.4873 H   0  0  0  0  0  0  0  0  0  0  0  0
  -49.3680   58.0944   66.6480 H   0  0  0  0  0  0  0  0  0  0  0  0
  -48.6304   58.0595   64.9731 H   0  0  0  0  0  0  0  0  0  0  0  0
  -49.1949   60.4980   66.5153 H   0  0  0  0  0  0  0  0  0  0  0  0
  -50.2040   59.8318   65.2462 H   0  0  0  0  0  0  0  0  0  0  0  0
  -47.3255   60.6354   64.9485 H   0  0  0  0  0  0  0  0  0  0  0  0
  -48.7392   61.5375   64.3674 H   0  0  0  0  0  0  0  0  0  0  0  0
  -49.2827   59.7573   62.8497 H   0  0  0  0  0  0  0  0  0  0  0  0
  -47.9006   58.8313   63.4327 H   0  0  0  0  0  0  0  0  0  0  0  0
  -47.7648   61.4823   62.0472 H   0  0  0  0  0  0  0  0  0  0  0  0
  -47.3933   59.8796   61.3478 H   0  0  0  0  0  0  0  0  0  0  0  0
  -45.5154   59.6436   62.8001 H   0  0  0  0  0  0  0  0  0  0  0  0
  -45.8775   61.2081   63.5375 H   0  0  0  0  0  0  0  0  0  0  0  0
  -45.4600   62.3203   61.4308 H   0  0  0  0  0  0  0  0  0  0  0  0
  -45.1125   60.7527   60.6840 H   0  0  0  0  0  0  0  0  0  0  0  0
  -43.2003   60.4678   62.1179 H   0  0  0  0  0  0  0  0  0  0  0  0
  -43.5559   62.0330   62.8790 H   0  0  0  0  0  0  0  0  0  0  0  0
  -42.7463   61.6277   60.0202 H   0  0  0  0  0  0  0  0  0  0  0  0
  -41.7285   62.2545   61.2947 H   0  0  0  0  0  0  0  0  0  0  0  0
  -43.1284   63.1590   60.7701 H   0  0  0  0  0  0  0  0  0  0  0  0
  1  2  2  0  0  0  0
  1  3  1  0  0  0  0
  1  4  1  0  0  0  0
  3  5  1  0  0  0  0
  3 21  1  0  0  0  0
  3 22  1  0  0  0  0
  4 23  1  0  0  0  0
  5  6  1  0  0  0  0
  5 24  1  0  0  0  0
  5 25  1  0  0  0  0
  6  7  1  0  0  0  0
  6 26  1  0  0  0  0
  6 27  1  0  0  0  0
  7  8  1  0  0  0  0
  7 28  1  0  0  0  0
  7 29  1  0  0  0  0
  8  9  1  0  0  0  0
  8 30  1  0  0  0  0
  8 31  1  0  0  0  0
  9 10  1  0  0  0  0
  9 32  1  0  0  0  0
  9 33  1  0  0  0  0
 10 11  1  0  0  0  0
 10 34  1  0  0  0  0
 10 35  1  0  0  0  0
 11 12  1  0  0  0  0
 11 36  1  0  0  0  0
 11 37  1  0  0  0  0
 12 13  1  0  0  0  0
 12 38  1  0  0  0  0
 12 39  1  0  0  0  0
 13 14  1  0  0  0  0
 13 40  1  0  0  0  0
 13 41  1  0  0  0  0
 14 15  1  0  0  0  0
 14 42  1  0  0  0  0
 14 43  1  0  0  0  0
 15 16  1  0  0  0  0
 15 44  1  0  0  0  0
 15 45  1  0  0  0  0
 16 17  1  0  0  0  0
 16 46  1  0  0  0  0
 16 47  1  0  0  0  0
 17 18  1  0  0  0  0
 17 48  1  0  0  0  0
 17 49  1  0  0  0  0
 18 19  1  0  0  0  0
 18 50  1  0  0  0  0
 18 51  1  0  0  0  0
 19 20  1  0  0  0  0
 19 52  1  0  0  0  0
 19 53  1  0  0  0  0
 20 54  1  0  0  0  0
 20 55  1  0  0  0  0
 20 56  1  0  0  0  0
M  END
$$$$