/media/chris/experiments/cd1a-new-docking/inputs/ligands/4x6d_1_ligand.pdb
 OpenBabel07012320263D

 56 55  0  0  0  0  0  0  0  0999 V2000
  -39.6746   56.6037   65.4925 C   0  0  0  0  0  0  0  0  0  0  0  0
  -38.5830   56.3699   64.9132 O   0  0  0  0  0  0  0  0  0  0  0  0
  -40.9174   56.9089   64.6792 C   0  0  0  0  0  0  0  0  0  0  0  0
  -39.7267   56.5777   66.7494 O   0  0  0  0  0  0  0  0  0  0  0  0
  -42.1540   56.4267   65.4306 C   0  0  0  0  0  0  0  0  0  0  0  0
  -43.4205   56.7013   64.6351 C   0  0  0  0  0  0  0  0  0  0  0  0
  -44.6536   56.2343   65.3959 C   0  0  0  0  0  0  0  0  0  0  0  0
  -44.7660   56.9788   66.7229 C   0  0  0  0  0  0  0  0  0  0  0  0
  -44.8989   58.4750   66.5016 C   0  0  0  0  0  0  0  0  0  0  0  0
  -46.1420   58.8190   65.6970 C   0  0  0  0  0  0  0  0  0  0  0  0
  -47.3380   58.3370   66.4800 C   0  0  0  0  0  0  0  0  0  0  0  0
  -48.6910   58.5200   65.9370 C   0  0  0  0  0  0  0  0  0  0  0  0
  -49.0768   57.8833   64.6205 C   0  0  0  0  0  0  0  0  0  0  0  0
  -48.9503   56.3630   64.7112 C   0  0  0  0  0  0  0  0  0  0  0  0
  -49.3083   55.6511   63.4094 C   0  0  0  0  0  0  0  0  0  0  0  0
  -50.7458   55.9542   62.9781 C   0  0  0  0  0  0  0  0  0  0  0  0
  -51.0411   57.4354   62.7128 C   0  0  0  0  0  0  0  0  0  0  0  0
  -50.1703   58.0067   61.5860 C   0  0  0  0  0  0  0  0  0  0  0  0
  -50.4436   59.4898   61.3230 C   0  0  0  0  0  0  0  0  0  0  0  0
  -50.1660   60.3849   62.5368 C   0  0  0  0  0  0  0  0  0  0  0  0
  -40.8568   56.4083   63.7355 H   0  0  0  0  0  0  0  0  0  0  0  0
  -40.9876   57.9649   64.5216 H   0  0  0  0  0  0  0  0  0  0  0  0
  -40.5362   56.7508   67.1883 H   0  0  0  0  0  0  0  0  0  0  0  0
  -42.2135   56.9369   66.3692 H   0  0  0  0  0  0  0  0  0  0  0  0
  -42.0697   55.3706   65.5809 H   0  0  0  0  0  0  0  0  0  0  0  0
  -43.3672   56.1810   63.7016 H   0  0  0  0  0  0  0  0  0  0  0  0
  -43.4991   57.7558   64.4721 H   0  0  0  0  0  0  0  0  0  0  0  0
  -44.5758   55.1841   65.5851 H   0  0  0  0  0  0  0  0  0  0  0  0
  -45.5244   56.4354   64.8074 H   0  0  0  0  0  0  0  0  0  0  0  0
  -43.8890   56.7884   67.3056 H   0  0  0  0  0  0  0  0  0  0  0  0
  -45.6400   56.6322   67.2337 H   0  0  0  0  0  0  0  0  0  0  0  0
  -44.0367   58.8248   65.9732 H   0  0  0  0  0  0  0  0  0  0  0  0
  -44.9814   58.9465   67.4585 H   0  0  0  0  0  0  0  0  0  0  0  0
  -46.1077   58.3309   64.7454 H   0  0  0  0  0  0  0  0  0  0  0  0
  -46.2020   59.8741   65.5296 H   0  0  0  0  0  0  0  0  0  0  0  0
  -47.3129   58.8400   67.4241 H   0  0  0  0  0  0  0  0  0  0  0  0
  -47.2164   57.2740   66.4873 H   0  0  0  0  0  0  0  0  0  0  0  0
  -48.8369   59.5739   65.8234 H   0  0  0  0  0  0  0  0  0  0  0  0
  -49.3084   58.0076   66.6449 H   0  0  0  0  0  0  0  0  0  0  0  0
  -48.4296   58.2462   63.8495 H   0  0  0  0  0  0  0  0  0  0  0  0
  -50.0918   58.1359   64.3951 H   0  0  0  0  0  0  0  0  0  0  0  0
  -49.6051   56.0127   65.4816 H   0  0  0  0  0  0  0  0  0  0  0  0
  -47.9253   56.1413   64.9233 H   0  0  0  0  0  0  0  0  0  0  0  0
  -49.2034   54.5956   63.5506 H   0  0  0  0  0  0  0  0  0  0  0  0
  -48.6482   56.0017   62.6437 H   0  0  0  0  0  0  0  0  0  0  0  0
  -51.4031   55.6176   63.7524 H   0  0  0  0  0  0  0  0  0  0  0  0
  -50.8932   55.4472   62.0475 H   0  0  0  0  0  0  0  0  0  0  0  0
  -50.8535   57.9900   63.6084 H   0  0  0  0  0  0  0  0  0  0  0  0
  -52.0645   57.5176   62.4113 H   0  0  0  0  0  0  0  0  0  0  0  0
  -50.3677   57.4578   60.6889 H   0  0  0  0  0  0  0  0  0  0  0  0
  -49.1482   57.9149   61.8889 H   0  0  0  0  0  0  0  0  0  0  0  0
  -51.4714   59.6016   61.0472 H   0  0  0  0  0  0  0  0  0  0  0  0
  -49.7796   59.7999   60.5434 H   0  0  0  0  0  0  0  0  0  0  0  0
  -50.8130   60.1051   63.3418 H   0  0  0  0  0  0  0  0  0  0  0  0
  -50.3442   61.4068   62.2747 H   0  0  0  0  0  0  0  0  0  0  0  0
  -49.1469   60.2672   62.8410 H   0  0  0  0  0  0  0  0  0  0  0  0
  1  2  2  0  0  0  0
  1  3  1  0  0  0  0
  1  4  1  0  0  0  0
  3  5  1  0  0  0  0
  3 21  1  0  0  0  0
  3 22  1  0  0  0  0
  4 23  1  0  0  0  0
  5  6  1  0  0  0  0
  5 24  1  0  0  0  0
  5 25  1  0  0  0  0
  6  7  1  0  0  0  0
  6 26  1  0  0  0  0
  6 27  1  0  0  0  0
  7  8  1  0  0  0  0
  7 28  1  0  0  0  0
  7 29  1  0  0  0  0
  8  9  1  0  0  0  0
  8 30  1  0  0  0  0
  8 31  1  0  0  0  0
  9 10  1  0  0  0  0
  9 32  1  0  0  0  0
  9 33  1  0  0  0  0
 10 11  1  0  0  0  0
 10 34  1  0  0  0  0
 10 35  1  0  0  0  0
 11 12  1  0  0  0  0
 11 36  1  0  0  0  0
 11 37  1  0  0  0  0
 12 13  1  0  0  0  0
 12 38  1  0  0  0  0
 12 39  1  0  0  0  0
 13 14  1  0  0  0  0
 13 40  1  0  0  0  0
 13 41  1  0  0  0  0
 14 15  1  0  0  0  0
 14 42  1  0  0  0  0
 14 43  1  0  0  0  0
 15 16  1  0  0  0  0
 15 44  1  0  0  0  0
 15 45  1  0  0  0  0
 16 17  1  0  0  0  0
 16 46  1  0  0  0  0
 16 47  1  0  0  0  0
 17 18  1  0  0  0  0
 17 48  1  0  0  0  0
 17 49  1  0  0  0  0
 18 19  1  0  0  0  0
 18 50  1  0  0  0  0
 18 51  1  0  0  0  0
 19 20  1  0  0  0  0
 19 52  1  0  0  0  0
 19 53  1  0  0  0  0
 20 54  1  0  0  0  0
 20 55  1  0  0  0  0
 20 56  1  0  0  0  0
M  END
$$$$