/media/chris/experiments/cd1a-new-docking/inputs/ligands/4x6d_1_ligand.pdb
 OpenBabel07012320263D

 56 55  0  0  0  0  0  0  0  0999 V2000
  -39.6667   56.5247   65.4770 C   0  0  0  0  0  0  0  0  0  0  0  0
  -39.6921   57.2376   64.4413 O   0  0  0  0  0  0  0  0  0  0  0  0
  -39.7667   57.1684   66.8463 C   0  0  0  0  0  0  0  0  0  0  0  0
  -39.5624   55.2757   65.3668 O   0  0  0  0  0  0  0  0  0  0  0  0
  -39.8892   58.6812   66.6948 C   0  0  0  0  0  0  0  0  0  0  0  0
  -41.1364   59.0542   65.9090 C   0  0  0  0  0  0  0  0  0  0  0  0
  -42.3927   58.5673   66.6176 C   0  0  0  0  0  0  0  0  0  0  0  0
  -43.6307   58.9356   65.8055 C   0  0  0  0  0  0  0  0  0  0  0  0
  -44.8989   58.4750   66.5016 C   0  0  0  0  0  0  0  0  0  0  0  0
  -46.1420   58.8190   65.6970 C   0  0  0  0  0  0  0  0  0  0  0  0
  -47.3380   58.3370   66.4800 C   0  0  0  0  0  0  0  0  0  0  0  0
  -48.6910   58.5200   65.9370 C   0  0  0  0  0  0  0  0  0  0  0  0
  -49.2055   59.9072   65.6232 C   0  0  0  0  0  0  0  0  0  0  0  0
  -48.3233   60.5721   64.5673 C   0  0  0  0  0  0  0  0  0  0  0  0
  -48.7733   61.9865   64.2115 C   0  0  0  0  0  0  0  0  0  0  0  0
  -47.8759   62.6107   63.1396 C   0  0  0  0  0  0  0  0  0  0  0  0
  -46.3951   62.7218   63.5224 C   0  0  0  0  0  0  0  0  0  0  0  0
  -45.5573   63.3704   62.4125 C   0  0  0  0  0  0  0  0  0  0  0  0
  -44.0735   63.4714   62.7757 C   0  0  0  0  0  0  0  0  0  0  0  0
  -43.2231   64.1331   61.6845 C   0  0  0  0  0  0  0  0  0  0  0  0
  -38.8890   56.9374   67.4130 H   0  0  0  0  0  0  0  0  0  0  0  0
  -40.6307   56.7917   67.3528 H   0  0  0  0  0  0  0  0  0  0  0  0
  -39.5428   54.7377   66.1337 H   0  0  0  0  0  0  0  0  0  0  0  0
  -39.0277   59.0515   66.1794 H   0  0  0  0  0  0  0  0  0  0  0  0
  -39.9598   59.1154   67.6702 H   0  0  0  0  0  0  0  0  0  0  0  0
  -41.0858   58.6060   64.9387 H   0  0  0  0  0  0  0  0  0  0  0  0
  -41.1821   60.1201   65.8273 H   0  0  0  0  0  0  0  0  0  0  0  0
  -42.4540   59.0248   67.5829 H   0  0  0  0  0  0  0  0  0  0  0  0
  -42.3459   57.5033   66.7204 H   0  0  0  0  0  0  0  0  0  0  0  0
  -43.5700   58.4684   64.8448 H   0  0  0  0  0  0  0  0  0  0  0  0
  -43.6662   60.0003   65.7046 H   0  0  0  0  0  0  0  0  0  0  0  0
  -44.9621   58.9519   67.4573 H   0  0  0  0  0  0  0  0  0  0  0  0
  -44.8537   57.4109   66.6046 H   0  0  0  0  0  0  0  0  0  0  0  0
  -46.1077   58.3309   64.7454 H   0  0  0  0  0  0  0  0  0  0  0  0
  -46.2020   59.8741   65.5296 H   0  0  0  0  0  0  0  0  0  0  0  0
  -47.3129   58.8400   67.4241 H   0  0  0  0  0  0  0  0  0  0  0  0
  -47.2164   57.2740   66.4873 H   0  0  0  0  0  0  0  0  0  0  0  0
  -49.3680   58.0944   66.6480 H   0  0  0  0  0  0  0  0  0  0  0  0
  -48.6304   58.0595   64.9731 H   0  0  0  0  0  0  0  0  0  0  0  0
  -49.1949   60.4980   66.5153 H   0  0  0  0  0  0  0  0  0  0  0  0
  -50.2040   59.8318   65.2462 H   0  0  0  0  0  0  0  0  0  0  0  0
  -48.3461   59.9747   63.6799 H   0  0  0  0  0  0  0  0  0  0  0  0
  -47.3375   60.6457   64.9770 H   0  0  0  0  0  0  0  0  0  0  0  0
  -48.7372   62.5941   65.0916 H   0  0  0  0  0  0  0  0  0  0  0  0
  -49.7695   61.9334   63.8246 H   0  0  0  0  0  0  0  0  0  0  0  0
  -48.2405   63.5951   62.9327 H   0  0  0  0  0  0  0  0  0  0  0  0
  -47.9191   61.9568   62.2938 H   0  0  0  0  0  0  0  0  0  0  0  0
  -46.0139   61.7404   63.7132 H   0  0  0  0  0  0  0  0  0  0  0  0
  -46.3259   63.3419   64.3916 H   0  0  0  0  0  0  0  0  0  0  0  0
  -45.9332   64.3556   62.2311 H   0  0  0  0  0  0  0  0  0  0  0  0
  -45.6362   62.7509   61.5437 H   0  0  0  0  0  0  0  0  0  0  0  0
  -43.6981   62.4841   62.9462 H   0  0  0  0  0  0  0  0  0  0  0  0
  -44.0030   64.0871   63.6479 H   0  0  0  0  0  0  0  0  0  0  0  0
  -43.2677   63.5450   60.7918 H   0  0  0  0  0  0  0  0  0  0  0  0
  -42.2081   64.2018   62.0160 H   0  0  0  0  0  0  0  0  0  0  0  0
  -43.6002   65.1143   61.4844 H   0  0  0  0  0  0  0  0  0  0  0  0
  1  2  2  0  0  0  0
  1  3  1  0  0  0  0
  1  4  1  0  0  0  0
  3  5  1  0  0  0  0
  3 21  1  0  0  0  0
  3 22  1  0  0  0  0
  4 23  1  0  0  0  0
  5  6  1  0  0  0  0
  5 24  1  0  0  0  0
  5 25  1  0  0  0  0
  6  7  1  0  0  0  0
  6 26  1  0  0  0  0
  6 27  1  0  0  0  0
  7  8  1  0  0  0  0
  7 28  1  0  0  0  0
  7 29  1  0  0  0  0
  8  9  1  0  0  0  0
  8 30  1  0  0  0  0
  8 31  1  0  0  0  0
  9 10  1  0  0  0  0
  9 32  1  0  0  0  0
  9 33  1  0  0  0  0
 10 11  1  0  0  0  0
 10 34  1  0  0  0  0
 10 35  1  0  0  0  0
 11 12  1  0  0  0  0
 11 36  1  0  0  0  0
 11 37  1  0  0  0  0
 12 13  1  0  0  0  0
 12 38  1  0  0  0  0
 12 39  1  0  0  0  0
 13 14  1  0  0  0  0
 13 40  1  0  0  0  0
 13 41  1  0  0  0  0
 14 15  1  0  0  0  0
 14 42  1  0  0  0  0
 14 43  1  0  0  0  0
 15 16  1  0  0  0  0
 15 44  1  0  0  0  0
 15 45  1  0  0  0  0
 16 17  1  0  0  0  0
 16 46  1  0  0  0  0
 16 47  1  0  0  0  0
 17 18  1  0  0  0  0
 17 48  1  0  0  0  0
 17 49  1  0  0  0  0
 18 19  1  0  0  0  0
 18 50  1  0  0  0  0
 18 51  1  0  0  0  0
 19 20  1  0  0  0  0
 19 52  1  0  0  0  0
 19 53  1  0  0  0  0
 20 54  1  0  0  0  0
 20 55  1  0  0  0  0
 20 56  1  0  0  0  0
M  END
$$$$