/media/chris/experiments/cd1a-new-docking/inputs/ligands/4x6d_1_ligand.pdb
 OpenBabel07012320263D

 56 55  0  0  0  0  0  0  0  0999 V2000
  -40.6601   57.9626   60.3304 C   0  0  0  0  0  0  0  0  0  0  0  0
  -40.0533   58.5681   59.4102 O   0  0  0  0  0  0  0  0  0  0  0  0
  -40.7645   58.5835   61.7098 C   0  0  0  0  0  0  0  0  0  0  0  0
  -41.1822   56.8422   60.0954 O   0  0  0  0  0  0  0  0  0  0  0  0
  -42.0605   58.1356   62.3778 C   0  0  0  0  0  0  0  0  0  0  0  0
  -42.2074   58.7541   63.7591 C   0  0  0  0  0  0  0  0  0  0  0  0
  -43.4934   58.2911   64.4294 C   0  0  0  0  0  0  0  0  0  0  0  0
  -43.6307   58.9356   65.8055 C   0  0  0  0  0  0  0  0  0  0  0  0
  -44.8989   58.4750   66.5016 C   0  0  0  0  0  0  0  0  0  0  0  0
  -46.1420   58.8190   65.6970 C   0  0  0  0  0  0  0  0  0  0  0  0
  -47.3380   58.3370   66.4800 C   0  0  0  0  0  0  0  0  0  0  0  0
  -48.6910   58.5200   65.9370 C   0  0  0  0  0  0  0  0  0  0  0  0
  -49.8970   58.0544   66.7220 C   0  0  0  0  0  0  0  0  0  0  0  0
  -49.9684   58.7830   68.0634 C   0  0  0  0  0  0  0  0  0  0  0  0
  -50.0999   60.2968   67.9193 C   0  0  0  0  0  0  0  0  0  0  0  0
  -50.1507   60.9906   69.2832 C   0  0  0  0  0  0  0  0  0  0  0  0
  -48.9093   60.7833   70.1592 C   0  0  0  0  0  0  0  0  0  0  0  0
  -47.6359   61.3253   69.4965 C   0  0  0  0  0  0  0  0  0  0  0  0
  -47.7074   62.8299   69.2231 C   0  0  0  0  0  0  0  0  0  0  0  0
  -46.4494   63.3861   68.5450 C   0  0  0  0  0  0  0  0  0  0  0  0
  -40.7600   59.6499   61.6212 H   0  0  0  0  0  0  0  0  0  0  0  0
  -39.9322   58.2691   62.3041 H   0  0  0  0  0  0  0  0  0  0  0  0
  -41.6360   56.3849   60.7757 H   0  0  0  0  0  0  0  0  0  0  0  0
  -42.0551   57.0697   62.4710 H   0  0  0  0  0  0  0  0  0  0  0  0
  -42.8828   58.4564   61.7729 H   0  0  0  0  0  0  0  0  0  0  0  0
  -42.2256   59.8198   63.6653 H   0  0  0  0  0  0  0  0  0  0  0  0
  -41.3785   58.4453   64.3611 H   0  0  0  0  0  0  0  0  0  0  0  0
  -43.4722   57.2268   64.5379 H   0  0  0  0  0  0  0  0  0  0  0  0
  -44.3268   58.5795   63.8235 H   0  0  0  0  0  0  0  0  0  0  0  0
  -43.6612   59.9991   65.6916 H   0  0  0  0  0  0  0  0  0  0  0  0
  -42.7912   58.6449   66.4019 H   0  0  0  0  0  0  0  0  0  0  0  0
  -44.9621   58.9519   67.4573 H   0  0  0  0  0  0  0  0  0  0  0  0
  -44.8537   57.4109   66.6046 H   0  0  0  0  0  0  0  0  0  0  0  0
  -46.1077   58.3309   64.7454 H   0  0  0  0  0  0  0  0  0  0  0  0
  -46.2020   59.8741   65.5296 H   0  0  0  0  0  0  0  0  0  0  0  0
  -47.3129   58.8400   67.4241 H   0  0  0  0  0  0  0  0  0  0  0  0
  -47.2164   57.2740   66.4873 H   0  0  0  0  0  0  0  0  0  0  0  0
  -48.7179   58.0067   64.9986 H   0  0  0  0  0  0  0  0  0  0  0  0
  -48.8057   59.5838   65.9236 H   0  0  0  0  0  0  0  0  0  0  0  0
  -49.8205   57.0014   66.8956 H   0  0  0  0  0  0  0  0  0  0  0  0
  -50.7824   58.2692   66.1609 H   0  0  0  0  0  0  0  0  0  0  0  0
  -49.0759   58.5701   68.6139 H   0  0  0  0  0  0  0  0  0  0  0  0
  -50.8449   58.4344   68.5684 H   0  0  0  0  0  0  0  0  0  0  0  0
  -50.9995   60.5177   67.3836 H   0  0  0  0  0  0  0  0  0  0  0  0
  -49.2423   60.6586   67.3915 H   0  0  0  0  0  0  0  0  0  0  0  0
  -50.9997   60.6154   69.8155 H   0  0  0  0  0  0  0  0  0  0  0  0
  -50.2059   62.0404   69.0841 H   0  0  0  0  0  0  0  0  0  0  0  0
  -48.7853   59.7358   70.3390 H   0  0  0  0  0  0  0  0  0  0  0  0
  -49.0583   61.3199   71.0728 H   0  0  0  0  0  0  0  0  0  0  0  0
  -47.4897   60.8150   68.5674 H   0  0  0  0  0  0  0  0  0  0  0  0
  -46.8232   61.1575   70.1719 H   0  0  0  0  0  0  0  0  0  0  0  0
  -47.8430   63.3378   70.1551 H   0  0  0  0  0  0  0  0  0  0  0  0
  -48.5252   62.9905   68.5521 H   0  0  0  0  0  0  0  0  0  0  0  0
  -45.6055   63.2439   69.1872 H   0  0  0  0  0  0  0  0  0  0  0  0
  -46.5798   64.4307   68.3534 H   0  0  0  0  0  0  0  0  0  0  0  0
  -46.2853   62.8718   67.6212 H   0  0  0  0  0  0  0  0  0  0  0  0
  1  2  2  0  0  0  0
  1  3  1  0  0  0  0
  1  4  1  0  0  0  0
  3  5  1  0  0  0  0
  3 21  1  0  0  0  0
  3 22  1  0  0  0  0
  4 23  1  0  0  0  0
  5  6  1  0  0  0  0
  5 24  1  0  0  0  0
  5 25  1  0  0  0  0
  6  7  1  0  0  0  0
  6 26  1  0  0  0  0
  6 27  1  0  0  0  0
  7  8  1  0  0  0  0
  7 28  1  0  0  0  0
  7 29  1  0  0  0  0
  8  9  1  0  0  0  0
  8 30  1  0  0  0  0
  8 31  1  0  0  0  0
  9 10  1  0  0  0  0
  9 32  1  0  0  0  0
  9 33  1  0  0  0  0
 10 11  1  0  0  0  0
 10 34  1  0  0  0  0
 10 35  1  0  0  0  0
 11 12  1  0  0  0  0
 11 36  1  0  0  0  0
 11 37  1  0  0  0  0
 12 13  1  0  0  0  0
 12 38  1  0  0  0  0
 12 39  1  0  0  0  0
 13 14  1  0  0  0  0
 13 40  1  0  0  0  0
 13 41  1  0  0  0  0
 14 15  1  0  0  0  0
 14 42  1  0  0  0  0
 14 43  1  0  0  0  0
 15 16  1  0  0  0  0
 15 44  1  0  0  0  0
 15 45  1  0  0  0  0
 16 17  1  0  0  0  0
 16 46  1  0  0  0  0
 16 47  1  0  0  0  0
 17 18  1  0  0  0  0
 17 48  1  0  0  0  0
 17 49  1  0  0  0  0
 18 19  1  0  0  0  0
 18 50  1  0  0  0  0
 18 51  1  0  0  0  0
 19 20  1  0  0  0  0
 19 52  1  0  0  0  0
 19 53  1  0  0  0  0
 20 54  1  0  0  0  0
 20 55  1  0  0  0  0
 20 56  1  0  0  0  0
M  END
$$$$