/media/chris/experiments/cd1a-new-docking/inputs/ligands/4x6d_1_ligand.pdb
 OpenBabel07012320263D

 56 55  0  0  0  0  0  0  0  0999 V2000
  -45.1029   59.3703   58.9251 C   0  0  0  0  0  0  0  0  0  0  0  0
  -46.0541   60.0652   59.3654 O   0  0  0  0  0  0  0  0  0  0  0  0
  -45.0796   57.8733   59.1651 C   0  0  0  0  0  0  0  0  0  0  0  0
  -44.1757   59.9264   58.2815 O   0  0  0  0  0  0  0  0  0  0  0  0
  -43.8274   57.4987   59.9514 C   0  0  0  0  0  0  0  0  0  0  0  0
  -43.8027   58.1910   61.3050 C   0  0  0  0  0  0  0  0  0  0  0  0
  -45.0041   57.7845   62.1469 C   0  0  0  0  0  0  0  0  0  0  0  0
  -44.9702   58.5025   63.4927 C   0  0  0  0  0  0  0  0  0  0  0  0
  -46.1509   58.0994   64.3580 C   0  0  0  0  0  0  0  0  0  0  0  0
  -46.1420   58.8190   65.6970 C   0  0  0  0  0  0  0  0  0  0  0  0
  -47.3380   58.3370   66.4800 C   0  0  0  0  0  0  0  0  0  0  0  0
  -48.6910   58.5200   65.9370 C   0  0  0  0  0  0  0  0  0  0  0  0
  -49.0768   57.8833   64.6205 C   0  0  0  0  0  0  0  0  0  0  0  0
  -48.9503   56.3630   64.7112 C   0  0  0  0  0  0  0  0  0  0  0  0
  -49.3083   55.6511   63.4094 C   0  0  0  0  0  0  0  0  0  0  0  0
  -49.1860   54.1311   63.5462 C   0  0  0  0  0  0  0  0  0  0  0  0
  -49.5129   53.3402   62.2737 C   0  0  0  0  0  0  0  0  0  0  0  0
  -48.5780   53.7008   61.1117 C   0  0  0  0  0  0  0  0  0  0  0  0
  -47.1088   53.4031   61.4221 C   0  0  0  0  0  0  0  0  0  0  0  0
  -46.8353   51.9222   61.7115 C   0  0  0  0  0  0  0  0  0  0  0  0
  -45.0754   57.3623   58.2250 H   0  0  0  0  0  0  0  0  0  0  0  0
  -45.9471   57.5902   59.7238 H   0  0  0  0  0  0  0  0  0  0  0  0
  -43.4634   59.4155   57.9503 H   0  0  0  0  0  0  0  0  0  0  0  0
  -42.9633   57.7924   59.3929 H   0  0  0  0  0  0  0  0  0  0  0  0
  -43.8307   56.4407   60.1111 H   0  0  0  0  0  0  0  0  0  0  0  0
  -43.8216   59.2505   61.1566 H   0  0  0  0  0  0  0  0  0  0  0  0
  -42.9110   57.9009   61.8203 H   0  0  0  0  0  0  0  0  0  0  0  0
  -44.9805   56.7272   62.3094 H   0  0  0  0  0  0  0  0  0  0  0  0
  -45.9010   58.0542   61.6293 H   0  0  0  0  0  0  0  0  0  0  0  0
  -45.0038   59.5589   63.3261 H   0  0  0  0  0  0  0  0  0  0  0  0
  -44.0685   58.2299   64.0003 H   0  0  0  0  0  0  0  0  0  0  0  0
  -46.1087   57.0444   64.5316 H   0  0  0  0  0  0  0  0  0  0  0  0
  -47.0486   58.3689   63.8418 H   0  0  0  0  0  0  0  0  0  0  0  0
  -46.2076   59.8760   65.5439 H   0  0  0  0  0  0  0  0  0  0  0  0
  -45.2364   58.6137   66.2287 H   0  0  0  0  0  0  0  0  0  0  0  0
  -47.3129   58.8400   67.4241 H   0  0  0  0  0  0  0  0  0  0  0  0
  -47.2164   57.2740   66.4873 H   0  0  0  0  0  0  0  0  0  0  0  0
  -48.8369   59.5739   65.8234 H   0  0  0  0  0  0  0  0  0  0  0  0
  -49.3084   58.0076   66.6449 H   0  0  0  0  0  0  0  0  0  0  0  0
  -48.4296   58.2462   63.8495 H   0  0  0  0  0  0  0  0  0  0  0  0
  -50.0918   58.1359   64.3951 H   0  0  0  0  0  0  0  0  0  0  0  0
  -49.6051   56.0127   65.4816 H   0  0  0  0  0  0  0  0  0  0  0  0
  -47.9253   56.1413   64.9233 H   0  0  0  0  0  0  0  0  0  0  0  0
  -48.6463   55.9847   62.6378 H   0  0  0  0  0  0  0  0  0  0  0  0
  -50.3244   55.8847   63.1686 H   0  0  0  0  0  0  0  0  0  0  0  0
  -49.8555   53.8117   64.3173 H   0  0  0  0  0  0  0  0  0  0  0  0
  -48.1585   53.9313   63.7682 H   0  0  0  0  0  0  0  0  0  0  0  0
  -50.5207   53.5540   61.9844 H   0  0  0  0  0  0  0  0  0  0  0  0
  -49.3824   52.3005   62.4902 H   0  0  0  0  0  0  0  0  0  0  0  0
  -48.6790   54.7452   60.9023 H   0  0  0  0  0  0  0  0  0  0  0  0
  -48.8593   53.1002   60.2720 H   0  0  0  0  0  0  0  0  0  0  0  0
  -46.8206   53.9751   62.2792 H   0  0  0  0  0  0  0  0  0  0  0  0
  -46.5429   53.6647   60.5524 H   0  0  0  0  0  0  0  0  0  0  0  0
  -47.3857   51.6207   62.5782 H   0  0  0  0  0  0  0  0  0  0  0  0
  -45.7893   51.7801   61.8860 H   0  0  0  0  0  0  0  0  0  0  0  0
  -47.1403   51.3325   60.8724 H   0  0  0  0  0  0  0  0  0  0  0  0
  1  2  2  0  0  0  0
  1  3  1  0  0  0  0
  1  4  1  0  0  0  0
  3  5  1  0  0  0  0
  3 21  1  0  0  0  0
  3 22  1  0  0  0  0
  4 23  1  0  0  0  0
  5  6  1  0  0  0  0
  5 24  1  0  0  0  0
  5 25  1  0  0  0  0
  6  7  1  0  0  0  0
  6 26  1  0  0  0  0
  6 27  1  0  0  0  0
  7  8  1  0  0  0  0
  7 28  1  0  0  0  0
  7 29  1  0  0  0  0
  8  9  1  0  0  0  0
  8 30  1  0  0  0  0
  8 31  1  0  0  0  0
  9 10  1  0  0  0  0
  9 32  1  0  0  0  0
  9 33  1  0  0  0  0
 10 11  1  0  0  0  0
 10 34  1  0  0  0  0
 10 35  1  0  0  0  0
 11 12  1  0  0  0  0
 11 36  1  0  0  0  0
 11 37  1  0  0  0  0
 12 13  1  0  0  0  0
 12 38  1  0  0  0  0
 12 39  1  0  0  0  0
 13 14  1  0  0  0  0
 13 40  1  0  0  0  0
 13 41  1  0  0  0  0
 14 15  1  0  0  0  0
 14 42  1  0  0  0  0
 14 43  1  0  0  0  0
 15 16  1  0  0  0  0
 15 44  1  0  0  0  0
 15 45  1  0  0  0  0
 16 17  1  0  0  0  0
 16 46  1  0  0  0  0
 16 47  1  0  0  0  0
 17 18  1  0  0  0  0
 17 48  1  0  0  0  0
 17 49  1  0  0  0  0
 18 19  1  0  0  0  0
 18 50  1  0  0  0  0
 18 51  1  0  0  0  0
 19 20  1  0  0  0  0
 19 52  1  0  0  0  0
 19 53  1  0  0  0  0
 20 54  1  0  0  0  0
 20 55  1  0  0  0  0
 20 56  1  0  0  0  0
M  END
$$$$