/media/chris/experiments/cd1a-new-docking/inputs/ligands/4x6d_1_ligand.pdb
 OpenBabel07012320263D

 56 55  0  0  0  0  0  0  0  0999 V2000
  -47.3416   57.8684   61.9802 C   0  0  0  0  0  0  0  0  0  0  0  0
  -48.5075   58.0218   61.5342 O   0  0  0  0  0  0  0  0  0  0  0  0
  -46.1597   58.4656   61.2415 C   0  0  0  0  0  0  0  0  0  0  0  0
  -47.1659   57.2206   63.0444 O   0  0  0  0  0  0  0  0  0  0  0  0
  -46.3111   59.9817   61.1710 C   0  0  0  0  0  0  0  0  0  0  0  0
  -46.3523   60.5936   62.5624 C   0  0  0  0  0  0  0  0  0  0  0  0
  -45.0669   60.3022   63.3241 C   0  0  0  0  0  0  0  0  0  0  0  0
  -45.1351   60.9090   64.7223 C   0  0  0  0  0  0  0  0  0  0  0  0
  -46.2869   60.3217   65.5183 C   0  0  0  0  0  0  0  0  0  0  0  0
  -46.1420   58.8190   65.6970 C   0  0  0  0  0  0  0  0  0  0  0  0
  -47.3380   58.3370   66.4800 C   0  0  0  0  0  0  0  0  0  0  0  0
  -48.6910   58.5200   65.9370 C   0  0  0  0  0  0  0  0  0  0  0  0
  -49.8970   58.0544   66.7220 C   0  0  0  0  0  0  0  0  0  0  0  0
  -49.8087   56.5516   66.9851 C   0  0  0  0  0  0  0  0  0  0  0  0
  -51.0045   56.0056   67.7608 C   0  0  0  0  0  0  0  0  0  0  0  0
  -50.8702   54.5025   68.0189 C   0  0  0  0  0  0  0  0  0  0  0  0
  -52.0421   53.8713   68.7804 C   0  0  0  0  0  0  0  0  0  0  0  0
  -51.8354   52.3698   69.0199 C   0  0  0  0  0  0  0  0  0  0  0  0
  -53.0068   51.7241   69.7644 C   0  0  0  0  0  0  0  0  0  0  0  0
  -54.3391   51.8302   69.0125 C   0  0  0  0  0  0  0  0  0  0  0  0
  -46.1209   58.0654   60.2499 H   0  0  0  0  0  0  0  0  0  0  0  0
  -45.2569   58.2232   61.7622 H   0  0  0  0  0  0  0  0  0  0  0  0
  -46.3004   57.1019   63.3832 H   0  0  0  0  0  0  0  0  0  0  0  0
  -47.2197   60.2186   60.6581 H   0  0  0  0  0  0  0  0  0  0  0  0
  -45.4681   60.3831   60.6484 H   0  0  0  0  0  0  0  0  0  0  0  0
  -47.1797   60.1818   63.1016 H   0  0  0  0  0  0  0  0  0  0  0  0
  -46.4588   61.6539   62.4658 H   0  0  0  0  0  0  0  0  0  0  0  0
  -44.2386   60.7253   62.7950 H   0  0  0  0  0  0  0  0  0  0  0  0
  -44.9431   59.2428   63.4085 H   0  0  0  0  0  0  0  0  0  0  0  0
  -45.2725   61.9668   64.6377 H   0  0  0  0  0  0  0  0  0  0  0  0
  -44.2214   60.6878   65.2334 H   0  0  0  0  0  0  0  0  0  0  0  0
  -47.2024   60.5223   65.0020 H   0  0  0  0  0  0  0  0  0  0  0  0
  -46.2850   60.7734   66.4883 H   0  0  0  0  0  0  0  0  0  0  0  0
  -45.2422   58.6001   66.2331 H   0  0  0  0  0  0  0  0  0  0  0  0
  -46.0923   58.3300   64.7466 H   0  0  0  0  0  0  0  0  0  0  0  0
  -47.3129   58.8400   67.4241 H   0  0  0  0  0  0  0  0  0  0  0  0
  -47.2164   57.2740   66.4873 H   0  0  0  0  0  0  0  0  0  0  0  0
  -48.7179   58.0067   64.9986 H   0  0  0  0  0  0  0  0  0  0  0  0
  -48.8057   59.5838   65.9236 H   0  0  0  0  0  0  0  0  0  0  0  0
  -50.7849   58.2635   66.1626 H   0  0  0  0  0  0  0  0  0  0  0  0
  -49.9244   58.5714   67.6584 H   0  0  0  0  0  0  0  0  0  0  0  0
  -48.9202   56.3566   67.5485 H   0  0  0  0  0  0  0  0  0  0  0  0
  -49.7968   56.0624   66.0336 H   0  0  0  0  0  0  0  0  0  0  0  0
  -51.8954   56.1826   67.1952 H   0  0  0  0  0  0  0  0  0  0  0  0
  -51.0465   56.5051   68.7062 H   0  0  0  0  0  0  0  0  0  0  0  0
  -49.9785   54.3413   68.5880 H   0  0  0  0  0  0  0  0  0  0  0  0
  -50.8494   54.0334   67.0574 H   0  0  0  0  0  0  0  0  0  0  0  0
  -52.9375   54.0095   68.2112 H   0  0  0  0  0  0  0  0  0  0  0  0
  -52.1099   54.3501   69.7349 H   0  0  0  0  0  0  0  0  0  0  0  0
  -50.9456   52.2346   69.5986 H   0  0  0  0  0  0  0  0  0  0  0  0
  -51.7603   51.8970   68.0629 H   0  0  0  0  0  0  0  0  0  0  0  0
  -53.1134   52.2074   70.7131 H   0  0  0  0  0  0  0  0  0  0  0  0
  -52.7823   50.6827   69.8639 H   0  0  0  0  0  0  0  0  0  0  0  0
  -54.5997   52.8610   68.8922 H   0  0  0  0  0  0  0  0  0  0  0  0
  -55.1041   51.3316   69.5702 H   0  0  0  0  0  0  0  0  0  0  0  0
  -54.2431   51.3720   68.0503 H   0  0  0  0  0  0  0  0  0  0  0  0
  1  2  2  0  0  0  0
  1  3  1  0  0  0  0
  1  4  1  0  0  0  0
  3  5  1  0  0  0  0
  3 21  1  0  0  0  0
  3 22  1  0  0  0  0
  4 23  1  0  0  0  0
  5  6  1  0  0  0  0
  5 24  1  0  0  0  0
  5 25  1  0  0  0  0
  6  7  1  0  0  0  0
  6 26  1  0  0  0  0
  6 27  1  0  0  0  0
  7  8  1  0  0  0  0
  7 28  1  0  0  0  0
  7 29  1  0  0  0  0
  8  9  1  0  0  0  0
  8 30  1  0  0  0  0
  8 31  1  0  0  0  0
  9 10  1  0  0  0  0
  9 32  1  0  0  0  0
  9 33  1  0  0  0  0
 10 11  1  0  0  0  0
 10 34  1  0  0  0  0
 10 35  1  0  0  0  0
 11 12  1  0  0  0  0
 11 36  1  0  0  0  0
 11 37  1  0  0  0  0
 12 13  1  0  0  0  0
 12 38  1  0  0  0  0
 12 39  1  0  0  0  0
 13 14  1  0  0  0  0
 13 40  1  0  0  0  0
 13 41  1  0  0  0  0
 14 15  1  0  0  0  0
 14 42  1  0  0  0  0
 14 43  1  0  0  0  0
 15 16  1  0  0  0  0
 15 44  1  0  0  0  0
 15 45  1  0  0  0  0
 16 17  1  0  0  0  0
 16 46  1  0  0  0  0
 16 47  1  0  0  0  0
 17 18  1  0  0  0  0
 17 48  1  0  0  0  0
 17 49  1  0  0  0  0
 18 19  1  0  0  0  0
 18 50  1  0  0  0  0
 18 51  1  0  0  0  0
 19 20  1  0  0  0  0
 19 52  1  0  0  0  0
 19 53  1  0  0  0  0
 20 54  1  0  0  0  0
 20 55  1  0  0  0  0
 20 56  1  0  0  0  0
M  END
$$$$