/media/chris/experiments/cd1a-new-docking/inputs/ligands/4x6d_1_ligand.pdb
 OpenBabel07012320263D

 56 55  0  0  0  0  0  0  0  0999 V2000
  -39.8400   62.4054   64.7725 C   0  0  0  0  0  0  0  0  0  0  0  0
  -39.9009   62.3119   66.0251 O   0  0  0  0  0  0  0  0  0  0  0  0
  -41.0610   62.8321   63.9811 C   0  0  0  0  0  0  0  0  0  0  0  0
  -38.7584   62.1469   64.1840 O   0  0  0  0  0  0  0  0  0  0  0  0
  -42.3258   62.3935   64.7122 C   0  0  0  0  0  0  0  0  0  0  0  0
  -42.3559   60.8847   64.8984 C   0  0  0  0  0  0  0  0  0  0  0  0
  -43.6277   60.4492   65.6129 C   0  0  0  0  0  0  0  0  0  0  0  0
  -43.6307   58.9356   65.8055 C   0  0  0  0  0  0  0  0  0  0  0  0
  -44.8989   58.4750   66.5016 C   0  0  0  0  0  0  0  0  0  0  0  0
  -46.1420   58.8190   65.6970 C   0  0  0  0  0  0  0  0  0  0  0  0
  -47.3380   58.3370   66.4800 C   0  0  0  0  0  0  0  0  0  0  0  0
  -48.6910   58.5200   65.9370 C   0  0  0  0  0  0  0  0  0  0  0  0
  -49.0768   57.8833   64.6205 C   0  0  0  0  0  0  0  0  0  0  0  0
  -50.5214   58.2342   64.2666 C   0  0  0  0  0  0  0  0  0  0  0  0
  -50.7548   59.7345   64.1102 C   0  0  0  0  0  0  0  0  0  0  0  0
  -49.8946   60.3249   62.9897 C   0  0  0  0  0  0  0  0  0  0  0  0
  -50.1557   59.7369   61.5977 C   0  0  0  0  0  0  0  0  0  0  0  0
  -49.2499   60.3594   60.5270 C   0  0  0  0  0  0  0  0  0  0  0  0
  -49.5129   59.7929   59.1293 C   0  0  0  0  0  0  0  0  0  0  0  0
  -48.6043   60.3915   58.0486 C   0  0  0  0  0  0  0  0  0  0  0  0
  -41.0341   62.3776   63.0128 H   0  0  0  0  0  0  0  0  0  0  0  0
  -41.0624   63.8971   63.8780 H   0  0  0  0  0  0  0  0  0  0  0  0
  -38.7050   62.2143   63.2509 H   0  0  0  0  0  0  0  0  0  0  0  0
  -43.1804   62.6922   64.1418 H   0  0  0  0  0  0  0  0  0  0  0  0
  -42.3374   62.8550   65.6775 H   0  0  0  0  0  0  0  0  0  0  0  0
  -41.5084   60.5867   65.4796 H   0  0  0  0  0  0  0  0  0  0  0  0
  -42.3305   60.4213   63.9343 H   0  0  0  0  0  0  0  0  0  0  0  0
  -44.4771   60.7329   65.0273 H   0  0  0  0  0  0  0  0  0  0  0  0
  -43.6702   60.9236   66.5711 H   0  0  0  0  0  0  0  0  0  0  0  0
  -42.7853   58.6574   66.3995 H   0  0  0  0  0  0  0  0  0  0  0  0
  -43.5837   58.4708   64.8428 H   0  0  0  0  0  0  0  0  0  0  0  0
  -44.9621   58.9519   67.4573 H   0  0  0  0  0  0  0  0  0  0  0  0
  -44.8537   57.4109   66.6046 H   0  0  0  0  0  0  0  0  0  0  0  0
  -46.1077   58.3309   64.7454 H   0  0  0  0  0  0  0  0  0  0  0  0
  -46.2020   59.8741   65.5296 H   0  0  0  0  0  0  0  0  0  0  0  0
  -47.3129   58.8400   67.4241 H   0  0  0  0  0  0  0  0  0  0  0  0
  -47.2164   57.2740   66.4873 H   0  0  0  0  0  0  0  0  0  0  0  0
  -48.8369   59.5739   65.8234 H   0  0  0  0  0  0  0  0  0  0  0  0
  -49.3084   58.0076   66.6449 H   0  0  0  0  0  0  0  0  0  0  0  0
  -48.9808   56.8206   64.7005 H   0  0  0  0  0  0  0  0  0  0  0  0
  -48.4300   58.2521   63.8520 H   0  0  0  0  0  0  0  0  0  0  0  0
  -51.1601   57.8699   65.0440 H   0  0  0  0  0  0  0  0  0  0  0  0
  -50.7372   57.7788   63.3227 H   0  0  0  0  0  0  0  0  0  0  0  0
  -50.5088   60.2219   65.0304 H   0  0  0  0  0  0  0  0  0  0  0  0
  -51.7834   59.8888   63.8591 H   0  0  0  0  0  0  0  0  0  0  0  0
  -48.8670   60.1550   63.2349 H   0  0  0  0  0  0  0  0  0  0  0  0
  -50.1498   61.3623   62.9302 H   0  0  0  0  0  0  0  0  0  0  0  0
  -51.1766   59.9178   61.3331 H   0  0  0  0  0  0  0  0  0  0  0  0
  -49.9441   58.6889   61.6385 H   0  0  0  0  0  0  0  0  0  0  0  0
  -48.2300   60.1678   60.7878 H   0  0  0  0  0  0  0  0  0  0  0  0
  -49.4597   61.4082   60.4957 H   0  0  0  0  0  0  0  0  0  0  0  0
  -50.5304   59.9954   58.8672 H   0  0  0  0  0  0  0  0  0  0  0  0
  -49.3067   58.7438   59.1698 H   0  0  0  0  0  0  0  0  0  0  0  0
  -48.7811   61.4443   57.9770 H   0  0  0  0  0  0  0  0  0  0  0  0
  -48.8172   59.9292   57.1074 H   0  0  0  0  0  0  0  0  0  0  0  0
  -47.5806   60.2185   58.3074 H   0  0  0  0  0  0  0  0  0  0  0  0
  1  2  2  0  0  0  0
  1  3  1  0  0  0  0
  1  4  1  0  0  0  0
  3  5  1  0  0  0  0
  3 21  1  0  0  0  0
  3 22  1  0  0  0  0
  4 23  1  0  0  0  0
  5  6  1  0  0  0  0
  5 24  1  0  0  0  0
  5 25  1  0  0  0  0
  6  7  1  0  0  0  0
  6 26  1  0  0  0  0
  6 27  1  0  0  0  0
  7  8  1  0  0  0  0
  7 28  1  0  0  0  0
  7 29  1  0  0  0  0
  8  9  1  0  0  0  0
  8 30  1  0  0  0  0
  8 31  1  0  0  0  0
  9 10  1  0  0  0  0
  9 32  1  0  0  0  0
  9 33  1  0  0  0  0
 10 11  1  0  0  0  0
 10 34  1  0  0  0  0
 10 35  1  0  0  0  0
 11 12  1  0  0  0  0
 11 36  1  0  0  0  0
 11 37  1  0  0  0  0
 12 13  1  0  0  0  0
 12 38  1  0  0  0  0
 12 39  1  0  0  0  0
 13 14  1  0  0  0  0
 13 40  1  0  0  0  0
 13 41  1  0  0  0  0
 14 15  1  0  0  0  0
 14 42  1  0  0  0  0
 14 43  1  0  0  0  0
 15 16  1  0  0  0  0
 15 44  1  0  0  0  0
 15 45  1  0  0  0  0
 16 17  1  0  0  0  0
 16 46  1  0  0  0  0
 16 47  1  0  0  0  0
 17 18  1  0  0  0  0
 17 48  1  0  0  0  0
 17 49  1  0  0  0  0
 18 19  1  0  0  0  0
 18 50  1  0  0  0  0
 18 51  1  0  0  0  0
 19 20  1  0  0  0  0
 19 52  1  0  0  0  0
 19 53  1  0  0  0  0
 20 54  1  0  0  0  0
 20 55  1  0  0  0  0
 20 56  1  0  0  0  0
M  END
$$$$