/media/chris/experiments/cd1a-new-docking/inputs/ligands/4x6d_1_ligand.pdb
 OpenBabel07012320263D

 56 55  0  0  0  0  0  0  0  0999 V2000
  -46.4359   64.7327   68.2696 C   0  0  0  0  0  0  0  0  0  0  0  0
  -47.4286   65.2982   67.7439 O   0  0  0  0  0  0  0  0  0  0  0  0
  -46.3813   63.2200   68.3596 C   0  0  0  0  0  0  0  0  0  0  0  0
  -45.4889   65.4314   68.7147 O   0  0  0  0  0  0  0  0  0  0  0  0
  -45.0903   62.7929   69.0504 C   0  0  0  0  0  0  0  0  0  0  0  0
  -44.9933   61.2783   69.1428 C   0  0  0  0  0  0  0  0  0  0  0  0
  -44.9957   60.6466   67.7577 C   0  0  0  0  0  0  0  0  0  0  0  0
  -44.9155   59.1273   67.8725 C   0  0  0  0  0  0  0  0  0  0  0  0
  -44.8989   58.4750   66.5016 C   0  0  0  0  0  0  0  0  0  0  0  0
  -46.1420   58.8190   65.6970 C   0  0  0  0  0  0  0  0  0  0  0  0
  -47.3380   58.3370   66.4800 C   0  0  0  0  0  0  0  0  0  0  0  0
  -48.6910   58.5200   65.9370 C   0  0  0  0  0  0  0  0  0  0  0  0
  -49.2055   59.9072   65.6232 C   0  0  0  0  0  0  0  0  0  0  0  0
  -48.3233   60.5721   64.5673 C   0  0  0  0  0  0  0  0  0  0  0  0
  -48.7733   61.9865   64.2115 C   0  0  0  0  0  0  0  0  0  0  0  0
  -47.8759   62.6107   63.1396 C   0  0  0  0  0  0  0  0  0  0  0  0
  -47.8464   61.8576   61.8041 C   0  0  0  0  0  0  0  0  0  0  0  0
  -49.2331   61.7814   61.1516 C   0  0  0  0  0  0  0  0  0  0  0  0
  -49.2201   61.0167   59.8254 C   0  0  0  0  0  0  0  0  0  0  0  0
  -48.7634   59.5597   59.9670 C   0  0  0  0  0  0  0  0  0  0  0  0
  -46.4123   62.8037   67.3744 H   0  0  0  0  0  0  0  0  0  0  0  0
  -47.2190   62.8680   68.9246 H   0  0  0  0  0  0  0  0  0  0  0  0
  -44.7458   65.0176   69.1078 H   0  0  0  0  0  0  0  0  0  0  0  0
  -45.0693   63.2052   70.0375 H   0  0  0  0  0  0  0  0  0  0  0  0
  -44.2626   63.1517   68.4749 H   0  0  0  0  0  0  0  0  0  0  0  0
  -45.8293   60.9072   69.6982 H   0  0  0  0  0  0  0  0  0  0  0  0
  -44.0763   61.0243   69.6321 H   0  0  0  0  0  0  0  0  0  0  0  0
  -44.1526   61.0045   67.2044 H   0  0  0  0  0  0  0  0  0  0  0  0
  -45.9018   60.9118   67.2541 H   0  0  0  0  0  0  0  0  0  0  0  0
  -45.7651   58.7728   68.4178 H   0  0  0  0  0  0  0  0  0  0  0  0
  -44.0090   58.8726   68.3807 H   0  0  0  0  0  0  0  0  0  0  0  0
  -44.8486   57.4132   66.6239 H   0  0  0  0  0  0  0  0  0  0  0  0
  -44.0464   58.8419   65.9692 H   0  0  0  0  0  0  0  0  0  0  0  0
  -46.1077   58.3309   64.7454 H   0  0  0  0  0  0  0  0  0  0  0  0
  -46.2020   59.8741   65.5296 H   0  0  0  0  0  0  0  0  0  0  0  0
  -47.3129   58.8400   67.4241 H   0  0  0  0  0  0  0  0  0  0  0  0
  -47.2164   57.2740   66.4873 H   0  0  0  0  0  0  0  0  0  0  0  0
  -49.3680   58.0944   66.6480 H   0  0  0  0  0  0  0  0  0  0  0  0
  -48.6304   58.0595   64.9731 H   0  0  0  0  0  0  0  0  0  0  0  0
  -49.1949   60.4980   66.5153 H   0  0  0  0  0  0  0  0  0  0  0  0
  -50.2040   59.8318   65.2462 H   0  0  0  0  0  0  0  0  0  0  0  0
  -48.3461   59.9747   63.6799 H   0  0  0  0  0  0  0  0  0  0  0  0
  -47.3375   60.6457   64.9770 H   0  0  0  0  0  0  0  0  0  0  0  0
  -48.7372   62.5941   65.0916 H   0  0  0  0  0  0  0  0  0  0  0  0
  -49.7695   61.9334   63.8246 H   0  0  0  0  0  0  0  0  0  0  0  0
  -46.8774   62.6479   63.5224 H   0  0  0  0  0  0  0  0  0  0  0  0
  -48.2854   63.5769   62.9305 H   0  0  0  0  0  0  0  0  0  0  0  0
  -47.4917   60.8630   61.9770 H   0  0  0  0  0  0  0  0  0  0  0  0
  -47.1994   62.3915   61.1399 H   0  0  0  0  0  0  0  0  0  0  0  0
  -49.5810   62.7767   60.9696 H   0  0  0  0  0  0  0  0  0  0  0  0
  -49.8779   61.2537   61.8229 H   0  0  0  0  0  0  0  0  0  0  0  0
  -48.5555   61.5166   59.1522 H   0  0  0  0  0  0  0  0  0  0  0  0
  -50.2262   60.9985   59.4615 H   0  0  0  0  0  0  0  0  0  0  0  0
  -47.7572   59.5350   60.3303 H   0  0  0  0  0  0  0  0  0  0  0  0
  -48.8102   59.0769   59.0132 H   0  0  0  0  0  0  0  0  0  0  0  0
  -49.4041   59.0504   60.6563 H   0  0  0  0  0  0  0  0  0  0  0  0
  1  2  2  0  0  0  0
  1  3  1  0  0  0  0
  1  4  1  0  0  0  0
  3  5  1  0  0  0  0
  3 21  1  0  0  0  0
  3 22  1  0  0  0  0
  4 23  1  0  0  0  0
  5  6  1  0  0  0  0
  5 24  1  0  0  0  0
  5 25  1  0  0  0  0
  6  7  1  0  0  0  0
  6 26  1  0  0  0  0
  6 27  1  0  0  0  0
  7  8  1  0  0  0  0
  7 28  1  0  0  0  0
  7 29  1  0  0  0  0
  8  9  1  0  0  0  0
  8 30  1  0  0  0  0
  8 31  1  0  0  0  0
  9 10  1  0  0  0  0
  9 32  1  0  0  0  0
  9 33  1  0  0  0  0
 10 11  1  0  0  0  0
 10 34  1  0  0  0  0
 10 35  1  0  0  0  0
 11 12  1  0  0  0  0
 11 36  1  0  0  0  0
 11 37  1  0  0  0  0
 12 13  1  0  0  0  0
 12 38  1  0  0  0  0
 12 39  1  0  0  0  0
 13 14  1  0  0  0  0
 13 40  1  0  0  0  0
 13 41  1  0  0  0  0
 14 15  1  0  0  0  0
 14 42  1  0  0  0  0
 14 43  1  0  0  0  0
 15 16  1  0  0  0  0
 15 44  1  0  0  0  0
 15 45  1  0  0  0  0
 16 17  1  0  0  0  0
 16 46  1  0  0  0  0
 16 47  1  0  0  0  0
 17 18  1  0  0  0  0
 17 48  1  0  0  0  0
 17 49  1  0  0  0  0
 18 19  1  0  0  0  0
 18 50  1  0  0  0  0
 18 51  1  0  0  0  0
 19 20  1  0  0  0  0
 19 52  1  0  0  0  0
 19 53  1  0  0  0  0
 20 54  1  0  0  0  0
 20 55  1  0  0  0  0
 20 56  1  0  0  0  0
M  END
$$$$
/media/chris/experiments/cd1a-new-docking/inputs/ligands/4x6d_1_ligand.pdb
 OpenBabel07012320263D

 56 55  0  0  0  0  0  0  0  0999 V2000
  -39.6746   56.6037   65.4925 C   0  0  0  0  0  0  0  0  0  0  0  0
  -38.5830   56.3699   64.9132 O   0  0  0  0  0  0  0  0  0  0  0  0
  -40.9174   56.9089   64.6792 C   0  0  0  0  0  0  0  0  0  0  0  0
  -39.7267   56.5777   66.7494 O   0  0  0  0  0  0  0  0  0  0  0  0
  -42.1540   56.4267   65.4306 C   0  0  0  0  0  0  0  0  0  0  0  0
  -43.4205   56.7013   64.6351 C   0  0  0  0  0  0  0  0  0  0  0  0
  -44.6536   56.2343   65.3959 C   0  0  0  0  0  0  0  0  0  0  0  0
  -44.7660   56.9788   66.7229 C   0  0  0  0  0  0  0  0  0  0  0  0
  -44.8989   58.4750   66.5016 C   0  0  0  0  0  0  0  0  0  0  0  0
  -46.1420   58.8190   65.6970 C   0  0  0  0  0  0  0  0  0  0  0  0
  -47.3380   58.3370   66.4800 C   0  0  0  0  0  0  0  0  0  0  0  0
  -48.6910   58.5200   65.9370 C   0  0  0  0  0  0  0  0  0  0  0  0
  -49.0768   57.8833   64.6205 C   0  0  0  0  0  0  0  0  0  0  0  0
  -48.9503   56.3630   64.7112 C   0  0  0  0  0  0  0  0  0  0  0  0
  -49.3083   55.6511   63.4094 C   0  0  0  0  0  0  0  0  0  0  0  0
  -50.7458   55.9542   62.9781 C   0  0  0  0  0  0  0  0  0  0  0  0
  -51.0411   57.4354   62.7128 C   0  0  0  0  0  0  0  0  0  0  0  0
  -50.1703   58.0067   61.5860 C   0  0  0  0  0  0  0  0  0  0  0  0
  -50.4436   59.4898   61.3230 C   0  0  0  0  0  0  0  0  0  0  0  0
  -50.1660   60.3849   62.5368 C   0  0  0  0  0  0  0  0  0  0  0  0
  -40.8568   56.4083   63.7355 H   0  0  0  0  0  0  0  0  0  0  0  0
  -40.9876   57.9649   64.5216 H   0  0  0  0  0  0  0  0  0  0  0  0
  -40.5362   56.7508   67.1883 H   0  0  0  0  0  0  0  0  0  0  0  0
  -42.2135   56.9369   66.3692 H   0  0  0  0  0  0  0  0  0  0  0  0
  -42.0697   55.3706   65.5809 H   0  0  0  0  0  0  0  0  0  0  0  0
  -43.3672   56.1810   63.7016 H   0  0  0  0  0  0  0  0  0  0  0  0
  -43.4991   57.7558   64.4721 H   0  0  0  0  0  0  0  0  0  0  0  0
  -44.5758   55.1841   65.5851 H   0  0  0  0  0  0  0  0  0  0  0  0
  -45.5244   56.4354   64.8074 H   0  0  0  0  0  0  0  0  0  0  0  0
  -43.8890   56.7884   67.3056 H   0  0  0  0  0  0  0  0  0  0  0  0
  -45.6400   56.6322   67.2337 H   0  0  0  0  0  0  0  0  0  0  0  0
  -44.0367   58.8248   65.9732 H   0  0  0  0  0  0  0  0  0  0  0  0
  -44.9814   58.9465   67.4585 H   0  0  0  0  0  0  0  0  0  0  0  0
  -46.1077   58.3309   64.7454 H   0  0  0  0  0  0  0  0  0  0  0  0
  -46.2020   59.8741   65.5296 H   0  0  0  0  0  0  0  0  0  0  0  0
  -47.3129   58.8400   67.4241 H   0  0  0  0  0  0  0  0  0  0  0  0
  -47.2164   57.2740   66.4873 H   0  0  0  0  0  0  0  0  0  0  0  0
  -48.8369   59.5739   65.8234 H   0  0  0  0  0  0  0  0  0  0  0  0
  -49.3084   58.0076   66.6449 H   0  0  0  0  0  0  0  0  0  0  0  0
  -48.4296   58.2462   63.8495 H   0  0  0  0  0  0  0  0  0  0  0  0
  -50.0918   58.1359   64.3951 H   0  0  0  0  0  0  0  0  0  0  0  0
  -49.6051   56.0127   65.4816 H   0  0  0  0  0  0  0  0  0  0  0  0
  -47.9253   56.1413   64.9233 H   0  0  0  0  0  0  0  0  0  0  0  0
  -49.2034   54.5956   63.5506 H   0  0  0  0  0  0  0  0  0  0  0  0
  -48.6482   56.0017   62.6437 H   0  0  0  0  0  0  0  0  0  0  0  0
  -51.4031   55.6176   63.7524 H   0  0  0  0  0  0  0  0  0  0  0  0
  -50.8932   55.4472   62.0475 H   0  0  0  0  0  0  0  0  0  0  0  0
  -50.8535   57.9900   63.6084 H   0  0  0  0  0  0  0  0  0  0  0  0
  -52.0645   57.5176   62.4113 H   0  0  0  0  0  0  0  0  0  0  0  0
  -50.3677   57.4578   60.6889 H   0  0  0  0  0  0  0  0  0  0  0  0
  -49.1482   57.9149   61.8889 H   0  0  0  0  0  0  0  0  0  0  0  0
  -51.4714   59.6016   61.0472 H   0  0  0  0  0  0  0  0  0  0  0  0
  -49.7796   59.7999   60.5434 H   0  0  0  0  0  0  0  0  0  0  0  0
  -50.8130   60.1051   63.3418 H   0  0  0  0  0  0  0  0  0  0  0  0
  -50.3442   61.4068   62.2747 H   0  0  0  0  0  0  0  0  0  0  0  0
  -49.1469   60.2672   62.8410 H   0  0  0  0  0  0  0  0  0  0  0  0
  1  2  2  0  0  0  0
  1  3  1  0  0  0  0
  1  4  1  0  0  0  0
  3  5  1  0  0  0  0
  3 21  1  0  0  0  0
  3 22  1  0  0  0  0
  4 23  1  0  0  0  0
  5  6  1  0  0  0  0
  5 24  1  0  0  0  0
  5 25  1  0  0  0  0
  6  7  1  0  0  0  0
  6 26  1  0  0  0  0
  6 27  1  0  0  0  0
  7  8  1  0  0  0  0
  7 28  1  0  0  0  0
  7 29  1  0  0  0  0
  8  9  1  0  0  0  0
  8 30  1  0  0  0  0
  8 31  1  0  0  0  0
  9 10  1  0  0  0  0
  9 32  1  0  0  0  0
  9 33  1  0  0  0  0
 10 11  1  0  0  0  0
 10 34  1  0  0  0  0
 10 35  1  0  0  0  0
 11 12  1  0  0  0  0
 11 36  1  0  0  0  0
 11 37  1  0  0  0  0
 12 13  1  0  0  0  0
 12 38  1  0  0  0  0
 12 39  1  0  0  0  0
 13 14  1  0  0  0  0
 13 40  1  0  0  0  0
 13 41  1  0  0  0  0
 14 15  1  0  0  0  0
 14 42  1  0  0  0  0
 14 43  1  0  0  0  0
 15 16  1  0  0  0  0
 15 44  1  0  0  0  0
 15 45  1  0  0  0  0
 16 17  1  0  0  0  0
 16 46  1  0  0  0  0
 16 47  1  0  0  0  0
 17 18  1  0  0  0  0
 17 48  1  0  0  0  0
 17 49  1  0  0  0  0
 18 19  1  0  0  0  0
 18 50  1  0  0  0  0
 18 51  1  0  0  0  0
 19 20  1  0  0  0  0
 19 52  1  0  0  0  0
 19 53  1  0  0  0  0
 20 54  1  0  0  0  0
 20 55  1  0  0  0  0
 20 56  1  0  0  0  0
M  END
$$$$
/media/chris/experiments/cd1a-new-docking/inputs/ligands/4x6d_1_ligand.pdb
 OpenBabel07012320263D

 56 55  0  0  0  0  0  0  0  0999 V2000
  -43.1148   53.9696   61.9559 C   0  0  0  0  0  0  0  0  0  0  0  0
  -42.5238   52.8661   61.8345 O   0  0  0  0  0  0  0  0  0  0  0  0
  -43.2869   54.5937   63.3270 C   0  0  0  0  0  0  0  0  0  0  0  0
  -43.5568   54.5514   60.9315 O   0  0  0  0  0  0  0  0  0  0  0  0
  -43.3046   56.1136   63.2007 C   0  0  0  0  0  0  0  0  0  0  0  0
  -43.4587   56.7749   64.5613 C   0  0  0  0  0  0  0  0  0  0  0  0
  -43.4934   58.2911   64.4294 C   0  0  0  0  0  0  0  0  0  0  0  0
  -43.6307   58.9356   65.8055 C   0  0  0  0  0  0  0  0  0  0  0  0
  -44.8989   58.4750   66.5016 C   0  0  0  0  0  0  0  0  0  0  0  0
  -46.1420   58.8190   65.6970 C   0  0  0  0  0  0  0  0  0  0  0  0
  -47.3380   58.3370   66.4800 C   0  0  0  0  0  0  0  0  0  0  0  0
  -48.6910   58.5200   65.9370 C   0  0  0  0  0  0  0  0  0  0  0  0
  -49.0768   57.8833   64.6205 C   0  0  0  0  0  0  0  0  0  0  0  0
  -48.9503   56.3630   64.7112 C   0  0  0  0  0  0  0  0  0  0  0  0
  -49.3083   55.6511   63.4094 C   0  0  0  0  0  0  0  0  0  0  0  0
  -49.1860   54.1311   63.5462 C   0  0  0  0  0  0  0  0  0  0  0  0
  -47.7899   53.6283   63.9331 C   0  0  0  0  0  0  0  0  0  0  0  0
  -47.3325   54.1772   65.2910 C   0  0  0  0  0  0  0  0  0  0  0  0
  -48.2582   53.7621   66.4375 C   0  0  0  0  0  0  0  0  0  0  0  0
  -47.8259   54.3162   67.8005 C   0  0  0  0  0  0  0  0  0  0  0  0
  -42.4739   54.2985   63.9568 H   0  0  0  0  0  0  0  0  0  0  0  0
  -44.2104   54.2626   63.7540 H   0  0  0  0  0  0  0  0  0  0  0  0
  -43.9983   55.3738   61.0137 H   0  0  0  0  0  0  0  0  0  0  0  0
  -44.1245   56.4028   62.5770 H   0  0  0  0  0  0  0  0  0  0  0  0
  -42.3763   56.4297   62.7727 H   0  0  0  0  0  0  0  0  0  0  0  0
  -42.6324   56.4963   65.1815 H   0  0  0  0  0  0  0  0  0  0  0  0
  -44.3802   56.4491   64.9967 H   0  0  0  0  0  0  0  0  0  0  0  0
  -44.3272   58.5742   63.8215 H   0  0  0  0  0  0  0  0  0  0  0  0
  -42.5825   58.6236   63.9769 H   0  0  0  0  0  0  0  0  0  0  0  0
  -43.6612   59.9991   65.6916 H   0  0  0  0  0  0  0  0  0  0  0  0
  -42.7912   58.6449   66.4019 H   0  0  0  0  0  0  0  0  0  0  0  0
  -44.9621   58.9519   67.4573 H   0  0  0  0  0  0  0  0  0  0  0  0
  -44.8537   57.4109   66.6046 H   0  0  0  0  0  0  0  0  0  0  0  0
  -46.1077   58.3309   64.7454 H   0  0  0  0  0  0  0  0  0  0  0  0
  -46.2020   59.8741   65.5296 H   0  0  0  0  0  0  0  0  0  0  0  0
  -47.3129   58.8400   67.4241 H   0  0  0  0  0  0  0  0  0  0  0  0
  -47.2164   57.2740   66.4873 H   0  0  0  0  0  0  0  0  0  0  0  0
  -48.8369   59.5739   65.8234 H   0  0  0  0  0  0  0  0  0  0  0  0
  -49.3084   58.0076   66.6449 H   0  0  0  0  0  0  0  0  0  0  0  0
  -48.4296   58.2462   63.8495 H   0  0  0  0  0  0  0  0  0  0  0  0
  -50.0918   58.1359   64.3951 H   0  0  0  0  0  0  0  0  0  0  0  0
  -49.6051   56.0127   65.4816 H   0  0  0  0  0  0  0  0  0  0  0  0
  -47.9253   56.1413   64.9233 H   0  0  0  0  0  0  0  0  0  0  0  0
  -48.6463   55.9847   62.6378 H   0  0  0  0  0  0  0  0  0  0  0  0
  -50.3244   55.8847   63.1686 H   0  0  0  0  0  0  0  0  0  0  0  0
  -49.4497   53.6905   62.6075 H   0  0  0  0  0  0  0  0  0  0  0  0
  -49.8391   53.8480   64.3451 H   0  0  0  0  0  0  0  0  0  0  0  0
  -47.0920   53.9379   63.1834 H   0  0  0  0  0  0  0  0  0  0  0  0
  -47.8335   52.5618   64.0075 H   0  0  0  0  0  0  0  0  0  0  0  0
  -47.3104   55.2457   65.2386 H   0  0  0  0  0  0  0  0  0  0  0  0
  -46.3637   53.7711   65.4944 H   0  0  0  0  0  0  0  0  0  0  0  0
  -48.2699   52.6936   66.4941 H   0  0  0  0  0  0  0  0  0  0  0  0
  -49.2257   54.1665   66.2246 H   0  0  0  0  0  0  0  0  0  0  0  0
  -46.8585   53.9334   68.0506 H   0  0  0  0  0  0  0  0  0  0  0  0
  -48.5316   54.0174   68.5472 H   0  0  0  0  0  0  0  0  0  0  0  0
  -47.7858   55.3845   67.7547 H   0  0  0  0  0  0  0  0  0  0  0  0
  1  2  2  0  0  0  0
  1  3  1  0  0  0  0
  1  4  1  0  0  0  0
  3  5  1  0  0  0  0
  3 21  1  0  0  0  0
  3 22  1  0  0  0  0
  4 23  1  0  0  0  0
  5  6  1  0  0  0  0
  5 24  1  0  0  0  0
  5 25  1  0  0  0  0
  6  7  1  0  0  0  0
  6 26  1  0  0  0  0
  6 27  1  0  0  0  0
  7  8  1  0  0  0  0
  7 28  1  0  0  0  0
  7 29  1  0  0  0  0
  8  9  1  0  0  0  0
  8 30  1  0  0  0  0
  8 31  1  0  0  0  0
  9 10  1  0  0  0  0
  9 32  1  0  0  0  0
  9 33  1  0  0  0  0
 10 11  1  0  0  0  0
 10 34  1  0  0  0  0
 10 35  1  0  0  0  0
 11 12  1  0  0  0  0
 11 36  1  0  0  0  0
 11 37  1  0  0  0  0
 12 13  1  0  0  0  0
 12 38  1  0  0  0  0
 12 39  1  0  0  0  0
 13 14  1  0  0  0  0
 13 40  1  0  0  0  0
 13 41  1  0  0  0  0
 14 15  1  0  0  0  0
 14 42  1  0  0  0  0
 14 43  1  0  0  0  0
 15 16  1  0  0  0  0
 15 44  1  0  0  0  0
 15 45  1  0  0  0  0
 16 17  1  0  0  0  0
 16 46  1  0  0  0  0
 16 47  1  0  0  0  0
 17 18  1  0  0  0  0
 17 48  1  0  0  0  0
 17 49  1  0  0  0  0
 18 19  1  0  0  0  0
 18 50  1  0  0  0  0
 18 51  1  0  0  0  0
 19 20  1  0  0  0  0
 19 52  1  0  0  0  0
 19 53  1  0  0  0  0
 20 54  1  0  0  0  0
 20 55  1  0  0  0  0
 20 56  1  0  0  0  0
M  END
$$$$
/media/chris/experiments/cd1a-new-docking/inputs/ligands/4x6d_1_ligand.pdb
 OpenBabel07012320263D

 56 55  0  0  0  0  0  0  0  0999 V2000
  -47.2745   59.0511   70.9366 C   0  0  0  0  0  0  0  0  0  0  0  0
  -48.1857   59.8523   71.2673 O   0  0  0  0  0  0  0  0  0  0  0  0
  -46.0977   59.5355   70.1121 C   0  0  0  0  0  0  0  0  0  0  0  0
  -47.3457   57.8483   71.2990 O   0  0  0  0  0  0  0  0  0  0  0  0
  -46.2557   61.0235   69.8165 C   0  0  0  0  0  0  0  0  0  0  0  0
  -45.0998   61.5408   68.9749 C   0  0  0  0  0  0  0  0  0  0  0  0
  -45.0340   60.8182   67.6366 C   0  0  0  0  0  0  0  0  0  0  0  0
  -46.3218   61.0478   66.8512 C   0  0  0  0  0  0  0  0  0  0  0  0
  -46.2869   60.3217   65.5183 C   0  0  0  0  0  0  0  0  0  0  0  0
  -46.1420   58.8190   65.6970 C   0  0  0  0  0  0  0  0  0  0  0  0
  -47.3380   58.3370   66.4800 C   0  0  0  0  0  0  0  0  0  0  0  0
  -48.6910   58.5200   65.9370 C   0  0  0  0  0  0  0  0  0  0  0  0
  -49.8970   58.0544   66.7220 C   0  0  0  0  0  0  0  0  0  0  0  0
  -49.8087   56.5516   66.9851 C   0  0  0  0  0  0  0  0  0  0  0  0
  -48.5795   56.1547   67.7983 C   0  0  0  0  0  0  0  0  0  0  0  0
  -48.5762   56.8215   69.1765 C   0  0  0  0  0  0  0  0  0  0  0  0
  -49.7719   56.4658   70.0683 C   0  0  0  0  0  0  0  0  0  0  0  0
  -49.8453   54.9623   70.3659 C   0  0  0  0  0  0  0  0  0  0  0  0
  -48.6068   54.4452   71.1025 C   0  0  0  0  0  0  0  0  0  0  0  0
  -48.3857   55.1130   72.4652 C   0  0  0  0  0  0  0  0  0  0  0  0
  -46.0607   58.9918   69.1912 H   0  0  0  0  0  0  0  0  0  0  0  0
  -45.1921   59.3769   70.6594 H   0  0  0  0  0  0  0  0  0  0  0  0
  -46.6708   57.2452   71.0566 H   0  0  0  0  0  0  0  0  0  0  0  0
  -46.2836   61.5622   70.7406 H   0  0  0  0  0  0  0  0  0  0  0  0
  -47.1644   61.1665   69.2699 H   0  0  0  0  0  0  0  0  0  0  0  0
  -44.1832   61.3822   69.5037 H   0  0  0  0  0  0  0  0  0  0  0  0
  -45.2509   62.5842   68.7922 H   0  0  0  0  0  0  0  0  0  0  0  0
  -44.9058   59.7697   67.8068 H   0  0  0  0  0  0  0  0  0  0  0  0
  -44.2083   61.2000   67.0733 H   0  0  0  0  0  0  0  0  0  0  0  0
  -46.4412   62.0964   66.6748 H   0  0  0  0  0  0  0  0  0  0  0  0
  -47.1414   60.6668   67.4241 H   0  0  0  0  0  0  0  0  0  0  0  0
  -45.4571   60.6841   64.9482 H   0  0  0  0  0  0  0  0  0  0  0  0
  -47.2116   60.5087   65.0136 H   0  0  0  0  0  0  0  0  0  0  0  0
  -45.2422   58.6001   66.2331 H   0  0  0  0  0  0  0  0  0  0  0  0
  -46.0923   58.3300   64.7466 H   0  0  0  0  0  0  0  0  0  0  0  0
  -47.3129   58.8400   67.4241 H   0  0  0  0  0  0  0  0  0  0  0  0
  -47.2164   57.2740   66.4873 H   0  0  0  0  0  0  0  0  0  0  0  0
  -48.7179   58.0067   64.9986 H   0  0  0  0  0  0  0  0  0  0  0  0
  -48.8057   59.5838   65.9236 H   0  0  0  0  0  0  0  0  0  0  0  0
  -50.7849   58.2635   66.1626 H   0  0  0  0  0  0  0  0  0  0  0  0
  -49.9244   58.5714   67.6584 H   0  0  0  0  0  0  0  0  0  0  0  0
  -49.7728   56.0431   66.0443 H   0  0  0  0  0  0  0  0  0  0  0  0
  -50.6704   56.2778   67.5573 H   0  0  0  0  0  0  0  0  0  0  0  0
  -47.7002   56.4526   67.2663 H   0  0  0  0  0  0  0  0  0  0  0  0
  -48.5998   55.0943   67.9396 H   0  0  0  0  0  0  0  0  0  0  0  0
  -48.5723   57.8818   69.0329 H   0  0  0  0  0  0  0  0  0  0  0  0
  -47.7058   56.4597   69.6829 H   0  0  0  0  0  0  0  0  0  0  0  0
  -50.6722   56.7634   69.5726 H   0  0  0  0  0  0  0  0  0  0  0  0
  -49.6520   56.9797   70.9992 H   0  0  0  0  0  0  0  0  0  0  0  0
  -49.9383   54.4341   69.4400 H   0  0  0  0  0  0  0  0  0  0  0  0
  -50.6909   54.7991   71.0009 H   0  0  0  0  0  0  0  0  0  0  0  0
  -47.7477   54.6285   70.4916 H   0  0  0  0  0  0  0  0  0  0  0  0
  -48.7595   53.4017   71.2831 H   0  0  0  0  0  0  0  0  0  0  0  0
  -48.2286   56.1623   72.3269 H   0  0  0  0  0  0  0  0  0  0  0  0
  -47.5275   54.6831   72.9379 H   0  0  0  0  0  0  0  0  0  0  0  0
  -49.2468   54.9594   73.0815 H   0  0  0  0  0  0  0  0  0  0  0  0
  1  2  2  0  0  0  0
  1  3  1  0  0  0  0
  1  4  1  0  0  0  0
  3  5  1  0  0  0  0
  3 21  1  0  0  0  0
  3 22  1  0  0  0  0
  4 23  1  0  0  0  0
  5  6  1  0  0  0  0
  5 24  1  0  0  0  0
  5 25  1  0  0  0  0
  6  7  1  0  0  0  0
  6 26  1  0  0  0  0
  6 27  1  0  0  0  0
  7  8  1  0  0  0  0
  7 28  1  0  0  0  0
  7 29  1  0  0  0  0
  8  9  1  0  0  0  0
  8 30  1  0  0  0  0
  8 31  1  0  0  0  0
  9 10  1  0  0  0  0
  9 32  1  0  0  0  0
  9 33  1  0  0  0  0
 10 11  1  0  0  0  0
 10 34  1  0  0  0  0
 10 35  1  0  0  0  0
 11 12  1  0  0  0  0
 11 36  1  0  0  0  0
 11 37  1  0  0  0  0
 12 13  1  0  0  0  0
 12 38  1  0  0  0  0
 12 39  1  0  0  0  0
 13 14  1  0  0  0  0
 13 40  1  0  0  0  0
 13 41  1  0  0  0  0
 14 15  1  0  0  0  0
 14 42  1  0  0  0  0
 14 43  1  0  0  0  0
 15 16  1  0  0  0  0
 15 44  1  0  0  0  0
 15 45  1  0  0  0  0
 16 17  1  0  0  0  0
 16 46  1  0  0  0  0
 16 47  1  0  0  0  0
 17 18  1  0  0  0  0
 17 48  1  0  0  0  0
 17 49  1  0  0  0  0
 18 19  1  0  0  0  0
 18 50  1  0  0  0  0
 18 51  1  0  0  0  0
 19 20  1  0  0  0  0
 19 52  1  0  0  0  0
 19 53  1  0  0  0  0
 20 54  1  0  0  0  0
 20 55  1  0  0  0  0
 20 56  1  0  0  0  0
M  END
$$$$
/media/chris/experiments/cd1a-new-docking/inputs/ligands/4x6d_1_ligand.pdb
 OpenBabel07012320263D

 56 55  0  0  0  0  0  0  0  0999 V2000
  -44.1291   65.0072   67.8598 C   0  0  0  0  0  0  0  0  0  0  0  0
  -43.9154   65.4664   69.0110 O   0  0  0  0  0  0  0  0  0  0  0  0
  -45.4530   65.2708   67.1693 C   0  0  0  0  0  0  0  0  0  0  0  0
  -43.2350   64.3329   67.2862 O   0  0  0  0  0  0  0  0  0  0  0  0
  -45.4628   64.5943   65.8023 C   0  0  0  0  0  0  0  0  0  0  0  0
  -45.2944   63.0888   65.9345 C   0  0  0  0  0  0  0  0  0  0  0  0
  -45.2873   62.4192   64.5674 C   0  0  0  0  0  0  0  0  0  0  0  0
  -45.1351   60.9090   64.7223 C   0  0  0  0  0  0  0  0  0  0  0  0
  -46.2869   60.3217   65.5183 C   0  0  0  0  0  0  0  0  0  0  0  0
  -46.1420   58.8190   65.6970 C   0  0  0  0  0  0  0  0  0  0  0  0
  -47.3380   58.3370   66.4800 C   0  0  0  0  0  0  0  0  0  0  0  0
  -48.6910   58.5200   65.9370 C   0  0  0  0  0  0  0  0  0  0  0  0
  -49.0768   57.8833   64.6205 C   0  0  0  0  0  0  0  0  0  0  0  0
  -50.5214   58.2342   64.2666 C   0  0  0  0  0  0  0  0  0  0  0  0
  -50.7548   59.7345   64.1102 C   0  0  0  0  0  0  0  0  0  0  0  0
  -49.8946   60.3249   62.9897 C   0  0  0  0  0  0  0  0  0  0  0  0
  -50.0576   61.8349   62.7785 C   0  0  0  0  0  0  0  0  0  0  0  0
  -51.5035   62.2191   62.4373 C   0  0  0  0  0  0  0  0  0  0  0  0
  -52.0119   61.5342   61.1660 C   0  0  0  0  0  0  0  0  0  0  0  0
  -53.4502   61.9199   60.8000 C   0  0  0  0  0  0  0  0  0  0  0  0
  -45.5859   66.3252   67.0453 H   0  0  0  0  0  0  0  0  0  0  0  0
  -46.2488   64.8762   67.7658 H   0  0  0  0  0  0  0  0  0  0  0  0
  -43.3866   63.9873   66.4285 H   0  0  0  0  0  0  0  0  0  0  0  0
  -44.6596   64.9852   65.2133 H   0  0  0  0  0  0  0  0  0  0  0  0
  -46.4041   64.7907   65.3329 H   0  0  0  0  0  0  0  0  0  0  0  0
  -46.1042   62.6955   66.5128 H   0  0  0  0  0  0  0  0  0  0  0  0
  -44.3596   62.8911   66.4162 H   0  0  0  0  0  0  0  0  0  0  0  0
  -44.4697   62.7998   63.9915 H   0  0  0  0  0  0  0  0  0  0  0  0
  -46.2118   62.6283   64.0709 H   0  0  0  0  0  0  0  0  0  0  0  0
  -44.2170   60.7008   65.2309 H   0  0  0  0  0  0  0  0  0  0  0  0
  -45.1347   60.4661   63.7483 H   0  0  0  0  0  0  0  0  0  0  0  0
  -47.2024   60.5223   65.0020 H   0  0  0  0  0  0  0  0  0  0  0  0
  -46.2850   60.7734   66.4883 H   0  0  0  0  0  0  0  0  0  0  0  0
  -45.2422   58.6001   66.2331 H   0  0  0  0  0  0  0  0  0  0  0  0
  -46.0923   58.3300   64.7466 H   0  0  0  0  0  0  0  0  0  0  0  0
  -47.3129   58.8400   67.4241 H   0  0  0  0  0  0  0  0  0  0  0  0
  -47.2164   57.2740   66.4873 H   0  0  0  0  0  0  0  0  0  0  0  0
  -48.8369   59.5739   65.8234 H   0  0  0  0  0  0  0  0  0  0  0  0
  -49.3084   58.0076   66.6449 H   0  0  0  0  0  0  0  0  0  0  0  0
  -48.9808   56.8206   64.7005 H   0  0  0  0  0  0  0  0  0  0  0  0
  -48.4300   58.2521   63.8520 H   0  0  0  0  0  0  0  0  0  0  0  0
  -51.1601   57.8699   65.0440 H   0  0  0  0  0  0  0  0  0  0  0  0
  -50.7372   57.7788   63.3227 H   0  0  0  0  0  0  0  0  0  0  0  0
  -50.5088   60.2219   65.0304 H   0  0  0  0  0  0  0  0  0  0  0  0
  -51.7834   59.8888   63.8591 H   0  0  0  0  0  0  0  0  0  0  0  0
  -50.1540   59.8315   62.0763 H   0  0  0  0  0  0  0  0  0  0  0  0
  -48.8763   60.1705   63.2799 H   0  0  0  0  0  0  0  0  0  0  0  0
  -49.4209   62.1413   61.9750 H   0  0  0  0  0  0  0  0  0  0  0  0
  -49.7942   62.3251   63.6924 H   0  0  0  0  0  0  0  0  0  0  0  0
  -51.5526   63.2789   62.2983 H   0  0  0  0  0  0  0  0  0  0  0  0
  -52.1235   61.8975   63.2479 H   0  0  0  0  0  0  0  0  0  0  0  0
  -51.9715   60.4750   61.3121 H   0  0  0  0  0  0  0  0  0  0  0  0
  -51.3841   61.8557   60.3614 H   0  0  0  0  0  0  0  0  0  0  0  0
  -54.1119   61.6139   61.5832 H   0  0  0  0  0  0  0  0  0  0  0  0
  -53.7286   61.4345   59.8880 H   0  0  0  0  0  0  0  0  0  0  0  0
  -53.5138   62.9805   60.6733 H   0  0  0  0  0  0  0  0  0  0  0  0
  1  2  2  0  0  0  0
  1  3  1  0  0  0  0
  1  4  1  0  0  0  0
  3  5  1  0  0  0  0
  3 21  1  0  0  0  0
  3 22  1  0  0  0  0
  4 23  1  0  0  0  0
  5  6  1  0  0  0  0
  5 24  1  0  0  0  0
  5 25  1  0  0  0  0
  6  7  1  0  0  0  0
  6 26  1  0  0  0  0
  6 27  1  0  0  0  0
  7  8  1  0  0  0  0
  7 28  1  0  0  0  0
  7 29  1  0  0  0  0
  8  9  1  0  0  0  0
  8 30  1  0  0  0  0
  8 31  1  0  0  0  0
  9 10  1  0  0  0  0
  9 32  1  0  0  0  0
  9 33  1  0  0  0  0
 10 11  1  0  0  0  0
 10 34  1  0  0  0  0
 10 35  1  0  0  0  0
 11 12  1  0  0  0  0
 11 36  1  0  0  0  0
 11 37  1  0  0  0  0
 12 13  1  0  0  0  0
 12 38  1  0  0  0  0
 12 39  1  0  0  0  0
 13 14  1  0  0  0  0
 13 40  1  0  0  0  0
 13 41  1  0  0  0  0
 14 15  1  0  0  0  0
 14 42  1  0  0  0  0
 14 43  1  0  0  0  0
 15 16  1  0  0  0  0
 15 44  1  0  0  0  0
 15 45  1  0  0  0  0
 16 17  1  0  0  0  0
 16 46  1  0  0  0  0
 16 47  1  0  0  0  0
 17 18  1  0  0  0  0
 17 48  1  0  0  0  0
 17 49  1  0  0  0  0
 18 19  1  0  0  0  0
 18 50  1  0  0  0  0
 18 51  1  0  0  0  0
 19 20  1  0  0  0  0
 19 52  1  0  0  0  0
 19 53  1  0  0  0  0
 20 54  1  0  0  0  0
 20 55  1  0  0  0  0
 20 56  1  0  0  0  0
M  END
$$$$
/media/chris/experiments/cd1a-new-docking/inputs/ligands/4x6d_1_ligand.pdb
 OpenBabel07012320263D

 56 55  0  0  0  0  0  0  0  0999 V2000
  -45.1864   64.9370   70.3060 C   0  0  0  0  0  0  0  0  0  0  0  0
  -45.1767   65.6615   71.3339 O   0  0  0  0  0  0  0  0  0  0  0  0
  -45.0707   63.4307   70.4357 C   0  0  0  0  0  0  0  0  0  0  0  0
  -45.2973   65.4716   69.1724 O   0  0  0  0  0  0  0  0  0  0  0  0
  -45.0903   62.7929   69.0504 C   0  0  0  0  0  0  0  0  0  0  0  0
  -44.9933   61.2783   69.1428 C   0  0  0  0  0  0  0  0  0  0  0  0
  -44.9957   60.6466   67.7577 C   0  0  0  0  0  0  0  0  0  0  0  0
  -44.9155   59.1273   67.8725 C   0  0  0  0  0  0  0  0  0  0  0  0
  -44.8989   58.4750   66.5016 C   0  0  0  0  0  0  0  0  0  0  0  0
  -46.1420   58.8190   65.6970 C   0  0  0  0  0  0  0  0  0  0  0  0
  -47.3380   58.3370   66.4800 C   0  0  0  0  0  0  0  0  0  0  0  0
  -48.6910   58.5200   65.9370 C   0  0  0  0  0  0  0  0  0  0  0  0
  -49.8970   58.0544   66.7220 C   0  0  0  0  0  0  0  0  0  0  0  0
  -49.9684   58.7830   68.0634 C   0  0  0  0  0  0  0  0  0  0  0  0
  -51.1550   58.3503   68.9204 C   0  0  0  0  0  0  0  0  0  0  0  0
  -52.4863   58.5990   68.2064 C   0  0  0  0  0  0  0  0  0  0  0  0
  -52.6591   57.8450   66.8823 C   0  0  0  0  0  0  0  0  0  0  0  0
  -52.5991   56.3233   67.0704 C   0  0  0  0  0  0  0  0  0  0  0  0
  -52.7531   55.5592   65.7529 C   0  0  0  0  0  0  0  0  0  0  0  0
  -51.6558   55.8800   64.7309 C   0  0  0  0  0  0  0  0  0  0  0  0
  -45.8933   63.0589   71.0102 H   0  0  0  0  0  0  0  0  0  0  0  0
  -44.1513   63.1865   70.9255 H   0  0  0  0  0  0  0  0  0  0  0  0
  -45.3053   64.9387   68.4018 H   0  0  0  0  0  0  0  0  0  0  0  0
  -44.2609   63.1621   68.4841 H   0  0  0  0  0  0  0  0  0  0  0  0
  -46.0141   63.0455   68.5732 H   0  0  0  0  0  0  0  0  0  0  0  0
  -45.8293   60.9072   69.6982 H   0  0  0  0  0  0  0  0  0  0  0  0
  -44.0763   61.0243   69.6321 H   0  0  0  0  0  0  0  0  0  0  0  0
  -44.1526   61.0045   67.2044 H   0  0  0  0  0  0  0  0  0  0  0  0
  -45.9018   60.9118   67.2541 H   0  0  0  0  0  0  0  0  0  0  0  0
  -45.7651   58.7728   68.4178 H   0  0  0  0  0  0  0  0  0  0  0  0
  -44.0090   58.8726   68.3807 H   0  0  0  0  0  0  0  0  0  0  0  0
  -44.8486   57.4132   66.6239 H   0  0  0  0  0  0  0  0  0  0  0  0
  -44.0464   58.8419   65.9692 H   0  0  0  0  0  0  0  0  0  0  0  0
  -46.1077   58.3309   64.7454 H   0  0  0  0  0  0  0  0  0  0  0  0
  -46.2020   59.8741   65.5296 H   0  0  0  0  0  0  0  0  0  0  0  0
  -47.3129   58.8400   67.4241 H   0  0  0  0  0  0  0  0  0  0  0  0
  -47.2164   57.2740   66.4873 H   0  0  0  0  0  0  0  0  0  0  0  0
  -48.7179   58.0067   64.9986 H   0  0  0  0  0  0  0  0  0  0  0  0
  -48.8057   59.5838   65.9236 H   0  0  0  0  0  0  0  0  0  0  0  0
  -49.8205   57.0014   66.8956 H   0  0  0  0  0  0  0  0  0  0  0  0
  -50.7824   58.2692   66.1609 H   0  0  0  0  0  0  0  0  0  0  0  0
  -50.0493   59.8334   67.8760 H   0  0  0  0  0  0  0  0  0  0  0  0
  -49.0788   58.5388   68.6056 H   0  0  0  0  0  0  0  0  0  0  0  0
  -51.1429   58.9047   69.8355 H   0  0  0  0  0  0  0  0  0  0  0  0
  -51.0670   57.3006   69.1084 H   0  0  0  0  0  0  0  0  0  0  0  0
  -52.5648   59.6469   68.0049 H   0  0  0  0  0  0  0  0  0  0  0  0
  -53.2506   58.2353   68.8609 H   0  0  0  0  0  0  0  0  0  0  0  0
  -51.8784   58.1406   66.2129 H   0  0  0  0  0  0  0  0  0  0  0  0
  -53.6232   58.0897   66.4880 H   0  0  0  0  0  0  0  0  0  0  0  0
  -53.3873   56.0287   67.7314 H   0  0  0  0  0  0  0  0  0  0  0  0
  -51.6364   56.0848   67.4720 H   0  0  0  0  0  0  0  0  0  0  0  0
  -53.7004   55.8107   65.3237 H   0  0  0  0  0  0  0  0  0  0  0  0
  -52.6768   54.5167   65.9816 H   0  0  0  0  0  0  0  0  0  0  0  0
  -51.6990   56.9181   64.4752 H   0  0  0  0  0  0  0  0  0  0  0  0
  -51.8042   55.2895   63.8510 H   0  0  0  0  0  0  0  0  0  0  0  0
  -50.6985   55.6562   65.1533 H   0  0  0  0  0  0  0  0  0  0  0  0
  1  2  2  0  0  0  0
  1  3  1  0  0  0  0
  1  4  1  0  0  0  0
  3  5  1  0  0  0  0
  3 21  1  0  0  0  0
  3 22  1  0  0  0  0
  4 23  1  0  0  0  0
  5  6  1  0  0  0  0
  5 24  1  0  0  0  0
  5 25  1  0  0  0  0
  6  7  1  0  0  0  0
  6 26  1  0  0  0  0
  6 27  1  0  0  0  0
  7  8  1  0  0  0  0
  7 28  1  0  0  0  0
  7 29  1  0  0  0  0
  8  9  1  0  0  0  0
  8 30  1  0  0  0  0
  8 31  1  0  0  0  0
  9 10  1  0  0  0  0
  9 32  1  0  0  0  0
  9 33  1  0  0  0  0
 10 11  1  0  0  0  0
 10 34  1  0  0  0  0
 10 35  1  0  0  0  0
 11 12  1  0  0  0  0
 11 36  1  0  0  0  0
 11 37  1  0  0  0  0
 12 13  1  0  0  0  0
 12 38  1  0  0  0  0
 12 39  1  0  0  0  0
 13 14  1  0  0  0  0
 13 40  1  0  0  0  0
 13 41  1  0  0  0  0
 14 15  1  0  0  0  0
 14 42  1  0  0  0  0
 14 43  1  0  0  0  0
 15 16  1  0  0  0  0
 15 44  1  0  0  0  0
 15 45  1  0  0  0  0
 16 17  1  0  0  0  0
 16 46  1  0  0  0  0
 16 47  1  0  0  0  0
 17 18  1  0  0  0  0
 17 48  1  0  0  0  0
 17 49  1  0  0  0  0
 18 19  1  0  0  0  0
 18 50  1  0  0  0  0
 18 51  1  0  0  0  0
 19 20  1  0  0  0  0
 19 52  1  0  0  0  0
 19 53  1  0  0  0  0
 20 54  1  0  0  0  0
 20 55  1  0  0  0  0
 20 56  1  0  0  0  0
M  END
$$$$
/media/chris/experiments/cd1a-new-docking/inputs/ligands/4x6d_1_ligand.pdb
 OpenBabel07012320263D

 56 55  0  0  0  0  0  0  0  0999 V2000
  -47.3416   57.8684   61.9802 C   0  0  0  0  0  0  0  0  0  0  0  0
  -48.5075   58.0218   61.5342 O   0  0  0  0  0  0  0  0  0  0  0  0
  -46.1597   58.4656   61.2415 C   0  0  0  0  0  0  0  0  0  0  0  0
  -47.1659   57.2206   63.0444 O   0  0  0  0  0  0  0  0  0  0  0  0
  -46.3111   59.9817   61.1710 C   0  0  0  0  0  0  0  0  0  0  0  0
  -46.3523   60.5936   62.5624 C   0  0  0  0  0  0  0  0  0  0  0  0
  -45.0669   60.3022   63.3241 C   0  0  0  0  0  0  0  0  0  0  0  0
  -45.1351   60.9090   64.7223 C   0  0  0  0  0  0  0  0  0  0  0  0
  -46.2869   60.3217   65.5183 C   0  0  0  0  0  0  0  0  0  0  0  0
  -46.1420   58.8190   65.6970 C   0  0  0  0  0  0  0  0  0  0  0  0
  -47.3380   58.3370   66.4800 C   0  0  0  0  0  0  0  0  0  0  0  0
  -48.6910   58.5200   65.9370 C   0  0  0  0  0  0  0  0  0  0  0  0
  -49.8970   58.0544   66.7220 C   0  0  0  0  0  0  0  0  0  0  0  0
  -51.1790   58.3402   65.9408 C   0  0  0  0  0  0  0  0  0  0  0  0
  -52.4428   57.9111   66.6813 C   0  0  0  0  0  0  0  0  0  0  0  0
  -53.7024   58.1980   65.8596 C   0  0  0  0  0  0  0  0  0  0  0  0
  -55.0200   57.8108   66.5418 C   0  0  0  0  0  0  0  0  0  0  0  0
  -56.2388   58.1085   65.6584 C   0  0  0  0  0  0  0  0  0  0  0  0
  -56.3492   59.5889   65.2846 C   0  0  0  0  0  0  0  0  0  0  0  0
  -55.1436   60.1086   64.4922 C   0  0  0  0  0  0  0  0  0  0  0  0
  -46.1209   58.0654   60.2499 H   0  0  0  0  0  0  0  0  0  0  0  0
  -45.2569   58.2232   61.7622 H   0  0  0  0  0  0  0  0  0  0  0  0
  -46.3004   57.1019   63.3832 H   0  0  0  0  0  0  0  0  0  0  0  0
  -47.2197   60.2186   60.6581 H   0  0  0  0  0  0  0  0  0  0  0  0
  -45.4681   60.3831   60.6484 H   0  0  0  0  0  0  0  0  0  0  0  0
  -47.1797   60.1818   63.1016 H   0  0  0  0  0  0  0  0  0  0  0  0
  -46.4588   61.6539   62.4658 H   0  0  0  0  0  0  0  0  0  0  0  0
  -44.2386   60.7253   62.7950 H   0  0  0  0  0  0  0  0  0  0  0  0
  -44.9431   59.2428   63.4085 H   0  0  0  0  0  0  0  0  0  0  0  0
  -45.2725   61.9668   64.6377 H   0  0  0  0  0  0  0  0  0  0  0  0
  -44.2214   60.6878   65.2334 H   0  0  0  0  0  0  0  0  0  0  0  0
  -47.2024   60.5223   65.0020 H   0  0  0  0  0  0  0  0  0  0  0  0
  -46.2850   60.7734   66.4883 H   0  0  0  0  0  0  0  0  0  0  0  0
  -45.2422   58.6001   66.2331 H   0  0  0  0  0  0  0  0  0  0  0  0
  -46.0923   58.3300   64.7466 H   0  0  0  0  0  0  0  0  0  0  0  0
  -47.3129   58.8400   67.4241 H   0  0  0  0  0  0  0  0  0  0  0  0
  -47.2164   57.2740   66.4873 H   0  0  0  0  0  0  0  0  0  0  0  0
  -48.7179   58.0067   64.9986 H   0  0  0  0  0  0  0  0  0  0  0  0
  -48.8057   59.5838   65.9236 H   0  0  0  0  0  0  0  0  0  0  0  0
  -49.9308   58.5721   67.6578 H   0  0  0  0  0  0  0  0  0  0  0  0
  -49.8184   57.0005   66.8895 H   0  0  0  0  0  0  0  0  0  0  0  0
  -51.1348   57.8137   65.0103 H   0  0  0  0  0  0  0  0  0  0  0  0
  -51.2366   59.3994   65.8008 H   0  0  0  0  0  0  0  0  0  0  0  0
  -52.5020   58.4463   67.6060 H   0  0  0  0  0  0  0  0  0  0  0  0
  -52.3883   56.8564   66.8531 H   0  0  0  0  0  0  0  0  0  0  0  0
  -53.6312   57.6539   64.9411 H   0  0  0  0  0  0  0  0  0  0  0  0
  -53.7360   59.2586   65.7219 H   0  0  0  0  0  0  0  0  0  0  0  0
  -55.1117   58.3636   67.4534 H   0  0  0  0  0  0  0  0  0  0  0  0
  -54.9973   56.7570   66.7264 H   0  0  0  0  0  0  0  0  0  0  0  0
  -57.1235   57.8220   66.1877 H   0  0  0  0  0  0  0  0  0  0  0  0
  -56.1238   57.5535   64.7509 H   0  0  0  0  0  0  0  0  0  0  0  0
  -56.4352   60.1606   66.1850 H   0  0  0  0  0  0  0  0  0  0  0  0
  -57.2089   59.6927   64.6560 H   0  0  0  0  0  0  0  0  0  0  0  0
  -54.2599   60.0214   65.0893 H   0  0  0  0  0  0  0  0  0  0  0  0
  -55.3010   61.1354   64.2359 H   0  0  0  0  0  0  0  0  0  0  0  0
  -55.0286   59.5315   63.5985 H   0  0  0  0  0  0  0  0  0  0  0  0
  1  2  2  0  0  0  0
  1  3  1  0  0  0  0
  1  4  1  0  0  0  0
  3  5  1  0  0  0  0
  3 21  1  0  0  0  0
  3 22  1  0  0  0  0
  4 23  1  0  0  0  0
  5  6  1  0  0  0  0
  5 24  1  0  0  0  0
  5 25  1  0  0  0  0
  6  7  1  0  0  0  0
  6 26  1  0  0  0  0
  6 27  1  0  0  0  0
  7  8  1  0  0  0  0
  7 28  1  0  0  0  0
  7 29  1  0  0  0  0
  8  9  1  0  0  0  0
  8 30  1  0  0  0  0
  8 31  1  0  0  0  0
  9 10  1  0  0  0  0
  9 32  1  0  0  0  0
  9 33  1  0  0  0  0
 10 11  1  0  0  0  0
 10 34  1  0  0  0  0
 10 35  1  0  0  0  0
 11 12  1  0  0  0  0
 11 36  1  0  0  0  0
 11 37  1  0  0  0  0
 12 13  1  0  0  0  0
 12 38  1  0  0  0  0
 12 39  1  0  0  0  0
 13 14  1  0  0  0  0
 13 40  1  0  0  0  0
 13 41  1  0  0  0  0
 14 15  1  0  0  0  0
 14 42  1  0  0  0  0
 14 43  1  0  0  0  0
 15 16  1  0  0  0  0
 15 44  1  0  0  0  0
 15 45  1  0  0  0  0
 16 17  1  0  0  0  0
 16 46  1  0  0  0  0
 16 47  1  0  0  0  0
 17 18  1  0  0  0  0
 17 48  1  0  0  0  0
 17 49  1  0  0  0  0
 18 19  1  0  0  0  0
 18 50  1  0  0  0  0
 18 51  1  0  0  0  0
 19 20  1  0  0  0  0
 19 52  1  0  0  0  0
 19 53  1  0  0  0  0
 20 54  1  0  0  0  0
 20 55  1  0  0  0  0
 20 56  1  0  0  0  0
M  END
$$$$
/media/chris/experiments/cd1a-new-docking/inputs/ligands/4x6d_1_ligand.pdb
 OpenBabel07012320263D

 56 55  0  0  0  0  0  0  0  0999 V2000
  -42.2775   58.4867   61.9722 C   0  0  0  0  0  0  0  0  0  0  0  0
  -42.4185   59.2156   60.9570 O   0  0  0  0  0  0  0  0  0  0  0  0
  -42.3381   59.0950   63.3598 C   0  0  0  0  0  0  0  0  0  0  0  0
  -42.0909   57.2510   61.8264 O   0  0  0  0  0  0  0  0  0  0  0  0
  -42.5781   60.5974   63.2519 C   0  0  0  0  0  0  0  0  0  0  0  0
  -43.8953   60.8932   62.5523 C   0  0  0  0  0  0  0  0  0  0  0  0
  -45.0669   60.3022   63.3241 C   0  0  0  0  0  0  0  0  0  0  0  0
  -45.1351   60.9090   64.7223 C   0  0  0  0  0  0  0  0  0  0  0  0
  -46.2869   60.3217   65.5183 C   0  0  0  0  0  0  0  0  0  0  0  0
  -46.1420   58.8190   65.6970 C   0  0  0  0  0  0  0  0  0  0  0  0
  -47.3380   58.3370   66.4800 C   0  0  0  0  0  0  0  0  0  0  0  0
  -48.6910   58.5200   65.9370 C   0  0  0  0  0  0  0  0  0  0  0  0
  -49.2055   59.9072   65.6232 C   0  0  0  0  0  0  0  0  0  0  0  0
  -50.6357   59.8327   65.0901 C   0  0  0  0  0  0  0  0  0  0  0  0
  -51.2168   61.1986   64.7345 C   0  0  0  0  0  0  0  0  0  0  0  0
  -52.6547   61.0831   64.2213 C   0  0  0  0  0  0  0  0  0  0  0  0
  -53.3072   62.4130   63.8251 C   0  0  0  0  0  0  0  0  0  0  0  0
  -53.3634   63.4022   64.9968 C   0  0  0  0  0  0  0  0  0  0  0  0
  -54.1513   62.8581   66.1913 C   0  0  0  0  0  0  0  0  0  0  0  0
  -54.2325   63.8407   67.3658 C   0  0  0  0  0  0  0  0  0  0  0  0
  -41.4125   58.9180   63.8666 H   0  0  0  0  0  0  0  0  0  0  0  0
  -43.1395   58.6465   63.9089 H   0  0  0  0  0  0  0  0  0  0  0  0
  -41.9849   56.7013   62.5778 H   0  0  0  0  0  0  0  0  0  0  0  0
  -41.7792   61.0395   62.6940 H   0  0  0  0  0  0  0  0  0  0  0  0
  -42.6189   61.0065   64.2397 H   0  0  0  0  0  0  0  0  0  0  0  0
  -43.8732   60.4686   61.5704 H   0  0  0  0  0  0  0  0  0  0  0  0
  -44.0225   61.9542   62.4987 H   0  0  0  0  0  0  0  0  0  0  0  0
  -44.9393   59.2429   63.4042 H   0  0  0  0  0  0  0  0  0  0  0  0
  -45.9752   60.5219   62.8030 H   0  0  0  0  0  0  0  0  0  0  0  0
  -45.2725   61.9668   64.6377 H   0  0  0  0  0  0  0  0  0  0  0  0
  -44.2214   60.6878   65.2334 H   0  0  0  0  0  0  0  0  0  0  0  0
  -47.2024   60.5223   65.0020 H   0  0  0  0  0  0  0  0  0  0  0  0
  -46.2850   60.7734   66.4883 H   0  0  0  0  0  0  0  0  0  0  0  0
  -45.2422   58.6001   66.2331 H   0  0  0  0  0  0  0  0  0  0  0  0
  -46.0923   58.3300   64.7466 H   0  0  0  0  0  0  0  0  0  0  0  0
  -47.3129   58.8400   67.4241 H   0  0  0  0  0  0  0  0  0  0  0  0
  -47.2164   57.2740   66.4873 H   0  0  0  0  0  0  0  0  0  0  0  0
  -49.3680   58.0944   66.6480 H   0  0  0  0  0  0  0  0  0  0  0  0
  -48.6304   58.0595   64.9731 H   0  0  0  0  0  0  0  0  0  0  0  0
  -48.5763   60.3587   64.8849 H   0  0  0  0  0  0  0  0  0  0  0  0
  -49.1972   60.4930   66.5186 H   0  0  0  0  0  0  0  0  0  0  0  0
  -51.2548   59.3842   65.8387 H   0  0  0  0  0  0  0  0  0  0  0  0
  -50.6099   59.2542   64.1903 H   0  0  0  0  0  0  0  0  0  0  0  0
  -50.6116   61.6461   63.9740 H   0  0  0  0  0  0  0  0  0  0  0  0
  -51.2246   61.7997   65.6196 H   0  0  0  0  0  0  0  0  0  0  0  0
  -53.2482   60.6384   64.9926 H   0  0  0  0  0  0  0  0  0  0  0  0
  -52.6088   60.4937   63.3295 H   0  0  0  0  0  0  0  0  0  0  0  0
  -54.3044   62.2208   63.4882 H   0  0  0  0  0  0  0  0  0  0  0  0
  -52.7132   62.8531   63.0516 H   0  0  0  0  0  0  0  0  0  0  0  0
  -53.8302   64.3046   64.6610 H   0  0  0  0  0  0  0  0  0  0  0  0
  -52.3590   63.5743   65.3232 H   0  0  0  0  0  0  0  0  0  0  0  0
  -53.6760   61.9617   66.5312 H   0  0  0  0  0  0  0  0  0  0  0  0
  -55.1522   62.6831   65.8561 H   0  0  0  0  0  0  0  0  0  0  0  0
  -53.2471   64.0422   67.7310 H   0  0  0  0  0  0  0  0  0  0  0  0
  -54.8224   63.4124   68.1490 H   0  0  0  0  0  0  0  0  0  0  0  0
  -54.6845   64.7531   67.0370 H   0  0  0  0  0  0  0  0  0  0  0  0
  1  2  2  0  0  0  0
  1  3  1  0  0  0  0
  1  4  1  0  0  0  0
  3  5  1  0  0  0  0
  3 21  1  0  0  0  0
  3 22  1  0  0  0  0
  4 23  1  0  0  0  0
  5  6  1  0  0  0  0
  5 24  1  0  0  0  0
  5 25  1  0  0  0  0
  6  7  1  0  0  0  0
  6 26  1  0  0  0  0
  6 27  1  0  0  0  0
  7  8  1  0  0  0  0
  7 28  1  0  0  0  0
  7 29  1  0  0  0  0
  8  9  1  0  0  0  0
  8 30  1  0  0  0  0
  8 31  1  0  0  0  0
  9 10  1  0  0  0  0
  9 32  1  0  0  0  0
  9 33  1  0  0  0  0
 10 11  1  0  0  0  0
 10 34  1  0  0  0  0
 10 35  1  0  0  0  0
 11 12  1  0  0  0  0
 11 36  1  0  0  0  0
 11 37  1  0  0  0  0
 12 13  1  0  0  0  0
 12 38  1  0  0  0  0
 12 39  1  0  0  0  0
 13 14  1  0  0  0  0
 13 40  1  0  0  0  0
 13 41  1  0  0  0  0
 14 15  1  0  0  0  0
 14 42  1  0  0  0  0
 14 43  1  0  0  0  0
 15 16  1  0  0  0  0
 15 44  1  0  0  0  0
 15 45  1  0  0  0  0
 16 17  1  0  0  0  0
 16 46  1  0  0  0  0
 16 47  1  0  0  0  0
 17 18  1  0  0  0  0
 17 48  1  0  0  0  0
 17 49  1  0  0  0  0
 18 19  1  0  0  0  0
 18 50  1  0  0  0  0
 18 51  1  0  0  0  0
 19 20  1  0  0  0  0
 19 52  1  0  0  0  0
 19 53  1  0  0  0  0
 20 54  1  0  0  0  0
 20 55  1  0  0  0  0
 20 56  1  0  0  0  0
M  END
$$$$
/media/chris/experiments/cd1a-new-docking/inputs/ligands/4x6d_1_ligand.pdb
 OpenBabel07012320263D

 56 55  0  0  0  0  0  0  0  0999 V2000
  -42.6827   57.1961   57.7649 C   0  0  0  0  0  0  0  0  0  0  0  0
  -41.7689   57.3714   56.9187 O   0  0  0  0  0  0  0  0  0  0  0  0
  -42.6160   57.8901   59.1114 C   0  0  0  0  0  0  0  0  0  0  0  0
  -43.6523   56.4455   57.4829 O   0  0  0  0  0  0  0  0  0  0  0  0
  -43.8274   57.4987   59.9514 C   0  0  0  0  0  0  0  0  0  0  0  0
  -43.8027   58.1910   61.3050 C   0  0  0  0  0  0  0  0  0  0  0  0
  -45.0041   57.7845   62.1469 C   0  0  0  0  0  0  0  0  0  0  0  0
  -44.9702   58.5025   63.4927 C   0  0  0  0  0  0  0  0  0  0  0  0
  -46.1509   58.0994   64.3580 C   0  0  0  0  0  0  0  0  0  0  0  0
  -46.1420   58.8190   65.6970 C   0  0  0  0  0  0  0  0  0  0  0  0
  -47.3380   58.3370   66.4800 C   0  0  0  0  0  0  0  0  0  0  0  0
  -48.6910   58.5200   65.9370 C   0  0  0  0  0  0  0  0  0  0  0  0
  -49.0768   57.8833   64.6205 C   0  0  0  0  0  0  0  0  0  0  0  0
  -50.5214   58.2342   64.2666 C   0  0  0  0  0  0  0  0  0  0  0  0
  -50.7548   59.7345   64.1102 C   0  0  0  0  0  0  0  0  0  0  0  0
  -49.8946   60.3249   62.9897 C   0  0  0  0  0  0  0  0  0  0  0  0
  -50.1557   59.7369   61.5977 C   0  0  0  0  0  0  0  0  0  0  0  0
  -49.2499   60.3594   60.5270 C   0  0  0  0  0  0  0  0  0  0  0  0
  -47.7623   60.1283   60.8053 C   0  0  0  0  0  0  0  0  0  0  0  0
  -46.8409   60.7585   59.7539 C   0  0  0  0  0  0  0  0  0  0  0  0
  -42.6117   58.9501   58.9655 H   0  0  0  0  0  0  0  0  0  0  0  0
  -41.7219   57.5939   59.6191 H   0  0  0  0  0  0  0  0  0  0  0  0
  -44.3370   56.3098   58.1080 H   0  0  0  0  0  0  0  0  0  0  0  0
  -43.8214   56.4392   60.1008 H   0  0  0  0  0  0  0  0  0  0  0  0
  -44.7128   57.8005   59.4317 H   0  0  0  0  0  0  0  0  0  0  0  0
  -43.8216   59.2505   61.1566 H   0  0  0  0  0  0  0  0  0  0  0  0
  -42.9110   57.9009   61.8203 H   0  0  0  0  0  0  0  0  0  0  0  0
  -44.9805   56.7272   62.3094 H   0  0  0  0  0  0  0  0  0  0  0  0
  -45.9010   58.0542   61.6293 H   0  0  0  0  0  0  0  0  0  0  0  0
  -45.0038   59.5589   63.3261 H   0  0  0  0  0  0  0  0  0  0  0  0
  -44.0685   58.2299   64.0003 H   0  0  0  0  0  0  0  0  0  0  0  0
  -46.1087   57.0444   64.5316 H   0  0  0  0  0  0  0  0  0  0  0  0
  -47.0486   58.3689   63.8418 H   0  0  0  0  0  0  0  0  0  0  0  0
  -46.2076   59.8760   65.5439 H   0  0  0  0  0  0  0  0  0  0  0  0
  -45.2364   58.6137   66.2287 H   0  0  0  0  0  0  0  0  0  0  0  0
  -47.3129   58.8400   67.4241 H   0  0  0  0  0  0  0  0  0  0  0  0
  -47.2164   57.2740   66.4873 H   0  0  0  0  0  0  0  0  0  0  0  0
  -48.8369   59.5739   65.8234 H   0  0  0  0  0  0  0  0  0  0  0  0
  -49.3084   58.0076   66.6449 H   0  0  0  0  0  0  0  0  0  0  0  0
  -48.9808   56.8206   64.7005 H   0  0  0  0  0  0  0  0  0  0  0  0
  -48.4300   58.2521   63.8520 H   0  0  0  0  0  0  0  0  0  0  0  0
  -51.1601   57.8699   65.0440 H   0  0  0  0  0  0  0  0  0  0  0  0
  -50.7372   57.7788   63.3227 H   0  0  0  0  0  0  0  0  0  0  0  0
  -50.5088   60.2219   65.0304 H   0  0  0  0  0  0  0  0  0  0  0  0
  -51.7834   59.8888   63.8591 H   0  0  0  0  0  0  0  0  0  0  0  0
  -48.8670   60.1550   63.2349 H   0  0  0  0  0  0  0  0  0  0  0  0
  -50.1498   61.3623   62.9302 H   0  0  0  0  0  0  0  0  0  0  0  0
  -51.1766   59.9178   61.3331 H   0  0  0  0  0  0  0  0  0  0  0  0
  -49.9441   58.6889   61.6385 H   0  0  0  0  0  0  0  0  0  0  0  0
  -49.4324   61.4132   60.4945 H   0  0  0  0  0  0  0  0  0  0  0  0
  -49.4813   59.8890   59.5942 H   0  0  0  0  0  0  0  0  0  0  0  0
  -47.5811   59.0739   60.8267 H   0  0  0  0  0  0  0  0  0  0  0  0
  -47.5398   60.5960   61.7415 H   0  0  0  0  0  0  0  0  0  0  0  0
  -47.0335   60.3154   58.7992 H   0  0  0  0  0  0  0  0  0  0  0  0
  -45.8202   60.5888   60.0265 H   0  0  0  0  0  0  0  0  0  0  0  0
  -47.0260   61.8112   59.7025 H   0  0  0  0  0  0  0  0  0  0  0  0
  1  2  2  0  0  0  0
  1  3  1  0  0  0  0
  1  4  1  0  0  0  0
  3  5  1  0  0  0  0
  3 21  1  0  0  0  0
  3 22  1  0  0  0  0
  4 23  1  0  0  0  0
  5  6  1  0  0  0  0
  5 24  1  0  0  0  0
  5 25  1  0  0  0  0
  6  7  1  0  0  0  0
  6 26  1  0  0  0  0
  6 27  1  0  0  0  0
  7  8  1  0  0  0  0
  7 28  1  0  0  0  0
  7 29  1  0  0  0  0
  8  9  1  0  0  0  0
  8 30  1  0  0  0  0
  8 31  1  0  0  0  0
  9 10  1  0  0  0  0
  9 32  1  0  0  0  0
  9 33  1  0  0  0  0
 10 11  1  0  0  0  0
 10 34  1  0  0  0  0
 10 35  1  0  0  0  0
 11 12  1  0  0  0  0
 11 36  1  0  0  0  0
 11 37  1  0  0  0  0
 12 13  1  0  0  0  0
 12 38  1  0  0  0  0
 12 39  1  0  0  0  0
 13 14  1  0  0  0  0
 13 40  1  0  0  0  0
 13 41  1  0  0  0  0
 14 15  1  0  0  0  0
 14 42  1  0  0  0  0
 14 43  1  0  0  0  0
 15 16  1  0  0  0  0
 15 44  1  0  0  0  0
 15 45  1  0  0  0  0
 16 17  1  0  0  0  0
 16 46  1  0  0  0  0
 16 47  1  0  0  0  0
 17 18  1  0  0  0  0
 17 48  1  0  0  0  0
 17 49  1  0  0  0  0
 18 19  1  0  0  0  0
 18 50  1  0  0  0  0
 18 51  1  0  0  0  0
 19 20  1  0  0  0  0
 19 52  1  0  0  0  0
 19 53  1  0  0  0  0
 20 54  1  0  0  0  0
 20 55  1  0  0  0  0
 20 56  1  0  0  0  0
M  END
$$$$
/media/chris/experiments/cd1a-new-docking/inputs/ligands/4x6d_1_ligand.pdb
 OpenBabel07012320263D

 56 55  0  0  0  0  0  0  0  0999 V2000
  -41.0104   58.4049   64.4499 C   0  0  0  0  0  0  0  0  0  0  0  0
  -40.0949   59.0068   63.8325 O   0  0  0  0  0  0  0  0  0  0  0  0
  -40.9174   56.9089   64.6792 C   0  0  0  0  0  0  0  0  0  0  0  0
  -41.9993   59.0543   64.8784 O   0  0  0  0  0  0  0  0  0  0  0  0
  -42.1540   56.4267   65.4306 C   0  0  0  0  0  0  0  0  0  0  0  0
  -43.4205   56.7013   64.6351 C   0  0  0  0  0  0  0  0  0  0  0  0
  -44.6536   56.2343   65.3959 C   0  0  0  0  0  0  0  0  0  0  0  0
  -44.7660   56.9788   66.7229 C   0  0  0  0  0  0  0  0  0  0  0  0
  -44.8989   58.4750   66.5016 C   0  0  0  0  0  0  0  0  0  0  0  0
  -46.1420   58.8190   65.6970 C   0  0  0  0  0  0  0  0  0  0  0  0
  -47.3380   58.3370   66.4800 C   0  0  0  0  0  0  0  0  0  0  0  0
  -48.6910   58.5200   65.9370 C   0  0  0  0  0  0  0  0  0  0  0  0
  -49.2055   59.9072   65.6232 C   0  0  0  0  0  0  0  0  0  0  0  0
  -48.3233   60.5721   64.5673 C   0  0  0  0  0  0  0  0  0  0  0  0
  -48.2899   59.8101   63.2451 C   0  0  0  0  0  0  0  0  0  0  0  0
  -47.3831   60.4979   62.2210 C   0  0  0  0  0  0  0  0  0  0  0  0
  -45.9139   60.6240   62.6418 C   0  0  0  0  0  0  0  0  0  0  0  0
  -45.0664   61.3365   61.5795 C   0  0  0  0  0  0  0  0  0  0  0  0
  -43.5936   61.4534   61.9804 C   0  0  0  0  0  0  0  0  0  0  0  0
  -42.7343   62.1784   60.9375 C   0  0  0  0  0  0  0  0  0  0  0  0
  -40.0430   56.6911   65.2563 H   0  0  0  0  0  0  0  0  0  0  0  0
  -40.8584   56.4085   63.7353 H   0  0  0  0  0  0  0  0  0  0  0  0
  -42.6855   58.6131   65.3393 H   0  0  0  0  0  0  0  0  0  0  0  0
  -42.2135   56.9369   66.3692 H   0  0  0  0  0  0  0  0  0  0  0  0
  -42.0697   55.3706   65.5809 H   0  0  0  0  0  0  0  0  0  0  0  0
  -43.3672   56.1810   63.7016 H   0  0  0  0  0  0  0  0  0  0  0  0
  -43.4991   57.7558   64.4721 H   0  0  0  0  0  0  0  0  0  0  0  0
  -44.5758   55.1841   65.5851 H   0  0  0  0  0  0  0  0  0  0  0  0
  -45.5244   56.4354   64.8074 H   0  0  0  0  0  0  0  0  0  0  0  0
  -43.8890   56.7884   67.3056 H   0  0  0  0  0  0  0  0  0  0  0  0
  -45.6400   56.6322   67.2337 H   0  0  0  0  0  0  0  0  0  0  0  0
  -44.0367   58.8248   65.9732 H   0  0  0  0  0  0  0  0  0  0  0  0
  -44.9814   58.9465   67.4585 H   0  0  0  0  0  0  0  0  0  0  0  0
  -46.1077   58.3309   64.7454 H   0  0  0  0  0  0  0  0  0  0  0  0
  -46.2020   59.8741   65.5296 H   0  0  0  0  0  0  0  0  0  0  0  0
  -47.3129   58.8400   67.4241 H   0  0  0  0  0  0  0  0  0  0  0  0
  -47.2164   57.2740   66.4873 H   0  0  0  0  0  0  0  0  0  0  0  0
  -49.3680   58.0944   66.6480 H   0  0  0  0  0  0  0  0  0  0  0  0
  -48.6304   58.0595   64.9731 H   0  0  0  0  0  0  0  0  0  0  0  0
  -49.1949   60.4980   66.5153 H   0  0  0  0  0  0  0  0  0  0  0  0
  -50.2040   59.8318   65.2462 H   0  0  0  0  0  0  0  0  0  0  0  0
  -47.3255   60.6354   64.9485 H   0  0  0  0  0  0  0  0  0  0  0  0
  -48.7392   61.5375   64.3674 H   0  0  0  0  0  0  0  0  0  0  0  0
  -49.2827   59.7573   62.8497 H   0  0  0  0  0  0  0  0  0  0  0  0
  -47.9006   58.8313   63.4327 H   0  0  0  0  0  0  0  0  0  0  0  0
  -47.7648   61.4823   62.0472 H   0  0  0  0  0  0  0  0  0  0  0  0
  -47.3933   59.8796   61.3478 H   0  0  0  0  0  0  0  0  0  0  0  0
  -45.5154   59.6436   62.8001 H   0  0  0  0  0  0  0  0  0  0  0  0
  -45.8775   61.2081   63.5375 H   0  0  0  0  0  0  0  0  0  0  0  0
  -45.4600   62.3203   61.4308 H   0  0  0  0  0  0  0  0  0  0  0  0
  -45.1125   60.7527   60.6840 H   0  0  0  0  0  0  0  0  0  0  0  0
  -43.2003   60.4678   62.1179 H   0  0  0  0  0  0  0  0  0  0  0  0
  -43.5559   62.0330   62.8790 H   0  0  0  0  0  0  0  0  0  0  0  0
  -42.7463   61.6277   60.0202 H   0  0  0  0  0  0  0  0  0  0  0  0
  -41.7285   62.2545   61.2947 H   0  0  0  0  0  0  0  0  0  0  0  0
  -43.1284   63.1590   60.7701 H   0  0  0  0  0  0  0  0  0  0  0  0
  1  2  2  0  0  0  0
  1  3  1  0  0  0  0
  1  4  1  0  0  0  0
  3  5  1  0  0  0  0
  3 21  1  0  0  0  0
  3 22  1  0  0  0  0
  4 23  1  0  0  0  0
  5  6  1  0  0  0  0
  5 24  1  0  0  0  0
  5 25  1  0  0  0  0
  6  7  1  0  0  0  0
  6 26  1  0  0  0  0
  6 27  1  0  0  0  0
  7  8  1  0  0  0  0
  7 28  1  0  0  0  0
  7 29  1  0  0  0  0
  8  9  1  0  0  0  0
  8 30  1  0  0  0  0
  8 31  1  0  0  0  0
  9 10  1  0  0  0  0
  9 32  1  0  0  0  0
  9 33  1  0  0  0  0
 10 11  1  0  0  0  0
 10 34  1  0  0  0  0
 10 35  1  0  0  0  0
 11 12  1  0  0  0  0
 11 36  1  0  0  0  0
 11 37  1  0  0  0  0
 12 13  1  0  0  0  0
 12 38  1  0  0  0  0
 12 39  1  0  0  0  0
 13 14  1  0  0  0  0
 13 40  1  0  0  0  0
 13 41  1  0  0  0  0
 14 15  1  0  0  0  0
 14 42  1  0  0  0  0
 14 43  1  0  0  0  0
 15 16  1  0  0  0  0
 15 44  1  0  0  0  0
 15 45  1  0  0  0  0
 16 17  1  0  0  0  0
 16 46  1  0  0  0  0
 16 47  1  0  0  0  0
 17 18  1  0  0  0  0
 17 48  1  0  0  0  0
 17 49  1  0  0  0  0
 18 19  1  0  0  0  0
 18 50  1  0  0  0  0
 18 51  1  0  0  0  0
 19 20  1  0  0  0  0
 19 52  1  0  0  0  0
 19 53  1  0  0  0  0
 20 54  1  0  0  0  0
 20 55  1  0  0  0  0
 20 56  1  0  0  0  0
M  END
$$$$
/media/chris/experiments/cd1a-new-docking/inputs/ligands/4x6d_1_ligand.pdb
 OpenBabel07012320263D

 56 55  0  0  0  0  0  0  0  0999 V2000
  -43.1148   53.9696   61.9559 C   0  0  0  0  0  0  0  0  0  0  0  0
  -42.5238   52.8661   61.8345 O   0  0  0  0  0  0  0  0  0  0  0  0
  -43.2869   54.5937   63.3270 C   0  0  0  0  0  0  0  0  0  0  0  0
  -43.5568   54.5514   60.9315 O   0  0  0  0  0  0  0  0  0  0  0  0
  -43.3046   56.1136   63.2007 C   0  0  0  0  0  0  0  0  0  0  0  0
  -43.4587   56.7749   64.5613 C   0  0  0  0  0  0  0  0  0  0  0  0
  -43.4934   58.2911   64.4294 C   0  0  0  0  0  0  0  0  0  0  0  0
  -43.6307   58.9356   65.8055 C   0  0  0  0  0  0  0  0  0  0  0  0
  -44.8989   58.4750   66.5016 C   0  0  0  0  0  0  0  0  0  0  0  0
  -46.1420   58.8190   65.6970 C   0  0  0  0  0  0  0  0  0  0  0  0
  -47.3380   58.3370   66.4800 C   0  0  0  0  0  0  0  0  0  0  0  0
  -48.6910   58.5200   65.9370 C   0  0  0  0  0  0  0  0  0  0  0  0
  -49.0768   57.8833   64.6205 C   0  0  0  0  0  0  0  0  0  0  0  0
  -50.5214   58.2342   64.2666 C   0  0  0  0  0  0  0  0  0  0  0  0
  -51.5272   57.7724   65.3177 C   0  0  0  0  0  0  0  0  0  0  0  0
  -51.4736   56.2559   65.5212 C   0  0  0  0  0  0  0  0  0  0  0  0
  -50.1215   55.7171   66.0041 C   0  0  0  0  0  0  0  0  0  0  0  0
  -50.1322   54.1917   66.1705 C   0  0  0  0  0  0  0  0  0  0  0  0
  -50.4304   53.4573   64.8608 C   0  0  0  0  0  0  0  0  0  0  0  0
  -49.3995   53.7330   63.7595 C   0  0  0  0  0  0  0  0  0  0  0  0
  -42.4739   54.2985   63.9568 H   0  0  0  0  0  0  0  0  0  0  0  0
  -44.2104   54.2626   63.7540 H   0  0  0  0  0  0  0  0  0  0  0  0
  -43.9983   55.3738   61.0137 H   0  0  0  0  0  0  0  0  0  0  0  0
  -44.1245   56.4028   62.5770 H   0  0  0  0  0  0  0  0  0  0  0  0
  -42.3763   56.4297   62.7727 H   0  0  0  0  0  0  0  0  0  0  0  0
  -42.6324   56.4963   65.1815 H   0  0  0  0  0  0  0  0  0  0  0  0
  -44.3802   56.4491   64.9967 H   0  0  0  0  0  0  0  0  0  0  0  0
  -44.3272   58.5742   63.8215 H   0  0  0  0  0  0  0  0  0  0  0  0
  -42.5825   58.6236   63.9769 H   0  0  0  0  0  0  0  0  0  0  0  0
  -43.6612   59.9991   65.6916 H   0  0  0  0  0  0  0  0  0  0  0  0
  -42.7912   58.6449   66.4019 H   0  0  0  0  0  0  0  0  0  0  0  0
  -44.9621   58.9519   67.4573 H   0  0  0  0  0  0  0  0  0  0  0  0
  -44.8537   57.4109   66.6046 H   0  0  0  0  0  0  0  0  0  0  0  0
  -46.1077   58.3309   64.7454 H   0  0  0  0  0  0  0  0  0  0  0  0
  -46.2020   59.8741   65.5296 H   0  0  0  0  0  0  0  0  0  0  0  0
  -47.3129   58.8400   67.4241 H   0  0  0  0  0  0  0  0  0  0  0  0
  -47.2164   57.2740   66.4873 H   0  0  0  0  0  0  0  0  0  0  0  0
  -48.8369   59.5739   65.8234 H   0  0  0  0  0  0  0  0  0  0  0  0
  -49.3084   58.0076   66.6449 H   0  0  0  0  0  0  0  0  0  0  0  0
  -48.9808   56.8206   64.7005 H   0  0  0  0  0  0  0  0  0  0  0  0
  -48.4300   58.2521   63.8520 H   0  0  0  0  0  0  0  0  0  0  0  0
  -50.7659   57.7690   63.3345 H   0  0  0  0  0  0  0  0  0  0  0  0
  -50.5854   59.3009   64.2123 H   0  0  0  0  0  0  0  0  0  0  0  0
  -52.5117   58.0455   64.9999 H   0  0  0  0  0  0  0  0  0  0  0  0
  -51.2810   58.2436   66.2463 H   0  0  0  0  0  0  0  0  0  0  0  0
  -51.7041   55.7868   64.5875 H   0  0  0  0  0  0  0  0  0  0  0  0
  -52.1794   56.0314   66.2934 H   0  0  0  0  0  0  0  0  0  0  0  0
  -49.8890   56.1651   66.9476 H   0  0  0  0  0  0  0  0  0  0  0  0
  -49.3872   55.9621   65.2655 H   0  0  0  0  0  0  0  0  0  0  0  0
  -50.8819   53.9307   66.8878 H   0  0  0  0  0  0  0  0  0  0  0  0
  -49.1561   53.8947   66.4928 H   0  0  0  0  0  0  0  0  0  0  0  0
  -51.3927   53.7669   64.5099 H   0  0  0  0  0  0  0  0  0  0  0  0
  -50.3948   52.4088   65.0714 H   0  0  0  0  0  0  0  0  0  0  0  0
  -49.4044   54.7756   63.5193 H   0  0  0  0  0  0  0  0  0  0  0  0
  -49.6485   53.1649   62.8876 H   0  0  0  0  0  0  0  0  0  0  0  0
  -48.4263   53.4507   64.1031 H   0  0  0  0  0  0  0  0  0  0  0  0
  1  2  2  0  0  0  0
  1  3  1  0  0  0  0
  1  4  1  0  0  0  0
  3  5  1  0  0  0  0
  3 21  1  0  0  0  0
  3 22  1  0  0  0  0
  4 23  1  0  0  0  0
  5  6  1  0  0  0  0
  5 24  1  0  0  0  0
  5 25  1  0  0  0  0
  6  7  1  0  0  0  0
  6 26  1  0  0  0  0
  6 27  1  0  0  0  0
  7  8  1  0  0  0  0
  7 28  1  0  0  0  0
  7 29  1  0  0  0  0
  8  9  1  0  0  0  0
  8 30  1  0  0  0  0
  8 31  1  0  0  0  0
  9 10  1  0  0  0  0
  9 32  1  0  0  0  0
  9 33  1  0  0  0  0
 10 11  1  0  0  0  0
 10 34  1  0  0  0  0
 10 35  1  0  0  0  0
 11 12  1  0  0  0  0
 11 36  1  0  0  0  0
 11 37  1  0  0  0  0
 12 13  1  0  0  0  0
 12 38  1  0  0  0  0
 12 39  1  0  0  0  0
 13 14  1  0  0  0  0
 13 40  1  0  0  0  0
 13 41  1  0  0  0  0
 14 15  1  0  0  0  0
 14 42  1  0  0  0  0
 14 43  1  0  0  0  0
 15 16  1  0  0  0  0
 15 44  1  0  0  0  0
 15 45  1  0  0  0  0
 16 17  1  0  0  0  0
 16 46  1  0  0  0  0
 16 47  1  0  0  0  0
 17 18  1  0  0  0  0
 17 48  1  0  0  0  0
 17 49  1  0  0  0  0
 18 19  1  0  0  0  0
 18 50  1  0  0  0  0
 18 51  1  0  0  0  0
 19 20  1  0  0  0  0
 19 52  1  0  0  0  0
 19 53  1  0  0  0  0
 20 54  1  0  0  0  0
 20 55  1  0  0  0  0
 20 56  1  0  0  0  0
M  END
$$$$
/media/chris/experiments/cd1a-new-docking/inputs/ligands/4x6d_1_ligand.pdb
 OpenBabel07012320263D

 56 55  0  0  0  0  0  0  0  0999 V2000
  -47.3416   57.8684   61.9802 C   0  0  0  0  0  0  0  0  0  0  0  0
  -48.5075   58.0218   61.5342 O   0  0  0  0  0  0  0  0  0  0  0  0
  -46.1597   58.4656   61.2415 C   0  0  0  0  0  0  0  0  0  0  0  0
  -47.1659   57.2206   63.0444 O   0  0  0  0  0  0  0  0  0  0  0  0
  -46.3111   59.9817   61.1710 C   0  0  0  0  0  0  0  0  0  0  0  0
  -46.3523   60.5936   62.5624 C   0  0  0  0  0  0  0  0  0  0  0  0
  -45.0669   60.3022   63.3241 C   0  0  0  0  0  0  0  0  0  0  0  0
  -45.1351   60.9090   64.7223 C   0  0  0  0  0  0  0  0  0  0  0  0
  -46.2869   60.3217   65.5183 C   0  0  0  0  0  0  0  0  0  0  0  0
  -46.1420   58.8190   65.6970 C   0  0  0  0  0  0  0  0  0  0  0  0
  -47.3380   58.3370   66.4800 C   0  0  0  0  0  0  0  0  0  0  0  0
  -48.6910   58.5200   65.9370 C   0  0  0  0  0  0  0  0  0  0  0  0
  -49.8970   58.0544   66.7220 C   0  0  0  0  0  0  0  0  0  0  0  0
  -49.8087   56.5516   66.9851 C   0  0  0  0  0  0  0  0  0  0  0  0
  -51.0045   56.0056   67.7608 C   0  0  0  0  0  0  0  0  0  0  0  0
  -50.8702   54.5025   68.0189 C   0  0  0  0  0  0  0  0  0  0  0  0
  -52.0421   53.8713   68.7804 C   0  0  0  0  0  0  0  0  0  0  0  0
  -51.8354   52.3698   69.0199 C   0  0  0  0  0  0  0  0  0  0  0  0
  -53.0068   51.7241   69.7644 C   0  0  0  0  0  0  0  0  0  0  0  0
  -54.3391   51.8302   69.0125 C   0  0  0  0  0  0  0  0  0  0  0  0
  -46.1209   58.0654   60.2499 H   0  0  0  0  0  0  0  0  0  0  0  0
  -45.2569   58.2232   61.7622 H   0  0  0  0  0  0  0  0  0  0  0  0
  -46.3004   57.1019   63.3832 H   0  0  0  0  0  0  0  0  0  0  0  0
  -47.2197   60.2186   60.6581 H   0  0  0  0  0  0  0  0  0  0  0  0
  -45.4681   60.3831   60.6484 H   0  0  0  0  0  0  0  0  0  0  0  0
  -47.1797   60.1818   63.1016 H   0  0  0  0  0  0  0  0  0  0  0  0
  -46.4588   61.6539   62.4658 H   0  0  0  0  0  0  0  0  0  0  0  0
  -44.2386   60.7253   62.7950 H   0  0  0  0  0  0  0  0  0  0  0  0
  -44.9431   59.2428   63.4085 H   0  0  0  0  0  0  0  0  0  0  0  0
  -45.2725   61.9668   64.6377 H   0  0  0  0  0  0  0  0  0  0  0  0
  -44.2214   60.6878   65.2334 H   0  0  0  0  0  0  0  0  0  0  0  0
  -47.2024   60.5223   65.0020 H   0  0  0  0  0  0  0  0  0  0  0  0
  -46.2850   60.7734   66.4883 H   0  0  0  0  0  0  0  0  0  0  0  0
  -45.2422   58.6001   66.2331 H   0  0  0  0  0  0  0  0  0  0  0  0
  -46.0923   58.3300   64.7466 H   0  0  0  0  0  0  0  0  0  0  0  0
  -47.3129   58.8400   67.4241 H   0  0  0  0  0  0  0  0  0  0  0  0
  -47.2164   57.2740   66.4873 H   0  0  0  0  0  0  0  0  0  0  0  0
  -48.7179   58.0067   64.9986 H   0  0  0  0  0  0  0  0  0  0  0  0
  -48.8057   59.5838   65.9236 H   0  0  0  0  0  0  0  0  0  0  0  0
  -50.7849   58.2635   66.1626 H   0  0  0  0  0  0  0  0  0  0  0  0
  -49.9244   58.5714   67.6584 H   0  0  0  0  0  0  0  0  0  0  0  0
  -48.9202   56.3566   67.5485 H   0  0  0  0  0  0  0  0  0  0  0  0
  -49.7968   56.0624   66.0336 H   0  0  0  0  0  0  0  0  0  0  0  0
  -51.8954   56.1826   67.1952 H   0  0  0  0  0  0  0  0  0  0  0  0
  -51.0465   56.5051   68.7062 H   0  0  0  0  0  0  0  0  0  0  0  0
  -49.9785   54.3413   68.5880 H   0  0  0  0  0  0  0  0  0  0  0  0
  -50.8494   54.0334   67.0574 H   0  0  0  0  0  0  0  0  0  0  0  0
  -52.9375   54.0095   68.2112 H   0  0  0  0  0  0  0  0  0  0  0  0
  -52.1099   54.3501   69.7349 H   0  0  0  0  0  0  0  0  0  0  0  0
  -50.9456   52.2346   69.5986 H   0  0  0  0  0  0  0  0  0  0  0  0
  -51.7603   51.8970   68.0629 H   0  0  0  0  0  0  0  0  0  0  0  0
  -53.1134   52.2074   70.7131 H   0  0  0  0  0  0  0  0  0  0  0  0
  -52.7823   50.6827   69.8639 H   0  0  0  0  0  0  0  0  0  0  0  0
  -54.5997   52.8610   68.8922 H   0  0  0  0  0  0  0  0  0  0  0  0
  -55.1041   51.3316   69.5702 H   0  0  0  0  0  0  0  0  0  0  0  0
  -54.2431   51.3720   68.0503 H   0  0  0  0  0  0  0  0  0  0  0  0
  1  2  2  0  0  0  0
  1  3  1  0  0  0  0
  1  4  1  0  0  0  0
  3  5  1  0  0  0  0
  3 21  1  0  0  0  0
  3 22  1  0  0  0  0
  4 23  1  0  0  0  0
  5  6  1  0  0  0  0
  5 24  1  0  0  0  0
  5 25  1  0  0  0  0
  6  7  1  0  0  0  0
  6 26  1  0  0  0  0
  6 27  1  0  0  0  0
  7  8  1  0  0  0  0
  7 28  1  0  0  0  0
  7 29  1  0  0  0  0
  8  9  1  0  0  0  0
  8 30  1  0  0  0  0
  8 31  1  0  0  0  0
  9 10  1  0  0  0  0
  9 32  1  0  0  0  0
  9 33  1  0  0  0  0
 10 11  1  0  0  0  0
 10 34  1  0  0  0  0
 10 35  1  0  0  0  0
 11 12  1  0  0  0  0
 11 36  1  0  0  0  0
 11 37  1  0  0  0  0
 12 13  1  0  0  0  0
 12 38  1  0  0  0  0
 12 39  1  0  0  0  0
 13 14  1  0  0  0  0
 13 40  1  0  0  0  0
 13 41  1  0  0  0  0
 14 15  1  0  0  0  0
 14 42  1  0  0  0  0
 14 43  1  0  0  0  0
 15 16  1  0  0  0  0
 15 44  1  0  0  0  0
 15 45  1  0  0  0  0
 16 17  1  0  0  0  0
 16 46  1  0  0  0  0
 16 47  1  0  0  0  0
 17 18  1  0  0  0  0
 17 48  1  0  0  0  0
 17 49  1  0  0  0  0
 18 19  1  0  0  0  0
 18 50  1  0  0  0  0
 18 51  1  0  0  0  0
 19 20  1  0  0  0  0
 19 52  1  0  0  0  0
 19 53  1  0  0  0  0
 20 54  1  0  0  0  0
 20 55  1  0  0  0  0
 20 56  1  0  0  0  0
M  END
$$$$
/media/chris/experiments/cd1a-new-docking/inputs/ligands/4x6d_1_ligand.pdb
 OpenBabel07012320263D

 56 55  0  0  0  0  0  0  0  0999 V2000
  -46.1987   64.1911   63.1662 C   0  0  0  0  0  0  0  0  0  0  0  0
  -46.6757   65.0110   63.9920 O   0  0  0  0  0  0  0  0  0  0  0  0
  -46.1609   62.7120   63.4980 C   0  0  0  0  0  0  0  0  0  0  0  0
  -45.7586   64.6077   62.0636 O   0  0  0  0  0  0  0  0  0  0  0  0
  -46.2796   61.8949   62.2155 C   0  0  0  0  0  0  0  0  0  0  0  0
  -46.2626   60.4037   62.5123 C   0  0  0  0  0  0  0  0  0  0  0  0
  -44.9754   60.0036   63.2198 C   0  0  0  0  0  0  0  0  0  0  0  0
  -44.9702   58.5025   63.4927 C   0  0  0  0  0  0  0  0  0  0  0  0
  -46.1509   58.0994   64.3580 C   0  0  0  0  0  0  0  0  0  0  0  0
  -46.1420   58.8190   65.6970 C   0  0  0  0  0  0  0  0  0  0  0  0
  -47.3380   58.3370   66.4800 C   0  0  0  0  0  0  0  0  0  0  0  0
  -48.6910   58.5200   65.9370 C   0  0  0  0  0  0  0  0  0  0  0  0
  -49.0768   57.8833   64.6205 C   0  0  0  0  0  0  0  0  0  0  0  0
  -50.5214   58.2342   64.2666 C   0  0  0  0  0  0  0  0  0  0  0  0
  -51.5272   57.7724   65.3177 C   0  0  0  0  0  0  0  0  0  0  0  0
  -52.9622   58.1268   64.9187 C   0  0  0  0  0  0  0  0  0  0  0  0
  -53.4423   57.4937   63.6071 C   0  0  0  0  0  0  0  0  0  0  0  0
  -54.8794   57.9032   63.2585 C   0  0  0  0  0  0  0  0  0  0  0  0
  -55.0339   59.4149   63.0732 C   0  0  0  0  0  0  0  0  0  0  0  0
  -54.1699   59.9811   61.9398 C   0  0  0  0  0  0  0  0  0  0  0  0
  -46.9755   62.4726   64.1491 H   0  0  0  0  0  0  0  0  0  0  0  0
  -45.2348   62.4806   63.9814 H   0  0  0  0  0  0  0  0  0  0  0  0
  -45.4016   64.0031   61.4431 H   0  0  0  0  0  0  0  0  0  0  0  0
  -45.4579   62.1326   61.5726 H   0  0  0  0  0  0  0  0  0  0  0  0
  -47.2089   62.1367   61.7436 H   0  0  0  0  0  0  0  0  0  0  0  0
  -46.3390   59.8628   61.5922 H   0  0  0  0  0  0  0  0  0  0  0  0
  -47.0891   60.1736   63.1516 H   0  0  0  0  0  0  0  0  0  0  0  0
  -44.9028   60.5319   64.1474 H   0  0  0  0  0  0  0  0  0  0  0  0
  -44.1423   60.2481   62.5945 H   0  0  0  0  0  0  0  0  0  0  0  0
  -44.0629   58.2422   63.9966 H   0  0  0  0  0  0  0  0  0  0  0  0
  -45.0427   57.9871   62.5578 H   0  0  0  0  0  0  0  0  0  0  0  0
  -46.1087   57.0444   64.5316 H   0  0  0  0  0  0  0  0  0  0  0  0
  -47.0486   58.3689   63.8418 H   0  0  0  0  0  0  0  0  0  0  0  0
  -46.2076   59.8760   65.5439 H   0  0  0  0  0  0  0  0  0  0  0  0
  -45.2364   58.6137   66.2287 H   0  0  0  0  0  0  0  0  0  0  0  0
  -47.3129   58.8400   67.4241 H   0  0  0  0  0  0  0  0  0  0  0  0
  -47.2164   57.2740   66.4873 H   0  0  0  0  0  0  0  0  0  0  0  0
  -48.8369   59.5739   65.8234 H   0  0  0  0  0  0  0  0  0  0  0  0
  -49.3084   58.0076   66.6449 H   0  0  0  0  0  0  0  0  0  0  0  0
  -48.9808   56.8206   64.7005 H   0  0  0  0  0  0  0  0  0  0  0  0
  -48.4300   58.2521   63.8520 H   0  0  0  0  0  0  0  0  0  0  0  0
  -50.7659   57.7690   63.3345 H   0  0  0  0  0  0  0  0  0  0  0  0
  -50.5854   59.3009   64.2123 H   0  0  0  0  0  0  0  0  0  0  0  0
  -51.2986   58.2469   66.2491 H   0  0  0  0  0  0  0  0  0  0  0  0
  -51.4568   56.7082   65.4035 H   0  0  0  0  0  0  0  0  0  0  0  0
  -53.0262   59.1901   64.8175 H   0  0  0  0  0  0  0  0  0  0  0  0
  -53.5934   57.7361   65.6893 H   0  0  0  0  0  0  0  0  0  0  0  0
  -53.4010   56.4288   63.7030 H   0  0  0  0  0  0  0  0  0  0  0  0
  -52.8025   57.8388   62.8219 H   0  0  0  0  0  0  0  0  0  0  0  0
  -55.5270   57.5872   64.0496 H   0  0  0  0  0  0  0  0  0  0  0  0
  -55.1326   57.4360   62.3298 H   0  0  0  0  0  0  0  0  0  0  0  0
  -54.7554   59.8987   63.9861 H   0  0  0  0  0  0  0  0  0  0  0  0
  -56.0555   59.5986   62.8136 H   0  0  0  0  0  0  0  0  0  0  0  0
  -53.1365   59.8164   62.1628 H   0  0  0  0  0  0  0  0  0  0  0  0
  -54.3512   61.0312   61.8436 H   0  0  0  0  0  0  0  0  0  0  0  0
  -54.4193   59.4906   61.0221 H   0  0  0  0  0  0  0  0  0  0  0  0
  1  2  2  0  0  0  0
  1  3  1  0  0  0  0
  1  4  1  0  0  0  0
  3  5  1  0  0  0  0
  3 21  1  0  0  0  0
  3 22  1  0  0  0  0
  4 23  1  0  0  0  0
  5  6  1  0  0  0  0
  5 24  1  0  0  0  0
  5 25  1  0  0  0  0
  6  7  1  0  0  0  0
  6 26  1  0  0  0  0
  6 27  1  0  0  0  0
  7  8  1  0  0  0  0
  7 28  1  0  0  0  0
  7 29  1  0  0  0  0
  8  9  1  0  0  0  0
  8 30  1  0  0  0  0
  8 31  1  0  0  0  0
  9 10  1  0  0  0  0
  9 32  1  0  0  0  0
  9 33  1  0  0  0  0
 10 11  1  0  0  0  0
 10 34  1  0  0  0  0
 10 35  1  0  0  0  0
 11 12  1  0  0  0  0
 11 36  1  0  0  0  0
 11 37  1  0  0  0  0
 12 13  1  0  0  0  0
 12 38  1  0  0  0  0
 12 39  1  0  0  0  0
 13 14  1  0  0  0  0
 13 40  1  0  0  0  0
 13 41  1  0  0  0  0
 14 15  1  0  0  0  0
 14 42  1  0  0  0  0
 14 43  1  0  0  0  0
 15 16  1  0  0  0  0
 15 44  1  0  0  0  0
 15 45  1  0  0  0  0
 16 17  1  0  0  0  0
 16 46  1  0  0  0  0
 16 47  1  0  0  0  0
 17 18  1  0  0  0  0
 17 48  1  0  0  0  0
 17 49  1  0  0  0  0
 18 19  1  0  0  0  0
 18 50  1  0  0  0  0
 18 51  1  0  0  0  0
 19 20  1  0  0  0  0
 19 52  1  0  0  0  0
 19 53  1  0  0  0  0
 20 54  1  0  0  0  0
 20 55  1  0  0  0  0
 20 56  1  0  0  0  0
M  END
$$$$
/media/chris/experiments/cd1a-new-docking/inputs/ligands/4x6d_1_ligand.pdb
 OpenBabel07012320263D

 56 55  0  0  0  0  0  0  0  0999 V2000
  -50.2388   62.5108   68.8764 C   0  0  0  0  0  0  0  0  0  0  0  0
  -50.1037   61.5147   69.6322 O   0  0  0  0  0  0  0  0  0  0  0  0
  -49.0515   63.0403   68.0959 C   0  0  0  0  0  0  0  0  0  0  0  0
  -51.3661   63.0595   68.7705 O   0  0  0  0  0  0  0  0  0  0  0  0
  -48.9829   62.3527   66.7361 C   0  0  0  0  0  0  0  0  0  0  0  0
  -47.7916   62.8477   65.9312 C   0  0  0  0  0  0  0  0  0  0  0  0
  -46.4849   62.5519   66.6541 C   0  0  0  0  0  0  0  0  0  0  0  0
  -46.3218   61.0478   66.8512 C   0  0  0  0  0  0  0  0  0  0  0  0
  -46.2869   60.3217   65.5183 C   0  0  0  0  0  0  0  0  0  0  0  0
  -46.1420   58.8190   65.6970 C   0  0  0  0  0  0  0  0  0  0  0  0
  -47.3380   58.3370   66.4800 C   0  0  0  0  0  0  0  0  0  0  0  0
  -48.6910   58.5200   65.9370 C   0  0  0  0  0  0  0  0  0  0  0  0
  -49.0768   57.8833   64.6205 C   0  0  0  0  0  0  0  0  0  0  0  0
  -48.9503   56.3630   64.7112 C   0  0  0  0  0  0  0  0  0  0  0  0
  -49.8548   55.7468   65.7751 C   0  0  0  0  0  0  0  0  0  0  0  0
  -49.6863   54.2267   65.8464 C   0  0  0  0  0  0  0  0  0  0  0  0
  -50.5749   53.5269   66.8819 C   0  0  0  0  0  0  0  0  0  0  0  0
  -50.3191   54.0396   68.3054 C   0  0  0  0  0  0  0  0  0  0  0  0
  -50.6047   55.5363   68.4538 C   0  0  0  0  0  0  0  0  0  0  0  0
  -52.0597   55.9119   68.1481 C   0  0  0  0  0  0  0  0  0  0  0  0
  -48.1515   62.8431   68.6400 H   0  0  0  0  0  0  0  0  0  0  0  0
  -49.1619   64.0951   67.9547 H   0  0  0  0  0  0  0  0  0  0  0  0
  -51.4749   63.8020   68.2094 H   0  0  0  0  0  0  0  0  0  0  0  0
  -49.8816   62.5606   66.1939 H   0  0  0  0  0  0  0  0  0  0  0  0
  -48.8730   61.3000   66.8931 H   0  0  0  0  0  0  0  0  0  0  0  0
  -47.8808   63.9042   65.7875 H   0  0  0  0  0  0  0  0  0  0  0  0
  -47.7824   62.3411   64.9887 H   0  0  0  0  0  0  0  0  0  0  0  0
  -46.4917   63.0351   67.6087 H   0  0  0  0  0  0  0  0  0  0  0  0
  -45.6694   62.9178   66.0658 H   0  0  0  0  0  0  0  0  0  0  0  0
  -47.1446   60.6799   67.4280 H   0  0  0  0  0  0  0  0  0  0  0  0
  -45.3969   60.8702   67.3590 H   0  0  0  0  0  0  0  0  0  0  0  0
  -45.4571   60.6841   64.9482 H   0  0  0  0  0  0  0  0  0  0  0  0
  -47.2116   60.5087   65.0136 H   0  0  0  0  0  0  0  0  0  0  0  0
  -45.2422   58.6001   66.2331 H   0  0  0  0  0  0  0  0  0  0  0  0
  -46.0923   58.3300   64.7466 H   0  0  0  0  0  0  0  0  0  0  0  0
  -47.3129   58.8400   67.4241 H   0  0  0  0  0  0  0  0  0  0  0  0
  -47.2164   57.2740   66.4873 H   0  0  0  0  0  0  0  0  0  0  0  0
  -48.8369   59.5739   65.8234 H   0  0  0  0  0  0  0  0  0  0  0  0
  -49.3084   58.0076   66.6449 H   0  0  0  0  0  0  0  0  0  0  0  0
  -48.4296   58.2462   63.8495 H   0  0  0  0  0  0  0  0  0  0  0  0
  -50.0918   58.1359   64.3951 H   0  0  0  0  0  0  0  0  0  0  0  0
  -47.9351   56.1196   64.9455 H   0  0  0  0  0  0  0  0  0  0  0  0
  -49.2520   55.9619   63.7662 H   0  0  0  0  0  0  0  0  0  0  0  0
  -50.8735   55.9725   65.5379 H   0  0  0  0  0  0  0  0  0  0  0  0
  -49.5833   56.1585   66.7246 H   0  0  0  0  0  0  0  0  0  0  0  0
  -48.6654   54.0164   66.0880 H   0  0  0  0  0  0  0  0  0  0  0  0
  -49.9823   53.8466   64.8910 H   0  0  0  0  0  0  0  0  0  0  0  0
  -50.3756   52.4760   66.8531 H   0  0  0  0  0  0  0  0  0  0  0  0
  -51.5947   53.7365   66.6353 H   0  0  0  0  0  0  0  0  0  0  0  0
  -49.2942   53.8602   68.5550 H   0  0  0  0  0  0  0  0  0  0  0  0
  -50.9833   53.5170   68.9616 H   0  0  0  0  0  0  0  0  0  0  0  0
  -49.9677   56.0715   67.7809 H   0  0  0  0  0  0  0  0  0  0  0  0
  -50.4203   55.7932   69.4760 H   0  0  0  0  0  0  0  0  0  0  0  0
  -52.2844   55.6694   67.1304 H   0  0  0  0  0  0  0  0  0  0  0  0
  -52.1973   56.9616   68.3033 H   0  0  0  0  0  0  0  0  0  0  0  0
  -52.7128   55.3668   68.7972 H   0  0  0  0  0  0  0  0  0  0  0  0
  1  2  2  0  0  0  0
  1  3  1  0  0  0  0
  1  4  1  0  0  0  0
  3  5  1  0  0  0  0
  3 21  1  0  0  0  0
  3 22  1  0  0  0  0
  4 23  1  0  0  0  0
  5  6  1  0  0  0  0
  5 24  1  0  0  0  0
  5 25  1  0  0  0  0
  6  7  1  0  0  0  0
  6 26  1  0  0  0  0
  6 27  1  0  0  0  0
  7  8  1  0  0  0  0
  7 28  1  0  0  0  0
  7 29  1  0  0  0  0
  8  9  1  0  0  0  0
  8 30  1  0  0  0  0
  8 31  1  0  0  0  0
  9 10  1  0  0  0  0
  9 32  1  0  0  0  0
  9 33  1  0  0  0  0
 10 11  1  0  0  0  0
 10 34  1  0  0  0  0
 10 35  1  0  0  0  0
 11 12  1  0  0  0  0
 11 36  1  0  0  0  0
 11 37  1  0  0  0  0
 12 13  1  0  0  0  0
 12 38  1  0  0  0  0
 12 39  1  0  0  0  0
 13 14  1  0  0  0  0
 13 40  1  0  0  0  0
 13 41  1  0  0  0  0
 14 15  1  0  0  0  0
 14 42  1  0  0  0  0
 14 43  1  0  0  0  0
 15 16  1  0  0  0  0
 15 44  1  0  0  0  0
 15 45  1  0  0  0  0
 16 17  1  0  0  0  0
 16 46  1  0  0  0  0
 16 47  1  0  0  0  0
 17 18  1  0  0  0  0
 17 48  1  0  0  0  0
 17 49  1  0  0  0  0
 18 19  1  0  0  0  0
 18 50  1  0  0  0  0
 18 51  1  0  0  0  0
 19 20  1  0  0  0  0
 19 52  1  0  0  0  0
 19 53  1  0  0  0  0
 20 54  1  0  0  0  0
 20 55  1  0  0  0  0
 20 56  1  0  0  0  0
M  END
$$$$
/media/chris/experiments/cd1a-new-docking/inputs/ligands/4x6d_1_ligand.pdb
 OpenBabel07012320263D

 56 55  0  0  0  0  0  0  0  0999 V2000
  -42.7270   63.3070   68.7374 C   0  0  0  0  0  0  0  0  0  0  0  0
  -42.0854   62.2420   68.5484 O   0  0  0  0  0  0  0  0  0  0  0  0
  -44.0073   63.5705   67.9688 C   0  0  0  0  0  0  0  0  0  0  0  0
  -42.3006   64.1473   69.5711 O   0  0  0  0  0  0  0  0  0  0  0  0
  -45.1978   63.0275   68.7525 C   0  0  0  0  0  0  0  0  0  0  0  0
  -46.4998   63.2592   68.0020 C   0  0  0  0  0  0  0  0  0  0  0  0
  -46.4849   62.5519   66.6541 C   0  0  0  0  0  0  0  0  0  0  0  0
  -46.3218   61.0478   66.8512 C   0  0  0  0  0  0  0  0  0  0  0  0
  -46.2869   60.3217   65.5183 C   0  0  0  0  0  0  0  0  0  0  0  0
  -46.1420   58.8190   65.6970 C   0  0  0  0  0  0  0  0  0  0  0  0
  -47.3380   58.3370   66.4800 C   0  0  0  0  0  0  0  0  0  0  0  0
  -48.6910   58.5200   65.9370 C   0  0  0  0  0  0  0  0  0  0  0  0
  -49.8970   58.0544   66.7220 C   0  0  0  0  0  0  0  0  0  0  0  0
  -49.8087   56.5516   66.9851 C   0  0  0  0  0  0  0  0  0  0  0  0
  -51.0045   56.0056   67.7608 C   0  0  0  0  0  0  0  0  0  0  0  0
  -50.8702   54.5025   68.0189 C   0  0  0  0  0  0  0  0  0  0  0  0
  -52.0421   53.8713   68.7804 C   0  0  0  0  0  0  0  0  0  0  0  0
  -52.2488   54.5119   70.1593 C   0  0  0  0  0  0  0  0  0  0  0  0
  -51.0157   54.3887   71.0582 C   0  0  0  0  0  0  0  0  0  0  0  0
  -49.7706   55.0730   70.4811 C   0  0  0  0  0  0  0  0  0  0  0  0
  -43.9569   63.0850   67.0166 H   0  0  0  0  0  0  0  0  0  0  0  0
  -44.1261   64.6246   67.8286 H   0  0  0  0  0  0  0  0  0  0  0  0
  -42.7730   64.9432   69.7175 H   0  0  0  0  0  0  0  0  0  0  0  0
  -45.2476   63.5227   69.6997 H   0  0  0  0  0  0  0  0  0  0  0  0
  -45.0651   61.9740   68.8850 H   0  0  0  0  0  0  0  0  0  0  0  0
  -46.6310   64.3095   67.8448 H   0  0  0  0  0  0  0  0  0  0  0  0
  -47.3050   62.8644   68.5857 H   0  0  0  0  0  0  0  0  0  0  0  0
  -45.6691   62.9224   66.0693 H   0  0  0  0  0  0  0  0  0  0  0  0
  -47.4099   62.7402   66.1503 H   0  0  0  0  0  0  0  0  0  0  0  0
  -47.1446   60.6799   67.4280 H   0  0  0  0  0  0  0  0  0  0  0  0
  -45.3969   60.8702   67.3590 H   0  0  0  0  0  0  0  0  0  0  0  0
  -45.4571   60.6841   64.9482 H   0  0  0  0  0  0  0  0  0  0  0  0
  -47.2116   60.5087   65.0136 H   0  0  0  0  0  0  0  0  0  0  0  0
  -45.2422   58.6001   66.2331 H   0  0  0  0  0  0  0  0  0  0  0  0
  -46.0923   58.3300   64.7466 H   0  0  0  0  0  0  0  0  0  0  0  0
  -47.3129   58.8400   67.4241 H   0  0  0  0  0  0  0  0  0  0  0  0
  -47.2164   57.2740   66.4873 H   0  0  0  0  0  0  0  0  0  0  0  0
  -48.7179   58.0067   64.9986 H   0  0  0  0  0  0  0  0  0  0  0  0
  -48.8057   59.5838   65.9236 H   0  0  0  0  0  0  0  0  0  0  0  0
  -50.7849   58.2635   66.1626 H   0  0  0  0  0  0  0  0  0  0  0  0
  -49.9244   58.5714   67.6584 H   0  0  0  0  0  0  0  0  0  0  0  0
  -48.9202   56.3566   67.5485 H   0  0  0  0  0  0  0  0  0  0  0  0
  -49.7968   56.0624   66.0336 H   0  0  0  0  0  0  0  0  0  0  0  0
  -51.8954   56.1826   67.1952 H   0  0  0  0  0  0  0  0  0  0  0  0
  -51.0465   56.5051   68.7062 H   0  0  0  0  0  0  0  0  0  0  0  0
  -49.9785   54.3413   68.5880 H   0  0  0  0  0  0  0  0  0  0  0  0
  -50.8494   54.0334   67.0574 H   0  0  0  0  0  0  0  0  0  0  0  0
  -51.8460   52.8275   68.9111 H   0  0  0  0  0  0  0  0  0  0  0  0
  -52.9311   54.0314   68.2069 H   0  0  0  0  0  0  0  0  0  0  0  0
  -53.0733   54.0291   70.6410 H   0  0  0  0  0  0  0  0  0  0  0  0
  -52.4351   55.5544   70.0070 H   0  0  0  0  0  0  0  0  0  0  0  0
  -50.7987   53.3500   71.1958 H   0  0  0  0  0  0  0  0  0  0  0  0
  -51.2469   54.8793   71.9805 H   0  0  0  0  0  0  0  0  0  0  0  0
  -49.5059   54.6090   69.5540 H   0  0  0  0  0  0  0  0  0  0  0  0
  -48.9590   54.9781   71.1720 H   0  0  0  0  0  0  0  0  0  0  0  0
  -49.9780   56.1095   70.3148 H   0  0  0  0  0  0  0  0  0  0  0  0
  1  2  2  0  0  0  0
  1  3  1  0  0  0  0
  1  4  1  0  0  0  0
  3  5  1  0  0  0  0
  3 21  1  0  0  0  0
  3 22  1  0  0  0  0
  4 23  1  0  0  0  0
  5  6  1  0  0  0  0
  5 24  1  0  0  0  0
  5 25  1  0  0  0  0
  6  7  1  0  0  0  0
  6 26  1  0  0  0  0
  6 27  1  0  0  0  0
  7  8  1  0  0  0  0
  7 28  1  0  0  0  0
  7 29  1  0  0  0  0
  8  9  1  0  0  0  0
  8 30  1  0  0  0  0
  8 31  1  0  0  0  0
  9 10  1  0  0  0  0
  9 32  1  0  0  0  0
  9 33  1  0  0  0  0
 10 11  1  0  0  0  0
 10 34  1  0  0  0  0
 10 35  1  0  0  0  0
 11 12  1  0  0  0  0
 11 36  1  0  0  0  0
 11 37  1  0  0  0  0
 12 13  1  0  0  0  0
 12 38  1  0  0  0  0
 12 39  1  0  0  0  0
 13 14  1  0  0  0  0
 13 40  1  0  0  0  0
 13 41  1  0  0  0  0
 14 15  1  0  0  0  0
 14 42  1  0  0  0  0
 14 43  1  0  0  0  0
 15 16  1  0  0  0  0
 15 44  1  0  0  0  0
 15 45  1  0  0  0  0
 16 17  1  0  0  0  0
 16 46  1  0  0  0  0
 16 47  1  0  0  0  0
 17 18  1  0  0  0  0
 17 48  1  0  0  0  0
 17 49  1  0  0  0  0
 18 19  1  0  0  0  0
 18 50  1  0  0  0  0
 18 51  1  0  0  0  0
 19 20  1  0  0  0  0
 19 52  1  0  0  0  0
 19 53  1  0  0  0  0
 20 54  1  0  0  0  0
 20 55  1  0  0  0  0
 20 56  1  0  0  0  0
M  END
$$$$
/media/chris/experiments/cd1a-new-docking/inputs/ligands/4x6d_1_ligand.pdb
 OpenBabel07012320263D

 56 55  0  0  0  0  0  0  0  0999 V2000
  -44.1785   65.0961   67.6270 C   0  0  0  0  0  0  0  0  0  0  0  0
  -44.2335   65.5058   66.4392 O   0  0  0  0  0  0  0  0  0  0  0  0
  -44.0305   63.6147   67.9147 C   0  0  0  0  0  0  0  0  0  0  0  0
  -44.2426   65.9248   68.5716 O   0  0  0  0  0  0  0  0  0  0  0  0
  -43.9717   62.8400   66.6021 C   0  0  0  0  0  0  0  0  0  0  0  0
  -43.8404   61.3460   66.8529 C   0  0  0  0  0  0  0  0  0  0  0  0
  -45.0340   60.8182   67.6366 C   0  0  0  0  0  0  0  0  0  0  0  0
  -46.3218   61.0478   66.8512 C   0  0  0  0  0  0  0  0  0  0  0  0
  -46.2869   60.3217   65.5183 C   0  0  0  0  0  0  0  0  0  0  0  0
  -46.1420   58.8190   65.6970 C   0  0  0  0  0  0  0  0  0  0  0  0
  -47.3380   58.3370   66.4800 C   0  0  0  0  0  0  0  0  0  0  0  0
  -48.6910   58.5200   65.9370 C   0  0  0  0  0  0  0  0  0  0  0  0
  -49.8970   58.0544   66.7220 C   0  0  0  0  0  0  0  0  0  0  0  0
  -49.8087   56.5516   66.9851 C   0  0  0  0  0  0  0  0  0  0  0  0
  -48.5795   56.1547   67.7983 C   0  0  0  0  0  0  0  0  0  0  0  0
  -48.5762   56.8215   69.1765 C   0  0  0  0  0  0  0  0  0  0  0  0
  -47.3626   56.4870   70.0522 C   0  0  0  0  0  0  0  0  0  0  0  0
  -46.0428   56.9281   69.4056 C   0  0  0  0  0  0  0  0  0  0  0  0
  -45.9797   58.4385   69.1642 C   0  0  0  0  0  0  0  0  0  0  0  0
  -46.0918   59.2660   70.4504 C   0  0  0  0  0  0  0  0  0  0  0  0
  -44.8683   63.2784   68.4891 H   0  0  0  0  0  0  0  0  0  0  0  0
  -43.1280   63.4489   68.4651 H   0  0  0  0  0  0  0  0  0  0  0  0
  -44.2023   65.6274   69.4592 H   0  0  0  0  0  0  0  0  0  0  0  0
  -43.1274   63.1748   66.0365 H   0  0  0  0  0  0  0  0  0  0  0  0
  -44.8793   63.0155   66.0633 H   0  0  0  0  0  0  0  0  0  0  0  0
  -42.9462   61.1620   67.4109 H   0  0  0  0  0  0  0  0  0  0  0  0
  -43.8029   60.8436   65.9089 H   0  0  0  0  0  0  0  0  0  0  0  0
  -45.0957   61.3299   68.5743 H   0  0  0  0  0  0  0  0  0  0  0  0
  -44.9075   59.7686   67.8014 H   0  0  0  0  0  0  0  0  0  0  0  0
  -46.4412   62.0964   66.6748 H   0  0  0  0  0  0  0  0  0  0  0  0
  -47.1414   60.6668   67.4241 H   0  0  0  0  0  0  0  0  0  0  0  0
  -45.4571   60.6841   64.9482 H   0  0  0  0  0  0  0  0  0  0  0  0
  -47.2116   60.5087   65.0136 H   0  0  0  0  0  0  0  0  0  0  0  0
  -45.2422   58.6001   66.2331 H   0  0  0  0  0  0  0  0  0  0  0  0
  -46.0923   58.3300   64.7466 H   0  0  0  0  0  0  0  0  0  0  0  0
  -47.3129   58.8400   67.4241 H   0  0  0  0  0  0  0  0  0  0  0  0
  -47.2164   57.2740   66.4873 H   0  0  0  0  0  0  0  0  0  0  0  0
  -48.7179   58.0067   64.9986 H   0  0  0  0  0  0  0  0  0  0  0  0
  -48.8057   59.5838   65.9236 H   0  0  0  0  0  0  0  0  0  0  0  0
  -50.7849   58.2635   66.1626 H   0  0  0  0  0  0  0  0  0  0  0  0
  -49.9244   58.5714   67.6584 H   0  0  0  0  0  0  0  0  0  0  0  0
  -49.7728   56.0431   66.0443 H   0  0  0  0  0  0  0  0  0  0  0  0
  -50.6704   56.2778   67.5573 H   0  0  0  0  0  0  0  0  0  0  0  0
  -47.7002   56.4526   67.2663 H   0  0  0  0  0  0  0  0  0  0  0  0
  -48.5998   55.0943   67.9396 H   0  0  0  0  0  0  0  0  0  0  0  0
  -49.4577   56.5117   69.6978 H   0  0  0  0  0  0  0  0  0  0  0  0
  -48.5373   57.8760   68.9998 H   0  0  0  0  0  0  0  0  0  0  0  0
  -47.3324   55.4291   70.2100 H   0  0  0  0  0  0  0  0  0  0  0  0
  -47.4685   57.0154   70.9766 H   0  0  0  0  0  0  0  0  0  0  0  0
  -45.9372   56.4265   68.4664 H   0  0  0  0  0  0  0  0  0  0  0  0
  -45.2517   56.6750   70.0801 H   0  0  0  0  0  0  0  0  0  0  0  0
  -46.7841   58.7119   68.5138 H   0  0  0  0  0  0  0  0  0  0  0  0
  -45.0227   58.6501   68.7350 H   0  0  0  0  0  0  0  0  0  0  0  0
  -47.0395   59.0815   70.9117 H   0  0  0  0  0  0  0  0  0  0  0  0
  -46.0067   60.3061   70.2139 H   0  0  0  0  0  0  0  0  0  0  0  0
  -45.3076   58.9879   71.1230 H   0  0  0  0  0  0  0  0  0  0  0  0
  1  2  2  0  0  0  0
  1  3  1  0  0  0  0
  1  4  1  0  0  0  0
  3  5  1  0  0  0  0
  3 21  1  0  0  0  0
  3 22  1  0  0  0  0
  4 23  1  0  0  0  0
  5  6  1  0  0  0  0
  5 24  1  0  0  0  0
  5 25  1  0  0  0  0
  6  7  1  0  0  0  0
  6 26  1  0  0  0  0
  6 27  1  0  0  0  0
  7  8  1  0  0  0  0
  7 28  1  0  0  0  0
  7 29  1  0  0  0  0
  8  9  1  0  0  0  0
  8 30  1  0  0  0  0
  8 31  1  0  0  0  0
  9 10  1  0  0  0  0
  9 32  1  0  0  0  0
  9 33  1  0  0  0  0
 10 11  1  0  0  0  0
 10 34  1  0  0  0  0
 10 35  1  0  0  0  0
 11 12  1  0  0  0  0
 11 36  1  0  0  0  0
 11 37  1  0  0  0  0
 12 13  1  0  0  0  0
 12 38  1  0  0  0  0
 12 39  1  0  0  0  0
 13 14  1  0  0  0  0
 13 40  1  0  0  0  0
 13 41  1  0  0  0  0
 14 15  1  0  0  0  0
 14 42  1  0  0  0  0
 14 43  1  0  0  0  0
 15 16  1  0  0  0  0
 15 44  1  0  0  0  0
 15 45  1  0  0  0  0
 16 17  1  0  0  0  0
 16 46  1  0  0  0  0
 16 47  1  0  0  0  0
 17 18  1  0  0  0  0
 17 48  1  0  0  0  0
 17 49  1  0  0  0  0
 18 19  1  0  0  0  0
 18 50  1  0  0  0  0
 18 51  1  0  0  0  0
 19 20  1  0  0  0  0
 19 52  1  0  0  0  0
 19 53  1  0  0  0  0
 20 54  1  0  0  0  0
 20 55  1  0  0  0  0
 20 56  1  0  0  0  0
M  END
$$$$
/media/chris/experiments/cd1a-new-docking/inputs/ligands/4x6d_1_ligand.pdb
 OpenBabel07012320263D

 56 55  0  0  0  0  0  0  0  0999 V2000
  -42.8395   63.4003   68.6714 C   0  0  0  0  0  0  0  0  0  0  0  0
  -42.1707   62.3626   68.4315 O   0  0  0  0  0  0  0  0  0  0  0  0
  -44.1577   63.6370   67.9604 C   0  0  0  0  0  0  0  0  0  0  0  0
  -42.4083   64.2356   69.5077 O   0  0  0  0  0  0  0  0  0  0  0  0
  -45.2969   63.0356   68.7771 C   0  0  0  0  0  0  0  0  0  0  0  0
  -45.0998   61.5408   68.9749 C   0  0  0  0  0  0  0  0  0  0  0  0
  -45.0340   60.8182   67.6366 C   0  0  0  0  0  0  0  0  0  0  0  0
  -46.3218   61.0478   66.8512 C   0  0  0  0  0  0  0  0  0  0  0  0
  -46.2869   60.3217   65.5183 C   0  0  0  0  0  0  0  0  0  0  0  0
  -46.1420   58.8190   65.6970 C   0  0  0  0  0  0  0  0  0  0  0  0
  -47.3380   58.3370   66.4800 C   0  0  0  0  0  0  0  0  0  0  0  0
  -48.6910   58.5200   65.9370 C   0  0  0  0  0  0  0  0  0  0  0  0
  -49.8970   58.0544   66.7220 C   0  0  0  0  0  0  0  0  0  0  0  0
  -49.9684   58.7830   68.0634 C   0  0  0  0  0  0  0  0  0  0  0  0
  -50.0999   60.2968   67.9193 C   0  0  0  0  0  0  0  0  0  0  0  0
  -51.3756   60.6824   67.1656 C   0  0  0  0  0  0  0  0  0  0  0  0
  -52.6807   60.2341   67.8344 C   0  0  0  0  0  0  0  0  0  0  0  0
  -53.9170   60.6369   67.0196 C   0  0  0  0  0  0  0  0  0  0  0  0
  -53.9300   60.0154   65.6206 C   0  0  0  0  0  0  0  0  0  0  0  0
  -55.1504   60.4209   64.7853 C   0  0  0  0  0  0  0  0  0  0  0  0
  -44.1294   63.1755   66.9955 H   0  0  0  0  0  0  0  0  0  0  0  0
  -44.3173   64.6893   67.8506 H   0  0  0  0  0  0  0  0  0  0  0  0
  -42.9008   65.0111   69.6919 H   0  0  0  0  0  0  0  0  0  0  0  0
  -46.2206   63.2011   68.2630 H   0  0  0  0  0  0  0  0  0  0  0  0
  -45.3112   63.5062   69.7379 H   0  0  0  0  0  0  0  0  0  0  0  0
  -45.9189   61.1519   69.5429 H   0  0  0  0  0  0  0  0  0  0  0  0
  -44.1768   61.3840   69.4930 H   0  0  0  0  0  0  0  0  0  0  0  0
  -44.9058   59.7697   67.8068 H   0  0  0  0  0  0  0  0  0  0  0  0
  -44.2083   61.2000   67.0733 H   0  0  0  0  0  0  0  0  0  0  0  0
  -46.4412   62.0964   66.6748 H   0  0  0  0  0  0  0  0  0  0  0  0
  -47.1414   60.6668   67.4241 H   0  0  0  0  0  0  0  0  0  0  0  0
  -45.4571   60.6841   64.9482 H   0  0  0  0  0  0  0  0  0  0  0  0
  -47.2116   60.5087   65.0136 H   0  0  0  0  0  0  0  0  0  0  0  0
  -45.2422   58.6001   66.2331 H   0  0  0  0  0  0  0  0  0  0  0  0
  -46.0923   58.3300   64.7466 H   0  0  0  0  0  0  0  0  0  0  0  0
  -47.3129   58.8400   67.4241 H   0  0  0  0  0  0  0  0  0  0  0  0
  -47.2164   57.2740   66.4873 H   0  0  0  0  0  0  0  0  0  0  0  0
  -48.7179   58.0067   64.9986 H   0  0  0  0  0  0  0  0  0  0  0  0
  -48.8057   59.5838   65.9236 H   0  0  0  0  0  0  0  0  0  0  0  0
  -49.8205   57.0014   66.8956 H   0  0  0  0  0  0  0  0  0  0  0  0
  -50.7824   58.2692   66.1609 H   0  0  0  0  0  0  0  0  0  0  0  0
  -49.0759   58.5701   68.6139 H   0  0  0  0  0  0  0  0  0  0  0  0
  -50.8449   58.4344   68.5684 H   0  0  0  0  0  0  0  0  0  0  0  0
  -49.2530   60.6694   67.3818 H   0  0  0  0  0  0  0  0  0  0  0  0
  -50.1483   60.7234   68.8993 H   0  0  0  0  0  0  0  0  0  0  0  0
  -51.3326   60.2413   66.1917 H   0  0  0  0  0  0  0  0  0  0  0  0
  -51.4007   61.7519   67.1452 H   0  0  0  0  0  0  0  0  0  0  0  0
  -52.7443   60.6848   68.8028 H   0  0  0  0  0  0  0  0  0  0  0  0
  -52.6654   59.1664   67.9023 H   0  0  0  0  0  0  0  0  0  0  0  0
  -53.9299   61.7023   66.9211 H   0  0  0  0  0  0  0  0  0  0  0  0
  -54.7793   60.2775   67.5412 H   0  0  0  0  0  0  0  0  0  0  0  0
  -53.9276   58.9502   65.7227 H   0  0  0  0  0  0  0  0  0  0  0  0
  -53.0625   60.3744   65.1074 H   0  0  0  0  0  0  0  0  0  0  0  0
  -56.0423   60.0785   65.2673 H   0  0  0  0  0  0  0  0  0  0  0  0
  -55.0792   59.9808   63.8127 H   0  0  0  0  0  0  0  0  0  0  0  0
  -55.1814   61.4865   64.6932 H   0  0  0  0  0  0  0  0  0  0  0  0
  1  2  2  0  0  0  0
  1  3  1  0  0  0  0
  1  4  1  0  0  0  0
  3  5  1  0  0  0  0
  3 21  1  0  0  0  0
  3 22  1  0  0  0  0
  4 23  1  0  0  0  0
  5  6  1  0  0  0  0
  5 24  1  0  0  0  0
  5 25  1  0  0  0  0
  6  7  1  0  0  0  0
  6 26  1  0  0  0  0
  6 27  1  0  0  0  0
  7  8  1  0  0  0  0
  7 28  1  0  0  0  0
  7 29  1  0  0  0  0
  8  9  1  0  0  0  0
  8 30  1  0  0  0  0
  8 31  1  0  0  0  0
  9 10  1  0  0  0  0
  9 32  1  0  0  0  0
  9 33  1  0  0  0  0
 10 11  1  0  0  0  0
 10 34  1  0  0  0  0
 10 35  1  0  0  0  0
 11 12  1  0  0  0  0
 11 36  1  0  0  0  0
 11 37  1  0  0  0  0
 12 13  1  0  0  0  0
 12 38  1  0  0  0  0
 12 39  1  0  0  0  0
 13 14  1  0  0  0  0
 13 40  1  0  0  0  0
 13 41  1  0  0  0  0
 14 15  1  0  0  0  0
 14 42  1  0  0  0  0
 14 43  1  0  0  0  0
 15 16  1  0  0  0  0
 15 44  1  0  0  0  0
 15 45  1  0  0  0  0
 16 17  1  0  0  0  0
 16 46  1  0  0  0  0
 16 47  1  0  0  0  0
 17 18  1  0  0  0  0
 17 48  1  0  0  0  0
 17 49  1  0  0  0  0
 18 19  1  0  0  0  0
 18 50  1  0  0  0  0
 18 51  1  0  0  0  0
 19 20  1  0  0  0  0
 19 52  1  0  0  0  0
 19 53  1  0  0  0  0
 20 54  1  0  0  0  0
 20 55  1  0  0  0  0
 20 56  1  0  0  0  0
M  END
$$$$
/media/chris/experiments/cd1a-new-docking/inputs/ligands/4x6d_1_ligand.pdb
 OpenBabel07012320263D

 56 55  0  0  0  0  0  0  0  0999 V2000
  -45.6402   66.7659   67.0003 C   0  0  0  0  0  0  0  0  0  0  0  0
  -45.6494   67.5186   68.0077 O   0  0  0  0  0  0  0  0  0  0  0  0
  -45.4530   65.2708   67.1693 C   0  0  0  0  0  0  0  0  0  0  0  0
  -45.7920   67.2630   65.8544 O   0  0  0  0  0  0  0  0  0  0  0  0
  -45.4628   64.5943   65.8023 C   0  0  0  0  0  0  0  0  0  0  0  0
  -45.2944   63.0888   65.9345 C   0  0  0  0  0  0  0  0  0  0  0  0
  -45.2873   62.4192   64.5674 C   0  0  0  0  0  0  0  0  0  0  0  0
  -45.1351   60.9090   64.7223 C   0  0  0  0  0  0  0  0  0  0  0  0
  -46.2869   60.3217   65.5183 C   0  0  0  0  0  0  0  0  0  0  0  0
  -46.1420   58.8190   65.6970 C   0  0  0  0  0  0  0  0  0  0  0  0
  -47.3380   58.3370   66.4800 C   0  0  0  0  0  0  0  0  0  0  0  0
  -48.6910   58.5200   65.9370 C   0  0  0  0  0  0  0  0  0  0  0  0
  -49.0768   57.8833   64.6205 C   0  0  0  0  0  0  0  0  0  0  0  0
  -50.5214   58.2342   64.2666 C   0  0  0  0  0  0  0  0  0  0  0  0
  -50.9877   57.6100   62.9541 C   0  0  0  0  0  0  0  0  0  0  0  0
  -52.4319   57.9988   62.6267 C   0  0  0  0  0  0  0  0  0  0  0  0
  -53.4659   57.5871   63.6817 C   0  0  0  0  0  0  0  0  0  0  0  0
  -53.4868   56.0700   63.9108 C   0  0  0  0  0  0  0  0  0  0  0  0
  -52.1440   55.5299   64.4096 C   0  0  0  0  0  0  0  0  0  0  0  0
  -52.1412   54.0120   64.6278 C   0  0  0  0  0  0  0  0  0  0  0  0
  -46.2492   64.8778   67.7664 H   0  0  0  0  0  0  0  0  0  0  0  0
  -44.5163   65.0829   67.6511 H   0  0  0  0  0  0  0  0  0  0  0  0
  -45.7863   66.7089   65.0988 H   0  0  0  0  0  0  0  0  0  0  0  0
  -44.6596   64.9852   65.2133 H   0  0  0  0  0  0  0  0  0  0  0  0
  -46.4041   64.7907   65.3329 H   0  0  0  0  0  0  0  0  0  0  0  0
  -46.1042   62.6955   66.5128 H   0  0  0  0  0  0  0  0  0  0  0  0
  -44.3596   62.8911   66.4162 H   0  0  0  0  0  0  0  0  0  0  0  0
  -44.4697   62.7998   63.9915 H   0  0  0  0  0  0  0  0  0  0  0  0
  -46.2118   62.6283   64.0709 H   0  0  0  0  0  0  0  0  0  0  0  0
  -44.2170   60.7008   65.2309 H   0  0  0  0  0  0  0  0  0  0  0  0
  -45.1347   60.4661   63.7483 H   0  0  0  0  0  0  0  0  0  0  0  0
  -47.2024   60.5223   65.0020 H   0  0  0  0  0  0  0  0  0  0  0  0
  -46.2850   60.7734   66.4883 H   0  0  0  0  0  0  0  0  0  0  0  0
  -45.2422   58.6001   66.2331 H   0  0  0  0  0  0  0  0  0  0  0  0
  -46.0923   58.3300   64.7466 H   0  0  0  0  0  0  0  0  0  0  0  0
  -47.3129   58.8400   67.4241 H   0  0  0  0  0  0  0  0  0  0  0  0
  -47.2164   57.2740   66.4873 H   0  0  0  0  0  0  0  0  0  0  0  0
  -48.8369   59.5739   65.8234 H   0  0  0  0  0  0  0  0  0  0  0  0
  -49.3084   58.0076   66.6449 H   0  0  0  0  0  0  0  0  0  0  0  0
  -48.9808   56.8206   64.7005 H   0  0  0  0  0  0  0  0  0  0  0  0
  -48.4300   58.2521   63.8520 H   0  0  0  0  0  0  0  0  0  0  0  0
  -50.6028   59.2980   64.1850 H   0  0  0  0  0  0  0  0  0  0  0  0
  -51.1435   57.8419   65.0438 H   0  0  0  0  0  0  0  0  0  0  0  0
  -50.9245   56.5449   63.0344 H   0  0  0  0  0  0  0  0  0  0  0  0
  -50.3574   57.9720   62.1688 H   0  0  0  0  0  0  0  0  0  0  0  0
  -52.6993   57.5349   61.7004 H   0  0  0  0  0  0  0  0  0  0  0  0
  -52.4533   59.0678   62.5866 H   0  0  0  0  0  0  0  0  0  0  0  0
  -54.4355   57.8996   63.3543 H   0  0  0  0  0  0  0  0  0  0  0  0
  -53.1974   58.0554   64.6055 H   0  0  0  0  0  0  0  0  0  0  0  0
  -53.7280   55.5874   62.9868 H   0  0  0  0  0  0  0  0  0  0  0  0
  -54.2175   55.8669   64.6656 H   0  0  0  0  0  0  0  0  0  0  0  0
  -51.9107   56.0066   65.3387 H   0  0  0  0  0  0  0  0  0  0  0  0
  -51.4177   55.7416   63.6529 H   0  0  0  0  0  0  0  0  0  0  0  0
  -52.8578   53.7587   65.3809 H   0  0  0  0  0  0  0  0  0  0  0  0
  -51.1676   53.6987   64.9421 H   0  0  0  0  0  0  0  0  0  0  0  0
  -52.3963   53.5197   63.7127 H   0  0  0  0  0  0  0  0  0  0  0  0
  1  2  2  0  0  0  0
  1  3  1  0  0  0  0
  1  4  1  0  0  0  0
  3  5  1  0  0  0  0
  3 21  1  0  0  0  0
  3 22  1  0  0  0  0
  4 23  1  0  0  0  0
  5  6  1  0  0  0  0
  5 24  1  0  0  0  0
  5 25  1  0  0  0  0
  6  7  1  0  0  0  0
  6 26  1  0  0  0  0
  6 27  1  0  0  0  0
  7  8  1  0  0  0  0
  7 28  1  0  0  0  0
  7 29  1  0  0  0  0
  8  9  1  0  0  0  0
  8 30  1  0  0  0  0
  8 31  1  0  0  0  0
  9 10  1  0  0  0  0
  9 32  1  0  0  0  0
  9 33  1  0  0  0  0
 10 11  1  0  0  0  0
 10 34  1  0  0  0  0
 10 35  1  0  0  0  0
 11 12  1  0  0  0  0
 11 36  1  0  0  0  0
 11 37  1  0  0  0  0
 12 13  1  0  0  0  0
 12 38  1  0  0  0  0
 12 39  1  0  0  0  0
 13 14  1  0  0  0  0
 13 40  1  0  0  0  0
 13 41  1  0  0  0  0
 14 15  1  0  0  0  0
 14 42  1  0  0  0  0
 14 43  1  0  0  0  0
 15 16  1  0  0  0  0
 15 44  1  0  0  0  0
 15 45  1  0  0  0  0
 16 17  1  0  0  0  0
 16 46  1  0  0  0  0
 16 47  1  0  0  0  0
 17 18  1  0  0  0  0
 17 48  1  0  0  0  0
 17 49  1  0  0  0  0
 18 19  1  0  0  0  0
 18 50  1  0  0  0  0
 18 51  1  0  0  0  0
 19 20  1  0  0  0  0
 19 52  1  0  0  0  0
 19 53  1  0  0  0  0
 20 54  1  0  0  0  0
 20 55  1  0  0  0  0
 20 56  1  0  0  0  0
M  END
$$$$
/media/chris/experiments/cd1a-new-docking/inputs/ligands/4x6d_1_ligand.pdb
 OpenBabel07012320263D

 56 55  0  0  0  0  0  0  0  0999 V2000
  -45.6402   66.7659   67.0003 C   0  0  0  0  0  0  0  0  0  0  0  0
  -45.6494   67.5186   68.0077 O   0  0  0  0  0  0  0  0  0  0  0  0
  -45.4530   65.2708   67.1693 C   0  0  0  0  0  0  0  0  0  0  0  0
  -45.7920   67.2630   65.8544 O   0  0  0  0  0  0  0  0  0  0  0  0
  -45.4628   64.5943   65.8023 C   0  0  0  0  0  0  0  0  0  0  0  0
  -45.2944   63.0888   65.9345 C   0  0  0  0  0  0  0  0  0  0  0  0
  -45.2873   62.4192   64.5674 C   0  0  0  0  0  0  0  0  0  0  0  0
  -45.1351   60.9090   64.7223 C   0  0  0  0  0  0  0  0  0  0  0  0
  -46.2869   60.3217   65.5183 C   0  0  0  0  0  0  0  0  0  0  0  0
  -46.1420   58.8190   65.6970 C   0  0  0  0  0  0  0  0  0  0  0  0
  -47.3380   58.3370   66.4800 C   0  0  0  0  0  0  0  0  0  0  0  0
  -48.6910   58.5200   65.9370 C   0  0  0  0  0  0  0  0  0  0  0  0
  -49.2055   59.9072   65.6232 C   0  0  0  0  0  0  0  0  0  0  0  0
  -50.6357   59.8327   65.0901 C   0  0  0  0  0  0  0  0  0  0  0  0
  -51.2168   61.1986   64.7345 C   0  0  0  0  0  0  0  0  0  0  0  0
  -52.6547   61.0831   64.2213 C   0  0  0  0  0  0  0  0  0  0  0  0
  -52.8255   60.2122   62.9708 C   0  0  0  0  0  0  0  0  0  0  0  0
  -52.0029   60.7338   61.7852 C   0  0  0  0  0  0  0  0  0  0  0  0
  -52.1784   59.8825   60.5250 C   0  0  0  0  0  0  0  0  0  0  0  0
  -51.3498   60.3793   59.3341 C   0  0  0  0  0  0  0  0  0  0  0  0
  -46.2492   64.8778   67.7664 H   0  0  0  0  0  0  0  0  0  0  0  0
  -44.5163   65.0829   67.6511 H   0  0  0  0  0  0  0  0  0  0  0  0
  -45.7863   66.7089   65.0988 H   0  0  0  0  0  0  0  0  0  0  0  0
  -44.6596   64.9852   65.2133 H   0  0  0  0  0  0  0  0  0  0  0  0
  -46.4041   64.7907   65.3329 H   0  0  0  0  0  0  0  0  0  0  0  0
  -46.1042   62.6955   66.5128 H   0  0  0  0  0  0  0  0  0  0  0  0
  -44.3596   62.8911   66.4162 H   0  0  0  0  0  0  0  0  0  0  0  0
  -44.4697   62.7998   63.9915 H   0  0  0  0  0  0  0  0  0  0  0  0
  -46.2118   62.6283   64.0709 H   0  0  0  0  0  0  0  0  0  0  0  0
  -44.2170   60.7008   65.2309 H   0  0  0  0  0  0  0  0  0  0  0  0
  -45.1347   60.4661   63.7483 H   0  0  0  0  0  0  0  0  0  0  0  0
  -47.2024   60.5223   65.0020 H   0  0  0  0  0  0  0  0  0  0  0  0
  -46.2850   60.7734   66.4883 H   0  0  0  0  0  0  0  0  0  0  0  0
  -45.2422   58.6001   66.2331 H   0  0  0  0  0  0  0  0  0  0  0  0
  -46.0923   58.3300   64.7466 H   0  0  0  0  0  0  0  0  0  0  0  0
  -47.3129   58.8400   67.4241 H   0  0  0  0  0  0  0  0  0  0  0  0
  -47.2164   57.2740   66.4873 H   0  0  0  0  0  0  0  0  0  0  0  0
  -49.3680   58.0944   66.6480 H   0  0  0  0  0  0  0  0  0  0  0  0
  -48.6304   58.0595   64.9731 H   0  0  0  0  0  0  0  0  0  0  0  0
  -48.5763   60.3587   64.8849 H   0  0  0  0  0  0  0  0  0  0  0  0
  -49.1972   60.4930   66.5186 H   0  0  0  0  0  0  0  0  0  0  0  0
  -51.2548   59.3842   65.8387 H   0  0  0  0  0  0  0  0  0  0  0  0
  -50.6099   59.2542   64.1903 H   0  0  0  0  0  0  0  0  0  0  0  0
  -50.6116   61.6461   63.9740 H   0  0  0  0  0  0  0  0  0  0  0  0
  -51.2246   61.7997   65.6196 H   0  0  0  0  0  0  0  0  0  0  0  0
  -53.0057   62.0674   63.9915 H   0  0  0  0  0  0  0  0  0  0  0  0
  -53.2134   60.6051   64.9987 H   0  0  0  0  0  0  0  0  0  0  0  0
  -53.8595   60.2034   62.6955 H   0  0  0  0  0  0  0  0  0  0  0  0
  -52.4768   59.2282   63.2053 H   0  0  0  0  0  0  0  0  0  0  0  0
  -50.9684   60.7314   62.0587 H   0  0  0  0  0  0  0  0  0  0  0  0
  -52.3500   61.7205   61.5598 H   0  0  0  0  0  0  0  0  0  0  0  0
  -53.2119   59.8955   60.2481 H   0  0  0  0  0  0  0  0  0  0  0  0
  -51.8349   58.8966   60.7595 H   0  0  0  0  0  0  0  0  0  0  0  0
  -51.6644   61.3667   59.0678 H   0  0  0  0  0  0  0  0  0  0  0  0
  -51.4927   59.7226   58.5014 H   0  0  0  0  0  0  0  0  0  0  0  0
  -50.3140   60.3951   59.6021 H   0  0  0  0  0  0  0  0  0  0  0  0
  1  2  2  0  0  0  0
  1  3  1  0  0  0  0
  1  4  1  0  0  0  0
  3  5  1  0  0  0  0
  3 21  1  0  0  0  0
  3 22  1  0  0  0  0
  4 23  1  0  0  0  0
  5  6  1  0  0  0  0
  5 24  1  0  0  0  0
  5 25  1  0  0  0  0
  6  7  1  0  0  0  0
  6 26  1  0  0  0  0
  6 27  1  0  0  0  0
  7  8  1  0  0  0  0
  7 28  1  0  0  0  0
  7 29  1  0  0  0  0
  8  9  1  0  0  0  0
  8 30  1  0  0  0  0
  8 31  1  0  0  0  0
  9 10  1  0  0  0  0
  9 32  1  0  0  0  0
  9 33  1  0  0  0  0
 10 11  1  0  0  0  0
 10 34  1  0  0  0  0
 10 35  1  0  0  0  0
 11 12  1  0  0  0  0
 11 36  1  0  0  0  0
 11 37  1  0  0  0  0
 12 13  1  0  0  0  0
 12 38  1  0  0  0  0
 12 39  1  0  0  0  0
 13 14  1  0  0  0  0
 13 40  1  0  0  0  0
 13 41  1  0  0  0  0
 14 15  1  0  0  0  0
 14 42  1  0  0  0  0
 14 43  1  0  0  0  0
 15 16  1  0  0  0  0
 15 44  1  0  0  0  0
 15 45  1  0  0  0  0
 16 17  1  0  0  0  0
 16 46  1  0  0  0  0
 16 47  1  0  0  0  0
 17 18  1  0  0  0  0
 17 48  1  0  0  0  0
 17 49  1  0  0  0  0
 18 19  1  0  0  0  0
 18 50  1  0  0  0  0
 18 51  1  0  0  0  0
 19 20  1  0  0  0  0
 19 52  1  0  0  0  0
 19 53  1  0  0  0  0
 20 54  1  0  0  0  0
 20 55  1  0  0  0  0
 20 56  1  0  0  0  0
M  END
$$$$
/media/chris/experiments/cd1a-new-docking/inputs/ligands/4x6d_1_ligand.pdb
 OpenBabel07012320263D

 56 55  0  0  0  0  0  0  0  0999 V2000
  -44.8993   64.6172   65.8199 C   0  0  0  0  0  0  0  0  0  0  0  0
  -45.8448   65.3175   66.2639 O   0  0  0  0  0  0  0  0  0  0  0  0
  -44.9258   63.1102   65.9855 C   0  0  0  0  0  0  0  0  0  0  0  0
  -43.9362   65.1765   65.2345 O   0  0  0  0  0  0  0  0  0  0  0  0
  -43.7113   62.6607   66.7913 C   0  0  0  0  0  0  0  0  0  0  0  0
  -43.6958   61.1499   66.9627 C   0  0  0  0  0  0  0  0  0  0  0  0
  -43.6277   60.4492   65.6129 C   0  0  0  0  0  0  0  0  0  0  0  0
  -43.6307   58.9356   65.8055 C   0  0  0  0  0  0  0  0  0  0  0  0
  -44.8989   58.4750   66.5016 C   0  0  0  0  0  0  0  0  0  0  0  0
  -46.1420   58.8190   65.6970 C   0  0  0  0  0  0  0  0  0  0  0  0
  -47.3380   58.3370   66.4800 C   0  0  0  0  0  0  0  0  0  0  0  0
  -48.6910   58.5200   65.9370 C   0  0  0  0  0  0  0  0  0  0  0  0
  -49.0768   57.8833   64.6205 C   0  0  0  0  0  0  0  0  0  0  0  0
  -48.9503   56.3630   64.7112 C   0  0  0  0  0  0  0  0  0  0  0  0
  -49.3083   55.6511   63.4094 C   0  0  0  0  0  0  0  0  0  0  0  0
  -49.1860   54.1311   63.5462 C   0  0  0  0  0  0  0  0  0  0  0  0
  -47.7899   53.6283   63.9331 C   0  0  0  0  0  0  0  0  0  0  0  0
  -47.7334   52.0983   64.0359 C   0  0  0  0  0  0  0  0  0  0  0  0
  -46.3486   51.5846   64.4386 C   0  0  0  0  0  0  0  0  0  0  0  0
  -46.2689   50.0559   64.5296 C   0  0  0  0  0  0  0  0  0  0  0  0
  -44.9049   62.6459   65.0216 H   0  0  0  0  0  0  0  0  0  0  0  0
  -45.8188   62.8258   66.5017 H   0  0  0  0  0  0  0  0  0  0  0  0
  -43.2280   64.6616   64.9008 H   0  0  0  0  0  0  0  0  0  0  0  0
  -43.7425   63.1215   67.7565 H   0  0  0  0  0  0  0  0  0  0  0  0
  -42.8271   62.9517   66.2637 H   0  0  0  0  0  0  0  0  0  0  0  0
  -44.5873   60.8460   67.4702 H   0  0  0  0  0  0  0  0  0  0  0  0
  -42.8305   60.8799   67.5313 H   0  0  0  0  0  0  0  0  0  0  0  0
  -42.7298   60.7397   65.1085 H   0  0  0  0  0  0  0  0  0  0  0  0
  -44.4803   60.7292   65.0303 H   0  0  0  0  0  0  0  0  0  0  0  0
  -42.7853   58.6574   66.3995 H   0  0  0  0  0  0  0  0  0  0  0  0
  -43.5837   58.4708   64.8428 H   0  0  0  0  0  0  0  0  0  0  0  0
  -44.9621   58.9519   67.4573 H   0  0  0  0  0  0  0  0  0  0  0  0
  -44.8537   57.4109   66.6046 H   0  0  0  0  0  0  0  0  0  0  0  0
  -46.1077   58.3309   64.7454 H   0  0  0  0  0  0  0  0  0  0  0  0
  -46.2020   59.8741   65.5296 H   0  0  0  0  0  0  0  0  0  0  0  0
  -47.3129   58.8400   67.4241 H   0  0  0  0  0  0  0  0  0  0  0  0
  -47.2164   57.2740   66.4873 H   0  0  0  0  0  0  0  0  0  0  0  0
  -48.8369   59.5739   65.8234 H   0  0  0  0  0  0  0  0  0  0  0  0
  -49.3084   58.0076   66.6449 H   0  0  0  0  0  0  0  0  0  0  0  0
  -48.4296   58.2462   63.8495 H   0  0  0  0  0  0  0  0  0  0  0  0
  -50.0918   58.1359   64.3951 H   0  0  0  0  0  0  0  0  0  0  0  0
  -49.6051   56.0127   65.4816 H   0  0  0  0  0  0  0  0  0  0  0  0
  -47.9253   56.1413   64.9233 H   0  0  0  0  0  0  0  0  0  0  0  0
  -48.6463   55.9847   62.6378 H   0  0  0  0  0  0  0  0  0  0  0  0
  -50.3244   55.8847   63.1686 H   0  0  0  0  0  0  0  0  0  0  0  0
  -49.4497   53.6905   62.6075 H   0  0  0  0  0  0  0  0  0  0  0  0
  -49.8391   53.8480   64.3451 H   0  0  0  0  0  0  0  0  0  0  0  0
  -47.5229   54.0475   64.8807 H   0  0  0  0  0  0  0  0  0  0  0  0
  -47.1072   53.9317   63.1671 H   0  0  0  0  0  0  0  0  0  0  0  0
  -47.9899   51.6815   63.0845 H   0  0  0  0  0  0  0  0  0  0  0  0
  -48.4232   51.7997   64.7974 H   0  0  0  0  0  0  0  0  0  0  0  0
  -46.0996   51.9948   65.3949 H   0  0  0  0  0  0  0  0  0  0  0  0
  -45.6638   51.8918   63.6760 H   0  0  0  0  0  0  0  0  0  0  0  0
  -46.9424   49.7080   65.2848 H   0  0  0  0  0  0  0  0  0  0  0  0
  -45.2703   49.7651   64.7809 H   0  0  0  0  0  0  0  0  0  0  0  0
  -46.5385   49.6279   63.5867 H   0  0  0  0  0  0  0  0  0  0  0  0
  1  2  2  0  0  0  0
  1  3  1  0  0  0  0
  1  4  1  0  0  0  0
  3  5  1  0  0  0  0
  3 21  1  0  0  0  0
  3 22  1  0  0  0  0
  4 23  1  0  0  0  0
  5  6  1  0  0  0  0
  5 24  1  0  0  0  0
  5 25  1  0  0  0  0
  6  7  1  0  0  0  0
  6 26  1  0  0  0  0
  6 27  1  0  0  0  0
  7  8  1  0  0  0  0
  7 28  1  0  0  0  0
  7 29  1  0  0  0  0
  8  9  1  0  0  0  0
  8 30  1  0  0  0  0
  8 31  1  0  0  0  0
  9 10  1  0  0  0  0
  9 32  1  0  0  0  0
  9 33  1  0  0  0  0
 10 11  1  0  0  0  0
 10 34  1  0  0  0  0
 10 35  1  0  0  0  0
 11 12  1  0  0  0  0
 11 36  1  0  0  0  0
 11 37  1  0  0  0  0
 12 13  1  0  0  0  0
 12 38  1  0  0  0  0
 12 39  1  0  0  0  0
 13 14  1  0  0  0  0
 13 40  1  0  0  0  0
 13 41  1  0  0  0  0
 14 15  1  0  0  0  0
 14 42  1  0  0  0  0
 14 43  1  0  0  0  0
 15 16  1  0  0  0  0
 15 44  1  0  0  0  0
 15 45  1  0  0  0  0
 16 17  1  0  0  0  0
 16 46  1  0  0  0  0
 16 47  1  0  0  0  0
 17 18  1  0  0  0  0
 17 48  1  0  0  0  0
 17 49  1  0  0  0  0
 18 19  1  0  0  0  0
 18 50  1  0  0  0  0
 18 51  1  0  0  0  0
 19 20  1  0  0  0  0
 19 52  1  0  0  0  0
 19 53  1  0  0  0  0
 20 54  1  0  0  0  0
 20 55  1  0  0  0  0
 20 56  1  0  0  0  0
M  END
$$$$
/media/chris/experiments/cd1a-new-docking/inputs/ligands/4x6d_1_ligand.pdb
 OpenBabel07012320263D

 56 55  0  0  0  0  0  0  0  0999 V2000
  -40.0419   59.1523   70.9844 C   0  0  0  0  0  0  0  0  0  0  0  0
  -40.1284   58.5151   72.0652 O   0  0  0  0  0  0  0  0  0  0  0  0
  -41.2944   59.4985   70.2030 C   0  0  0  0  0  0  0  0  0  0  0  0
  -38.9102   59.5030   70.5610 O   0  0  0  0  0  0  0  0  0  0  0  0
  -41.2241   58.8696   68.8152 C   0  0  0  0  0  0  0  0  0  0  0  0
  -42.4586   59.2109   67.9956 C   0  0  0  0  0  0  0  0  0  0  0  0
  -42.3927   58.5673   66.6176 C   0  0  0  0  0  0  0  0  0  0  0  0
  -43.6307   58.9356   65.8055 C   0  0  0  0  0  0  0  0  0  0  0  0
  -44.8989   58.4750   66.5016 C   0  0  0  0  0  0  0  0  0  0  0  0
  -46.1420   58.8190   65.6970 C   0  0  0  0  0  0  0  0  0  0  0  0
  -47.3380   58.3370   66.4800 C   0  0  0  0  0  0  0  0  0  0  0  0
  -48.6910   58.5200   65.9370 C   0  0  0  0  0  0  0  0  0  0  0  0
  -49.2055   59.9072   65.6232 C   0  0  0  0  0  0  0  0  0  0  0  0
  -49.1970   60.7719   66.8833 C   0  0  0  0  0  0  0  0  0  0  0  0
  -49.7212   62.1856   66.6460 C   0  0  0  0  0  0  0  0  0  0  0  0
  -49.6805   63.0241   67.9264 C   0  0  0  0  0  0  0  0  0  0  0  0
  -50.2076   64.4563   67.7768 C   0  0  0  0  0  0  0  0  0  0  0  0
  -51.6779   64.4894   67.3391 C   0  0  0  0  0  0  0  0  0  0  0  0
  -52.6084   63.8051   68.3438 C   0  0  0  0  0  0  0  0  0  0  0  0
  -52.5891   64.4553   69.7325 C   0  0  0  0  0  0  0  0  0  0  0  0
  -41.3723   60.5614   70.1084 H   0  0  0  0  0  0  0  0  0  0  0  0
  -42.1511   59.1203   70.7207 H   0  0  0  0  0  0  0  0  0  0  0  0
  -38.8375   59.9781   69.7566 H   0  0  0  0  0  0  0  0  0  0  0  0
  -41.1549   57.8066   68.9165 H   0  0  0  0  0  0  0  0  0  0  0  0
  -40.3637   59.2564   68.3103 H   0  0  0  0  0  0  0  0  0  0  0  0
  -42.5214   60.2731   67.8832 H   0  0  0  0  0  0  0  0  0  0  0  0
  -43.3213   58.8367   68.5061 H   0  0  0  0  0  0  0  0  0  0  0  0
  -42.3443   57.5039   66.7259 H   0  0  0  0  0  0  0  0  0  0  0  0
  -41.5216   58.9220   66.1074 H   0  0  0  0  0  0  0  0  0  0  0  0
  -43.5700   58.4684   64.8448 H   0  0  0  0  0  0  0  0  0  0  0  0
  -43.6662   60.0003   65.7046 H   0  0  0  0  0  0  0  0  0  0  0  0
  -44.9621   58.9519   67.4573 H   0  0  0  0  0  0  0  0  0  0  0  0
  -44.8537   57.4109   66.6046 H   0  0  0  0  0  0  0  0  0  0  0  0
  -46.1077   58.3309   64.7454 H   0  0  0  0  0  0  0  0  0  0  0  0
  -46.2020   59.8741   65.5296 H   0  0  0  0  0  0  0  0  0  0  0  0
  -47.3129   58.8400   67.4241 H   0  0  0  0  0  0  0  0  0  0  0  0
  -47.2164   57.2740   66.4873 H   0  0  0  0  0  0  0  0  0  0  0  0
  -49.3680   58.0944   66.6480 H   0  0  0  0  0  0  0  0  0  0  0  0
  -48.6304   58.0595   64.9731 H   0  0  0  0  0  0  0  0  0  0  0  0
  -50.2057   59.8369   65.2497 H   0  0  0  0  0  0  0  0  0  0  0  0
  -48.5711   60.3563   64.8879 H   0  0  0  0  0  0  0  0  0  0  0  0
  -48.1917   60.8380   67.2436 H   0  0  0  0  0  0  0  0  0  0  0  0
  -49.8486   60.3061   67.5929 H   0  0  0  0  0  0  0  0  0  0  0  0
  -50.7324   62.1276   66.3009 H   0  0  0  0  0  0  0  0  0  0  0  0
  -49.0952   62.6567   65.9173 H   0  0  0  0  0  0  0  0  0  0  0  0
  -48.6642   63.0767   68.2571 H   0  0  0  0  0  0  0  0  0  0  0  0
  -50.3284   62.5371   68.6250 H   0  0  0  0  0  0  0  0  0  0  0  0
  -49.6181   64.9658   67.0434 H   0  0  0  0  0  0  0  0  0  0  0  0
  -50.1381   64.9336   68.7319 H   0  0  0  0  0  0  0  0  0  0  0  0
  -51.7658   63.9910   66.3964 H   0  0  0  0  0  0  0  0  0  0  0  0
  -51.9726   65.5159   67.2726 H   0  0  0  0  0  0  0  0  0  0  0  0
  -52.3071   62.7832   68.4436 H   0  0  0  0  0  0  0  0  0  0  0  0
  -53.6049   63.8978   67.9654 H   0  0  0  0  0  0  0  0  0  0  0  0
  -51.6052   64.3828   70.1467 H   0  0  0  0  0  0  0  0  0  0  0  0
  -53.2833   63.9512   70.3720 H   0  0  0  0  0  0  0  0  0  0  0  0
  -52.8654   65.4855   69.6479 H   0  0  0  0  0  0  0  0  0  0  0  0
  1  2  2  0  0  0  0
  1  3  1  0  0  0  0
  1  4  1  0  0  0  0
  3  5  1  0  0  0  0
  3 21  1  0  0  0  0
  3 22  1  0  0  0  0
  4 23  1  0  0  0  0
  5  6  1  0  0  0  0
  5 24  1  0  0  0  0
  5 25  1  0  0  0  0
  6  7  1  0  0  0  0
  6 26  1  0  0  0  0
  6 27  1  0  0  0  0
  7  8  1  0  0  0  0
  7 28  1  0  0  0  0
  7 29  1  0  0  0  0
  8  9  1  0  0  0  0
  8 30  1  0  0  0  0
  8 31  1  0  0  0  0
  9 10  1  0  0  0  0
  9 32  1  0  0  0  0
  9 33  1  0  0  0  0
 10 11  1  0  0  0  0
 10 34  1  0  0  0  0
 10 35  1  0  0  0  0
 11 12  1  0  0  0  0
 11 36  1  0  0  0  0
 11 37  1  0  0  0  0
 12 13  1  0  0  0  0
 12 38  1  0  0  0  0
 12 39  1  0  0  0  0
 13 14  1  0  0  0  0
 13 40  1  0  0  0  0
 13 41  1  0  0  0  0
 14 15  1  0  0  0  0
 14 42  1  0  0  0  0
 14 43  1  0  0  0  0
 15 16  1  0  0  0  0
 15 44  1  0  0  0  0
 15 45  1  0  0  0  0
 16 17  1  0  0  0  0
 16 46  1  0  0  0  0
 16 47  1  0  0  0  0
 17 18  1  0  0  0  0
 17 48  1  0  0  0  0
 17 49  1  0  0  0  0
 18 19  1  0  0  0  0
 18 50  1  0  0  0  0
 18 51  1  0  0  0  0
 19 20  1  0  0  0  0
 19 52  1  0  0  0  0
 19 53  1  0  0  0  0
 20 54  1  0  0  0  0
 20 55  1  0  0  0  0
 20 56  1  0  0  0  0
M  END
$$$$
/media/chris/experiments/cd1a-new-docking/inputs/ligands/4x6d_1_ligand.pdb
 OpenBabel07012320263D

 56 55  0  0  0  0  0  0  0  0999 V2000
  -40.6601   57.9626   60.3304 C   0  0  0  0  0  0  0  0  0  0  0  0
  -40.0533   58.5681   59.4102 O   0  0  0  0  0  0  0  0  0  0  0  0
  -40.7645   58.5835   61.7098 C   0  0  0  0  0  0  0  0  0  0  0  0
  -41.1822   56.8422   60.0954 O   0  0  0  0  0  0  0  0  0  0  0  0
  -42.0605   58.1356   62.3778 C   0  0  0  0  0  0  0  0  0  0  0  0
  -42.2074   58.7541   63.7591 C   0  0  0  0  0  0  0  0  0  0  0  0
  -43.4934   58.2911   64.4294 C   0  0  0  0  0  0  0  0  0  0  0  0
  -43.6307   58.9356   65.8055 C   0  0  0  0  0  0  0  0  0  0  0  0
  -44.8989   58.4750   66.5016 C   0  0  0  0  0  0  0  0  0  0  0  0
  -46.1420   58.8190   65.6970 C   0  0  0  0  0  0  0  0  0  0  0  0
  -47.3380   58.3370   66.4800 C   0  0  0  0  0  0  0  0  0  0  0  0
  -48.6910   58.5200   65.9370 C   0  0  0  0  0  0  0  0  0  0  0  0
  -49.8970   58.0544   66.7220 C   0  0  0  0  0  0  0  0  0  0  0  0
  -49.9684   58.7830   68.0634 C   0  0  0  0  0  0  0  0  0  0  0  0
  -50.0999   60.2968   67.9193 C   0  0  0  0  0  0  0  0  0  0  0  0
  -50.1507   60.9906   69.2832 C   0  0  0  0  0  0  0  0  0  0  0  0
  -48.9093   60.7833   70.1592 C   0  0  0  0  0  0  0  0  0  0  0  0
  -47.6359   61.3253   69.4965 C   0  0  0  0  0  0  0  0  0  0  0  0
  -47.7074   62.8299   69.2231 C   0  0  0  0  0  0  0  0  0  0  0  0
  -46.4494   63.3861   68.5450 C   0  0  0  0  0  0  0  0  0  0  0  0
  -40.7600   59.6499   61.6212 H   0  0  0  0  0  0  0  0  0  0  0  0
  -39.9322   58.2691   62.3041 H   0  0  0  0  0  0  0  0  0  0  0  0
  -41.6360   56.3849   60.7757 H   0  0  0  0  0  0  0  0  0  0  0  0
  -42.0551   57.0697   62.4710 H   0  0  0  0  0  0  0  0  0  0  0  0
  -42.8828   58.4564   61.7729 H   0  0  0  0  0  0  0  0  0  0  0  0
  -42.2256   59.8198   63.6653 H   0  0  0  0  0  0  0  0  0  0  0  0
  -41.3785   58.4453   64.3611 H   0  0  0  0  0  0  0  0  0  0  0  0
  -43.4722   57.2268   64.5379 H   0  0  0  0  0  0  0  0  0  0  0  0
  -44.3268   58.5795   63.8235 H   0  0  0  0  0  0  0  0  0  0  0  0
  -43.6612   59.9991   65.6916 H   0  0  0  0  0  0  0  0  0  0  0  0
  -42.7912   58.6449   66.4019 H   0  0  0  0  0  0  0  0  0  0  0  0
  -44.9621   58.9519   67.4573 H   0  0  0  0  0  0  0  0  0  0  0  0
  -44.8537   57.4109   66.6046 H   0  0  0  0  0  0  0  0  0  0  0  0
  -46.1077   58.3309   64.7454 H   0  0  0  0  0  0  0  0  0  0  0  0
  -46.2020   59.8741   65.5296 H   0  0  0  0  0  0  0  0  0  0  0  0
  -47.3129   58.8400   67.4241 H   0  0  0  0  0  0  0  0  0  0  0  0
  -47.2164   57.2740   66.4873 H   0  0  0  0  0  0  0  0  0  0  0  0
  -48.7179   58.0067   64.9986 H   0  0  0  0  0  0  0  0  0  0  0  0
  -48.8057   59.5838   65.9236 H   0  0  0  0  0  0  0  0  0  0  0  0
  -49.8205   57.0014   66.8956 H   0  0  0  0  0  0  0  0  0  0  0  0
  -50.7824   58.2692   66.1609 H   0  0  0  0  0  0  0  0  0  0  0  0
  -49.0759   58.5701   68.6139 H   0  0  0  0  0  0  0  0  0  0  0  0
  -50.8449   58.4344   68.5684 H   0  0  0  0  0  0  0  0  0  0  0  0
  -50.9995   60.5177   67.3836 H   0  0  0  0  0  0  0  0  0  0  0  0
  -49.2423   60.6586   67.3915 H   0  0  0  0  0  0  0  0  0  0  0  0
  -50.9997   60.6154   69.8155 H   0  0  0  0  0  0  0  0  0  0  0  0
  -50.2059   62.0404   69.0841 H   0  0  0  0  0  0  0  0  0  0  0  0
  -48.7853   59.7358   70.3390 H   0  0  0  0  0  0  0  0  0  0  0  0
  -49.0583   61.3199   71.0728 H   0  0  0  0  0  0  0  0  0  0  0  0
  -47.4897   60.8150   68.5674 H   0  0  0  0  0  0  0  0  0  0  0  0
  -46.8232   61.1575   70.1719 H   0  0  0  0  0  0  0  0  0  0  0  0
  -47.8430   63.3378   70.1551 H   0  0  0  0  0  0  0  0  0  0  0  0
  -48.5252   62.9905   68.5521 H   0  0  0  0  0  0  0  0  0  0  0  0
  -45.6055   63.2439   69.1872 H   0  0  0  0  0  0  0  0  0  0  0  0
  -46.5798   64.4307   68.3534 H   0  0  0  0  0  0  0  0  0  0  0  0
  -46.2853   62.8718   67.6212 H   0  0  0  0  0  0  0  0  0  0  0  0
  1  2  2  0  0  0  0
  1  3  1  0  0  0  0
  1  4  1  0  0  0  0
  3  5  1  0  0  0  0
  3 21  1  0  0  0  0
  3 22  1  0  0  0  0
  4 23  1  0  0  0  0
  5  6  1  0  0  0  0
  5 24  1  0  0  0  0
  5 25  1  0  0  0  0
  6  7  1  0  0  0  0
  6 26  1  0  0  0  0
  6 27  1  0  0  0  0
  7  8  1  0  0  0  0
  7 28  1  0  0  0  0
  7 29  1  0  0  0  0
  8  9  1  0  0  0  0
  8 30  1  0  0  0  0
  8 31  1  0  0  0  0
  9 10  1  0  0  0  0
  9 32  1  0  0  0  0
  9 33  1  0  0  0  0
 10 11  1  0  0  0  0
 10 34  1  0  0  0  0
 10 35  1  0  0  0  0
 11 12  1  0  0  0  0
 11 36  1  0  0  0  0
 11 37  1  0  0  0  0
 12 13  1  0  0  0  0
 12 38  1  0  0  0  0
 12 39  1  0  0  0  0
 13 14  1  0  0  0  0
 13 40  1  0  0  0  0
 13 41  1  0  0  0  0
 14 15  1  0  0  0  0
 14 42  1  0  0  0  0
 14 43  1  0  0  0  0
 15 16  1  0  0  0  0
 15 44  1  0  0  0  0
 15 45  1  0  0  0  0
 16 17  1  0  0  0  0
 16 46  1  0  0  0  0
 16 47  1  0  0  0  0
 17 18  1  0  0  0  0
 17 48  1  0  0  0  0
 17 49  1  0  0  0  0
 18 19  1  0  0  0  0
 18 50  1  0  0  0  0
 18 51  1  0  0  0  0
 19 20  1  0  0  0  0
 19 52  1  0  0  0  0
 19 53  1  0  0  0  0
 20 54  1  0  0  0  0
 20 55  1  0  0  0  0
 20 56  1  0  0  0  0
M  END
$$$$
/media/chris/experiments/cd1a-new-docking/inputs/ligands/4x6d_1_ligand.pdb
 OpenBabel07012320263D

 56 55  0  0  0  0  0  0  0  0999 V2000
  -42.5665   55.5580   60.8606 C   0  0  0  0  0  0  0  0  0  0  0  0
  -41.5136   55.2820   60.2305 O   0  0  0  0  0  0  0  0  0  0  0  0
  -43.8137   55.9817   60.1094 C   0  0  0  0  0  0  0  0  0  0  0  0
  -42.5768   55.4751   62.1160 O   0  0  0  0  0  0  0  0  0  0  0  0
  -43.8274   57.4987   59.9514 C   0  0  0  0  0  0  0  0  0  0  0  0
  -43.8027   58.1910   61.3050 C   0  0  0  0  0  0  0  0  0  0  0  0
  -45.0041   57.7845   62.1469 C   0  0  0  0  0  0  0  0  0  0  0  0
  -44.9702   58.5025   63.4927 C   0  0  0  0  0  0  0  0  0  0  0  0
  -46.1509   58.0994   64.3580 C   0  0  0  0  0  0  0  0  0  0  0  0
  -46.1420   58.8190   65.6970 C   0  0  0  0  0  0  0  0  0  0  0  0
  -47.3380   58.3370   66.4800 C   0  0  0  0  0  0  0  0  0  0  0  0
  -48.6910   58.5200   65.9370 C   0  0  0  0  0  0  0  0  0  0  0  0
  -49.2055   59.9072   65.6232 C   0  0  0  0  0  0  0  0  0  0  0  0
  -48.3233   60.5721   64.5673 C   0  0  0  0  0  0  0  0  0  0  0  0
  -48.7733   61.9865   64.2115 C   0  0  0  0  0  0  0  0  0  0  0  0
  -47.8759   62.6107   63.1396 C   0  0  0  0  0  0  0  0  0  0  0  0
  -48.2514   64.0419   62.7369 C   0  0  0  0  0  0  0  0  0  0  0  0
  -49.6804   64.1322   62.1853 C   0  0  0  0  0  0  0  0  0  0  0  0
  -50.7354   63.6951   63.2048 C   0  0  0  0  0  0  0  0  0  0  0  0
  -50.7428   64.5498   64.4780 C   0  0  0  0  0  0  0  0  0  0  0  0
  -44.6802   55.6731   60.6560 H   0  0  0  0  0  0  0  0  0  0  0  0
  -43.8175   55.5244   59.1421 H   0  0  0  0  0  0  0  0  0  0  0  0
  -43.3573   55.6791   62.5926 H   0  0  0  0  0  0  0  0  0  0  0  0
  -44.7147   57.7873   59.4276 H   0  0  0  0  0  0  0  0  0  0  0  0
  -42.9555   57.7910   59.4044 H   0  0  0  0  0  0  0  0  0  0  0  0
  -43.8216   59.2505   61.1566 H   0  0  0  0  0  0  0  0  0  0  0  0
  -42.9110   57.9009   61.8203 H   0  0  0  0  0  0  0  0  0  0  0  0
  -44.9805   56.7272   62.3094 H   0  0  0  0  0  0  0  0  0  0  0  0
  -45.9010   58.0542   61.6293 H   0  0  0  0  0  0  0  0  0  0  0  0
  -45.0038   59.5589   63.3261 H   0  0  0  0  0  0  0  0  0  0  0  0
  -44.0685   58.2299   64.0003 H   0  0  0  0  0  0  0  0  0  0  0  0
  -46.1087   57.0444   64.5316 H   0  0  0  0  0  0  0  0  0  0  0  0
  -47.0486   58.3689   63.8418 H   0  0  0  0  0  0  0  0  0  0  0  0
  -46.2076   59.8760   65.5439 H   0  0  0  0  0  0  0  0  0  0  0  0
  -45.2364   58.6137   66.2287 H   0  0  0  0  0  0  0  0  0  0  0  0
  -47.3129   58.8400   67.4241 H   0  0  0  0  0  0  0  0  0  0  0  0
  -47.2164   57.2740   66.4873 H   0  0  0  0  0  0  0  0  0  0  0  0
  -49.3680   58.0944   66.6480 H   0  0  0  0  0  0  0  0  0  0  0  0
  -48.6304   58.0595   64.9731 H   0  0  0  0  0  0  0  0  0  0  0  0
  -49.1949   60.4980   66.5153 H   0  0  0  0  0  0  0  0  0  0  0  0
  -50.2040   59.8318   65.2462 H   0  0  0  0  0  0  0  0  0  0  0  0
  -48.3461   59.9747   63.6799 H   0  0  0  0  0  0  0  0  0  0  0  0
  -47.3375   60.6457   64.9770 H   0  0  0  0  0  0  0  0  0  0  0  0
  -48.7372   62.5941   65.0916 H   0  0  0  0  0  0  0  0  0  0  0  0
  -49.7695   61.9334   63.8246 H   0  0  0  0  0  0  0  0  0  0  0  0
  -47.9251   61.9956   62.2654 H   0  0  0  0  0  0  0  0  0  0  0  0
  -46.8951   62.6657   63.5639 H   0  0  0  0  0  0  0  0  0  0  0  0
  -47.5694   64.3784   61.9842 H   0  0  0  0  0  0  0  0  0  0  0  0
  -48.1977   64.6546   63.6126 H   0  0  0  0  0  0  0  0  0  0  0  0
  -49.7552   63.5022   61.3236 H   0  0  0  0  0  0  0  0  0  0  0  0
  -49.8695   65.1572   61.9433 H   0  0  0  0  0  0  0  0  0  0  0  0
  -50.5413   62.6793   63.4794 H   0  0  0  0  0  0  0  0  0  0  0  0
  -51.6918   63.8127   62.7398 H   0  0  0  0  0  0  0  0  0  0  0  0
  -49.7992   64.4587   64.9742 H   0  0  0  0  0  0  0  0  0  0  0  0
  -51.5221   64.2129   65.1292 H   0  0  0  0  0  0  0  0  0  0  0  0
  -50.9122   65.5740   64.2191 H   0  0  0  0  0  0  0  0  0  0  0  0
  1  2  2  0  0  0  0
  1  3  1  0  0  0  0
  1  4  1  0  0  0  0
  3  5  1  0  0  0  0
  3 21  1  0  0  0  0
  3 22  1  0  0  0  0
  4 23  1  0  0  0  0
  5  6  1  0  0  0  0
  5 24  1  0  0  0  0
  5 25  1  0  0  0  0
  6  7  1  0  0  0  0
  6 26  1  0  0  0  0
  6 27  1  0  0  0  0
  7  8  1  0  0  0  0
  7 28  1  0  0  0  0
  7 29  1  0  0  0  0
  8  9  1  0  0  0  0
  8 30  1  0  0  0  0
  8 31  1  0  0  0  0
  9 10  1  0  0  0  0
  9 32  1  0  0  0  0
  9 33  1  0  0  0  0
 10 11  1  0  0  0  0
 10 34  1  0  0  0  0
 10 35  1  0  0  0  0
 11 12  1  0  0  0  0
 11 36  1  0  0  0  0
 11 37  1  0  0  0  0
 12 13  1  0  0  0  0
 12 38  1  0  0  0  0
 12 39  1  0  0  0  0
 13 14  1  0  0  0  0
 13 40  1  0  0  0  0
 13 41  1  0  0  0  0
 14 15  1  0  0  0  0
 14 42  1  0  0  0  0
 14 43  1  0  0  0  0
 15 16  1  0  0  0  0
 15 44  1  0  0  0  0
 15 45  1  0  0  0  0
 16 17  1  0  0  0  0
 16 46  1  0  0  0  0
 16 47  1  0  0  0  0
 17 18  1  0  0  0  0
 17 48  1  0  0  0  0
 17 49  1  0  0  0  0
 18 19  1  0  0  0  0
 18 50  1  0  0  0  0
 18 51  1  0  0  0  0
 19 20  1  0  0  0  0
 19 52  1  0  0  0  0
 19 53  1  0  0  0  0
 20 54  1  0  0  0  0
 20 55  1  0  0  0  0
 20 56  1  0  0  0  0
M  END
$$$$
/media/chris/experiments/cd1a-new-docking/inputs/ligands/4x6d_1_ligand.pdb
 OpenBabel07012320263D

 56 55  0  0  0  0  0  0  0  0999 V2000
  -42.9414   64.8623   65.5863 C   0  0  0  0  0  0  0  0  0  0  0  0
  -43.5545   65.5617   66.4328 O   0  0  0  0  0  0  0  0  0  0  0  0
  -42.7859   63.3695   65.8021 C   0  0  0  0  0  0  0  0  0  0  0  0
  -42.4637   65.4102   64.5593 O   0  0  0  0  0  0  0  0  0  0  0  0
  -43.9717   62.8400   66.6021 C   0  0  0  0  0  0  0  0  0  0  0  0
  -43.8404   61.3460   66.8529 C   0  0  0  0  0  0  0  0  0  0  0  0
  -45.0340   60.8182   67.6366 C   0  0  0  0  0  0  0  0  0  0  0  0
  -46.3218   61.0478   66.8512 C   0  0  0  0  0  0  0  0  0  0  0  0
  -46.2869   60.3217   65.5183 C   0  0  0  0  0  0  0  0  0  0  0  0
  -46.1420   58.8190   65.6970 C   0  0  0  0  0  0  0  0  0  0  0  0
  -47.3380   58.3370   66.4800 C   0  0  0  0  0  0  0  0  0  0  0  0
  -48.6910   58.5200   65.9370 C   0  0  0  0  0  0  0  0  0  0  0  0
  -49.0768   57.8833   64.6205 C   0  0  0  0  0  0  0  0  0  0  0  0
  -48.9503   56.3630   64.7112 C   0  0  0  0  0  0  0  0  0  0  0  0
  -49.3083   55.6511   63.4094 C   0  0  0  0  0  0  0  0  0  0  0  0
  -49.1860   54.1311   63.5462 C   0  0  0  0  0  0  0  0  0  0  0  0
  -47.7899   53.6283   63.9331 C   0  0  0  0  0  0  0  0  0  0  0  0
  -46.7223   54.0398   62.9106 C   0  0  0  0  0  0  0  0  0  0  0  0
  -46.5946   55.5588   62.7696 C   0  0  0  0  0  0  0  0  0  0  0  0
  -45.5437   55.9885   61.7388 C   0  0  0  0  0  0  0  0  0  0  0  0
  -41.8807   63.1802   66.3402 H   0  0  0  0  0  0  0  0  0  0  0  0
  -42.7496   62.8760   64.8534 H   0  0  0  0  0  0  0  0  0  0  0  0
  -42.0056   64.8959   63.9240 H   0  0  0  0  0  0  0  0  0  0  0  0
  -44.8726   63.0247   66.0552 H   0  0  0  0  0  0  0  0  0  0  0  0
  -43.9952   63.3421   67.5468 H   0  0  0  0  0  0  0  0  0  0  0  0
  -42.9462   61.1620   67.4109 H   0  0  0  0  0  0  0  0  0  0  0  0
  -43.8029   60.8436   65.9089 H   0  0  0  0  0  0  0  0  0  0  0  0
  -45.0957   61.3299   68.5743 H   0  0  0  0  0  0  0  0  0  0  0  0
  -44.9075   59.7686   67.8014 H   0  0  0  0  0  0  0  0  0  0  0  0
  -46.4412   62.0964   66.6748 H   0  0  0  0  0  0  0  0  0  0  0  0
  -47.1414   60.6668   67.4241 H   0  0  0  0  0  0  0  0  0  0  0  0
  -45.4571   60.6841   64.9482 H   0  0  0  0  0  0  0  0  0  0  0  0
  -47.2116   60.5087   65.0136 H   0  0  0  0  0  0  0  0  0  0  0  0
  -45.2422   58.6001   66.2331 H   0  0  0  0  0  0  0  0  0  0  0  0
  -46.0923   58.3300   64.7466 H   0  0  0  0  0  0  0  0  0  0  0  0
  -47.3129   58.8400   67.4241 H   0  0  0  0  0  0  0  0  0  0  0  0
  -47.2164   57.2740   66.4873 H   0  0  0  0  0  0  0  0  0  0  0  0
  -48.8369   59.5739   65.8234 H   0  0  0  0  0  0  0  0  0  0  0  0
  -49.3084   58.0076   66.6449 H   0  0  0  0  0  0  0  0  0  0  0  0
  -48.4296   58.2462   63.8495 H   0  0  0  0  0  0  0  0  0  0  0  0
  -50.0918   58.1359   64.3951 H   0  0  0  0  0  0  0  0  0  0  0  0
  -49.6051   56.0127   65.4816 H   0  0  0  0  0  0  0  0  0  0  0  0
  -47.9253   56.1413   64.9233 H   0  0  0  0  0  0  0  0  0  0  0  0
  -48.6463   55.9847   62.6378 H   0  0  0  0  0  0  0  0  0  0  0  0
  -50.3244   55.8847   63.1686 H   0  0  0  0  0  0  0  0  0  0  0  0
  -49.4497   53.6905   62.6075 H   0  0  0  0  0  0  0  0  0  0  0  0
  -49.8391   53.8480   64.3451 H   0  0  0  0  0  0  0  0  0  0  0  0
  -47.8133   52.5604   63.9962 H   0  0  0  0  0  0  0  0  0  0  0  0
  -47.5311   54.0680   64.8736 H   0  0  0  0  0  0  0  0  0  0  0  0
  -46.9838   53.6282   61.9582 H   0  0  0  0  0  0  0  0  0  0  0  0
  -45.7814   53.6669   63.2576 H   0  0  0  0  0  0  0  0  0  0  0  0
  -46.3229   55.9661   63.7210 H   0  0  0  0  0  0  0  0  0  0  0  0
  -47.5402   55.9249   62.4280 H   0  0  0  0  0  0  0  0  0  0  0  0
  -44.5798   55.6398   62.0455 H   0  0  0  0  0  0  0  0  0  0  0  0
  -45.5305   57.0560   61.6666 H   0  0  0  0  0  0  0  0  0  0  0  0
  -45.7876   55.5695   60.7849 H   0  0  0  0  0  0  0  0  0  0  0  0
  1  2  2  0  0  0  0
  1  3  1  0  0  0  0
  1  4  1  0  0  0  0
  3  5  1  0  0  0  0
  3 21  1  0  0  0  0
  3 22  1  0  0  0  0
  4 23  1  0  0  0  0
  5  6  1  0  0  0  0
  5 24  1  0  0  0  0
  5 25  1  0  0  0  0
  6  7  1  0  0  0  0
  6 26  1  0  0  0  0
  6 27  1  0  0  0  0
  7  8  1  0  0  0  0
  7 28  1  0  0  0  0
  7 29  1  0  0  0  0
  8  9  1  0  0  0  0
  8 30  1  0  0  0  0
  8 31  1  0  0  0  0
  9 10  1  0  0  0  0
  9 32  1  0  0  0  0
  9 33  1  0  0  0  0
 10 11  1  0  0  0  0
 10 34  1  0  0  0  0
 10 35  1  0  0  0  0
 11 12  1  0  0  0  0
 11 36  1  0  0  0  0
 11 37  1  0  0  0  0
 12 13  1  0  0  0  0
 12 38  1  0  0  0  0
 12 39  1  0  0  0  0
 13 14  1  0  0  0  0
 13 40  1  0  0  0  0
 13 41  1  0  0  0  0
 14 15  1  0  0  0  0
 14 42  1  0  0  0  0
 14 43  1  0  0  0  0
 15 16  1  0  0  0  0
 15 44  1  0  0  0  0
 15 45  1  0  0  0  0
 16 17  1  0  0  0  0
 16 46  1  0  0  0  0
 16 47  1  0  0  0  0
 17 18  1  0  0  0  0
 17 48  1  0  0  0  0
 17 49  1  0  0  0  0
 18 19  1  0  0  0  0
 18 50  1  0  0  0  0
 18 51  1  0  0  0  0
 19 20  1  0  0  0  0
 19 52  1  0  0  0  0
 19 53  1  0  0  0  0
 20 54  1  0  0  0  0
 20 55  1  0  0  0  0
 20 56  1  0  0  0  0
M  END
$$$$
/media/chris/experiments/cd1a-new-docking/inputs/ligands/4x6d_1_ligand.pdb
 OpenBabel07012320263D

 56 55  0  0  0  0  0  0  0  0999 V2000
  -43.5079   54.9843   70.7273 C   0  0  0  0  0  0  0  0  0  0  0  0
  -43.2450   53.7901   71.0212 O   0  0  0  0  0  0  0  0  0  0  0  0
  -44.7459   55.3133   69.9160 C   0  0  0  0  0  0  0  0  0  0  0  0
  -42.7389   55.9014   71.1156 O   0  0  0  0  0  0  0  0  0  0  0  0
  -44.8227   56.8189   69.6841 C   0  0  0  0  0  0  0  0  0  0  0  0
  -43.6106   57.3172   68.9131 C   0  0  0  0  0  0  0  0  0  0  0  0
  -43.5235   56.6528   67.5461 C   0  0  0  0  0  0  0  0  0  0  0  0
  -44.7660   56.9788   66.7229 C   0  0  0  0  0  0  0  0  0  0  0  0
  -44.8989   58.4750   66.5016 C   0  0  0  0  0  0  0  0  0  0  0  0
  -46.1420   58.8190   65.6970 C   0  0  0  0  0  0  0  0  0  0  0  0
  -47.3380   58.3370   66.4800 C   0  0  0  0  0  0  0  0  0  0  0  0
  -48.6910   58.5200   65.9370 C   0  0  0  0  0  0  0  0  0  0  0  0
  -49.2055   59.9072   65.6232 C   0  0  0  0  0  0  0  0  0  0  0  0
  -48.3233   60.5721   64.5673 C   0  0  0  0  0  0  0  0  0  0  0  0
  -48.2899   59.8101   63.2451 C   0  0  0  0  0  0  0  0  0  0  0  0
  -47.3831   60.4979   62.2210 C   0  0  0  0  0  0  0  0  0  0  0  0
  -45.9139   60.6240   62.6418 C   0  0  0  0  0  0  0  0  0  0  0  0
  -45.0664   61.3365   61.5795 C   0  0  0  0  0  0  0  0  0  0  0  0
  -43.5936   61.4534   61.9804 C   0  0  0  0  0  0  0  0  0  0  0  0
  -42.7343   62.1784   60.9375 C   0  0  0  0  0  0  0  0  0  0  0  0
  -45.6162   54.9904   70.4482 H   0  0  0  0  0  0  0  0  0  0  0  0
  -44.6952   54.8113   68.9724 H   0  0  0  0  0  0  0  0  0  0  0  0
  -42.9279   56.7936   70.9008 H   0  0  0  0  0  0  0  0  0  0  0  0
  -44.8636   57.3165   70.6305 H   0  0  0  0  0  0  0  0  0  0  0  0
  -45.7006   57.0296   69.1098 H   0  0  0  0  0  0  0  0  0  0  0  0
  -42.7248   57.0913   69.4692 H   0  0  0  0  0  0  0  0  0  0  0  0
  -43.7058   58.3738   68.7734 H   0  0  0  0  0  0  0  0  0  0  0  0
  -43.4509   55.5928   67.6722 H   0  0  0  0  0  0  0  0  0  0  0  0
  -42.6586   57.0194   67.0338 H   0  0  0  0  0  0  0  0  0  0  0  0
  -45.6319   56.6242   67.2419 H   0  0  0  0  0  0  0  0  0  0  0  0
  -44.6767   56.5011   65.7696 H   0  0  0  0  0  0  0  0  0  0  0  0
  -44.0367   58.8248   65.9732 H   0  0  0  0  0  0  0  0  0  0  0  0
  -44.9814   58.9465   67.4585 H   0  0  0  0  0  0  0  0  0  0  0  0
  -46.1077   58.3309   64.7454 H   0  0  0  0  0  0  0  0  0  0  0  0
  -46.2020   59.8741   65.5296 H   0  0  0  0  0  0  0  0  0  0  0  0
  -47.3129   58.8400   67.4241 H   0  0  0  0  0  0  0  0  0  0  0  0
  -47.2164   57.2740   66.4873 H   0  0  0  0  0  0  0  0  0  0  0  0
  -49.3680   58.0944   66.6480 H   0  0  0  0  0  0  0  0  0  0  0  0
  -48.6304   58.0595   64.9731 H   0  0  0  0  0  0  0  0  0  0  0  0
  -49.1949   60.4980   66.5153 H   0  0  0  0  0  0  0  0  0  0  0  0
  -50.2040   59.8318   65.2462 H   0  0  0  0  0  0  0  0  0  0  0  0
  -47.3255   60.6354   64.9485 H   0  0  0  0  0  0  0  0  0  0  0  0
  -48.7392   61.5375   64.3674 H   0  0  0  0  0  0  0  0  0  0  0  0
  -49.2827   59.7573   62.8497 H   0  0  0  0  0  0  0  0  0  0  0  0
  -47.9006   58.8313   63.4327 H   0  0  0  0  0  0  0  0  0  0  0  0
  -47.7648   61.4823   62.0472 H   0  0  0  0  0  0  0  0  0  0  0  0
  -47.3933   59.8796   61.3478 H   0  0  0  0  0  0  0  0  0  0  0  0
  -45.5154   59.6436   62.8001 H   0  0  0  0  0  0  0  0  0  0  0  0
  -45.8775   61.2081   63.5375 H   0  0  0  0  0  0  0  0  0  0  0  0
  -45.4600   62.3203   61.4308 H   0  0  0  0  0  0  0  0  0  0  0  0
  -45.1125   60.7527   60.6840 H   0  0  0  0  0  0  0  0  0  0  0  0
  -43.2003   60.4678   62.1179 H   0  0  0  0  0  0  0  0  0  0  0  0
  -43.5559   62.0330   62.8790 H   0  0  0  0  0  0  0  0  0  0  0  0
  -42.7463   61.6277   60.0202 H   0  0  0  0  0  0  0  0  0  0  0  0
  -41.7285   62.2545   61.2947 H   0  0  0  0  0  0  0  0  0  0  0  0
  -43.1284   63.1590   60.7701 H   0  0  0  0  0  0  0  0  0  0  0  0
  1  2  2  0  0  0  0
  1  3  1  0  0  0  0
  1  4  1  0  0  0  0
  3  5  1  0  0  0  0
  3 21  1  0  0  0  0
  3 22  1  0  0  0  0
  4 23  1  0  0  0  0
  5  6  1  0  0  0  0
  5 24  1  0  0  0  0
  5 25  1  0  0  0  0
  6  7  1  0  0  0  0
  6 26  1  0  0  0  0
  6 27  1  0  0  0  0
  7  8  1  0  0  0  0
  7 28  1  0  0  0  0
  7 29  1  0  0  0  0
  8  9  1  0  0  0  0
  8 30  1  0  0  0  0
  8 31  1  0  0  0  0
  9 10  1  0  0  0  0
  9 32  1  0  0  0  0
  9 33  1  0  0  0  0
 10 11  1  0  0  0  0
 10 34  1  0  0  0  0
 10 35  1  0  0  0  0
 11 12  1  0  0  0  0
 11 36  1  0  0  0  0
 11 37  1  0  0  0  0
 12 13  1  0  0  0  0
 12 38  1  0  0  0  0
 12 39  1  0  0  0  0
 13 14  1  0  0  0  0
 13 40  1  0  0  0  0
 13 41  1  0  0  0  0
 14 15  1  0  0  0  0
 14 42  1  0  0  0  0
 14 43  1  0  0  0  0
 15 16  1  0  0  0  0
 15 44  1  0  0  0  0
 15 45  1  0  0  0  0
 16 17  1  0  0  0  0
 16 46  1  0  0  0  0
 16 47  1  0  0  0  0
 17 18  1  0  0  0  0
 17 48  1  0  0  0  0
 17 49  1  0  0  0  0
 18 19  1  0  0  0  0
 18 50  1  0  0  0  0
 18 51  1  0  0  0  0
 19 20  1  0  0  0  0
 19 52  1  0  0  0  0
 19 53  1  0  0  0  0
 20 54  1  0  0  0  0
 20 55  1  0  0  0  0
 20 56  1  0  0  0  0
M  END
$$$$
/media/chris/experiments/cd1a-new-docking/inputs/ligands/4x6d_1_ligand.pdb
 OpenBabel07012320263D

 56 55  0  0  0  0  0  0  0  0999 V2000
  -41.2129   55.9758   62.8053 C   0  0  0  0  0  0  0  0  0  0  0  0
  -40.1752   56.6759   62.6844 O   0  0  0  0  0  0  0  0  0  0  0  0
  -42.4898   56.3790   62.0940 C   0  0  0  0  0  0  0  0  0  0  0  0
  -41.1806   54.9382   63.5163 O   0  0  0  0  0  0  0  0  0  0  0  0
  -42.5348   57.8958   61.9398 C   0  0  0  0  0  0  0  0  0  0  0  0
  -42.4803   58.5862   63.2935 C   0  0  0  0  0  0  0  0  0  0  0  0
  -43.6479   58.1573   64.1712 C   0  0  0  0  0  0  0  0  0  0  0  0
  -44.9702   58.5025   63.4927 C   0  0  0  0  0  0  0  0  0  0  0  0
  -46.1509   58.0994   64.3580 C   0  0  0  0  0  0  0  0  0  0  0  0
  -46.1420   58.8190   65.6970 C   0  0  0  0  0  0  0  0  0  0  0  0
  -47.3380   58.3370   66.4800 C   0  0  0  0  0  0  0  0  0  0  0  0
  -48.6910   58.5200   65.9370 C   0  0  0  0  0  0  0  0  0  0  0  0
  -49.8970   58.0544   66.7220 C   0  0  0  0  0  0  0  0  0  0  0  0
  -51.1790   58.3402   65.9408 C   0  0  0  0  0  0  0  0  0  0  0  0
  -52.4428   57.9111   66.6813 C   0  0  0  0  0  0  0  0  0  0  0  0
  -52.4335   56.4116   66.9900 C   0  0  0  0  0  0  0  0  0  0  0  0
  -51.2756   55.9431   67.8797 C   0  0  0  0  0  0  0  0  0  0  0  0
  -51.2917   56.6215   69.2559 C   0  0  0  0  0  0  0  0  0  0  0  0
  -52.5701   56.3260   70.0447 C   0  0  0  0  0  0  0  0  0  0  0  0
  -52.6111   57.0103   71.4164 C   0  0  0  0  0  0  0  0  0  0  0  0
  -43.3336   56.0544   62.6663 H   0  0  0  0  0  0  0  0  0  0  0  0
  -42.5156   55.9233   61.1262 H   0  0  0  0  0  0  0  0  0  0  0  0
  -41.9496   54.4114   63.6114 H   0  0  0  0  0  0  0  0  0  0  0  0
  -43.4427   58.1698   61.4442 H   0  0  0  0  0  0  0  0  0  0  0  0
  -41.6854   58.2042   61.3669 H   0  0  0  0  0  0  0  0  0  0  0  0
  -42.5221   59.6454   63.1482 H   0  0  0  0  0  0  0  0  0  0  0  0
  -41.5682   58.3107   63.7805 H   0  0  0  0  0  0  0  0  0  0  0  0
  -43.5893   58.6657   65.1109 H   0  0  0  0  0  0  0  0  0  0  0  0
  -43.5996   57.0996   64.3250 H   0  0  0  0  0  0  0  0  0  0  0  0
  -45.0290   57.9846   62.5583 H   0  0  0  0  0  0  0  0  0  0  0  0
  -45.0071   59.5608   63.3395 H   0  0  0  0  0  0  0  0  0  0  0  0
  -46.1087   57.0444   64.5316 H   0  0  0  0  0  0  0  0  0  0  0  0
  -47.0486   58.3689   63.8418 H   0  0  0  0  0  0  0  0  0  0  0  0
  -46.2076   59.8760   65.5439 H   0  0  0  0  0  0  0  0  0  0  0  0
  -45.2364   58.6137   66.2287 H   0  0  0  0  0  0  0  0  0  0  0  0
  -47.3129   58.8400   67.4241 H   0  0  0  0  0  0  0  0  0  0  0  0
  -47.2164   57.2740   66.4873 H   0  0  0  0  0  0  0  0  0  0  0  0
  -48.7179   58.0067   64.9986 H   0  0  0  0  0  0  0  0  0  0  0  0
  -48.8057   59.5838   65.9236 H   0  0  0  0  0  0  0  0  0  0  0  0
  -49.9308   58.5721   67.6578 H   0  0  0  0  0  0  0  0  0  0  0  0
  -49.8184   57.0005   66.8895 H   0  0  0  0  0  0  0  0  0  0  0  0
  -51.1348   57.8137   65.0103 H   0  0  0  0  0  0  0  0  0  0  0  0
  -51.2366   59.3994   65.8008 H   0  0  0  0  0  0  0  0  0  0  0  0
  -53.2944   58.1353   66.0735 H   0  0  0  0  0  0  0  0  0  0  0  0
  -52.4843   58.4435   67.6086 H   0  0  0  0  0  0  0  0  0  0  0  0
  -52.3754   55.8815   66.0624 H   0  0  0  0  0  0  0  0  0  0  0  0
  -53.3316   56.2119   67.5363 H   0  0  0  0  0  0  0  0  0  0  0  0
  -50.3514   56.1738   67.3924 H   0  0  0  0  0  0  0  0  0  0  0  0
  -51.3831   54.8894   68.0313 H   0  0  0  0  0  0  0  0  0  0  0  0
  -51.2118   57.6794   69.1171 H   0  0  0  0  0  0  0  0  0  0  0  0
  -50.4680   56.2331   69.8176 H   0  0  0  0  0  0  0  0  0  0  0  0
  -52.6416   55.2685   70.1909 H   0  0  0  0  0  0  0  0  0  0  0  0
  -53.3892   56.7119   69.4746 H   0  0  0  0  0  0  0  0  0  0  0  0
  -51.8040   56.6496   72.0192 H   0  0  0  0  0  0  0  0  0  0  0  0
  -53.5414   56.7900   71.8972 H   0  0  0  0  0  0  0  0  0  0  0  0
  -52.5167   58.0686   71.2901 H   0  0  0  0  0  0  0  0  0  0  0  0
  1  2  2  0  0  0  0
  1  3  1  0  0  0  0
  1  4  1  0  0  0  0
  3  5  1  0  0  0  0
  3 21  1  0  0  0  0
  3 22  1  0  0  0  0
  4 23  1  0  0  0  0
  5  6  1  0  0  0  0
  5 24  1  0  0  0  0
  5 25  1  0  0  0  0
  6  7  1  0  0  0  0
  6 26  1  0  0  0  0
  6 27  1  0  0  0  0
  7  8  1  0  0  0  0
  7 28  1  0  0  0  0
  7 29  1  0  0  0  0
  8  9  1  0  0  0  0
  8 30  1  0  0  0  0
  8 31  1  0  0  0  0
  9 10  1  0  0  0  0
  9 32  1  0  0  0  0
  9 33  1  0  0  0  0
 10 11  1  0  0  0  0
 10 34  1  0  0  0  0
 10 35  1  0  0  0  0
 11 12  1  0  0  0  0
 11 36  1  0  0  0  0
 11 37  1  0  0  0  0
 12 13  1  0  0  0  0
 12 38  1  0  0  0  0
 12 39  1  0  0  0  0
 13 14  1  0  0  0  0
 13 40  1  0  0  0  0
 13 41  1  0  0  0  0
 14 15  1  0  0  0  0
 14 42  1  0  0  0  0
 14 43  1  0  0  0  0
 15 16  1  0  0  0  0
 15 44  1  0  0  0  0
 15 45  1  0  0  0  0
 16 17  1  0  0  0  0
 16 46  1  0  0  0  0
 16 47  1  0  0  0  0
 17 18  1  0  0  0  0
 17 48  1  0  0  0  0
 17 49  1  0  0  0  0
 18 19  1  0  0  0  0
 18 50  1  0  0  0  0
 18 51  1  0  0  0  0
 19 20  1  0  0  0  0
 19 52  1  0  0  0  0
 19 53  1  0  0  0  0
 20 54  1  0  0  0  0
 20 55  1  0  0  0  0
 20 56  1  0  0  0  0
M  END
$$$$
/media/chris/experiments/cd1a-new-docking/inputs/ligands/4x6d_1_ligand.pdb
 OpenBabel07012320263D

 56 55  0  0  0  0  0  0  0  0999 V2000
  -43.8977   63.4828   70.8226 C   0  0  0  0  0  0  0  0  0  0  0  0
  -43.1722   64.4569   71.1489 O   0  0  0  0  0  0  0  0  0  0  0  0
  -45.2155   63.7203   70.1112 C   0  0  0  0  0  0  0  0  0  0  0  0
  -43.5189   62.3125   71.0871 O   0  0  0  0  0  0  0  0  0  0  0  0
  -45.1978   63.0275   68.7525 C   0  0  0  0  0  0  0  0  0  0  0  0
  -46.4998   63.2592   68.0020 C   0  0  0  0  0  0  0  0  0  0  0  0
  -46.4849   62.5519   66.6541 C   0  0  0  0  0  0  0  0  0  0  0  0
  -46.3218   61.0478   66.8512 C   0  0  0  0  0  0  0  0  0  0  0  0
  -46.2869   60.3217   65.5183 C   0  0  0  0  0  0  0  0  0  0  0  0
  -46.1420   58.8190   65.6970 C   0  0  0  0  0  0  0  0  0  0  0  0
  -47.3380   58.3370   66.4800 C   0  0  0  0  0  0  0  0  0  0  0  0
  -48.6910   58.5200   65.9370 C   0  0  0  0  0  0  0  0  0  0  0  0
  -49.2055   59.9072   65.6232 C   0  0  0  0  0  0  0  0  0  0  0  0
  -50.6357   59.8327   65.0901 C   0  0  0  0  0  0  0  0  0  0  0  0
  -51.2168   61.1986   64.7345 C   0  0  0  0  0  0  0  0  0  0  0  0
  -52.6547   61.0831   64.2213 C   0  0  0  0  0  0  0  0  0  0  0  0
  -53.3072   62.4130   63.8251 C   0  0  0  0  0  0  0  0  0  0  0  0
  -52.5473   63.1160   62.6925 C   0  0  0  0  0  0  0  0  0  0  0  0
  -52.4921   62.2802   61.4111 C   0  0  0  0  0  0  0  0  0  0  0  0
  -53.8756   61.9645   60.8297 C   0  0  0  0  0  0  0  0  0  0  0  0
  -45.3607   64.7713   69.9728 H   0  0  0  0  0  0  0  0  0  0  0  0
  -46.0141   63.3223   70.7018 H   0  0  0  0  0  0  0  0  0  0  0  0
  -44.0538   61.5815   70.8473 H   0  0  0  0  0  0  0  0  0  0  0  0
  -45.0608   61.9763   68.8982 H   0  0  0  0  0  0  0  0  0  0  0  0
  -44.3952   63.4350   68.1740 H   0  0  0  0  0  0  0  0  0  0  0  0
  -46.6310   64.3095   67.8448 H   0  0  0  0  0  0  0  0  0  0  0  0
  -47.3050   62.8644   68.5857 H   0  0  0  0  0  0  0  0  0  0  0  0
  -45.6691   62.9224   66.0693 H   0  0  0  0  0  0  0  0  0  0  0  0
  -47.4099   62.7402   66.1503 H   0  0  0  0  0  0  0  0  0  0  0  0
  -47.1446   60.6799   67.4280 H   0  0  0  0  0  0  0  0  0  0  0  0
  -45.3969   60.8702   67.3590 H   0  0  0  0  0  0  0  0  0  0  0  0
  -45.4571   60.6841   64.9482 H   0  0  0  0  0  0  0  0  0  0  0  0
  -47.2116   60.5087   65.0136 H   0  0  0  0  0  0  0  0  0  0  0  0
  -45.2422   58.6001   66.2331 H   0  0  0  0  0  0  0  0  0  0  0  0
  -46.0923   58.3300   64.7466 H   0  0  0  0  0  0  0  0  0  0  0  0
  -47.3129   58.8400   67.4241 H   0  0  0  0  0  0  0  0  0  0  0  0
  -47.2164   57.2740   66.4873 H   0  0  0  0  0  0  0  0  0  0  0  0
  -49.3680   58.0944   66.6480 H   0  0  0  0  0  0  0  0  0  0  0  0
  -48.6304   58.0595   64.9731 H   0  0  0  0  0  0  0  0  0  0  0  0
  -48.5763   60.3587   64.8849 H   0  0  0  0  0  0  0  0  0  0  0  0
  -49.1972   60.4930   66.5186 H   0  0  0  0  0  0  0  0  0  0  0  0
  -51.2548   59.3842   65.8387 H   0  0  0  0  0  0  0  0  0  0  0  0
  -50.6099   59.2542   64.1903 H   0  0  0  0  0  0  0  0  0  0  0  0
  -50.6116   61.6461   63.9740 H   0  0  0  0  0  0  0  0  0  0  0  0
  -51.2246   61.7997   65.6196 H   0  0  0  0  0  0  0  0  0  0  0  0
  -53.2482   60.6384   64.9926 H   0  0  0  0  0  0  0  0  0  0  0  0
  -52.6088   60.4937   63.3295 H   0  0  0  0  0  0  0  0  0  0  0  0
  -53.3247   63.0565   64.6798 H   0  0  0  0  0  0  0  0  0  0  0  0
  -54.2966   62.2027   63.4761 H   0  0  0  0  0  0  0  0  0  0  0  0
  -51.5468   63.3084   63.0193 H   0  0  0  0  0  0  0  0  0  0  0  0
  -53.0702   64.0216   62.4656 H   0  0  0  0  0  0  0  0  0  0  0  0
  -51.9973   61.3569   61.6295 H   0  0  0  0  0  0  0  0  0  0  0  0
  -51.9663   62.8576   60.6797 H   0  0  0  0  0  0  0  0  0  0  0  0
  -54.4349   61.3854   61.5344 H   0  0  0  0  0  0  0  0  0  0  0  0
  -53.7628   61.4097   59.9218 H   0  0  0  0  0  0  0  0  0  0  0  0
  -54.3943   62.8782   60.6273 H   0  0  0  0  0  0  0  0  0  0  0  0
  1  2  2  0  0  0  0
  1  3  1  0  0  0  0
  1  4  1  0  0  0  0
  3  5  1  0  0  0  0
  3 21  1  0  0  0  0
  3 22  1  0  0  0  0
  4 23  1  0  0  0  0
  5  6  1  0  0  0  0
  5 24  1  0  0  0  0
  5 25  1  0  0  0  0
  6  7  1  0  0  0  0
  6 26  1  0  0  0  0
  6 27  1  0  0  0  0
  7  8  1  0  0  0  0
  7 28  1  0  0  0  0
  7 29  1  0  0  0  0
  8  9  1  0  0  0  0
  8 30  1  0  0  0  0
  8 31  1  0  0  0  0
  9 10  1  0  0  0  0
  9 32  1  0  0  0  0
  9 33  1  0  0  0  0
 10 11  1  0  0  0  0
 10 34  1  0  0  0  0
 10 35  1  0  0  0  0
 11 12  1  0  0  0  0
 11 36  1  0  0  0  0
 11 37  1  0  0  0  0
 12 13  1  0  0  0  0
 12 38  1  0  0  0  0
 12 39  1  0  0  0  0
 13 14  1  0  0  0  0
 13 40  1  0  0  0  0
 13 41  1  0  0  0  0
 14 15  1  0  0  0  0
 14 42  1  0  0  0  0
 14 43  1  0  0  0  0
 15 16  1  0  0  0  0
 15 44  1  0  0  0  0
 15 45  1  0  0  0  0
 16 17  1  0  0  0  0
 16 46  1  0  0  0  0
 16 47  1  0  0  0  0
 17 18  1  0  0  0  0
 17 48  1  0  0  0  0
 17 49  1  0  0  0  0
 18 19  1  0  0  0  0
 18 50  1  0  0  0  0
 18 51  1  0  0  0  0
 19 20  1  0  0  0  0
 19 52  1  0  0  0  0
 19 53  1  0  0  0  0
 20 54  1  0  0  0  0
 20 55  1  0  0  0  0
 20 56  1  0  0  0  0
M  END
$$$$
/media/chris/experiments/cd1a-new-docking/inputs/ligands/4x6d_1_ligand.pdb
 OpenBabel07012320263D

 56 55  0  0  0  0  0  0  0  0999 V2000
  -40.6601   57.9626   60.3304 C   0  0  0  0  0  0  0  0  0  0  0  0
  -39.6555   58.1922   59.6095 O   0  0  0  0  0  0  0  0  0  0  0  0
  -40.7645   58.5835   61.7098 C   0  0  0  0  0  0  0  0  0  0  0  0
  -41.5772   57.2189   59.8959 O   0  0  0  0  0  0  0  0  0  0  0  0
  -42.0605   58.1356   62.3778 C   0  0  0  0  0  0  0  0  0  0  0  0
  -42.2074   58.7541   63.7591 C   0  0  0  0  0  0  0  0  0  0  0  0
  -43.4934   58.2911   64.4294 C   0  0  0  0  0  0  0  0  0  0  0  0
  -43.6307   58.9356   65.8055 C   0  0  0  0  0  0  0  0  0  0  0  0
  -44.8989   58.4750   66.5016 C   0  0  0  0  0  0  0  0  0  0  0  0
  -46.1420   58.8190   65.6970 C   0  0  0  0  0  0  0  0  0  0  0  0
  -47.3380   58.3370   66.4800 C   0  0  0  0  0  0  0  0  0  0  0  0
  -48.6910   58.5200   65.9370 C   0  0  0  0  0  0  0  0  0  0  0  0
  -49.0768   57.8833   64.6205 C   0  0  0  0  0  0  0  0  0  0  0  0
  -50.5214   58.2342   64.2666 C   0  0  0  0  0  0  0  0  0  0  0  0
  -50.7548   59.7345   64.1102 C   0  0  0  0  0  0  0  0  0  0  0  0
  -49.8946   60.3249   62.9897 C   0  0  0  0  0  0  0  0  0  0  0  0
  -50.1557   59.7369   61.5977 C   0  0  0  0  0  0  0  0  0  0  0  0
  -51.6014   59.9628   61.1357 C   0  0  0  0  0  0  0  0  0  0  0  0
  -51.9645   61.4467   61.0368 C   0  0  0  0  0  0  0  0  0  0  0  0
  -53.4117   61.6914   60.5927 C   0  0  0  0  0  0  0  0  0  0  0  0
  -40.7600   59.6499   61.6212 H   0  0  0  0  0  0  0  0  0  0  0  0
  -39.9322   58.2691   62.3041 H   0  0  0  0  0  0  0  0  0  0  0  0
  -42.3289   57.0431   60.4270 H   0  0  0  0  0  0  0  0  0  0  0  0
  -42.0551   57.0697   62.4710 H   0  0  0  0  0  0  0  0  0  0  0  0
  -42.8828   58.4564   61.7729 H   0  0  0  0  0  0  0  0  0  0  0  0
  -42.2256   59.8198   63.6653 H   0  0  0  0  0  0  0  0  0  0  0  0
  -41.3785   58.4453   64.3611 H   0  0  0  0  0  0  0  0  0  0  0  0
  -43.4722   57.2268   64.5379 H   0  0  0  0  0  0  0  0  0  0  0  0
  -44.3268   58.5795   63.8235 H   0  0  0  0  0  0  0  0  0  0  0  0
  -43.6612   59.9991   65.6916 H   0  0  0  0  0  0  0  0  0  0  0  0
  -42.7912   58.6449   66.4019 H   0  0  0  0  0  0  0  0  0  0  0  0
  -44.9621   58.9519   67.4573 H   0  0  0  0  0  0  0  0  0  0  0  0
  -44.8537   57.4109   66.6046 H   0  0  0  0  0  0  0  0  0  0  0  0
  -46.1077   58.3309   64.7454 H   0  0  0  0  0  0  0  0  0  0  0  0
  -46.2020   59.8741   65.5296 H   0  0  0  0  0  0  0  0  0  0  0  0
  -47.3129   58.8400   67.4241 H   0  0  0  0  0  0  0  0  0  0  0  0
  -47.2164   57.2740   66.4873 H   0  0  0  0  0  0  0  0  0  0  0  0
  -48.8369   59.5739   65.8234 H   0  0  0  0  0  0  0  0  0  0  0  0
  -49.3084   58.0076   66.6449 H   0  0  0  0  0  0  0  0  0  0  0  0
  -48.9808   56.8206   64.7005 H   0  0  0  0  0  0  0  0  0  0  0  0
  -48.4300   58.2521   63.8520 H   0  0  0  0  0  0  0  0  0  0  0  0
  -51.1601   57.8699   65.0440 H   0  0  0  0  0  0  0  0  0  0  0  0
  -50.7372   57.7788   63.3227 H   0  0  0  0  0  0  0  0  0  0  0  0
  -50.5088   60.2219   65.0304 H   0  0  0  0  0  0  0  0  0  0  0  0
  -51.7834   59.8888   63.8591 H   0  0  0  0  0  0  0  0  0  0  0  0
  -48.8670   60.1550   63.2349 H   0  0  0  0  0  0  0  0  0  0  0  0
  -50.1498   61.3623   62.9302 H   0  0  0  0  0  0  0  0  0  0  0  0
  -49.9634   58.6848   61.6263 H   0  0  0  0  0  0  0  0  0  0  0  0
  -49.5080   60.2322   60.9048 H   0  0  0  0  0  0  0  0  0  0  0  0
  -52.2617   59.4946   61.8356 H   0  0  0  0  0  0  0  0  0  0  0  0
  -51.6981   59.5403   60.1574 H   0  0  0  0  0  0  0  0  0  0  0  0
  -51.3095   61.9096   60.3285 H   0  0  0  0  0  0  0  0  0  0  0  0
  -51.8600   61.8634   62.0168 H   0  0  0  0  0  0  0  0  0  0  0  0
  -53.5572   61.2873   59.6127 H   0  0  0  0  0  0  0  0  0  0  0  0
  -53.6071   62.7433   60.5775 H   0  0  0  0  0  0  0  0  0  0  0  0
  -54.0806   61.2142   61.2781 H   0  0  0  0  0  0  0  0  0  0  0  0
  1  2  2  0  0  0  0
  1  3  1  0  0  0  0
  1  4  1  0  0  0  0
  3  5  1  0  0  0  0
  3 21  1  0  0  0  0
  3 22  1  0  0  0  0
  4 23  1  0  0  0  0
  5  6  1  0  0  0  0
  5 24  1  0  0  0  0
  5 25  1  0  0  0  0
  6  7  1  0  0  0  0
  6 26  1  0  0  0  0
  6 27  1  0  0  0  0
  7  8  1  0  0  0  0
  7 28  1  0  0  0  0
  7 29  1  0  0  0  0
  8  9  1  0  0  0  0
  8 30  1  0  0  0  0
  8 31  1  0  0  0  0
  9 10  1  0  0  0  0
  9 32  1  0  0  0  0
  9 33  1  0  0  0  0
 10 11  1  0  0  0  0
 10 34  1  0  0  0  0
 10 35  1  0  0  0  0
 11 12  1  0  0  0  0
 11 36  1  0  0  0  0
 11 37  1  0  0  0  0
 12 13  1  0  0  0  0
 12 38  1  0  0  0  0
 12 39  1  0  0  0  0
 13 14  1  0  0  0  0
 13 40  1  0  0  0  0
 13 41  1  0  0  0  0
 14 15  1  0  0  0  0
 14 42  1  0  0  0  0
 14 43  1  0  0  0  0
 15 16  1  0  0  0  0
 15 44  1  0  0  0  0
 15 45  1  0  0  0  0
 16 17  1  0  0  0  0
 16 46  1  0  0  0  0
 16 47  1  0  0  0  0
 17 18  1  0  0  0  0
 17 48  1  0  0  0  0
 17 49  1  0  0  0  0
 18 19  1  0  0  0  0
 18 50  1  0  0  0  0
 18 51  1  0  0  0  0
 19 20  1  0  0  0  0
 19 52  1  0  0  0  0
 19 53  1  0  0  0  0
 20 54  1  0  0  0  0
 20 55  1  0  0  0  0
 20 56  1  0  0  0  0
M  END
$$$$
/media/chris/experiments/cd1a-new-docking/inputs/ligands/4x6d_1_ligand.pdb
 OpenBabel07012320263D

 56 55  0  0  0  0  0  0  0  0999 V2000
  -42.7745   62.3973   60.2852 C   0  0  0  0  0  0  0  0  0  0  0  0
  -43.9148   62.9277   60.2732 O   0  0  0  0  0  0  0  0  0  0  0  0
  -42.6374   60.8901   60.3778 C   0  0  0  0  0  0  0  0  0  0  0  0
  -41.7515   63.1265   60.2151 O   0  0  0  0  0  0  0  0  0  0  0  0
  -43.8204   60.3133   61.1486 C   0  0  0  0  0  0  0  0  0  0  0  0
  -43.8953   60.8932   62.5523 C   0  0  0  0  0  0  0  0  0  0  0  0
  -45.0669   60.3022   63.3241 C   0  0  0  0  0  0  0  0  0  0  0  0
  -45.1351   60.9090   64.7223 C   0  0  0  0  0  0  0  0  0  0  0  0
  -46.2869   60.3217   65.5183 C   0  0  0  0  0  0  0  0  0  0  0  0
  -46.1420   58.8190   65.6970 C   0  0  0  0  0  0  0  0  0  0  0  0
  -47.3380   58.3370   66.4800 C   0  0  0  0  0  0  0  0  0  0  0  0
  -48.6910   58.5200   65.9370 C   0  0  0  0  0  0  0  0  0  0  0  0
  -49.8970   58.0544   66.7220 C   0  0  0  0  0  0  0  0  0  0  0  0
  -49.9684   58.7830   68.0634 C   0  0  0  0  0  0  0  0  0  0  0  0
  -50.0999   60.2968   67.9193 C   0  0  0  0  0  0  0  0  0  0  0  0
  -51.3756   60.6824   67.1656 C   0  0  0  0  0  0  0  0  0  0  0  0
  -52.6807   60.2341   67.8344 C   0  0  0  0  0  0  0  0  0  0  0  0
  -52.8559   60.8462   69.2305 C   0  0  0  0  0  0  0  0  0  0  0  0
  -52.9056   62.3761   69.2021 C   0  0  0  0  0  0  0  0  0  0  0  0
  -53.0632   63.0061   70.5913 C   0  0  0  0  0  0  0  0  0  0  0  0
  -41.7283   60.6461   60.8866 H   0  0  0  0  0  0  0  0  0  0  0  0
  -42.6199   60.4744   59.3920 H   0  0  0  0  0  0  0  0  0  0  0  0
  -40.8985   62.7389   60.2234 H   0  0  0  0  0  0  0  0  0  0  0  0
  -43.7097   59.2511   61.2149 H   0  0  0  0  0  0  0  0  0  0  0  0
  -44.7206   60.5662   60.6283 H   0  0  0  0  0  0  0  0  0  0  0  0
  -44.0188   61.9540   62.4866 H   0  0  0  0  0  0  0  0  0  0  0  0
  -42.9900   60.6529   63.0695 H   0  0  0  0  0  0  0  0  0  0  0  0
  -44.9393   59.2429   63.4042 H   0  0  0  0  0  0  0  0  0  0  0  0
  -45.9752   60.5219   62.8030 H   0  0  0  0  0  0  0  0  0  0  0  0
  -45.2725   61.9668   64.6377 H   0  0  0  0  0  0  0  0  0  0  0  0
  -44.2214   60.6878   65.2334 H   0  0  0  0  0  0  0  0  0  0  0  0
  -47.2024   60.5223   65.0020 H   0  0  0  0  0  0  0  0  0  0  0  0
  -46.2850   60.7734   66.4883 H   0  0  0  0  0  0  0  0  0  0  0  0
  -45.2422   58.6001   66.2331 H   0  0  0  0  0  0  0  0  0  0  0  0
  -46.0923   58.3300   64.7466 H   0  0  0  0  0  0  0  0  0  0  0  0
  -47.3129   58.8400   67.4241 H   0  0  0  0  0  0  0  0  0  0  0  0
  -47.2164   57.2740   66.4873 H   0  0  0  0  0  0  0  0  0  0  0  0
  -48.7179   58.0067   64.9986 H   0  0  0  0  0  0  0  0  0  0  0  0
  -48.8057   59.5838   65.9236 H   0  0  0  0  0  0  0  0  0  0  0  0
  -49.8205   57.0014   66.8956 H   0  0  0  0  0  0  0  0  0  0  0  0
  -50.7824   58.2692   66.1609 H   0  0  0  0  0  0  0  0  0  0  0  0
  -49.0759   58.5701   68.6139 H   0  0  0  0  0  0  0  0  0  0  0  0
  -50.8449   58.4344   68.5684 H   0  0  0  0  0  0  0  0  0  0  0  0
  -49.2530   60.6694   67.3818 H   0  0  0  0  0  0  0  0  0  0  0  0
  -50.1483   60.7234   68.8993 H   0  0  0  0  0  0  0  0  0  0  0  0
  -51.3326   60.2413   66.1917 H   0  0  0  0  0  0  0  0  0  0  0  0
  -51.4007   61.7519   67.1452 H   0  0  0  0  0  0  0  0  0  0  0  0
  -52.6735   59.1679   67.9240 H   0  0  0  0  0  0  0  0  0  0  0  0
  -53.4941   60.5679   67.2246 H   0  0  0  0  0  0  0  0  0  0  0  0
  -52.0336   60.5417   69.8436 H   0  0  0  0  0  0  0  0  0  0  0  0
  -53.7899   60.4995   69.6208 H   0  0  0  0  0  0  0  0  0  0  0  0
  -53.7350   62.6773   68.5970 H   0  0  0  0  0  0  0  0  0  0  0  0
  -51.9714   62.7151   68.8056 H   0  0  0  0  0  0  0  0  0  0  0  0
  -53.9897   62.6900   71.0233 H   0  0  0  0  0  0  0  0  0  0  0  0
  -53.0566   64.0724   70.5022 H   0  0  0  0  0  0  0  0  0  0  0  0
  -52.2532   62.6956   71.2178 H   0  0  0  0  0  0  0  0  0  0  0  0
  1  2  2  0  0  0  0
  1  3  1  0  0  0  0
  1  4  1  0  0  0  0
  3  5  1  0  0  0  0
  3 21  1  0  0  0  0
  3 22  1  0  0  0  0
  4 23  1  0  0  0  0
  5  6  1  0  0  0  0
  5 24  1  0  0  0  0
  5 25  1  0  0  0  0
  6  7  1  0  0  0  0
  6 26  1  0  0  0  0
  6 27  1  0  0  0  0
  7  8  1  0  0  0  0
  7 28  1  0  0  0  0
  7 29  1  0  0  0  0
  8  9  1  0  0  0  0
  8 30  1  0  0  0  0
  8 31  1  0  0  0  0
  9 10  1  0  0  0  0
  9 32  1  0  0  0  0
  9 33  1  0  0  0  0
 10 11  1  0  0  0  0
 10 34  1  0  0  0  0
 10 35  1  0  0  0  0
 11 12  1  0  0  0  0
 11 36  1  0  0  0  0
 11 37  1  0  0  0  0
 12 13  1  0  0  0  0
 12 38  1  0  0  0  0
 12 39  1  0  0  0  0
 13 14  1  0  0  0  0
 13 40  1  0  0  0  0
 13 41  1  0  0  0  0
 14 15  1  0  0  0  0
 14 42  1  0  0  0  0
 14 43  1  0  0  0  0
 15 16  1  0  0  0  0
 15 44  1  0  0  0  0
 15 45  1  0  0  0  0
 16 17  1  0  0  0  0
 16 46  1  0  0  0  0
 16 47  1  0  0  0  0
 17 18  1  0  0  0  0
 17 48  1  0  0  0  0
 17 49  1  0  0  0  0
 18 19  1  0  0  0  0
 18 50  1  0  0  0  0
 18 51  1  0  0  0  0
 19 20  1  0  0  0  0
 19 52  1  0  0  0  0
 19 53  1  0  0  0  0
 20 54  1  0  0  0  0
 20 55  1  0  0  0  0
 20 56  1  0  0  0  0
M  END
$$$$
/media/chris/experiments/cd1a-new-docking/inputs/ligands/4x6d_1_ligand.pdb
 OpenBabel07012320263D

 56 55  0  0  0  0  0  0  0  0999 V2000
  -50.2985   61.9112   64.6729 C   0  0  0  0  0  0  0  0  0  0  0  0
  -51.2862   62.0182   63.9018 O   0  0  0  0  0  0  0  0  0  0  0  0
  -50.2932   62.6317   66.0070 C   0  0  0  0  0  0  0  0  0  0  0  0
  -49.3195   61.1990   64.3301 O   0  0  0  0  0  0  0  0  0  0  0  0
  -48.9829   62.3527   66.7361 C   0  0  0  0  0  0  0  0  0  0  0  0
  -47.7916   62.8477   65.9312 C   0  0  0  0  0  0  0  0  0  0  0  0
  -46.4849   62.5519   66.6541 C   0  0  0  0  0  0  0  0  0  0  0  0
  -46.3218   61.0478   66.8512 C   0  0  0  0  0  0  0  0  0  0  0  0
  -46.2869   60.3217   65.5183 C   0  0  0  0  0  0  0  0  0  0  0  0
  -46.1420   58.8190   65.6970 C   0  0  0  0  0  0  0  0  0  0  0  0
  -47.3380   58.3370   66.4800 C   0  0  0  0  0  0  0  0  0  0  0  0
  -48.6910   58.5200   65.9370 C   0  0  0  0  0  0  0  0  0  0  0  0
  -49.8970   58.0544   66.7220 C   0  0  0  0  0  0  0  0  0  0  0  0
  -51.1790   58.3402   65.9408 C   0  0  0  0  0  0  0  0  0  0  0  0
  -52.4428   57.9111   66.6813 C   0  0  0  0  0  0  0  0  0  0  0  0
  -52.4335   56.4116   66.9900 C   0  0  0  0  0  0  0  0  0  0  0  0
  -52.3337   55.5003   65.7608 C   0  0  0  0  0  0  0  0  0  0  0  0
  -52.3468   54.0134   66.1396 C   0  0  0  0  0  0  0  0  0  0  0  0
  -52.2303   53.0930   64.9219 C   0  0  0  0  0  0  0  0  0  0  0  0
  -52.2590   51.6023   65.2803 C   0  0  0  0  0  0  0  0  0  0  0  0
  -51.1122   62.2849   66.6019 H   0  0  0  0  0  0  0  0  0  0  0  0
  -50.3899   63.6845   65.8418 H   0  0  0  0  0  0  0  0  0  0  0  0
  -48.5798   61.1143   64.8990 H   0  0  0  0  0  0  0  0  0  0  0  0
  -48.8866   61.2983   66.8903 H   0  0  0  0  0  0  0  0  0  0  0  0
  -48.9986   62.8702   67.6726 H   0  0  0  0  0  0  0  0  0  0  0  0
  -47.8808   63.9042   65.7875 H   0  0  0  0  0  0  0  0  0  0  0  0
  -47.7824   62.3411   64.9887 H   0  0  0  0  0  0  0  0  0  0  0  0
  -46.4917   63.0351   67.6087 H   0  0  0  0  0  0  0  0  0  0  0  0
  -45.6694   62.9178   66.0658 H   0  0  0  0  0  0  0  0  0  0  0  0
  -47.1446   60.6799   67.4280 H   0  0  0  0  0  0  0  0  0  0  0  0
  -45.3969   60.8702   67.3590 H   0  0  0  0  0  0  0  0  0  0  0  0
  -45.4571   60.6841   64.9482 H   0  0  0  0  0  0  0  0  0  0  0  0
  -47.2116   60.5087   65.0136 H   0  0  0  0  0  0  0  0  0  0  0  0
  -45.2422   58.6001   66.2331 H   0  0  0  0  0  0  0  0  0  0  0  0
  -46.0923   58.3300   64.7466 H   0  0  0  0  0  0  0  0  0  0  0  0
  -47.3129   58.8400   67.4241 H   0  0  0  0  0  0  0  0  0  0  0  0
  -47.2164   57.2740   66.4873 H   0  0  0  0  0  0  0  0  0  0  0  0
  -48.7179   58.0067   64.9986 H   0  0  0  0  0  0  0  0  0  0  0  0
  -48.8057   59.5838   65.9236 H   0  0  0  0  0  0  0  0  0  0  0  0
  -49.9308   58.5721   67.6578 H   0  0  0  0  0  0  0  0  0  0  0  0
  -49.8184   57.0005   66.8895 H   0  0  0  0  0  0  0  0  0  0  0  0
  -51.1348   57.8137   65.0103 H   0  0  0  0  0  0  0  0  0  0  0  0
  -51.2366   59.3994   65.8008 H   0  0  0  0  0  0  0  0  0  0  0  0
  -53.2944   58.1353   66.0735 H   0  0  0  0  0  0  0  0  0  0  0  0
  -52.4843   58.4435   67.6086 H   0  0  0  0  0  0  0  0  0  0  0  0
  -53.3389   56.1731   67.5080 H   0  0  0  0  0  0  0  0  0  0  0  0
  -51.5532   56.2300   67.5706 H   0  0  0  0  0  0  0  0  0  0  0  0
  -51.4217   55.7164   65.2446 H   0  0  0  0  0  0  0  0  0  0  0  0
  -53.1855   55.6893   65.1414 H   0  0  0  0  0  0  0  0  0  0  0  0
  -53.2643   53.7971   66.6458 H   0  0  0  0  0  0  0  0  0  0  0  0
  -51.4978   53.8315   66.7650 H   0  0  0  0  0  0  0  0  0  0  0  0
  -51.3071   53.3044   64.4240 H   0  0  0  0  0  0  0  0  0  0  0  0
  -53.0789   53.2845   64.2989 H   0  0  0  0  0  0  0  0  0  0  0  0
  -51.4225   51.3696   65.9055 H   0  0  0  0  0  0  0  0  0  0  0  0
  -52.2080   51.0191   64.3846 H   0  0  0  0  0  0  0  0  0  0  0  0
  -53.1666   51.3780   65.8007 H   0  0  0  0  0  0  0  0  0  0  0  0
  1  2  2  0  0  0  0
  1  3  1  0  0  0  0
  1  4  1  0  0  0  0
  3  5  1  0  0  0  0
  3 21  1  0  0  0  0
  3 22  1  0  0  0  0
  4 23  1  0  0  0  0
  5  6  1  0  0  0  0
  5 24  1  0  0  0  0
  5 25  1  0  0  0  0
  6  7  1  0  0  0  0
  6 26  1  0  0  0  0
  6 27  1  0  0  0  0
  7  8  1  0  0  0  0
  7 28  1  0  0  0  0
  7 29  1  0  0  0  0
  8  9  1  0  0  0  0
  8 30  1  0  0  0  0
  8 31  1  0  0  0  0
  9 10  1  0  0  0  0
  9 32  1  0  0  0  0
  9 33  1  0  0  0  0
 10 11  1  0  0  0  0
 10 34  1  0  0  0  0
 10 35  1  0  0  0  0
 11 12  1  0  0  0  0
 11 36  1  0  0  0  0
 11 37  1  0  0  0  0
 12 13  1  0  0  0  0
 12 38  1  0  0  0  0
 12 39  1  0  0  0  0
 13 14  1  0  0  0  0
 13 40  1  0  0  0  0
 13 41  1  0  0  0  0
 14 15  1  0  0  0  0
 14 42  1  0  0  0  0
 14 43  1  0  0  0  0
 15 16  1  0  0  0  0
 15 44  1  0  0  0  0
 15 45  1  0  0  0  0
 16 17  1  0  0  0  0
 16 46  1  0  0  0  0
 16 47  1  0  0  0  0
 17 18  1  0  0  0  0
 17 48  1  0  0  0  0
 17 49  1  0  0  0  0
 18 19  1  0  0  0  0
 18 50  1  0  0  0  0
 18 51  1  0  0  0  0
 19 20  1  0  0  0  0
 19 52  1  0  0  0  0
 19 53  1  0  0  0  0
 20 54  1  0  0  0  0
 20 55  1  0  0  0  0
 20 56  1  0  0  0  0
M  END
$$$$
/media/chris/experiments/cd1a-new-docking/inputs/ligands/4x6d_1_ligand.pdb
 OpenBabel07012320263D

 56 55  0  0  0  0  0  0  0  0999 V2000
  -45.1029   59.3703   58.9251 C   0  0  0  0  0  0  0  0  0  0  0  0
  -46.0541   60.0652   59.3654 O   0  0  0  0  0  0  0  0  0  0  0  0
  -45.0796   57.8733   59.1651 C   0  0  0  0  0  0  0  0  0  0  0  0
  -44.1757   59.9264   58.2815 O   0  0  0  0  0  0  0  0  0  0  0  0
  -43.8274   57.4987   59.9514 C   0  0  0  0  0  0  0  0  0  0  0  0
  -43.8027   58.1910   61.3050 C   0  0  0  0  0  0  0  0  0  0  0  0
  -45.0041   57.7845   62.1469 C   0  0  0  0  0  0  0  0  0  0  0  0
  -44.9702   58.5025   63.4927 C   0  0  0  0  0  0  0  0  0  0  0  0
  -46.1509   58.0994   64.3580 C   0  0  0  0  0  0  0  0  0  0  0  0
  -46.1420   58.8190   65.6970 C   0  0  0  0  0  0  0  0  0  0  0  0
  -47.3380   58.3370   66.4800 C   0  0  0  0  0  0  0  0  0  0  0  0
  -48.6910   58.5200   65.9370 C   0  0  0  0  0  0  0  0  0  0  0  0
  -49.0768   57.8833   64.6205 C   0  0  0  0  0  0  0  0  0  0  0  0
  -48.9503   56.3630   64.7112 C   0  0  0  0  0  0  0  0  0  0  0  0
  -49.3083   55.6511   63.4094 C   0  0  0  0  0  0  0  0  0  0  0  0
  -49.1860   54.1311   63.5462 C   0  0  0  0  0  0  0  0  0  0  0  0
  -49.5129   53.3402   62.2737 C   0  0  0  0  0  0  0  0  0  0  0  0
  -48.5780   53.7008   61.1117 C   0  0  0  0  0  0  0  0  0  0  0  0
  -47.1088   53.4031   61.4221 C   0  0  0  0  0  0  0  0  0  0  0  0
  -46.8353   51.9222   61.7115 C   0  0  0  0  0  0  0  0  0  0  0  0
  -45.0754   57.3623   58.2250 H   0  0  0  0  0  0  0  0  0  0  0  0
  -45.9471   57.5902   59.7238 H   0  0  0  0  0  0  0  0  0  0  0  0
  -43.4634   59.4155   57.9503 H   0  0  0  0  0  0  0  0  0  0  0  0
  -42.9633   57.7924   59.3929 H   0  0  0  0  0  0  0  0  0  0  0  0
  -43.8307   56.4407   60.1111 H   0  0  0  0  0  0  0  0  0  0  0  0
  -43.8216   59.2505   61.1566 H   0  0  0  0  0  0  0  0  0  0  0  0
  -42.9110   57.9009   61.8203 H   0  0  0  0  0  0  0  0  0  0  0  0
  -44.9805   56.7272   62.3094 H   0  0  0  0  0  0  0  0  0  0  0  0
  -45.9010   58.0542   61.6293 H   0  0  0  0  0  0  0  0  0  0  0  0
  -45.0038   59.5589   63.3261 H   0  0  0  0  0  0  0  0  0  0  0  0
  -44.0685   58.2299   64.0003 H   0  0  0  0  0  0  0  0  0  0  0  0
  -46.1087   57.0444   64.5316 H   0  0  0  0  0  0  0  0  0  0  0  0
  -47.0486   58.3689   63.8418 H   0  0  0  0  0  0  0  0  0  0  0  0
  -46.2076   59.8760   65.5439 H   0  0  0  0  0  0  0  0  0  0  0  0
  -45.2364   58.6137   66.2287 H   0  0  0  0  0  0  0  0  0  0  0  0
  -47.3129   58.8400   67.4241 H   0  0  0  0  0  0  0  0  0  0  0  0
  -47.2164   57.2740   66.4873 H   0  0  0  0  0  0  0  0  0  0  0  0
  -48.8369   59.5739   65.8234 H   0  0  0  0  0  0  0  0  0  0  0  0
  -49.3084   58.0076   66.6449 H   0  0  0  0  0  0  0  0  0  0  0  0
  -48.4296   58.2462   63.8495 H   0  0  0  0  0  0  0  0  0  0  0  0
  -50.0918   58.1359   64.3951 H   0  0  0  0  0  0  0  0  0  0  0  0
  -49.6051   56.0127   65.4816 H   0  0  0  0  0  0  0  0  0  0  0  0
  -47.9253   56.1413   64.9233 H   0  0  0  0  0  0  0  0  0  0  0  0
  -48.6463   55.9847   62.6378 H   0  0  0  0  0  0  0  0  0  0  0  0
  -50.3244   55.8847   63.1686 H   0  0  0  0  0  0  0  0  0  0  0  0
  -49.8555   53.8117   64.3173 H   0  0  0  0  0  0  0  0  0  0  0  0
  -48.1585   53.9313   63.7682 H   0  0  0  0  0  0  0  0  0  0  0  0
  -50.5207   53.5540   61.9844 H   0  0  0  0  0  0  0  0  0  0  0  0
  -49.3824   52.3005   62.4902 H   0  0  0  0  0  0  0  0  0  0  0  0
  -48.6790   54.7452   60.9023 H   0  0  0  0  0  0  0  0  0  0  0  0
  -48.8593   53.1002   60.2720 H   0  0  0  0  0  0  0  0  0  0  0  0
  -46.8206   53.9751   62.2792 H   0  0  0  0  0  0  0  0  0  0  0  0
  -46.5429   53.6647   60.5524 H   0  0  0  0  0  0  0  0  0  0  0  0
  -47.3857   51.6207   62.5782 H   0  0  0  0  0  0  0  0  0  0  0  0
  -45.7893   51.7801   61.8860 H   0  0  0  0  0  0  0  0  0  0  0  0
  -47.1403   51.3325   60.8724 H   0  0  0  0  0  0  0  0  0  0  0  0
  1  2  2  0  0  0  0
  1  3  1  0  0  0  0
  1  4  1  0  0  0  0
  3  5  1  0  0  0  0
  3 21  1  0  0  0  0
  3 22  1  0  0  0  0
  4 23  1  0  0  0  0
  5  6  1  0  0  0  0
  5 24  1  0  0  0  0
  5 25  1  0  0  0  0
  6  7  1  0  0  0  0
  6 26  1  0  0  0  0
  6 27  1  0  0  0  0
  7  8  1  0  0  0  0
  7 28  1  0  0  0  0
  7 29  1  0  0  0  0
  8  9  1  0  0  0  0
  8 30  1  0  0  0  0
  8 31  1  0  0  0  0
  9 10  1  0  0  0  0
  9 32  1  0  0  0  0
  9 33  1  0  0  0  0
 10 11  1  0  0  0  0
 10 34  1  0  0  0  0
 10 35  1  0  0  0  0
 11 12  1  0  0  0  0
 11 36  1  0  0  0  0
 11 37  1  0  0  0  0
 12 13  1  0  0  0  0
 12 38  1  0  0  0  0
 12 39  1  0  0  0  0
 13 14  1  0  0  0  0
 13 40  1  0  0  0  0
 13 41  1  0  0  0  0
 14 15  1  0  0  0  0
 14 42  1  0  0  0  0
 14 43  1  0  0  0  0
 15 16  1  0  0  0  0
 15 44  1  0  0  0  0
 15 45  1  0  0  0  0
 16 17  1  0  0  0  0
 16 46  1  0  0  0  0
 16 47  1  0  0  0  0
 17 18  1  0  0  0  0
 17 48  1  0  0  0  0
 17 49  1  0  0  0  0
 18 19  1  0  0  0  0
 18 50  1  0  0  0  0
 18 51  1  0  0  0  0
 19 20  1  0  0  0  0
 19 52  1  0  0  0  0
 19 53  1  0  0  0  0
 20 54  1  0  0  0  0
 20 55  1  0  0  0  0
 20 56  1  0  0  0  0
M  END
$$$$
/media/chris/experiments/cd1a-new-docking/inputs/ligands/4x6d_1_ligand.pdb
 OpenBabel07012320263D

 56 55  0  0  0  0  0  0  0  0999 V2000
  -45.2121   61.5915   60.0612 C   0  0  0  0  0  0  0  0  0  0  0  0
  -44.7312   62.0740   59.0041 O   0  0  0  0  0  0  0  0  0  0  0  0
  -45.0529   62.3301   61.3759 C   0  0  0  0  0  0  0  0  0  0  0  0
  -45.8288   60.4956   60.0173 O   0  0  0  0  0  0  0  0  0  0  0  0
  -43.7713   61.8768   62.0676 C   0  0  0  0  0  0  0  0  0  0  0  0
  -43.7937   60.3805   62.3372 C   0  0  0  0  0  0  0  0  0  0  0  0
  -44.9754   60.0036   63.2198 C   0  0  0  0  0  0  0  0  0  0  0  0
  -44.9702   58.5025   63.4927 C   0  0  0  0  0  0  0  0  0  0  0  0
  -46.1509   58.0994   64.3580 C   0  0  0  0  0  0  0  0  0  0  0  0
  -46.1420   58.8190   65.6970 C   0  0  0  0  0  0  0  0  0  0  0  0
  -47.3380   58.3370   66.4800 C   0  0  0  0  0  0  0  0  0  0  0  0
  -48.6910   58.5200   65.9370 C   0  0  0  0  0  0  0  0  0  0  0  0
  -49.2055   59.9072   65.6232 C   0  0  0  0  0  0  0  0  0  0  0  0
  -48.3233   60.5721   64.5673 C   0  0  0  0  0  0  0  0  0  0  0  0
  -48.7733   61.9865   64.2115 C   0  0  0  0  0  0  0  0  0  0  0  0
  -47.8759   62.6107   63.1396 C   0  0  0  0  0  0  0  0  0  0  0  0
  -48.2514   64.0419   62.7369 C   0  0  0  0  0  0  0  0  0  0  0  0
  -47.3242   64.5994   61.6489 C   0  0  0  0  0  0  0  0  0  0  0  0
  -47.3681   63.7776   60.3580 C   0  0  0  0  0  0  0  0  0  0  0  0
  -48.7587   63.7299   59.7134 C   0  0  0  0  0  0  0  0  0  0  0  0
  -45.8912   62.1189   62.0063 H   0  0  0  0  0  0  0  0  0  0  0  0
  -45.0012   63.3821   61.1875 H   0  0  0  0  0  0  0  0  0  0  0  0
  -46.1899   60.1296   60.8006 H   0  0  0  0  0  0  0  0  0  0  0  0
  -43.6729   62.3978   62.9970 H   0  0  0  0  0  0  0  0  0  0  0  0
  -42.9437   62.0937   61.4250 H   0  0  0  0  0  0  0  0  0  0  0  0
  -42.8859   60.0998   62.8291 H   0  0  0  0  0  0  0  0  0  0  0  0
  -43.8878   59.8669   61.4033 H   0  0  0  0  0  0  0  0  0  0  0  0
  -45.8858   60.2698   62.7245 H   0  0  0  0  0  0  0  0  0  0  0  0
  -44.8989   60.5282   64.1492 H   0  0  0  0  0  0  0  0  0  0  0  0
  -44.0629   58.2422   63.9966 H   0  0  0  0  0  0  0  0  0  0  0  0
  -45.0427   57.9871   62.5578 H   0  0  0  0  0  0  0  0  0  0  0  0
  -46.1087   57.0444   64.5316 H   0  0  0  0  0  0  0  0  0  0  0  0
  -47.0486   58.3689   63.8418 H   0  0  0  0  0  0  0  0  0  0  0  0
  -46.2076   59.8760   65.5439 H   0  0  0  0  0  0  0  0  0  0  0  0
  -45.2364   58.6137   66.2287 H   0  0  0  0  0  0  0  0  0  0  0  0
  -47.3129   58.8400   67.4241 H   0  0  0  0  0  0  0  0  0  0  0  0
  -47.2164   57.2740   66.4873 H   0  0  0  0  0  0  0  0  0  0  0  0
  -49.3680   58.0944   66.6480 H   0  0  0  0  0  0  0  0  0  0  0  0
  -48.6304   58.0595   64.9731 H   0  0  0  0  0  0  0  0  0  0  0  0
  -49.1949   60.4980   66.5153 H   0  0  0  0  0  0  0  0  0  0  0  0
  -50.2040   59.8318   65.2462 H   0  0  0  0  0  0  0  0  0  0  0  0
  -48.3461   59.9747   63.6799 H   0  0  0  0  0  0  0  0  0  0  0  0
  -47.3375   60.6457   64.9770 H   0  0  0  0  0  0  0  0  0  0  0  0
  -48.7372   62.5941   65.0916 H   0  0  0  0  0  0  0  0  0  0  0  0
  -49.7695   61.9334   63.8246 H   0  0  0  0  0  0  0  0  0  0  0  0
  -47.9251   61.9956   62.2654 H   0  0  0  0  0  0  0  0  0  0  0  0
  -46.8951   62.6657   63.5639 H   0  0  0  0  0  0  0  0  0  0  0  0
  -48.1871   64.6709   63.6001 H   0  0  0  0  0  0  0  0  0  0  0  0
  -49.2460   64.0223   62.3429 H   0  0  0  0  0  0  0  0  0  0  0  0
  -46.3209   64.5994   62.0209 H   0  0  0  0  0  0  0  0  0  0  0  0
  -47.6588   65.5883   61.4143 H   0  0  0  0  0  0  0  0  0  0  0  0
  -47.0639   62.7767   60.5827 H   0  0  0  0  0  0  0  0  0  0  0  0
  -46.7120   64.2525   59.6588 H   0  0  0  0  0  0  0  0  0  0  0  0
  -49.4470   63.2599   60.3845 H   0  0  0  0  0  0  0  0  0  0  0  0
  -48.7106   63.1706   58.8025 H   0  0  0  0  0  0  0  0  0  0  0  0
  -49.0889   64.7258   59.5035 H   0  0  0  0  0  0  0  0  0  0  0  0
  1  2  2  0  0  0  0
  1  3  1  0  0  0  0
  1  4  1  0  0  0  0
  3  5  1  0  0  0  0
  3 21  1  0  0  0  0
  3 22  1  0  0  0  0
  4 23  1  0  0  0  0
  5  6  1  0  0  0  0
  5 24  1  0  0  0  0
  5 25  1  0  0  0  0
  6  7  1  0  0  0  0
  6 26  1  0  0  0  0
  6 27  1  0  0  0  0
  7  8  1  0  0  0  0
  7 28  1  0  0  0  0
  7 29  1  0  0  0  0
  8  9  1  0  0  0  0
  8 30  1  0  0  0  0
  8 31  1  0  0  0  0
  9 10  1  0  0  0  0
  9 32  1  0  0  0  0
  9 33  1  0  0  0  0
 10 11  1  0  0  0  0
 10 34  1  0  0  0  0
 10 35  1  0  0  0  0
 11 12  1  0  0  0  0
 11 36  1  0  0  0  0
 11 37  1  0  0  0  0
 12 13  1  0  0  0  0
 12 38  1  0  0  0  0
 12 39  1  0  0  0  0
 13 14  1  0  0  0  0
 13 40  1  0  0  0  0
 13 41  1  0  0  0  0
 14 15  1  0  0  0  0
 14 42  1  0  0  0  0
 14 43  1  0  0  0  0
 15 16  1  0  0  0  0
 15 44  1  0  0  0  0
 15 45  1  0  0  0  0
 16 17  1  0  0  0  0
 16 46  1  0  0  0  0
 16 47  1  0  0  0  0
 17 18  1  0  0  0  0
 17 48  1  0  0  0  0
 17 49  1  0  0  0  0
 18 19  1  0  0  0  0
 18 50  1  0  0  0  0
 18 51  1  0  0  0  0
 19 20  1  0  0  0  0
 19 52  1  0  0  0  0
 19 53  1  0  0  0  0
 20 54  1  0  0  0  0
 20 55  1  0  0  0  0
 20 56  1  0  0  0  0
M  END
$$$$
/media/chris/experiments/cd1a-new-docking/inputs/ligands/4x6d_1_ligand.pdb
 OpenBabel07012320263D

 56 55  0  0  0  0  0  0  0  0999 V2000
  -42.4509   55.5945   60.8864 C   0  0  0  0  0  0  0  0  0  0  0  0
  -43.3672   54.7684   60.6421 O   0  0  0  0  0  0  0  0  0  0  0  0
  -42.4096   56.3122   62.2214 C   0  0  0  0  0  0  0  0  0  0  0  0
  -41.5686   55.8158   60.0170 O   0  0  0  0  0  0  0  0  0  0  0  0
  -42.5015   57.8182   61.9978 C   0  0  0  0  0  0  0  0  0  0  0  0
  -43.8027   58.1910   61.3050 C   0  0  0  0  0  0  0  0  0  0  0  0
  -45.0041   57.7845   62.1469 C   0  0  0  0  0  0  0  0  0  0  0  0
  -44.9702   58.5025   63.4927 C   0  0  0  0  0  0  0  0  0  0  0  0
  -46.1509   58.0994   64.3580 C   0  0  0  0  0  0  0  0  0  0  0  0
  -46.1420   58.8190   65.6970 C   0  0  0  0  0  0  0  0  0  0  0  0
  -47.3380   58.3370   66.4800 C   0  0  0  0  0  0  0  0  0  0  0  0
  -48.6910   58.5200   65.9370 C   0  0  0  0  0  0  0  0  0  0  0  0
  -49.0768   57.8833   64.6205 C   0  0  0  0  0  0  0  0  0  0  0  0
  -48.9503   56.3630   64.7112 C   0  0  0  0  0  0  0  0  0  0  0  0
  -49.3083   55.6511   63.4094 C   0  0  0  0  0  0  0  0  0  0  0  0
  -49.1860   54.1311   63.5462 C   0  0  0  0  0  0  0  0  0  0  0  0
  -49.5129   53.3402   62.2737 C   0  0  0  0  0  0  0  0  0  0  0  0
  -49.3875   51.8256   62.4851 C   0  0  0  0  0  0  0  0  0  0  0  0
  -49.6948   51.0253   61.2167 C   0  0  0  0  0  0  0  0  0  0  0  0
  -49.5910   49.5080   61.4139 C   0  0  0  0  0  0  0  0  0  0  0  0
  -41.4917   56.0821   62.7208 H   0  0  0  0  0  0  0  0  0  0  0  0
  -43.2352   55.9919   62.8219 H   0  0  0  0  0  0  0  0  0  0  0  0
  -40.8827   56.4298   60.1914 H   0  0  0  0  0  0  0  0  0  0  0  0
  -41.6793   58.1318   61.3891 H   0  0  0  0  0  0  0  0  0  0  0  0
  -42.4721   58.3053   62.9501 H   0  0  0  0  0  0  0  0  0  0  0  0
  -43.8520   57.6911   60.3602 H   0  0  0  0  0  0  0  0  0  0  0  0
  -43.8248   59.2521   61.1687 H   0  0  0  0  0  0  0  0  0  0  0  0
  -44.9805   56.7272   62.3094 H   0  0  0  0  0  0  0  0  0  0  0  0
  -45.9010   58.0542   61.6293 H   0  0  0  0  0  0  0  0  0  0  0  0
  -45.0038   59.5589   63.3261 H   0  0  0  0  0  0  0  0  0  0  0  0
  -44.0685   58.2299   64.0003 H   0  0  0  0  0  0  0  0  0  0  0  0
  -46.1087   57.0444   64.5316 H   0  0  0  0  0  0  0  0  0  0  0  0
  -47.0486   58.3689   63.8418 H   0  0  0  0  0  0  0  0  0  0  0  0
  -46.2076   59.8760   65.5439 H   0  0  0  0  0  0  0  0  0  0  0  0
  -45.2364   58.6137   66.2287 H   0  0  0  0  0  0  0  0  0  0  0  0
  -47.3129   58.8400   67.4241 H   0  0  0  0  0  0  0  0  0  0  0  0
  -47.2164   57.2740   66.4873 H   0  0  0  0  0  0  0  0  0  0  0  0
  -48.8369   59.5739   65.8234 H   0  0  0  0  0  0  0  0  0  0  0  0
  -49.3084   58.0076   66.6449 H   0  0  0  0  0  0  0  0  0  0  0  0
  -48.4296   58.2462   63.8495 H   0  0  0  0  0  0  0  0  0  0  0  0
  -50.0918   58.1359   64.3951 H   0  0  0  0  0  0  0  0  0  0  0  0
  -49.6051   56.0127   65.4816 H   0  0  0  0  0  0  0  0  0  0  0  0
  -47.9253   56.1413   64.9233 H   0  0  0  0  0  0  0  0  0  0  0  0
  -48.6463   55.9847   62.6378 H   0  0  0  0  0  0  0  0  0  0  0  0
  -50.3244   55.8847   63.1686 H   0  0  0  0  0  0  0  0  0  0  0  0
  -49.8555   53.8117   64.3173 H   0  0  0  0  0  0  0  0  0  0  0  0
  -48.1585   53.9313   63.7682 H   0  0  0  0  0  0  0  0  0  0  0  0
  -48.8365   53.6375   61.4998 H   0  0  0  0  0  0  0  0  0  0  0  0
  -50.5272   53.5520   62.0066 H   0  0  0  0  0  0  0  0  0  0  0  0
  -50.0726   51.5289   63.2515 H   0  0  0  0  0  0  0  0  0  0  0  0
  -48.3739   51.6202   62.7595 H   0  0  0  0  0  0  0  0  0  0  0  0
  -49.0014   51.3166   60.4556 H   0  0  0  0  0  0  0  0  0  0  0  0
  -50.7072   51.2400   60.9452 H   0  0  0  0  0  0  0  0  0  0  0  0
  -48.5889   49.2516   61.6875 H   0  0  0  0  0  0  0  0  0  0  0  0
  -49.8499   49.0114   60.5022 H   0  0  0  0  0  0  0  0  0  0  0  0
  -50.2618   49.2024   62.1894 H   0  0  0  0  0  0  0  0  0  0  0  0
  1  2  2  0  0  0  0
  1  3  1  0  0  0  0
  1  4  1  0  0  0  0
  3  5  1  0  0  0  0
  3 21  1  0  0  0  0
  3 22  1  0  0  0  0
  4 23  1  0  0  0  0
  5  6  1  0  0  0  0
  5 24  1  0  0  0  0
  5 25  1  0  0  0  0
  6  7  1  0  0  0  0
  6 26  1  0  0  0  0
  6 27  1  0  0  0  0
  7  8  1  0  0  0  0
  7 28  1  0  0  0  0
  7 29  1  0  0  0  0
  8  9  1  0  0  0  0
  8 30  1  0  0  0  0
  8 31  1  0  0  0  0
  9 10  1  0  0  0  0
  9 32  1  0  0  0  0
  9 33  1  0  0  0  0
 10 11  1  0  0  0  0
 10 34  1  0  0  0  0
 10 35  1  0  0  0  0
 11 12  1  0  0  0  0
 11 36  1  0  0  0  0
 11 37  1  0  0  0  0
 12 13  1  0  0  0  0
 12 38  1  0  0  0  0
 12 39  1  0  0  0  0
 13 14  1  0  0  0  0
 13 40  1  0  0  0  0
 13 41  1  0  0  0  0
 14 15  1  0  0  0  0
 14 42  1  0  0  0  0
 14 43  1  0  0  0  0
 15 16  1  0  0  0  0
 15 44  1  0  0  0  0
 15 45  1  0  0  0  0
 16 17  1  0  0  0  0
 16 46  1  0  0  0  0
 16 47  1  0  0  0  0
 17 18  1  0  0  0  0
 17 48  1  0  0  0  0
 17 49  1  0  0  0  0
 18 19  1  0  0  0  0
 18 50  1  0  0  0  0
 18 51  1  0  0  0  0
 19 20  1  0  0  0  0
 19 52  1  0  0  0  0
 19 53  1  0  0  0  0
 20 54  1  0  0  0  0
 20 55  1  0  0  0  0
 20 56  1  0  0  0  0
M  END
$$$$
/media/chris/experiments/cd1a-new-docking/inputs/ligands/4x6d_1_ligand.pdb
 OpenBabel07012320263D

 56 55  0  0  0  0  0  0  0  0999 V2000
  -41.8931   55.8763   61.1675 C   0  0  0  0  0  0  0  0  0  0  0  0
  -40.8843   56.0827   60.4454 O   0  0  0  0  0  0  0  0  0  0  0  0
  -42.0047   56.5398   62.5264 C   0  0  0  0  0  0  0  0  0  0  0  0
  -42.8084   55.1199   60.7513 O   0  0  0  0  0  0  0  0  0  0  0  0
  -43.3046   56.1136   63.2007 C   0  0  0  0  0  0  0  0  0  0  0  0
  -43.4587   56.7749   64.5613 C   0  0  0  0  0  0  0  0  0  0  0  0
  -43.4934   58.2911   64.4294 C   0  0  0  0  0  0  0  0  0  0  0  0
  -43.6307   58.9356   65.8055 C   0  0  0  0  0  0  0  0  0  0  0  0
  -44.8989   58.4750   66.5016 C   0  0  0  0  0  0  0  0  0  0  0  0
  -46.1420   58.8190   65.6970 C   0  0  0  0  0  0  0  0  0  0  0  0
  -47.3380   58.3370   66.4800 C   0  0  0  0  0  0  0  0  0  0  0  0
  -48.6910   58.5200   65.9370 C   0  0  0  0  0  0  0  0  0  0  0  0
  -49.8970   58.0544   66.7220 C   0  0  0  0  0  0  0  0  0  0  0  0
  -49.9684   58.7830   68.0634 C   0  0  0  0  0  0  0  0  0  0  0  0
  -50.0999   60.2968   67.9193 C   0  0  0  0  0  0  0  0  0  0  0  0
  -51.3756   60.6824   67.1656 C   0  0  0  0  0  0  0  0  0  0  0  0
  -52.6807   60.2341   67.8344 C   0  0  0  0  0  0  0  0  0  0  0  0
  -52.8559   60.8462   69.2305 C   0  0  0  0  0  0  0  0  0  0  0  0
  -54.1473   60.3926   69.9160 C   0  0  0  0  0  0  0  0  0  0  0  0
  -54.2223   58.8761   70.1313 C   0  0  0  0  0  0  0  0  0  0  0  0
  -41.9988   57.6029   62.4047 H   0  0  0  0  0  0  0  0  0  0  0  0
  -41.1759   56.2435   63.1348 H   0  0  0  0  0  0  0  0  0  0  0  0
  -43.5631   54.9611   61.2834 H   0  0  0  0  0  0  0  0  0  0  0  0
  -43.3006   55.0511   63.3272 H   0  0  0  0  0  0  0  0  0  0  0  0
  -44.1233   56.4160   62.5816 H   0  0  0  0  0  0  0  0  0  0  0  0
  -42.6324   56.4963   65.1815 H   0  0  0  0  0  0  0  0  0  0  0  0
  -44.3802   56.4491   64.9967 H   0  0  0  0  0  0  0  0  0  0  0  0
  -44.3272   58.5742   63.8215 H   0  0  0  0  0  0  0  0  0  0  0  0
  -42.5825   58.6236   63.9769 H   0  0  0  0  0  0  0  0  0  0  0  0
  -43.6612   59.9991   65.6916 H   0  0  0  0  0  0  0  0  0  0  0  0
  -42.7912   58.6449   66.4019 H   0  0  0  0  0  0  0  0  0  0  0  0
  -44.9621   58.9519   67.4573 H   0  0  0  0  0  0  0  0  0  0  0  0
  -44.8537   57.4109   66.6046 H   0  0  0  0  0  0  0  0  0  0  0  0
  -46.1077   58.3309   64.7454 H   0  0  0  0  0  0  0  0  0  0  0  0
  -46.2020   59.8741   65.5296 H   0  0  0  0  0  0  0  0  0  0  0  0
  -47.3129   58.8400   67.4241 H   0  0  0  0  0  0  0  0  0  0  0  0
  -47.2164   57.2740   66.4873 H   0  0  0  0  0  0  0  0  0  0  0  0
  -48.7179   58.0067   64.9986 H   0  0  0  0  0  0  0  0  0  0  0  0
  -48.8057   59.5838   65.9236 H   0  0  0  0  0  0  0  0  0  0  0  0
  -49.8205   57.0014   66.8956 H   0  0  0  0  0  0  0  0  0  0  0  0
  -50.7824   58.2692   66.1609 H   0  0  0  0  0  0  0  0  0  0  0  0
  -49.0759   58.5701   68.6139 H   0  0  0  0  0  0  0  0  0  0  0  0
  -50.8449   58.4344   68.5684 H   0  0  0  0  0  0  0  0  0  0  0  0
  -49.2530   60.6694   67.3818 H   0  0  0  0  0  0  0  0  0  0  0  0
  -50.1483   60.7234   68.8993 H   0  0  0  0  0  0  0  0  0  0  0  0
  -51.3326   60.2413   66.1917 H   0  0  0  0  0  0  0  0  0  0  0  0
  -51.4007   61.7519   67.1452 H   0  0  0  0  0  0  0  0  0  0  0  0
  -52.6735   59.1679   67.9240 H   0  0  0  0  0  0  0  0  0  0  0  0
  -53.4941   60.5679   67.2246 H   0  0  0  0  0  0  0  0  0  0  0  0
  -52.8739   61.9120   69.1372 H   0  0  0  0  0  0  0  0  0  0  0  0
  -52.0362   60.5159   69.8337 H   0  0  0  0  0  0  0  0  0  0  0  0
  -54.9764   60.6903   69.3087 H   0  0  0  0  0  0  0  0  0  0  0  0
  -54.1693   60.8503   70.8829 H   0  0  0  0  0  0  0  0  0  0  0  0
  -54.2029   58.3799   69.1835 H   0  0  0  0  0  0  0  0  0  0  0  0
  -55.1302   58.6329   70.6426 H   0  0  0  0  0  0  0  0  0  0  0  0
  -53.3862   58.5574   70.7180 H   0  0  0  0  0  0  0  0  0  0  0  0
  1  2  2  0  0  0  0
  1  3  1  0  0  0  0
  1  4  1  0  0  0  0
  3  5  1  0  0  0  0
  3 21  1  0  0  0  0
  3 22  1  0  0  0  0
  4 23  1  0  0  0  0
  5  6  1  0  0  0  0
  5 24  1  0  0  0  0
  5 25  1  0  0  0  0
  6  7  1  0  0  0  0
  6 26  1  0  0  0  0
  6 27  1  0  0  0  0
  7  8  1  0  0  0  0
  7 28  1  0  0  0  0
  7 29  1  0  0  0  0
  8  9  1  0  0  0  0
  8 30  1  0  0  0  0
  8 31  1  0  0  0  0
  9 10  1  0  0  0  0
  9 32  1  0  0  0  0
  9 33  1  0  0  0  0
 10 11  1  0  0  0  0
 10 34  1  0  0  0  0
 10 35  1  0  0  0  0
 11 12  1  0  0  0  0
 11 36  1  0  0  0  0
 11 37  1  0  0  0  0
 12 13  1  0  0  0  0
 12 38  1  0  0  0  0
 12 39  1  0  0  0  0
 13 14  1  0  0  0  0
 13 40  1  0  0  0  0
 13 41  1  0  0  0  0
 14 15  1  0  0  0  0
 14 42  1  0  0  0  0
 14 43  1  0  0  0  0
 15 16  1  0  0  0  0
 15 44  1  0  0  0  0
 15 45  1  0  0  0  0
 16 17  1  0  0  0  0
 16 46  1  0  0  0  0
 16 47  1  0  0  0  0
 17 18  1  0  0  0  0
 17 48  1  0  0  0  0
 17 49  1  0  0  0  0
 18 19  1  0  0  0  0
 18 50  1  0  0  0  0
 18 51  1  0  0  0  0
 19 20  1  0  0  0  0
 19 52  1  0  0  0  0
 19 53  1  0  0  0  0
 20 54  1  0  0  0  0
 20 55  1  0  0  0  0
 20 56  1  0  0  0  0
M  END
$$$$
/media/chris/experiments/cd1a-new-docking/inputs/ligands/4x6d_1_ligand.pdb
 OpenBabel07012320263D

 56 55  0  0  0  0  0  0  0  0999 V2000
  -46.5599   63.2369   70.9078 C   0  0  0  0  0  0  0  0  0  0  0  0
  -47.7291   63.6945   70.8364 O   0  0  0  0  0  0  0  0  0  0  0  0
  -46.3355   61.7572   71.1513 C   0  0  0  0  0  0  0  0  0  0  0  0
  -45.5808   64.0152   70.7712 O   0  0  0  0  0  0  0  0  0  0  0  0
  -46.2557   61.0235   69.8165 C   0  0  0  0  0  0  0  0  0  0  0  0
  -45.0998   61.5408   68.9749 C   0  0  0  0  0  0  0  0  0  0  0  0
  -45.0340   60.8182   67.6366 C   0  0  0  0  0  0  0  0  0  0  0  0
  -46.3218   61.0478   66.8512 C   0  0  0  0  0  0  0  0  0  0  0  0
  -46.2869   60.3217   65.5183 C   0  0  0  0  0  0  0  0  0  0  0  0
  -46.1420   58.8190   65.6970 C   0  0  0  0  0  0  0  0  0  0  0  0
  -47.3380   58.3370   66.4800 C   0  0  0  0  0  0  0  0  0  0  0  0
  -48.6910   58.5200   65.9370 C   0  0  0  0  0  0  0  0  0  0  0  0
  -49.0768   57.8833   64.6205 C   0  0  0  0  0  0  0  0  0  0  0  0
  -48.9503   56.3630   64.7112 C   0  0  0  0  0  0  0  0  0  0  0  0
  -49.3083   55.6511   63.4094 C   0  0  0  0  0  0  0  0  0  0  0  0
  -49.1860   54.1311   63.5462 C   0  0  0  0  0  0  0  0  0  0  0  0
  -49.5129   53.3402   62.2737 C   0  0  0  0  0  0  0  0  0  0  0  0
  -50.9437   53.5985   61.7831 C   0  0  0  0  0  0  0  0  0  0  0  0
  -51.2883   52.8011   60.5225 C   0  0  0  0  0  0  0  0  0  0  0  0
  -50.3666   53.1090   59.3362 C   0  0  0  0  0  0  0  0  0  0  0  0
  -47.1482   61.3639   71.7254 H   0  0  0  0  0  0  0  0  0  0  0  0
  -45.4189   61.6209   71.6862 H   0  0  0  0  0  0  0  0  0  0  0  0
  -44.7066   63.6820   70.8231 H   0  0  0  0  0  0  0  0  0  0  0  0
  -47.1706   61.1709   69.2816 H   0  0  0  0  0  0  0  0  0  0  0  0
  -46.0961   59.9833   70.0098 H   0  0  0  0  0  0  0  0  0  0  0  0
  -44.1832   61.3822   69.5037 H   0  0  0  0  0  0  0  0  0  0  0  0
  -45.2509   62.5842   68.7922 H   0  0  0  0  0  0  0  0  0  0  0  0
  -44.9058   59.7697   67.8068 H   0  0  0  0  0  0  0  0  0  0  0  0
  -44.2083   61.2000   67.0733 H   0  0  0  0  0  0  0  0  0  0  0  0
  -46.4412   62.0964   66.6748 H   0  0  0  0  0  0  0  0  0  0  0  0
  -47.1414   60.6668   67.4241 H   0  0  0  0  0  0  0  0  0  0  0  0
  -45.4571   60.6841   64.9482 H   0  0  0  0  0  0  0  0  0  0  0  0
  -47.2116   60.5087   65.0136 H   0  0  0  0  0  0  0  0  0  0  0  0
  -45.2422   58.6001   66.2331 H   0  0  0  0  0  0  0  0  0  0  0  0
  -46.0923   58.3300   64.7466 H   0  0  0  0  0  0  0  0  0  0  0  0
  -47.3129   58.8400   67.4241 H   0  0  0  0  0  0  0  0  0  0  0  0
  -47.2164   57.2740   66.4873 H   0  0  0  0  0  0  0  0  0  0  0  0
  -48.8369   59.5739   65.8234 H   0  0  0  0  0  0  0  0  0  0  0  0
  -49.3084   58.0076   66.6449 H   0  0  0  0  0  0  0  0  0  0  0  0
  -48.4296   58.2462   63.8495 H   0  0  0  0  0  0  0  0  0  0  0  0
  -50.0918   58.1359   64.3951 H   0  0  0  0  0  0  0  0  0  0  0  0
  -49.6051   56.0127   65.4816 H   0  0  0  0  0  0  0  0  0  0  0  0
  -47.9253   56.1413   64.9233 H   0  0  0  0  0  0  0  0  0  0  0  0
  -48.6463   55.9847   62.6378 H   0  0  0  0  0  0  0  0  0  0  0  0
  -50.3244   55.8847   63.1686 H   0  0  0  0  0  0  0  0  0  0  0  0
  -49.8555   53.8117   64.3173 H   0  0  0  0  0  0  0  0  0  0  0  0
  -48.1585   53.9313   63.7682 H   0  0  0  0  0  0  0  0  0  0  0  0
  -49.4021   52.2959   62.4789 H   0  0  0  0  0  0  0  0  0  0  0  0
  -48.8395   53.6596   61.5060 H   0  0  0  0  0  0  0  0  0  0  0  0
  -51.0489   54.6414   61.5680 H   0  0  0  0  0  0  0  0  0  0  0  0
  -51.6126   53.2849   62.5571 H   0  0  0  0  0  0  0  0  0  0  0  0
  -52.2940   53.0321   60.2394 H   0  0  0  0  0  0  0  0  0  0  0  0
  -51.1626   51.7654   60.7597 H   0  0  0  0  0  0  0  0  0  0  0  0
  -50.4636   54.1401   59.0673 H   0  0  0  0  0  0  0  0  0  0  0  0
  -50.6406   52.4959   58.5032 H   0  0  0  0  0  0  0  0  0  0  0  0
  -49.3524   52.9057   59.6103 H   0  0  0  0  0  0  0  0  0  0  0  0
  1  2  2  0  0  0  0
  1  3  1  0  0  0  0
  1  4  1  0  0  0  0
  3  5  1  0  0  0  0
  3 21  1  0  0  0  0
  3 22  1  0  0  0  0
  4 23  1  0  0  0  0
  5  6  1  0  0  0  0
  5 24  1  0  0  0  0
  5 25  1  0  0  0  0
  6  7  1  0  0  0  0
  6 26  1  0  0  0  0
  6 27  1  0  0  0  0
  7  8  1  0  0  0  0
  7 28  1  0  0  0  0
  7 29  1  0  0  0  0
  8  9  1  0  0  0  0
  8 30  1  0  0  0  0
  8 31  1  0  0  0  0
  9 10  1  0  0  0  0
  9 32  1  0  0  0  0
  9 33  1  0  0  0  0
 10 11  1  0  0  0  0
 10 34  1  0  0  0  0
 10 35  1  0  0  0  0
 11 12  1  0  0  0  0
 11 36  1  0  0  0  0
 11 37  1  0  0  0  0
 12 13  1  0  0  0  0
 12 38  1  0  0  0  0
 12 39  1  0  0  0  0
 13 14  1  0  0  0  0
 13 40  1  0  0  0  0
 13 41  1  0  0  0  0
 14 15  1  0  0  0  0
 14 42  1  0  0  0  0
 14 43  1  0  0  0  0
 15 16  1  0  0  0  0
 15 44  1  0  0  0  0
 15 45  1  0  0  0  0
 16 17  1  0  0  0  0
 16 46  1  0  0  0  0
 16 47  1  0  0  0  0
 17 18  1  0  0  0  0
 17 48  1  0  0  0  0
 17 49  1  0  0  0  0
 18 19  1  0  0  0  0
 18 50  1  0  0  0  0
 18 51  1  0  0  0  0
 19 20  1  0  0  0  0
 19 52  1  0  0  0  0
 19 53  1  0  0  0  0
 20 54  1  0  0  0  0
 20 55  1  0  0  0  0
 20 56  1  0  0  0  0
M  END
$$$$
/media/chris/experiments/cd1a-new-docking/inputs/ligands/4x6d_1_ligand.pdb
 OpenBabel07012320263D

 56 55  0  0  0  0  0  0  0  0999 V2000
  -43.2353   60.0474   61.3064 C   0  0  0  0  0  0  0  0  0  0  0  0
  -42.3723   60.7552   61.8859 O   0  0  0  0  0  0  0  0  0  0  0  0
  -43.2165   58.5399   61.4686 C   0  0  0  0  0  0  0  0  0  0  0  0
  -44.1147   60.6004   60.5965 O   0  0  0  0  0  0  0  0  0  0  0  0
  -42.0605   58.1356   62.3778 C   0  0  0  0  0  0  0  0  0  0  0  0
  -42.2074   58.7541   63.7591 C   0  0  0  0  0  0  0  0  0  0  0  0
  -43.4934   58.2911   64.4294 C   0  0  0  0  0  0  0  0  0  0  0  0
  -43.6307   58.9356   65.8055 C   0  0  0  0  0  0  0  0  0  0  0  0
  -44.8989   58.4750   66.5016 C   0  0  0  0  0  0  0  0  0  0  0  0
  -46.1420   58.8190   65.6970 C   0  0  0  0  0  0  0  0  0  0  0  0
  -47.3380   58.3370   66.4800 C   0  0  0  0  0  0  0  0  0  0  0  0
  -48.6910   58.5200   65.9370 C   0  0  0  0  0  0  0  0  0  0  0  0
  -49.2055   59.9072   65.6232 C   0  0  0  0  0  0  0  0  0  0  0  0
  -50.6357   59.8327   65.0901 C   0  0  0  0  0  0  0  0  0  0  0  0
  -51.2168   61.1986   64.7345 C   0  0  0  0  0  0  0  0  0  0  0  0
  -52.6547   61.0831   64.2213 C   0  0  0  0  0  0  0  0  0  0  0  0
  -53.6493   60.4780   65.2194 C   0  0  0  0  0  0  0  0  0  0  0  0
  -53.7621   61.3120   66.5024 C   0  0  0  0  0  0  0  0  0  0  0  0
  -54.2515   62.7383   66.2381 C   0  0  0  0  0  0  0  0  0  0  0  0
  -54.3539   63.5921   67.5078 C   0  0  0  0  0  0  0  0  0  0  0  0
  -43.0928   58.0805   60.5102 H   0  0  0  0  0  0  0  0  0  0  0  0
  -44.1394   58.2187   61.9044 H   0  0  0  0  0  0  0  0  0  0  0  0
  -44.7611   60.0799   60.1615 H   0  0  0  0  0  0  0  0  0  0  0  0
  -41.1411   58.4674   61.9424 H   0  0  0  0  0  0  0  0  0  0  0  0
  -42.0656   57.0706   62.4803 H   0  0  0  0  0  0  0  0  0  0  0  0
  -42.2256   59.8198   63.6653 H   0  0  0  0  0  0  0  0  0  0  0  0
  -41.3785   58.4453   64.3611 H   0  0  0  0  0  0  0  0  0  0  0  0
  -43.4722   57.2268   64.5379 H   0  0  0  0  0  0  0  0  0  0  0  0
  -44.3268   58.5795   63.8235 H   0  0  0  0  0  0  0  0  0  0  0  0
  -43.6612   59.9991   65.6916 H   0  0  0  0  0  0  0  0  0  0  0  0
  -42.7912   58.6449   66.4019 H   0  0  0  0  0  0  0  0  0  0  0  0
  -44.9621   58.9519   67.4573 H   0  0  0  0  0  0  0  0  0  0  0  0
  -44.8537   57.4109   66.6046 H   0  0  0  0  0  0  0  0  0  0  0  0
  -46.1077   58.3309   64.7454 H   0  0  0  0  0  0  0  0  0  0  0  0
  -46.2020   59.8741   65.5296 H   0  0  0  0  0  0  0  0  0  0  0  0
  -47.3129   58.8400   67.4241 H   0  0  0  0  0  0  0  0  0  0  0  0
  -47.2164   57.2740   66.4873 H   0  0  0  0  0  0  0  0  0  0  0  0
  -49.3680   58.0944   66.6480 H   0  0  0  0  0  0  0  0  0  0  0  0
  -48.6304   58.0595   64.9731 H   0  0  0  0  0  0  0  0  0  0  0  0
  -48.5763   60.3587   64.8849 H   0  0  0  0  0  0  0  0  0  0  0  0
  -49.1972   60.4930   66.5186 H   0  0  0  0  0  0  0  0  0  0  0  0
  -51.2548   59.3842   65.8387 H   0  0  0  0  0  0  0  0  0  0  0  0
  -50.6099   59.2542   64.1903 H   0  0  0  0  0  0  0  0  0  0  0  0
  -50.6116   61.6461   63.9740 H   0  0  0  0  0  0  0  0  0  0  0  0
  -51.2246   61.7997   65.6196 H   0  0  0  0  0  0  0  0  0  0  0  0
  -52.6468   60.4683   63.3456 H   0  0  0  0  0  0  0  0  0  0  0  0
  -52.9878   62.0825   64.0340 H   0  0  0  0  0  0  0  0  0  0  0  0
  -53.3227   59.4921   65.4767 H   0  0  0  0  0  0  0  0  0  0  0  0
  -54.6124   60.4597   64.7535 H   0  0  0  0  0  0  0  0  0  0  0  0
  -52.7984   61.3609   66.9648 H   0  0  0  0  0  0  0  0  0  0  0  0
  -54.4809   60.8355   67.1358 H   0  0  0  0  0  0  0  0  0  0  0  0
  -55.2196   62.6862   65.7854 H   0  0  0  0  0  0  0  0  0  0  0  0
  -53.5313   63.2062   65.6000 H   0  0  0  0  0  0  0  0  0  0  0  0
  -55.0676   63.1554   68.1747 H   0  0  0  0  0  0  0  0  0  0  0  0
  -54.6675   64.5816   67.2479 H   0  0  0  0  0  0  0  0  0  0  0  0
  -53.3980   63.6352   67.9867 H   0  0  0  0  0  0  0  0  0  0  0  0
  1  2  2  0  0  0  0
  1  3  1  0  0  0  0
  1  4  1  0  0  0  0
  3  5  1  0  0  0  0
  3 21  1  0  0  0  0
  3 22  1  0  0  0  0
  4 23  1  0  0  0  0
  5  6  1  0  0  0  0
  5 24  1  0  0  0  0
  5 25  1  0  0  0  0
  6  7  1  0  0  0  0
  6 26  1  0  0  0  0
  6 27  1  0  0  0  0
  7  8  1  0  0  0  0
  7 28  1  0  0  0  0
  7 29  1  0  0  0  0
  8  9  1  0  0  0  0
  8 30  1  0  0  0  0
  8 31  1  0  0  0  0
  9 10  1  0  0  0  0
  9 32  1  0  0  0  0
  9 33  1  0  0  0  0
 10 11  1  0  0  0  0
 10 34  1  0  0  0  0
 10 35  1  0  0  0  0
 11 12  1  0  0  0  0
 11 36  1  0  0  0  0
 11 37  1  0  0  0  0
 12 13  1  0  0  0  0
 12 38  1  0  0  0  0
 12 39  1  0  0  0  0
 13 14  1  0  0  0  0
 13 40  1  0  0  0  0
 13 41  1  0  0  0  0
 14 15  1  0  0  0  0
 14 42  1  0  0  0  0
 14 43  1  0  0  0  0
 15 16  1  0  0  0  0
 15 44  1  0  0  0  0
 15 45  1  0  0  0  0
 16 17  1  0  0  0  0
 16 46  1  0  0  0  0
 16 47  1  0  0  0  0
 17 18  1  0  0  0  0
 17 48  1  0  0  0  0
 17 49  1  0  0  0  0
 18 19  1  0  0  0  0
 18 50  1  0  0  0  0
 18 51  1  0  0  0  0
 19 20  1  0  0  0  0
 19 52  1  0  0  0  0
 19 53  1  0  0  0  0
 20 54  1  0  0  0  0
 20 55  1  0  0  0  0
 20 56  1  0  0  0  0
M  END
$$$$
/media/chris/experiments/cd1a-new-docking/inputs/ligands/4x6d_1_ligand.pdb
 OpenBabel07012320263D

 56 55  0  0  0  0  0  0  0  0999 V2000
  -41.3512   61.1071   70.0086 C   0  0  0  0  0  0  0  0  0  0  0  0
  -40.8926   61.9177   70.8537 O   0  0  0  0  0  0  0  0  0  0  0  0
  -42.5695   61.4754   69.1844 C   0  0  0  0  0  0  0  0  0  0  0  0
  -40.7887   59.9928   69.8503 O   0  0  0  0  0  0  0  0  0  0  0  0
  -42.4961   60.7888   67.8244 C   0  0  0  0  0  0  0  0  0  0  0  0
  -43.6958   61.1499   66.9627 C   0  0  0  0  0  0  0  0  0  0  0  0
  -43.6277   60.4492   65.6129 C   0  0  0  0  0  0  0  0  0  0  0  0
  -43.6307   58.9356   65.8055 C   0  0  0  0  0  0  0  0  0  0  0  0
  -44.8989   58.4750   66.5016 C   0  0  0  0  0  0  0  0  0  0  0  0
  -46.1420   58.8190   65.6970 C   0  0  0  0  0  0  0  0  0  0  0  0
  -47.3380   58.3370   66.4800 C   0  0  0  0  0  0  0  0  0  0  0  0
  -48.6910   58.5200   65.9370 C   0  0  0  0  0  0  0  0  0  0  0  0
  -49.0768   57.8833   64.6205 C   0  0  0  0  0  0  0  0  0  0  0  0
  -48.1632   58.3848   63.5027 C   0  0  0  0  0  0  0  0  0  0  0  0
  -48.5053   57.7959   62.1368 C   0  0  0  0  0  0  0  0  0  0  0  0
  -47.5580   58.3087   61.0487 C   0  0  0  0  0  0  0  0  0  0  0  0
  -47.8454   57.7764   59.6396 C   0  0  0  0  0  0  0  0  0  0  0  0
  -49.2460   58.1653   59.1482 C   0  0  0  0  0  0  0  0  0  0  0  0
  -49.4443   59.6812   59.0701 C   0  0  0  0  0  0  0  0  0  0  0  0
  -48.4745   60.3734   58.1046 C   0  0  0  0  0  0  0  0  0  0  0  0
  -42.5983   62.5360   69.0464 H   0  0  0  0  0  0  0  0  0  0  0  0
  -43.4534   61.1557   69.6958 H   0  0  0  0  0  0  0  0  0  0  0  0
  -41.1243   59.3835   69.2227 H   0  0  0  0  0  0  0  0  0  0  0  0
  -42.4762   59.7288   67.9688 H   0  0  0  0  0  0  0  0  0  0  0  0
  -41.6084   61.1175   67.3255 H   0  0  0  0  0  0  0  0  0  0  0  0
  -43.7091   62.2085   66.8072 H   0  0  0  0  0  0  0  0  0  0  0  0
  -44.5853   60.8341   67.4666 H   0  0  0  0  0  0  0  0  0  0  0  0
  -42.7298   60.7397   65.1085 H   0  0  0  0  0  0  0  0  0  0  0  0
  -44.4803   60.7292   65.0303 H   0  0  0  0  0  0  0  0  0  0  0  0
  -42.7853   58.6574   66.3995 H   0  0  0  0  0  0  0  0  0  0  0  0
  -43.5837   58.4708   64.8428 H   0  0  0  0  0  0  0  0  0  0  0  0
  -44.9621   58.9519   67.4573 H   0  0  0  0  0  0  0  0  0  0  0  0
  -44.8537   57.4109   66.6046 H   0  0  0  0  0  0  0  0  0  0  0  0
  -46.1077   58.3309   64.7454 H   0  0  0  0  0  0  0  0  0  0  0  0
  -46.2020   59.8741   65.5296 H   0  0  0  0  0  0  0  0  0  0  0  0
  -47.3129   58.8400   67.4241 H   0  0  0  0  0  0  0  0  0  0  0  0
  -47.2164   57.2740   66.4873 H   0  0  0  0  0  0  0  0  0  0  0  0
  -48.8369   59.5739   65.8234 H   0  0  0  0  0  0  0  0  0  0  0  0
  -49.3084   58.0076   66.6449 H   0  0  0  0  0  0  0  0  0  0  0  0
  -50.0902   58.1369   64.3890 H   0  0  0  0  0  0  0  0  0  0  0  0
  -48.9753   56.8214   64.7037 H   0  0  0  0  0  0  0  0  0  0  0  0
  -47.1546   58.1210   63.7438 H   0  0  0  0  0  0  0  0  0  0  0  0
  -48.2963   59.4443   63.4346 H   0  0  0  0  0  0  0  0  0  0  0  0
  -49.5077   58.0698   61.8817 H   0  0  0  0  0  0  0  0  0  0  0  0
  -48.4029   56.7324   62.1956 H   0  0  0  0  0  0  0  0  0  0  0  0
  -46.5613   58.0245   61.3146 H   0  0  0  0  0  0  0  0  0  0  0  0
  -47.6983   59.3685   61.0037 H   0  0  0  0  0  0  0  0  0  0  0  0
  -47.7684   56.7092   59.6520 H   0  0  0  0  0  0  0  0  0  0  0  0
  -47.1306   58.2104   58.9721 H   0  0  0  0  0  0  0  0  0  0  0  0
  -49.9706   57.7595   59.8230 H   0  0  0  0  0  0  0  0  0  0  0  0
  -49.3626   57.7725   58.1598 H   0  0  0  0  0  0  0  0  0  0  0  0
  -49.3013   60.0928   60.0474 H   0  0  0  0  0  0  0  0  0  0  0  0
  -50.4337   59.8517   58.7002 H   0  0  0  0  0  0  0  0  0  0  0  0
  -47.4697   60.2254   58.4413 H   0  0  0  0  0  0  0  0  0  0  0  0
  -48.6895   61.4211   58.0731 H   0  0  0  0  0  0  0  0  0  0  0  0
  -48.5877   59.9565   57.1256 H   0  0  0  0  0  0  0  0  0  0  0  0
  1  2  2  0  0  0  0
  1  3  1  0  0  0  0
  1  4  1  0  0  0  0
  3  5  1  0  0  0  0
  3 21  1  0  0  0  0
  3 22  1  0  0  0  0
  4 23  1  0  0  0  0
  5  6  1  0  0  0  0
  5 24  1  0  0  0  0
  5 25  1  0  0  0  0
  6  7  1  0  0  0  0
  6 26  1  0  0  0  0
  6 27  1  0  0  0  0
  7  8  1  0  0  0  0
  7 28  1  0  0  0  0
  7 29  1  0  0  0  0
  8  9  1  0  0  0  0
  8 30  1  0  0  0  0
  8 31  1  0  0  0  0
  9 10  1  0  0  0  0
  9 32  1  0  0  0  0
  9 33  1  0  0  0  0
 10 11  1  0  0  0  0
 10 34  1  0  0  0  0
 10 35  1  0  0  0  0
 11 12  1  0  0  0  0
 11 36  1  0  0  0  0
 11 37  1  0  0  0  0
 12 13  1  0  0  0  0
 12 38  1  0  0  0  0
 12 39  1  0  0  0  0
 13 14  1  0  0  0  0
 13 40  1  0  0  0  0
 13 41  1  0  0  0  0
 14 15  1  0  0  0  0
 14 42  1  0  0  0  0
 14 43  1  0  0  0  0
 15 16  1  0  0  0  0
 15 44  1  0  0  0  0
 15 45  1  0  0  0  0
 16 17  1  0  0  0  0
 16 46  1  0  0  0  0
 16 47  1  0  0  0  0
 17 18  1  0  0  0  0
 17 48  1  0  0  0  0
 17 49  1  0  0  0  0
 18 19  1  0  0  0  0
 18 50  1  0  0  0  0
 18 51  1  0  0  0  0
 19 20  1  0  0  0  0
 19 52  1  0  0  0  0
 19 53  1  0  0  0  0
 20 54  1  0  0  0  0
 20 55  1  0  0  0  0
 20 56  1  0  0  0  0
M  END
$$$$
/media/chris/experiments/cd1a-new-docking/inputs/ligands/4x6d_1_ligand.pdb
 OpenBabel07012320263D

 56 55  0  0  0  0  0  0  0  0999 V2000
  -42.7555   63.3829   68.7019 C   0  0  0  0  0  0  0  0  0  0  0  0
  -42.6021   63.9220   69.8277 O   0  0  0  0  0  0  0  0  0  0  0  0
  -44.0305   63.6147   67.9147 C   0  0  0  0  0  0  0  0  0  0  0  0
  -41.8419   62.6552   68.2341 O   0  0  0  0  0  0  0  0  0  0  0  0
  -43.9717   62.8400   66.6021 C   0  0  0  0  0  0  0  0  0  0  0  0
  -43.8404   61.3460   66.8529 C   0  0  0  0  0  0  0  0  0  0  0  0
  -45.0340   60.8182   67.6366 C   0  0  0  0  0  0  0  0  0  0  0  0
  -46.3218   61.0478   66.8512 C   0  0  0  0  0  0  0  0  0  0  0  0
  -46.2869   60.3217   65.5183 C   0  0  0  0  0  0  0  0  0  0  0  0
  -46.1420   58.8190   65.6970 C   0  0  0  0  0  0  0  0  0  0  0  0
  -47.3380   58.3370   66.4800 C   0  0  0  0  0  0  0  0  0  0  0  0
  -48.6910   58.5200   65.9370 C   0  0  0  0  0  0  0  0  0  0  0  0
  -49.8970   58.0544   66.7220 C   0  0  0  0  0  0  0  0  0  0  0  0
  -51.1790   58.3402   65.9408 C   0  0  0  0  0  0  0  0  0  0  0  0
  -52.4428   57.9111   66.6813 C   0  0  0  0  0  0  0  0  0  0  0  0
  -52.4335   56.4116   66.9900 C   0  0  0  0  0  0  0  0  0  0  0  0
  -53.6793   55.8953   67.7200 C   0  0  0  0  0  0  0  0  0  0  0  0
  -53.5970   54.3913   68.0131 C   0  0  0  0  0  0  0  0  0  0  0  0
  -54.8429   53.8600   68.7266 C   0  0  0  0  0  0  0  0  0  0  0  0
  -55.1125   54.5445   70.0722 C   0  0  0  0  0  0  0  0  0  0  0  0
  -44.1355   64.6591   67.7070 H   0  0  0  0  0  0  0  0  0  0  0  0
  -44.8680   63.2768   68.4886 H   0  0  0  0  0  0  0  0  0  0  0  0
  -41.9486   62.2500   67.3960 H   0  0  0  0  0  0  0  0  0  0  0  0
  -43.1274   63.1748   66.0365 H   0  0  0  0  0  0  0  0  0  0  0  0
  -44.8793   63.0155   66.0633 H   0  0  0  0  0  0  0  0  0  0  0  0
  -42.9462   61.1620   67.4109 H   0  0  0  0  0  0  0  0  0  0  0  0
  -43.8029   60.8436   65.9089 H   0  0  0  0  0  0  0  0  0  0  0  0
  -45.0957   61.3299   68.5743 H   0  0  0  0  0  0  0  0  0  0  0  0
  -44.9075   59.7686   67.8014 H   0  0  0  0  0  0  0  0  0  0  0  0
  -46.4412   62.0964   66.6748 H   0  0  0  0  0  0  0  0  0  0  0  0
  -47.1414   60.6668   67.4241 H   0  0  0  0  0  0  0  0  0  0  0  0
  -45.4571   60.6841   64.9482 H   0  0  0  0  0  0  0  0  0  0  0  0
  -47.2116   60.5087   65.0136 H   0  0  0  0  0  0  0  0  0  0  0  0
  -45.2422   58.6001   66.2331 H   0  0  0  0  0  0  0  0  0  0  0  0
  -46.0923   58.3300   64.7466 H   0  0  0  0  0  0  0  0  0  0  0  0
  -47.3129   58.8400   67.4241 H   0  0  0  0  0  0  0  0  0  0  0  0
  -47.2164   57.2740   66.4873 H   0  0  0  0  0  0  0  0  0  0  0  0
  -48.7179   58.0067   64.9986 H   0  0  0  0  0  0  0  0  0  0  0  0
  -48.8057   59.5838   65.9236 H   0  0  0  0  0  0  0  0  0  0  0  0
  -49.9308   58.5721   67.6578 H   0  0  0  0  0  0  0  0  0  0  0  0
  -49.8184   57.0005   66.8895 H   0  0  0  0  0  0  0  0  0  0  0  0
  -51.1348   57.8137   65.0103 H   0  0  0  0  0  0  0  0  0  0  0  0
  -51.2366   59.3994   65.8008 H   0  0  0  0  0  0  0  0  0  0  0  0
  -53.2944   58.1353   66.0735 H   0  0  0  0  0  0  0  0  0  0  0  0
  -52.4843   58.4435   67.6086 H   0  0  0  0  0  0  0  0  0  0  0  0
  -51.5800   56.2032   67.6009 H   0  0  0  0  0  0  0  0  0  0  0  0
  -52.4101   55.9106   66.0449 H   0  0  0  0  0  0  0  0  0  0  0  0
  -54.5382   56.0810   67.1096 H   0  0  0  0  0  0  0  0  0  0  0  0
  -53.7486   56.4093   68.6559 H   0  0  0  0  0  0  0  0  0  0  0  0
  -52.7438   54.2094   68.6327 H   0  0  0  0  0  0  0  0  0  0  0  0
  -53.5200   53.8827   67.0749 H   0  0  0  0  0  0  0  0  0  0  0  0
  -54.7139   52.8119   68.8991 H   0  0  0  0  0  0  0  0  0  0  0  0
  -55.6810   54.0657   68.0941 H   0  0  0  0  0  0  0  0  0  0  0  0
  -54.2934   54.3616   70.7358 H   0  0  0  0  0  0  0  0  0  0  0  0
  -56.0116   54.1512   70.4985 H   0  0  0  0  0  0  0  0  0  0  0  0
  -55.2206   55.5982   69.9210 H   0  0  0  0  0  0  0  0  0  0  0  0
  1  2  2  0  0  0  0
  1  3  1  0  0  0  0
  1  4  1  0  0  0  0
  3  5  1  0  0  0  0
  3 21  1  0  0  0  0
  3 22  1  0  0  0  0
  4 23  1  0  0  0  0
  5  6  1  0  0  0  0
  5 24  1  0  0  0  0
  5 25  1  0  0  0  0
  6  7  1  0  0  0  0
  6 26  1  0  0  0  0
  6 27  1  0  0  0  0
  7  8  1  0  0  0  0
  7 28  1  0  0  0  0
  7 29  1  0  0  0  0
  8  9  1  0  0  0  0
  8 30  1  0  0  0  0
  8 31  1  0  0  0  0
  9 10  1  0  0  0  0
  9 32  1  0  0  0  0
  9 33  1  0  0  0  0
 10 11  1  0  0  0  0
 10 34  1  0  0  0  0
 10 35  1  0  0  0  0
 11 12  1  0  0  0  0
 11 36  1  0  0  0  0
 11 37  1  0  0  0  0
 12 13  1  0  0  0  0
 12 38  1  0  0  0  0
 12 39  1  0  0  0  0
 13 14  1  0  0  0  0
 13 40  1  0  0  0  0
 13 41  1  0  0  0  0
 14 15  1  0  0  0  0
 14 42  1  0  0  0  0
 14 43  1  0  0  0  0
 15 16  1  0  0  0  0
 15 44  1  0  0  0  0
 15 45  1  0  0  0  0
 16 17  1  0  0  0  0
 16 46  1  0  0  0  0
 16 47  1  0  0  0  0
 17 18  1  0  0  0  0
 17 48  1  0  0  0  0
 17 49  1  0  0  0  0
 18 19  1  0  0  0  0
 18 50  1  0  0  0  0
 18 51  1  0  0  0  0
 19 20  1  0  0  0  0
 19 52  1  0  0  0  0
 19 53  1  0  0  0  0
 20 54  1  0  0  0  0
 20 55  1  0  0  0  0
 20 56  1  0  0  0  0
M  END
$$$$
/media/chris/experiments/cd1a-new-docking/inputs/ligands/4x6d_1_ligand.pdb
 OpenBabel07012320263D

 56 55  0  0  0  0  0  0  0  0999 V2000
  -44.7230   59.2707   70.8087 C   0  0  0  0  0  0  0  0  0  0  0  0
  -45.3867   59.9947   71.5942 O   0  0  0  0  0  0  0  0  0  0  0  0
  -43.5619   59.8580   70.0302 C   0  0  0  0  0  0  0  0  0  0  0  0
  -45.0276   58.0569   70.6786 O   0  0  0  0  0  0  0  0  0  0  0  0
  -43.8172   61.3384   69.7662 C   0  0  0  0  0  0  0  0  0  0  0  0
  -45.0998   61.5408   68.9749 C   0  0  0  0  0  0  0  0  0  0  0  0
  -45.0340   60.8182   67.6366 C   0  0  0  0  0  0  0  0  0  0  0  0
  -46.3218   61.0478   66.8512 C   0  0  0  0  0  0  0  0  0  0  0  0
  -46.2869   60.3217   65.5183 C   0  0  0  0  0  0  0  0  0  0  0  0
  -46.1420   58.8190   65.6970 C   0  0  0  0  0  0  0  0  0  0  0  0
  -47.3380   58.3370   66.4800 C   0  0  0  0  0  0  0  0  0  0  0  0
  -48.6910   58.5200   65.9370 C   0  0  0  0  0  0  0  0  0  0  0  0
  -49.0768   57.8833   64.6205 C   0  0  0  0  0  0  0  0  0  0  0  0
  -48.9503   56.3630   64.7112 C   0  0  0  0  0  0  0  0  0  0  0  0
  -49.8548   55.7468   65.7751 C   0  0  0  0  0  0  0  0  0  0  0  0
  -51.3327   56.0272   65.4896 C   0  0  0  0  0  0  0  0  0  0  0  0
  -51.8502   55.4682   64.1587 C   0  0  0  0  0  0  0  0  0  0  0  0
  -53.3306   55.7992   63.9282 C   0  0  0  0  0  0  0  0  0  0  0  0
  -53.5980   57.3058   63.8803 C   0  0  0  0  0  0  0  0  0  0  0  0
  -55.0759   57.6556   63.6677 C   0  0  0  0  0  0  0  0  0  0  0  0
  -43.4616   59.3425   69.0980 H   0  0  0  0  0  0  0  0  0  0  0  0
  -42.6624   59.7493   70.5992 H   0  0  0  0  0  0  0  0  0  0  0  0
  -44.5380   57.5109   70.0953 H   0  0  0  0  0  0  0  0  0  0  0  0
  -42.9964   61.7406   69.2100 H   0  0  0  0  0  0  0  0  0  0  0  0
  -43.9159   61.8390   70.7067 H   0  0  0  0  0  0  0  0  0  0  0  0
  -45.2425   62.5870   68.8012 H   0  0  0  0  0  0  0  0  0  0  0  0
  -45.9157   61.1402   69.5393 H   0  0  0  0  0  0  0  0  0  0  0  0
  -44.9058   59.7697   67.8068 H   0  0  0  0  0  0  0  0  0  0  0  0
  -44.2083   61.2000   67.0733 H   0  0  0  0  0  0  0  0  0  0  0  0
  -46.4412   62.0964   66.6748 H   0  0  0  0  0  0  0  0  0  0  0  0
  -47.1414   60.6668   67.4241 H   0  0  0  0  0  0  0  0  0  0  0  0
  -45.4571   60.6841   64.9482 H   0  0  0  0  0  0  0  0  0  0  0  0
  -47.2116   60.5087   65.0136 H   0  0  0  0  0  0  0  0  0  0  0  0
  -45.2422   58.6001   66.2331 H   0  0  0  0  0  0  0  0  0  0  0  0
  -46.0923   58.3300   64.7466 H   0  0  0  0  0  0  0  0  0  0  0  0
  -47.3129   58.8400   67.4241 H   0  0  0  0  0  0  0  0  0  0  0  0
  -47.2164   57.2740   66.4873 H   0  0  0  0  0  0  0  0  0  0  0  0
  -48.8369   59.5739   65.8234 H   0  0  0  0  0  0  0  0  0  0  0  0
  -49.3084   58.0076   66.6449 H   0  0  0  0  0  0  0  0  0  0  0  0
  -48.4296   58.2462   63.8495 H   0  0  0  0  0  0  0  0  0  0  0  0
  -50.0918   58.1359   64.3951 H   0  0  0  0  0  0  0  0  0  0  0  0
  -47.9351   56.1196   64.9455 H   0  0  0  0  0  0  0  0  0  0  0  0
  -49.2520   55.9619   63.7662 H   0  0  0  0  0  0  0  0  0  0  0  0
  -49.6008   56.1603   66.7287 H   0  0  0  0  0  0  0  0  0  0  0  0
  -49.7075   54.6870   65.7666 H   0  0  0  0  0  0  0  0  0  0  0  0
  -51.4745   57.0877   65.4824 H   0  0  0  0  0  0  0  0  0  0  0  0
  -51.8865   55.5312   66.2592 H   0  0  0  0  0  0  0  0  0  0  0  0
  -51.7311   54.4049   64.1619 H   0  0  0  0  0  0  0  0  0  0  0  0
  -51.2856   55.9206   63.3704 H   0  0  0  0  0  0  0  0  0  0  0  0
  -53.9045   55.3747   64.7253 H   0  0  0  0  0  0  0  0  0  0  0  0
  -53.6094   55.3909   62.9793 H   0  0  0  0  0  0  0  0  0  0  0  0
  -53.0310   57.7255   63.0758 H   0  0  0  0  0  0  0  0  0  0  0  0
  -53.3118   57.7078   64.8297 H   0  0  0  0  0  0  0  0  0  0  0  0
  -55.4018   57.2692   62.7246 H   0  0  0  0  0  0  0  0  0  0  0  0
  -55.1959   58.7188   63.6782 H   0  0  0  0  0  0  0  0  0  0  0  0
  -55.6613   57.2228   64.4519 H   0  0  0  0  0  0  0  0  0  0  0  0
  1  2  2  0  0  0  0
  1  3  1  0  0  0  0
  1  4  1  0  0  0  0
  3  5  1  0  0  0  0
  3 21  1  0  0  0  0
  3 22  1  0  0  0  0
  4 23  1  0  0  0  0
  5  6  1  0  0  0  0
  5 24  1  0  0  0  0
  5 25  1  0  0  0  0
  6  7  1  0  0  0  0
  6 26  1  0  0  0  0
  6 27  1  0  0  0  0
  7  8  1  0  0  0  0
  7 28  1  0  0  0  0
  7 29  1  0  0  0  0
  8  9  1  0  0  0  0
  8 30  1  0  0  0  0
  8 31  1  0  0  0  0
  9 10  1  0  0  0  0
  9 32  1  0  0  0  0
  9 33  1  0  0  0  0
 10 11  1  0  0  0  0
 10 34  1  0  0  0  0
 10 35  1  0  0  0  0
 11 12  1  0  0  0  0
 11 36  1  0  0  0  0
 11 37  1  0  0  0  0
 12 13  1  0  0  0  0
 12 38  1  0  0  0  0
 12 39  1  0  0  0  0
 13 14  1  0  0  0  0
 13 40  1  0  0  0  0
 13 41  1  0  0  0  0
 14 15  1  0  0  0  0
 14 42  1  0  0  0  0
 14 43  1  0  0  0  0
 15 16  1  0  0  0  0
 15 44  1  0  0  0  0
 15 45  1  0  0  0  0
 16 17  1  0  0  0  0
 16 46  1  0  0  0  0
 16 47  1  0  0  0  0
 17 18  1  0  0  0  0
 17 48  1  0  0  0  0
 17 49  1  0  0  0  0
 18 19  1  0  0  0  0
 18 50  1  0  0  0  0
 18 51  1  0  0  0  0
 19 20  1  0  0  0  0
 19 52  1  0  0  0  0
 19 53  1  0  0  0  0
 20 54  1  0  0  0  0
 20 55  1  0  0  0  0
 20 56  1  0  0  0  0
M  END
$$$$
/media/chris/experiments/cd1a-new-docking/inputs/ligands/4x6d_1_ligand.pdb
 OpenBabel07012320263D

 56 55  0  0  0  0  0  0  0  0999 V2000
  -43.8977   63.4828   70.8226 C   0  0  0  0  0  0  0  0  0  0  0  0
  -43.1722   64.4569   71.1489 O   0  0  0  0  0  0  0  0  0  0  0  0
  -45.2155   63.7203   70.1112 C   0  0  0  0  0  0  0  0  0  0  0  0
  -43.5189   62.3125   71.0871 O   0  0  0  0  0  0  0  0  0  0  0  0
  -45.1978   63.0275   68.7525 C   0  0  0  0  0  0  0  0  0  0  0  0
  -46.4998   63.2592   68.0020 C   0  0  0  0  0  0  0  0  0  0  0  0
  -46.4849   62.5519   66.6541 C   0  0  0  0  0  0  0  0  0  0  0  0
  -46.3218   61.0478   66.8512 C   0  0  0  0  0  0  0  0  0  0  0  0
  -46.2869   60.3217   65.5183 C   0  0  0  0  0  0  0  0  0  0  0  0
  -46.1420   58.8190   65.6970 C   0  0  0  0  0  0  0  0  0  0  0  0
  -47.3380   58.3370   66.4800 C   0  0  0  0  0  0  0  0  0  0  0  0
  -48.6910   58.5200   65.9370 C   0  0  0  0  0  0  0  0  0  0  0  0
  -49.8970   58.0544   66.7220 C   0  0  0  0  0  0  0  0  0  0  0  0
  -51.1790   58.3402   65.9408 C   0  0  0  0  0  0  0  0  0  0  0  0
  -52.4428   57.9111   66.6813 C   0  0  0  0  0  0  0  0  0  0  0  0
  -53.7024   58.1980   65.8596 C   0  0  0  0  0  0  0  0  0  0  0  0
  -55.0200   57.8108   66.5418 C   0  0  0  0  0  0  0  0  0  0  0  0
  -55.0784   56.3156   66.8818 C   0  0  0  0  0  0  0  0  0  0  0  0
  -53.9681   55.8853   67.8439 C   0  0  0  0  0  0  0  0  0  0  0  0
  -54.0005   54.3898   68.1816 C   0  0  0  0  0  0  0  0  0  0  0  0
  -45.3607   64.7713   69.9728 H   0  0  0  0  0  0  0  0  0  0  0  0
  -46.0141   63.3223   70.7018 H   0  0  0  0  0  0  0  0  0  0  0  0
  -44.0538   61.5815   70.8473 H   0  0  0  0  0  0  0  0  0  0  0  0
  -45.0608   61.9763   68.8982 H   0  0  0  0  0  0  0  0  0  0  0  0
  -44.3952   63.4350   68.1740 H   0  0  0  0  0  0  0  0  0  0  0  0
  -46.6310   64.3095   67.8448 H   0  0  0  0  0  0  0  0  0  0  0  0
  -47.3050   62.8644   68.5857 H   0  0  0  0  0  0  0  0  0  0  0  0
  -45.6691   62.9224   66.0693 H   0  0  0  0  0  0  0  0  0  0  0  0
  -47.4099   62.7402   66.1503 H   0  0  0  0  0  0  0  0  0  0  0  0
  -47.1446   60.6799   67.4280 H   0  0  0  0  0  0  0  0  0  0  0  0
  -45.3969   60.8702   67.3590 H   0  0  0  0  0  0  0  0  0  0  0  0
  -45.4571   60.6841   64.9482 H   0  0  0  0  0  0  0  0  0  0  0  0
  -47.2116   60.5087   65.0136 H   0  0  0  0  0  0  0  0  0  0  0  0
  -45.2422   58.6001   66.2331 H   0  0  0  0  0  0  0  0  0  0  0  0
  -46.0923   58.3300   64.7466 H   0  0  0  0  0  0  0  0  0  0  0  0
  -47.3129   58.8400   67.4241 H   0  0  0  0  0  0  0  0  0  0  0  0
  -47.2164   57.2740   66.4873 H   0  0  0  0  0  0  0  0  0  0  0  0
  -48.7179   58.0067   64.9986 H   0  0  0  0  0  0  0  0  0  0  0  0
  -48.8057   59.5838   65.9236 H   0  0  0  0  0  0  0  0  0  0  0  0
  -49.9308   58.5721   67.6578 H   0  0  0  0  0  0  0  0  0  0  0  0
  -49.8184   57.0005   66.8895 H   0  0  0  0  0  0  0  0  0  0  0  0
  -51.1348   57.8137   65.0103 H   0  0  0  0  0  0  0  0  0  0  0  0
  -51.2366   59.3994   65.8008 H   0  0  0  0  0  0  0  0  0  0  0  0
  -52.5020   58.4463   67.6060 H   0  0  0  0  0  0  0  0  0  0  0  0
  -52.3883   56.8564   66.8531 H   0  0  0  0  0  0  0  0  0  0  0  0
  -53.6312   57.6539   64.9411 H   0  0  0  0  0  0  0  0  0  0  0  0
  -53.7360   59.2586   65.7219 H   0  0  0  0  0  0  0  0  0  0  0  0
  -55.8308   58.0467   65.8847 H   0  0  0  0  0  0  0  0  0  0  0  0
  -55.0894   58.3592   67.4580 H   0  0  0  0  0  0  0  0  0  0  0  0
  -54.9829   55.7544   65.9758 H   0  0  0  0  0  0  0  0  0  0  0  0
  -56.0149   56.1301   67.3650 H   0  0  0  0  0  0  0  0  0  0  0  0
  -54.0726   56.4405   68.7526 H   0  0  0  0  0  0  0  0  0  0  0  0
  -53.0353   56.0789   67.3567 H   0  0  0  0  0  0  0  0  0  0  0  0
  -54.9219   54.1549   68.6723 H   0  0  0  0  0  0  0  0  0  0  0  0
  -53.1815   54.1522   68.8279 H   0  0  0  0  0  0  0  0  0  0  0  0
  -53.9208   53.8188   67.2802 H   0  0  0  0  0  0  0  0  0  0  0  0
  1  2  2  0  0  0  0
  1  3  1  0  0  0  0
  1  4  1  0  0  0  0
  3  5  1  0  0  0  0
  3 21  1  0  0  0  0
  3 22  1  0  0  0  0
  4 23  1  0  0  0  0
  5  6  1  0  0  0  0
  5 24  1  0  0  0  0
  5 25  1  0  0  0  0
  6  7  1  0  0  0  0
  6 26  1  0  0  0  0
  6 27  1  0  0  0  0
  7  8  1  0  0  0  0
  7 28  1  0  0  0  0
  7 29  1  0  0  0  0
  8  9  1  0  0  0  0
  8 30  1  0  0  0  0
  8 31  1  0  0  0  0
  9 10  1  0  0  0  0
  9 32  1  0  0  0  0
  9 33  1  0  0  0  0
 10 11  1  0  0  0  0
 10 34  1  0  0  0  0
 10 35  1  0  0  0  0
 11 12  1  0  0  0  0
 11 36  1  0  0  0  0
 11 37  1  0  0  0  0
 12 13  1  0  0  0  0
 12 38  1  0  0  0  0
 12 39  1  0  0  0  0
 13 14  1  0  0  0  0
 13 40  1  0  0  0  0
 13 41  1  0  0  0  0
 14 15  1  0  0  0  0
 14 42  1  0  0  0  0
 14 43  1  0  0  0  0
 15 16  1  0  0  0  0
 15 44  1  0  0  0  0
 15 45  1  0  0  0  0
 16 17  1  0  0  0  0
 16 46  1  0  0  0  0
 16 47  1  0  0  0  0
 17 18  1  0  0  0  0
 17 48  1  0  0  0  0
 17 49  1  0  0  0  0
 18 19  1  0  0  0  0
 18 50  1  0  0  0  0
 18 51  1  0  0  0  0
 19 20  1  0  0  0  0
 19 52  1  0  0  0  0
 19 53  1  0  0  0  0
 20 54  1  0  0  0  0
 20 55  1  0  0  0  0
 20 56  1  0  0  0  0
M  END
$$$$
/media/chris/experiments/cd1a-new-docking/inputs/ligands/4x6d_1_ligand.pdb
 OpenBabel07012320263D

 56 55  0  0  0  0  0  0  0  0999 V2000
  -41.9777   55.7126   61.2120 C   0  0  0  0  0  0  0  0  0  0  0  0
  -41.9222   54.4567   61.1783 O   0  0  0  0  0  0  0  0  0  0  0  0
  -42.0560   56.4353   62.5427 C   0  0  0  0  0  0  0  0  0  0  0  0
  -41.9631   56.3623   60.1346 O   0  0  0  0  0  0  0  0  0  0  0  0
  -43.3000   55.9828   63.3004 C   0  0  0  0  0  0  0  0  0  0  0  0
  -43.4205   56.7013   64.6351 C   0  0  0  0  0  0  0  0  0  0  0  0
  -44.6536   56.2343   65.3959 C   0  0  0  0  0  0  0  0  0  0  0  0
  -44.7660   56.9788   66.7229 C   0  0  0  0  0  0  0  0  0  0  0  0
  -44.8989   58.4750   66.5016 C   0  0  0  0  0  0  0  0  0  0  0  0
  -46.1420   58.8190   65.6970 C   0  0  0  0  0  0  0  0  0  0  0  0
  -47.3380   58.3370   66.4800 C   0  0  0  0  0  0  0  0  0  0  0  0
  -48.6910   58.5200   65.9370 C   0  0  0  0  0  0  0  0  0  0  0  0
  -49.8970   58.0544   66.7220 C   0  0  0  0  0  0  0  0  0  0  0  0
  -51.1790   58.3402   65.9408 C   0  0  0  0  0  0  0  0  0  0  0  0
  -51.3738   59.8209   65.6257 C   0  0  0  0  0  0  0  0  0  0  0  0
  -52.6757   60.0674   64.8587 C   0  0  0  0  0  0  0  0  0  0  0  0
  -53.9509   59.6501   65.6012 C   0  0  0  0  0  0  0  0  0  0  0  0
  -53.9536   58.1566   65.9531 C   0  0  0  0  0  0  0  0  0  0  0  0
  -55.2296   57.7237   66.6797 C   0  0  0  0  0  0  0  0  0  0  0  0
  -55.4655   58.4744   67.9960 C   0  0  0  0  0  0  0  0  0  0  0  0
  -42.1076   57.4904   62.3721 H   0  0  0  0  0  0  0  0  0  0  0  0
  -41.1856   56.2073   63.1218 H   0  0  0  0  0  0  0  0  0  0  0  0
  -42.0041   57.2983   60.1514 H   0  0  0  0  0  0  0  0  0  0  0  0
  -43.2385   54.9289   63.4753 H   0  0  0  0  0  0  0  0  0  0  0  0
  -44.1611   56.2167   62.7099 H   0  0  0  0  0  0  0  0  0  0  0  0
  -43.4949   57.7543   64.4603 H   0  0  0  0  0  0  0  0  0  0  0  0
  -42.5534   56.4793   65.2216 H   0  0  0  0  0  0  0  0  0  0  0  0
  -44.5758   55.1841   65.5851 H   0  0  0  0  0  0  0  0  0  0  0  0
  -45.5244   56.4354   64.8074 H   0  0  0  0  0  0  0  0  0  0  0  0
  -43.8890   56.7884   67.3056 H   0  0  0  0  0  0  0  0  0  0  0  0
  -45.6400   56.6322   67.2337 H   0  0  0  0  0  0  0  0  0  0  0  0
  -44.0367   58.8248   65.9732 H   0  0  0  0  0  0  0  0  0  0  0  0
  -44.9814   58.9465   67.4585 H   0  0  0  0  0  0  0  0  0  0  0  0
  -46.1077   58.3309   64.7454 H   0  0  0  0  0  0  0  0  0  0  0  0
  -46.2020   59.8741   65.5296 H   0  0  0  0  0  0  0  0  0  0  0  0
  -47.3129   58.8400   67.4241 H   0  0  0  0  0  0  0  0  0  0  0  0
  -47.2164   57.2740   66.4873 H   0  0  0  0  0  0  0  0  0  0  0  0
  -48.7179   58.0067   64.9986 H   0  0  0  0  0  0  0  0  0  0  0  0
  -48.8057   59.5838   65.9236 H   0  0  0  0  0  0  0  0  0  0  0  0
  -49.9308   58.5721   67.6578 H   0  0  0  0  0  0  0  0  0  0  0  0
  -49.8184   57.0005   66.8895 H   0  0  0  0  0  0  0  0  0  0  0  0
  -52.0128   58.0033   66.5206 H   0  0  0  0  0  0  0  0  0  0  0  0
  -51.1040   57.8236   65.0067 H   0  0  0  0  0  0  0  0  0  0  0  0
  -50.5512   60.1607   65.0318 H   0  0  0  0  0  0  0  0  0  0  0  0
  -51.4239   60.3561   66.5509 H   0  0  0  0  0  0  0  0  0  0  0  0
  -52.6303   59.5183   63.9415 H   0  0  0  0  0  0  0  0  0  0  0  0
  -52.7442   61.1256   64.7158 H   0  0  0  0  0  0  0  0  0  0  0  0
  -54.7960   59.8591   64.9790 H   0  0  0  0  0  0  0  0  0  0  0  0
  -53.9948   60.2035   66.5159 H   0  0  0  0  0  0  0  0  0  0  0  0
  -53.1140   57.9521   66.5842 H   0  0  0  0  0  0  0  0  0  0  0  0
  -53.9017   57.6081   65.0359 H   0  0  0  0  0  0  0  0  0  0  0  0
  -55.1598   56.6776   66.8936 H   0  0  0  0  0  0  0  0  0  0  0  0
  -56.0527   57.9506   66.0348 H   0  0  0  0  0  0  0  0  0  0  0  0
  -54.6602   58.2725   68.6709 H   0  0  0  0  0  0  0  0  0  0  0  0
  -56.3866   58.1486   68.4322 H   0  0  0  0  0  0  0  0  0  0  0  0
  -55.5142   59.5257   67.8032 H   0  0  0  0  0  0  0  0  0  0  0  0
  1  2  2  0  0  0  0
  1  3  1  0  0  0  0
  1  4  1  0  0  0  0
  3  5  1  0  0  0  0
  3 21  1  0  0  0  0
  3 22  1  0  0  0  0
  4 23  1  0  0  0  0
  5  6  1  0  0  0  0
  5 24  1  0  0  0  0
  5 25  1  0  0  0  0
  6  7  1  0  0  0  0
  6 26  1  0  0  0  0
  6 27  1  0  0  0  0
  7  8  1  0  0  0  0
  7 28  1  0  0  0  0
  7 29  1  0  0  0  0
  8  9  1  0  0  0  0
  8 30  1  0  0  0  0
  8 31  1  0  0  0  0
  9 10  1  0  0  0  0
  9 32  1  0  0  0  0
  9 33  1  0  0  0  0
 10 11  1  0  0  0  0
 10 34  1  0  0  0  0
 10 35  1  0  0  0  0
 11 12  1  0  0  0  0
 11 36  1  0  0  0  0
 11 37  1  0  0  0  0
 12 13  1  0  0  0  0
 12 38  1  0  0  0  0
 12 39  1  0  0  0  0
 13 14  1  0  0  0  0
 13 40  1  0  0  0  0
 13 41  1  0  0  0  0
 14 15  1  0  0  0  0
 14 42  1  0  0  0  0
 14 43  1  0  0  0  0
 15 16  1  0  0  0  0
 15 44  1  0  0  0  0
 15 45  1  0  0  0  0
 16 17  1  0  0  0  0
 16 46  1  0  0  0  0
 16 47  1  0  0  0  0
 17 18  1  0  0  0  0
 17 48  1  0  0  0  0
 17 49  1  0  0  0  0
 18 19  1  0  0  0  0
 18 50  1  0  0  0  0
 18 51  1  0  0  0  0
 19 20  1  0  0  0  0
 19 52  1  0  0  0  0
 19 53  1  0  0  0  0
 20 54  1  0  0  0  0
 20 55  1  0  0  0  0
 20 56  1  0  0  0  0
M  END
$$$$
/media/chris/experiments/cd1a-new-docking/inputs/ligands/4x6d_1_ligand.pdb
 OpenBabel07012320263D

 56 55  0  0  0  0  0  0  0  0999 V2000
  -41.5115   63.0639   66.6202 C   0  0  0  0  0  0  0  0  0  0  0  0
  -40.5384   63.8519   66.5030 O   0  0  0  0  0  0  0  0  0  0  0  0
  -41.2761   61.5670   66.6751 C   0  0  0  0  0  0  0  0  0  0  0  0
  -42.6786   63.5280   66.6958 O   0  0  0  0  0  0  0  0  0  0  0  0
  -41.3201   60.9882   65.2647 C   0  0  0  0  0  0  0  0  0  0  0  0
  -42.6629   61.2566   64.6037 C   0  0  0  0  0  0  0  0  0  0  0  0
  -43.7994   60.6440   65.4104 C   0  0  0  0  0  0  0  0  0  0  0  0
  -45.1351   60.9090   64.7223 C   0  0  0  0  0  0  0  0  0  0  0  0
  -46.2869   60.3217   65.5183 C   0  0  0  0  0  0  0  0  0  0  0  0
  -46.1420   58.8190   65.6970 C   0  0  0  0  0  0  0  0  0  0  0  0
  -47.3380   58.3370   66.4800 C   0  0  0  0  0  0  0  0  0  0  0  0
  -48.6910   58.5200   65.9370 C   0  0  0  0  0  0  0  0  0  0  0  0
  -49.8970   58.0544   66.7220 C   0  0  0  0  0  0  0  0  0  0  0  0
  -49.9684   58.7830   68.0634 C   0  0  0  0  0  0  0  0  0  0  0  0
  -50.0999   60.2968   67.9193 C   0  0  0  0  0  0  0  0  0  0  0  0
  -50.1507   60.9906   69.2832 C   0  0  0  0  0  0  0  0  0  0  0  0
  -50.2999   62.5157   69.2262 C   0  0  0  0  0  0  0  0  0  0  0  0
  -49.1465   63.1823   68.4648 C   0  0  0  0  0  0  0  0  0  0  0  0
  -49.2749   64.7070   68.4157 C   0  0  0  0  0  0  0  0  0  0  0  0
  -50.5665   65.1881   67.7435 C   0  0  0  0  0  0  0  0  0  0  0  0
  -42.0371   61.1089   67.2716 H   0  0  0  0  0  0  0  0  0  0  0  0
  -40.3164   61.3747   67.1076 H   0  0  0  0  0  0  0  0  0  0  0  0
  -43.4088   62.9475   66.7833 H   0  0  0  0  0  0  0  0  0  0  0  0
  -41.1609   59.9313   65.3157 H   0  0  0  0  0  0  0  0  0  0  0  0
  -40.5549   61.4564   64.6814 H   0  0  0  0  0  0  0  0  0  0  0  0
  -42.6613   60.8307   63.6221 H   0  0  0  0  0  0  0  0  0  0  0  0
  -42.8126   62.3148   64.5526 H   0  0  0  0  0  0  0  0  0  0  0  0
  -43.8130   61.0782   66.3883 H   0  0  0  0  0  0  0  0  0  0  0  0
  -43.6469   59.5874   65.4826 H   0  0  0  0  0  0  0  0  0  0  0  0
  -45.1208   60.4649   63.7489 H   0  0  0  0  0  0  0  0  0  0  0  0
  -45.2763   61.9673   64.6512 H   0  0  0  0  0  0  0  0  0  0  0  0
  -47.2024   60.5223   65.0020 H   0  0  0  0  0  0  0  0  0  0  0  0
  -46.2850   60.7734   66.4883 H   0  0  0  0  0  0  0  0  0  0  0  0
  -45.2422   58.6001   66.2331 H   0  0  0  0  0  0  0  0  0  0  0  0
  -46.0923   58.3300   64.7466 H   0  0  0  0  0  0  0  0  0  0  0  0
  -47.3129   58.8400   67.4241 H   0  0  0  0  0  0  0  0  0  0  0  0
  -47.2164   57.2740   66.4873 H   0  0  0  0  0  0  0  0  0  0  0  0
  -48.7179   58.0067   64.9986 H   0  0  0  0  0  0  0  0  0  0  0  0
  -48.8057   59.5838   65.9236 H   0  0  0  0  0  0  0  0  0  0  0  0
  -49.8205   57.0014   66.8956 H   0  0  0  0  0  0  0  0  0  0  0  0
  -50.7824   58.2692   66.1609 H   0  0  0  0  0  0  0  0  0  0  0  0
  -49.0759   58.5701   68.6139 H   0  0  0  0  0  0  0  0  0  0  0  0
  -50.8449   58.4344   68.5684 H   0  0  0  0  0  0  0  0  0  0  0  0
  -50.9995   60.5177   67.3836 H   0  0  0  0  0  0  0  0  0  0  0  0
  -49.2423   60.6586   67.3915 H   0  0  0  0  0  0  0  0  0  0  0  0
  -49.2445   60.7644   69.8051 H   0  0  0  0  0  0  0  0  0  0  0  0
  -51.0262   60.6214   69.7753 H   0  0  0  0  0  0  0  0  0  0  0  0
  -50.3195   62.8977   70.2255 H   0  0  0  0  0  0  0  0  0  0  0  0
  -51.2086   62.7380   68.7068 H   0  0  0  0  0  0  0  0  0  0  0  0
  -49.1357   62.8071   67.4627 H   0  0  0  0  0  0  0  0  0  0  0  0
  -48.2398   62.9505   68.9835 H   0  0  0  0  0  0  0  0  0  0  0  0
  -48.4421   65.1001   67.8708 H   0  0  0  0  0  0  0  0  0  0  0  0
  -49.2968   65.0548   69.4273 H   0  0  0  0  0  0  0  0  0  0  0  0
  -50.5827   64.8590   66.7255 H   0  0  0  0  0  0  0  0  0  0  0  0
  -50.6074   66.2569   67.7735 H   0  0  0  0  0  0  0  0  0  0  0  0
  -51.4105   64.7842   68.2625 H   0  0  0  0  0  0  0  0  0  0  0  0
  1  2  2  0  0  0  0
  1  3  1  0  0  0  0
  1  4  1  0  0  0  0
  3  5  1  0  0  0  0
  3 21  1  0  0  0  0
  3 22  1  0  0  0  0
  4 23  1  0  0  0  0
  5  6  1  0  0  0  0
  5 24  1  0  0  0  0
  5 25  1  0  0  0  0
  6  7  1  0  0  0  0
  6 26  1  0  0  0  0
  6 27  1  0  0  0  0
  7  8  1  0  0  0  0
  7 28  1  0  0  0  0
  7 29  1  0  0  0  0
  8  9  1  0  0  0  0
  8 30  1  0  0  0  0
  8 31  1  0  0  0  0
  9 10  1  0  0  0  0
  9 32  1  0  0  0  0
  9 33  1  0  0  0  0
 10 11  1  0  0  0  0
 10 34  1  0  0  0  0
 10 35  1  0  0  0  0
 11 12  1  0  0  0  0
 11 36  1  0  0  0  0
 11 37  1  0  0  0  0
 12 13  1  0  0  0  0
 12 38  1  0  0  0  0
 12 39  1  0  0  0  0
 13 14  1  0  0  0  0
 13 40  1  0  0  0  0
 13 41  1  0  0  0  0
 14 15  1  0  0  0  0
 14 42  1  0  0  0  0
 14 43  1  0  0  0  0
 15 16  1  0  0  0  0
 15 44  1  0  0  0  0
 15 45  1  0  0  0  0
 16 17  1  0  0  0  0
 16 46  1  0  0  0  0
 16 47  1  0  0  0  0
 17 18  1  0  0  0  0
 17 48  1  0  0  0  0
 17 49  1  0  0  0  0
 18 19  1  0  0  0  0
 18 50  1  0  0  0  0
 18 51  1  0  0  0  0
 19 20  1  0  0  0  0
 19 52  1  0  0  0  0
 19 53  1  0  0  0  0
 20 54  1  0  0  0  0
 20 55  1  0  0  0  0
 20 56  1  0  0  0  0
M  END
$$$$
/media/chris/experiments/cd1a-new-docking/inputs/ligands/4x6d_1_ligand.pdb
 OpenBabel07012320263D

 56 55  0  0  0  0  0  0  0  0999 V2000
  -41.0184   59.4272   68.6222 C   0  0  0  0  0  0  0  0  0  0  0  0
  -40.3294   60.4228   68.9622 O   0  0  0  0  0  0  0  0  0  0  0  0
  -42.3082   59.6227   67.8493 C   0  0  0  0  0  0  0  0  0  0  0  0
  -40.6264   58.2704   68.9243 O   0  0  0  0  0  0  0  0  0  0  0  0
  -42.5440   61.1108   67.6119 C   0  0  0  0  0  0  0  0  0  0  0  0
  -43.8404   61.3460   66.8529 C   0  0  0  0  0  0  0  0  0  0  0  0
  -45.0340   60.8182   67.6366 C   0  0  0  0  0  0  0  0  0  0  0  0
  -46.3218   61.0478   66.8512 C   0  0  0  0  0  0  0  0  0  0  0  0
  -46.2869   60.3217   65.5183 C   0  0  0  0  0  0  0  0  0  0  0  0
  -46.1420   58.8190   65.6970 C   0  0  0  0  0  0  0  0  0  0  0  0
  -47.3380   58.3370   66.4800 C   0  0  0  0  0  0  0  0  0  0  0  0
  -48.6910   58.5200   65.9370 C   0  0  0  0  0  0  0  0  0  0  0  0
  -49.8970   58.0544   66.7220 C   0  0  0  0  0  0  0  0  0  0  0  0
  -49.9684   58.7830   68.0634 C   0  0  0  0  0  0  0  0  0  0  0  0
  -50.0999   60.2968   67.9193 C   0  0  0  0  0  0  0  0  0  0  0  0
  -51.3756   60.6824   67.1656 C   0  0  0  0  0  0  0  0  0  0  0  0
  -52.6807   60.2341   67.8344 C   0  0  0  0  0  0  0  0  0  0  0  0
  -52.8559   60.8462   69.2305 C   0  0  0  0  0  0  0  0  0  0  0  0
  -52.9056   62.3761   69.2021 C   0  0  0  0  0  0  0  0  0  0  0  0
  -54.0688   62.9324   68.3720 C   0  0  0  0  0  0  0  0  0  0  0  0
  -43.1243   59.2183   68.4110 H   0  0  0  0  0  0  0  0  0  0  0  0
  -42.2368   59.1203   66.9073 H   0  0  0  0  0  0  0  0  0  0  0  0
  -41.1341   57.5235   68.6745 H   0  0  0  0  0  0  0  0  0  0  0  0
  -41.7292   61.5072   67.0429 H   0  0  0  0  0  0  0  0  0  0  0  0
  -42.6129   61.5994   68.5613 H   0  0  0  0  0  0  0  0  0  0  0  0
  -43.7904   60.8425   65.9101 H   0  0  0  0  0  0  0  0  0  0  0  0
  -43.9653   62.3989   66.7090 H   0  0  0  0  0  0  0  0  0  0  0  0
  -45.0957   61.3299   68.5743 H   0  0  0  0  0  0  0  0  0  0  0  0
  -44.9075   59.7686   67.8014 H   0  0  0  0  0  0  0  0  0  0  0  0
  -46.4412   62.0964   66.6748 H   0  0  0  0  0  0  0  0  0  0  0  0
  -47.1414   60.6668   67.4241 H   0  0  0  0  0  0  0  0  0  0  0  0
  -45.4571   60.6841   64.9482 H   0  0  0  0  0  0  0  0  0  0  0  0
  -47.2116   60.5087   65.0136 H   0  0  0  0  0  0  0  0  0  0  0  0
  -45.2422   58.6001   66.2331 H   0  0  0  0  0  0  0  0  0  0  0  0
  -46.0923   58.3300   64.7466 H   0  0  0  0  0  0  0  0  0  0  0  0
  -47.3129   58.8400   67.4241 H   0  0  0  0  0  0  0  0  0  0  0  0
  -47.2164   57.2740   66.4873 H   0  0  0  0  0  0  0  0  0  0  0  0
  -48.7179   58.0067   64.9986 H   0  0  0  0  0  0  0  0  0  0  0  0
  -48.8057   59.5838   65.9236 H   0  0  0  0  0  0  0  0  0  0  0  0
  -49.8205   57.0014   66.8956 H   0  0  0  0  0  0  0  0  0  0  0  0
  -50.7824   58.2692   66.1609 H   0  0  0  0  0  0  0  0  0  0  0  0
  -49.0759   58.5701   68.6139 H   0  0  0  0  0  0  0  0  0  0  0  0
  -50.8449   58.4344   68.5684 H   0  0  0  0  0  0  0  0  0  0  0  0
  -49.2530   60.6694   67.3818 H   0  0  0  0  0  0  0  0  0  0  0  0
  -50.1483   60.7234   68.8993 H   0  0  0  0  0  0  0  0  0  0  0  0
  -51.3326   60.2413   66.1917 H   0  0  0  0  0  0  0  0  0  0  0  0
  -51.4007   61.7519   67.1452 H   0  0  0  0  0  0  0  0  0  0  0  0
  -52.6735   59.1679   67.9240 H   0  0  0  0  0  0  0  0  0  0  0  0
  -53.4941   60.5679   67.2246 H   0  0  0  0  0  0  0  0  0  0  0  0
  -52.0336   60.5417   69.8436 H   0  0  0  0  0  0  0  0  0  0  0  0
  -53.7899   60.4995   69.6208 H   0  0  0  0  0  0  0  0  0  0  0  0
  -51.9885   62.7375   68.7860 H   0  0  0  0  0  0  0  0  0  0  0  0
  -53.0504   62.7061   70.2096 H   0  0  0  0  0  0  0  0  0  0  0  0
  -53.9600   62.6230   67.3535 H   0  0  0  0  0  0  0  0  0  0  0  0
  -54.0639   64.0012   68.4225 H   0  0  0  0  0  0  0  0  0  0  0  0
  -54.9940   62.5611   68.7606 H   0  0  0  0  0  0  0  0  0  0  0  0
  1  2  2  0  0  0  0
  1  3  1  0  0  0  0
  1  4  1  0  0  0  0
  3  5  1  0  0  0  0
  3 21  1  0  0  0  0
  3 22  1  0  0  0  0
  4 23  1  0  0  0  0
  5  6  1  0  0  0  0
  5 24  1  0  0  0  0
  5 25  1  0  0  0  0
  6  7  1  0  0  0  0
  6 26  1  0  0  0  0
  6 27  1  0  0  0  0
  7  8  1  0  0  0  0
  7 28  1  0  0  0  0
  7 29  1  0  0  0  0
  8  9  1  0  0  0  0
  8 30  1  0  0  0  0
  8 31  1  0  0  0  0
  9 10  1  0  0  0  0
  9 32  1  0  0  0  0
  9 33  1  0  0  0  0
 10 11  1  0  0  0  0
 10 34  1  0  0  0  0
 10 35  1  0  0  0  0
 11 12  1  0  0  0  0
 11 36  1  0  0  0  0
 11 37  1  0  0  0  0
 12 13  1  0  0  0  0
 12 38  1  0  0  0  0
 12 39  1  0  0  0  0
 13 14  1  0  0  0  0
 13 40  1  0  0  0  0
 13 41  1  0  0  0  0
 14 15  1  0  0  0  0
 14 42  1  0  0  0  0
 14 43  1  0  0  0  0
 15 16  1  0  0  0  0
 15 44  1  0  0  0  0
 15 45  1  0  0  0  0
 16 17  1  0  0  0  0
 16 46  1  0  0  0  0
 16 47  1  0  0  0  0
 17 18  1  0  0  0  0
 17 48  1  0  0  0  0
 17 49  1  0  0  0  0
 18 19  1  0  0  0  0
 18 50  1  0  0  0  0
 18 51  1  0  0  0  0
 19 20  1  0  0  0  0
 19 52  1  0  0  0  0
 19 53  1  0  0  0  0
 20 54  1  0  0  0  0
 20 55  1  0  0  0  0
 20 56  1  0  0  0  0
M  END
$$$$
/media/chris/experiments/cd1a-new-docking/inputs/ligands/4x6d_1_ligand.pdb
 OpenBabel07012320263D

 56 55  0  0  0  0  0  0  0  0999 V2000
  -42.7262   62.6730   64.4565 C   0  0  0  0  0  0  0  0  0  0  0  0
  -41.8108   62.9532   63.6410 O   0  0  0  0  0  0  0  0  0  0  0  0
  -42.7859   63.3695   65.8021 C   0  0  0  0  0  0  0  0  0  0  0  0
  -43.5922   61.8151   64.1447 O   0  0  0  0  0  0  0  0  0  0  0  0
  -43.9717   62.8400   66.6021 C   0  0  0  0  0  0  0  0  0  0  0  0
  -43.8404   61.3460   66.8529 C   0  0  0  0  0  0  0  0  0  0  0  0
  -45.0340   60.8182   67.6366 C   0  0  0  0  0  0  0  0  0  0  0  0
  -46.3218   61.0478   66.8512 C   0  0  0  0  0  0  0  0  0  0  0  0
  -46.2869   60.3217   65.5183 C   0  0  0  0  0  0  0  0  0  0  0  0
  -46.1420   58.8190   65.6970 C   0  0  0  0  0  0  0  0  0  0  0  0
  -47.3380   58.3370   66.4800 C   0  0  0  0  0  0  0  0  0  0  0  0
  -48.6910   58.5200   65.9370 C   0  0  0  0  0  0  0  0  0  0  0  0
  -49.2055   59.9072   65.6232 C   0  0  0  0  0  0  0  0  0  0  0  0
  -50.6357   59.8327   65.0901 C   0  0  0  0  0  0  0  0  0  0  0  0
  -50.7617   58.9932   63.8216 C   0  0  0  0  0  0  0  0  0  0  0  0
  -49.8921   59.5478   62.6900 C   0  0  0  0  0  0  0  0  0  0  0  0
  -49.9749   58.7690   61.3716 C   0  0  0  0  0  0  0  0  0  0  0  0
  -49.0677   59.3669   60.2881 C   0  0  0  0  0  0  0  0  0  0  0  0
  -49.1544   58.6083   58.9612 C   0  0  0  0  0  0  0  0  0  0  0  0
  -48.2409   59.1818   57.8710 C   0  0  0  0  0  0  0  0  0  0  0  0
  -42.8995   64.4229   65.6526 H   0  0  0  0  0  0  0  0  0  0  0  0
  -41.8812   63.1787   66.3406 H   0  0  0  0  0  0  0  0  0  0  0  0
  -44.2774   61.6008   64.7469 H   0  0  0  0  0  0  0  0  0  0  0  0
  -44.8726   63.0247   66.0552 H   0  0  0  0  0  0  0  0  0  0  0  0
  -43.9952   63.3421   67.5468 H   0  0  0  0  0  0  0  0  0  0  0  0
  -42.9462   61.1620   67.4109 H   0  0  0  0  0  0  0  0  0  0  0  0
  -43.8029   60.8436   65.9089 H   0  0  0  0  0  0  0  0  0  0  0  0
  -45.0957   61.3299   68.5743 H   0  0  0  0  0  0  0  0  0  0  0  0
  -44.9075   59.7686   67.8014 H   0  0  0  0  0  0  0  0  0  0  0  0
  -46.4412   62.0964   66.6748 H   0  0  0  0  0  0  0  0  0  0  0  0
  -47.1414   60.6668   67.4241 H   0  0  0  0  0  0  0  0  0  0  0  0
  -45.4571   60.6841   64.9482 H   0  0  0  0  0  0  0  0  0  0  0  0
  -47.2116   60.5087   65.0136 H   0  0  0  0  0  0  0  0  0  0  0  0
  -45.2422   58.6001   66.2331 H   0  0  0  0  0  0  0  0  0  0  0  0
  -46.0923   58.3300   64.7466 H   0  0  0  0  0  0  0  0  0  0  0  0
  -47.3129   58.8400   67.4241 H   0  0  0  0  0  0  0  0  0  0  0  0
  -47.2164   57.2740   66.4873 H   0  0  0  0  0  0  0  0  0  0  0  0
  -49.3680   58.0944   66.6480 H   0  0  0  0  0  0  0  0  0  0  0  0
  -48.6304   58.0595   64.9731 H   0  0  0  0  0  0  0  0  0  0  0  0
  -48.5763   60.3587   64.8849 H   0  0  0  0  0  0  0  0  0  0  0  0
  -49.1972   60.4930   66.5186 H   0  0  0  0  0  0  0  0  0  0  0  0
  -50.9707   60.8260   64.8752 H   0  0  0  0  0  0  0  0  0  0  0  0
  -51.2318   59.3617   65.8436 H   0  0  0  0  0  0  0  0  0  0  0  0
  -51.7839   58.9927   63.5056 H   0  0  0  0  0  0  0  0  0  0  0  0
  -50.4297   58.0004   64.0430 H   0  0  0  0  0  0  0  0  0  0  0  0
  -48.8737   59.5385   63.0183 H   0  0  0  0  0  0  0  0  0  0  0  0
  -50.2609   60.5304   62.4820 H   0  0  0  0  0  0  0  0  0  0  0  0
  -50.9864   58.7877   61.0232 H   0  0  0  0  0  0  0  0  0  0  0  0
  -49.6465   57.7682   61.5598 H   0  0  0  0  0  0  0  0  0  0  0  0
  -48.0556   59.3371   60.6341 H   0  0  0  0  0  0  0  0  0  0  0  0
  -49.3951   60.3698   60.1093 H   0  0  0  0  0  0  0  0  0  0  0  0
  -50.1652   58.6489   58.6127 H   0  0  0  0  0  0  0  0  0  0  0  0
  -48.8312   57.6057   59.1489 H   0  0  0  0  0  0  0  0  0  0  0  0
  -48.5330   60.1880   57.6539 H   0  0  0  0  0  0  0  0  0  0  0  0
  -48.3254   58.5869   56.9857 H   0  0  0  0  0  0  0  0  0  0  0  0
  -47.2271   59.1705   58.2129 H   0  0  0  0  0  0  0  0  0  0  0  0
  1  2  2  0  0  0  0
  1  3  1  0  0  0  0
  1  4  1  0  0  0  0
  3  5  1  0  0  0  0
  3 21  1  0  0  0  0
  3 22  1  0  0  0  0
  4 23  1  0  0  0  0
  5  6  1  0  0  0  0
  5 24  1  0  0  0  0
  5 25  1  0  0  0  0
  6  7  1  0  0  0  0
  6 26  1  0  0  0  0
  6 27  1  0  0  0  0
  7  8  1  0  0  0  0
  7 28  1  0  0  0  0
  7 29  1  0  0  0  0
  8  9  1  0  0  0  0
  8 30  1  0  0  0  0
  8 31  1  0  0  0  0
  9 10  1  0  0  0  0
  9 32  1  0  0  0  0
  9 33  1  0  0  0  0
 10 11  1  0  0  0  0
 10 34  1  0  0  0  0
 10 35  1  0  0  0  0
 11 12  1  0  0  0  0
 11 36  1  0  0  0  0
 11 37  1  0  0  0  0
 12 13  1  0  0  0  0
 12 38  1  0  0  0  0
 12 39  1  0  0  0  0
 13 14  1  0  0  0  0
 13 40  1  0  0  0  0
 13 41  1  0  0  0  0
 14 15  1  0  0  0  0
 14 42  1  0  0  0  0
 14 43  1  0  0  0  0
 15 16  1  0  0  0  0
 15 44  1  0  0  0  0
 15 45  1  0  0  0  0
 16 17  1  0  0  0  0
 16 46  1  0  0  0  0
 16 47  1  0  0  0  0
 17 18  1  0  0  0  0
 17 48  1  0  0  0  0
 17 49  1  0  0  0  0
 18 19  1  0  0  0  0
 18 50  1  0  0  0  0
 18 51  1  0  0  0  0
 19 20  1  0  0  0  0
 19 52  1  0  0  0  0
 19 53  1  0  0  0  0
 20 54  1  0  0  0  0
 20 55  1  0  0  0  0
 20 56  1  0  0  0  0
M  END
$$$$
/media/chris/experiments/cd1a-new-docking/inputs/ligands/4x6d_1_ligand.pdb
 OpenBabel07012320263D

 56 55  0  0  0  0  0  0  0  0999 V2000
  -42.9414   64.8623   65.5863 C   0  0  0  0  0  0  0  0  0  0  0  0
  -43.9441   65.4654   66.0471 O   0  0  0  0  0  0  0  0  0  0  0  0
  -42.7859   63.3695   65.8021 C   0  0  0  0  0  0  0  0  0  0  0  0
  -42.0732   65.5062   64.9423 O   0  0  0  0  0  0  0  0  0  0  0  0
  -43.9717   62.8400   66.6021 C   0  0  0  0  0  0  0  0  0  0  0  0
  -43.8404   61.3460   66.8529 C   0  0  0  0  0  0  0  0  0  0  0  0
  -45.0340   60.8182   67.6366 C   0  0  0  0  0  0  0  0  0  0  0  0
  -46.3218   61.0478   66.8512 C   0  0  0  0  0  0  0  0  0  0  0  0
  -46.2869   60.3217   65.5183 C   0  0  0  0  0  0  0  0  0  0  0  0
  -46.1420   58.8190   65.6970 C   0  0  0  0  0  0  0  0  0  0  0  0
  -47.3380   58.3370   66.4800 C   0  0  0  0  0  0  0  0  0  0  0  0
  -48.6910   58.5200   65.9370 C   0  0  0  0  0  0  0  0  0  0  0  0
  -49.8970   58.0544   66.7220 C   0  0  0  0  0  0  0  0  0  0  0  0
  -49.9684   58.7830   68.0634 C   0  0  0  0  0  0  0  0  0  0  0  0
  -48.7344   58.5620   68.9341 C   0  0  0  0  0  0  0  0  0  0  0  0
  -48.8519   59.2931   70.2742 C   0  0  0  0  0  0  0  0  0  0  0  0
  -47.6423   59.1355   71.2035 C   0  0  0  0  0  0  0  0  0  0  0  0
  -47.8331   59.8774   72.5331 C   0  0  0  0  0  0  0  0  0  0  0  0
  -48.0563   61.3801   72.3437 C   0  0  0  0  0  0  0  0  0  0  0  0
  -48.2319   62.1408   73.6636 C   0  0  0  0  0  0  0  0  0  0  0  0
  -41.8807   63.1802   66.3402 H   0  0  0  0  0  0  0  0  0  0  0  0
  -42.7496   62.8760   64.8534 H   0  0  0  0  0  0  0  0  0  0  0  0
  -41.3233   65.0641   64.5958 H   0  0  0  0  0  0  0  0  0  0  0  0
  -44.8726   63.0247   66.0552 H   0  0  0  0  0  0  0  0  0  0  0  0
  -43.9952   63.3421   67.5468 H   0  0  0  0  0  0  0  0  0  0  0  0
  -42.9462   61.1620   67.4109 H   0  0  0  0  0  0  0  0  0  0  0  0
  -43.8029   60.8436   65.9089 H   0  0  0  0  0  0  0  0  0  0  0  0
  -45.0957   61.3299   68.5743 H   0  0  0  0  0  0  0  0  0  0  0  0
  -44.9075   59.7686   67.8014 H   0  0  0  0  0  0  0  0  0  0  0  0
  -46.4412   62.0964   66.6748 H   0  0  0  0  0  0  0  0  0  0  0  0
  -47.1414   60.6668   67.4241 H   0  0  0  0  0  0  0  0  0  0  0  0
  -45.4571   60.6841   64.9482 H   0  0  0  0  0  0  0  0  0  0  0  0
  -47.2116   60.5087   65.0136 H   0  0  0  0  0  0  0  0  0  0  0  0
  -45.2422   58.6001   66.2331 H   0  0  0  0  0  0  0  0  0  0  0  0
  -46.0923   58.3300   64.7466 H   0  0  0  0  0  0  0  0  0  0  0  0
  -47.3129   58.8400   67.4241 H   0  0  0  0  0  0  0  0  0  0  0  0
  -47.2164   57.2740   66.4873 H   0  0  0  0  0  0  0  0  0  0  0  0
  -48.7179   58.0067   64.9986 H   0  0  0  0  0  0  0  0  0  0  0  0
  -48.8057   59.5838   65.9236 H   0  0  0  0  0  0  0  0  0  0  0  0
  -49.8205   57.0014   66.8956 H   0  0  0  0  0  0  0  0  0  0  0  0
  -50.7824   58.2692   66.1609 H   0  0  0  0  0  0  0  0  0  0  0  0
  -50.8275   58.4319   68.5958 H   0  0  0  0  0  0  0  0  0  0  0  0
  -50.0259   59.8307   67.8535 H   0  0  0  0  0  0  0  0  0  0  0  0
  -47.8729   58.9261   68.4144 H   0  0  0  0  0  0  0  0  0  0  0  0
  -48.6472   57.5139   69.1312 H   0  0  0  0  0  0  0  0  0  0  0  0
  -49.7140   58.9164   70.7839 H   0  0  0  0  0  0  0  0  0  0  0  0
  -48.9188   60.3356   70.0427 H   0  0  0  0  0  0  0  0  0  0  0  0
  -46.7764   59.5268   70.7116 H   0  0  0  0  0  0  0  0  0  0  0  0
  -47.5288   58.0941   71.4216 H   0  0  0  0  0  0  0  0  0  0  0  0
  -46.9592   59.7341   73.1336 H   0  0  0  0  0  0  0  0  0  0  0  0
  -48.7066   59.4775   73.0042 H   0  0  0  0  0  0  0  0  0  0  0  0
  -48.9366   61.5202   71.7517 H   0  0  0  0  0  0  0  0  0  0  0  0
  -47.1819   61.7717   71.8673 H   0  0  0  0  0  0  0  0  0  0  0  0
  -49.0998   61.7767   74.1724 H   0  0  0  0  0  0  0  0  0  0  0  0
  -48.3492   63.1848   73.4606 H   0  0  0  0  0  0  0  0  0  0  0  0
  -47.3691   61.9918   74.2786 H   0  0  0  0  0  0  0  0  0  0  0  0
  1  2  2  0  0  0  0
  1  3  1  0  0  0  0
  1  4  1  0  0  0  0
  3  5  1  0  0  0  0
  3 21  1  0  0  0  0
  3 22  1  0  0  0  0
  4 23  1  0  0  0  0
  5  6  1  0  0  0  0
  5 24  1  0  0  0  0
  5 25  1  0  0  0  0
  6  7  1  0  0  0  0
  6 26  1  0  0  0  0
  6 27  1  0  0  0  0
  7  8  1  0  0  0  0
  7 28  1  0  0  0  0
  7 29  1  0  0  0  0
  8  9  1  0  0  0  0
  8 30  1  0  0  0  0
  8 31  1  0  0  0  0
  9 10  1  0  0  0  0
  9 32  1  0  0  0  0
  9 33  1  0  0  0  0
 10 11  1  0  0  0  0
 10 34  1  0  0  0  0
 10 35  1  0  0  0  0
 11 12  1  0  0  0  0
 11 36  1  0  0  0  0
 11 37  1  0  0  0  0
 12 13  1  0  0  0  0
 12 38  1  0  0  0  0
 12 39  1  0  0  0  0
 13 14  1  0  0  0  0
 13 40  1  0  0  0  0
 13 41  1  0  0  0  0
 14 15  1  0  0  0  0
 14 42  1  0  0  0  0
 14 43  1  0  0  0  0
 15 16  1  0  0  0  0
 15 44  1  0  0  0  0
 15 45  1  0  0  0  0
 16 17  1  0  0  0  0
 16 46  1  0  0  0  0
 16 47  1  0  0  0  0
 17 18  1  0  0  0  0
 17 48  1  0  0  0  0
 17 49  1  0  0  0  0
 18 19  1  0  0  0  0
 18 50  1  0  0  0  0
 18 51  1  0  0  0  0
 19 20  1  0  0  0  0
 19 52  1  0  0  0  0
 19 53  1  0  0  0  0
 20 54  1  0  0  0  0
 20 55  1  0  0  0  0
 20 56  1  0  0  0  0
M  END
$$$$
/media/chris/experiments/cd1a-new-docking/inputs/ligands/4x6d_1_ligand.pdb
 OpenBabel07012320263D

 56 55  0  0  0  0  0  0  0  0999 V2000
  -39.6667   56.5247   65.4770 C   0  0  0  0  0  0  0  0  0  0  0  0
  -39.6921   57.2376   64.4413 O   0  0  0  0  0  0  0  0  0  0  0  0
  -39.7667   57.1684   66.8463 C   0  0  0  0  0  0  0  0  0  0  0  0
  -39.5624   55.2757   65.3668 O   0  0  0  0  0  0  0  0  0  0  0  0
  -39.8892   58.6812   66.6948 C   0  0  0  0  0  0  0  0  0  0  0  0
  -41.1364   59.0542   65.9090 C   0  0  0  0  0  0  0  0  0  0  0  0
  -42.3927   58.5673   66.6176 C   0  0  0  0  0  0  0  0  0  0  0  0
  -43.6307   58.9356   65.8055 C   0  0  0  0  0  0  0  0  0  0  0  0
  -44.8989   58.4750   66.5016 C   0  0  0  0  0  0  0  0  0  0  0  0
  -46.1420   58.8190   65.6970 C   0  0  0  0  0  0  0  0  0  0  0  0
  -47.3380   58.3370   66.4800 C   0  0  0  0  0  0  0  0  0  0  0  0
  -48.6910   58.5200   65.9370 C   0  0  0  0  0  0  0  0  0  0  0  0
  -49.2055   59.9072   65.6232 C   0  0  0  0  0  0  0  0  0  0  0  0
  -48.3233   60.5721   64.5673 C   0  0  0  0  0  0  0  0  0  0  0  0
  -48.7733   61.9865   64.2115 C   0  0  0  0  0  0  0  0  0  0  0  0
  -47.8759   62.6107   63.1396 C   0  0  0  0  0  0  0  0  0  0  0  0
  -46.3951   62.7218   63.5224 C   0  0  0  0  0  0  0  0  0  0  0  0
  -45.5573   63.3704   62.4125 C   0  0  0  0  0  0  0  0  0  0  0  0
  -44.0735   63.4714   62.7757 C   0  0  0  0  0  0  0  0  0  0  0  0
  -43.2231   64.1331   61.6845 C   0  0  0  0  0  0  0  0  0  0  0  0
  -38.8890   56.9374   67.4130 H   0  0  0  0  0  0  0  0  0  0  0  0
  -40.6307   56.7917   67.3528 H   0  0  0  0  0  0  0  0  0  0  0  0
  -39.5428   54.7377   66.1337 H   0  0  0  0  0  0  0  0  0  0  0  0
  -39.0277   59.0515   66.1794 H   0  0  0  0  0  0  0  0  0  0  0  0
  -39.9598   59.1154   67.6702 H   0  0  0  0  0  0  0  0  0  0  0  0
  -41.0858   58.6060   64.9387 H   0  0  0  0  0  0  0  0  0  0  0  0
  -41.1821   60.1201   65.8273 H   0  0  0  0  0  0  0  0  0  0  0  0
  -42.4540   59.0248   67.5829 H   0  0  0  0  0  0  0  0  0  0  0  0
  -42.3459   57.5033   66.7204 H   0  0  0  0  0  0  0  0  0  0  0  0
  -43.5700   58.4684   64.8448 H   0  0  0  0  0  0  0  0  0  0  0  0
  -43.6662   60.0003   65.7046 H   0  0  0  0  0  0  0  0  0  0  0  0
  -44.9621   58.9519   67.4573 H   0  0  0  0  0  0  0  0  0  0  0  0
  -44.8537   57.4109   66.6046 H   0  0  0  0  0  0  0  0  0  0  0  0
  -46.1077   58.3309   64.7454 H   0  0  0  0  0  0  0  0  0  0  0  0
  -46.2020   59.8741   65.5296 H   0  0  0  0  0  0  0  0  0  0  0  0
  -47.3129   58.8400   67.4241 H   0  0  0  0  0  0  0  0  0  0  0  0
  -47.2164   57.2740   66.4873 H   0  0  0  0  0  0  0  0  0  0  0  0
  -49.3680   58.0944   66.6480 H   0  0  0  0  0  0  0  0  0  0  0  0
  -48.6304   58.0595   64.9731 H   0  0  0  0  0  0  0  0  0  0  0  0
  -49.1949   60.4980   66.5153 H   0  0  0  0  0  0  0  0  0  0  0  0
  -50.2040   59.8318   65.2462 H   0  0  0  0  0  0  0  0  0  0  0  0
  -48.3461   59.9747   63.6799 H   0  0  0  0  0  0  0  0  0  0  0  0
  -47.3375   60.6457   64.9770 H   0  0  0  0  0  0  0  0  0  0  0  0
  -48.7372   62.5941   65.0916 H   0  0  0  0  0  0  0  0  0  0  0  0
  -49.7695   61.9334   63.8246 H   0  0  0  0  0  0  0  0  0  0  0  0
  -48.2405   63.5951   62.9327 H   0  0  0  0  0  0  0  0  0  0  0  0
  -47.9191   61.9568   62.2938 H   0  0  0  0  0  0  0  0  0  0  0  0
  -46.0139   61.7404   63.7132 H   0  0  0  0  0  0  0  0  0  0  0  0
  -46.3259   63.3419   64.3916 H   0  0  0  0  0  0  0  0  0  0  0  0
  -45.9332   64.3556   62.2311 H   0  0  0  0  0  0  0  0  0  0  0  0
  -45.6362   62.7509   61.5437 H   0  0  0  0  0  0  0  0  0  0  0  0
  -43.6981   62.4841   62.9462 H   0  0  0  0  0  0  0  0  0  0  0  0
  -44.0030   64.0871   63.6479 H   0  0  0  0  0  0  0  0  0  0  0  0
  -43.2677   63.5450   60.7918 H   0  0  0  0  0  0  0  0  0  0  0  0
  -42.2081   64.2018   62.0160 H   0  0  0  0  0  0  0  0  0  0  0  0
  -43.6002   65.1143   61.4844 H   0  0  0  0  0  0  0  0  0  0  0  0
  1  2  2  0  0  0  0
  1  3  1  0  0  0  0
  1  4  1  0  0  0  0
  3  5  1  0  0  0  0
  3 21  1  0  0  0  0
  3 22  1  0  0  0  0
  4 23  1  0  0  0  0
  5  6  1  0  0  0  0
  5 24  1  0  0  0  0
  5 25  1  0  0  0  0
  6  7  1  0  0  0  0
  6 26  1  0  0  0  0
  6 27  1  0  0  0  0
  7  8  1  0  0  0  0
  7 28  1  0  0  0  0
  7 29  1  0  0  0  0
  8  9  1  0  0  0  0
  8 30  1  0  0  0  0
  8 31  1  0  0  0  0
  9 10  1  0  0  0  0
  9 32  1  0  0  0  0
  9 33  1  0  0  0  0
 10 11  1  0  0  0  0
 10 34  1  0  0  0  0
 10 35  1  0  0  0  0
 11 12  1  0  0  0  0
 11 36  1  0  0  0  0
 11 37  1  0  0  0  0
 12 13  1  0  0  0  0
 12 38  1  0  0  0  0
 12 39  1  0  0  0  0
 13 14  1  0  0  0  0
 13 40  1  0  0  0  0
 13 41  1  0  0  0  0
 14 15  1  0  0  0  0
 14 42  1  0  0  0  0
 14 43  1  0  0  0  0
 15 16  1  0  0  0  0
 15 44  1  0  0  0  0
 15 45  1  0  0  0  0
 16 17  1  0  0  0  0
 16 46  1  0  0  0  0
 16 47  1  0  0  0  0
 17 18  1  0  0  0  0
 17 48  1  0  0  0  0
 17 49  1  0  0  0  0
 18 19  1  0  0  0  0
 18 50  1  0  0  0  0
 18 51  1  0  0  0  0
 19 20  1  0  0  0  0
 19 52  1  0  0  0  0
 19 53  1  0  0  0  0
 20 54  1  0  0  0  0
 20 55  1  0  0  0  0
 20 56  1  0  0  0  0
M  END
$$$$
/media/chris/experiments/cd1a-new-docking/inputs/ligands/4x6d_1_ligand.pdb
 OpenBabel07012320263D

 56 55  0  0  0  0  0  0  0  0999 V2000
  -40.9165   56.7863   67.4701 C   0  0  0  0  0  0  0  0  0  0  0  0
  -40.8008   55.5380   67.3703 O   0  0  0  0  0  0  0  0  0  0  0  0
  -40.9984   57.4359   68.8378 C   0  0  0  0  0  0  0  0  0  0  0  0
  -40.9589   57.4897   66.4277 O   0  0  0  0  0  0  0  0  0  0  0  0
  -41.1515   58.9453   68.6811 C   0  0  0  0  0  0  0  0  0  0  0  0
  -42.4220   59.2913   67.9208 C   0  0  0  0  0  0  0  0  0  0  0  0
  -43.6536   58.7859   68.6593 C   0  0  0  0  0  0  0  0  0  0  0  0
  -44.9155   59.1273   67.8725 C   0  0  0  0  0  0  0  0  0  0  0  0
  -44.8989   58.4750   66.5016 C   0  0  0  0  0  0  0  0  0  0  0  0
  -46.1420   58.8190   65.6970 C   0  0  0  0  0  0  0  0  0  0  0  0
  -47.3380   58.3370   66.4800 C   0  0  0  0  0  0  0  0  0  0  0  0
  -48.6910   58.5200   65.9370 C   0  0  0  0  0  0  0  0  0  0  0  0
  -49.8970   58.0544   66.7220 C   0  0  0  0  0  0  0  0  0  0  0  0
  -51.1790   58.3402   65.9408 C   0  0  0  0  0  0  0  0  0  0  0  0
  -51.3738   59.8209   65.6257 C   0  0  0  0  0  0  0  0  0  0  0  0
  -51.4310   60.6657   66.9013 C   0  0  0  0  0  0  0  0  0  0  0  0
  -51.6425   62.1671   66.6720 C   0  0  0  0  0  0  0  0  0  0  0  0
  -52.9652   62.4623   65.9526 C   0  0  0  0  0  0  0  0  0  0  0  0
  -54.1863   61.9848   66.7429 C   0  0  0  0  0  0  0  0  0  0  0  0
  -54.3206   62.6510   68.1176 C   0  0  0  0  0  0  0  0  0  0  0  0
  -40.1045   57.2240   69.3864 H   0  0  0  0  0  0  0  0  0  0  0  0
  -41.8441   57.0465   69.3652 H   0  0  0  0  0  0  0  0  0  0  0  0
  -41.0450   58.4204   66.4938 H   0  0  0  0  0  0  0  0  0  0  0  0
  -40.3083   59.3281   68.1449 H   0  0  0  0  0  0  0  0  0  0  0  0
  -41.2087   59.3838   69.6554 H   0  0  0  0  0  0  0  0  0  0  0  0
  -42.3845   58.8386   66.9520 H   0  0  0  0  0  0  0  0  0  0  0  0
  -42.4888   60.3557   67.8344 H   0  0  0  0  0  0  0  0  0  0  0  0
  -43.7021   59.2477   69.6233 H   0  0  0  0  0  0  0  0  0  0  0  0
  -43.5853   57.7235   68.7667 H   0  0  0  0  0  0  0  0  0  0  0  0
  -44.9764   60.1889   67.7535 H   0  0  0  0  0  0  0  0  0  0  0  0
  -45.7625   58.7599   68.4132 H   0  0  0  0  0  0  0  0  0  0  0  0
  -44.8486   57.4132   66.6239 H   0  0  0  0  0  0  0  0  0  0  0  0
  -44.0464   58.8419   65.9692 H   0  0  0  0  0  0  0  0  0  0  0  0
  -46.1077   58.3309   64.7454 H   0  0  0  0  0  0  0  0  0  0  0  0
  -46.2020   59.8741   65.5296 H   0  0  0  0  0  0  0  0  0  0  0  0
  -47.3129   58.8400   67.4241 H   0  0  0  0  0  0  0  0  0  0  0  0
  -47.2164   57.2740   66.4873 H   0  0  0  0  0  0  0  0  0  0  0  0
  -48.7179   58.0067   64.9986 H   0  0  0  0  0  0  0  0  0  0  0  0
  -48.8057   59.5838   65.9236 H   0  0  0  0  0  0  0  0  0  0  0  0
  -49.9308   58.5721   67.6578 H   0  0  0  0  0  0  0  0  0  0  0  0
  -49.8184   57.0005   66.8895 H   0  0  0  0  0  0  0  0  0  0  0  0
  -52.0128   58.0033   66.5206 H   0  0  0  0  0  0  0  0  0  0  0  0
  -51.1040   57.8236   65.0067 H   0  0  0  0  0  0  0  0  0  0  0  0
  -52.2898   59.9437   65.0866 H   0  0  0  0  0  0  0  0  0  0  0  0
  -50.5398   60.1515   65.0425 H   0  0  0  0  0  0  0  0  0  0  0  0
  -50.5083   60.5365   67.4274 H   0  0  0  0  0  0  0  0  0  0  0  0
  -52.2830   60.3229   67.4505 H   0  0  0  0  0  0  0  0  0  0  0  0
  -50.8356   62.5420   66.0776 H   0  0  0  0  0  0  0  0  0  0  0  0
  -51.6751   62.6445   67.6291 H   0  0  0  0  0  0  0  0  0  0  0  0
  -52.9567   61.9679   65.0037 H   0  0  0  0  0  0  0  0  0  0  0  0
  -53.0448   63.5239   65.8445 H   0  0  0  0  0  0  0  0  0  0  0  0
  -54.1061   60.9273   66.8849 H   0  0  0  0  0  0  0  0  0  0  0  0
  -55.0536   62.2522   66.1762 H   0  0  0  0  0  0  0  0  0  0  0  0
  -53.4687   62.4067   68.7171 H   0  0  0  0  0  0  0  0  0  0  0  0
  -55.2087   62.2987   68.5994 H   0  0  0  0  0  0  0  0  0  0  0  0
  -54.3783   63.7125   67.9954 H   0  0  0  0  0  0  0  0  0  0  0  0
  1  2  2  0  0  0  0
  1  3  1  0  0  0  0
  1  4  1  0  0  0  0
  3  5  1  0  0  0  0
  3 21  1  0  0  0  0
  3 22  1  0  0  0  0
  4 23  1  0  0  0  0
  5  6  1  0  0  0  0
  5 24  1  0  0  0  0
  5 25  1  0  0  0  0
  6  7  1  0  0  0  0
  6 26  1  0  0  0  0
  6 27  1  0  0  0  0
  7  8  1  0  0  0  0
  7 28  1  0  0  0  0
  7 29  1  0  0  0  0
  8  9  1  0  0  0  0
  8 30  1  0  0  0  0
  8 31  1  0  0  0  0
  9 10  1  0  0  0  0
  9 32  1  0  0  0  0
  9 33  1  0  0  0  0
 10 11  1  0  0  0  0
 10 34  1  0  0  0  0
 10 35  1  0  0  0  0
 11 12  1  0  0  0  0
 11 36  1  0  0  0  0
 11 37  1  0  0  0  0
 12 13  1  0  0  0  0
 12 38  1  0  0  0  0
 12 39  1  0  0  0  0
 13 14  1  0  0  0  0
 13 40  1  0  0  0  0
 13 41  1  0  0  0  0
 14 15  1  0  0  0  0
 14 42  1  0  0  0  0
 14 43  1  0  0  0  0
 15 16  1  0  0  0  0
 15 44  1  0  0  0  0
 15 45  1  0  0  0  0
 16 17  1  0  0  0  0
 16 46  1  0  0  0  0
 16 47  1  0  0  0  0
 17 18  1  0  0  0  0
 17 48  1  0  0  0  0
 17 49  1  0  0  0  0
 18 19  1  0  0  0  0
 18 50  1  0  0  0  0
 18 51  1  0  0  0  0
 19 20  1  0  0  0  0
 19 52  1  0  0  0  0
 19 53  1  0  0  0  0
 20 54  1  0  0  0  0
 20 55  1  0  0  0  0
 20 56  1  0  0  0  0
M  END
$$$$
/media/chris/experiments/cd1a-new-docking/inputs/ligands/4x6d_1_ligand.pdb
 OpenBabel07012320263D

 56 55  0  0  0  0  0  0  0  0999 V2000
  -42.2081   58.9030   66.5185 C   0  0  0  0  0  0  0  0  0  0  0  0
  -42.3194   59.5460   65.4434 O   0  0  0  0  0  0  0  0  0  0  0  0
  -42.3082   59.6227   67.8493 C   0  0  0  0  0  0  0  0  0  0  0  0
  -42.0181   57.6598   66.4798 O   0  0  0  0  0  0  0  0  0  0  0  0
  -42.5440   61.1108   67.6119 C   0  0  0  0  0  0  0  0  0  0  0  0
  -43.8404   61.3460   66.8529 C   0  0  0  0  0  0  0  0  0  0  0  0
  -45.0340   60.8182   67.6366 C   0  0  0  0  0  0  0  0  0  0  0  0
  -46.3218   61.0478   66.8512 C   0  0  0  0  0  0  0  0  0  0  0  0
  -46.2869   60.3217   65.5183 C   0  0  0  0  0  0  0  0  0  0  0  0
  -46.1420   58.8190   65.6970 C   0  0  0  0  0  0  0  0  0  0  0  0
  -47.3380   58.3370   66.4800 C   0  0  0  0  0  0  0  0  0  0  0  0
  -48.6910   58.5200   65.9370 C   0  0  0  0  0  0  0  0  0  0  0  0
  -49.0768   57.8833   64.6205 C   0  0  0  0  0  0  0  0  0  0  0  0
  -48.9503   56.3630   64.7112 C   0  0  0  0  0  0  0  0  0  0  0  0
  -49.3083   55.6511   63.4094 C   0  0  0  0  0  0  0  0  0  0  0  0
  -48.3898   56.0793   62.2618 C   0  0  0  0  0  0  0  0  0  0  0  0
  -46.9018   55.7796   62.4800 C   0  0  0  0  0  0  0  0  0  0  0  0
  -46.6326   54.2788   62.6518 C   0  0  0  0  0  0  0  0  0  0  0  0
  -47.0478   53.4606   61.4263 C   0  0  0  0  0  0  0  0  0  0  0  0
  -46.3008   53.8577   60.1473 C   0  0  0  0  0  0  0  0  0  0  0  0
  -41.3976   59.4895   68.3952 H   0  0  0  0  0  0  0  0  0  0  0  0
  -43.1253   59.2193   68.4101 H   0  0  0  0  0  0  0  0  0  0  0  0
  -41.9342   57.1737   67.2764 H   0  0  0  0  0  0  0  0  0  0  0  0
  -41.7292   61.5072   67.0429 H   0  0  0  0  0  0  0  0  0  0  0  0
  -42.6129   61.5994   68.5613 H   0  0  0  0  0  0  0  0  0  0  0  0
  -43.7904   60.8425   65.9101 H   0  0  0  0  0  0  0  0  0  0  0  0
  -43.9653   62.3989   66.7090 H   0  0  0  0  0  0  0  0  0  0  0  0
  -45.0957   61.3299   68.5743 H   0  0  0  0  0  0  0  0  0  0  0  0
  -44.9075   59.7686   67.8014 H   0  0  0  0  0  0  0  0  0  0  0  0
  -46.4412   62.0964   66.6748 H   0  0  0  0  0  0  0  0  0  0  0  0
  -47.1414   60.6668   67.4241 H   0  0  0  0  0  0  0  0  0  0  0  0
  -45.4571   60.6841   64.9482 H   0  0  0  0  0  0  0  0  0  0  0  0
  -47.2116   60.5087   65.0136 H   0  0  0  0  0  0  0  0  0  0  0  0
  -45.2422   58.6001   66.2331 H   0  0  0  0  0  0  0  0  0  0  0  0
  -46.0923   58.3300   64.7466 H   0  0  0  0  0  0  0  0  0  0  0  0
  -47.3129   58.8400   67.4241 H   0  0  0  0  0  0  0  0  0  0  0  0
  -47.2164   57.2740   66.4873 H   0  0  0  0  0  0  0  0  0  0  0  0
  -48.8369   59.5739   65.8234 H   0  0  0  0  0  0  0  0  0  0  0  0
  -49.3084   58.0076   66.6449 H   0  0  0  0  0  0  0  0  0  0  0  0
  -48.4296   58.2462   63.8495 H   0  0  0  0  0  0  0  0  0  0  0  0
  -50.0918   58.1359   64.3951 H   0  0  0  0  0  0  0  0  0  0  0  0
  -49.6051   56.0127   65.4816 H   0  0  0  0  0  0  0  0  0  0  0  0
  -47.9253   56.1413   64.9233 H   0  0  0  0  0  0  0  0  0  0  0  0
  -50.3196   55.8870   63.1513 H   0  0  0  0  0  0  0  0  0  0  0  0
  -49.1879   54.5985   63.5595 H   0  0  0  0  0  0  0  0  0  0  0  0
  -48.4996   57.1347   62.1242 H   0  0  0  0  0  0  0  0  0  0  0  0
  -48.6892   55.5077   61.4083 H   0  0  0  0  0  0  0  0  0  0  0  0
  -46.5724   56.2918   63.3598 H   0  0  0  0  0  0  0  0  0  0  0  0
  -46.3690   56.1121   61.6137 H   0  0  0  0  0  0  0  0  0  0  0  0
  -47.1817   53.9273   63.5002 H   0  0  0  0  0  0  0  0  0  0  0  0
  -45.5783   54.1523   62.7831 H   0  0  0  0  0  0  0  0  0  0  0  0
  -48.0961   53.6008   61.2642 H   0  0  0  0  0  0  0  0  0  0  0  0
  -46.8031   52.4392   61.6308 H   0  0  0  0  0  0  0  0  0  0  0  0
  -46.5203   54.8773   59.9080 H   0  0  0  0  0  0  0  0  0  0  0  0
  -46.6132   53.2270   59.3414 H   0  0  0  0  0  0  0  0  0  0  0  0
  -45.2476   53.7460   60.3000 H   0  0  0  0  0  0  0  0  0  0  0  0
  1  2  2  0  0  0  0
  1  3  1  0  0  0  0
  1  4  1  0  0  0  0
  3  5  1  0  0  0  0
  3 21  1  0  0  0  0
  3 22  1  0  0  0  0
  4 23  1  0  0  0  0
  5  6  1  0  0  0  0
  5 24  1  0  0  0  0
  5 25  1  0  0  0  0
  6  7  1  0  0  0  0
  6 26  1  0  0  0  0
  6 27  1  0  0  0  0
  7  8  1  0  0  0  0
  7 28  1  0  0  0  0
  7 29  1  0  0  0  0
  8  9  1  0  0  0  0
  8 30  1  0  0  0  0
  8 31  1  0  0  0  0
  9 10  1  0  0  0  0
  9 32  1  0  0  0  0
  9 33  1  0  0  0  0
 10 11  1  0  0  0  0
 10 34  1  0  0  0  0
 10 35  1  0  0  0  0
 11 12  1  0  0  0  0
 11 36  1  0  0  0  0
 11 37  1  0  0  0  0
 12 13  1  0  0  0  0
 12 38  1  0  0  0  0
 12 39  1  0  0  0  0
 13 14  1  0  0  0  0
 13 40  1  0  0  0  0
 13 41  1  0  0  0  0
 14 15  1  0  0  0  0
 14 42  1  0  0  0  0
 14 43  1  0  0  0  0
 15 16  1  0  0  0  0
 15 44  1  0  0  0  0
 15 45  1  0  0  0  0
 16 17  1  0  0  0  0
 16 46  1  0  0  0  0
 16 47  1  0  0  0  0
 17 18  1  0  0  0  0
 17 48  1  0  0  0  0
 17 49  1  0  0  0  0
 18 19  1  0  0  0  0
 18 50  1  0  0  0  0
 18 51  1  0  0  0  0
 19 20  1  0  0  0  0
 19 52  1  0  0  0  0
 19 53  1  0  0  0  0
 20 54  1  0  0  0  0
 20 55  1  0  0  0  0
 20 56  1  0  0  0  0
M  END
$$$$
/media/chris/experiments/cd1a-new-docking/inputs/ligands/4x6d_1_ligand.pdb
 OpenBabel07012320263D

 56 55  0  0  0  0  0  0  0  0999 V2000
  -43.1796   54.4150   66.4718 C   0  0  0  0  0  0  0  0  0  0  0  0
  -43.8033   55.1764   67.2546 O   0  0  0  0  0  0  0  0  0  0  0  0
  -41.9845   54.9344   65.6965 C   0  0  0  0  0  0  0  0  0  0  0  0
  -43.5526   53.2204   66.3416 O   0  0  0  0  0  0  0  0  0  0  0  0
  -42.1540   56.4267   65.4306 C   0  0  0  0  0  0  0  0  0  0  0  0
  -43.4205   56.7013   64.6351 C   0  0  0  0  0  0  0  0  0  0  0  0
  -44.6536   56.2343   65.3959 C   0  0  0  0  0  0  0  0  0  0  0  0
  -44.7660   56.9788   66.7229 C   0  0  0  0  0  0  0  0  0  0  0  0
  -44.8989   58.4750   66.5016 C   0  0  0  0  0  0  0  0  0  0  0  0
  -46.1420   58.8190   65.6970 C   0  0  0  0  0  0  0  0  0  0  0  0
  -47.3380   58.3370   66.4800 C   0  0  0  0  0  0  0  0  0  0  0  0
  -48.6910   58.5200   65.9370 C   0  0  0  0  0  0  0  0  0  0  0  0
  -49.0768   57.8833   64.6205 C   0  0  0  0  0  0  0  0  0  0  0  0
  -48.9503   56.3630   64.7112 C   0  0  0  0  0  0  0  0  0  0  0  0
  -49.8548   55.7468   65.7751 C   0  0  0  0  0  0  0  0  0  0  0  0
  -51.3327   56.0272   65.4896 C   0  0  0  0  0  0  0  0  0  0  0  0
  -51.8502   55.4682   64.1587 C   0  0  0  0  0  0  0  0  0  0  0  0
  -53.3306   55.7992   63.9282 C   0  0  0  0  0  0  0  0  0  0  0  0
  -53.5980   57.3058   63.8803 C   0  0  0  0  0  0  0  0  0  0  0  0
  -55.0759   57.6556   63.6677 C   0  0  0  0  0  0  0  0  0  0  0  0
  -41.9108   54.4131   64.7650 H   0  0  0  0  0  0  0  0  0  0  0  0
  -41.0943   54.7750   66.2685 H   0  0  0  0  0  0  0  0  0  0  0  0
  -43.0931   52.6468   65.7603 H   0  0  0  0  0  0  0  0  0  0  0  0
  -41.3098   56.7809   64.8767 H   0  0  0  0  0  0  0  0  0  0  0  0
  -42.2269   56.9329   66.3705 H   0  0  0  0  0  0  0  0  0  0  0  0
  -43.3672   56.1810   63.7016 H   0  0  0  0  0  0  0  0  0  0  0  0
  -43.4991   57.7558   64.4721 H   0  0  0  0  0  0  0  0  0  0  0  0
  -44.5758   55.1841   65.5851 H   0  0  0  0  0  0  0  0  0  0  0  0
  -45.5244   56.4354   64.8074 H   0  0  0  0  0  0  0  0  0  0  0  0
  -43.8890   56.7884   67.3056 H   0  0  0  0  0  0  0  0  0  0  0  0
  -45.6400   56.6322   67.2337 H   0  0  0  0  0  0  0  0  0  0  0  0
  -44.0367   58.8248   65.9732 H   0  0  0  0  0  0  0  0  0  0  0  0
  -44.9814   58.9465   67.4585 H   0  0  0  0  0  0  0  0  0  0  0  0
  -46.1077   58.3309   64.7454 H   0  0  0  0  0  0  0  0  0  0  0  0
  -46.2020   59.8741   65.5296 H   0  0  0  0  0  0  0  0  0  0  0  0
  -47.3129   58.8400   67.4241 H   0  0  0  0  0  0  0  0  0  0  0  0
  -47.2164   57.2740   66.4873 H   0  0  0  0  0  0  0  0  0  0  0  0
  -48.8369   59.5739   65.8234 H   0  0  0  0  0  0  0  0  0  0  0  0
  -49.3084   58.0076   66.6449 H   0  0  0  0  0  0  0  0  0  0  0  0
  -48.4296   58.2462   63.8495 H   0  0  0  0  0  0  0  0  0  0  0  0
  -50.0918   58.1359   64.3951 H   0  0  0  0  0  0  0  0  0  0  0  0
  -47.9351   56.1196   64.9455 H   0  0  0  0  0  0  0  0  0  0  0  0
  -49.2520   55.9619   63.7662 H   0  0  0  0  0  0  0  0  0  0  0  0
  -49.6008   56.1603   66.7287 H   0  0  0  0  0  0  0  0  0  0  0  0
  -49.7075   54.6870   65.7666 H   0  0  0  0  0  0  0  0  0  0  0  0
  -51.4745   57.0877   65.4824 H   0  0  0  0  0  0  0  0  0  0  0  0
  -51.8865   55.5312   66.2592 H   0  0  0  0  0  0  0  0  0  0  0  0
  -51.7311   54.4049   64.1619 H   0  0  0  0  0  0  0  0  0  0  0  0
  -51.2856   55.9206   63.3704 H   0  0  0  0  0  0  0  0  0  0  0  0
  -53.9045   55.3747   64.7253 H   0  0  0  0  0  0  0  0  0  0  0  0
  -53.6094   55.3909   62.9793 H   0  0  0  0  0  0  0  0  0  0  0  0
  -53.0310   57.7255   63.0758 H   0  0  0  0  0  0  0  0  0  0  0  0
  -53.3118   57.7078   64.8297 H   0  0  0  0  0  0  0  0  0  0  0  0
  -55.4018   57.2692   62.7246 H   0  0  0  0  0  0  0  0  0  0  0  0
  -55.1959   58.7188   63.6782 H   0  0  0  0  0  0  0  0  0  0  0  0
  -55.6613   57.2228   64.4519 H   0  0  0  0  0  0  0  0  0  0  0  0
  1  2  2  0  0  0  0
  1  3  1  0  0  0  0
  1  4  1  0  0  0  0
  3  5  1  0  0  0  0
  3 21  1  0  0  0  0
  3 22  1  0  0  0  0
  4 23  1  0  0  0  0
  5  6  1  0  0  0  0
  5 24  1  0  0  0  0
  5 25  1  0  0  0  0
  6  7  1  0  0  0  0
  6 26  1  0  0  0  0
  6 27  1  0  0  0  0
  7  8  1  0  0  0  0
  7 28  1  0  0  0  0
  7 29  1  0  0  0  0
  8  9  1  0  0  0  0
  8 30  1  0  0  0  0
  8 31  1  0  0  0  0
  9 10  1  0  0  0  0
  9 32  1  0  0  0  0
  9 33  1  0  0  0  0
 10 11  1  0  0  0  0
 10 34  1  0  0  0  0
 10 35  1  0  0  0  0
 11 12  1  0  0  0  0
 11 36  1  0  0  0  0
 11 37  1  0  0  0  0
 12 13  1  0  0  0  0
 12 38  1  0  0  0  0
 12 39  1  0  0  0  0
 13 14  1  0  0  0  0
 13 40  1  0  0  0  0
 13 41  1  0  0  0  0
 14 15  1  0  0  0  0
 14 42  1  0  0  0  0
 14 43  1  0  0  0  0
 15 16  1  0  0  0  0
 15 44  1  0  0  0  0
 15 45  1  0  0  0  0
 16 17  1  0  0  0  0
 16 46  1  0  0  0  0
 16 47  1  0  0  0  0
 17 18  1  0  0  0  0
 17 48  1  0  0  0  0
 17 49  1  0  0  0  0
 18 19  1  0  0  0  0
 18 50  1  0  0  0  0
 18 51  1  0  0  0  0
 19 20  1  0  0  0  0
 19 52  1  0  0  0  0
 19 53  1  0  0  0  0
 20 54  1  0  0  0  0
 20 55  1  0  0  0  0
 20 56  1  0  0  0  0
M  END
$$$$
/media/chris/experiments/cd1a-new-docking/inputs/ligands/4x6d_1_ligand.pdb
 OpenBabel07012320263D

 56 55  0  0  0  0  0  0  0  0999 V2000
  -39.8400   62.4054   64.7725 C   0  0  0  0  0  0  0  0  0  0  0  0
  -39.9009   62.3119   66.0251 O   0  0  0  0  0  0  0  0  0  0  0  0
  -41.0610   62.8321   63.9811 C   0  0  0  0  0  0  0  0  0  0  0  0
  -38.7584   62.1469   64.1840 O   0  0  0  0  0  0  0  0  0  0  0  0
  -42.3258   62.3935   64.7122 C   0  0  0  0  0  0  0  0  0  0  0  0
  -42.3559   60.8847   64.8984 C   0  0  0  0  0  0  0  0  0  0  0  0
  -43.6277   60.4492   65.6129 C   0  0  0  0  0  0  0  0  0  0  0  0
  -43.6307   58.9356   65.8055 C   0  0  0  0  0  0  0  0  0  0  0  0
  -44.8989   58.4750   66.5016 C   0  0  0  0  0  0  0  0  0  0  0  0
  -46.1420   58.8190   65.6970 C   0  0  0  0  0  0  0  0  0  0  0  0
  -47.3380   58.3370   66.4800 C   0  0  0  0  0  0  0  0  0  0  0  0
  -48.6910   58.5200   65.9370 C   0  0  0  0  0  0  0  0  0  0  0  0
  -49.0768   57.8833   64.6205 C   0  0  0  0  0  0  0  0  0  0  0  0
  -50.5214   58.2342   64.2666 C   0  0  0  0  0  0  0  0  0  0  0  0
  -50.7548   59.7345   64.1102 C   0  0  0  0  0  0  0  0  0  0  0  0
  -49.8946   60.3249   62.9897 C   0  0  0  0  0  0  0  0  0  0  0  0
  -50.1557   59.7369   61.5977 C   0  0  0  0  0  0  0  0  0  0  0  0
  -49.2499   60.3594   60.5270 C   0  0  0  0  0  0  0  0  0  0  0  0
  -49.5129   59.7929   59.1293 C   0  0  0  0  0  0  0  0  0  0  0  0
  -48.6043   60.3915   58.0486 C   0  0  0  0  0  0  0  0  0  0  0  0
  -41.0341   62.3776   63.0128 H   0  0  0  0  0  0  0  0  0  0  0  0
  -41.0624   63.8971   63.8780 H   0  0  0  0  0  0  0  0  0  0  0  0
  -38.7050   62.2143   63.2509 H   0  0  0  0  0  0  0  0  0  0  0  0
  -43.1804   62.6922   64.1418 H   0  0  0  0  0  0  0  0  0  0  0  0
  -42.3374   62.8550   65.6775 H   0  0  0  0  0  0  0  0  0  0  0  0
  -41.5084   60.5867   65.4796 H   0  0  0  0  0  0  0  0  0  0  0  0
  -42.3305   60.4213   63.9343 H   0  0  0  0  0  0  0  0  0  0  0  0
  -44.4771   60.7329   65.0273 H   0  0  0  0  0  0  0  0  0  0  0  0
  -43.6702   60.9236   66.5711 H   0  0  0  0  0  0  0  0  0  0  0  0
  -42.7853   58.6574   66.3995 H   0  0  0  0  0  0  0  0  0  0  0  0
  -43.5837   58.4708   64.8428 H   0  0  0  0  0  0  0  0  0  0  0  0
  -44.9621   58.9519   67.4573 H   0  0  0  0  0  0  0  0  0  0  0  0
  -44.8537   57.4109   66.6046 H   0  0  0  0  0  0  0  0  0  0  0  0
  -46.1077   58.3309   64.7454 H   0  0  0  0  0  0  0  0  0  0  0  0
  -46.2020   59.8741   65.5296 H   0  0  0  0  0  0  0  0  0  0  0  0
  -47.3129   58.8400   67.4241 H   0  0  0  0  0  0  0  0  0  0  0  0
  -47.2164   57.2740   66.4873 H   0  0  0  0  0  0  0  0  0  0  0  0
  -48.8369   59.5739   65.8234 H   0  0  0  0  0  0  0  0  0  0  0  0
  -49.3084   58.0076   66.6449 H   0  0  0  0  0  0  0  0  0  0  0  0
  -48.9808   56.8206   64.7005 H   0  0  0  0  0  0  0  0  0  0  0  0
  -48.4300   58.2521   63.8520 H   0  0  0  0  0  0  0  0  0  0  0  0
  -51.1601   57.8699   65.0440 H   0  0  0  0  0  0  0  0  0  0  0  0
  -50.7372   57.7788   63.3227 H   0  0  0  0  0  0  0  0  0  0  0  0
  -50.5088   60.2219   65.0304 H   0  0  0  0  0  0  0  0  0  0  0  0
  -51.7834   59.8888   63.8591 H   0  0  0  0  0  0  0  0  0  0  0  0
  -48.8670   60.1550   63.2349 H   0  0  0  0  0  0  0  0  0  0  0  0
  -50.1498   61.3623   62.9302 H   0  0  0  0  0  0  0  0  0  0  0  0
  -51.1766   59.9178   61.3331 H   0  0  0  0  0  0  0  0  0  0  0  0
  -49.9441   58.6889   61.6385 H   0  0  0  0  0  0  0  0  0  0  0  0
  -48.2300   60.1678   60.7878 H   0  0  0  0  0  0  0  0  0  0  0  0
  -49.4597   61.4082   60.4957 H   0  0  0  0  0  0  0  0  0  0  0  0
  -50.5304   59.9954   58.8672 H   0  0  0  0  0  0  0  0  0  0  0  0
  -49.3067   58.7438   59.1698 H   0  0  0  0  0  0  0  0  0  0  0  0
  -48.7811   61.4443   57.9770 H   0  0  0  0  0  0  0  0  0  0  0  0
  -48.8172   59.9292   57.1074 H   0  0  0  0  0  0  0  0  0  0  0  0
  -47.5806   60.2185   58.3074 H   0  0  0  0  0  0  0  0  0  0  0  0
  1  2  2  0  0  0  0
  1  3  1  0  0  0  0
  1  4  1  0  0  0  0
  3  5  1  0  0  0  0
  3 21  1  0  0  0  0
  3 22  1  0  0  0  0
  4 23  1  0  0  0  0
  5  6  1  0  0  0  0
  5 24  1  0  0  0  0
  5 25  1  0  0  0  0
  6  7  1  0  0  0  0
  6 26  1  0  0  0  0
  6 27  1  0  0  0  0
  7  8  1  0  0  0  0
  7 28  1  0  0  0  0
  7 29  1  0  0  0  0
  8  9  1  0  0  0  0
  8 30  1  0  0  0  0
  8 31  1  0  0  0  0
  9 10  1  0  0  0  0
  9 32  1  0  0  0  0
  9 33  1  0  0  0  0
 10 11  1  0  0  0  0
 10 34  1  0  0  0  0
 10 35  1  0  0  0  0
 11 12  1  0  0  0  0
 11 36  1  0  0  0  0
 11 37  1  0  0  0  0
 12 13  1  0  0  0  0
 12 38  1  0  0  0  0
 12 39  1  0  0  0  0
 13 14  1  0  0  0  0
 13 40  1  0  0  0  0
 13 41  1  0  0  0  0
 14 15  1  0  0  0  0
 14 42  1  0  0  0  0
 14 43  1  0  0  0  0
 15 16  1  0  0  0  0
 15 44  1  0  0  0  0
 15 45  1  0  0  0  0
 16 17  1  0  0  0  0
 16 46  1  0  0  0  0
 16 47  1  0  0  0  0
 17 18  1  0  0  0  0
 17 48  1  0  0  0  0
 17 49  1  0  0  0  0
 18 19  1  0  0  0  0
 18 50  1  0  0  0  0
 18 51  1  0  0  0  0
 19 20  1  0  0  0  0
 19 52  1  0  0  0  0
 19 53  1  0  0  0  0
 20 54  1  0  0  0  0
 20 55  1  0  0  0  0
 20 56  1  0  0  0  0
M  END
$$$$
