/media/chris/experiments/cd1a-new-docking/inputs/ligands/4x6d_1_ligand.pdb
 OpenBabel07012320263D

 56 55  0  0  0  0  0  0  0  0999 V2000
  -41.2129   55.9758   62.8053 C   0  0  0  0  0  0  0  0  0  0  0  0
  -40.1752   56.6759   62.6844 O   0  0  0  0  0  0  0  0  0  0  0  0
  -42.4898   56.3790   62.0940 C   0  0  0  0  0  0  0  0  0  0  0  0
  -41.1806   54.9382   63.5163 O   0  0  0  0  0  0  0  0  0  0  0  0
  -42.5348   57.8958   61.9398 C   0  0  0  0  0  0  0  0  0  0  0  0
  -42.4803   58.5862   63.2935 C   0  0  0  0  0  0  0  0  0  0  0  0
  -43.6479   58.1573   64.1712 C   0  0  0  0  0  0  0  0  0  0  0  0
  -44.9702   58.5025   63.4927 C   0  0  0  0  0  0  0  0  0  0  0  0
  -46.1509   58.0994   64.3580 C   0  0  0  0  0  0  0  0  0  0  0  0
  -46.1420   58.8190   65.6970 C   0  0  0  0  0  0  0  0  0  0  0  0
  -47.3380   58.3370   66.4800 C   0  0  0  0  0  0  0  0  0  0  0  0
  -48.6910   58.5200   65.9370 C   0  0  0  0  0  0  0  0  0  0  0  0
  -49.8970   58.0544   66.7220 C   0  0  0  0  0  0  0  0  0  0  0  0
  -51.1790   58.3402   65.9408 C   0  0  0  0  0  0  0  0  0  0  0  0
  -52.4428   57.9111   66.6813 C   0  0  0  0  0  0  0  0  0  0  0  0
  -52.4335   56.4116   66.9900 C   0  0  0  0  0  0  0  0  0  0  0  0
  -51.2756   55.9431   67.8797 C   0  0  0  0  0  0  0  0  0  0  0  0
  -51.2917   56.6215   69.2559 C   0  0  0  0  0  0  0  0  0  0  0  0
  -52.5701   56.3260   70.0447 C   0  0  0  0  0  0  0  0  0  0  0  0
  -52.6111   57.0103   71.4164 C   0  0  0  0  0  0  0  0  0  0  0  0
  -43.3336   56.0544   62.6663 H   0  0  0  0  0  0  0  0  0  0  0  0
  -42.5156   55.9233   61.1262 H   0  0  0  0  0  0  0  0  0  0  0  0
  -41.9496   54.4114   63.6114 H   0  0  0  0  0  0  0  0  0  0  0  0
  -43.4427   58.1698   61.4442 H   0  0  0  0  0  0  0  0  0  0  0  0
  -41.6854   58.2042   61.3669 H   0  0  0  0  0  0  0  0  0  0  0  0
  -42.5221   59.6454   63.1482 H   0  0  0  0  0  0  0  0  0  0  0  0
  -41.5682   58.3107   63.7805 H   0  0  0  0  0  0  0  0  0  0  0  0
  -43.5893   58.6657   65.1109 H   0  0  0  0  0  0  0  0  0  0  0  0
  -43.5996   57.0996   64.3250 H   0  0  0  0  0  0  0  0  0  0  0  0
  -45.0290   57.9846   62.5583 H   0  0  0  0  0  0  0  0  0  0  0  0
  -45.0071   59.5608   63.3395 H   0  0  0  0  0  0  0  0  0  0  0  0
  -46.1087   57.0444   64.5316 H   0  0  0  0  0  0  0  0  0  0  0  0
  -47.0486   58.3689   63.8418 H   0  0  0  0  0  0  0  0  0  0  0  0
  -46.2076   59.8760   65.5439 H   0  0  0  0  0  0  0  0  0  0  0  0
  -45.2364   58.6137   66.2287 H   0  0  0  0  0  0  0  0  0  0  0  0
  -47.3129   58.8400   67.4241 H   0  0  0  0  0  0  0  0  0  0  0  0
  -47.2164   57.2740   66.4873 H   0  0  0  0  0  0  0  0  0  0  0  0
  -48.7179   58.0067   64.9986 H   0  0  0  0  0  0  0  0  0  0  0  0
  -48.8057   59.5838   65.9236 H   0  0  0  0  0  0  0  0  0  0  0  0
  -49.9308   58.5721   67.6578 H   0  0  0  0  0  0  0  0  0  0  0  0
  -49.8184   57.0005   66.8895 H   0  0  0  0  0  0  0  0  0  0  0  0
  -51.1348   57.8137   65.0103 H   0  0  0  0  0  0  0  0  0  0  0  0
  -51.2366   59.3994   65.8008 H   0  0  0  0  0  0  0  0  0  0  0  0
  -53.2944   58.1353   66.0735 H   0  0  0  0  0  0  0  0  0  0  0  0
  -52.4843   58.4435   67.6086 H   0  0  0  0  0  0  0  0  0  0  0  0
  -52.3754   55.8815   66.0624 H   0  0  0  0  0  0  0  0  0  0  0  0
  -53.3316   56.2119   67.5363 H   0  0  0  0  0  0  0  0  0  0  0  0
  -50.3514   56.1738   67.3924 H   0  0  0  0  0  0  0  0  0  0  0  0
  -51.3831   54.8894   68.0313 H   0  0  0  0  0  0  0  0  0  0  0  0
  -51.2118   57.6794   69.1171 H   0  0  0  0  0  0  0  0  0  0  0  0
  -50.4680   56.2331   69.8176 H   0  0  0  0  0  0  0  0  0  0  0  0
  -52.6416   55.2685   70.1909 H   0  0  0  0  0  0  0  0  0  0  0  0
  -53.3892   56.7119   69.4746 H   0  0  0  0  0  0  0  0  0  0  0  0
  -51.8040   56.6496   72.0192 H   0  0  0  0  0  0  0  0  0  0  0  0
  -53.5414   56.7900   71.8972 H   0  0  0  0  0  0  0  0  0  0  0  0
  -52.5167   58.0686   71.2901 H   0  0  0  0  0  0  0  0  0  0  0  0
  1  2  2  0  0  0  0
  1  3  1  0  0  0  0
  1  4  1  0  0  0  0
  3  5  1  0  0  0  0
  3 21  1  0  0  0  0
  3 22  1  0  0  0  0
  4 23  1  0  0  0  0
  5  6  1  0  0  0  0
  5 24  1  0  0  0  0
  5 25  1  0  0  0  0
  6  7  1  0  0  0  0
  6 26  1  0  0  0  0
  6 27  1  0  0  0  0
  7  8  1  0  0  0  0
  7 28  1  0  0  0  0
  7 29  1  0  0  0  0
  8  9  1  0  0  0  0
  8 30  1  0  0  0  0
  8 31  1  0  0  0  0
  9 10  1  0  0  0  0
  9 32  1  0  0  0  0
  9 33  1  0  0  0  0
 10 11  1  0  0  0  0
 10 34  1  0  0  0  0
 10 35  1  0  0  0  0
 11 12  1  0  0  0  0
 11 36  1  0  0  0  0
 11 37  1  0  0  0  0
 12 13  1  0  0  0  0
 12 38  1  0  0  0  0
 12 39  1  0  0  0  0
 13 14  1  0  0  0  0
 13 40  1  0  0  0  0
 13 41  1  0  0  0  0
 14 15  1  0  0  0  0
 14 42  1  0  0  0  0
 14 43  1  0  0  0  0
 15 16  1  0  0  0  0
 15 44  1  0  0  0  0
 15 45  1  0  0  0  0
 16 17  1  0  0  0  0
 16 46  1  0  0  0  0
 16 47  1  0  0  0  0
 17 18  1  0  0  0  0
 17 48  1  0  0  0  0
 17 49  1  0  0  0  0
 18 19  1  0  0  0  0
 18 50  1  0  0  0  0
 18 51  1  0  0  0  0
 19 20  1  0  0  0  0
 19 52  1  0  0  0  0
 19 53  1  0  0  0  0
 20 54  1  0  0  0  0
 20 55  1  0  0  0  0
 20 56  1  0  0  0  0
M  END
$$$$