/media/chris/experiments/cd1a-new-docking/inputs/ligands/1xz0_ligand.pdb
 OpenBabel07022319323D

125127  0  0  1  0  0  0  0  0999 V2000
  -40.2129   55.0214   61.2541 N   0  0  0  0  0  0  0  0  0  0  0  0
  -40.6375   53.8120   61.7067 C   0  0  0  0  0  0  0  0  0  0  0  0
  -34.8323   58.2135   62.5576 O   0  0  0  0  0  0  0  0  0  0  0  0
  -27.9959   56.1819   65.9344 Si  0  0  0  0  0  0  0  0  0  0  0  0
  -40.9759   56.1408   61.6149 O   0  0  0  0  0  0  0  0  0  0  0  0
  -28.6928   55.9154   67.5590 O   0  0  0  0  0  0  0  0  0  0  0  0
  -39.0463   55.3391   60.4247 C   0  0  0  0  0  0  0  0  0  0  0  0
  -32.3898   58.3274   68.1655 N   0  0  0  0  0  0  0  0  0  0  0  0
  -34.4223   58.1136   64.8296 O   0  0  0  0  0  0  0  0  0  0  0  0
  -38.5576   56.7536   60.7988 C   0  0  0  0  0  0  0  0  0  0  0  0
  -36.8950   59.8150   64.6310 N   0  0  0  0  0  0  0  0  0  0  0  0
  -34.6366   58.3452   67.9068 O   0  0  0  0  0  0  0  0  0  0  0  0
  -38.1064   56.9875   62.2504 C   0  0  0  0  0  0  0  0  0  0  0  0
  -29.7088   56.7014   68.0129 N   0  0  0  0  0  0  0  0  0  0  0  0
  -37.7543   61.2478   66.1742 O   0  0  0  0  0  0  0  0  0  0  0  0
  -37.6390   58.4030   62.6110 C   0  0  0  0  0  0  0  0  0  0  0  0
  -37.8853   57.9472   66.7604 N   0  0  0  0  0  0  0  0  0  0  0  0
  -40.0179   52.7810   61.4462 O   0  0  0  0  0  0  0  0  0  0  0  0
  -36.7890   58.5530   63.8960 C   0  0  1  0  0  0  0  0  0  0  0  0
  -29.8617   57.6903   65.9969 O   0  0  0  0  0  0  0  0  0  0  0  0
  -35.3080   58.3090   63.6770 C   0  0  0  0  0  0  0  0  0  0  0  0
  -39.3379   56.9364   65.3966 O   0  0  0  0  0  0  0  0  0  0  0  0
  -33.2830   58.9658   65.0520 C   0  0  1  0  0  0  0  0  0  0  0  0
  -37.1193   56.3162   68.9560 O   0  0  0  0  0  0  0  0  0  0  0  0
  -33.4523   59.6504   66.4000 C   0  0  0  0  0  0  0  0  0  0  0  0
  -31.9365   58.2587   64.9598 C   0  0  0  0  0  0  0  0  0  0  0  0
  -33.5294   58.6802   67.5529 C   0  0  0  0  0  0  0  0  0  0  0  0
  -37.7336   60.1539   65.6256 C   0  0  0  0  0  0  0  0  0  0  0  0
  -41.9149   53.7425   62.5502 C   0  0  0  0  0  0  0  0  0  0  0  0
  -42.7021   52.4330   62.4048 C   0  0  0  0  0  0  0  0  0  0  0  0
  -43.9702   52.4788   63.2789 C   0  0  0  0  0  0  0  0  0  0  0  0
  -44.8142   51.1921   63.2061 C   0  0  0  0  0  0  0  0  0  0  0  0
  -45.3146   50.8323   61.7946 C   0  0  0  0  0  0  0  0  0  0  0  0
  -46.1691   49.5477   61.7702 C   0  0  0  0  0  0  0  0  0  0  0  0
  -46.6775   49.1417   60.3671 C   0  0  0  0  0  0  0  0  0  0  0  0
  -47.5468   50.2136   59.6997 C   0  0  0  0  0  0  0  0  0  0  0  0
  -48.8105   50.6068   60.4713 C   0  0  0  0  0  0  0  0  0  0  0  0
  -49.6220   51.6730   59.7130 C   0  0  0  0  0  0  0  0  0  0  0  0
  -50.8956   52.1231   60.4446 C   0  0  0  0  0  0  0  0  0  0  0  0
  -50.6821   52.7624   61.8206 C   0  0  0  0  0  0  0  0  0  0  0  0
  -51.9896   53.1873   62.5344 C   0  0  0  0  0  0  0  0  0  0  0  0
  -52.9150   51.9793   62.7847 C   0  0  0  0  0  0  0  0  0  0  0  0
  -54.2575   52.2567   63.4717 C   0  0  0  0  0  0  0  0  0  0  0  0
  -30.2141   56.4261   69.3659 C   0  0  0  0  0  0  0  0  0  0  0  0
  -29.8569   57.5767   70.3257 C   0  0  0  0  0  0  0  0  0  0  0  0
  -29.2445   58.8029   69.6691 C   0  0  0  0  0  0  0  0  0  0  0  0
  -30.2266   59.5498   68.7628 C   0  0  0  0  0  0  0  0  0  0  0  0
  -31.0501   58.7488   67.7405 C   0  0  1  0  0  0  0  0  0  0  0  0
  -30.1653   57.6517   67.1814 C   0  0  0  0  0  0  0  0  0  0  0  0
  -39.6251   58.3251   65.2368 C   0  0  0  0  0  0  0  0  0  0  0  0
  -38.2506   56.8144   66.3352 C   0  0  0  0  0  0  0  0  0  0  0  0
  -38.6466   59.0723   66.1849 C   0  0  1  0  0  0  0  0  0  0  0  0
  -37.1620   55.3133   68.0706 C   0  0  0  0  0  0  0  0  0  0  0  0
  -36.6778   54.0492   68.4318 C   0  0  0  0  0  0  0  0  0  0  0  0
  -36.7027   52.9827   67.5174 C   0  0  0  0  0  0  0  0  0  0  0  0
  -37.2216   53.1656   66.2344 C   0  0  0  0  0  0  0  0  0  0  0  0
  -37.7117   54.4231   65.8713 C   0  0  0  0  0  0  0  0  0  0  0  0
  -37.6800   55.4961   66.7826 C   0  0  0  0  0  0  0  0  0  0  0  0
  -26.9601   55.2385   65.7032 H   0  0  0  0  0  0  0  0  0  0  0  0
  -27.4648   57.4966   65.8571 H   0  0  0  0  0  0  0  0  0  0  0  0
  -29.0093   56.0223   64.9526 H   0  0  0  0  0  0  0  0  0  0  0  0
  -41.7271   55.8582   62.1596 H   0  0  0  0  0  0  0  0  0  0  0  0
  -39.3195   55.3124   59.3905 H   0  0  0  0  0  0  0  0  0  0  0  0
  -38.2686   54.6237   60.5924 H   0  0  0  0  0  0  0  0  0  0  0  0
  -32.4568   57.7445   68.9560 H   0  0  0  0  0  0  0  0  0  0  0  0
  -39.3595   57.4332   60.5988 H   0  0  0  0  0  0  0  0  0  0  0  0
  -37.6754   56.9016   60.2116 H   0  0  0  0  0  0  0  0  0  0  0  0
  -36.2607   60.5165   64.3574 H   0  0  0  0  0  0  0  0  0  0  0  0
  -38.1176   56.2279   62.9488 H   0  0  0  0  0  0  0  0  0  0  0  0
  -37.8799   59.2173   62.0245 H   0  0  0  0  0  0  0  0  0  0  0  0
  -37.2383   57.7881   64.4943 H   0  0  0  0  0  0  0  0  0  0  0  0
  -33.2609   59.6827   64.2580 H   0  0  0  0  0  0  0  0  0  0  0  0
  -36.7682   56.1704   69.8124 H   0  0  0  0  0  0  0  0  0  0  0  0
  -34.3542   60.2256   66.3786 H   0  0  0  0  0  0  0  0  0  0  0  0
  -32.5890   60.2629   66.5566 H   0  0  0  0  0  0  0  0  0  0  0  0
  -31.8709   57.5152   65.7265 H   0  0  0  0  0  0  0  0  0  0  0  0
  -31.1494   58.9723   65.0867 H   0  0  0  0  0  0  0  0  0  0  0  0
  -31.8437   57.7919   64.0015 H   0  0  0  0  0  0  0  0  0  0  0  0
  -42.5529   54.5503   62.2580 H   0  0  0  0  0  0  0  0  0  0  0  0
  -41.6079   53.8014   63.5735 H   0  0  0  0  0  0  0  0  0  0  0  0
  -42.0874   51.6141   62.7153 H   0  0  0  0  0  0  0  0  0  0  0  0
  -42.9863   52.3066   61.3810 H   0  0  0  0  0  0  0  0  0  0  0  0
  -44.5755   53.2995   62.9547 H   0  0  0  0  0  0  0  0  0  0  0  0
  -43.6490   52.5872   64.2937 H   0  0  0  0  0  0  0  0  0  0  0  0
  -45.6666   51.3157   63.8409 H   0  0  0  0  0  0  0  0  0  0  0  0
  -44.1740   50.3919   63.5139 H   0  0  0  0  0  0  0  0  0  0  0  0
  -44.4667   50.6906   61.1575 H   0  0  0  0  0  0  0  0  0  0  0  0
  -45.9347   51.6370   61.4588 H   0  0  0  0  0  0  0  0  0  0  0  0
  -47.0189   49.6995   62.4024 H   0  0  0  0  0  0  0  0  0  0  0  0
  -45.5346   48.7539   62.1052 H   0  0  0  0  0  0  0  0  0  0  0  0
  -47.2561   48.2467   60.4621 H   0  0  0  0  0  0  0  0  0  0  0  0
  -45.8162   49.0033   59.7475 H   0  0  0  0  0  0  0  0  0  0  0  0
  -47.8463   49.8459   58.7405 H   0  0  0  0  0  0  0  0  0  0  0  0
  -46.9433   51.0959   59.6518 H   0  0  0  0  0  0  0  0  0  0  0  0
  -48.5279   50.9982   61.4262 H   0  0  0  0  0  0  0  0  0  0  0  0
  -49.4213   49.7355   60.5841 H   0  0  0  0  0  0  0  0  0  0  0  0
  -49.9040   51.2692   58.7631 H   0  0  0  0  0  0  0  0  0  0  0  0
  -48.9945   52.5350   59.6231 H   0  0  0  0  0  0  0  0  0  0  0  0
  -51.5205   51.2644   60.5748 H   0  0  0  0  0  0  0  0  0  0  0  0
  -51.3283   52.8869   59.8328 H   0  0  0  0  0  0  0  0  0  0  0  0
  -50.0707   53.6315   61.6954 H   0  0  0  0  0  0  0  0  0  0  0  0
  -50.2237   52.0178   62.4373 H   0  0  0  0  0  0  0  0  0  0  0  0
  -52.5042   53.8987   61.9228 H   0  0  0  0  0  0  0  0  0  0  0  0
  -51.7319   53.6146   63.4809 H   0  0  0  0  0  0  0  0  0  0  0  0
  -52.3784   51.2836   63.3954 H   0  0  0  0  0  0  0  0  0  0  0  0
  -53.1724   51.6217   61.8096 H   0  0  0  0  0  0  0  0  0  0  0  0
  -54.0826   52.6214   64.4623 H   0  0  0  0  0  0  0  0  0  0  0  0
  -54.8271   51.3522   63.5200 H   0  0  0  0  0  0  0  0  0  0  0  0
  -54.7997   52.9901   62.9122 H   0  0  0  0  0  0  0  0  0  0  0  0
  -29.7759   55.5191   69.7266 H   0  0  0  0  0  0  0  0  0  0  0  0
  -31.2792   56.3326   69.3228 H   0  0  0  0  0  0  0  0  0  0  0  0
  -29.1580   57.2028   71.0446 H   0  0  0  0  0  0  0  0  0  0  0  0
  -30.7813   57.9015   70.7558 H   0  0  0  0  0  0  0  0  0  0  0  0
  -28.4066   58.4920   69.0807 H   0  0  0  0  0  0  0  0  0  0  0  0
  -28.9567   59.4743   70.4509 H   0  0  0  0  0  0  0  0  0  0  0  0
  -29.6598   60.2719   68.2130 H   0  0  0  0  0  0  0  0  0  0  0  0
  -30.9602   59.9352   69.4396 H   0  0  0  0  0  0  0  0  0  0  0  0
  -31.3287   59.4116   66.9480 H   0  0  0  0  0  0  0  0  0  0  0  0
  -40.6388   58.5299   65.5112 H   0  0  0  0  0  0  0  0  0  0  0  0
  -39.5041   58.6376   64.2206 H   0  0  0  0  0  0  0  0  0  0  0  0
  -39.2058   59.6850   66.8607 H   0  0  0  0  0  0  0  0  0  0  0  0
  -36.2985   53.8998   69.3799 H   0  0  0  0  0  0  0  0  0  0  0  0
  -36.3356   52.0592   67.7957 H   0  0  0  0  0  0  0  0  0  0  0  0
  -37.2430   52.3824   65.5627 H   0  0  0  0  0  0  0  0  0  0  0  0
  -38.1007   54.5666   64.9262 H   0  0  0  0  0  0  0  0  0  0  0  0
  1  2  1  0  0  0  0
  1  5  1  0  0  0  0
  1  7  1  0  0  0  0
  2 18  2  0  0  0  0
  2 29  1  0  0  0  0
  3 21  2  0  0  0  0
  4  6  1  0  0  0  0
  4 59  1  0  0  0  0
  4 60  1  0  0  0  0
  4 61  1  0  0  0  0
  5 62  1  0  0  0  0
  6 14  1  0  0  0  0
  7 10  1  0  0  0  0
  7 63  1  0  0  0  0
  7 64  1  0  0  0  0
  8 27  1  0  0  0  0
  8 48  1  0  0  0  0
  8 65  1  0  0  0  0
  9 21  1  0  0  0  0
  9 23  1  0  0  0  0
 10 13  1  0  0  0  0
 10 66  1  0  0  0  0
 10 67  1  0  0  0  0
 11 19  1  0  0  0  0
 11 28  1  0  0  0  0
 11 68  1  0  0  0  0
 12 27  2  0  0  0  0
 13 16  2  0  0  0  0
 13 69  1  0  0  0  0
 14 44  1  0  0  0  0
 14 49  1  0  0  0  0
 15 28  2  0  0  0  0
 16 19  1  0  0  0  0
 16 70  1  0  0  0  0
 17 51  2  0  0  0  0
 17 52  1  0  0  0  0
 19 21  1  0  0  0  0
 19 71  1  1  0  0  0
 20 49  2  0  0  0  0
 22 50  1  0  0  0  0
 22 51  1  0  0  0  0
 23 25  1  0  0  0  0
 23 26  1  0  0  0  0
 23 72  1  6  0  0  0
 24 53  1  0  0  0  0
 24 73  1  0  0  0  0
 25 27  1  0  0  0  0
 25 74  1  0  0  0  0
 25 75  1  0  0  0  0
 26 76  1  0  0  0  0
 26 77  1  0  0  0  0
 26 78  1  0  0  0  0
 28 52  1  0  0  0  0
 29 30  1  0  0  0  0
 29 79  1  0  0  0  0
 29 80  1  0  0  0  0
 30 31  1  0  0  0  0
 30 81  1  0  0  0  0
 30 82  1  0  0  0  0
 31 32  1  0  0  0  0
 31 83  1  0  0  0  0
 31 84  1  0  0  0  0
 32 33  1  0  0  0  0
 32 85  1  0  0  0  0
 32 86  1  0  0  0  0
 33 34  1  0  0  0  0
 33 87  1  0  0  0  0
 33 88  1  0  0  0  0
 34 35  1  0  0  0  0
 34 89  1  0  0  0  0
 34 90  1  0  0  0  0
 35 36  1  0  0  0  0
 35 91  1  0  0  0  0
 35 92  1  0  0  0  0
 36 37  1  0  0  0  0
 36 93  1  0  0  0  0
 36 94  1  0  0  0  0
 37 38  1  0  0  0  0
 37 95  1  0  0  0  0
 37 96  1  0  0  0  0
 38 39  1  0  0  0  0
 38 97  1  0  0  0  0
 38 98  1  0  0  0  0
 39 40  1  0  0  0  0
 39 99  1  0  0  0  0
 39100  1  0  0  0  0
 40 41  1  0  0  0  0
 40101  1  0  0  0  0
 40102  1  0  0  0  0
 41 42  1  0  0  0  0
 41103  1  0  0  0  0
 41104  1  0  0  0  0
 42 43  1  0  0  0  0
 42105  1  0  0  0  0
 42106  1  0  0  0  0
 43107  1  0  0  0  0
 43108  1  0  0  0  0
 43109  1  0  0  0  0
 44 45  1  0  0  0  0
 44110  1  0  0  0  0
 44111  1  0  0  0  0
 45 46  1  0  0  0  0
 45112  1  0  0  0  0
 45113  1  0  0  0  0
 46 47  1  0  0  0  0
 46114  1  0  0  0  0
 46115  1  0  0  0  0
 47 48  1  0  0  0  0
 47116  1  0  0  0  0
 47117  1  0  0  0  0
 48 49  1  0  0  0  0
 48118  1  6  0  0  0
 50 52  1  0  0  0  0
 50119  1  0  0  0  0
 50120  1  0  0  0  0
 51 58  1  0  0  0  0
 52121  1  1  0  0  0
 53 54  2  0  0  0  0
 53 58  1  0  0  0  0
 54 55  1  0  0  0  0
 54122  1  0  0  0  0
 55 56  2  0  0  0  0
 55123  1  0  0  0  0
 56 57  1  0  0  0  0
 56124  1  0  0  0  0
 57 58  2  0  0  0  0
 57125  1  0  0  0  0
M  END
$$$$