/media/chris/experiments/cd1a-new-docking/inputs/ligands/1xz0_ligand.pdb
 OpenBabel07022319323D

125127  0  0  1  0  0  0  0  0999 V2000
  -41.0277   60.8896   61.1435 N   0  0  0  0  0  0  0  0  0  0  0  0
  -40.6352   62.1907   61.1129 C   0  0  0  0  0  0  0  0  0  0  0  0
  -34.9015   57.3291   63.0745 O   0  0  0  0  0  0  0  0  0  0  0  0
  -26.6969   55.2672   66.8412 Si  0  0  0  0  0  0  0  0  0  0  0  0
  -42.1444   60.5791   61.9323 O   0  0  0  0  0  0  0  0  0  0  0  0
  -26.3227   56.7548   65.9232 O   0  0  0  0  0  0  0  0  0  0  0  0
  -40.4442   59.7327   60.4573 C   0  0  0  0  0  0  0  0  0  0  0  0
  -29.8056   58.9877   64.2689 N   0  0  0  0  0  0  0  0  0  0  0  0
  -34.3234   59.2293   64.2555 O   0  0  0  0  0  0  0  0  0  0  0  0
  -39.9996   58.7111   61.5241 C   0  0  0  0  0  0  0  0  0  0  0  0
  -36.8950   59.8150   64.6310 N   0  0  0  0  0  0  0  0  0  0  0  0
  -30.5156   57.7390   62.5219 O   0  0  0  0  0  0  0  0  0  0  0  0
  -38.9635   59.1745   62.5621 C   0  0  0  0  0  0  0  0  0  0  0  0
  -27.3084   57.6432   65.6147 N   0  0  0  0  0  0  0  0  0  0  0  0
  -37.3723   61.3220   62.9958 O   0  0  0  0  0  0  0  0  0  0  0  0
  -37.6390   58.4030   62.6110 C   0  0  0  0  0  0  0  0  0  0  0  0
  -36.1202   61.9582   66.2359 N   0  0  0  0  0  0  0  0  0  0  0  0
  -41.2379   63.0531   61.7516 O   0  0  0  0  0  0  0  0  0  0  0  0
  -36.7890   58.5530   63.8960 C   0  0  1  0  0  0  0  0  0  0  0  0
  -27.0713   57.1667   63.4279 O   0  0  0  0  0  0  0  0  0  0  0  0
  -35.3080   58.3090   63.6770 C   0  0  0  0  0  0  0  0  0  0  0  0
  -37.9668   62.5543   67.3434 O   0  0  0  0  0  0  0  0  0  0  0  0
  -33.0235   59.4060   63.6615 C   0  0  1  0  0  0  0  0  0  0  0  0
  -33.7378   62.6006   67.6426 O   0  0  0  0  0  0  0  0  0  0  0  0
  -32.1350   58.2518   64.1003 C   0  0  0  0  0  0  0  0  0  0  0  0
  -33.0350   59.5450   62.1442 C   0  0  0  0  0  0  0  0  0  0  0  0
  -30.7331   58.3392   63.5495 C   0  0  0  0  0  0  0  0  0  0  0  0
  -37.1633   61.0492   64.1705 C   0  0  0  0  0  0  0  0  0  0  0  0
  -39.4234   62.5800   60.2597 C   0  0  0  0  0  0  0  0  0  0  0  0
  -39.4757   64.0059   59.6945 C   0  0  0  0  0  0  0  0  0  0  0  0
  -38.2221   64.2831   58.8425 C   0  0  0  0  0  0  0  0  0  0  0  0
  -38.1842   65.7038   58.2481 C   0  0  0  0  0  0  0  0  0  0  0  0
  -38.1823   66.8360   59.2921 C   0  0  0  0  0  0  0  0  0  0  0  0
  -36.9606   66.7825   60.2332 C   0  0  0  0  0  0  0  0  0  0  0  0
  -36.8330   65.4726   61.0453 C   0  0  0  0  0  0  0  0  0  0  0  0
  -35.6213   65.4526   61.9843 C   0  0  0  0  0  0  0  0  0  0  0  0
  -34.2601   65.6198   61.3015 C   0  0  0  0  0  0  0  0  0  0  0  0
  -34.0105   64.5068   60.2675 C   0  0  0  0  0  0  0  0  0  0  0  0
  -32.6515   64.6088   59.5586 C   0  0  0  0  0  0  0  0  0  0  0  0
  -32.3662   63.5308   58.5078 C   0  0  0  0  0  0  0  0  0  0  0  0
  -32.3923   62.0831   59.0585 C   0  0  0  0  0  0  0  0  0  0  0  0
  -33.7734   61.7264   59.6447 C   0  0  0  0  0  0  0  0  0  0  0  0
  -34.9725   61.7753   58.6903 C   0  0  0  0  0  0  0  0  0  0  0  0
  -28.0269   58.2619   66.7385 C   0  0  0  0  0  0  0  0  0  0  0  0
  -27.6959   59.7630   66.8368 C   0  0  0  0  0  0  0  0  0  0  0  0
  -26.8753   60.3232   65.6867 C   0  0  0  0  0  0  0  0  0  0  0  0
  -27.6375   60.3374   64.3590 C   0  0  0  0  0  0  0  0  0  0  0  0
  -28.3832   59.0672   63.9171 C   0  0  1  0  0  0  0  0  0  0  0  0
  -27.5432   57.8684   64.3120 C   0  0  0  0  0  0  0  0  0  0  0  0
  -38.3591   62.5977   65.9720 C   0  0  0  0  0  0  0  0  0  0  0  0
  -36.5878   62.1379   67.3963 C   0  0  0  0  0  0  0  0  0  0  0  0
  -37.0953   62.2061   65.1569 C   0  0  1  0  0  0  0  0  0  0  0  0
  -34.4318   62.2544   68.7336 C   0  0  0  0  0  0  0  0  0  0  0  0
  -33.7742   62.1397   69.9654 C   0  0  0  0  0  0  0  0  0  0  0  0
  -34.4784   61.7686   71.1233 C   0  0  0  0  0  0  0  0  0  0  0  0
  -35.8504   61.5176   71.0644 C   0  0  0  0  0  0  0  0  0  0  0  0
  -36.5122   61.6368   69.8391 C   0  0  0  0  0  0  0  0  0  0  0  0
  -35.8075   62.0000   68.6754 C   0  0  0  0  0  0  0  0  0  0  0  0
  -25.5068   54.5162   67.0312 H   0  0  0  0  0  0  0  0  0  0  0  0
  -27.6376   54.4881   66.1171 H   0  0  0  0  0  0  0  0  0  0  0  0
  -27.2435   55.6155   68.1047 H   0  0  0  0  0  0  0  0  0  0  0  0
  -42.4770   61.3868   62.3542 H   0  0  0  0  0  0  0  0  0  0  0  0
  -39.5991   60.0433   59.8792 H   0  0  0  0  0  0  0  0  0  0  0  0
  -41.1648   59.2910   59.8012 H   0  0  0  0  0  0  0  0  0  0  0  0
  -30.0997   59.4425   65.0910 H   0  0  0  0  0  0  0  0  0  0  0  0
  -39.5837   57.8704   61.0092 H   0  0  0  0  0  0  0  0  0  0  0  0
  -40.8832   58.5080   62.0924 H   0  0  0  0  0  0  0  0  0  0  0  0
  -36.7487   59.7503   65.6024 H   0  0  0  0  0  0  0  0  0  0  0  0
  -39.1508   59.9672   63.1958 H   0  0  0  0  0  0  0  0  0  0  0  0
  -37.3289   57.8116   61.8242 H   0  0  0  0  0  0  0  0  0  0  0  0
  -37.2383   57.7881   64.4943 H   0  0  0  0  0  0  0  0  0  0  0  0
  -32.6376   60.3411   64.0105 H   0  0  0  0  0  0  0  0  0  0  0  0
  -32.8177   62.7660   67.7057 H   0  0  0  0  0  0  0  0  0  0  0  0
  -32.5759   57.3364   63.7647 H   0  0  0  0  0  0  0  0  0  0  0  0
  -32.0611   58.2945   65.1669 H   0  0  0  0  0  0  0  0  0  0  0  0
  -33.4113   58.6441   61.7064 H   0  0  0  0  0  0  0  0  0  0  0  0
  -32.0394   59.7226   61.7948 H   0  0  0  0  0  0  0  0  0  0  0  0
  -33.6624   60.3658   61.8660 H   0  0  0  0  0  0  0  0  0  0  0  0
  -39.3594   61.8970   59.4385 H   0  0  0  0  0  0  0  0  0  0  0  0
  -38.5708   62.5390   60.9049 H   0  0  0  0  0  0  0  0  0  0  0  0
  -39.5162   64.7059   60.5028 H   0  0  0  0  0  0  0  0  0  0  0  0
  -40.3462   64.1082   59.0809 H   0  0  0  0  0  0  0  0  0  0  0  0
  -38.1972   63.5785   58.0376 H   0  0  0  0  0  0  0  0  0  0  0  0
  -37.3751   64.1903   59.4897 H   0  0  0  0  0  0  0  0  0  0  0  0
  -39.0442   65.8272   57.6235 H   0  0  0  0  0  0  0  0  0  0  0  0
  -37.2614   65.7838   57.7124 H   0  0  0  0  0  0  0  0  0  0  0  0
  -39.0715   66.7579   59.8821 H   0  0  0  0  0  0  0  0  0  0  0  0
  -38.1376   67.7633   58.7602 H   0  0  0  0  0  0  0  0  0  0  0  0
  -37.0341   67.5973   60.9229 H   0  0  0  0  0  0  0  0  0  0  0  0
  -36.0932   66.8392   59.6092 H   0  0  0  0  0  0  0  0  0  0  0  0
  -36.7440   64.6560   60.3597 H   0  0  0  0  0  0  0  0  0  0  0  0
  -37.7074   65.3943   61.6571 H   0  0  0  0  0  0  0  0  0  0  0  0
  -35.6190   64.5155   62.5008 H   0  0  0  0  0  0  0  0  0  0  0  0
  -35.7339   66.2983   62.6300 H   0  0  0  0  0  0  0  0  0  0  0  0
  -33.4910   65.5836   62.0446 H   0  0  0  0  0  0  0  0  0  0  0  0
  -34.2517   66.5609   60.7924 H   0  0  0  0  0  0  0  0  0  0  0  0
  -34.7813   64.5561   59.5269 H   0  0  0  0  0  0  0  0  0  0  0  0
  -34.0131   63.5799   60.8021 H   0  0  0  0  0  0  0  0  0  0  0  0
  -31.8867   64.5509   60.3047 H   0  0  0  0  0  0  0  0  0  0  0  0
  -32.6698   65.5368   59.0262 H   0  0  0  0  0  0  0  0  0  0  0  0
  -31.3970   63.7146   58.0934 H   0  0  0  0  0  0  0  0  0  0  0  0
  -33.1480   63.5967   57.7803 H   0  0  0  0  0  0  0  0  0  0  0  0
  -31.6537   61.9901   59.8271 H   0  0  0  0  0  0  0  0  0  0  0  0
  -32.1873   61.4127   58.2501 H   0  0  0  0  0  0  0  0  0  0  0  0
  -33.9701   62.4096   60.4443 H   0  0  0  0  0  0  0  0  0  0  0  0
  -33.6933   60.6997   59.9352 H   0  0  0  0  0  0  0  0  0  0  0  0
  -35.1188   62.7800   58.3525 H   0  0  0  0  0  0  0  0  0  0  0  0
  -35.8500   61.4399   59.2026 H   0  0  0  0  0  0  0  0  0  0  0  0
  -34.7856   61.1401   57.8498 H   0  0  0  0  0  0  0  0  0  0  0  0
  -27.7385   57.7784   67.6485 H   0  0  0  0  0  0  0  0  0  0  0  0
  -29.0788   58.1517   66.5765 H   0  0  0  0  0  0  0  0  0  0  0  0
  -27.1482   59.9223   67.7421 H   0  0  0  0  0  0  0  0  0  0  0  0
  -28.6346   60.2758   66.8082 H   0  0  0  0  0  0  0  0  0  0  0  0
  -25.9978   59.7222   65.5696 H   0  0  0  0  0  0  0  0  0  0  0  0
  -26.6357   61.3375   65.9289 H   0  0  0  0  0  0  0  0  0  0  0  0
  -26.9279   60.5680   63.5920 H   0  0  0  0  0  0  0  0  0  0  0  0
  -28.4175   61.0526   64.5170 H   0  0  0  0  0  0  0  0  0  0  0  0
  -28.4775   59.0928   62.8516 H   0  0  0  0  0  0  0  0  0  0  0  0
  -38.6821   63.5830   65.7079 H   0  0  0  0  0  0  0  0  0  0  0  0
  -39.1755   61.9348   65.7750 H   0  0  0  0  0  0  0  0  0  0  0  0
  -36.8688   62.9840   64.4580 H   0  0  0  0  0  0  0  0  0  0  0  0
  -32.7616   62.3299   70.0230 H   0  0  0  0  0  0  0  0  0  0  0  0
  -33.9788   61.6811   72.0220 H   0  0  0  0  0  0  0  0  0  0  0  0
  -36.3693   61.2475   71.9146 H   0  0  0  0  0  0  0  0  0  0  0  0
  -37.5270   61.4569   69.7868 H   0  0  0  0  0  0  0  0  0  0  0  0
  1  2  1  0  0  0  0
  1  5  1  0  0  0  0
  1  7  1  0  0  0  0
  2 18  2  0  0  0  0
  2 29  1  0  0  0  0
  3 21  2  0  0  0  0
  4  6  1  0  0  0  0
  4 59  1  0  0  0  0
  4 60  1  0  0  0  0
  4 61  1  0  0  0  0
  5 62  1  0  0  0  0
  6 14  1  0  0  0  0
  7 10  1  0  0  0  0
  7 63  1  0  0  0  0
  7 64  1  0  0  0  0
  8 27  1  0  0  0  0
  8 48  1  0  0  0  0
  8 65  1  0  0  0  0
  9 21  1  0  0  0  0
  9 23  1  0  0  0  0
 10 13  1  0  0  0  0
 10 66  1  0  0  0  0
 10 67  1  0  0  0  0
 11 19  1  0  0  0  0
 11 28  1  0  0  0  0
 11 68  1  0  0  0  0
 12 27  2  0  0  0  0
 13 16  2  0  0  0  0
 13 69  1  0  0  0  0
 14 44  1  0  0  0  0
 14 49  1  0  0  0  0
 15 28  2  0  0  0  0
 16 19  1  0  0  0  0
 16 70  1  0  0  0  0
 17 51  2  0  0  0  0
 17 52  1  0  0  0  0
 19 21  1  0  0  0  0
 19 71  1  1  0  0  0
 20 49  2  0  0  0  0
 22 50  1  0  0  0  0
 22 51  1  0  0  0  0
 23 25  1  0  0  0  0
 23 26  1  0  0  0  0
 23 72  1  1  0  0  0
 24 53  1  0  0  0  0
 24 73  1  0  0  0  0
 25 27  1  0  0  0  0
 25 74  1  0  0  0  0
 25 75  1  0  0  0  0
 26 76  1  0  0  0  0
 26 77  1  0  0  0  0
 26 78  1  0  0  0  0
 28 52  1  0  0  0  0
 29 30  1  0  0  0  0
 29 79  1  0  0  0  0
 29 80  1  0  0  0  0
 30 31  1  0  0  0  0
 30 81  1  0  0  0  0
 30 82  1  0  0  0  0
 31 32  1  0  0  0  0
 31 83  1  0  0  0  0
 31 84  1  0  0  0  0
 32 33  1  0  0  0  0
 32 85  1  0  0  0  0
 32 86  1  0  0  0  0
 33 34  1  0  0  0  0
 33 87  1  0  0  0  0
 33 88  1  0  0  0  0
 34 35  1  0  0  0  0
 34 89  1  0  0  0  0
 34 90  1  0  0  0  0
 35 36  1  0  0  0  0
 35 91  1  0  0  0  0
 35 92  1  0  0  0  0
 36 37  1  0  0  0  0
 36 93  1  0  0  0  0
 36 94  1  0  0  0  0
 37 38  1  0  0  0  0
 37 95  1  0  0  0  0
 37 96  1  0  0  0  0
 38 39  1  0  0  0  0
 38 97  1  0  0  0  0
 38 98  1  0  0  0  0
 39 40  1  0  0  0  0
 39 99  1  0  0  0  0
 39100  1  0  0  0  0
 40 41  1  0  0  0  0
 40101  1  0  0  0  0
 40102  1  0  0  0  0
 41 42  1  0  0  0  0
 41103  1  0  0  0  0
 41104  1  0  0  0  0
 42 43  1  0  0  0  0
 42105  1  0  0  0  0
 42106  1  0  0  0  0
 43107  1  0  0  0  0
 43108  1  0  0  0  0
 43109  1  0  0  0  0
 44 45  1  0  0  0  0
 44110  1  0  0  0  0
 44111  1  0  0  0  0
 45 46  1  0  0  0  0
 45112  1  0  0  0  0
 45113  1  0  0  0  0
 46 47  1  0  0  0  0
 46114  1  0  0  0  0
 46115  1  0  0  0  0
 47 48  1  0  0  0  0
 47116  1  0  0  0  0
 47117  1  0  0  0  0
 48 49  1  0  0  0  0
 48118  1  6  0  0  0
 50 52  1  0  0  0  0
 50119  1  0  0  0  0
 50120  1  0  0  0  0
 51 58  1  0  0  0  0
 52121  1  6  0  0  0
 53 54  2  0  0  0  0
 53 58  1  0  0  0  0
 54 55  1  0  0  0  0
 54122  1  0  0  0  0
 55 56  2  0  0  0  0
 55123  1  0  0  0  0
 56 57  1  0  0  0  0
 56124  1  0  0  0  0
 57 58  2  0  0  0  0
 57125  1  0  0  0  0
M  END
$$$$
/media/chris/experiments/cd1a-new-docking/inputs/ligands/1xz0_ligand.pdb
 OpenBabel07022319323D

125127  0  0  1  0  0  0  0  0999 V2000
  -38.7199   58.6964   57.8395 N   0  0  0  0  0  0  0  0  0  0  0  0
  -38.6237   58.6922   56.4836 C   0  0  0  0  0  0  0  0  0  0  0  0
  -34.8323   58.2135   62.5576 O   0  0  0  0  0  0  0  0  0  0  0  0
  -37.0164   51.6842   59.5046 Si  0  0  0  0  0  0  0  0  0  0  0  0
  -39.9171   59.1727   58.3922 O   0  0  0  0  0  0  0  0  0  0  0  0
  -36.9460   52.1582   61.2269 O   0  0  0  0  0  0  0  0  0  0  0  0
  -37.7348   58.2656   58.8364 C   0  0  0  0  0  0  0  0  0  0  0  0
  -34.5221   55.7714   62.1871 N   0  0  0  0  0  0  0  0  0  0  0  0
  -34.4223   58.1136   64.8296 O   0  0  0  0  0  0  0  0  0  0  0  0
  -37.9322   59.1139   60.1095 C   0  0  0  0  0  0  0  0  0  0  0  0
  -36.8950   59.8150   64.6310 N   0  0  0  0  0  0  0  0  0  0  0  0
  -33.1295   57.5048   61.7729 O   0  0  0  0  0  0  0  0  0  0  0  0
  -36.9889   58.8455   61.2943 C   0  0  0  0  0  0  0  0  0  0  0  0
  -36.4673   53.3814   61.5883 N   0  0  0  0  0  0  0  0  0  0  0  0
  -37.3593   61.1359   66.4234 O   0  0  0  0  0  0  0  0  0  0  0  0
  -37.6390   58.4030   62.6110 C   0  0  0  0  0  0  0  0  0  0  0  0
  -36.3796   57.9692   66.9399 N   0  0  0  0  0  0  0  0  0  0  0  0
  -39.5503   59.0904   55.7780 O   0  0  0  0  0  0  0  0  0  0  0  0
  -36.7890   58.5530   63.8960 C   0  0  1  0  0  0  0  0  0  0  0  0
  -34.7017   52.4090   62.5894 O   0  0  0  0  0  0  0  0  0  0  0  0
  -35.3080   58.3090   63.6770 C   0  0  0  0  0  0  0  0  0  0  0  0
  -37.9588   56.5175   66.3148 O   0  0  0  0  0  0  0  0  0  0  0  0
  -33.0239   57.8159   64.6579 C   0  0  1  0  0  0  0  0  0  0  0  0
  -37.1960   54.0018   67.3874 O   0  0  0  0  0  0  0  0  0  0  0  0
  -32.9027   56.5250   63.8622 C   0  0  0  0  0  0  0  0  0  0  0  0
  -32.2130   58.9352   64.0166 C   0  0  0  0  0  0  0  0  0  0  0  0
  -33.5230   56.6132   62.4897 C   0  0  0  0  0  0  0  0  0  0  0  0
  -37.2920   60.0330   65.8968 C   0  0  0  0  0  0  0  0  0  0  0  0
  -37.3366   58.1747   55.8329 C   0  0  0  0  0  0  0  0  0  0  0  0
  -37.5360   57.5293   54.4548 C   0  0  0  0  0  0  0  0  0  0  0  0
  -36.1859   57.0311   53.9041 C   0  0  0  0  0  0  0  0  0  0  0  0
  -36.2918   56.3822   52.5109 C   0  0  0  0  0  0  0  0  0  0  0  0
  -37.2268   55.1603   52.4419 C   0  0  0  0  0  0  0  0  0  0  0  0
  -38.6847   55.4982   52.8182 C   0  0  0  0  0  0  0  0  0  0  0  0
  -39.6535   54.2934   52.7780 C   0  0  0  0  0  0  0  0  0  0  0  0
  -39.7399   53.6260   51.4005 C   0  0  0  0  0  0  0  0  0  0  0  0
  -40.7012   52.4368   51.3075 C   0  0  0  0  0  0  0  0  0  0  0  0
  -40.3099   51.3205   52.2930 C   0  0  0  0  0  0  0  0  0  0  0  0
  -41.2275   50.0898   52.2361 C   0  0  0  0  0  0  0  0  0  0  0  0
  -40.8860   48.9592   53.2122 C   0  0  0  0  0  0  0  0  0  0  0  0
  -41.8223   47.7291   53.1133 C   0  0  0  0  0  0  0  0  0  0  0  0
  -41.4334   46.6395   54.1330 C   0  0  0  0  0  0  0  0  0  0  0  0
  -42.2684   45.3534   54.1355 C   0  0  0  0  0  0  0  0  0  0  0  0
  -37.1822   54.5583   61.0728 C   0  0  0  0  0  0  0  0  0  0  0  0
  -37.9021   55.3017   62.2138 C   0  0  0  0  0  0  0  0  0  0  0  0
  -37.5883   54.8009   63.6140 C   0  0  0  0  0  0  0  0  0  0  0  0
  -36.1412   55.0694   64.0354 C   0  0  0  0  0  0  0  0  0  0  0  0
  -35.0051   54.7008   63.0668 C   0  0  1  0  0  0  0  0  0  0  0  0
  -35.3798   53.4045   62.3754 C   0  0  0  0  0  0  0  0  0  0  0  0
  -38.6321   57.7757   66.3233 C   0  0  0  0  0  0  0  0  0  0  0  0
  -36.5861   56.7475   66.6902 C   0  0  0  0  0  0  0  0  0  0  0  0
  -37.5729   58.8203   66.7723 C   0  0  1  0  0  0  0  0  0  0  0  0
  -35.9234   54.3382   67.1442 C   0  0  0  0  0  0  0  0  0  0  0  0
  -34.9227   53.3602   67.2152 C   0  0  0  0  0  0  0  0  0  0  0  0
  -33.5784   53.6899   66.9736 C   0  0  0  0  0  0  0  0  0  0  0  0
  -33.2207   54.9995   66.6484 C   0  0  0  0  0  0  0  0  0  0  0  0
  -34.2162   55.9774   66.5701 C   0  0  0  0  0  0  0  0  0  0  0  0
  -35.5631   55.6519   66.8203 C   0  0  0  0  0  0  0  0  0  0  0  0
  -37.5499   50.3727   59.3961 H   0  0  0  0  0  0  0  0  0  0  0  0
  -35.7083   51.7102   58.9527 H   0  0  0  0  0  0  0  0  0  0  0  0
  -37.8468   52.5931   58.7970 H   0  0  0  0  0  0  0  0  0  0  0  0
  -40.5190   59.4386   57.6794 H   0  0  0  0  0  0  0  0  0  0  0  0
  -36.7460   58.4110   58.4543 H   0  0  0  0  0  0  0  0  0  0  0  0
  -37.8665   57.2277   59.0606 H   0  0  0  0  0  0  0  0  0  0  0  0
  -34.9624   55.8792   61.3133 H   0  0  0  0  0  0  0  0  0  0  0  0
  -38.9324   58.9496   60.4524 H   0  0  0  0  0  0  0  0  0  0  0  0
  -37.7114   60.1161   59.8066 H   0  0  0  0  0  0  0  0  0  0  0  0
  -36.6386   60.6199   64.1253 H   0  0  0  0  0  0  0  0  0  0  0  0
  -35.9667   58.9578   61.2074 H   0  0  0  0  0  0  0  0  0  0  0  0
  -38.5981   58.0231   62.6390 H   0  0  0  0  0  0  0  0  0  0  0  0
  -37.2383   57.7881   64.4943 H   0  0  0  0  0  0  0  0  0  0  0  0
  -32.5988   57.7062   65.6337 H   0  0  0  0  0  0  0  0  0  0  0  0
  -37.4135   53.1161   67.6024 H   0  0  0  0  0  0  0  0  0  0  0  0
  -33.3900   55.7430   64.4062 H   0  0  0  0  0  0  0  0  0  0  0  0
  -31.8591   56.3306   63.7279 H   0  0  0  0  0  0  0  0  0  0  0  0
  -32.5741   59.1145   63.0255 H   0  0  0  0  0  0  0  0  0  0  0  0
  -31.1825   58.6501   63.9746 H   0  0  0  0  0  0  0  0  0  0  0  0
  -32.3129   59.8270   64.5994 H   0  0  0  0  0  0  0  0  0  0  0  0
  -36.9027   57.4450   56.4842 H   0  0  0  0  0  0  0  0  0  0  0  0
  -36.7075   59.0270   55.6820 H   0  0  0  0  0  0  0  0  0  0  0  0
  -37.9480   58.2519   53.7817 H   0  0  0  0  0  0  0  0  0  0  0  0
  -38.2038   56.6987   54.5500 H   0  0  0  0  0  0  0  0  0  0  0  0
  -35.7886   56.3078   54.5852 H   0  0  0  0  0  0  0  0  0  0  0  0
  -35.5516   57.8871   53.8050 H   0  0  0  0  0  0  0  0  0  0  0  0
  -35.3126   56.0704   52.2128 H   0  0  0  0  0  0  0  0  0  0  0  0
  -36.7121   57.1226   51.8628 H   0  0  0  0  0  0  0  0  0  0  0  0
  -36.8639   54.4141   53.1174 H   0  0  0  0  0  0  0  0  0  0  0  0
  -37.2284   54.8139   51.4295 H   0  0  0  0  0  0  0  0  0  0  0  0
  -39.0434   56.2384   52.1339 H   0  0  0  0  0  0  0  0  0  0  0  0
  -38.6658   55.8395   53.8321 H   0  0  0  0  0  0  0  0  0  0  0  0
  -40.6301   54.6345   53.0512 H   0  0  0  0  0  0  0  0  0  0  0  0
  -39.2747   53.5612   53.4600 H   0  0  0  0  0  0  0  0  0  0  0  0
  -38.7615   53.2812   51.1385 H   0  0  0  0  0  0  0  0  0  0  0  0
  -40.1252   54.3701   50.7352 H   0  0  0  0  0  0  0  0  0  0  0  0
  -40.6768   52.0463   50.3116 H   0  0  0  0  0  0  0  0  0  0  0  0
  -41.6842   52.7776   51.5573 H   0  0  0  0  0  0  0  0  0  0  0  0
  -40.3433   51.7201   53.2851 H   0  0  0  0  0  0  0  0  0  0  0  0
  -39.3305   50.9907   52.0157 H   0  0  0  0  0  0  0  0  0  0  0  0
  -41.1823   49.6920   51.2438 H   0  0  0  0  0  0  0  0  0  0  0  0
  -42.1985   50.4372   52.5212 H   0  0  0  0  0  0  0  0  0  0  0  0
  -40.9452   49.3465   54.2079 H   0  0  0  0  0  0  0  0  0  0  0  0
  -39.9042   48.6191   52.9567 H   0  0  0  0  0  0  0  0  0  0  0  0
  -41.7571   47.3209   52.1264 H   0  0  0  0  0  0  0  0  0  0  0  0
  -42.8206   48.0488   53.3279 H   0  0  0  0  0  0  0  0  0  0  0  0
  -41.5048   47.0717   55.1092 H   0  0  0  0  0  0  0  0  0  0  0  0
  -40.4504   46.3301   53.8452 H   0  0  0  0  0  0  0  0  0  0  0  0
  -43.2752   45.5823   54.4165 H   0  0  0  0  0  0  0  0  0  0  0  0
  -41.8519   44.6591   54.8351 H   0  0  0  0  0  0  0  0  0  0  0  0
  -42.2608   44.9212   53.1567 H   0  0  0  0  0  0  0  0  0  0  0  0
  -37.9043   54.2416   60.3495 H   0  0  0  0  0  0  0  0  0  0  0  0
  -36.4730   55.2219   60.6238 H   0  0  0  0  0  0  0  0  0  0  0  0
  -38.9563   55.2066   62.0571 H   0  0  0  0  0  0  0  0  0  0  0  0
  -37.5528   56.3124   62.1756 H   0  0  0  0  0  0  0  0  0  0  0  0
  -37.7624   53.7456   63.6455 H   0  0  0  0  0  0  0  0  0  0  0  0
  -38.2229   55.3310   64.2930 H   0  0  0  0  0  0  0  0  0  0  0  0
  -35.9714   54.5246   64.9405 H   0  0  0  0  0  0  0  0  0  0  0  0
  -36.0861   56.1358   64.1037 H   0  0  0  0  0  0  0  0  0  0  0  0
  -34.1166   54.5463   63.6426 H   0  0  0  0  0  0  0  0  0  0  0  0
  -39.4506   57.7555   67.0121 H   0  0  0  0  0  0  0  0  0  0  0  0
  -39.0354   58.0128   65.3610 H   0  0  0  0  0  0  0  0  0  0  0  0
  -37.9316   59.3406   67.6358 H   0  0  0  0  0  0  0  0  0  0  0  0
  -35.1757   52.3871   67.4475 H   0  0  0  0  0  0  0  0  0  0  0  0
  -32.8515   52.9600   67.0368 H   0  0  0  0  0  0  0  0  0  0  0  0
  -32.2341   55.2424   66.4680 H   0  0  0  0  0  0  0  0  0  0  0  0
  -33.9616   56.9475   66.3266 H   0  0  0  0  0  0  0  0  0  0  0  0
  1  2  1  0  0  0  0
  1  5  1  0  0  0  0
  1  7  1  0  0  0  0
  2 18  2  0  0  0  0
  2 29  1  0  0  0  0
  3 21  2  0  0  0  0
  4  6  1  0  0  0  0
  4 59  1  0  0  0  0
  4 60  1  0  0  0  0
  4 61  1  0  0  0  0
  5 62  1  0  0  0  0
  6 14  1  0  0  0  0
  7 10  1  0  0  0  0
  7 63  1  0  0  0  0
  7 64  1  0  0  0  0
  8 27  1  0  0  0  0
  8 48  1  0  0  0  0
  8 65  1  0  0  0  0
  9 21  1  0  0  0  0
  9 23  1  0  0  0  0
 10 13  1  0  0  0  0
 10 66  1  0  0  0  0
 10 67  1  0  0  0  0
 11 19  1  0  0  0  0
 11 28  1  0  0  0  0
 11 68  1  0  0  0  0
 12 27  2  0  0  0  0
 13 16  2  0  0  0  0
 13 69  1  0  0  0  0
 14 44  1  0  0  0  0
 14 49  1  0  0  0  0
 15 28  2  0  0  0  0
 16 19  1  0  0  0  0
 16 70  1  0  0  0  0
 17 51  2  0  0  0  0
 17 52  1  0  0  0  0
 19 21  1  0  0  0  0
 19 71  1  1  0  0  0
 20 49  2  0  0  0  0
 22 50  1  0  0  0  0
 22 51  1  0  0  0  0
 23 25  1  0  0  0  0
 23 26  1  0  0  0  0
 23 72  1  1  0  0  0
 24 53  1  0  0  0  0
 24 73  1  0  0  0  0
 25 27  1  0  0  0  0
 25 74  1  0  0  0  0
 25 75  1  0  0  0  0
 26 76  1  0  0  0  0
 26 77  1  0  0  0  0
 26 78  1  0  0  0  0
 28 52  1  0  0  0  0
 29 30  1  0  0  0  0
 29 79  1  0  0  0  0
 29 80  1  0  0  0  0
 30 31  1  0  0  0  0
 30 81  1  0  0  0  0
 30 82  1  0  0  0  0
 31 32  1  0  0  0  0
 31 83  1  0  0  0  0
 31 84  1  0  0  0  0
 32 33  1  0  0  0  0
 32 85  1  0  0  0  0
 32 86  1  0  0  0  0
 33 34  1  0  0  0  0
 33 87  1  0  0  0  0
 33 88  1  0  0  0  0
 34 35  1  0  0  0  0
 34 89  1  0  0  0  0
 34 90  1  0  0  0  0
 35 36  1  0  0  0  0
 35 91  1  0  0  0  0
 35 92  1  0  0  0  0
 36 37  1  0  0  0  0
 36 93  1  0  0  0  0
 36 94  1  0  0  0  0
 37 38  1  0  0  0  0
 37 95  1  0  0  0  0
 37 96  1  0  0  0  0
 38 39  1  0  0  0  0
 38 97  1  0  0  0  0
 38 98  1  0  0  0  0
 39 40  1  0  0  0  0
 39 99  1  0  0  0  0
 39100  1  0  0  0  0
 40 41  1  0  0  0  0
 40101  1  0  0  0  0
 40102  1  0  0  0  0
 41 42  1  0  0  0  0
 41103  1  0  0  0  0
 41104  1  0  0  0  0
 42 43  1  0  0  0  0
 42105  1  0  0  0  0
 42106  1  0  0  0  0
 43107  1  0  0  0  0
 43108  1  0  0  0  0
 43109  1  0  0  0  0
 44 45  1  0  0  0  0
 44110  1  0  0  0  0
 44111  1  0  0  0  0
 45 46  1  0  0  0  0
 45112  1  0  0  0  0
 45113  1  0  0  0  0
 46 47  1  0  0  0  0
 46114  1  0  0  0  0
 46115  1  0  0  0  0
 47 48  1  0  0  0  0
 47116  1  0  0  0  0
 47117  1  0  0  0  0
 48 49  1  0  0  0  0
 48118  1  1  0  0  0
 50 52  1  0  0  0  0
 50119  1  0  0  0  0
 50120  1  0  0  0  0
 51 58  1  0  0  0  0
 52121  1  1  0  0  0
 53 54  2  0  0  0  0
 53 58  1  0  0  0  0
 54 55  1  0  0  0  0
 54122  1  0  0  0  0
 55 56  2  0  0  0  0
 55123  1  0  0  0  0
 56 57  1  0  0  0  0
 56124  1  0  0  0  0
 57 58  2  0  0  0  0
 57125  1  0  0  0  0
M  END
$$$$
/media/chris/experiments/cd1a-new-docking/inputs/ligands/1xz0_ligand.pdb
 OpenBabel07022319323D

125127  0  0  1  0  0  0  0  0999 V2000
  -41.3459   57.8603   60.2293 N   0  0  0  0  0  0  0  0  0  0  0  0
  -41.7583   58.8374   59.3791 C   0  0  0  0  0  0  0  0  0  0  0  0
  -34.6358   57.6816   64.4788 O   0  0  0  0  0  0  0  0  0  0  0  0
  -39.5523   62.1846   61.4790 Si  0  0  0  0  0  0  0  0  0  0  0  0
  -41.9975   56.6221   60.1416 O   0  0  0  0  0  0  0  0  0  0  0  0
  -38.2131   62.8280   62.4731 O   0  0  0  0  0  0  0  0  0  0  0  0
  -40.2943   57.9078   61.2500 C   0  0  0  0  0  0  0  0  0  0  0  0
  -33.7957   62.2764   62.2843 N   0  0  0  0  0  0  0  0  0  0  0  0
  -34.6370   58.8922   62.5105 O   0  0  0  0  0  0  0  0  0  0  0  0
  -39.6678   59.3173   61.2339 C   0  0  0  0  0  0  0  0  0  0  0  0
  -36.8950   59.8150   64.6310 N   0  0  0  0  0  0  0  0  0  0  0  0
  -34.8515   61.7950   64.2257 O   0  0  0  0  0  0  0  0  0  0  0  0
  -38.5208   59.5953   62.2201 C   0  0  0  0  0  0  0  0  0  0  0  0
  -36.9179   62.5691   62.1392 N   0  0  0  0  0  0  0  0  0  0  0  0
  -35.4578   59.5184   66.3686 O   0  0  0  0  0  0  0  0  0  0  0  0
  -37.6390   58.4030   62.6110 C   0  0  0  0  0  0  0  0  0  0  0  0
  -36.4991   61.5471   67.8314 N   0  0  0  0  0  0  0  0  0  0  0  0
  -42.6643   58.6373   58.5703 O   0  0  0  0  0  0  0  0  0  0  0  0
  -36.7890   58.5530   63.8960 C   0  0  1  0  0  0  0  0  0  0  0  0
  -36.2497   64.4067   63.2538 O   0  0  0  0  0  0  0  0  0  0  0  0
  -35.3080   58.3090   63.6770 C   0  0  0  0  0  0  0  0  0  0  0  0
  -38.5816   62.3031   67.5420 O   0  0  0  0  0  0  0  0  0  0  0  0
  -33.2588   59.3059   62.5681 C   0  0  1  0  0  0  0  0  0  0  0  0
  -39.9743   61.6612   69.9735 O   0  0  0  0  0  0  0  0  0  0  0  0
  -33.1203   60.3623   63.6540 C   0  0  0  0  0  0  0  0  0  0  0  0
  -32.2655   58.1695   62.7768 C   0  0  0  0  0  0  0  0  0  0  0  0
  -33.9818   61.5773   63.4134 C   0  0  0  0  0  0  0  0  0  0  0  0
  -36.2648   60.2028   65.7534 C   0  0  0  0  0  0  0  0  0  0  0  0
  -41.0718   60.2062   59.4331 C   0  0  0  0  0  0  0  0  0  0  0  0
  -41.6291   61.2364   58.4414 C   0  0  0  0  0  0  0  0  0  0  0  0
  -40.8577   62.5642   58.5693 C   0  0  0  0  0  0  0  0  0  0  0  0
  -39.3531   62.4330   58.2656 C   0  0  0  0  0  0  0  0  0  0  0  0
  -39.0262   61.9485   56.8407 C   0  0  0  0  0  0  0  0  0  0  0  0
  -37.5103   61.8148   56.5852 C   0  0  0  0  0  0  0  0  0  0  0  0
  -37.1388   61.3466   55.1589 C   0  0  0  0  0  0  0  0  0  0  0  0
  -35.6284   61.2057   54.9373 C   0  0  0  0  0  0  0  0  0  0  0  0
  -34.9244   60.1917   55.8446 C   0  0  0  0  0  0  0  0  0  0  0  0
  -35.1006   60.5519   57.3311 C   0  0  0  0  0  0  0  0  0  0  0  0
  -34.4016   59.5804   58.2942 C   0  0  0  0  0  0  0  0  0  0  0  0
  -32.8810   59.4702   58.1411 C   0  0  0  0  0  0  0  0  0  0  0  0
  -32.2144   58.4689   59.1172 C   0  0  0  0  0  0  0  0  0  0  0  0
  -32.7501   57.0375   58.9114 C   0  0  0  0  0  0  0  0  0  0  0  0
  -34.2569   56.8209   59.0964 C   0  0  0  0  0  0  0  0  0  0  0  0
  -36.6475   61.3039   61.4407 C   0  0  0  0  0  0  0  0  0  0  0  0
  -36.2159   61.5661   59.9855 C   0  0  0  0  0  0  0  0  0  0  0  0
  -35.9819   63.0253   59.6311 C   0  0  0  0  0  0  0  0  0  0  0  0
  -34.7706   63.6285   60.3473 C   0  0  0  0  0  0  0  0  0  0  0  0
  -34.6212   63.4139   61.8627 C   0  0  1  0  0  0  0  0  0  0  0  0
  -36.0016   63.4875   62.4855 C   0  0  0  0  0  0  0  0  0  0  0  0
  -38.1193   62.0522   66.2154 C   0  0  0  0  0  0  0  0  0  0  0  0
  -37.5235   61.9475   68.4541 C   0  0  0  0  0  0  0  0  0  0  0  0
  -36.6602   61.5392   66.3649 C   0  0  1  0  0  0  0  0  0  0  0  0
  -38.8379   61.9310   70.6272 C   0  0  0  0  0  0  0  0  0  0  0  0
  -38.8536   62.0522   72.0229 C   0  0  0  0  0  0  0  0  0  0  0  0
  -37.6759   62.3443   72.7314 C   0  0  0  0  0  0  0  0  0  0  0  0
  -36.4670   62.5087   72.0530 C   0  0  0  0  0  0  0  0  0  0  0  0
  -36.4449   62.3825   70.6612 C   0  0  0  0  0  0  0  0  0  0  0  0
  -37.6251   62.0985   69.9477 C   0  0  0  0  0  0  0  0  0  0  0  0
  -40.7933   62.5933   62.0351 H   0  0  0  0  0  0  0  0  0  0  0  0
  -39.4872   60.7663   61.4581 H   0  0  0  0  0  0  0  0  0  0  0  0
  -39.4403   62.6832   60.1541 H   0  0  0  0  0  0  0  0  0  0  0  0
  -42.6768   56.6624   59.4503 H   0  0  0  0  0  0  0  0  0  0  0  0
  -39.5448   57.1761   61.0317 H   0  0  0  0  0  0  0  0  0  0  0  0
  -40.7070   57.6986   62.2148 H   0  0  0  0  0  0  0  0  0  0  0  0
  -33.0529   62.0075   61.6968 H   0  0  0  0  0  0  0  0  0  0  0  0
  -40.4488   60.0177   61.4448 H   0  0  0  0  0  0  0  0  0  0  0  0
  -39.2224   59.4069   60.2651 H   0  0  0  0  0  0  0  0  0  0  0  0
  -37.5175   60.4746   64.2480 H   0  0  0  0  0  0  0  0  0  0  0  0
  -38.3525   60.5396   62.6009 H   0  0  0  0  0  0  0  0  0  0  0  0
  -37.6135   57.5411   62.0440 H   0  0  0  0  0  0  0  0  0  0  0  0
  -37.2383   57.7881   64.4943 H   0  0  0  0  0  0  0  0  0  0  0  0
  -33.0055   59.7065   61.6088 H   0  0  0  0  0  0  0  0  0  0  0  0
  -40.7742   61.5532   70.4494 H   0  0  0  0  0  0  0  0  0  0  0  0
  -32.0975   60.6736   63.6973 H   0  0  0  0  0  0  0  0  0  0  0  0
  -33.4443   59.9191   64.5724 H   0  0  0  0  0  0  0  0  0  0  0  0
  -32.4477   57.7060   63.7239 H   0  0  0  0  0  0  0  0  0  0  0  0
  -31.2689   58.5585   62.7559 H   0  0  0  0  0  0  0  0  0  0  0  0
  -32.3824   57.4459   61.9972 H   0  0  0  0  0  0  0  0  0  0  0  0
  -40.0321   60.0673   59.2220 H   0  0  0  0  0  0  0  0  0  0  0  0
  -41.2507   60.5983   60.4125 H   0  0  0  0  0  0  0  0  0  0  0  0
  -42.6642   61.4067   58.6520 H   0  0  0  0  0  0  0  0  0  0  0  0
  -41.5176   60.8607   57.4458 H   0  0  0  0  0  0  0  0  0  0  0  0
  -40.9709   62.9265   59.5696 H   0  0  0  0  0  0  0  0  0  0  0  0
  -41.2672   63.2368   57.8449 H   0  0  0  0  0  0  0  0  0  0  0  0
  -38.9321   61.7361   58.9599 H   0  0  0  0  0  0  0  0  0  0  0  0
  -38.9392   63.4158   58.3541 H   0  0  0  0  0  0  0  0  0  0  0  0
  -39.4300   62.6497   56.1406 H   0  0  0  0  0  0  0  0  0  0  0  0
  -39.4584   60.9765   56.7249 H   0  0  0  0  0  0  0  0  0  0  0  0
  -37.1151   61.1064   57.2830 H   0  0  0  0  0  0  0  0  0  0  0  0
  -37.0947   62.7938   56.7019 H   0  0  0  0  0  0  0  0  0  0  0  0
  -37.5191   62.0601   54.4581 H   0  0  0  0  0  0  0  0  0  0  0  0
  -37.5693   60.3765   55.0232 H   0  0  0  0  0  0  0  0  0  0  0  0
  -35.1797   62.1631   55.1012 H   0  0  0  0  0  0  0  0  0  0  0  0
  -35.5090   60.8412   53.9384 H   0  0  0  0  0  0  0  0  0  0  0  0
  -33.8804   60.1807   55.6103 H   0  0  0  0  0  0  0  0  0  0  0  0
  -35.3610   59.2294   55.6769 H   0  0  0  0  0  0  0  0  0  0  0  0
  -36.1468   60.5541   57.5554 H   0  0  0  0  0  0  0  0  0  0  0  0
  -34.6476   61.5106   57.4741 H   0  0  0  0  0  0  0  0  0  0  0  0
  -34.8187   58.6073   58.1393 H   0  0  0  0  0  0  0  0  0  0  0  0
  -34.5677   59.9733   59.2754 H   0  0  0  0  0  0  0  0  0  0  0  0
  -32.4560   60.4374   58.3108 H   0  0  0  0  0  0  0  0  0  0  0  0
  -32.6977   59.1037   57.1527 H   0  0  0  0  0  0  0  0  0  0  0  0
  -32.4178   58.7751   60.1221 H   0  0  0  0  0  0  0  0  0  0  0  0
  -31.1616   58.4641   58.9261 H   0  0  0  0  0  0  0  0  0  0  0  0
  -32.2454   56.4014   59.6083 H   0  0  0  0  0  0  0  0  0  0  0  0
  -32.5640   56.8183   57.8808 H   0  0  0  0  0  0  0  0  0  0  0  0
  -34.5241   57.0224   60.1127 H   0  0  0  0  0  0  0  0  0  0  0  0
  -34.5036   55.8076   58.8569 H   0  0  0  0  0  0  0  0  0  0  0  0
  -34.7943   57.4814   58.4485 H   0  0  0  0  0  0  0  0  0  0  0  0
  -37.5347   60.7057   61.4415 H   0  0  0  0  0  0  0  0  0  0  0  0
  -35.8551   60.7939   61.9477 H   0  0  0  0  0  0  0  0  0  0  0  0
  -36.9811   61.1877   59.3403 H   0  0  0  0  0  0  0  0  0  0  0  0
  -35.2722   61.0767   59.8637 H   0  0  0  0  0  0  0  0  0  0  0  0
  -36.8521   63.5858   59.9022 H   0  0  0  0  0  0  0  0  0  0  0  0
  -35.7879   63.0721   58.5798 H   0  0  0  0  0  0  0  0  0  0  0  0
  -34.8015   64.6850   60.1811 H   0  0  0  0  0  0  0  0  0  0  0  0
  -33.9366   63.1046   59.9292 H   0  0  0  0  0  0  0  0  0  0  0  0
  -34.0191   64.2084   62.2514 H   0  0  0  0  0  0  0  0  0  0  0  0
  -38.1403   62.9522   65.6372 H   0  0  0  0  0  0  0  0  0  0  0  0
  -38.7376   61.3390   65.7114 H   0  0  0  0  0  0  0  0  0  0  0  0
  -36.0045   62.1632   65.7943 H   0  0  0  0  0  0  0  0  0  0  0  0
  -39.7399   61.9256   72.5362 H   0  0  0  0  0  0  0  0  0  0  0  0
  -37.7048   62.4379   73.7588 H   0  0  0  0  0  0  0  0  0  0  0  0
  -35.6008   62.7207   72.5725 H   0  0  0  0  0  0  0  0  0  0  0  0
  -35.5550   62.4986   70.1517 H   0  0  0  0  0  0  0  0  0  0  0  0
  1  2  1  0  0  0  0
  1  5  1  0  0  0  0
  1  7  1  0  0  0  0
  2 18  2  0  0  0  0
  2 29  1  0  0  0  0
  3 21  2  0  0  0  0
  4  6  1  0  0  0  0
  4 59  1  0  0  0  0
  4 60  1  0  0  0  0
  4 61  1  0  0  0  0
  5 62  1  0  0  0  0
  6 14  1  0  0  0  0
  7 10  1  0  0  0  0
  7 63  1  0  0  0  0
  7 64  1  0  0  0  0
  8 27  1  0  0  0  0
  8 48  1  0  0  0  0
  8 65  1  0  0  0  0
  9 21  1  0  0  0  0
  9 23  1  0  0  0  0
 10 13  1  0  0  0  0
 10 66  1  0  0  0  0
 10 67  1  0  0  0  0
 11 19  1  0  0  0  0
 11 28  1  0  0  0  0
 11 68  1  0  0  0  0
 12 27  2  0  0  0  0
 13 16  2  0  0  0  0
 13 69  1  0  0  0  0
 14 44  1  0  0  0  0
 14 49  1  0  0  0  0
 15 28  2  0  0  0  0
 16 19  1  0  0  0  0
 16 70  1  0  0  0  0
 17 51  2  0  0  0  0
 17 52  1  0  0  0  0
 19 21  1  0  0  0  0
 19 71  1  1  0  0  0
 20 49  2  0  0  0  0
 22 50  1  0  0  0  0
 22 51  1  0  0  0  0
 23 25  1  0  0  0  0
 23 26  1  0  0  0  0
 23 72  1  6  0  0  0
 24 53  1  0  0  0  0
 24 73  1  0  0  0  0
 25 27  1  0  0  0  0
 25 74  1  0  0  0  0
 25 75  1  0  0  0  0
 26 76  1  0  0  0  0
 26 77  1  0  0  0  0
 26 78  1  0  0  0  0
 28 52  1  0  0  0  0
 29 30  1  0  0  0  0
 29 79  1  0  0  0  0
 29 80  1  0  0  0  0
 30 31  1  0  0  0  0
 30 81  1  0  0  0  0
 30 82  1  0  0  0  0
 31 32  1  0  0  0  0
 31 83  1  0  0  0  0
 31 84  1  0  0  0  0
 32 33  1  0  0  0  0
 32 85  1  0  0  0  0
 32 86  1  0  0  0  0
 33 34  1  0  0  0  0
 33 87  1  0  0  0  0
 33 88  1  0  0  0  0
 34 35  1  0  0  0  0
 34 89  1  0  0  0  0
 34 90  1  0  0  0  0
 35 36  1  0  0  0  0
 35 91  1  0  0  0  0
 35 92  1  0  0  0  0
 36 37  1  0  0  0  0
 36 93  1  0  0  0  0
 36 94  1  0  0  0  0
 37 38  1  0  0  0  0
 37 95  1  0  0  0  0
 37 96  1  0  0  0  0
 38 39  1  0  0  0  0
 38 97  1  0  0  0  0
 38 98  1  0  0  0  0
 39 40  1  0  0  0  0
 39 99  1  0  0  0  0
 39100  1  0  0  0  0
 40 41  1  0  0  0  0
 40101  1  0  0  0  0
 40102  1  0  0  0  0
 41 42  1  0  0  0  0
 41103  1  0  0  0  0
 41104  1  0  0  0  0
 42 43  1  0  0  0  0
 42105  1  0  0  0  0
 42106  1  0  0  0  0
 43107  1  0  0  0  0
 43108  1  0  0  0  0
 43109  1  0  0  0  0
 44 45  1  0  0  0  0
 44110  1  0  0  0  0
 44111  1  0  0  0  0
 45 46  1  0  0  0  0
 45112  1  0  0  0  0
 45113  1  0  0  0  0
 46 47  1  0  0  0  0
 46114  1  0  0  0  0
 46115  1  0  0  0  0
 47 48  1  0  0  0  0
 47116  1  0  0  0  0
 47117  1  0  0  0  0
 48 49  1  0  0  0  0
 48118  1  1  0  0  0
 50 52  1  0  0  0  0
 50119  1  0  0  0  0
 50120  1  0  0  0  0
 51 58  1  0  0  0  0
 52121  1  6  0  0  0
 53 54  2  0  0  0  0
 53 58  1  0  0  0  0
 54 55  1  0  0  0  0
 54122  1  0  0  0  0
 55 56  2  0  0  0  0
 55123  1  0  0  0  0
 56 57  1  0  0  0  0
 56124  1  0  0  0  0
 57 58  2  0  0  0  0
 57125  1  0  0  0  0
M  END
$$$$
/media/chris/experiments/cd1a-new-docking/inputs/ligands/1xz0_ligand.pdb
 OpenBabel07022319323D

125127  0  0  1  0  0  0  0  0999 V2000
  -41.8795   59.5352   61.8651 N   0  0  0  0  0  0  0  0  0  0  0  0
  -41.6004   60.2813   62.9665 C   0  0  0  0  0  0  0  0  0  0  0  0
  -34.5332   58.1855   64.6113 O   0  0  0  0  0  0  0  0  0  0  0  0
  -36.5837   57.9161   59.0865 Si  0  0  0  0  0  0  0  0  0  0  0  0
  -43.2305   59.2708   61.5998 O   0  0  0  0  0  0  0  0  0  0  0  0
  -35.1443   56.9338   58.6876 O   0  0  0  0  0  0  0  0  0  0  0  0
  -40.9562   58.9512   60.8872 C   0  0  0  0  0  0  0  0  0  0  0  0
  -32.4778   55.1716   61.7919 N   0  0  0  0  0  0  0  0  0  0  0  0
  -34.7660   58.2851   62.3144 O   0  0  0  0  0  0  0  0  0  0  0  0
  -40.0251   57.9692   61.6276 C   0  0  0  0  0  0  0  0  0  0  0  0
  -36.8950   59.8150   64.6310 N   0  0  0  0  0  0  0  0  0  0  0  0
  -32.4902   56.6163   63.5321 O   0  0  0  0  0  0  0  0  0  0  0  0
  -39.1591   58.5341   62.7662 C   0  0  0  0  0  0  0  0  0  0  0  0
  -34.5336   56.1815   59.6451 N   0  0  0  0  0  0  0  0  0  0  0  0
  -37.7543   61.2478   66.1742 O   0  0  0  0  0  0  0  0  0  0  0  0
  -37.6390   58.4030   62.6110 C   0  0  0  0  0  0  0  0  0  0  0  0
  -39.9385   59.0155   65.4749 N   0  0  0  0  0  0  0  0  0  0  0  0
  -40.4413   60.5696   63.2637 O   0  0  0  0  0  0  0  0  0  0  0  0
  -36.7890   58.5530   63.8960 C   0  0  1  0  0  0  0  0  0  0  0  0
  -32.5265   56.6141   58.7233 O   0  0  0  0  0  0  0  0  0  0  0  0
  -35.3080   58.3090   63.6770 C   0  0  0  0  0  0  0  0  0  0  0  0
  -40.5406   59.1037   67.6247 O   0  0  0  0  0  0  0  0  0  0  0  0
  -33.4308   58.7440   62.0310 C   0  0  1  0  0  0  0  0  0  0  0  0
  -43.2279   59.0889   68.0232 O   0  0  0  0  0  0  0  0  0  0  0  0
  -32.6435   57.5881   61.4324 C   0  0  0  0  0  0  0  0  0  0  0  0
  -33.3619   59.9768   61.1381 C   0  0  0  0  0  0  0  0  0  0  0  0
  -32.5610   56.3901   62.3458 C   0  0  0  0  0  0  0  0  0  0  0  0
  -37.7336   60.1539   65.6256 C   0  0  0  0  0  0  0  0  0  0  0  0
  -42.7568   60.7612   63.8499 C   0  0  0  0  0  0  0  0  0  0  0  0
  -42.8676   62.2865   63.9788 C   0  0  0  0  0  0  0  0  0  0  0  0
  -44.0475   62.6549   64.8988 C   0  0  0  0  0  0  0  0  0  0  0  0
  -44.2427   64.1734   65.0705 C   0  0  0  0  0  0  0  0  0  0  0  0
  -45.4055   64.5695   65.9995 C   0  0  0  0  0  0  0  0  0  0  0  0
  -45.2306   64.0412   67.4387 C   0  0  0  0  0  0  0  0  0  0  0  0
  -46.3867   64.4031   68.4001 C   0  0  0  0  0  0  0  0  0  0  0  0
  -46.6039   65.9131   68.5515 C   0  0  0  0  0  0  0  0  0  0  0  0
  -47.7288   66.3209   69.5081 C   0  0  0  0  0  0  0  0  0  0  0  0
  -47.8786   67.8516   69.5780 C   0  0  0  0  0  0  0  0  0  0  0  0
  -48.2242   68.5055   68.2315 C   0  0  0  0  0  0  0  0  0  0  0  0
  -48.3666   70.0310   68.2494 C   0  0  0  0  0  0  0  0  0  0  0  0
  -48.7321   70.6518   66.8780 C   0  0  0  0  0  0  0  0  0  0  0  0
  -50.0845   70.1216   66.3601 C   0  0  0  0  0  0  0  0  0  0  0  0
  -51.3208   70.3946   67.2252 C   0  0  0  0  0  0  0  0  0  0  0  0
  -35.3797   55.6670   60.7320 C   0  0  0  0  0  0  0  0  0  0  0  0
  -35.5175   54.1358   60.6372 C   0  0  0  0  0  0  0  0  0  0  0  0
  -34.6350   53.4682   59.5955 C   0  0  0  0  0  0  0  0  0  0  0  0
  -33.1440   53.5490   59.9335 C   0  0  0  0  0  0  0  0  0  0  0  0
  -32.5496   54.9045   60.3509 C   0  0  1  0  0  0  0  0  0  0  0  0
  -33.2117   55.9840   59.5171 C   0  0  0  0  0  0  0  0  0  0  0  0
  -39.1148   59.1498   67.6646 C   0  0  0  0  0  0  0  0  0  0  0  0
  -40.9428   59.0386   66.2420 C   0  0  0  0  0  0  0  0  0  0  0  0
  -38.6466   59.0723   66.1849 C   0  0  1  0  0  0  0  0  0  0  0  0
  -43.4396   58.9963   66.7047 C   0  0  0  0  0  0  0  0  0  0  0  0
  -44.7515   58.9426   66.2159 C   0  0  0  0  0  0  0  0  0  0  0  0
  -45.0000   58.8358   64.8370 C   0  0  0  0  0  0  0  0  0  0  0  0
  -43.9394   58.7915   63.9305 C   0  0  0  0  0  0  0  0  0  0  0  0
  -42.6289   58.8512   64.4128 C   0  0  0  0  0  0  0  0  0  0  0  0
  -42.3766   58.9494   65.7946 C   0  0  0  0  0  0  0  0  0  0  0  0
  -37.0265   58.6009   57.9241 H   0  0  0  0  0  0  0  0  0  0  0  0
  -36.2485   58.8599   60.0931 H   0  0  0  0  0  0  0  0  0  0  0  0
  -37.6195   57.0676   59.5594 H   0  0  0  0  0  0  0  0  0  0  0  0
  -43.7812   59.6849   62.2826 H   0  0  0  0  0  0  0  0  0  0  0  0
  -40.3759   59.7253   60.4302 H   0  0  0  0  0  0  0  0  0  0  0  0
  -41.5032   58.4371   60.1247 H   0  0  0  0  0  0  0  0  0  0  0  0
  -32.3602   54.4021   62.3946 H   0  0  0  0  0  0  0  0  0  0  0  0
  -39.3632   57.5456   60.9013 H   0  0  0  0  0  0  0  0  0  0  0  0
  -40.6847   57.2751   62.1050 H   0  0  0  0  0  0  0  0  0  0  0  0
  -36.2607   60.5165   64.3574 H   0  0  0  0  0  0  0  0  0  0  0  0
  -39.5811   58.9804   63.5956 H   0  0  0  0  0  0  0  0  0  0  0  0
  -37.2032   58.2232   61.6930 H   0  0  0  0  0  0  0  0  0  0  0  0
  -37.2383   57.7881   64.4943 H   0  0  0  0  0  0  0  0  0  0  0  0
  -32.9996   59.0629   62.9569 H   0  0  0  0  0  0  0  0  0  0  0  0
  -43.9550   59.1188   68.6134 H   0  0  0  0  0  0  0  0  0  0  0  0
  -31.6498   57.9255   61.2232 H   0  0  0  0  0  0  0  0  0  0  0  0
  -33.1571   57.2781   60.5464 H   0  0  0  0  0  0  0  0  0  0  0  0
  -33.7770   59.7464   60.1792 H   0  0  0  0  0  0  0  0  0  0  0  0
  -32.3413   60.2766   61.0223 H   0  0  0  0  0  0  0  0  0  0  0  0
  -33.9189   60.7731   61.5859 H   0  0  0  0  0  0  0  0  0  0  0  0
  -42.6217   60.3519   64.8292 H   0  0  0  0  0  0  0  0  0  0  0  0
  -43.6583   60.4290   63.3788 H   0  0  0  0  0  0  0  0  0  0  0  0
  -43.0271   62.7130   63.0105 H   0  0  0  0  0  0  0  0  0  0  0  0
  -41.9617   62.6695   64.4001 H   0  0  0  0  0  0  0  0  0  0  0  0
  -43.8723   62.2249   65.8628 H   0  0  0  0  0  0  0  0  0  0  0  0
  -44.9355   62.2737   64.4394 H   0  0  0  0  0  0  0  0  0  0  0  0
  -44.4271   64.5973   64.1056 H   0  0  0  0  0  0  0  0  0  0  0  0
  -43.3493   64.5440   65.5281 H   0  0  0  0  0  0  0  0  0  0  0  0
  -46.3141   64.1720   65.5978 H   0  0  0  0  0  0  0  0  0  0  0  0
  -45.4266   65.6381   66.0499 H   0  0  0  0  0  0  0  0  0  0  0  0
  -44.3250   64.4491   67.8367 H   0  0  0  0  0  0  0  0  0  0  0  0
  -45.2145   62.9734   67.3709 H   0  0  0  0  0  0  0  0  0  0  0  0
  -46.1667   63.9940   69.3639 H   0  0  0  0  0  0  0  0  0  0  0  0
  -47.2836   63.9958   67.9822 H   0  0  0  0  0  0  0  0  0  0  0  0
  -46.8307   66.3129   67.5853 H   0  0  0  0  0  0  0  0  0  0  0  0
  -45.7009   66.3005   68.9751 H   0  0  0  0  0  0  0  0  0  0  0  0
  -47.5067   65.9478   70.4861 H   0  0  0  0  0  0  0  0  0  0  0  0
  -48.6467   65.9087   69.1442 H   0  0  0  0  0  0  0  0  0  0  0  0
  -46.9551   68.2650   69.9260 H   0  0  0  0  0  0  0  0  0  0  0  0
  -48.6946   68.0539   70.2399 H   0  0  0  0  0  0  0  0  0  0  0  0
  -49.1521   68.0929   67.8944 H   0  0  0  0  0  0  0  0  0  0  0  0
  -47.3963   68.2980   67.5861 H   0  0  0  0  0  0  0  0  0  0  0  0
  -47.4363   70.4509   68.5704 H   0  0  0  0  0  0  0  0  0  0  0  0
  -49.1748   70.2561   68.9135 H   0  0  0  0  0  0  0  0  0  0  0  0
  -47.9682   70.4058   66.1703 H   0  0  0  0  0  0  0  0  0  0  0  0
  -48.8114   71.7119   66.9997 H   0  0  0  0  0  0  0  0  0  0  0  0
  -49.9947   69.0608   66.2524 H   0  0  0  0  0  0  0  0  0  0  0  0
  -50.2606   70.6562   65.4501 H   0  0  0  0  0  0  0  0  0  0  0  0
  -51.2191   69.8885   68.1624 H   0  0  0  0  0  0  0  0  0  0  0  0
  -52.1947   70.0390   66.7207 H   0  0  0  0  0  0  0  0  0  0  0  0
  -51.4111   71.4470   67.3962 H   0  0  0  0  0  0  0  0  0  0  0  0
  -36.3503   56.1120   60.6621 H   0  0  0  0  0  0  0  0  0  0  0  0
  -34.9244   55.9139   61.6684 H   0  0  0  0  0  0  0  0  0  0  0  0
  -36.5364   53.9094   60.4016 H   0  0  0  0  0  0  0  0  0  0  0  0
  -35.2011   53.7508   61.5841 H   0  0  0  0  0  0  0  0  0  0  0  0
  -34.7974   53.9481   58.6530 H   0  0  0  0  0  0  0  0  0  0  0  0
  -34.9010   52.4321   59.5674 H   0  0  0  0  0  0  0  0  0  0  0  0
  -32.6074   53.2242   59.0666 H   0  0  0  0  0  0  0  0  0  0  0  0
  -33.0450   52.9431   60.8098 H   0  0  0  0  0  0  0  0  0  0  0  0
  -31.5021   54.8873   60.1334 H   0  0  0  0  0  0  0  0  0  0  0  0
  -38.7307   58.3204   68.2208 H   0  0  0  0  0  0  0  0  0  0  0  0
  -38.7630   60.0402   68.1425 H   0  0  0  0  0  0  0  0  0  0  0  0
  -37.9827   58.2416   66.0659 H   0  0  0  0  0  0  0  0  0  0  0  0
  -45.5440   58.9819   66.8757 H   0  0  0  0  0  0  0  0  0  0  0  0
  -45.9718   58.7898   64.4927 H   0  0  0  0  0  0  0  0  0  0  0  0
  -44.1205   58.7157   62.9174 H   0  0  0  0  0  0  0  0  0  0  0  0
  -41.8386   58.8230   63.7497 H   0  0  0  0  0  0  0  0  0  0  0  0
  1  2  1  0  0  0  0
  1  5  1  0  0  0  0
  1  7  1  0  0  0  0
  2 18  2  0  0  0  0
  2 29  1  0  0  0  0
  3 21  2  0  0  0  0
  4  6  1  0  0  0  0
  4 59  1  0  0  0  0
  4 60  1  0  0  0  0
  4 61  1  0  0  0  0
  5 62  1  0  0  0  0
  6 14  1  0  0  0  0
  7 10  1  0  0  0  0
  7 63  1  0  0  0  0
  7 64  1  0  0  0  0
  8 27  1  0  0  0  0
  8 48  1  0  0  0  0
  8 65  1  0  0  0  0
  9 21  1  0  0  0  0
  9 23  1  0  0  0  0
 10 13  1  0  0  0  0
 10 66  1  0  0  0  0
 10 67  1  0  0  0  0
 11 19  1  0  0  0  0
 11 28  1  0  0  0  0
 11 68  1  0  0  0  0
 12 27  2  0  0  0  0
 13 16  2  0  0  0  0
 13 69  1  0  0  0  0
 14 44  1  0  0  0  0
 14 49  1  0  0  0  0
 15 28  2  0  0  0  0
 16 19  1  0  0  0  0
 16 70  1  0  0  0  0
 17 51  2  0  0  0  0
 17 52  1  0  0  0  0
 19 21  1  0  0  0  0
 19 71  1  1  0  0  0
 20 49  2  0  0  0  0
 22 50  1  0  0  0  0
 22 51  1  0  0  0  0
 23 25  1  0  0  0  0
 23 26  1  0  0  0  0
 23 72  1  1  0  0  0
 24 53  1  0  0  0  0
 24 73  1  0  0  0  0
 25 27  1  0  0  0  0
 25 74  1  0  0  0  0
 25 75  1  0  0  0  0
 26 76  1  0  0  0  0
 26 77  1  0  0  0  0
 26 78  1  0  0  0  0
 28 52  1  0  0  0  0
 29 30  1  0  0  0  0
 29 79  1  0  0  0  0
 29 80  1  0  0  0  0
 30 31  1  0  0  0  0
 30 81  1  0  0  0  0
 30 82  1  0  0  0  0
 31 32  1  0  0  0  0
 31 83  1  0  0  0  0
 31 84  1  0  0  0  0
 32 33  1  0  0  0  0
 32 85  1  0  0  0  0
 32 86  1  0  0  0  0
 33 34  1  0  0  0  0
 33 87  1  0  0  0  0
 33 88  1  0  0  0  0
 34 35  1  0  0  0  0
 34 89  1  0  0  0  0
 34 90  1  0  0  0  0
 35 36  1  0  0  0  0
 35 91  1  0  0  0  0
 35 92  1  0  0  0  0
 36 37  1  0  0  0  0
 36 93  1  0  0  0  0
 36 94  1  0  0  0  0
 37 38  1  0  0  0  0
 37 95  1  0  0  0  0
 37 96  1  0  0  0  0
 38 39  1  0  0  0  0
 38 97  1  0  0  0  0
 38 98  1  0  0  0  0
 39 40  1  0  0  0  0
 39 99  1  0  0  0  0
 39100  1  0  0  0  0
 40 41  1  0  0  0  0
 40101  1  0  0  0  0
 40102  1  0  0  0  0
 41 42  1  0  0  0  0
 41103  1  0  0  0  0
 41104  1  0  0  0  0
 42 43  1  0  0  0  0
 42105  1  0  0  0  0
 42106  1  0  0  0  0
 43107  1  0  0  0  0
 43108  1  0  0  0  0
 43109  1  0  0  0  0
 44 45  1  0  0  0  0
 44110  1  0  0  0  0
 44111  1  0  0  0  0
 45 46  1  0  0  0  0
 45112  1  0  0  0  0
 45113  1  0  0  0  0
 46 47  1  0  0  0  0
 46114  1  0  0  0  0
 46115  1  0  0  0  0
 47 48  1  0  0  0  0
 47116  1  0  0  0  0
 47117  1  0  0  0  0
 48 49  1  0  0  0  0
 48118  1  6  0  0  0
 50 52  1  0  0  0  0
 50119  1  0  0  0  0
 50120  1  0  0  0  0
 51 58  1  0  0  0  0
 52121  1  6  0  0  0
 53 54  2  0  0  0  0
 53 58  1  0  0  0  0
 54 55  1  0  0  0  0
 54122  1  0  0  0  0
 55 56  2  0  0  0  0
 55123  1  0  0  0  0
 56 57  1  0  0  0  0
 56124  1  0  0  0  0
 57 58  2  0  0  0  0
 57125  1  0  0  0  0
M  END
$$$$
/media/chris/experiments/cd1a-new-docking/inputs/ligands/1xz0_ligand.pdb
 OpenBabel07022319323D

125127  0  0  1  0  0  0  0  0999 V2000
  -37.8923   58.4037   59.8649 N   0  0  0  0  0  0  0  0  0  0  0  0
  -37.4128   59.6691   59.9932 C   0  0  0  0  0  0  0  0  0  0  0  0
  -34.6103   59.1028   63.0674 O   0  0  0  0  0  0  0  0  0  0  0  0
  -29.3963   52.3886   59.3843 Si  0  0  0  0  0  0  0  0  0  0  0  0
  -36.9857   57.4173   59.4517 O   0  0  0  0  0  0  0  0  0  0  0  0
  -31.0326   52.9644   59.8165 O   0  0  0  0  0  0  0  0  0  0  0  0
  -39.2498   57.9024   60.1005 C   0  0  0  0  0  0  0  0  0  0  0  0
  -32.6264   56.9970   60.8419 N   0  0  0  0  0  0  0  0  0  0  0  0
  -34.6971   57.0605   64.1450 O   0  0  0  0  0  0  0  0  0  0  0  0
  -39.1837   56.8269   61.2043 C   0  0  0  0  0  0  0  0  0  0  0  0
  -36.8950   59.8150   64.6310 N   0  0  0  0  0  0  0  0  0  0  0  0
  -32.9576   55.3106   62.3122 O   0  0  0  0  0  0  0  0  0  0  0  0
  -38.6590   57.2580   62.5844 C   0  0  0  0  0  0  0  0  0  0  0  0
  -31.2719   54.2930   60.0001 N   0  0  0  0  0  0  0  0  0  0  0  0
  -39.0951   59.8922   65.2022 O   0  0  0  0  0  0  0  0  0  0  0  0
  -37.6390   58.4030   62.6110 C   0  0  0  0  0  0  0  0  0  0  0  0
  -38.1072   62.8323   64.8327 N   0  0  0  0  0  0  0  0  0  0  0  0
  -36.2338   59.9307   59.7557 O   0  0  0  0  0  0  0  0  0  0  0  0
  -36.7890   58.5530   63.8960 C   0  0  1  0  0  0  0  0  0  0  0  0
  -33.4518   53.9775   59.5375 O   0  0  0  0  0  0  0  0  0  0  0  0
  -35.3080   58.3090   63.6770 C   0  0  0  0  0  0  0  0  0  0  0  0
  -36.1222   63.4359   65.6618 O   0  0  0  0  0  0  0  0  0  0  0  0
  -33.2995   56.9918   64.4853 C   0  0  1  0  0  0  0  0  0  0  0  0
  -35.9703   66.2577   65.3868 O   0  0  0  0  0  0  0  0  0  0  0  0
  -32.4876   57.3753   63.2572 C   0  0  0  0  0  0  0  0  0  0  0  0
  -32.9003   57.8316   65.6923 C   0  0  0  0  0  0  0  0  0  0  0  0
  -32.7432   56.4768   62.0723 C   0  0  0  0  0  0  0  0  0  0  0  0
  -37.9718   60.3782   65.2060 C   0  0  0  0  0  0  0  0  0  0  0  0
  -38.3646   60.7804   60.4483 C   0  0  0  0  0  0  0  0  0  0  0  0
  -38.9803   60.5610   61.8368 C   0  0  0  0  0  0  0  0  0  0  0  0
  -39.9295   61.7241   62.1840 C   0  0  0  0  0  0  0  0  0  0  0  0
  -41.1065   61.8716   61.2011 C   0  0  0  0  0  0  0  0  0  0  0  0
  -42.0343   60.6449   61.1228 C   0  0  0  0  0  0  0  0  0  0  0  0
  -43.1883   60.8286   60.1150 C   0  0  0  0  0  0  0  0  0  0  0  0
  -44.1540   59.6244   60.0187 C   0  0  0  0  0  0  0  0  0  0  0  0
  -45.2805   59.8260   58.9986 C   0  0  0  0  0  0  0  0  0  0  0  0
  -44.8244   60.0392   57.5518 C   0  0  0  0  0  0  0  0  0  0  0  0
  -43.9158   61.2758   57.4263 C   0  0  0  0  0  0  0  0  0  0  0  0
  -43.4375   61.5542   55.9933 C   0  0  0  0  0  0  0  0  0  0  0  0
  -44.5400   61.8273   54.9649 C   0  0  0  0  0  0  0  0  0  0  0  0
  -44.0202   62.0865   53.5288 C   0  0  0  0  0  0  0  0  0  0  0  0
  -43.2431   60.8721   52.9814 C   0  0  0  0  0  0  0  0  0  0  0  0
  -42.6549   60.9957   51.5707 C   0  0  0  0  0  0  0  0  0  0  0  0
  -30.1536   55.1125   60.4898 C   0  0  0  0  0  0  0  0  0  0  0  0
  -29.6719   56.0857   59.3973 C   0  0  0  0  0  0  0  0  0  0  0  0
  -30.5344   56.1361   58.1470 C   0  0  0  0  0  0  0  0  0  0  0  0
  -31.9206   56.7347   58.3998 C   0  0  0  0  0  0  0  0  0  0  0  0
  -32.7412   56.2279   59.5975 C   0  0  1  0  0  0  0  0  0  0  0  0
  -32.5099   54.7350   59.7269 C   0  0  0  0  0  0  0  0  0  0  0  0
  -36.4230   62.2179   66.3418 C   0  0  0  0  0  0  0  0  0  0  0  0
  -37.2055   63.7143   64.7524 C   0  0  0  0  0  0  0  0  0  0  0  0
  -37.8111   61.7664   65.8088 C   0  0  1  0  0  0  0  0  0  0  0  0
  -36.6304   66.1321   64.2291 C   0  0  0  0  0  0  0  0  0  0  0  0
  -36.6961   67.2191   63.3476 C   0  0  0  0  0  0  0  0  0  0  0  0
  -37.3909   67.1155   62.1307 C   0  0  0  0  0  0  0  0  0  0  0  0
  -38.0195   65.9204   61.7769 C   0  0  0  0  0  0  0  0  0  0  0  0
  -37.9515   64.8311   62.6500 C   0  0  0  0  0  0  0  0  0  0  0  0
  -37.2634   64.9346   63.8741 C   0  0  0  0  0  0  0  0  0  0  0  0
  -29.4119   50.9749   59.2510 H   0  0  0  0  0  0  0  0  0  0  0  0
  -28.4798   52.7578   60.4042 H   0  0  0  0  0  0  0  0  0  0  0  0
  -28.9974   52.9756   58.1544 H   0  0  0  0  0  0  0  0  0  0  0  0
  -36.1126   57.8173   59.3153 H   0  0  0  0  0  0  0  0  0  0  0  0
  -39.6386   57.4737   59.2004 H   0  0  0  0  0  0  0  0  0  0  0  0
  -39.8913   58.7032   60.4037 H   0  0  0  0  0  0  0  0  0  0  0  0
  -32.4512   57.9629   60.7682 H   0  0  0  0  0  0  0  0  0  0  0  0
  -38.5477   56.0427   60.8502 H   0  0  0  0  0  0  0  0  0  0  0  0
  -40.2025   56.5479   61.3748 H   0  0  0  0  0  0  0  0  0  0  0  0
  -36.0569   60.3245   64.7164 H   0  0  0  0  0  0  0  0  0  0  0  0
  -38.9782   56.7985   63.4515 H   0  0  0  0  0  0  0  0  0  0  0  0
  -37.5247   59.0434   61.8099 H   0  0  0  0  0  0  0  0  0  0  0  0
  -37.2383   57.7881   64.4943 H   0  0  0  0  0  0  0  0  0  0  0  0
  -33.0925   55.9850   64.7826 H   0  0  0  0  0  0  0  0  0  0  0  0
  -35.5543   67.0689   65.6032 H   0  0  0  0  0  0  0  0  0  0  0  0
  -31.4484   57.3224   63.5062 H   0  0  0  0  0  0  0  0  0  0  0  0
  -32.7834   58.3644   62.9762 H   0  0  0  0  0  0  0  0  0  0  0  0
  -33.0758   58.8657   65.4811 H   0  0  0  0  0  0  0  0  0  0  0  0
  -31.8621   57.6819   65.9034 H   0  0  0  0  0  0  0  0  0  0  0  0
  -33.4827   57.5368   66.5402 H   0  0  0  0  0  0  0  0  0  0  0  0
  -39.1607   60.8509   59.7368 H   0  0  0  0  0  0  0  0  0  0  0  0
  -37.7805   61.6747   60.5119 H   0  0  0  0  0  0  0  0  0  0  0  0
  -38.1993   60.5114   62.5666 H   0  0  0  0  0  0  0  0  0  0  0  0
  -39.5340   59.6454   61.8341 H   0  0  0  0  0  0  0  0  0  0  0  0
  -39.3666   62.6340   62.1772 H   0  0  0  0  0  0  0  0  0  0  0  0
  -40.3476   61.5124   63.1459 H   0  0  0  0  0  0  0  0  0  0  0  0
  -40.7058   62.0499   60.2251 H   0  0  0  0  0  0  0  0  0  0  0  0
  -41.7045   62.6814   61.5637 H   0  0  0  0  0  0  0  0  0  0  0  0
  -42.4521   60.4703   62.0922 H   0  0  0  0  0  0  0  0  0  0  0  0
  -41.4446   59.8170   60.7885 H   0  0  0  0  0  0  0  0  0  0  0  0
  -42.7634   60.9943   59.1470 H   0  0  0  0  0  0  0  0  0  0  0  0
  -43.7687   61.6566   60.4648 H   0  0  0  0  0  0  0  0  0  0  0  0
  -44.5930   59.4642   60.9812 H   0  0  0  0  0  0  0  0  0  0  0  0
  -43.5785   58.7840   59.6910 H   0  0  0  0  0  0  0  0  0  0  0  0
  -45.8463   60.6840   59.2965 H   0  0  0  0  0  0  0  0  0  0  0  0
  -45.8459   58.9176   58.9994 H   0  0  0  0  0  0  0  0  0  0  0  0
  -45.6856   60.1755   56.9316 H   0  0  0  0  0  0  0  0  0  0  0  0
  -44.2674   59.1791   57.2438 H   0  0  0  0  0  0  0  0  0  0  0  0
  -43.0559   61.1262   58.0453 H   0  0  0  0  0  0  0  0  0  0  0  0
  -44.4980   62.1209   57.7291 H   0  0  0  0  0  0  0  0  0  0  0  0
  -42.8820   60.7022   55.6610 H   0  0  0  0  0  0  0  0  0  0  0  0
  -42.8614   62.4542   56.0483 H   0  0  0  0  0  0  0  0  0  0  0  0
  -45.0896   62.6884   55.2831 H   0  0  0  0  0  0  0  0  0  0  0  0
  -45.1423   60.9441   54.9187 H   0  0  0  0  0  0  0  0  0  0  0  0
  -43.3714   62.9372   53.5421 H   0  0  0  0  0  0  0  0  0  0  0  0
  -44.8630   62.2602   52.8929 H   0  0  0  0  0  0  0  0  0  0  0  0
  -43.9112   60.0363   52.9797 H   0  0  0  0  0  0  0  0  0  0  0  0
  -42.3952   60.7730   53.6265 H   0  0  0  0  0  0  0  0  0  0  0  0
  -43.4490   61.0993   50.8610 H   0  0  0  0  0  0  0  0  0  0  0  0
  -42.0857   60.1186   51.3434 H   0  0  0  0  0  0  0  0  0  0  0  0
  -42.0196   61.8554   51.5232 H   0  0  0  0  0  0  0  0  0  0  0  0
  -29.3445   54.4709   60.7702 H   0  0  0  0  0  0  0  0  0  0  0  0
  -30.4870   55.6802   61.3333 H   0  0  0  0  0  0  0  0  0  0  0  0
  -28.6844   55.7937   59.1064 H   0  0  0  0  0  0  0  0  0  0  0  0
  -29.7196   57.0633   59.8296 H   0  0  0  0  0  0  0  0  0  0  0  0
  -30.6558   55.1397   57.7763 H   0  0  0  0  0  0  0  0  0  0  0  0
  -30.0372   56.7675   57.4406 H   0  0  0  0  0  0  0  0  0  0  0  0
  -32.5046   56.5568   57.5211 H   0  0  0  0  0  0  0  0  0  0  0  0
  -31.7198   57.7581   58.6393 H   0  0  0  0  0  0  0  0  0  0  0  0
  -33.7756   56.4049   59.3884 H   0  0  0  0  0  0  0  0  0  0  0  0
  -36.4650   62.3817   67.3983 H   0  0  0  0  0  0  0  0  0  0  0  0
  -35.6736   61.4743   66.1674 H   0  0  0  0  0  0  0  0  0  0  0  0
  -38.4862   61.6503   66.6308 H   0  0  0  0  0  0  0  0  0  0  0  0
  -36.2291   68.1055   63.5948 H   0  0  0  0  0  0  0  0  0  0  0  0
  -37.4367   67.9273   61.4951 H   0  0  0  0  0  0  0  0  0  0  0  0
  -38.5278   65.8422   60.8822 H   0  0  0  0  0  0  0  0  0  0  0  0
  -38.4100   63.9424   62.3950 H   0  0  0  0  0  0  0  0  0  0  0  0
  1  2  1  0  0  0  0
  1  5  1  0  0  0  0
  1  7  1  0  0  0  0
  2 18  2  0  0  0  0
  2 29  1  0  0  0  0
  3 21  2  0  0  0  0
  4  6  1  0  0  0  0
  4 59  1  0  0  0  0
  4 60  1  0  0  0  0
  4 61  1  0  0  0  0
  5 62  1  0  0  0  0
  6 14  1  0  0  0  0
  7 10  1  0  0  0  0
  7 63  1  0  0  0  0
  7 64  1  0  0  0  0
  8 27  1  0  0  0  0
  8 48  1  0  0  0  0
  8 65  1  0  0  0  0
  9 21  1  0  0  0  0
  9 23  1  0  0  0  0
 10 13  1  0  0  0  0
 10 66  1  0  0  0  0
 10 67  1  0  0  0  0
 11 19  1  0  0  0  0
 11 28  1  0  0  0  0
 11 68  1  0  0  0  0
 12 27  2  0  0  0  0
 13 16  2  0  0  0  0
 13 69  1  0  0  0  0
 14 44  1  0  0  0  0
 14 49  1  0  0  0  0
 15 28  2  0  0  0  0
 16 19  1  0  0  0  0
 16 70  1  0  0  0  0
 17 51  2  0  0  0  0
 17 52  1  0  0  0  0
 19 21  1  0  0  0  0
 19 71  1  1  0  0  0
 20 49  2  0  0  0  0
 22 50  1  0  0  0  0
 22 51  1  0  0  0  0
 23 25  1  0  0  0  0
 23 26  1  0  0  0  0
 23 72  1  1  0  0  0
 24 53  1  0  0  0  0
 24 73  1  0  0  0  0
 25 27  1  0  0  0  0
 25 74  1  0  0  0  0
 25 75  1  0  0  0  0
 26 76  1  0  0  0  0
 26 77  1  0  0  0  0
 26 78  1  0  0  0  0
 28 52  1  0  0  0  0
 29 30  1  0  0  0  0
 29 79  1  0  0  0  0
 29 80  1  0  0  0  0
 30 31  1  0  0  0  0
 30 81  1  0  0  0  0
 30 82  1  0  0  0  0
 31 32  1  0  0  0  0
 31 83  1  0  0  0  0
 31 84  1  0  0  0  0
 32 33  1  0  0  0  0
 32 85  1  0  0  0  0
 32 86  1  0  0  0  0
 33 34  1  0  0  0  0
 33 87  1  0  0  0  0
 33 88  1  0  0  0  0
 34 35  1  0  0  0  0
 34 89  1  0  0  0  0
 34 90  1  0  0  0  0
 35 36  1  0  0  0  0
 35 91  1  0  0  0  0
 35 92  1  0  0  0  0
 36 37  1  0  0  0  0
 36 93  1  0  0  0  0
 36 94  1  0  0  0  0
 37 38  1  0  0  0  0
 37 95  1  0  0  0  0
 37 96  1  0  0  0  0
 38 39  1  0  0  0  0
 38 97  1  0  0  0  0
 38 98  1  0  0  0  0
 39 40  1  0  0  0  0
 39 99  1  0  0  0  0
 39100  1  0  0  0  0
 40 41  1  0  0  0  0
 40101  1  0  0  0  0
 40102  1  0  0  0  0
 41 42  1  0  0  0  0
 41103  1  0  0  0  0
 41104  1  0  0  0  0
 42 43  1  0  0  0  0
 42105  1  0  0  0  0
 42106  1  0  0  0  0
 43107  1  0  0  0  0
 43108  1  0  0  0  0
 43109  1  0  0  0  0
 44 45  1  0  0  0  0
 44110  1  0  0  0  0
 44111  1  0  0  0  0
 45 46  1  0  0  0  0
 45112  1  0  0  0  0
 45113  1  0  0  0  0
 46 47  1  0  0  0  0
 46114  1  0  0  0  0
 46115  1  0  0  0  0
 47 48  1  0  0  0  0
 47116  1  0  0  0  0
 47117  1  0  0  0  0
 48 49  1  0  0  0  0
 48118  1  6  0  0  0
 50 52  1  0  0  0  0
 50119  1  0  0  0  0
 50120  1  0  0  0  0
 51 58  1  0  0  0  0
 52121  1  1  0  0  0
 53 54  2  0  0  0  0
 53 58  1  0  0  0  0
 54 55  1  0  0  0  0
 54122  1  0  0  0  0
 55 56  2  0  0  0  0
 55123  1  0  0  0  0
 56 57  1  0  0  0  0
 56124  1  0  0  0  0
 57 58  2  0  0  0  0
 57125  1  0  0  0  0
M  END
$$$$
/media/chris/experiments/cd1a-new-docking/inputs/ligands/1xz0_ligand.pdb
 OpenBabel07022319323D

125127  0  0  1  0  0  0  0  0999 V2000
  -40.4884   60.5770   59.5198 N   0  0  0  0  0  0  0  0  0  0  0  0
  -40.8098   61.5587   58.6362 C   0  0  0  0  0  0  0  0  0  0  0  0
  -34.6103   59.1028   63.0674 O   0  0  0  0  0  0  0  0  0  0  0  0
  -33.0551   60.2231   71.1247 Si  0  0  0  0  0  0  0  0  0  0  0  0
  -41.1262   59.3392   59.3572 O   0  0  0  0  0  0  0  0  0  0  0  0
  -31.7412   59.3728   70.2607 O   0  0  0  0  0  0  0  0  0  0  0  0
  -39.5502   60.6191   60.6457 C   0  0  0  0  0  0  0  0  0  0  0  0
  -31.4087   57.7834   66.1114 N   0  0  0  0  0  0  0  0  0  0  0  0
  -34.6971   57.0605   64.1450 O   0  0  0  0  0  0  0  0  0  0  0  0
  -38.4615   59.5524   60.4085 C   0  0  0  0  0  0  0  0  0  0  0  0
  -36.8950   59.8150   64.6310 N   0  0  0  0  0  0  0  0  0  0  0  0
  -32.0668   58.6505   64.1288 O   0  0  0  0  0  0  0  0  0  0  0  0
  -37.3686   59.4033   61.4804 C   0  0  0  0  0  0  0  0  0  0  0  0
  -31.8667   59.0687   68.9386 N   0  0  0  0  0  0  0  0  0  0  0  0
  -38.3860   61.0055   63.3930 O   0  0  0  0  0  0  0  0  0  0  0  0
  -37.6390   58.4030   62.6110 C   0  0  0  0  0  0  0  0  0  0  0  0
  -36.4220   63.0371   64.7241 N   0  0  0  0  0  0  0  0  0  0  0  0
  -41.6254   61.3629   57.7355 O   0  0  0  0  0  0  0  0  0  0  0  0
  -36.7890   58.5530   63.8960 C   0  0  1  0  0  0  0  0  0  0  0  0
  -29.6269   58.9959   68.7295 O   0  0  0  0  0  0  0  0  0  0  0  0
  -35.3080   58.3090   63.6770 C   0  0  0  0  0  0  0  0  0  0  0  0
  -35.8390   62.7601   66.8631 O   0  0  0  0  0  0  0  0  0  0  0  0
  -33.6005   56.4517   63.4374 C   0  0  1  0  0  0  0  0  0  0  0  0
  -33.5945   64.1111   67.5825 O   0  0  0  0  0  0  0  0  0  0  0  0
  -32.4083   56.3708   64.3790 C   0  0  0  0  0  0  0  0  0  0  0  0
  -33.9165   55.0895   62.8323 C   0  0  0  0  0  0  0  0  0  0  0  0
  -31.9655   57.7183   64.8932 C   0  0  0  0  0  0  0  0  0  0  0  0
  -37.6390   60.9007   64.3569 C   0  0  0  0  0  0  0  0  0  0  0  0
  -40.1338   62.9273   58.7697 C   0  0  0  0  0  0  0  0  0  0  0  0
  -38.6059   62.8982   58.6283 C   0  0  0  0  0  0  0  0  0  0  0  0
  -38.0323   64.3184   58.7964 C   0  0  0  0  0  0  0  0  0  0  0  0
  -38.3332   64.9444   60.1714 C   0  0  0  0  0  0  0  0  0  0  0  0
  -37.7581   64.1665   61.3699 C   0  0  0  0  0  0  0  0  0  0  0  0
  -38.0973   64.8182   62.7269 C   0  0  0  0  0  0  0  0  0  0  0  0
  -39.6106   64.9243   63.0275 C   0  0  0  0  0  0  0  0  0  0  0  0
  -39.9199   65.5906   64.3731 C   0  0  0  0  0  0  0  0  0  0  0  0
  -39.4209   67.0313   64.5213 C   0  0  0  0  0  0  0  0  0  0  0  0
  -37.8932   67.1164   64.3501 C   0  0  0  0  0  0  0  0  0  0  0  0
  -37.3274   68.5362   64.5049 C   0  0  0  0  0  0  0  0  0  0  0  0
  -37.5622   69.2017   65.8649 C   0  0  0  0  0  0  0  0  0  0  0  0
  -36.9928   70.6379   65.9770 C   0  0  0  0  0  0  0  0  0  0  0  0
  -37.2484   71.2398   67.3737 C   0  0  0  0  0  0  0  0  0  0  0  0
  -38.7083   71.3606   67.8271 C   0  0  0  0  0  0  0  0  0  0  0  0
  -33.2265   58.8285   68.4337 C   0  0  0  0  0  0  0  0  0  0  0  0
  -33.6595   59.9551   67.4767 C   0  0  0  0  0  0  0  0  0  0  0  0
  -32.5706   60.9504   67.1114 C   0  0  0  0  0  0  0  0  0  0  0  0
  -31.4575   60.3342   66.2599 C   0  0  0  0  0  0  0  0  0  0  0  0
  -30.8369   58.9986   66.7026 C   0  0  1  0  0  0  0  0  0  0  0  0
  -30.7371   59.0061   68.2155 C   0  0  0  0  0  0  0  0  0  0  0  0
  -37.0051   61.9506   66.7168 C   0  0  0  0  0  0  0  0  0  0  0  0
  -35.5586   63.3671   65.5861 C   0  0  0  0  0  0  0  0  0  0  0  0
  -37.4607   62.1261   65.2416 C   0  0  1  0  0  0  0  0  0  0  0  0
  -33.4875   64.6228   66.3503 C   0  0  0  0  0  0  0  0  0  0  0  0
  -32.4272   65.4877   66.0490 C   0  0  0  0  0  0  0  0  0  0  0  0
  -32.2982   66.0454   64.7658 C   0  0  0  0  0  0  0  0  0  0  0  0
  -33.2225   65.7366   63.7663 C   0  0  0  0  0  0  0  0  0  0  0  0
  -34.2784   64.8692   64.0600 C   0  0  0  0  0  0  0  0  0  0  0  0
  -34.4153   64.3157   65.3475 C   0  0  0  0  0  0  0  0  0  0  0  0
  -32.6804   60.4200   72.4801 H   0  0  0  0  0  0  0  0  0  0  0  0
  -34.2402   59.4428   71.0698 H   0  0  0  0  0  0  0  0  0  0  0  0
  -33.2884   61.4820   70.5105 H   0  0  0  0  0  0  0  0  0  0  0  0
  -41.7289   59.3832   58.5984 H   0  0  0  0  0  0  0  0  0  0  0  0
  -40.0695   60.4097   61.5575 H   0  0  0  0  0  0  0  0  0  0  0  0
  -39.1057   61.5897   60.7194 H   0  0  0  0  0  0  0  0  0  0  0  0
  -31.3818   56.9577   66.6469 H   0  0  0  0  0  0  0  0  0  0  0  0
  -37.9751   59.7904   59.4856 H   0  0  0  0  0  0  0  0  0  0  0  0
  -38.9859   58.6198   60.4219 H   0  0  0  0  0  0  0  0  0  0  0  0
  -36.3417   59.8774   65.4429 H   0  0  0  0  0  0  0  0  0  0  0  0
  -36.4946   59.9506   61.4407 H   0  0  0  0  0  0  0  0  0  0  0  0
  -38.3541   57.6645   62.5194 H   0  0  0  0  0  0  0  0  0  0  0  0
  -37.2383   57.7881   64.4943 H   0  0  0  0  0  0  0  0  0  0  0  0
  -33.3813   57.0722   62.5937 H   0  0  0  0  0  0  0  0  0  0  0  0
  -32.9616   64.3308   68.2376 H   0  0  0  0  0  0  0  0  0  0  0  0
  -31.5909   55.9212   63.8550 H   0  0  0  0  0  0  0  0  0  0  0  0
  -32.7102   55.7905   65.2257 H   0  0  0  0  0  0  0  0  0  0  0  0
  -34.1503   54.3975   63.6142 H   0  0  0  0  0  0  0  0  0  0  0  0
  -33.0673   54.7364   62.2856 H   0  0  0  0  0  0  0  0  0  0  0  0
  -34.7540   55.1781   62.1722 H   0  0  0  0  0  0  0  0  0  0  0  0
  -40.3728   63.3256   59.7336 H   0  0  0  0  0  0  0  0  0  0  0  0
  -40.5028   63.5291   57.9656 H   0  0  0  0  0  0  0  0  0  0  0  0
  -38.3471   62.5242   57.6597 H   0  0  0  0  0  0  0  0  0  0  0  0
  -38.1958   62.2626   59.3850 H   0  0  0  0  0  0  0  0  0  0  0  0
  -38.4541   64.9457   58.0392 H   0  0  0  0  0  0  0  0  0  0  0  0
  -36.9685   64.2399   58.7126 H   0  0  0  0  0  0  0  0  0  0  0  0
  -39.3954   64.9993   60.2879 H   0  0  0  0  0  0  0  0  0  0  0  0
  -37.8600   65.9040   60.1777 H   0  0  0  0  0  0  0  0  0  0  0  0
  -36.6938   64.1218   61.2691 H   0  0  0  0  0  0  0  0  0  0  0  0
  -38.2000   63.1920   61.3622 H   0  0  0  0  0  0  0  0  0  0  0  0
  -37.6849   65.8055   62.7357 H   0  0  0  0  0  0  0  0  0  0  0  0
  -37.6811   64.1839   63.4814 H   0  0  0  0  0  0  0  0  0  0  0  0
  -40.0247   63.9377   63.0345 H   0  0  0  0  0  0  0  0  0  0  0  0
  -40.0413   65.5389   62.2648 H   0  0  0  0  0  0  0  0  0  0  0  0
  -39.4674   65.0031   65.1444 H   0  0  0  0  0  0  0  0  0  0  0  0
  -40.9867   65.6390   64.4405 H   0  0  0  0  0  0  0  0  0  0  0  0
  -39.6829   67.3923   65.4939 H   0  0  0  0  0  0  0  0  0  0  0  0
  -39.8790   67.6268   63.7595 H   0  0  0  0  0  0  0  0  0  0  0  0
  -37.6433   66.7588   63.3731 H   0  0  0  0  0  0  0  0  0  0  0  0
  -37.4600   66.5229   65.1280 H   0  0  0  0  0  0  0  0  0  0  0  0
  -37.7776   69.1528   63.7553 H   0  0  0  0  0  0  0  0  0  0  0  0
  -36.2662   68.4389   64.4078 H   0  0  0  0  0  0  0  0  0  0  0  0
  -37.1002   68.5980   66.6179 H   0  0  0  0  0  0  0  0  0  0  0  0
  -38.6221   69.2811   65.9889 H   0  0  0  0  0  0  0  0  0  0  0  0
  -37.4620   71.2565   65.2407 H   0  0  0  0  0  0  0  0  0  0  0  0
  -35.9354   70.5932   65.8191 H   0  0  0  0  0  0  0  0  0  0  0  0
  -36.8258   72.2227   67.3831 H   0  0  0  0  0  0  0  0  0  0  0  0
  -36.8029   70.5484   68.0581 H   0  0  0  0  0  0  0  0  0  0  0  0
  -39.2260   72.0421   67.1849 H   0  0  0  0  0  0  0  0  0  0  0  0
  -38.7404   71.7240   68.8330 H   0  0  0  0  0  0  0  0  0  0  0  0
  -39.1771   70.3999   67.7798 H   0  0  0  0  0  0  0  0  0  0  0  0
  -33.9058   58.7888   69.2595 H   0  0  0  0  0  0  0  0  0  0  0  0
  -33.2362   57.9012   67.8999 H   0  0  0  0  0  0  0  0  0  0  0  0
  -34.4585   60.4946   67.9410 H   0  0  0  0  0  0  0  0  0  0  0  0
  -33.9410   59.4754   66.5626 H   0  0  0  0  0  0  0  0  0  0  0  0
  -32.1390   61.3299   68.0140 H   0  0  0  0  0  0  0  0  0  0  0  0
  -33.0266   61.7245   66.5303 H   0  0  0  0  0  0  0  0  0  0  0  0
  -30.6635   61.0500   66.2151 H   0  0  0  0  0  0  0  0  0  0  0  0
  -31.9406   60.0999   65.3344 H   0  0  0  0  0  0  0  0  0  0  0  0
  -29.8528   58.9374   66.2872 H   0  0  0  0  0  0  0  0  0  0  0  0
  -37.7731   62.2793   67.3855 H   0  0  0  0  0  0  0  0  0  0  0  0
  -36.8040   60.9252   66.9472 H   0  0  0  0  0  0  0  0  0  0  0  0
  -38.4731   62.4720   65.2217 H   0  0  0  0  0  0  0  0  0  0  0  0
  -31.7335   65.7177   66.7776 H   0  0  0  0  0  0  0  0  0  0  0  0
  -31.5160   66.6867   64.5612 H   0  0  0  0  0  0  0  0  0  0  0  0
  -33.1273   66.1434   62.8226 H   0  0  0  0  0  0  0  0  0  0  0  0
  -34.9643   64.6322   63.3263 H   0  0  0  0  0  0  0  0  0  0  0  0
  1  2  1  0  0  0  0
  1  5  1  0  0  0  0
  1  7  1  0  0  0  0
  2 18  2  0  0  0  0
  2 29  1  0  0  0  0
  3 21  2  0  0  0  0
  4  6  1  0  0  0  0
  4 59  1  0  0  0  0
  4 60  1  0  0  0  0
  4 61  1  0  0  0  0
  5 62  1  0  0  0  0
  6 14  1  0  0  0  0
  7 10  1  0  0  0  0
  7 63  1  0  0  0  0
  7 64  1  0  0  0  0
  8 27  1  0  0  0  0
  8 48  1  0  0  0  0
  8 65  1  0  0  0  0
  9 21  1  0  0  0  0
  9 23  1  0  0  0  0
 10 13  1  0  0  0  0
 10 66  1  0  0  0  0
 10 67  1  0  0  0  0
 11 19  1  0  0  0  0
 11 28  1  0  0  0  0
 11 68  1  0  0  0  0
 12 27  2  0  0  0  0
 13 16  2  0  0  0  0
 13 69  1  0  0  0  0
 14 44  1  0  0  0  0
 14 49  1  0  0  0  0
 15 28  2  0  0  0  0
 16 19  1  0  0  0  0
 16 70  1  0  0  0  0
 17 51  2  0  0  0  0
 17 52  1  0  0  0  0
 19 21  1  0  0  0  0
 19 71  1  1  0  0  0
 20 49  2  0  0  0  0
 22 50  1  0  0  0  0
 22 51  1  0  0  0  0
 23 25  1  0  0  0  0
 23 26  1  0  0  0  0
 23 72  1  6  0  0  0
 24 53  1  0  0  0  0
 24 73  1  0  0  0  0
 25 27  1  0  0  0  0
 25 74  1  0  0  0  0
 25 75  1  0  0  0  0
 26 76  1  0  0  0  0
 26 77  1  0  0  0  0
 26 78  1  0  0  0  0
 28 52  1  0  0  0  0
 29 30  1  0  0  0  0
 29 79  1  0  0  0  0
 29 80  1  0  0  0  0
 30 31  1  0  0  0  0
 30 81  1  0  0  0  0
 30 82  1  0  0  0  0
 31 32  1  0  0  0  0
 31 83  1  0  0  0  0
 31 84  1  0  0  0  0
 32 33  1  0  0  0  0
 32 85  1  0  0  0  0
 32 86  1  0  0  0  0
 33 34  1  0  0  0  0
 33 87  1  0  0  0  0
 33 88  1  0  0  0  0
 34 35  1  0  0  0  0
 34 89  1  0  0  0  0
 34 90  1  0  0  0  0
 35 36  1  0  0  0  0
 35 91  1  0  0  0  0
 35 92  1  0  0  0  0
 36 37  1  0  0  0  0
 36 93  1  0  0  0  0
 36 94  1  0  0  0  0
 37 38  1  0  0  0  0
 37 95  1  0  0  0  0
 37 96  1  0  0  0  0
 38 39  1  0  0  0  0
 38 97  1  0  0  0  0
 38 98  1  0  0  0  0
 39 40  1  0  0  0  0
 39 99  1  0  0  0  0
 39100  1  0  0  0  0
 40 41  1  0  0  0  0
 40101  1  0  0  0  0
 40102  1  0  0  0  0
 41 42  1  0  0  0  0
 41103  1  0  0  0  0
 41104  1  0  0  0  0
 42 43  1  0  0  0  0
 42105  1  0  0  0  0
 42106  1  0  0  0  0
 43107  1  0  0  0  0
 43108  1  0  0  0  0
 43109  1  0  0  0  0
 44 45  1  0  0  0  0
 44110  1  0  0  0  0
 44111  1  0  0  0  0
 45 46  1  0  0  0  0
 45112  1  0  0  0  0
 45113  1  0  0  0  0
 46 47  1  0  0  0  0
 46114  1  0  0  0  0
 46115  1  0  0  0  0
 47 48  1  0  0  0  0
 47116  1  0  0  0  0
 47117  1  0  0  0  0
 48 49  1  0  0  0  0
 48118  1  6  0  0  0
 50 52  1  0  0  0  0
 50119  1  0  0  0  0
 50120  1  0  0  0  0
 51 58  1  0  0  0  0
 52121  1  1  0  0  0
 53 54  2  0  0  0  0
 53 58  1  0  0  0  0
 54 55  1  0  0  0  0
 54122  1  0  0  0  0
 55 56  2  0  0  0  0
 55123  1  0  0  0  0
 56 57  1  0  0  0  0
 56124  1  0  0  0  0
 57 58  2  0  0  0  0
 57125  1  0  0  0  0
M  END
$$$$
/media/chris/experiments/cd1a-new-docking/inputs/ligands/1xz0_ligand.pdb
 OpenBabel07022319323D

125127  0  0  1  0  0  0  0  0999 V2000
  -38.5955   56.2110   59.6981 N   0  0  0  0  0  0  0  0  0  0  0  0
  -39.0895   56.2000   60.9644 C   0  0  0  0  0  0  0  0  0  0  0  0
  -34.9015   57.3291   63.0745 O   0  0  0  0  0  0  0  0  0  0  0  0
  -33.6499   55.1447   58.1099 Si  0  0  0  0  0  0  0  0  0  0  0  0
  -38.8386   55.0778   58.9092 O   0  0  0  0  0  0  0  0  0  0  0  0
  -32.9212   56.7364   57.7475 O   0  0  0  0  0  0  0  0  0  0  0  0
  -37.8277   57.2571   59.0156 C   0  0  0  0  0  0  0  0  0  0  0  0
  -33.3447   59.3288   61.3466 N   0  0  0  0  0  0  0  0  0  0  0  0
  -34.3234   59.2293   64.2555 O   0  0  0  0  0  0  0  0  0  0  0  0
  -37.6379   58.4343   59.9942 C   0  0  0  0  0  0  0  0  0  0  0  0
  -36.8950   59.8150   64.6310 N   0  0  0  0  0  0  0  0  0  0  0  0
  -32.9684   61.5396   61.6403 O   0  0  0  0  0  0  0  0  0  0  0  0
  -36.8790   58.1542   61.3024 C   0  0  0  0  0  0  0  0  0  0  0  0
  -32.8561   57.7015   58.7069 N   0  0  0  0  0  0  0  0  0  0  0  0
  -38.3860   61.0055   63.3930 O   0  0  0  0  0  0  0  0  0  0  0  0
  -37.6390   58.4030   62.6110 C   0  0  0  0  0  0  0  0  0  0  0  0
  -37.7121   63.3810   64.5077 N   0  0  0  0  0  0  0  0  0  0  0  0
  -38.9317   57.1602   61.7181 O   0  0  0  0  0  0  0  0  0  0  0  0
  -36.7890   58.5530   63.8960 C   0  0  1  0  0  0  0  0  0  0  0  0
  -35.0729   57.5250   59.0532 O   0  0  0  0  0  0  0  0  0  0  0  0
  -35.3080   58.3090   63.6770 C   0  0  0  0  0  0  0  0  0  0  0  0
  -35.7326   63.7445   65.4780 O   0  0  0  0  0  0  0  0  0  0  0  0
  -32.9090   58.9936   64.1228 C   0  0  1  0  0  0  0  0  0  0  0  0
  -39.1855   65.7720   64.0841 O   0  0  0  0  0  0  0  0  0  0  0  0
  -32.2928   60.1754   63.3893 C   0  0  0  0  0  0  0  0  0  0  0  0
  -32.1864   58.7248   65.4370 C   0  0  0  0  0  0  0  0  0  0  0  0
  -32.8793   60.3932   62.0164 C   0  0  0  0  0  0  0  0  0  0  0  0
  -37.6390   60.9007   64.3569 C   0  0  0  0  0  0  0  0  0  0  0  0
  -39.8493   54.9625   61.4535 C   0  0  0  0  0  0  0  0  0  0  0  0
  -40.9394   55.2556   62.4934 C   0  0  0  0  0  0  0  0  0  0  0  0
  -40.3195   55.9272   63.7339 C   0  0  0  0  0  0  0  0  0  0  0  0
  -41.3448   56.2421   64.8397 C   0  0  0  0  0  0  0  0  0  0  0  0
  -42.0733   55.0101   65.4085 C   0  0  0  0  0  0  0  0  0  0  0  0
  -41.1128   53.9909   66.0565 C   0  0  0  0  0  0  0  0  0  0  0  0
  -40.0348   53.4279   65.1012 C   0  0  0  0  0  0  0  0  0  0  0  0
  -39.1052   52.4056   65.7653 C   0  0  0  0  0  0  0  0  0  0  0  0
  -38.0092   51.8320   64.8615 C   0  0  0  0  0  0  0  0  0  0  0  0
  -38.6088   51.1218   63.6341 C   0  0  0  0  0  0  0  0  0  0  0  0
  -37.5589   50.5086   62.6951 C   0  0  0  0  0  0  0  0  0  0  0  0
  -36.6595   49.4335   63.3138 C   0  0  0  0  0  0  0  0  0  0  0  0
  -35.6029   48.8516   62.3418 C   0  0  0  0  0  0  0  0  0  0  0  0
  -36.2652   48.2082   61.1066 C   0  0  0  0  0  0  0  0  0  0  0  0
  -35.3357   47.5748   60.0645 C   0  0  0  0  0  0  0  0  0  0  0  0
  -31.5187   58.1881   59.0763 C   0  0  0  0  0  0  0  0  0  0  0  0
  -31.3223   59.6449   58.6159 C   0  0  0  0  0  0  0  0  0  0  0  0
  -32.5647   60.3236   58.0630 C   0  0  0  0  0  0  0  0  0  0  0  0
  -33.6424   60.5564   59.1251 C   0  0  0  0  0  0  0  0  0  0  0  0
  -34.0341   59.3942   60.0529 C   0  0  1  0  0  0  0  0  0  0  0  0
  -34.0178   58.1164   59.2370 C   0  0  0  0  0  0  0  0  0  0  0  0
  -36.0749   62.4189   65.8807 C   0  0  0  0  0  0  0  0  0  0  0  0
  -36.7896   64.2363   64.6302 C   0  0  0  0  0  0  0  0  0  0  0  0
  -37.4607   62.1261   65.2416 C   0  0  1  0  0  0  0  0  0  0  0  0
  -37.9941   66.3139   63.8039 C   0  0  0  0  0  0  0  0  0  0  0  0
  -37.9298   67.6084   63.2718 C   0  0  0  0  0  0  0  0  0  0  0  0
  -36.6920   68.1959   62.9603 C   0  0  0  0  0  0  0  0  0  0  0  0
  -35.5037   67.4992   63.1867 C   0  0  0  0  0  0  0  0  0  0  0  0
  -35.5622   66.2099   63.7232 C   0  0  0  0  0  0  0  0  0  0  0  0
  -36.8016   65.6152   64.0282 C   0  0  0  0  0  0  0  0  0  0  0  0
  -33.5957   54.3246   56.9518 H   0  0  0  0  0  0  0  0  0  0  0  0
  -35.0033   55.3218   58.5015 H   0  0  0  0  0  0  0  0  0  0  0  0
  -32.9295   54.5232   59.1640 H   0  0  0  0  0  0  0  0  0  0  0  0
  -39.3482   54.4305   59.4213 H   0  0  0  0  0  0  0  0  0  0  0  0
  -38.3599   57.5893   58.1488 H   0  0  0  0  0  0  0  0  0  0  0  0
  -36.8764   56.8756   58.7085 H   0  0  0  0  0  0  0  0  0  0  0  0
  -33.2146   58.4408   61.7513 H   0  0  0  0  0  0  0  0  0  0  0  0
  -38.6112   58.7918   60.2584 H   0  0  0  0  0  0  0  0  0  0  0  0
  -37.0223   59.1319   59.4657 H   0  0  0  0  0  0  0  0  0  0  0  0
  -36.3417   59.8774   65.4429 H   0  0  0  0  0  0  0  0  0  0  0  0
  -35.9044   57.8148   61.2996 H   0  0  0  0  0  0  0  0  0  0  0  0
  -38.6687   58.4674   62.6338 H   0  0  0  0  0  0  0  0  0  0  0  0
  -37.2383   57.7881   64.4943 H   0  0  0  0  0  0  0  0  0  0  0  0
  -32.7872   58.0895   63.5636 H   0  0  0  0  0  0  0  0  0  0  0  0
  -39.9705   66.2586   63.9256 H   0  0  0  0  0  0  0  0  0  0  0  0
  -31.2419   60.0017   63.2867 H   0  0  0  0  0  0  0  0  0  0  0  0
  -32.5004   61.0518   63.9669 H   0  0  0  0  0  0  0  0  0  0  0  0
  -32.2581   59.5872   66.0663 H   0  0  0  0  0  0  0  0  0  0  0  0
  -31.1565   58.5112   65.2406 H   0  0  0  0  0  0  0  0  0  0  0  0
  -32.6372   57.8872   65.9271 H   0  0  0  0  0  0  0  0  0  0  0  0
  -39.1432   54.2876   61.8905 H   0  0  0  0  0  0  0  0  0  0  0  0
  -40.3459   54.5524   60.5990 H   0  0  0  0  0  0  0  0  0  0  0  0
  -41.4073   54.3383   62.7840 H   0  0  0  0  0  0  0  0  0  0  0  0
  -41.6653   55.9141   62.0642 H   0  0  0  0  0  0  0  0  0  0  0  0
  -39.8590   56.8434   63.4284 H   0  0  0  0  0  0  0  0  0  0  0  0
  -39.6144   55.2361   64.1464 H   0  0  0  0  0  0  0  0  0  0  0  0
  -42.0792   56.9064   64.4345 H   0  0  0  0  0  0  0  0  0  0  0  0
  -40.7939   56.6698   65.6511 H   0  0  0  0  0  0  0  0  0  0  0  0
  -42.5982   54.5257   64.6118 H   0  0  0  0  0  0  0  0  0  0  0  0
  -42.7389   55.3546   66.1721 H   0  0  0  0  0  0  0  0  0  0  0  0
  -41.6939   53.1714   66.4246 H   0  0  0  0  0  0  0  0  0  0  0  0
  -40.5904   54.5145   66.8298 H   0  0  0  0  0  0  0  0  0  0  0  0
  -39.4413   54.2426   64.7420 H   0  0  0  0  0  0  0  0  0  0  0  0
  -40.5476   52.9211   64.3106 H   0  0  0  0  0  0  0  0  0  0  0  0
  -39.7052   51.5914   66.1145 H   0  0  0  0  0  0  0  0  0  0  0  0
  -38.5982   52.9314   66.5472 H   0  0  0  0  0  0  0  0  0  0  0  0
  -37.4286   51.1291   65.4215 H   0  0  0  0  0  0  0  0  0  0  0  0
  -37.3983   52.6405   64.5180 H   0  0  0  0  0  0  0  0  0  0  0  0
  -39.1819   51.8347   63.0790 H   0  0  0  0  0  0  0  0  0  0  0  0
  -39.2048   50.3136   64.0035 H   0  0  0  0  0  0  0  0  0  0  0  0
  -36.9306   51.3000   62.3434 H   0  0  0  0  0  0  0  0  0  0  0  0
  -38.1116   50.0164   61.9224 H   0  0  0  0  0  0  0  0  0  0  0  0
  -37.2807   48.6312   63.6534 H   0  0  0  0  0  0  0  0  0  0  0  0
  -36.1193   49.9050   64.1081 H   0  0  0  0  0  0  0  0  0  0  0  0
  -35.0297   48.1084   62.8557 H   0  0  0  0  0  0  0  0  0  0  0  0
  -34.9766   49.6523   62.0081 H   0  0  0  0  0  0  0  0  0  0  0  0
  -36.8323   48.9690   60.6123 H   0  0  0  0  0  0  0  0  0  0  0  0
  -36.8408   47.3939   61.4945 H   0  0  0  0  0  0  0  0  0  0  0  0
  -34.7211   48.3335   59.6267 H   0  0  0  0  0  0  0  0  0  0  0  0
  -35.9217   47.1064   59.3016 H   0  0  0  0  0  0  0  0  0  0  0  0
  -34.7155   46.8425   60.5379 H   0  0  0  0  0  0  0  0  0  0  0  0
  -30.7793   57.5702   58.6111 H   0  0  0  0  0  0  0  0  0  0  0  0
  -31.4201   58.1478   60.1410 H   0  0  0  0  0  0  0  0  0  0  0  0
  -30.5737   59.6521   57.8515 H   0  0  0  0  0  0  0  0  0  0  0  0
  -31.0473   60.1972   59.4901 H   0  0  0  0  0  0  0  0  0  0  0  0
  -32.9748   59.7070   57.2906 H   0  0  0  0  0  0  0  0  0  0  0  0
  -32.2675   61.2826   57.6931 H   0  0  0  0  0  0  0  0  0  0  0  0
  -34.5300   60.8604   58.6106 H   0  0  0  0  0  0  0  0  0  0  0  0
  -33.2037   61.2761   59.7843 H   0  0  0  0  0  0  0  0  0  0  0  0
  -35.0289   59.5724   60.4044 H   0  0  0  0  0  0  0  0  0  0  0  0
  -36.1361   62.3576   66.9472 H   0  0  0  0  0  0  0  0  0  0  0  0
  -35.3385   61.7094   65.5657 H   0  0  0  0  0  0  0  0  0  0  0  0
  -38.1558   61.8573   66.0093 H   0  0  0  0  0  0  0  0  0  0  0  0
  -38.8011   68.1363   63.1069 H   0  0  0  0  0  0  0  0  0  0  0  0
  -36.6611   69.1474   62.5621 H   0  0  0  0  0  0  0  0  0  0  0  0
  -34.5937   67.9305   62.9609 H   0  0  0  0  0  0  0  0  0  0  0  0
  -34.6887   65.6887   63.8975 H   0  0  0  0  0  0  0  0  0  0  0  0
  1  2  1  0  0  0  0
  1  5  1  0  0  0  0
  1  7  1  0  0  0  0
  2 18  2  0  0  0  0
  2 29  1  0  0  0  0
  3 21  2  0  0  0  0
  4  6  1  0  0  0  0
  4 59  1  0  0  0  0
  4 60  1  0  0  0  0
  4 61  1  0  0  0  0
  5 62  1  0  0  0  0
  6 14  1  0  0  0  0
  7 10  1  0  0  0  0
  7 63  1  0  0  0  0
  7 64  1  0  0  0  0
  8 27  1  0  0  0  0
  8 48  1  0  0  0  0
  8 65  1  0  0  0  0
  9 21  1  0  0  0  0
  9 23  1  0  0  0  0
 10 13  1  0  0  0  0
 10 66  1  0  0  0  0
 10 67  1  0  0  0  0
 11 19  1  0  0  0  0
 11 28  1  0  0  0  0
 11 68  1  0  0  0  0
 12 27  2  0  0  0  0
 13 16  2  0  0  0  0
 13 69  1  0  0  0  0
 14 44  1  0  0  0  0
 14 49  1  0  0  0  0
 15 28  2  0  0  0  0
 16 19  1  0  0  0  0
 16 70  1  0  0  0  0
 17 51  2  0  0  0  0
 17 52  1  0  0  0  0
 19 21  1  0  0  0  0
 19 71  1  1  0  0  0
 20 49  2  0  0  0  0
 22 50  1  0  0  0  0
 22 51  1  0  0  0  0
 23 25  1  0  0  0  0
 23 26  1  0  0  0  0
 23 72  1  6  0  0  0
 24 53  1  0  0  0  0
 24 73  1  0  0  0  0
 25 27  1  0  0  0  0
 25 74  1  0  0  0  0
 25 75  1  0  0  0  0
 26 76  1  0  0  0  0
 26 77  1  0  0  0  0
 26 78  1  0  0  0  0
 28 52  1  0  0  0  0
 29 30  1  0  0  0  0
 29 79  1  0  0  0  0
 29 80  1  0  0  0  0
 30 31  1  0  0  0  0
 30 81  1  0  0  0  0
 30 82  1  0  0  0  0
 31 32  1  0  0  0  0
 31 83  1  0  0  0  0
 31 84  1  0  0  0  0
 32 33  1  0  0  0  0
 32 85  1  0  0  0  0
 32 86  1  0  0  0  0
 33 34  1  0  0  0  0
 33 87  1  0  0  0  0
 33 88  1  0  0  0  0
 34 35  1  0  0  0  0
 34 89  1  0  0  0  0
 34 90  1  0  0  0  0
 35 36  1  0  0  0  0
 35 91  1  0  0  0  0
 35 92  1  0  0  0  0
 36 37  1  0  0  0  0
 36 93  1  0  0  0  0
 36 94  1  0  0  0  0
 37 38  1  0  0  0  0
 37 95  1  0  0  0  0
 37 96  1  0  0  0  0
 38 39  1  0  0  0  0
 38 97  1  0  0  0  0
 38 98  1  0  0  0  0
 39 40  1  0  0  0  0
 39 99  1  0  0  0  0
 39100  1  0  0  0  0
 40 41  1  0  0  0  0
 40101  1  0  0  0  0
 40102  1  0  0  0  0
 41 42  1  0  0  0  0
 41103  1  0  0  0  0
 41104  1  0  0  0  0
 42 43  1  0  0  0  0
 42105  1  0  0  0  0
 42106  1  0  0  0  0
 43107  1  0  0  0  0
 43108  1  0  0  0  0
 43109  1  0  0  0  0
 44 45  1  0  0  0  0
 44110  1  0  0  0  0
 44111  1  0  0  0  0
 45 46  1  0  0  0  0
 45112  1  0  0  0  0
 45113  1  0  0  0  0
 46 47  1  0  0  0  0
 46114  1  0  0  0  0
 46115  1  0  0  0  0
 47 48  1  0  0  0  0
 47116  1  0  0  0  0
 47117  1  0  0  0  0
 48 49  1  0  0  0  0
 48118  1  1  0  0  0
 50 52  1  0  0  0  0
 50119  1  0  0  0  0
 50120  1  0  0  0  0
 51 58  1  0  0  0  0
 52121  1  1  0  0  0
 53 54  2  0  0  0  0
 53 58  1  0  0  0  0
 54 55  1  0  0  0  0
 54122  1  0  0  0  0
 55 56  2  0  0  0  0
 55123  1  0  0  0  0
 56 57  1  0  0  0  0
 56124  1  0  0  0  0
 57 58  2  0  0  0  0
 57125  1  0  0  0  0
M  END
$$$$
/media/chris/experiments/cd1a-new-docking/inputs/ligands/1xz0_ligand.pdb
 OpenBabel07022319323D

125127  0  0  1  0  0  0  0  0999 V2000
  -41.2006   59.9899   59.4601 N   0  0  0  0  0  0  0  0  0  0  0  0
  -42.4660   60.4764   59.3610 C   0  0  0  0  0  0  0  0  0  0  0  0
  -34.9015   57.3291   63.0745 O   0  0  0  0  0  0  0  0  0  0  0  0
  -32.5401   67.8530   62.8282 Si  0  0  0  0  0  0  0  0  0  0  0  0
  -40.8803   58.8799   58.6658 O   0  0  0  0  0  0  0  0  0  0  0  0
  -32.5592   66.2811   61.9770 O   0  0  0  0  0  0  0  0  0  0  0  0
  -40.0916   60.4644   60.2936 C   0  0  0  0  0  0  0  0  0  0  0  0
  -31.5320   62.4298   63.9681 N   0  0  0  0  0  0  0  0  0  0  0  0
  -34.3234   59.2293   64.2555 O   0  0  0  0  0  0  0  0  0  0  0  0
  -39.6678   59.3173   61.2339 C   0  0  0  0  0  0  0  0  0  0  0  0
  -36.8950   59.8150   64.6310 N   0  0  0  0  0  0  0  0  0  0  0  0
  -33.5053   61.6283   64.7291 O   0  0  0  0  0  0  0  0  0  0  0  0
  -38.5208   59.5953   62.2201 C   0  0  0  0  0  0  0  0  0  0  0  0
  -31.9666   65.1871   62.5318 N   0  0  0  0  0  0  0  0  0  0  0  0
  -35.4578   59.5184   66.3686 O   0  0  0  0  0  0  0  0  0  0  0  0
  -37.6390   58.4030   62.6110 C   0  0  0  0  0  0  0  0  0  0  0  0
  -38.0692   61.8794   66.0900 N   0  0  0  0  0  0  0  0  0  0  0  0
  -42.8248   61.4560   60.0140 O   0  0  0  0  0  0  0  0  0  0  0  0
  -36.7890   58.5530   63.8960 C   0  0  1  0  0  0  0  0  0  0  0  0
  -33.4800   65.1961   64.1976 O   0  0  0  0  0  0  0  0  0  0  0  0
  -35.3080   58.3090   63.6770 C   0  0  0  0  0  0  0  0  0  0  0  0
  -36.9691   63.7250   65.4772 O   0  0  0  0  0  0  0  0  0  0  0  0
  -32.9090   58.9936   64.1228 C   0  0  1  0  0  0  0  0  0  0  0  0
  -38.6471   65.0045   63.5251 O   0  0  0  0  0  0  0  0  0  0  0  0
  -32.2928   60.1754   63.3893 C   0  0  0  0  0  0  0  0  0  0  0  0
  -32.1864   58.7248   65.4370 C   0  0  0  0  0  0  0  0  0  0  0  0
  -32.4716   61.4846   64.1175 C   0  0  0  0  0  0  0  0  0  0  0  0
  -36.2648   60.2028   65.7534 C   0  0  0  0  0  0  0  0  0  0  0  0
  -43.4565   59.7811   58.4210 C   0  0  0  0  0  0  0  0  0  0  0  0
  -44.2767   58.6620   59.0769 C   0  0  0  0  0  0  0  0  0  0  0  0
  -43.3374   57.5739   59.6318 C   0  0  0  0  0  0  0  0  0  0  0  0
  -44.0812   56.3990   60.2949 C   0  0  0  0  0  0  0  0  0  0  0  0
  -45.0296   55.6291   59.3569 C   0  0  0  0  0  0  0  0  0  0  0  0
  -44.2991   54.9908   58.1568 C   0  0  0  0  0  0  0  0  0  0  0  0
  -43.2153   53.9568   58.5413 C   0  0  0  0  0  0  0  0  0  0  0  0
  -42.4938   53.3511   57.3319 C   0  0  0  0  0  0  0  0  0  0  0  0
  -41.4218   52.3079   57.6629 C   0  0  0  0  0  0  0  0  0  0  0  0
  -40.3187   52.9015   58.5581 C   0  0  0  0  0  0  0  0  0  0  0  0
  -39.5890   54.1009   57.9345 C   0  0  0  0  0  0  0  0  0  0  0  0
  -38.4706   54.7143   58.7833 C   0  0  0  0  0  0  0  0  0  0  0  0
  -37.3137   53.7382   59.1124 C   0  0  0  0  0  0  0  0  0  0  0  0
  -36.2340   54.4143   59.9816 C   0  0  0  0  0  0  0  0  0  0  0  0
  -35.5460   55.6564   59.4026 C   0  0  0  0  0  0  0  0  0  0  0  0
  -30.8769   64.5585   61.7706 C   0  0  0  0  0  0  0  0  0  0  0  0
  -29.5269   64.7590   62.4848 C   0  0  0  0  0  0  0  0  0  0  0  0
  -29.6116   65.3764   63.8710 C   0  0  0  0  0  0  0  0  0  0  0  0
  -30.2846   64.4585   64.8949 C   0  0  0  0  0  0  0  0  0  0  0  0
  -31.6166   63.7845   64.5256 C   0  0  1  0  0  0  0  0  0  0  0  0
  -32.4357   64.7739   63.7201 C   0  0  0  0  0  0  0  0  0  0  0  0
  -35.9383   62.8376   65.9092 C   0  0  0  0  0  0  0  0  0  0  0  0
  -38.2295   63.0388   65.6128 C   0  0  0  0  0  0  0  0  0  0  0  0
  -36.6602   61.5392   66.3649 C   0  0  1  0  0  0  0  0  0  0  0  0
  -39.6982   64.5962   64.2463 C   0  0  0  0  0  0  0  0  0  0  0  0
  -40.9712   65.1112   63.9684 C   0  0  0  0  0  0  0  0  0  0  0  0
  -42.0888   64.7058   64.7172 C   0  0  0  0  0  0  0  0  0  0  0  0
  -41.9479   63.7730   65.7461 C   0  0  0  0  0  0  0  0  0  0  0  0
  -40.6811   63.2514   66.0232 C   0  0  0  0  0  0  0  0  0  0  0  0
  -39.5578   63.6624   65.2802 C   0  0  0  0  0  0  0  0  0  0  0  0
  -33.2194   68.8236   62.0453 H   0  0  0  0  0  0  0  0  0  0  0  0
  -31.1965   68.2649   63.0315 H   0  0  0  0  0  0  0  0  0  0  0  0
  -33.1893   67.7192   64.0840 H   0  0  0  0  0  0  0  0  0  0  0  0
  -41.6558   58.6214   58.1437 H   0  0  0  0  0  0  0  0  0  0  0  0
  -40.4081   61.3077   60.8713 H   0  0  0  0  0  0  0  0  0  0  0  0
  -39.2678   60.7603   59.6781 H   0  0  0  0  0  0  0  0  0  0  0  0
  -30.7290   62.1984   63.4477 H   0  0  0  0  0  0  0  0  0  0  0  0
  -39.3702   58.4930   60.6200 H   0  0  0  0  0  0  0  0  0  0  0  0
  -40.5230   59.1416   61.8525 H   0  0  0  0  0  0  0  0  0  0  0  0
  -37.5175   60.4746   64.2480 H   0  0  0  0  0  0  0  0  0  0  0  0
  -38.3525   60.5396   62.6009 H   0  0  0  0  0  0  0  0  0  0  0  0
  -37.6135   57.5411   62.0440 H   0  0  0  0  0  0  0  0  0  0  0  0
  -37.2383   57.7881   64.4943 H   0  0  0  0  0  0  0  0  0  0  0  0
  -32.7872   58.0895   63.5636 H   0  0  0  0  0  0  0  0  0  0  0  0
  -38.7652   65.6304   62.8379 H   0  0  0  0  0  0  0  0  0  0  0  0
  -32.7530   60.2559   62.4267 H   0  0  0  0  0  0  0  0  0  0  0  0
  -31.2410   59.9921   63.3175 H   0  0  0  0  0  0  0  0  0  0  0  0
  -32.2581   59.5872   66.0663 H   0  0  0  0  0  0  0  0  0  0  0  0
  -31.1565   58.5112   65.2406 H   0  0  0  0  0  0  0  0  0  0  0  0
  -32.6372   57.8872   65.9271 H   0  0  0  0  0  0  0  0  0  0  0  0
  -42.9049   59.3585   57.6074 H   0  0  0  0  0  0  0  0  0  0  0  0
  -44.1557   60.5283   58.1086 H   0  0  0  0  0  0  0  0  0  0  0  0
  -44.9298   58.2283   58.3487 H   0  0  0  0  0  0  0  0  0  0  0  0
  -44.8506   59.0731   59.8811 H   0  0  0  0  0  0  0  0  0  0  0  0
  -42.6938   58.0214   60.3600 H   0  0  0  0  0  0  0  0  0  0  0  0
  -42.7945   57.1737   58.8011 H   0  0  0  0  0  0  0  0  0  0  0  0
  -44.6583   56.7861   61.1085 H   0  0  0  0  0  0  0  0  0  0  0  0
  -43.3312   55.7024   60.6062 H   0  0  0  0  0  0  0  0  0  0  0  0
  -45.7680   56.3084   58.9852 H   0  0  0  0  0  0  0  0  0  0  0  0
  -45.4686   54.8356   59.9248 H   0  0  0  0  0  0  0  0  0  0  0  0
  -43.8310   55.7728   57.5962 H   0  0  0  0  0  0  0  0  0  0  0  0
  -45.0405   54.4602   57.5967 H   0  0  0  0  0  0  0  0  0  0  0  0
  -43.6815   53.1650   59.0895 H   0  0  0  0  0  0  0  0  0  0  0  0
  -42.4792   54.4726   59.1219 H   0  0  0  0  0  0  0  0  0  0  0  0
  -42.0243   54.1481   56.7940 H   0  0  0  0  0  0  0  0  0  0  0  0
  -43.2433   52.8360   56.7682 H   0  0  0  0  0  0  0  0  0  0  0  0
  -40.9814   51.9600   56.7519 H   0  0  0  0  0  0  0  0  0  0  0  0
  -41.8873   51.5022   58.1911 H   0  0  0  0  0  0  0  0  0  0  0  0
  -39.5986   52.1357   58.7578 H   0  0  0  0  0  0  0  0  0  0  0  0
  -40.7976   53.2570   59.4465 H   0  0  0  0  0  0  0  0  0  0  0  0
  -40.3143   54.8645   57.7453 H   0  0  0  0  0  0  0  0  0  0  0  0
  -39.1129   53.7257   57.0528 H   0  0  0  0  0  0  0  0  0  0  0  0
  -38.8962   55.0528   59.7048 H   0  0  0  0  0  0  0  0  0  0  0  0
  -38.0470   55.5088   58.2051 H   0  0  0  0  0  0  0  0  0  0  0  0
  -36.8671   53.4075   58.1980 H   0  0  0  0  0  0  0  0  0  0  0  0
  -37.7169   52.9121   59.6600 H   0  0  0  0  0  0  0  0  0  0  0  0
  -35.4742   53.6862   60.1756 H   0  0  0  0  0  0  0  0  0  0  0  0
  -36.7561   54.7658   60.8469 H   0  0  0  0  0  0  0  0  0  0  0  0
  -34.9974   55.3838   58.5253 H   0  0  0  0  0  0  0  0  0  0  0  0
  -34.8758   56.0645   60.1300 H   0  0  0  0  0  0  0  0  0  0  0  0
  -36.2848   56.3874   59.1485 H   0  0  0  0  0  0  0  0  0  0  0  0
  -30.8283   65.0002   60.7973 H   0  0  0  0  0  0  0  0  0  0  0  0
  -31.0724   63.5094   61.6932 H   0  0  0  0  0  0  0  0  0  0  0  0
  -28.9218   65.3970   61.8751 H   0  0  0  0  0  0  0  0  0  0  0  0
  -29.1157   63.7806   62.6209 H   0  0  0  0  0  0  0  0  0  0  0  0
  -30.1737   66.2845   63.8059 H   0  0  0  0  0  0  0  0  0  0  0  0
  -28.6102   65.5493   64.2059 H   0  0  0  0  0  0  0  0  0  0  0  0
  -30.4615   65.0438   65.7729 H   0  0  0  0  0  0  0  0  0  0  0  0
  -29.6015   63.6412   64.9968 H   0  0  0  0  0  0  0  0  0  0  0  0
  -32.1354   63.5577   65.4335 H   0  0  0  0  0  0  0  0  0  0  0  0
  -35.3945   63.2671   66.7244 H   0  0  0  0  0  0  0  0  0  0  0  0
  -35.2337   62.6427   65.1279 H   0  0  0  0  0  0  0  0  0  0  0  0
  -36.3948   61.3228   67.3786 H   0  0  0  0  0  0  0  0  0  0  0  0
  -41.0892   65.7959   63.2053 H   0  0  0  0  0  0  0  0  0  0  0  0
  -43.0189   65.0997   64.5054 H   0  0  0  0  0  0  0  0  0  0  0  0
  -42.7684   63.4723   66.2951 H   0  0  0  0  0  0  0  0  0  0  0  0
  -40.5679   62.5585   66.7795 H   0  0  0  0  0  0  0  0  0  0  0  0
  1  2  1  0  0  0  0
  1  5  1  0  0  0  0
  1  7  1  0  0  0  0
  2 18  2  0  0  0  0
  2 29  1  0  0  0  0
  3 21  2  0  0  0  0
  4  6  1  0  0  0  0
  4 59  1  0  0  0  0
  4 60  1  0  0  0  0
  4 61  1  0  0  0  0
  5 62  1  0  0  0  0
  6 14  1  0  0  0  0
  7 10  1  0  0  0  0
  7 63  1  0  0  0  0
  7 64  1  0  0  0  0
  8 27  1  0  0  0  0
  8 48  1  0  0  0  0
  8 65  1  0  0  0  0
  9 21  1  0  0  0  0
  9 23  1  0  0  0  0
 10 13  1  0  0  0  0
 10 66  1  0  0  0  0
 10 67  1  0  0  0  0
 11 19  1  0  0  0  0
 11 28  1  0  0  0  0
 11 68  1  0  0  0  0
 12 27  2  0  0  0  0
 13 16  2  0  0  0  0
 13 69  1  0  0  0  0
 14 44  1  0  0  0  0
 14 49  1  0  0  0  0
 15 28  2  0  0  0  0
 16 19  1  0  0  0  0
 16 70  1  0  0  0  0
 17 51  2  0  0  0  0
 17 52  1  0  0  0  0
 19 21  1  0  0  0  0
 19 71  1  1  0  0  0
 20 49  2  0  0  0  0
 22 50  1  0  0  0  0
 22 51  1  0  0  0  0
 23 25  1  0  0  0  0
 23 26  1  0  0  0  0
 23 72  1  6  0  0  0
 24 53  1  0  0  0  0
 24 73  1  0  0  0  0
 25 27  1  0  0  0  0
 25 74  1  0  0  0  0
 25 75  1  0  0  0  0
 26 76  1  0  0  0  0
 26 77  1  0  0  0  0
 26 78  1  0  0  0  0
 28 52  1  0  0  0  0
 29 30  1  0  0  0  0
 29 79  1  0  0  0  0
 29 80  1  0  0  0  0
 30 31  1  0  0  0  0
 30 81  1  0  0  0  0
 30 82  1  0  0  0  0
 31 32  1  0  0  0  0
 31 83  1  0  0  0  0
 31 84  1  0  0  0  0
 32 33  1  0  0  0  0
 32 85  1  0  0  0  0
 32 86  1  0  0  0  0
 33 34  1  0  0  0  0
 33 87  1  0  0  0  0
 33 88  1  0  0  0  0
 34 35  1  0  0  0  0
 34 89  1  0  0  0  0
 34 90  1  0  0  0  0
 35 36  1  0  0  0  0
 35 91  1  0  0  0  0
 35 92  1  0  0  0  0
 36 37  1  0  0  0  0
 36 93  1  0  0  0  0
 36 94  1  0  0  0  0
 37 38  1  0  0  0  0
 37 95  1  0  0  0  0
 37 96  1  0  0  0  0
 38 39  1  0  0  0  0
 38 97  1  0  0  0  0
 38 98  1  0  0  0  0
 39 40  1  0  0  0  0
 39 99  1  0  0  0  0
 39100  1  0  0  0  0
 40 41  1  0  0  0  0
 40101  1  0  0  0  0
 40102  1  0  0  0  0
 41 42  1  0  0  0  0
 41103  1  0  0  0  0
 41104  1  0  0  0  0
 42 43  1  0  0  0  0
 42105  1  0  0  0  0
 42106  1  0  0  0  0
 43107  1  0  0  0  0
 43108  1  0  0  0  0
 43109  1  0  0  0  0
 44 45  1  0  0  0  0
 44110  1  0  0  0  0
 44111  1  0  0  0  0
 45 46  1  0  0  0  0
 45112  1  0  0  0  0
 45113  1  0  0  0  0
 46 47  1  0  0  0  0
 46114  1  0  0  0  0
 46115  1  0  0  0  0
 47 48  1  0  0  0  0
 47116  1  0  0  0  0
 47117  1  0  0  0  0
 48 49  1  0  0  0  0
 48118  1  1  0  0  0
 50 52  1  0  0  0  0
 50119  1  0  0  0  0
 50120  1  0  0  0  0
 51 58  1  0  0  0  0
 52121  1  1  0  0  0
 53 54  2  0  0  0  0
 53 58  1  0  0  0  0
 54 55  1  0  0  0  0
 54122  1  0  0  0  0
 55 56  2  0  0  0  0
 55123  1  0  0  0  0
 56 57  1  0  0  0  0
 56124  1  0  0  0  0
 57 58  2  0  0  0  0
 57125  1  0  0  0  0
M  END
$$$$
/media/chris/experiments/cd1a-new-docking/inputs/ligands/1xz0_ligand.pdb
 OpenBabel07022319323D

125127  0  0  1  0  0  0  0  0999 V2000
  -37.5111   55.1115   60.7483 N   0  0  0  0  0  0  0  0  0  0  0  0
  -37.0028   54.0269   60.1058 C   0  0  0  0  0  0  0  0  0  0  0  0
  -34.8323   58.2135   62.5576 O   0  0  0  0  0  0  0  0  0  0  0  0
  -27.4990   56.6433   71.1820 Si  0  0  0  0  0  0  0  0  0  0  0  0
  -37.4232   55.1228   62.1475 O   0  0  0  0  0  0  0  0  0  0  0  0
  -28.4409   57.6299   70.0265 O   0  0  0  0  0  0  0  0  0  0  0  0
  -38.1532   56.3024   60.1833 C   0  0  0  0  0  0  0  0  0  0  0  0
  -30.3100   56.6855   66.0936 N   0  0  0  0  0  0  0  0  0  0  0  0
  -34.4223   58.1136   64.8296 O   0  0  0  0  0  0  0  0  0  0  0  0
  -39.1837   56.8269   61.2043 C   0  0  0  0  0  0  0  0  0  0  0  0
  -36.8950   59.8150   64.6310 N   0  0  0  0  0  0  0  0  0  0  0  0
  -30.2570   57.1345   63.8775 O   0  0  0  0  0  0  0  0  0  0  0  0
  -38.6590   57.2580   62.5844 C   0  0  0  0  0  0  0  0  0  0  0  0
  -28.9853   57.0609   68.9148 N   0  0  0  0  0  0  0  0  0  0  0  0
  -37.9636   61.4521   65.7933 O   0  0  0  0  0  0  0  0  0  0  0  0
  -37.6390   58.4030   62.6110 C   0  0  0  0  0  0  0  0  0  0  0  0
  -39.7423   59.3277   66.5994 N   0  0  0  0  0  0  0  0  0  0  0  0
  -37.0282   53.9440   58.8780 O   0  0  0  0  0  0  0  0  0  0  0  0
  -36.7890   58.5530   63.8960 C   0  0  1  0  0  0  0  0  0  0  0  0
  -30.5227   58.7014   68.8121 O   0  0  0  0  0  0  0  0  0  0  0  0
  -35.3080   58.3090   63.6770 C   0  0  0  0  0  0  0  0  0  0  0  0
  -39.7831   57.2983   65.6658 O   0  0  0  0  0  0  0  0  0  0  0  0
  -33.2747   57.2469   64.7542 C   0  0  1  0  0  0  0  0  0  0  0  0
  -39.4650   59.2592   69.4378 O   0  0  0  0  0  0  0  0  0  0  0  0
  -32.0300   58.0736   65.0398 C   0  0  0  0  0  0  0  0  0  0  0  0
  -33.3438   56.0255   65.6626 C   0  0  0  0  0  0  0  0  0  0  0  0
  -30.7550   57.2698   64.9716 C   0  0  0  0  0  0  0  0  0  0  0  0
  -37.9718   60.3782   65.2060 C   0  0  0  0  0  0  0  0  0  0  0  0
  -36.3954   52.8906   60.9352 C   0  0  0  0  0  0  0  0  0  0  0  0
  -37.3907   51.7927   61.3343 C   0  0  0  0  0  0  0  0  0  0  0  0
  -36.6800   50.7155   62.1761 C   0  0  0  0  0  0  0  0  0  0  0  0
  -36.0769   51.2573   63.4860 C   0  0  0  0  0  0  0  0  0  0  0  0
  -37.1014   51.8728   64.4574 C   0  0  0  0  0  0  0  0  0  0  0  0
  -38.1729   50.8627   64.9187 C   0  0  0  0  0  0  0  0  0  0  0  0
  -39.2320   51.4462   65.8828 C   0  0  0  0  0  0  0  0  0  0  0  0
  -40.0417   52.5974   65.2751 C   0  0  0  0  0  0  0  0  0  0  0  0
  -39.2205   53.8087   64.8219 C   0  0  0  0  0  0  0  0  0  0  0  0
  -40.1231   54.9140   64.2439 C   0  0  0  0  0  0  0  0  0  0  0  0
  -40.9558   54.4677   63.0325 C   0  0  0  0  0  0  0  0  0  0  0  0
  -41.9348   53.3165   63.2855 C   0  0  0  0  0  0  0  0  0  0  0  0
  -43.0140   53.6224   64.3538 C   0  0  0  0  0  0  0  0  0  0  0  0
  -43.8919   54.8219   63.9427 C   0  0  0  0  0  0  0  0  0  0  0  0
  -44.6933   54.6894   62.6421 C   0  0  0  0  0  0  0  0  0  0  0  0
  -28.2830   55.9018   68.3446 C   0  0  0  0  0  0  0  0  0  0  0  0
  -29.1123   54.6170   68.5294 C   0  0  0  0  0  0  0  0  0  0  0  0
  -30.5168   54.8238   69.0720 C   0  0  0  0  0  0  0  0  0  0  0  0
  -31.4355   55.5569   68.0911 C   0  0  0  0  0  0  0  0  0  0  0  0
  -30.9269   56.8415   67.4158 C   0  0  1  0  0  0  0  0  0  0  0  0
  -30.1096   57.6142   68.4325 C   0  0  0  0  0  0  0  0  0  0  0  0
  -39.2954   58.1455   64.6261 C   0  0  0  0  0  0  0  0  0  0  0  0
  -40.0100   58.1145   66.8320 C   0  0  0  0  0  0  0  0  0  0  0  0
  -39.2667   59.5788   65.2257 C   0  0  1  0  0  0  0  0  0  0  0  0
  -40.2661   58.1898   69.3577 C   0  0  0  0  0  0  0  0  0  0  0  0
  -40.8332   57.6602   70.5242 C   0  0  0  0  0  0  0  0  0  0  0  0
  -41.6698   56.5327   70.4678 C   0  0  0  0  0  0  0  0  0  0  0  0
  -41.9568   55.9279   69.2428 C   0  0  0  0  0  0  0  0  0  0  0  0
  -41.3986   56.4563   68.0755 C   0  0  0  0  0  0  0  0  0  0  0  0
  -40.5529   57.5808   68.1298 C   0  0  0  0  0  0  0  0  0  0  0  0
  -27.0442   57.4662   72.2462 H   0  0  0  0  0  0  0  0  0  0  0  0
  -26.3830   56.0711   70.5160 H   0  0  0  0  0  0  0  0  0  0  0  0
  -28.3215   55.6090   71.7017 H   0  0  0  0  0  0  0  0  0  0  0  0
  -36.9903   54.3095   62.4508 H   0  0  0  0  0  0  0  0  0  0  0  0
  -38.6472   56.0479   59.2689 H   0  0  0  0  0  0  0  0  0  0  0  0
  -37.4204   57.0549   59.9791 H   0  0  0  0  0  0  0  0  0  0  0  0
  -29.5131   56.1113   66.0254 H   0  0  0  0  0  0  0  0  0  0  0  0
  -39.9020   56.0500   61.3628 H   0  0  0  0  0  0  0  0  0  0  0  0
  -39.5692   57.7240   60.7666 H   0  0  0  0  0  0  0  0  0  0  0  0
  -36.0569   60.3245   64.7164 H   0  0  0  0  0  0  0  0  0  0  0  0
  -38.9782   56.7985   63.4515 H   0  0  0  0  0  0  0  0  0  0  0  0
  -37.5247   59.0434   61.8099 H   0  0  0  0  0  0  0  0  0  0  0  0
  -37.2383   57.7881   64.4943 H   0  0  0  0  0  0  0  0  0  0  0  0
  -33.2463   56.8403   63.7649 H   0  0  0  0  0  0  0  0  0  0  0  0
  -39.2874   59.6501   70.2706 H   0  0  0  0  0  0  0  0  0  0  0  0
  -32.1168   58.4914   66.0211 H   0  0  0  0  0  0  0  0  0  0  0  0
  -31.9702   58.8299   64.2853 H   0  0  0  0  0  0  0  0  0  0  0  0
  -33.3759   56.3421   66.6841 H   0  0  0  0  0  0  0  0  0  0  0  0
  -32.4793   55.4148   65.5054 H   0  0  0  0  0  0  0  0  0  0  0  0
  -34.2246   55.4619   65.4360 H   0  0  0  0  0  0  0  0  0  0  0  0
  -35.9856   53.3116   61.8295 H   0  0  0  0  0  0  0  0  0  0  0  0
  -35.6576   52.4230   60.3171 H   0  0  0  0  0  0  0  0  0  0  0  0
  -37.7944   51.3428   60.4513 H   0  0  0  0  0  0  0  0  0  0  0  0
  -38.1784   52.2272   61.9136 H   0  0  0  0  0  0  0  0  0  0  0  0
  -35.8911   50.2932   61.5894 H   0  0  0  0  0  0  0  0  0  0  0  0
  -37.4183   49.9897   62.4464 H   0  0  0  0  0  0  0  0  0  0  0  0
  -35.3593   52.0108   63.2364 H   0  0  0  0  0  0  0  0  0  0  0  0
  -35.6461   50.4183   63.9913 H   0  0  0  0  0  0  0  0  0  0  0  0
  -37.5899   52.6885   63.9667 H   0  0  0  0  0  0  0  0  0  0  0  0
  -36.5670   52.1938   65.3270 H   0  0  0  0  0  0  0  0  0  0  0  0
  -37.6782   50.0543   65.4155 H   0  0  0  0  0  0  0  0  0  0  0  0
  -38.6990   50.5545   64.0395 H   0  0  0  0  0  0  0  0  0  0  0  0
  -38.7320   51.8080   66.7569 H   0  0  0  0  0  0  0  0  0  0  0  0
  -39.9217   50.6596   66.1072 H   0  0  0  0  0  0  0  0  0  0  0  0
  -40.7445   52.9309   66.0097 H   0  0  0  0  0  0  0  0  0  0  0  0
  -40.4987   52.2030   64.3916 H   0  0  0  0  0  0  0  0  0  0  0  0
  -38.5263   53.4971   64.0696 H   0  0  0  0  0  0  0  0  0  0  0  0
  -38.7059   54.2043   65.6725 H   0  0  0  0  0  0  0  0  0  0  0  0
  -39.5029   55.7324   63.9432 H   0  0  0  0  0  0  0  0  0  0  0  0
  -40.8151   55.1841   65.0139 H   0  0  0  0  0  0  0  0  0  0  0  0
  -40.2784   54.1600   62.2636 H   0  0  0  0  0  0  0  0  0  0  0  0
  -41.5597   55.3105   62.7680 H   0  0  0  0  0  0  0  0  0  0  0  0
  -41.3742   52.4647   63.6095 H   0  0  0  0  0  0  0  0  0  0  0  0
  -42.4533   53.1466   62.3651 H   0  0  0  0  0  0  0  0  0  0  0  0
  -42.5309   53.8470   65.2817 H   0  0  0  0  0  0  0  0  0  0  0  0
  -43.6439   52.7629   64.4505 H   0  0  0  0  0  0  0  0  0  0  0  0
  -43.2492   55.6712   63.8400 H   0  0  0  0  0  0  0  0  0  0  0  0
  -44.6289   54.9021   64.7143 H   0  0  0  0  0  0  0  0  0  0  0  0
  -44.0196   54.6036   61.8153 H   0  0  0  0  0  0  0  0  0  0  0  0
  -45.3086   55.5551   62.5126 H   0  0  0  0  0  0  0  0  0  0  0  0
  -45.3109   53.8170   62.6910 H   0  0  0  0  0  0  0  0  0  0  0  0
  -27.3403   55.7852   68.8372 H   0  0  0  0  0  0  0  0  0  0  0  0
  -28.1370   56.0691   67.2979 H   0  0  0  0  0  0  0  0  0  0  0  0
  -28.5862   53.9786   69.2081 H   0  0  0  0  0  0  0  0  0  0  0  0
  -29.2311   54.1980   67.5520 H   0  0  0  0  0  0  0  0  0  0  0  0
  -30.4531   55.3973   69.9731 H   0  0  0  0  0  0  0  0  0  0  0  0
  -30.9392   53.8557   69.2435 H   0  0  0  0  0  0  0  0  0  0  0  0
  -32.3252   55.8147   68.6268 H   0  0  0  0  0  0  0  0  0  0  0  0
  -31.5502   54.8676   67.2808 H   0  0  0  0  0  0  0  0  0  0  0  0
  -31.7776   57.4259   67.1335 H   0  0  0  0  0  0  0  0  0  0  0  0
  -39.9480   58.1091   63.7790 H   0  0  0  0  0  0  0  0  0  0  0  0
  -38.3263   57.8395   64.2911 H   0  0  0  0  0  0  0  0  0  0  0  0
  -39.8532   60.2314   64.6133 H   0  0  0  0  0  0  0  0  0  0  0  0
  -40.6344   58.1031   71.4349 H   0  0  0  0  0  0  0  0  0  0  0  0
  -42.0742   56.1496   71.3366 H   0  0  0  0  0  0  0  0  0  0  0  0
  -42.5732   55.1014   69.1997 H   0  0  0  0  0  0  0  0  0  0  0  0
  -41.6082   56.0181   67.1650 H   0  0  0  0  0  0  0  0  0  0  0  0
  1  2  1  0  0  0  0
  1  5  1  0  0  0  0
  1  7  1  0  0  0  0
  2 18  2  0  0  0  0
  2 29  1  0  0  0  0
  3 21  2  0  0  0  0
  4  6  1  0  0  0  0
  4 59  1  0  0  0  0
  4 60  1  0  0  0  0
  4 61  1  0  0  0  0
  5 62  1  0  0  0  0
  6 14  1  0  0  0  0
  7 10  1  0  0  0  0
  7 63  1  0  0  0  0
  7 64  1  0  0  0  0
  8 27  1  0  0  0  0
  8 48  1  0  0  0  0
  8 65  1  0  0  0  0
  9 21  1  0  0  0  0
  9 23  1  0  0  0  0
 10 13  1  0  0  0  0
 10 66  1  0  0  0  0
 10 67  1  0  0  0  0
 11 19  1  0  0  0  0
 11 28  1  0  0  0  0
 11 68  1  0  0  0  0
 12 27  2  0  0  0  0
 13 16  2  0  0  0  0
 13 69  1  0  0  0  0
 14 44  1  0  0  0  0
 14 49  1  0  0  0  0
 15 28  2  0  0  0  0
 16 19  1  0  0  0  0
 16 70  1  0  0  0  0
 17 51  2  0  0  0  0
 17 52  1  0  0  0  0
 19 21  1  0  0  0  0
 19 71  1  1  0  0  0
 20 49  2  0  0  0  0
 22 50  1  0  0  0  0
 22 51  1  0  0  0  0
 23 25  1  0  0  0  0
 23 26  1  0  0  0  0
 23 72  1  6  0  0  0
 24 53  1  0  0  0  0
 24 73  1  0  0  0  0
 25 27  1  0  0  0  0
 25 74  1  0  0  0  0
 25 75  1  0  0  0  0
 26 76  1  0  0  0  0
 26 77  1  0  0  0  0
 26 78  1  0  0  0  0
 28 52  1  0  0  0  0
 29 30  1  0  0  0  0
 29 79  1  0  0  0  0
 29 80  1  0  0  0  0
 30 31  1  0  0  0  0
 30 81  1  0  0  0  0
 30 82  1  0  0  0  0
 31 32  1  0  0  0  0
 31 83  1  0  0  0  0
 31 84  1  0  0  0  0
 32 33  1  0  0  0  0
 32 85  1  0  0  0  0
 32 86  1  0  0  0  0
 33 34  1  0  0  0  0
 33 87  1  0  0  0  0
 33 88  1  0  0  0  0
 34 35  1  0  0  0  0
 34 89  1  0  0  0  0
 34 90  1  0  0  0  0
 35 36  1  0  0  0  0
 35 91  1  0  0  0  0
 35 92  1  0  0  0  0
 36 37  1  0  0  0  0
 36 93  1  0  0  0  0
 36 94  1  0  0  0  0
 37 38  1  0  0  0  0
 37 95  1  0  0  0  0
 37 96  1  0  0  0  0
 38 39  1  0  0  0  0
 38 97  1  0  0  0  0
 38 98  1  0  0  0  0
 39 40  1  0  0  0  0
 39 99  1  0  0  0  0
 39100  1  0  0  0  0
 40 41  1  0  0  0  0
 40101  1  0  0  0  0
 40102  1  0  0  0  0
 41 42  1  0  0  0  0
 41103  1  0  0  0  0
 41104  1  0  0  0  0
 42 43  1  0  0  0  0
 42105  1  0  0  0  0
 42106  1  0  0  0  0
 43107  1  0  0  0  0
 43108  1  0  0  0  0
 43109  1  0  0  0  0
 44 45  1  0  0  0  0
 44110  1  0  0  0  0
 44111  1  0  0  0  0
 45 46  1  0  0  0  0
 45112  1  0  0  0  0
 45113  1  0  0  0  0
 46 47  1  0  0  0  0
 46114  1  0  0  0  0
 46115  1  0  0  0  0
 47 48  1  0  0  0  0
 47116  1  0  0  0  0
 47117  1  0  0  0  0
 48 49  1  0  0  0  0
 48118  1  6  0  0  0
 50 52  1  0  0  0  0
 50119  1  0  0  0  0
 50120  1  0  0  0  0
 51 58  1  0  0  0  0
 52121  1  6  0  0  0
 53 54  2  0  0  0  0
 53 58  1  0  0  0  0
 54 55  1  0  0  0  0
 54122  1  0  0  0  0
 55 56  2  0  0  0  0
 55123  1  0  0  0  0
 56 57  1  0  0  0  0
 56124  1  0  0  0  0
 57 58  2  0  0  0  0
 57125  1  0  0  0  0
M  END
$$$$
/media/chris/experiments/cd1a-new-docking/inputs/ligands/1xz0_ligand.pdb
 OpenBabel07022319323D

125127  0  0  1  0  0  0  0  0999 V2000
  -40.2129   55.0214   61.2541 N   0  0  0  0  0  0  0  0  0  0  0  0
  -40.6375   53.8120   61.7067 C   0  0  0  0  0  0  0  0  0  0  0  0
  -34.8323   58.2135   62.5576 O   0  0  0  0  0  0  0  0  0  0  0  0
  -27.9959   56.1819   65.9344 Si  0  0  0  0  0  0  0  0  0  0  0  0
  -40.9759   56.1408   61.6149 O   0  0  0  0  0  0  0  0  0  0  0  0
  -28.6928   55.9154   67.5590 O   0  0  0  0  0  0  0  0  0  0  0  0
  -39.0463   55.3391   60.4247 C   0  0  0  0  0  0  0  0  0  0  0  0
  -32.3898   58.3274   68.1655 N   0  0  0  0  0  0  0  0  0  0  0  0
  -34.4223   58.1136   64.8296 O   0  0  0  0  0  0  0  0  0  0  0  0
  -38.5576   56.7536   60.7988 C   0  0  0  0  0  0  0  0  0  0  0  0
  -36.8950   59.8150   64.6310 N   0  0  0  0  0  0  0  0  0  0  0  0
  -34.6366   58.3452   67.9068 O   0  0  0  0  0  0  0  0  0  0  0  0
  -38.1064   56.9875   62.2504 C   0  0  0  0  0  0  0  0  0  0  0  0
  -29.7088   56.7014   68.0129 N   0  0  0  0  0  0  0  0  0  0  0  0
  -37.7543   61.2478   66.1742 O   0  0  0  0  0  0  0  0  0  0  0  0
  -37.6390   58.4030   62.6110 C   0  0  0  0  0  0  0  0  0  0  0  0
  -37.8853   57.9472   66.7604 N   0  0  0  0  0  0  0  0  0  0  0  0
  -40.0179   52.7810   61.4462 O   0  0  0  0  0  0  0  0  0  0  0  0
  -36.7890   58.5530   63.8960 C   0  0  1  0  0  0  0  0  0  0  0  0
  -29.8617   57.6903   65.9969 O   0  0  0  0  0  0  0  0  0  0  0  0
  -35.3080   58.3090   63.6770 C   0  0  0  0  0  0  0  0  0  0  0  0
  -39.3379   56.9364   65.3966 O   0  0  0  0  0  0  0  0  0  0  0  0
  -33.2830   58.9658   65.0520 C   0  0  1  0  0  0  0  0  0  0  0  0
  -37.1193   56.3162   68.9560 O   0  0  0  0  0  0  0  0  0  0  0  0
  -33.4523   59.6504   66.4000 C   0  0  0  0  0  0  0  0  0  0  0  0
  -31.9365   58.2587   64.9598 C   0  0  0  0  0  0  0  0  0  0  0  0
  -33.5294   58.6802   67.5529 C   0  0  0  0  0  0  0  0  0  0  0  0
  -37.7336   60.1539   65.6256 C   0  0  0  0  0  0  0  0  0  0  0  0
  -41.9149   53.7425   62.5502 C   0  0  0  0  0  0  0  0  0  0  0  0
  -42.7021   52.4330   62.4048 C   0  0  0  0  0  0  0  0  0  0  0  0
  -43.9702   52.4788   63.2789 C   0  0  0  0  0  0  0  0  0  0  0  0
  -44.8142   51.1921   63.2061 C   0  0  0  0  0  0  0  0  0  0  0  0
  -45.3146   50.8323   61.7946 C   0  0  0  0  0  0  0  0  0  0  0  0
  -46.1691   49.5477   61.7702 C   0  0  0  0  0  0  0  0  0  0  0  0
  -46.6775   49.1417   60.3671 C   0  0  0  0  0  0  0  0  0  0  0  0
  -47.5468   50.2136   59.6997 C   0  0  0  0  0  0  0  0  0  0  0  0
  -48.8105   50.6068   60.4713 C   0  0  0  0  0  0  0  0  0  0  0  0
  -49.6220   51.6730   59.7130 C   0  0  0  0  0  0  0  0  0  0  0  0
  -50.8956   52.1231   60.4446 C   0  0  0  0  0  0  0  0  0  0  0  0
  -50.6821   52.7624   61.8206 C   0  0  0  0  0  0  0  0  0  0  0  0
  -51.9896   53.1873   62.5344 C   0  0  0  0  0  0  0  0  0  0  0  0
  -52.9150   51.9793   62.7847 C   0  0  0  0  0  0  0  0  0  0  0  0
  -54.2575   52.2567   63.4717 C   0  0  0  0  0  0  0  0  0  0  0  0
  -30.2141   56.4261   69.3659 C   0  0  0  0  0  0  0  0  0  0  0  0
  -29.8569   57.5767   70.3257 C   0  0  0  0  0  0  0  0  0  0  0  0
  -29.2445   58.8029   69.6691 C   0  0  0  0  0  0  0  0  0  0  0  0
  -30.2266   59.5498   68.7628 C   0  0  0  0  0  0  0  0  0  0  0  0
  -31.0501   58.7488   67.7405 C   0  0  1  0  0  0  0  0  0  0  0  0
  -30.1653   57.6517   67.1814 C   0  0  0  0  0  0  0  0  0  0  0  0
  -39.6251   58.3251   65.2368 C   0  0  0  0  0  0  0  0  0  0  0  0
  -38.2506   56.8144   66.3352 C   0  0  0  0  0  0  0  0  0  0  0  0
  -38.6466   59.0723   66.1849 C   0  0  1  0  0  0  0  0  0  0  0  0
  -37.1620   55.3133   68.0706 C   0  0  0  0  0  0  0  0  0  0  0  0
  -36.6778   54.0492   68.4318 C   0  0  0  0  0  0  0  0  0  0  0  0
  -36.7027   52.9827   67.5174 C   0  0  0  0  0  0  0  0  0  0  0  0
  -37.2216   53.1656   66.2344 C   0  0  0  0  0  0  0  0  0  0  0  0
  -37.7117   54.4231   65.8713 C   0  0  0  0  0  0  0  0  0  0  0  0
  -37.6800   55.4961   66.7826 C   0  0  0  0  0  0  0  0  0  0  0  0
  -26.9601   55.2385   65.7032 H   0  0  0  0  0  0  0  0  0  0  0  0
  -27.4648   57.4966   65.8571 H   0  0  0  0  0  0  0  0  0  0  0  0
  -29.0093   56.0223   64.9526 H   0  0  0  0  0  0  0  0  0  0  0  0
  -41.7271   55.8582   62.1596 H   0  0  0  0  0  0  0  0  0  0  0  0
  -39.3195   55.3124   59.3905 H   0  0  0  0  0  0  0  0  0  0  0  0
  -38.2686   54.6237   60.5924 H   0  0  0  0  0  0  0  0  0  0  0  0
  -32.4568   57.7445   68.9560 H   0  0  0  0  0  0  0  0  0  0  0  0
  -39.3595   57.4332   60.5988 H   0  0  0  0  0  0  0  0  0  0  0  0
  -37.6754   56.9016   60.2116 H   0  0  0  0  0  0  0  0  0  0  0  0
  -36.2607   60.5165   64.3574 H   0  0  0  0  0  0  0  0  0  0  0  0
  -38.1176   56.2279   62.9488 H   0  0  0  0  0  0  0  0  0  0  0  0
  -37.8799   59.2173   62.0245 H   0  0  0  0  0  0  0  0  0  0  0  0
  -37.2383   57.7881   64.4943 H   0  0  0  0  0  0  0  0  0  0  0  0
  -33.2609   59.6827   64.2580 H   0  0  0  0  0  0  0  0  0  0  0  0
  -36.7682   56.1704   69.8124 H   0  0  0  0  0  0  0  0  0  0  0  0
  -34.3542   60.2256   66.3786 H   0  0  0  0  0  0  0  0  0  0  0  0
  -32.5890   60.2629   66.5566 H   0  0  0  0  0  0  0  0  0  0  0  0
  -31.8709   57.5152   65.7265 H   0  0  0  0  0  0  0  0  0  0  0  0
  -31.1494   58.9723   65.0867 H   0  0  0  0  0  0  0  0  0  0  0  0
  -31.8437   57.7919   64.0015 H   0  0  0  0  0  0  0  0  0  0  0  0
  -42.5529   54.5503   62.2580 H   0  0  0  0  0  0  0  0  0  0  0  0
  -41.6079   53.8014   63.5735 H   0  0  0  0  0  0  0  0  0  0  0  0
  -42.0874   51.6141   62.7153 H   0  0  0  0  0  0  0  0  0  0  0  0
  -42.9863   52.3066   61.3810 H   0  0  0  0  0  0  0  0  0  0  0  0
  -44.5755   53.2995   62.9547 H   0  0  0  0  0  0  0  0  0  0  0  0
  -43.6490   52.5872   64.2937 H   0  0  0  0  0  0  0  0  0  0  0  0
  -45.6666   51.3157   63.8409 H   0  0  0  0  0  0  0  0  0  0  0  0
  -44.1740   50.3919   63.5139 H   0  0  0  0  0  0  0  0  0  0  0  0
  -44.4667   50.6906   61.1575 H   0  0  0  0  0  0  0  0  0  0  0  0
  -45.9347   51.6370   61.4588 H   0  0  0  0  0  0  0  0  0  0  0  0
  -47.0189   49.6995   62.4024 H   0  0  0  0  0  0  0  0  0  0  0  0
  -45.5346   48.7539   62.1052 H   0  0  0  0  0  0  0  0  0  0  0  0
  -47.2561   48.2467   60.4621 H   0  0  0  0  0  0  0  0  0  0  0  0
  -45.8162   49.0033   59.7475 H   0  0  0  0  0  0  0  0  0  0  0  0
  -47.8463   49.8459   58.7405 H   0  0  0  0  0  0  0  0  0  0  0  0
  -46.9433   51.0959   59.6518 H   0  0  0  0  0  0  0  0  0  0  0  0
  -48.5279   50.9982   61.4262 H   0  0  0  0  0  0  0  0  0  0  0  0
  -49.4213   49.7355   60.5841 H   0  0  0  0  0  0  0  0  0  0  0  0
  -49.9040   51.2692   58.7631 H   0  0  0  0  0  0  0  0  0  0  0  0
  -48.9945   52.5350   59.6231 H   0  0  0  0  0  0  0  0  0  0  0  0
  -51.5205   51.2644   60.5748 H   0  0  0  0  0  0  0  0  0  0  0  0
  -51.3283   52.8869   59.8328 H   0  0  0  0  0  0  0  0  0  0  0  0
  -50.0707   53.6315   61.6954 H   0  0  0  0  0  0  0  0  0  0  0  0
  -50.2237   52.0178   62.4373 H   0  0  0  0  0  0  0  0  0  0  0  0
  -52.5042   53.8987   61.9228 H   0  0  0  0  0  0  0  0  0  0  0  0
  -51.7319   53.6146   63.4809 H   0  0  0  0  0  0  0  0  0  0  0  0
  -52.3784   51.2836   63.3954 H   0  0  0  0  0  0  0  0  0  0  0  0
  -53.1724   51.6217   61.8096 H   0  0  0  0  0  0  0  0  0  0  0  0
  -54.0826   52.6214   64.4623 H   0  0  0  0  0  0  0  0  0  0  0  0
  -54.8271   51.3522   63.5200 H   0  0  0  0  0  0  0  0  0  0  0  0
  -54.7997   52.9901   62.9122 H   0  0  0  0  0  0  0  0  0  0  0  0
  -29.7759   55.5191   69.7266 H   0  0  0  0  0  0  0  0  0  0  0  0
  -31.2792   56.3326   69.3228 H   0  0  0  0  0  0  0  0  0  0  0  0
  -29.1580   57.2028   71.0446 H   0  0  0  0  0  0  0  0  0  0  0  0
  -30.7813   57.9015   70.7558 H   0  0  0  0  0  0  0  0  0  0  0  0
  -28.4066   58.4920   69.0807 H   0  0  0  0  0  0  0  0  0  0  0  0
  -28.9567   59.4743   70.4509 H   0  0  0  0  0  0  0  0  0  0  0  0
  -29.6598   60.2719   68.2130 H   0  0  0  0  0  0  0  0  0  0  0  0
  -30.9602   59.9352   69.4396 H   0  0  0  0  0  0  0  0  0  0  0  0
  -31.3287   59.4116   66.9480 H   0  0  0  0  0  0  0  0  0  0  0  0
  -40.6388   58.5299   65.5112 H   0  0  0  0  0  0  0  0  0  0  0  0
  -39.5041   58.6376   64.2206 H   0  0  0  0  0  0  0  0  0  0  0  0
  -39.2058   59.6850   66.8607 H   0  0  0  0  0  0  0  0  0  0  0  0
  -36.2985   53.8998   69.3799 H   0  0  0  0  0  0  0  0  0  0  0  0
  -36.3356   52.0592   67.7957 H   0  0  0  0  0  0  0  0  0  0  0  0
  -37.2430   52.3824   65.5627 H   0  0  0  0  0  0  0  0  0  0  0  0
  -38.1007   54.5666   64.9262 H   0  0  0  0  0  0  0  0  0  0  0  0
  1  2  1  0  0  0  0
  1  5  1  0  0  0  0
  1  7  1  0  0  0  0
  2 18  2  0  0  0  0
  2 29  1  0  0  0  0
  3 21  2  0  0  0  0
  4  6  1  0  0  0  0
  4 59  1  0  0  0  0
  4 60  1  0  0  0  0
  4 61  1  0  0  0  0
  5 62  1  0  0  0  0
  6 14  1  0  0  0  0
  7 10  1  0  0  0  0
  7 63  1  0  0  0  0
  7 64  1  0  0  0  0
  8 27  1  0  0  0  0
  8 48  1  0  0  0  0
  8 65  1  0  0  0  0
  9 21  1  0  0  0  0
  9 23  1  0  0  0  0
 10 13  1  0  0  0  0
 10 66  1  0  0  0  0
 10 67  1  0  0  0  0
 11 19  1  0  0  0  0
 11 28  1  0  0  0  0
 11 68  1  0  0  0  0
 12 27  2  0  0  0  0
 13 16  2  0  0  0  0
 13 69  1  0  0  0  0
 14 44  1  0  0  0  0
 14 49  1  0  0  0  0
 15 28  2  0  0  0  0
 16 19  1  0  0  0  0
 16 70  1  0  0  0  0
 17 51  2  0  0  0  0
 17 52  1  0  0  0  0
 19 21  1  0  0  0  0
 19 71  1  1  0  0  0
 20 49  2  0  0  0  0
 22 50  1  0  0  0  0
 22 51  1  0  0  0  0
 23 25  1  0  0  0  0
 23 26  1  0  0  0  0
 23 72  1  6  0  0  0
 24 53  1  0  0  0  0
 24 73  1  0  0  0  0
 25 27  1  0  0  0  0
 25 74  1  0  0  0  0
 25 75  1  0  0  0  0
 26 76  1  0  0  0  0
 26 77  1  0  0  0  0
 26 78  1  0  0  0  0
 28 52  1  0  0  0  0
 29 30  1  0  0  0  0
 29 79  1  0  0  0  0
 29 80  1  0  0  0  0
 30 31  1  0  0  0  0
 30 81  1  0  0  0  0
 30 82  1  0  0  0  0
 31 32  1  0  0  0  0
 31 83  1  0  0  0  0
 31 84  1  0  0  0  0
 32 33  1  0  0  0  0
 32 85  1  0  0  0  0
 32 86  1  0  0  0  0
 33 34  1  0  0  0  0
 33 87  1  0  0  0  0
 33 88  1  0  0  0  0
 34 35  1  0  0  0  0
 34 89  1  0  0  0  0
 34 90  1  0  0  0  0
 35 36  1  0  0  0  0
 35 91  1  0  0  0  0
 35 92  1  0  0  0  0
 36 37  1  0  0  0  0
 36 93  1  0  0  0  0
 36 94  1  0  0  0  0
 37 38  1  0  0  0  0
 37 95  1  0  0  0  0
 37 96  1  0  0  0  0
 38 39  1  0  0  0  0
 38 97  1  0  0  0  0
 38 98  1  0  0  0  0
 39 40  1  0  0  0  0
 39 99  1  0  0  0  0
 39100  1  0  0  0  0
 40 41  1  0  0  0  0
 40101  1  0  0  0  0
 40102  1  0  0  0  0
 41 42  1  0  0  0  0
 41103  1  0  0  0  0
 41104  1  0  0  0  0
 42 43  1  0  0  0  0
 42105  1  0  0  0  0
 42106  1  0  0  0  0
 43107  1  0  0  0  0
 43108  1  0  0  0  0
 43109  1  0  0  0  0
 44 45  1  0  0  0  0
 44110  1  0  0  0  0
 44111  1  0  0  0  0
 45 46  1  0  0  0  0
 45112  1  0  0  0  0
 45113  1  0  0  0  0
 46 47  1  0  0  0  0
 46114  1  0  0  0  0
 46115  1  0  0  0  0
 47 48  1  0  0  0  0
 47116  1  0  0  0  0
 47117  1  0  0  0  0
 48 49  1  0  0  0  0
 48118  1  6  0  0  0
 50 52  1  0  0  0  0
 50119  1  0  0  0  0
 50120  1  0  0  0  0
 51 58  1  0  0  0  0
 52121  1  1  0  0  0
 53 54  2  0  0  0  0
 53 58  1  0  0  0  0
 54 55  1  0  0  0  0
 54122  1  0  0  0  0
 55 56  2  0  0  0  0
 55123  1  0  0  0  0
 56 57  1  0  0  0  0
 56124  1  0  0  0  0
 57 58  2  0  0  0  0
 57125  1  0  0  0  0
M  END
$$$$
/media/chris/experiments/cd1a-new-docking/inputs/ligands/1xz0_ligand.pdb
 OpenBabel07022319323D

125127  0  0  1  0  0  0  0  0999 V2000
  -38.4351   59.1888   57.7243 N   0  0  0  0  0  0  0  0  0  0  0  0
  -39.6841   58.6666   57.6025 C   0  0  0  0  0  0  0  0  0  0  0  0
  -34.8323   58.2135   62.5576 O   0  0  0  0  0  0  0  0  0  0  0  0
  -28.1617   53.1660   68.2132 Si  0  0  0  0  0  0  0  0  0  0  0  0
  -38.0711   60.1901   56.8129 O   0  0  0  0  0  0  0  0  0  0  0  0
  -29.4215   54.2855   68.8096 O   0  0  0  0  0  0  0  0  0  0  0  0
  -37.3846   58.8544   58.6910 C   0  0  0  0  0  0  0  0  0  0  0  0
  -30.5778   58.0092   66.6534 N   0  0  0  0  0  0  0  0  0  0  0  0
  -34.4223   58.1136   64.8296 O   0  0  0  0  0  0  0  0  0  0  0  0
  -37.9322   59.1139   60.1095 C   0  0  0  0  0  0  0  0  0  0  0  0
  -36.8950   59.8150   64.6310 N   0  0  0  0  0  0  0  0  0  0  0  0
  -32.6033   58.9912   66.4326 O   0  0  0  0  0  0  0  0  0  0  0  0
  -36.9889   58.8455   61.2943 C   0  0  0  0  0  0  0  0  0  0  0  0
  -29.5379   55.5377   68.2858 N   0  0  0  0  0  0  0  0  0  0  0  0
  -37.2193   62.0537   64.8677 O   0  0  0  0  0  0  0  0  0  0  0  0
  -37.6390   58.4030   62.6110 C   0  0  0  0  0  0  0  0  0  0  0  0
  -37.7826   62.6004   62.3292 N   0  0  0  0  0  0  0  0  0  0  0  0
  -40.4565   59.0598   56.7286 O   0  0  0  0  0  0  0  0  0  0  0  0
  -36.7890   58.5530   63.8960 C   0  0  1  0  0  0  0  0  0  0  0  0
  -30.1393   54.6652   66.3002 O   0  0  0  0  0  0  0  0  0  0  0  0
  -35.3080   58.3090   63.6770 C   0  0  0  0  0  0  0  0  0  0  0  0
  -39.5836   61.5346   61.5466 O   0  0  0  0  0  0  0  0  0  0  0  0
  -33.7076   56.8787   65.0244 C   0  0  1  0  0  0  0  0  0  0  0  0
  -40.5436   63.0866   59.3716 O   0  0  0  0  0  0  0  0  0  0  0  0
  -32.2172   57.1835   65.0327 C   0  0  0  0  0  0  0  0  0  0  0  0
  -34.1166   56.1008   66.2691 C   0  0  0  0  0  0  0  0  0  0  0  0
  -31.8103   58.1264   66.1381 C   0  0  0  0  0  0  0  0  0  0  0  0
  -37.1633   61.0492   64.1705 C   0  0  0  0  0  0  0  0  0  0  0  0
  -40.1298   57.5739   58.5799 C   0  0  0  0  0  0  0  0  0  0  0  0
  -41.6359   57.5608   58.8750 C   0  0  0  0  0  0  0  0  0  0  0  0
  -42.0684   58.9118   59.4767 C   0  0  0  0  0  0  0  0  0  0  0  0
  -43.5685   58.9799   59.8205 C   0  0  0  0  0  0  0  0  0  0  0  0
  -44.0313   60.3262   60.4081 C   0  0  0  0  0  0  0  0  0  0  0  0
  -43.8055   61.5106   59.4451 C   0  0  0  0  0  0  0  0  0  0  0  0
  -44.2417   62.8848   60.0047 C   0  0  0  0  0  0  0  0  0  0  0  0
  -44.0225   64.0409   59.0222 C   0  0  0  0  0  0  0  0  0  0  0  0
  -44.7872   63.9309   57.6993 C   0  0  0  0  0  0  0  0  0  0  0  0
  -44.4880   65.1270   56.7771 C   0  0  0  0  0  0  0  0  0  0  0  0
  -45.2398   65.0841   55.4381 C   0  0  0  0  0  0  0  0  0  0  0  0
  -44.9677   63.8577   54.5609 C   0  0  0  0  0  0  0  0  0  0  0  0
  -45.3524   62.5083   55.2172 C   0  0  0  0  0  0  0  0  0  0  0  0
  -45.0365   61.3181   54.2889 C   0  0  0  0  0  0  0  0  0  0  0  0
  -45.3827   59.9165   54.8056 C   0  0  0  0  0  0  0  0  0  0  0  0
  -29.3771   56.6679   69.2124 C   0  0  0  0  0  0  0  0  0  0  0  0
  -28.0802   57.4416   68.9086 C   0  0  0  0  0  0  0  0  0  0  0  0
  -27.3515   57.0155   67.6448 C   0  0  0  0  0  0  0  0  0  0  0  0
  -28.1267   57.3458   66.3666 C   0  0  0  0  0  0  0  0  0  0  0  0
  -29.6145   56.9667   66.2815 C   0  0  1  0  0  0  0  0  0  0  0  0
  -29.7983   55.6293   66.9718 C   0  0  0  0  0  0  0  0  0  0  0  0
  -38.8097   60.5014   62.1550 C   0  0  0  0  0  0  0  0  0  0  0  0
  -38.8766   62.7785   61.7217 C   0  0  0  0  0  0  0  0  0  0  0  0
  -37.5309   61.1951   62.7009 C   0  0  1  0  0  0  0  0  0  0  0  0
  -40.1854   64.1796   60.0562 C   0  0  0  0  0  0  0  0  0  0  0  0
  -40.6337   65.4385   59.6353 C   0  0  0  0  0  0  0  0  0  0  0  0
  -40.2639   66.6018   60.3312 C   0  0  0  0  0  0  0  0  0  0  0  0
  -39.4497   66.5185   61.4620 C   0  0  0  0  0  0  0  0  0  0  0  0
  -39.0050   65.2643   61.8897 C   0  0  0  0  0  0  0  0  0  0  0  0
  -39.3668   64.0976   61.1892 C   0  0  0  0  0  0  0  0  0  0  0  0
  -28.2510   51.9353   68.9158 H   0  0  0  0  0  0  0  0  0  0  0  0
  -26.8801   53.7398   68.4247 H   0  0  0  0  0  0  0  0  0  0  0  0
  -28.3532   52.9339   66.8255 H   0  0  0  0  0  0  0  0  0  0  0  0
  -38.8092   60.3595   56.2068 H   0  0  0  0  0  0  0  0  0  0  0  0
  -36.5246   59.4669   58.5174 H   0  0  0  0  0  0  0  0  0  0  0  0
  -37.1011   57.8279   58.5872 H   0  0  0  0  0  0  0  0  0  0  0  0
  -30.2997   58.6693   67.3289 H   0  0  0  0  0  0  0  0  0  0  0  0
  -38.7942   58.4933   60.2390 H   0  0  0  0  0  0  0  0  0  0  0  0
  -38.1179   60.1672   60.1418 H   0  0  0  0  0  0  0  0  0  0  0  0
  -36.7487   59.7503   65.6024 H   0  0  0  0  0  0  0  0  0  0  0  0
  -35.9667   58.9578   61.2074 H   0  0  0  0  0  0  0  0  0  0  0  0
  -38.5981   58.0231   62.6390 H   0  0  0  0  0  0  0  0  0  0  0  0
  -37.2383   57.7881   64.4943 H   0  0  0  0  0  0  0  0  0  0  0  0
  -33.9620   56.2310   64.2116 H   0  0  0  0  0  0  0  0  0  0  0  0
  -41.0923   63.1658   58.6162 H   0  0  0  0  0  0  0  0  0  0  0  0
  -31.9552   57.6260   64.0944 H   0  0  0  0  0  0  0  0  0  0  0  0
  -31.7042   56.2591   65.1979 H   0  0  0  0  0  0  0  0  0  0  0  0
  -33.8955   56.6807   67.1408 H   0  0  0  0  0  0  0  0  0  0  0  0
  -33.5751   55.1787   66.3074 H   0  0  0  0  0  0  0  0  0  0  0  0
  -35.1663   55.8967   66.2333 H   0  0  0  0  0  0  0  0  0  0  0  0
  -39.6094   57.7190   59.5035 H   0  0  0  0  0  0  0  0  0  0  0  0
  -39.9024   56.6376   58.1145 H   0  0  0  0  0  0  0  0  0  0  0  0
  -41.8536   56.7775   59.5706 H   0  0  0  0  0  0  0  0  0  0  0  0
  -42.1704   57.3960   57.9629 H   0  0  0  0  0  0  0  0  0  0  0  0
  -41.8478   59.6836   58.7692 H   0  0  0  0  0  0  0  0  0  0  0  0
  -41.5298   59.0348   60.3930 H   0  0  0  0  0  0  0  0  0  0  0  0
  -43.7822   58.2128   60.5352 H   0  0  0  0  0  0  0  0  0  0  0  0
  -44.0968   58.8537   58.8986 H   0  0  0  0  0  0  0  0  0  0  0  0
  -43.4861   60.5106   61.3100 H   0  0  0  0  0  0  0  0  0  0  0  0
  -45.0838   60.2538   60.5869 H   0  0  0  0  0  0  0  0  0  0  0  0
  -44.3600   61.3234   58.5493 H   0  0  0  0  0  0  0  0  0  0  0  0
  -42.7502   61.5709   59.2794 H   0  0  0  0  0  0  0  0  0  0  0  0
  -43.6789   63.0833   60.8928 H   0  0  0  0  0  0  0  0  0  0  0  0
  -45.2930   62.8282   60.1957 H   0  0  0  0  0  0  0  0  0  0  0  0
  -42.9777   64.0894   58.7968 H   0  0  0  0  0  0  0  0  0  0  0  0
  -44.3978   64.9171   59.5084 H   0  0  0  0  0  0  0  0  0  0  0  0
  -45.8369   63.9039   57.9050 H   0  0  0  0  0  0  0  0  0  0  0  0
  -44.4747   63.0361   57.2028 H   0  0  0  0  0  0  0  0  0  0  0  0
  -43.4377   65.1408   56.5734 H   0  0  0  0  0  0  0  0  0  0  0  0
  -44.8186   66.0055   57.2908 H   0  0  0  0  0  0  0  0  0  0  0  0
  -44.9660   65.9548   54.8796 H   0  0  0  0  0  0  0  0  0  0  0  0
  -46.2789   65.0378   55.6890 H   0  0  0  0  0  0  0  0  0  0  0  0
  -43.9226   63.8338   54.3328 H   0  0  0  0  0  0  0  0  0  0  0  0
  -45.5804   63.9612   53.6899 H   0  0  0  0  0  0  0  0  0  0  0  0
  -46.4004   62.5127   55.4326 H   0  0  0  0  0  0  0  0  0  0  0  0
  -44.7797   62.3958   56.1141 H   0  0  0  0  0  0  0  0  0  0  0  0
  -43.9858   61.3366   54.0875 H   0  0  0  0  0  0  0  0  0  0  0  0
  -45.6643   61.4602   53.4341 H   0  0  0  0  0  0  0  0  0  0  0  0
  -44.7897   59.6981   55.6691 H   0  0  0  0  0  0  0  0  0  0  0  0
  -45.1802   59.1947   54.0420 H   0  0  0  0  0  0  0  0  0  0  0  0
  -46.4198   59.8785   55.0662 H   0  0  0  0  0  0  0  0  0  0  0  0
  -29.3379   56.2968   70.2153 H   0  0  0  0  0  0  0  0  0  0  0  0
  -30.2086   57.3307   69.0938 H   0  0  0  0  0  0  0  0  0  0  0  0
  -27.4142   57.3082   69.7353 H   0  0  0  0  0  0  0  0  0  0  0  0
  -28.3720   58.4593   68.7534 H   0  0  0  0  0  0  0  0  0  0  0  0
  -27.1922   55.9581   67.6832 H   0  0  0  0  0  0  0  0  0  0  0  0
  -26.4296   57.5574   67.6090 H   0  0  0  0  0  0  0  0  0  0  0  0
  -27.6292   56.8487   65.5602 H   0  0  0  0  0  0  0  0  0  0  0  0
  -28.1309   58.4154   66.3368 H   0  0  0  0  0  0  0  0  0  0  0  0
  -29.8714   56.8652   65.2478 H   0  0  0  0  0  0  0  0  0  0  0  0
  -38.5497   59.7562   61.4325 H   0  0  0  0  0  0  0  0  0  0  0  0
  -39.3535   60.0092   62.9341 H   0  0  0  0  0  0  0  0  0  0  0  0
  -36.6658   60.7231   62.2840 H   0  0  0  0  0  0  0  0  0  0  0  0
  -41.2422   65.5122   58.8050 H   0  0  0  0  0  0  0  0  0  0  0  0
  -40.5961   67.5227   60.0046 H   0  0  0  0  0  0  0  0  0  0  0  0
  -39.1796   67.3719   61.9756 H   0  0  0  0  0  0  0  0  0  0  0  0
  -38.4059   65.1927   62.7268 H   0  0  0  0  0  0  0  0  0  0  0  0
  1  2  1  0  0  0  0
  1  5  1  0  0  0  0
  1  7  1  0  0  0  0
  2 18  2  0  0  0  0
  2 29  1  0  0  0  0
  3 21  2  0  0  0  0
  4  6  1  0  0  0  0
  4 59  1  0  0  0  0
  4 60  1  0  0  0  0
  4 61  1  0  0  0  0
  5 62  1  0  0  0  0
  6 14  1  0  0  0  0
  7 10  1  0  0  0  0
  7 63  1  0  0  0  0
  7 64  1  0  0  0  0
  8 27  1  0  0  0  0
  8 48  1  0  0  0  0
  8 65  1  0  0  0  0
  9 21  1  0  0  0  0
  9 23  1  0  0  0  0
 10 13  1  0  0  0  0
 10 66  1  0  0  0  0
 10 67  1  0  0  0  0
 11 19  1  0  0  0  0
 11 28  1  0  0  0  0
 11 68  1  0  0  0  0
 12 27  2  0  0  0  0
 13 16  2  0  0  0  0
 13 69  1  0  0  0  0
 14 44  1  0  0  0  0
 14 49  1  0  0  0  0
 15 28  2  0  0  0  0
 16 19  1  0  0  0  0
 16 70  1  0  0  0  0
 17 51  2  0  0  0  0
 17 52  1  0  0  0  0
 19 21  1  0  0  0  0
 19 71  1  1  0  0  0
 20 49  2  0  0  0  0
 22 50  1  0  0  0  0
 22 51  1  0  0  0  0
 23 25  1  0  0  0  0
 23 26  1  0  0  0  0
 23 72  1  6  0  0  0
 24 53  1  0  0  0  0
 24 73  1  0  0  0  0
 25 27  1  0  0  0  0
 25 74  1  0  0  0  0
 25 75  1  0  0  0  0
 26 76  1  0  0  0  0
 26 77  1  0  0  0  0
 26 78  1  0  0  0  0
 28 52  1  0  0  0  0
 29 30  1  0  0  0  0
 29 79  1  0  0  0  0
 29 80  1  0  0  0  0
 30 31  1  0  0  0  0
 30 81  1  0  0  0  0
 30 82  1  0  0  0  0
 31 32  1  0  0  0  0
 31 83  1  0  0  0  0
 31 84  1  0  0  0  0
 32 33  1  0  0  0  0
 32 85  1  0  0  0  0
 32 86  1  0  0  0  0
 33 34  1  0  0  0  0
 33 87  1  0  0  0  0
 33 88  1  0  0  0  0
 34 35  1  0  0  0  0
 34 89  1  0  0  0  0
 34 90  1  0  0  0  0
 35 36  1  0  0  0  0
 35 91  1  0  0  0  0
 35 92  1  0  0  0  0
 36 37  1  0  0  0  0
 36 93  1  0  0  0  0
 36 94  1  0  0  0  0
 37 38  1  0  0  0  0
 37 95  1  0  0  0  0
 37 96  1  0  0  0  0
 38 39  1  0  0  0  0
 38 97  1  0  0  0  0
 38 98  1  0  0  0  0
 39 40  1  0  0  0  0
 39 99  1  0  0  0  0
 39100  1  0  0  0  0
 40 41  1  0  0  0  0
 40101  1  0  0  0  0
 40102  1  0  0  0  0
 41 42  1  0  0  0  0
 41103  1  0  0  0  0
 41104  1  0  0  0  0
 42 43  1  0  0  0  0
 42105  1  0  0  0  0
 42106  1  0  0  0  0
 43107  1  0  0  0  0
 43108  1  0  0  0  0
 43109  1  0  0  0  0
 44 45  1  0  0  0  0
 44110  1  0  0  0  0
 44111  1  0  0  0  0
 45 46  1  0  0  0  0
 45112  1  0  0  0  0
 45113  1  0  0  0  0
 46 47  1  0  0  0  0
 46114  1  0  0  0  0
 46115  1  0  0  0  0
 47 48  1  0  0  0  0
 47116  1  0  0  0  0
 47117  1  0  0  0  0
 48 49  1  0  0  0  0
 48118  1  6  0  0  0
 50 52  1  0  0  0  0
 50119  1  0  0  0  0
 50120  1  0  0  0  0
 51 58  1  0  0  0  0
 52121  1  6  0  0  0
 53 54  2  0  0  0  0
 53 58  1  0  0  0  0
 54 55  1  0  0  0  0
 54122  1  0  0  0  0
 55 56  2  0  0  0  0
 55123  1  0  0  0  0
 56 57  1  0  0  0  0
 56124  1  0  0  0  0
 57 58  2  0  0  0  0
 57125  1  0  0  0  0
M  END
$$$$
/media/chris/experiments/cd1a-new-docking/inputs/ligands/1xz0_ligand.pdb
 OpenBabel07022319323D

125127  0  0  1  0  0  0  0  0999 V2000
  -40.4884   60.5770   59.5198 N   0  0  0  0  0  0  0  0  0  0  0  0
  -40.8098   61.5587   58.6362 C   0  0  0  0  0  0  0  0  0  0  0  0
  -34.5145   59.2300   63.5740 O   0  0  0  0  0  0  0  0  0  0  0  0
  -30.9271   49.8627   58.7360 Si  0  0  0  0  0  0  0  0  0  0  0  0
  -41.1262   59.3392   59.3572 O   0  0  0  0  0  0  0  0  0  0  0  0
  -31.1942   51.6268   58.6238 O   0  0  0  0  0  0  0  0  0  0  0  0
  -39.5502   60.6191   60.6457 C   0  0  0  0  0  0  0  0  0  0  0  0
  -31.4520   54.8299   61.7103 N   0  0  0  0  0  0  0  0  0  0  0  0
  -34.8102   56.9389   63.5156 O   0  0  0  0  0  0  0  0  0  0  0  0
  -38.4615   59.5524   60.4085 C   0  0  0  0  0  0  0  0  0  0  0  0
  -36.8950   59.8150   64.6310 N   0  0  0  0  0  0  0  0  0  0  0  0
  -30.3370   56.2673   63.0541 O   0  0  0  0  0  0  0  0  0  0  0  0
  -37.3686   59.4033   61.4804 C   0  0  0  0  0  0  0  0  0  0  0  0
  -31.1377   52.4069   59.7393 N   0  0  0  0  0  0  0  0  0  0  0  0
  -37.6514   61.9223   65.0309 O   0  0  0  0  0  0  0  0  0  0  0  0
  -37.6390   58.4030   62.6110 C   0  0  0  0  0  0  0  0  0  0  0  0
  -39.8013   61.6702   63.4018 N   0  0  0  0  0  0  0  0  0  0  0  0
  -40.2858   62.6705   58.7009 O   0  0  0  0  0  0  0  0  0  0  0  0
  -36.7890   58.5530   63.8960 C   0  0  1  0  0  0  0  0  0  0  0  0
  -30.6576   54.2047   58.4733 O   0  0  0  0  0  0  0  0  0  0  0  0
  -35.3080   58.3090   63.6770 C   0  0  0  0  0  0  0  0  0  0  0  0
  -40.6847   59.6904   62.8613 O   0  0  0  0  0  0  0  0  0  0  0  0
  -33.6819   56.6465   62.6698 C   0  0  1  0  0  0  0  0  0  0  0  0
  -41.3738   63.8488   63.8894 O   0  0  0  0  0  0  0  0  0  0  0  0
  -32.5934   56.0144   63.5242 C   0  0  0  0  0  0  0  0  0  0  0  0
  -34.0060   55.7775   61.4609 C   0  0  0  0  0  0  0  0  0  0  0  0
  -31.3467   55.6778   62.7439 C   0  0  0  0  0  0  0  0  0  0  0  0
  -37.6390   60.9007   64.3569 C   0  0  0  0  0  0  0  0  0  0  0  0
  -41.8486   61.2665   57.5483 C   0  0  0  0  0  0  0  0  0  0  0  0
  -43.0865   62.1727   57.5917 C   0  0  0  0  0  0  0  0  0  0  0  0
  -44.0677   61.7812   56.4700 C   0  0  0  0  0  0  0  0  0  0  0  0
  -44.5809   60.3328   56.5796 C   0  0  0  0  0  0  0  0  0  0  0  0
  -45.5506   59.9096   55.4604 C   0  0  0  0  0  0  0  0  0  0  0  0
  -46.8167   60.7896   55.3988 C   0  0  0  0  0  0  0  0  0  0  0  0
  -47.8255   60.3864   54.2982 C   0  0  0  0  0  0  0  0  0  0  0  0
  -48.3688   58.9621   54.4609 C   0  0  0  0  0  0  0  0  0  0  0  0
  -49.3599   58.5114   53.3832 C   0  0  0  0  0  0  0  0  0  0  0  0
  -50.5941   59.4306   53.3363 C   0  0  0  0  0  0  0  0  0  0  0  0
  -51.6363   59.0205   52.2848 C   0  0  0  0  0  0  0  0  0  0  0  0
  -52.8752   59.9171   52.1905 C   0  0  0  0  0  0  0  0  0  0  0  0
  -53.6897   60.0167   53.5044 C   0  0  0  0  0  0  0  0  0  0  0  0
  -54.1875   58.6323   53.9670 C   0  0  0  0  0  0  0  0  0  0  0  0
  -55.0925   57.8560   53.0028 C   0  0  0  0  0  0  0  0  0  0  0  0
  -31.5192   51.7804   61.0136 C   0  0  0  0  0  0  0  0  0  0  0  0
  -30.2938   51.6277   61.9342 C   0  0  0  0  0  0  0  0  0  0  0  0
  -29.0230   52.2988   61.4397 C   0  0  0  0  0  0  0  0  0  0  0  0
  -29.1187   53.8267   61.4279 C   0  0  0  0  0  0  0  0  0  0  0  0
  -30.3552   54.4885   60.7972 C   0  0  1  0  0  0  0  0  0  0  0  0
  -30.7478   53.6812   59.5754 C   0  0  0  0  0  0  0  0  0  0  0  0
  -39.2771   59.4566   62.8389 C   0  0  0  0  0  0  0  0  0  0  0  0
  -40.8989   61.0671   63.2311 C   0  0  0  0  0  0  0  0  0  0  0  0
  -38.6157   60.8175   63.1928 C   0  0  1  0  0  0  0  0  0  0  0  0
  -42.4236   63.0563   63.6414 C   0  0  0  0  0  0  0  0  0  0  0  0
  -43.7191   63.5877   63.6887 C   0  0  0  0  0  0  0  0  0  0  0  0
  -44.8380   62.7745   63.4416 C   0  0  0  0  0  0  0  0  0  0  0  0
  -44.6735   61.4227   63.1344 C   0  0  0  0  0  0  0  0  0  0  0  0
  -43.3828   60.8893   63.0797 C   0  0  0  0  0  0  0  0  0  0  0  0
  -42.2601   61.6997   63.3355 C   0  0  0  0  0  0  0  0  0  0  0  0
  -31.0386   49.2840   57.4440 H   0  0  0  0  0  0  0  0  0  0  0  0
  -31.9008   49.2903   59.5966 H   0  0  0  0  0  0  0  0  0  0  0  0
  -29.6298   49.6125   59.2563 H   0  0  0  0  0  0  0  0  0  0  0  0
  -41.7289   59.3832   58.5984 H   0  0  0  0  0  0  0  0  0  0  0  0
  -40.0695   60.4097   61.5575 H   0  0  0  0  0  0  0  0  0  0  0  0
  -39.1057   61.5897   60.7194 H   0  0  0  0  0  0  0  0  0  0  0  0
  -32.3269   54.4067   61.5530 H   0  0  0  0  0  0  0  0  0  0  0  0
  -37.9751   59.7904   59.4856 H   0  0  0  0  0  0  0  0  0  0  0  0
  -38.9859   58.6198   60.4219 H   0  0  0  0  0  0  0  0  0  0  0  0
  -36.3417   59.8774   65.4429 H   0  0  0  0  0  0  0  0  0  0  0  0
  -36.4946   59.9506   61.4407 H   0  0  0  0  0  0  0  0  0  0  0  0
  -38.3541   57.6645   62.5194 H   0  0  0  0  0  0  0  0  0  0  0  0
  -37.2383   57.7881   64.4943 H   0  0  0  0  0  0  0  0  0  0  0  0
  -33.3498   57.5726   62.2492 H   0  0  0  0  0  0  0  0  0  0  0  0
  -41.5075   64.7539   64.0919 H   0  0  0  0  0  0  0  0  0  0  0  0
  -32.9788   55.1138   63.9547 H   0  0  0  0  0  0  0  0  0  0  0  0
  -32.3183   56.7304   64.2703 H   0  0  0  0  0  0  0  0  0  0  0  0
  -34.3502   54.8199   61.7920 H   0  0  0  0  0  0  0  0  0  0  0  0
  -33.1263   55.6536   60.8646 H   0  0  0  0  0  0  0  0  0  0  0  0
  -34.7691   56.2486   60.8773 H   0  0  0  0  0  0  0  0  0  0  0  0
  -42.1723   60.2527   57.6588 H   0  0  0  0  0  0  0  0  0  0  0  0
  -41.3680   61.4520   56.6105 H   0  0  0  0  0  0  0  0  0  0  0  0
  -42.7849   63.1907   57.4589 H   0  0  0  0  0  0  0  0  0  0  0  0
  -43.5721   62.0577   58.5382 H   0  0  0  0  0  0  0  0  0  0  0  0
  -43.5695   61.8936   55.5298 H   0  0  0  0  0  0  0  0  0  0  0  0
  -44.9187   62.4238   56.5581 H   0  0  0  0  0  0  0  0  0  0  0  0
  -45.0865   60.2279   57.5167 H   0  0  0  0  0  0  0  0  0  0  0  0
  -43.7226   59.6997   56.4925 H   0  0  0  0  0  0  0  0  0  0  0  0
  -45.8474   58.8958   55.6310 H   0  0  0  0  0  0  0  0  0  0  0  0
  -45.0355   60.0222   54.5294 H   0  0  0  0  0  0  0  0  0  0  0  0
  -46.5130   61.7998   55.2198 H   0  0  0  0  0  0  0  0  0  0  0  0
  -47.3206   60.6634   56.3343 H   0  0  0  0  0  0  0  0  0  0  0  0
  -47.3373   60.4566   53.3487 H   0  0  0  0  0  0  0  0  0  0  0  0
  -48.6593   61.0526   54.3751 H   0  0  0  0  0  0  0  0  0  0  0  0
  -48.8617   58.9027   55.4087 H   0  0  0  0  0  0  0  0  0  0  0  0
  -47.5233   58.3118   54.3753 H   0  0  0  0  0  0  0  0  0  0  0  0
  -49.6776   57.5125   53.5980 H   0  0  0  0  0  0  0  0  0  0  0  0
  -48.8691   58.5575   52.4335 H   0  0  0  0  0  0  0  0  0  0  0  0
  -50.2657   60.4246   53.1152 H   0  0  0  0  0  0  0  0  0  0  0  0
  -51.0715   59.3584   54.2912 H   0  0  0  0  0  0  0  0  0  0  0  0
  -51.9652   58.0292   52.5174 H   0  0  0  0  0  0  0  0  0  0  0  0
  -51.1437   59.1041   51.3386 H   0  0  0  0  0  0  0  0  0  0  0  0
  -53.5154   59.5254   51.4279 H   0  0  0  0  0  0  0  0  0  0  0  0
  -52.5241   60.9038   51.9714 H   0  0  0  0  0  0  0  0  0  0  0  0
  -54.5341   60.6536   53.3425 H   0  0  0  0  0  0  0  0  0  0  0  0
  -53.0520   60.4157   54.2653 H   0  0  0  0  0  0  0  0  0  0  0  0
  -54.7324   58.7736   54.8769 H   0  0  0  0  0  0  0  0  0  0  0  0
  -53.3033   58.0365   54.0561 H   0  0  0  0  0  0  0  0  0  0  0  0
  -56.0068   58.3935   52.8610 H   0  0  0  0  0  0  0  0  0  0  0  0
  -55.3059   56.8910   53.4128 H   0  0  0  0  0  0  0  0  0  0  0  0
  -54.5963   57.7419   52.0617 H   0  0  0  0  0  0  0  0  0  0  0  0
  -31.9349   50.8138   60.8191 H   0  0  0  0  0  0  0  0  0  0  0  0
  -32.2398   52.4035   61.5009 H   0  0  0  0  0  0  0  0  0  0  0  0
  -30.0934   50.5827   62.0474 H   0  0  0  0  0  0  0  0  0  0  0  0
  -30.5494   52.1166   62.8511 H   0  0  0  0  0  0  0  0  0  0  0  0
  -28.8251   51.9619   60.4435 H   0  0  0  0  0  0  0  0  0  0  0  0
  -28.2370   52.0326   62.1151 H   0  0  0  0  0  0  0  0  0  0  0  0
  -28.2631   54.1909   60.8986 H   0  0  0  0  0  0  0  0  0  0  0  0
  -29.1856   54.0889   62.4632 H   0  0  0  0  0  0  0  0  0  0  0  0
  -30.0815   55.4765   60.4908 H   0  0  0  0  0  0  0  0  0  0  0  0
  -38.9685   59.1341   61.8665 H   0  0  0  0  0  0  0  0  0  0  0  0
  -38.9944   58.6901   63.5299 H   0  0  0  0  0  0  0  0  0  0  0  0
  -37.9398   61.0972   62.4118 H   0  0  0  0  0  0  0  0  0  0  0  0
  -43.8531   64.5873   63.9075 H   0  0  0  0  0  0  0  0  0  0  0  0
  -45.7865   63.1787   63.4874 H   0  0  0  0  0  0  0  0  0  0  0  0
  -45.4943   60.8250   62.9501 H   0  0  0  0  0  0  0  0  0  0  0  0
  -43.2513   59.8919   62.8497 H   0  0  0  0  0  0  0  0  0  0  0  0
  1  2  1  0  0  0  0
  1  5  1  0  0  0  0
  1  7  1  0  0  0  0
  2 18  2  0  0  0  0
  2 29  1  0  0  0  0
  3 21  2  0  0  0  0
  4  6  1  0  0  0  0
  4 59  1  0  0  0  0
  4 60  1  0  0  0  0
  4 61  1  0  0  0  0
  5 62  1  0  0  0  0
  6 14  1  0  0  0  0
  7 10  1  0  0  0  0
  7 63  1  0  0  0  0
  7 64  1  0  0  0  0
  8 27  1  0  0  0  0
  8 48  1  0  0  0  0
  8 65  1  0  0  0  0
  9 21  1  0  0  0  0
  9 23  1  0  0  0  0
 10 13  1  0  0  0  0
 10 66  1  0  0  0  0
 10 67  1  0  0  0  0
 11 19  1  0  0  0  0
 11 28  1  0  0  0  0
 11 68  1  0  0  0  0
 12 27  2  0  0  0  0
 13 16  2  0  0  0  0
 13 69  1  0  0  0  0
 14 44  1  0  0  0  0
 14 49  1  0  0  0  0
 15 28  2  0  0  0  0
 16 19  1  0  0  0  0
 16 70  1  0  0  0  0
 17 51  2  0  0  0  0
 17 52  1  0  0  0  0
 19 21  1  0  0  0  0
 19 71  1  1  0  0  0
 20 49  2  0  0  0  0
 22 50  1  0  0  0  0
 22 51  1  0  0  0  0
 23 25  1  0  0  0  0
 23 26  1  0  0  0  0
 23 72  1  6  0  0  0
 24 53  1  0  0  0  0
 24 73  1  0  0  0  0
 25 27  1  0  0  0  0
 25 74  1  0  0  0  0
 25 75  1  0  0  0  0
 26 76  1  0  0  0  0
 26 77  1  0  0  0  0
 26 78  1  0  0  0  0
 28 52  1  0  0  0  0
 29 30  1  0  0  0  0
 29 79  1  0  0  0  0
 29 80  1  0  0  0  0
 30 31  1  0  0  0  0
 30 81  1  0  0  0  0
 30 82  1  0  0  0  0
 31 32  1  0  0  0  0
 31 83  1  0  0  0  0
 31 84  1  0  0  0  0
 32 33  1  0  0  0  0
 32 85  1  0  0  0  0
 32 86  1  0  0  0  0
 33 34  1  0  0  0  0
 33 87  1  0  0  0  0
 33 88  1  0  0  0  0
 34 35  1  0  0  0  0
 34 89  1  0  0  0  0
 34 90  1  0  0  0  0
 35 36  1  0  0  0  0
 35 91  1  0  0  0  0
 35 92  1  0  0  0  0
 36 37  1  0  0  0  0
 36 93  1  0  0  0  0
 36 94  1  0  0  0  0
 37 38  1  0  0  0  0
 37 95  1  0  0  0  0
 37 96  1  0  0  0  0
 38 39  1  0  0  0  0
 38 97  1  0  0  0  0
 38 98  1  0  0  0  0
 39 40  1  0  0  0  0
 39 99  1  0  0  0  0
 39100  1  0  0  0  0
 40 41  1  0  0  0  0
 40101  1  0  0  0  0
 40102  1  0  0  0  0
 41 42  1  0  0  0  0
 41103  1  0  0  0  0
 41104  1  0  0  0  0
 42 43  1  0  0  0  0
 42105  1  0  0  0  0
 42106  1  0  0  0  0
 43107  1  0  0  0  0
 43108  1  0  0  0  0
 43109  1  0  0  0  0
 44 45  1  0  0  0  0
 44110  1  0  0  0  0
 44111  1  0  0  0  0
 45 46  1  0  0  0  0
 45112  1  0  0  0  0
 45113  1  0  0  0  0
 46 47  1  0  0  0  0
 46114  1  0  0  0  0
 46115  1  0  0  0  0
 47 48  1  0  0  0  0
 47116  1  0  0  0  0
 47117  1  0  0  0  0
 48 49  1  0  0  0  0
 48118  1  6  0  0  0
 50 52  1  0  0  0  0
 50119  1  0  0  0  0
 50120  1  0  0  0  0
 51 58  1  0  0  0  0
 52121  1  6  0  0  0
 53 54  2  0  0  0  0
 53 58  1  0  0  0  0
 54 55  1  0  0  0  0
 54122  1  0  0  0  0
 55 56  2  0  0  0  0
 55123  1  0  0  0  0
 56 57  1  0  0  0  0
 56124  1  0  0  0  0
 57 58  2  0  0  0  0
 57125  1  0  0  0  0
M  END
$$$$
/media/chris/experiments/cd1a-new-docking/inputs/ligands/1xz0_ligand.pdb
 OpenBabel07022319323D

125127  0  0  1  0  0  0  0  0999 V2000
  -41.1346   57.4955   59.5365 N   0  0  0  0  0  0  0  0  0  0  0  0
  -40.9645   56.1909   59.1946 C   0  0  0  0  0  0  0  0  0  0  0  0
  -34.6358   57.6816   64.4788 O   0  0  0  0  0  0  0  0  0  0  0  0
  -39.6814   57.4551   58.2008 Si  0  0  0  0  0  0  0  0  0  0  0  0
  -41.9471   58.2731   58.6995 O   0  0  0  0  0  0  0  0  0  0  0  0
  -38.3419   57.0859   57.0759 O   0  0  0  0  0  0  0  0  0  0  0  0
  -40.5824   58.2302   60.6789 C   0  0  0  0  0  0  0  0  0  0  0  0
  -34.5028   58.1855   59.0521 N   0  0  0  0  0  0  0  0  0  0  0  0
  -34.6370   58.8922   62.5105 O   0  0  0  0  0  0  0  0  0  0  0  0
  -39.7171   57.2580   61.5068 C   0  0  0  0  0  0  0  0  0  0  0  0
  -36.8950   59.8150   64.6310 N   0  0  0  0  0  0  0  0  0  0  0  0
  -33.1650   59.9085   59.6495 O   0  0  0  0  0  0  0  0  0  0  0  0
  -39.0441   57.8107   62.7746 C   0  0  0  0  0  0  0  0  0  0  0  0
  -37.0472   57.2662   57.4597 N   0  0  0  0  0  0  0  0  0  0  0  0
  -38.3860   61.0055   63.3930 O   0  0  0  0  0  0  0  0  0  0  0  0
  -37.6390   58.4030   62.6110 C   0  0  0  0  0  0  0  0  0  0  0  0
  -36.4556   61.9053   66.2987 N   0  0  0  0  0  0  0  0  0  0  0  0
  -40.2771   55.4365   59.8826 O   0  0  0  0  0  0  0  0  0  0  0  0
  -36.7890   58.5530   63.8960 C   0  0  1  0  0  0  0  0  0  0  0  0
  -37.4971   59.3987   58.0215 O   0  0  0  0  0  0  0  0  0  0  0  0
  -35.3080   58.3090   63.6770 C   0  0  0  0  0  0  0  0  0  0  0  0
  -38.2143   62.7006   67.4241 O   0  0  0  0  0  0  0  0  0  0  0  0
  -33.2203   58.7355   62.3051 C   0  0  1  0  0  0  0  0  0  0  0  0
  -37.8136   62.9050   70.1034 O   0  0  0  0  0  0  0  0  0  0  0  0
  -33.0044   58.0173   60.9815 C   0  0  0  0  0  0  0  0  0  0  0  0
  -32.4254   60.0342   62.3620 C   0  0  0  0  0  0  0  0  0  0  0  0
  -33.5568   58.7738   59.7987 C   0  0  0  0  0  0  0  0  0  0  0  0
  -37.6390   60.9007   64.3569 C   0  0  0  0  0  0  0  0  0  0  0  0
  -41.6402   55.6627   57.9249 C   0  0  0  0  0  0  0  0  0  0  0  0
  -41.3940   54.1737   57.6462 C   0  0  0  0  0  0  0  0  0  0  0  0
  -42.1015   53.7558   56.3427 C   0  0  0  0  0  0  0  0  0  0  0  0
  -41.9201   52.2661   55.9948 C   0  0  0  0  0  0  0  0  0  0  0  0
  -42.4743   51.2893   57.0486 C   0  0  0  0  0  0  0  0  0  0  0  0
  -43.9927   51.4474   57.2737 C   0  0  0  0  0  0  0  0  0  0  0  0
  -44.8578   51.1899   56.0179 C   0  0  0  0  0  0  0  0  0  0  0  0
  -46.3601   51.3703   56.2647 C   0  0  0  0  0  0  0  0  0  0  0  0
  -47.2596   51.1091   55.0524 C   0  0  0  0  0  0  0  0  0  0  0  0
  -46.9093   52.0456   53.8817 C   0  0  0  0  0  0  0  0  0  0  0  0
  -47.7894   51.8446   52.6388 C   0  0  0  0  0  0  0  0  0  0  0  0
  -47.7572   50.4433   52.0199 C   0  0  0  0  0  0  0  0  0  0  0  0
  -48.6433   50.2842   50.7593 C   0  0  0  0  0  0  0  0  0  0  0  0
  -48.5776   48.8486   50.1998 C   0  0  0  0  0  0  0  0  0  0  0  0
  -49.3964   48.5511   48.9379 C   0  0  0  0  0  0  0  0  0  0  0  0
  -36.1757   56.0820   57.4502 C   0  0  0  0  0  0  0  0  0  0  0  0
  -35.1096   56.1987   56.3446 C   0  0  0  0  0  0  0  0  0  0  0  0
  -35.0532   57.5425   55.6369 C   0  0  0  0  0  0  0  0  0  0  0  0
  -34.5743   58.6778   56.5455 C   0  0  0  0  0  0  0  0  0  0  0  0
  -35.2071   58.8314   57.9386 C   0  0  1  0  0  0  0  0  0  0  0  0
  -36.6836   58.5070   57.8217 C   0  0  0  0  0  0  0  0  0  0  0  0
  -38.6628   62.6586   66.0700 C   0  0  0  0  0  0  0  0  0  0  0  0
  -36.8609   62.2055   67.4577 C   0  0  0  0  0  0  0  0  0  0  0  0
  -37.4607   62.1261   65.2416 C   0  0  1  0  0  0  0  0  0  0  0  0
  -36.5590   62.4590   69.9666 C   0  0  0  0  0  0  0  0  0  0  0  0
  -35.7441   62.3251   71.0984 C   0  0  0  0  0  0  0  0  0  0  0  0
  -34.4207   61.8681   70.9801 C   0  0  0  0  0  0  0  0  0  0  0  0
  -33.9002   61.5303   69.7296 C   0  0  0  0  0  0  0  0  0  0  0  0
  -34.7112   61.6561   68.5982 C   0  0  0  0  0  0  0  0  0  0  0  0
  -36.0350   62.1221   68.7126 C   0  0  0  0  0  0  0  0  0  0  0  0
  -40.9218   57.1844   57.5648 H   0  0  0  0  0  0  0  0  0  0  0  0
  -39.6269   58.8257   58.5680 H   0  0  0  0  0  0  0  0  0  0  0  0
  -39.5595   56.6485   59.3630 H   0  0  0  0  0  0  0  0  0  0  0  0
  -42.2762   57.7261   57.9692 H   0  0  0  0  0  0  0  0  0  0  0  0
  -41.3788   58.6106   61.2838 H   0  0  0  0  0  0  0  0  0  0  0  0
  -39.9890   59.0523   60.3369 H   0  0  0  0  0  0  0  0  0  0  0  0
  -34.7415   57.2547   59.2662 H   0  0  0  0  0  0  0  0  0  0  0  0
  -38.9421   56.8930   60.8656 H   0  0  0  0  0  0  0  0  0  0  0  0
  -40.4029   56.5177   61.8626 H   0  0  0  0  0  0  0  0  0  0  0  0
  -36.3417   59.8774   65.4429 H   0  0  0  0  0  0  0  0  0  0  0  0
  -39.5159   57.7843   63.6921 H   0  0  0  0  0  0  0  0  0  0  0  0
  -37.2771   58.6882   61.6876 H   0  0  0  0  0  0  0  0  0  0  0  0
  -37.2383   57.7881   64.4943 H   0  0  0  0  0  0  0  0  0  0  0  0
  -32.8415   58.1568   63.1215 H   0  0  0  0  0  0  0  0  0  0  0  0
  -38.1428   63.1245   70.9528 H   0  0  0  0  0  0  0  0  0  0  0  0
  -33.4856   57.0629   61.0298 H   0  0  0  0  0  0  0  0  0  0  0  0
  -31.9480   57.9275   60.8367 H   0  0  0  0  0  0  0  0  0  0  0  0
  -32.7426   60.6814   61.5711 H   0  0  0  0  0  0  0  0  0  0  0  0
  -31.3831   59.8195   62.2508 H   0  0  0  0  0  0  0  0  0  0  0  0
  -32.5924   60.5136   63.3039 H   0  0  0  0  0  0  0  0  0  0  0  0
  -41.2718   56.2241   57.0918 H   0  0  0  0  0  0  0  0  0  0  0  0
  -42.6942   55.7750   58.0714 H   0  0  0  0  0  0  0  0  0  0  0  0
  -41.7776   53.5932   58.4590 H   0  0  0  0  0  0  0  0  0  0  0  0
  -40.3422   54.0054   57.5437 H   0  0  0  0  0  0  0  0  0  0  0  0
  -41.7054   54.3417   55.5397 H   0  0  0  0  0  0  0  0  0  0  0  0
  -43.1489   53.9198   56.4869 H   0  0  0  0  0  0  0  0  0  0  0  0
  -40.8735   52.0752   55.8806 H   0  0  0  0  0  0  0  0  0  0  0  0
  -42.4785   52.0940   55.0985 H   0  0  0  0  0  0  0  0  0  0  0  0
  -41.9714   51.4664   57.9763 H   0  0  0  0  0  0  0  0  0  0  0  0
  -42.3048   50.2966   56.6871 H   0  0  0  0  0  0  0  0  0  0  0  0
  -44.1787   52.4465   57.6084 H   0  0  0  0  0  0  0  0  0  0  0  0
  -44.2724   50.7061   57.9929 H   0  0  0  0  0  0  0  0  0  0  0  0
  -44.6865   50.1865   55.6882 H   0  0  0  0  0  0  0  0  0  0  0  0
  -44.5699   51.9124   55.2831 H   0  0  0  0  0  0  0  0  0  0  0  0
  -46.5235   52.3776   56.5864 H   0  0  0  0  0  0  0  0  0  0  0  0
  -46.6295   50.6371   56.9960 H   0  0  0  0  0  0  0  0  0  0  0  0
  -48.2792   51.2702   55.3342 H   0  0  0  0  0  0  0  0  0  0  0  0
  -47.1094   50.0991   54.7327 H   0  0  0  0  0  0  0  0  0  0  0  0
  -45.8904   51.8719   53.6047 H   0  0  0  0  0  0  0  0  0  0  0  0
  -47.0776   53.0456   54.2229 H   0  0  0  0  0  0  0  0  0  0  0  0
  -47.4679   52.5407   51.8925 H   0  0  0  0  0  0  0  0  0  0  0  0
  -48.7965   51.9944   52.9678 H   0  0  0  0  0  0  0  0  0  0  0  0
  -48.0932   49.7436   52.7565 H   0  0  0  0  0  0  0  0  0  0  0  0
  -46.7483   50.2675   51.7102 H   0  0  0  0  0  0  0  0  0  0  0  0
  -48.3043   50.9661   50.0076 H   0  0  0  0  0  0  0  0  0  0  0  0
  -49.6567   50.4919   51.0328 H   0  0  0  0  0  0  0  0  0  0  0  0
  -48.9191   48.1874   50.9687 H   0  0  0  0  0  0  0  0  0  0  0  0
  -47.5577   48.7131   49.9057 H   0  0  0  0  0  0  0  0  0  0  0  0
  -50.4381   48.6663   49.1533 H   0  0  0  0  0  0  0  0  0  0  0  0
  -49.2071   47.5476   48.6183 H   0  0  0  0  0  0  0  0  0  0  0  0
  -49.1152   49.2317   48.1616 H   0  0  0  0  0  0  0  0  0  0  0  0
  -36.7702   55.2099   57.2741 H   0  0  0  0  0  0  0  0  0  0  0  0
  -35.6826   56.0104   58.3971 H   0  0  0  0  0  0  0  0  0  0  0  0
  -35.3107   55.4466   55.6106 H   0  0  0  0  0  0  0  0  0  0  0  0
  -34.1641   56.0804   56.8312 H   0  0  0  0  0  0  0  0  0  0  0  0
  -36.0334   57.7815   55.2806 H   0  0  0  0  0  0  0  0  0  0  0  0
  -34.3480   57.4536   54.8372 H   0  0  0  0  0  0  0  0  0  0  0  0
  -34.7453   59.5941   56.0200 H   0  0  0  0  0  0  0  0  0  0  0  0
  -33.5539   58.4302   56.7516 H   0  0  0  0  0  0  0  0  0  0  0  0
  -35.0959   59.8515   58.2418 H   0  0  0  0  0  0  0  0  0  0  0  0
  -38.9389   63.6378   65.7386 H   0  0  0  0  0  0  0  0  0  0  0  0
  -39.5243   62.0337   65.9599 H   0  0  0  0  0  0  0  0  0  0  0  0
  -37.2199   62.8303   64.4728 H   0  0  0  0  0  0  0  0  0  0  0  0
  -36.1200   62.5647   72.0291 H   0  0  0  0  0  0  0  0  0  0  0  0
  -33.8303   61.7817   71.8221 H   0  0  0  0  0  0  0  0  0  0  0  0
  -32.9292   61.1920   69.6417 H   0  0  0  0  0  0  0  0  0  0  0  0
  -34.3361   61.4051   67.6702 H   0  0  0  0  0  0  0  0  0  0  0  0
  1  2  1  0  0  0  0
  1  5  1  0  0  0  0
  1  7  1  0  0  0  0
  2 18  2  0  0  0  0
  2 29  1  0  0  0  0
  3 21  2  0  0  0  0
  4  6  1  0  0  0  0
  4 59  1  0  0  0  0
  4 60  1  0  0  0  0
  4 61  1  0  0  0  0
  5 62  1  0  0  0  0
  6 14  1  0  0  0  0
  7 10  1  0  0  0  0
  7 63  1  0  0  0  0
  7 64  1  0  0  0  0
  8 27  1  0  0  0  0
  8 48  1  0  0  0  0
  8 65  1  0  0  0  0
  9 21  1  0  0  0  0
  9 23  1  0  0  0  0
 10 13  1  0  0  0  0
 10 66  1  0  0  0  0
 10 67  1  0  0  0  0
 11 19  1  0  0  0  0
 11 28  1  0  0  0  0
 11 68  1  0  0  0  0
 12 27  2  0  0  0  0
 13 16  2  0  0  0  0
 13 69  1  0  0  0  0
 14 44  1  0  0  0  0
 14 49  1  0  0  0  0
 15 28  2  0  0  0  0
 16 19  1  0  0  0  0
 16 70  1  0  0  0  0
 17 51  2  0  0  0  0
 17 52  1  0  0  0  0
 19 21  1  0  0  0  0
 19 71  1  1  0  0  0
 20 49  2  0  0  0  0
 22 50  1  0  0  0  0
 22 51  1  0  0  0  0
 23 25  1  0  0  0  0
 23 26  1  0  0  0  0
 23 72  1  1  0  0  0
 24 53  1  0  0  0  0
 24 73  1  0  0  0  0
 25 27  1  0  0  0  0
 25 74  1  0  0  0  0
 25 75  1  0  0  0  0
 26 76  1  0  0  0  0
 26 77  1  0  0  0  0
 26 78  1  0  0  0  0
 28 52  1  0  0  0  0
 29 30  1  0  0  0  0
 29 79  1  0  0  0  0
 29 80  1  0  0  0  0
 30 31  1  0  0  0  0
 30 81  1  0  0  0  0
 30 82  1  0  0  0  0
 31 32  1  0  0  0  0
 31 83  1  0  0  0  0
 31 84  1  0  0  0  0
 32 33  1  0  0  0  0
 32 85  1  0  0  0  0
 32 86  1  0  0  0  0
 33 34  1  0  0  0  0
 33 87  1  0  0  0  0
 33 88  1  0  0  0  0
 34 35  1  0  0  0  0
 34 89  1  0  0  0  0
 34 90  1  0  0  0  0
 35 36  1  0  0  0  0
 35 91  1  0  0  0  0
 35 92  1  0  0  0  0
 36 37  1  0  0  0  0
 36 93  1  0  0  0  0
 36 94  1  0  0  0  0
 37 38  1  0  0  0  0
 37 95  1  0  0  0  0
 37 96  1  0  0  0  0
 38 39  1  0  0  0  0
 38 97  1  0  0  0  0
 38 98  1  0  0  0  0
 39 40  1  0  0  0  0
 39 99  1  0  0  0  0
 39100  1  0  0  0  0
 40 41  1  0  0  0  0
 40101  1  0  0  0  0
 40102  1  0  0  0  0
 41 42  1  0  0  0  0
 41103  1  0  0  0  0
 41104  1  0  0  0  0
 42 43  1  0  0  0  0
 42105  1  0  0  0  0
 42106  1  0  0  0  0
 43107  1  0  0  0  0
 43108  1  0  0  0  0
 43109  1  0  0  0  0
 44 45  1  0  0  0  0
 44110  1  0  0  0  0
 44111  1  0  0  0  0
 45 46  1  0  0  0  0
 45112  1  0  0  0  0
 45113  1  0  0  0  0
 46 47  1  0  0  0  0
 46114  1  0  0  0  0
 46115  1  0  0  0  0
 47 48  1  0  0  0  0
 47116  1  0  0  0  0
 47117  1  0  0  0  0
 48 49  1  0  0  0  0
 48118  1  1  0  0  0
 50 52  1  0  0  0  0
 50119  1  0  0  0  0
 50120  1  0  0  0  0
 51 58  1  0  0  0  0
 52121  1  6  0  0  0
 53 54  2  0  0  0  0
 53 58  1  0  0  0  0
 54 55  1  0  0  0  0
 54122  1  0  0  0  0
 55 56  2  0  0  0  0
 55123  1  0  0  0  0
 56 57  1  0  0  0  0
 56124  1  0  0  0  0
 57 58  2  0  0  0  0
 57125  1  0  0  0  0
M  END
$$$$
/media/chris/experiments/cd1a-new-docking/inputs/ligands/1xz0_ligand.pdb
 OpenBabel07022319323D

125127  0  0  1  0  0  0  0  0999 V2000
  -39.2135   60.9062   61.1554 N   0  0  0  0  0  0  0  0  0  0  0  0
  -39.3826   62.1281   61.7263 C   0  0  0  0  0  0  0  0  0  0  0  0
  -34.4624   59.0890   64.0833 O   0  0  0  0  0  0  0  0  0  0  0  0
  -30.6182   64.3448   61.1367 Si  0  0  0  0  0  0  0  0  0  0  0  0
  -39.8210   59.8152   61.7928 O   0  0  0  0  0  0  0  0  0  0  0  0
  -32.3310   63.8443   61.0282 O   0  0  0  0  0  0  0  0  0  0  0  0
  -38.4731   60.5487   59.9415 C   0  0  0  0  0  0  0  0  0  0  0  0
  -32.8156   60.0020   63.2314 N   0  0  0  0  0  0  0  0  0  0  0  0
  -34.8671   57.1453   62.9008 O   0  0  0  0  0  0  0  0  0  0  0  0
  -37.9322   59.1139   60.1095 C   0  0  0  0  0  0  0  0  0  0  0  0
  -36.8950   59.8150   64.6310 N   0  0  0  0  0  0  0  0  0  0  0  0
  -32.6078   58.5653   64.9659 O   0  0  0  0  0  0  0  0  0  0  0  0
  -36.9889   58.8455   61.2943 C   0  0  0  0  0  0  0  0  0  0  0  0
  -32.7679   62.7290   61.6772 N   0  0  0  0  0  0  0  0  0  0  0  0
  -37.9248   61.7067   65.3617 O   0  0  0  0  0  0  0  0  0  0  0  0
  -37.6390   58.4030   62.6110 C   0  0  0  0  0  0  0  0  0  0  0  0
  -40.4168   60.7962   64.8137 N   0  0  0  0  0  0  0  0  0  0  0  0
  -38.8934   63.1394   61.2234 O   0  0  0  0  0  0  0  0  0  0  0  0
  -36.7890   58.5530   63.8960 C   0  0  1  0  0  0  0  0  0  0  0  0
  -31.1662   61.5041   60.6774 O   0  0  0  0  0  0  0  0  0  0  0  0
  -35.3080   58.3090   63.6770 C   0  0  0  0  0  0  0  0  0  0  0  0
  -40.9053   58.6210   64.6657 O   0  0  0  0  0  0  0  0  0  0  0  0
  -33.5752   56.5467   63.1165 C   0  0  1  0  0  0  0  0  0  0  0  0
  -43.7379   58.4360   64.7265 O   0  0  0  0  0  0  0  0  0  0  0  0
  -32.5092   57.6012   62.8594 C   0  0  0  0  0  0  0  0  0  0  0  0
  -33.3957   55.9063   64.4873 C   0  0  0  0  0  0  0  0  0  0  0  0
  -32.6197   58.7931   63.7778 C   0  0  0  0  0  0  0  0  0  0  0  0
  -37.9361   60.6601   64.7271 C   0  0  0  0  0  0  0  0  0  0  0  0
  -40.1933   62.2357   63.0222 C   0  0  0  0  0  0  0  0  0  0  0  0
  -39.7586   63.3775   63.9510 C   0  0  0  0  0  0  0  0  0  0  0  0
  -40.6252   63.3814   65.2251 C   0  0  0  0  0  0  0  0  0  0  0  0
  -42.1300   63.5552   64.9449 C   0  0  0  0  0  0  0  0  0  0  0  0
  -42.7525   62.4473   64.0749 C   0  0  0  0  0  0  0  0  0  0  0  0
  -44.2555   62.6695   63.8048 C   0  0  0  0  0  0  0  0  0  0  0  0
  -44.9231   61.5687   62.9480 C   0  0  0  0  0  0  0  0  0  0  0  0
  -44.2875   61.4045   61.5627 C   0  0  0  0  0  0  0  0  0  0  0  0
  -44.9270   60.3359   60.6704 C   0  0  0  0  0  0  0  0  0  0  0  0
  -44.8672   58.9456   61.3292 C   0  0  0  0  0  0  0  0  0  0  0  0
  -45.4785   57.8249   60.4747 C   0  0  0  0  0  0  0  0  0  0  0  0
  -46.9548   58.0005   60.1040 C   0  0  0  0  0  0  0  0  0  0  0  0
  -47.9080   58.1045   61.3206 C   0  0  0  0  0  0  0  0  0  0  0  0
  -49.3764   58.2618   60.8762 C   0  0  0  0  0  0  0  0  0  0  0  0
  -50.4316   58.3936   61.9809 C   0  0  0  0  0  0  0  0  0  0  0  0
  -33.8276   62.9108   62.6801 C   0  0  0  0  0  0  0  0  0  0  0  0
  -35.1457   62.2729   62.2020 C   0  0  0  0  0  0  0  0  0  0  0  0
  -35.0442   61.4521   60.9270 C   0  0  0  0  0  0  0  0  0  0  0  0
  -34.2157   60.1765   61.1007 C   0  0  0  0  0  0  0  0  0  0  0  0
  -32.8437   60.2700   61.7890 C   0  0  1  0  0  0  0  0  0  0  0  0
  -32.1860   61.5639   61.3507 C   0  0  0  0  0  0  0  0  0  0  0  0
  -39.6305   58.7310   64.0338 C   0  0  0  0  0  0  0  0  0  0  0  0
  -41.2888   59.9341   65.1203 C   0  0  0  0  0  0  0  0  0  0  0  0
  -39.2550   60.2376   64.0962 C   0  0  1  0  0  0  0  0  0  0  0  0
  -43.7376   59.4555   65.5940 C   0  0  0  0  0  0  0  0  0  0  0  0
  -44.9075   59.7644   66.3002 C   0  0  0  0  0  0  0  0  0  0  0  0
  -44.9357   60.8354   67.2092 C   0  0  0  0  0  0  0  0  0  0  0  0
  -43.7911   61.6035   67.4299 C   0  0  0  0  0  0  0  0  0  0  0  0
  -42.6197   61.2954   66.7325 C   0  0  0  0  0  0  0  0  0  0  0  0
  -42.5909   60.2282   65.8144 C   0  0  0  0  0  0  0  0  0  0  0  0
  -30.4220   65.5285   60.3774 H   0  0  0  0  0  0  0  0  0  0  0  0
  -29.7898   63.3113   60.6249 H   0  0  0  0  0  0  0  0  0  0  0  0
  -30.2825   64.5920   62.4941 H   0  0  0  0  0  0  0  0  0  0  0  0
  -40.2906   60.1232   62.5837 H   0  0  0  0  0  0  0  0  0  0  0  0
  -37.6586   61.2283   59.8010 H   0  0  0  0  0  0  0  0  0  0  0  0
  -39.1159   60.6029   59.0878 H   0  0  0  0  0  0  0  0  0  0  0  0
  -32.9500   60.7633   63.8410 H   0  0  0  0  0  0  0  0  0  0  0  0
  -37.4017   58.8644   59.2144 H   0  0  0  0  0  0  0  0  0  0  0  0
  -38.7979   58.5177   60.3095 H   0  0  0  0  0  0  0  0  0  0  0  0
  -36.0875   60.0833   65.1262 H   0  0  0  0  0  0  0  0  0  0  0  0
  -35.9667   58.9578   61.2074 H   0  0  0  0  0  0  0  0  0  0  0  0
  -38.5981   58.0231   62.6390 H   0  0  0  0  0  0  0  0  0  0  0  0
  -37.2383   57.7881   64.4943 H   0  0  0  0  0  0  0  0  0  0  0  0
  -33.4822   55.7320   62.4291 H   0  0  0  0  0  0  0  0  0  0  0  0
  -44.5172   57.9327   64.5953 H   0  0  0  0  0  0  0  0  0  0  0  0
  -32.6030   57.9404   61.8489 H   0  0  0  0  0  0  0  0  0  0  0  0
  -31.5591   57.1447   63.0432 H   0  0  0  0  0  0  0  0  0  0  0  0
  -33.4745   56.6577   65.2451 H   0  0  0  0  0  0  0  0  0  0  0  0
  -32.4320   55.4445   64.5419 H   0  0  0  0  0  0  0  0  0  0  0  0
  -34.1545   55.1670   64.6378 H   0  0  0  0  0  0  0  0  0  0  0  0
  -40.0938   61.3139   63.5563 H   0  0  0  0  0  0  0  0  0  0  0  0
  -41.2023   62.4448   62.7338 H   0  0  0  0  0  0  0  0  0  0  0  0
  -39.8737   64.3115   63.4417 H   0  0  0  0  0  0  0  0  0  0  0  0
  -38.7339   63.2362   64.2244 H   0  0  0  0  0  0  0  0  0  0  0  0
  -40.3023   64.1864   65.8517 H   0  0  0  0  0  0  0  0  0  0  0  0
  -40.5006   62.4273   65.6931 H   0  0  0  0  0  0  0  0  0  0  0  0
  -42.2705   64.4907   64.4448 H   0  0  0  0  0  0  0  0  0  0  0  0
  -42.6224   63.5083   65.8936 H   0  0  0  0  0  0  0  0  0  0  0  0
  -42.6307   61.5101   64.5766 H   0  0  0  0  0  0  0  0  0  0  0  0
  -42.2509   62.4610   63.1298 H   0  0  0  0  0  0  0  0  0  0  0  0
  -44.3689   63.6038   63.2958 H   0  0  0  0  0  0  0  0  0  0  0  0
  -44.7418   62.6501   64.7577 H   0  0  0  0  0  0  0  0  0  0  0  0
  -45.9556   61.8186   62.8197 H   0  0  0  0  0  0  0  0  0  0  0  0
  -44.7921   60.6422   63.4670 H   0  0  0  0  0  0  0  0  0  0  0  0
  -43.2579   61.1474   61.7000 H   0  0  0  0  0  0  0  0  0  0  0  0
  -44.4334   62.3367   61.0582 H   0  0  0  0  0  0  0  0  0  0  0  0
  -44.4036   60.3021   59.7378 H   0  0  0  0  0  0  0  0  0  0  0  0
  -45.9545   60.5935   60.5197 H   0  0  0  0  0  0  0  0  0  0  0  0
  -45.3981   58.9895   62.2572 H   0  0  0  0  0  0  0  0  0  0  0  0
  -43.8320   58.7077   61.4589 H   0  0  0  0  0  0  0  0  0  0  0  0
  -45.3830   56.9082   61.0181 H   0  0  0  0  0  0  0  0  0  0  0  0
  -44.9422   57.8392   59.5489 H   0  0  0  0  0  0  0  0  0  0  0  0
  -47.2547   57.1597   59.5139 H   0  0  0  0  0  0  0  0  0  0  0  0
  -47.0303   58.9273   59.5746 H   0  0  0  0  0  0  0  0  0  0  0  0
  -47.6299   58.9541   61.9086 H   0  0  0  0  0  0  0  0  0  0  0  0
  -47.8245   57.2029   61.8907 H   0  0  0  0  0  0  0  0  0  0  0  0
  -49.6292   57.4031   60.2901 H   0  0  0  0  0  0  0  0  0  0  0  0
  -49.4079   59.1938   60.3515 H   0  0  0  0  0  0  0  0  0  0  0  0
  -50.4608   57.4916   62.5557 H   0  0  0  0  0  0  0  0  0  0  0  0
  -51.3908   58.5663   61.5392 H   0  0  0  0  0  0  0  0  0  0  0  0
  -50.1796   59.2150   62.6187 H   0  0  0  0  0  0  0  0  0  0  0  0
  -33.9823   63.9572   62.8418 H   0  0  0  0  0  0  0  0  0  0  0  0
  -33.5255   62.4350   63.5896 H   0  0  0  0  0  0  0  0  0  0  0  0
  -35.8517   63.0591   62.0339 H   0  0  0  0  0  0  0  0  0  0  0  0
  -35.4403   61.5900   62.9713 H   0  0  0  0  0  0  0  0  0  0  0  0
  -34.5881   62.0543   60.1693 H   0  0  0  0  0  0  0  0  0  0  0  0
  -36.0363   61.1550   60.6580 H   0  0  0  0  0  0  0  0  0  0  0  0
  -34.0499   59.7740   60.1232 H   0  0  0  0  0  0  0  0  0  0  0  0
  -34.7994   59.5788   61.7693 H   0  0  0  0  0  0  0  0  0  0  0  0
  -32.2495   59.4449   61.4558 H   0  0  0  0  0  0  0  0  0  0  0  0
  -39.6893   58.4036   63.0169 H   0  0  0  0  0  0  0  0  0  0  0  0
  -38.8967   58.1221   64.5193 H   0  0  0  0  0  0  0  0  0  0  0  0
  -39.0681   60.5980   63.1062 H   0  0  0  0  0  0  0  0  0  0  0  0
  -45.7580   59.1991   66.1510 H   0  0  0  0  0  0  0  0  0  0  0  0
  -45.8071   61.0553   67.7165 H   0  0  0  0  0  0  0  0  0  0  0  0
  -43.8097   62.3888   68.0993 H   0  0  0  0  0  0  0  0  0  0  0  0
  -41.7677   61.8554   66.8921 H   0  0  0  0  0  0  0  0  0  0  0  0
  1  2  1  0  0  0  0
  1  5  1  0  0  0  0
  1  7  1  0  0  0  0
  2 18  2  0  0  0  0
  2 29  1  0  0  0  0
  3 21  2  0  0  0  0
  4  6  1  0  0  0  0
  4 59  1  0  0  0  0
  4 60  1  0  0  0  0
  4 61  1  0  0  0  0
  5 62  1  0  0  0  0
  6 14  1  0  0  0  0
  7 10  1  0  0  0  0
  7 63  1  0  0  0  0
  7 64  1  0  0  0  0
  8 27  1  0  0  0  0
  8 48  1  0  0  0  0
  8 65  1  0  0  0  0
  9 21  1  0  0  0  0
  9 23  1  0  0  0  0
 10 13  1  0  0  0  0
 10 66  1  0  0  0  0
 10 67  1  0  0  0  0
 11 19  1  0  0  0  0
 11 28  1  0  0  0  0
 11 68  1  0  0  0  0
 12 27  2  0  0  0  0
 13 16  2  0  0  0  0
 13 69  1  0  0  0  0
 14 44  1  0  0  0  0
 14 49  1  0  0  0  0
 15 28  2  0  0  0  0
 16 19  1  0  0  0  0
 16 70  1  0  0  0  0
 17 51  2  0  0  0  0
 17 52  1  0  0  0  0
 19 21  1  0  0  0  0
 19 71  1  1  0  0  0
 20 49  2  0  0  0  0
 22 50  1  0  0  0  0
 22 51  1  0  0  0  0
 23 25  1  0  0  0  0
 23 26  1  0  0  0  0
 23 72  1  6  0  0  0
 24 53  1  0  0  0  0
 24 73  1  0  0  0  0
 25 27  1  0  0  0  0
 25 74  1  0  0  0  0
 25 75  1  0  0  0  0
 26 76  1  0  0  0  0
 26 77  1  0  0  0  0
 26 78  1  0  0  0  0
 28 52  1  0  0  0  0
 29 30  1  0  0  0  0
 29 79  1  0  0  0  0
 29 80  1  0  0  0  0
 30 31  1  0  0  0  0
 30 81  1  0  0  0  0
 30 82  1  0  0  0  0
 31 32  1  0  0  0  0
 31 83  1  0  0  0  0
 31 84  1  0  0  0  0
 32 33  1  0  0  0  0
 32 85  1  0  0  0  0
 32 86  1  0  0  0  0
 33 34  1  0  0  0  0
 33 87  1  0  0  0  0
 33 88  1  0  0  0  0
 34 35  1  0  0  0  0
 34 89  1  0  0  0  0
 34 90  1  0  0  0  0
 35 36  1  0  0  0  0
 35 91  1  0  0  0  0
 35 92  1  0  0  0  0
 36 37  1  0  0  0  0
 36 93  1  0  0  0  0
 36 94  1  0  0  0  0
 37 38  1  0  0  0  0
 37 95  1  0  0  0  0
 37 96  1  0  0  0  0
 38 39  1  0  0  0  0
 38 97  1  0  0  0  0
 38 98  1  0  0  0  0
 39 40  1  0  0  0  0
 39 99  1  0  0  0  0
 39100  1  0  0  0  0
 40 41  1  0  0  0  0
 40101  1  0  0  0  0
 40102  1  0  0  0  0
 41 42  1  0  0  0  0
 41103  1  0  0  0  0
 41104  1  0  0  0  0
 42 43  1  0  0  0  0
 42105  1  0  0  0  0
 42106  1  0  0  0  0
 43107  1  0  0  0  0
 43108  1  0  0  0  0
 43109  1  0  0  0  0
 44 45  1  0  0  0  0
 44110  1  0  0  0  0
 44111  1  0  0  0  0
 45 46  1  0  0  0  0
 45112  1  0  0  0  0
 45113  1  0  0  0  0
 46 47  1  0  0  0  0
 46114  1  0  0  0  0
 46115  1  0  0  0  0
 47 48  1  0  0  0  0
 47116  1  0  0  0  0
 47117  1  0  0  0  0
 48 49  1  0  0  0  0
 48118  1  6  0  0  0
 50 52  1  0  0  0  0
 50119  1  0  0  0  0
 50120  1  0  0  0  0
 51 58  1  0  0  0  0
 52121  1  6  0  0  0
 53 54  2  0  0  0  0
 53 58  1  0  0  0  0
 54 55  1  0  0  0  0
 54122  1  0  0  0  0
 55 56  2  0  0  0  0
 55123  1  0  0  0  0
 56 57  1  0  0  0  0
 56124  1  0  0  0  0
 57 58  2  0  0  0  0
 57125  1  0  0  0  0
M  END
$$$$
/media/chris/experiments/cd1a-new-docking/inputs/ligands/1xz0_ligand.pdb
 OpenBabel07022319323D

125127  0  0  1  0  0  0  0  0999 V2000
  -38.7199   58.6964   57.8395 N   0  0  0  0  0  0  0  0  0  0  0  0
  -38.6237   58.6922   56.4836 C   0  0  0  0  0  0  0  0  0  0  0  0
  -34.9015   57.3291   63.0745 O   0  0  0  0  0  0  0  0  0  0  0  0
  -35.3037   53.1293   69.5267 Si  0  0  0  0  0  0  0  0  0  0  0  0
  -39.9171   59.1727   58.3922 O   0  0  0  0  0  0  0  0  0  0  0  0
  -35.8422   52.9282   67.8340 O   0  0  0  0  0  0  0  0  0  0  0  0
  -37.7348   58.2656   58.8364 C   0  0  0  0  0  0  0  0  0  0  0  0
  -34.1333   55.7506   64.8395 N   0  0  0  0  0  0  0  0  0  0  0  0
  -34.3234   59.2293   64.2555 O   0  0  0  0  0  0  0  0  0  0  0  0
  -37.9322   59.1139   60.1095 C   0  0  0  0  0  0  0  0  0  0  0  0
  -36.8950   59.8150   64.6310 N   0  0  0  0  0  0  0  0  0  0  0  0
  -33.1497   56.3711   62.8997 O   0  0  0  0  0  0  0  0  0  0  0  0
  -36.9889   58.8455   61.2943 C   0  0  0  0  0  0  0  0  0  0  0  0
  -35.5952   53.8984   66.9100 N   0  0  0  0  0  0  0  0  0  0  0  0
  -39.0190   60.4929   64.1818 O   0  0  0  0  0  0  0  0  0  0  0  0
  -37.6390   58.4030   62.6110 C   0  0  0  0  0  0  0  0  0  0  0  0
  -36.6761   62.7997   64.8481 N   0  0  0  0  0  0  0  0  0  0  0  0
  -39.5503   59.0904   55.7780 O   0  0  0  0  0  0  0  0  0  0  0  0
  -36.7890   58.5530   63.8960 C   0  0  1  0  0  0  0  0  0  0  0  0
  -33.6051   54.3248   67.8707 O   0  0  0  0  0  0  0  0  0  0  0  0
  -35.3080   58.3090   63.6770 C   0  0  0  0  0  0  0  0  0  0  0  0
  -36.0644   62.7402   66.9961 O   0  0  0  0  0  0  0  0  0  0  0  0
  -32.9090   58.9936   64.1228 C   0  0  1  0  0  0  0  0  0  0  0  0
  -33.7854   64.1167   67.5367 O   0  0  0  0  0  0  0  0  0  0  0  0
  -32.5863   57.6467   64.7522 C   0  0  0  0  0  0  0  0  0  0  0  0
  -32.3861   59.0720   62.6938 C   0  0  0  0  0  0  0  0  0  0  0  0
  -33.3053   56.4958   64.0929 C   0  0  0  0  0  0  0  0  0  0  0  0
  -37.9361   60.6601   64.7271 C   0  0  0  0  0  0  0  0  0  0  0  0
  -37.3366   58.1747   55.8329 C   0  0  0  0  0  0  0  0  0  0  0  0
  -36.0716   58.3754   56.6786 C   0  0  0  0  0  0  0  0  0  0  0  0
  -34.8406   57.8373   55.9241 C   0  0  0  0  0  0  0  0  0  0  0  0
  -33.5245   57.9836   56.7112 C   0  0  0  0  0  0  0  0  0  0  0  0
  -33.4944   57.2329   58.0557 C   0  0  0  0  0  0  0  0  0  0  0  0
  -33.6774   55.7090   57.8964 C   0  0  0  0  0  0  0  0  0  0  0  0
  -35.0029   55.2891   57.2193 C   0  0  0  0  0  0  0  0  0  0  0  0
  -35.1670   53.7705   57.0890 C   0  0  0  0  0  0  0  0  0  0  0  0
  -36.4586   53.3066   56.4083 C   0  0  0  0  0  0  0  0  0  0  0  0
  -37.7025   53.8013   57.1689 C   0  0  0  0  0  0  0  0  0  0  0  0
  -39.0329   53.3538   56.5445 C   0  0  0  0  0  0  0  0  0  0  0  0
  -40.2993   53.8373   57.2587 C   0  0  0  0  0  0  0  0  0  0  0  0
  -41.6198   53.3519   56.6103 C   0  0  0  0  0  0  0  0  0  0  0  0
  -42.8516   53.8882   57.3675 C   0  0  0  0  0  0  0  0  0  0  0  0
  -42.9810   53.5123   58.8485 C   0  0  0  0  0  0  0  0  0  0  0  0
  -36.5660   54.0419   65.8151 C   0  0  0  0  0  0  0  0  0  0  0  0
  -37.3398   55.3677   65.9430 C   0  0  0  0  0  0  0  0  0  0  0  0
  -36.8355   56.3118   67.0220 C   0  0  0  0  0  0  0  0  0  0  0  0
  -35.4462   56.8793   66.7191 C   0  0  0  0  0  0  0  0  0  0  0  0
  -34.3291   55.9160   66.2843 C   0  0  1  0  0  0  0  0  0  0  0  0
  -34.4826   54.6317   67.0754 C   0  0  0  0  0  0  0  0  0  0  0  0
  -37.2467   61.9422   66.9529 C   0  0  0  0  0  0  0  0  0  0  0  0
  -35.7935   63.2028   65.6580 C   0  0  0  0  0  0  0  0  0  0  0  0
  -37.7224   61.9689   65.4738 C   0  0  1  0  0  0  0  0  0  0  0  0
  -33.6889   64.4926   66.2556 C   0  0  0  0  0  0  0  0  0  0  0  0
  -32.6185   65.3001   65.8494 C   0  0  0  0  0  0  0  0  0  0  0  0
  -32.4999   65.7159   64.5125 C   0  0  0  0  0  0  0  0  0  0  0  0
  -33.4451   65.3205   63.5644 C   0  0  0  0  0  0  0  0  0  0  0  0
  -34.5113   64.5097   63.9633 C   0  0  0  0  0  0  0  0  0  0  0  0
  -34.6376   64.0986   65.3041 C   0  0  0  0  0  0  0  0  0  0  0  0
  -35.6803   51.9873   70.2820 H   0  0  0  0  0  0  0  0  0  0  0  0
  -35.9117   54.2859   70.0826 H   0  0  0  0  0  0  0  0  0  0  0  0
  -33.8916   53.2743   69.5602 H   0  0  0  0  0  0  0  0  0  0  0  0
  -40.5190   59.4386   57.6794 H   0  0  0  0  0  0  0  0  0  0  0  0
  -36.7460   58.4110   58.4543 H   0  0  0  0  0  0  0  0  0  0  0  0
  -37.8665   57.2277   59.0606 H   0  0  0  0  0  0  0  0  0  0  0  0
  -34.6458   55.0427   64.3864 H   0  0  0  0  0  0  0  0  0  0  0  0
  -38.9324   58.9496   60.4524 H   0  0  0  0  0  0  0  0  0  0  0  0
  -37.7114   60.1161   59.8066 H   0  0  0  0  0  0  0  0  0  0  0  0
  -36.0875   60.0833   65.1262 H   0  0  0  0  0  0  0  0  0  0  0  0
  -35.9667   58.9578   61.2074 H   0  0  0  0  0  0  0  0  0  0  0  0
  -38.5981   58.0231   62.6390 H   0  0  0  0  0  0  0  0  0  0  0  0
  -37.2383   57.7881   64.4943 H   0  0  0  0  0  0  0  0  0  0  0  0
  -32.4039   59.7865   64.6338 H   0  0  0  0  0  0  0  0  0  0  0  0
  -33.1385   64.3925   68.1559 H   0  0  0  0  0  0  0  0  0  0  0  0
  -32.8676   57.6773   65.7841 H   0  0  0  0  0  0  0  0  0  0  0  0
  -31.5368   57.4801   64.6269 H   0  0  0  0  0  0  0  0  0  0  0  0
  -32.8437   58.3054   62.1040 H   0  0  0  0  0  0  0  0  0  0  0  0
  -31.3248   58.9358   62.6944 H   0  0  0  0  0  0  0  0  0  0  0  0
  -32.6225   60.0297   62.2795 H   0  0  0  0  0  0  0  0  0  0  0  0
  -37.2022   58.6875   54.9035 H   0  0  0  0  0  0  0  0  0  0  0  0
  -37.4589   57.1184   55.7136 H   0  0  0  0  0  0  0  0  0  0  0  0
  -36.1775   57.8492   57.6042 H   0  0  0  0  0  0  0  0  0  0  0  0
  -35.9382   59.4201   56.8673 H   0  0  0  0  0  0  0  0  0  0  0  0
  -34.7461   58.3746   55.0036 H   0  0  0  0  0  0  0  0  0  0  0  0
  -34.9995   56.7906   55.7689 H   0  0  0  0  0  0  0  0  0  0  0  0
  -33.3661   59.0237   56.9062 H   0  0  0  0  0  0  0  0  0  0  0  0
  -32.7582   57.5488   56.1040 H   0  0  0  0  0  0  0  0  0  0  0  0
  -34.2824   57.6086   58.6743 H   0  0  0  0  0  0  0  0  0  0  0  0
  -32.5320   57.3968   58.4936 H   0  0  0  0  0  0  0  0  0  0  0  0
  -33.6439   55.2649   58.8693 H   0  0  0  0  0  0  0  0  0  0  0  0
  -32.8889   55.3733   57.2557 H   0  0  0  0  0  0  0  0  0  0  0  0
  -35.0341   55.7187   56.2398 H   0  0  0  0  0  0  0  0  0  0  0  0
  -35.7997   55.6403   57.8411 H   0  0  0  0  0  0  0  0  0  0  0  0
  -35.1424   53.3499   58.0726 H   0  0  0  0  0  0  0  0  0  0  0  0
  -34.3666   53.4396   56.4606 H   0  0  0  0  0  0  0  0  0  0  0  0
  -36.4716   52.2371   56.3779 H   0  0  0  0  0  0  0  0  0  0  0  0
  -36.4838   53.7146   55.4195 H   0  0  0  0  0  0  0  0  0  0  0  0
  -37.6823   54.8710   57.1880 H   0  0  0  0  0  0  0  0  0  0  0  0
  -37.6590   53.3719   58.1480 H   0  0  0  0  0  0  0  0  0  0  0  0
  -39.0485   52.2840   56.5363 H   0  0  0  0  0  0  0  0  0  0  0  0
  -39.0609   53.7964   55.5707 H   0  0  0  0  0  0  0  0  0  0  0  0
  -40.2980   54.9073   57.2563 H   0  0  0  0  0  0  0  0  0  0  0  0
  -40.2719   53.4243   58.2455 H   0  0  0  0  0  0  0  0  0  0  0  0
  -41.6415   52.2822   56.6244 H   0  0  0  0  0  0  0  0  0  0  0  0
  -41.6561   53.7204   55.6064 H   0  0  0  0  0  0  0  0  0  0  0  0
  -43.7228   53.5227   56.8651 H   0  0  0  0  0  0  0  0  0  0  0  0
  -42.7380   54.9521   57.3614 H   0  0  0  0  0  0  0  0  0  0  0  0
  -43.0992   52.4527   58.9385 H   0  0  0  0  0  0  0  0  0  0  0  0
  -43.8342   54.0033   59.2678 H   0  0  0  0  0  0  0  0  0  0  0  0
  -42.0998   53.8187   59.3725 H   0  0  0  0  0  0  0  0  0  0  0  0
  -37.2581   53.2266   65.8503 H   0  0  0  0  0  0  0  0  0  0  0  0
  -36.0376   54.0407   64.8847 H   0  0  0  0  0  0  0  0  0  0  0  0
  -38.3616   55.1347   66.1587 H   0  0  0  0  0  0  0  0  0  0  0  0
  -37.2043   55.8806   65.0138 H   0  0  0  0  0  0  0  0  0  0  0  0
  -36.7912   55.7782   67.9484 H   0  0  0  0  0  0  0  0  0  0  0  0
  -37.5150   57.1370   67.0682 H   0  0  0  0  0  0  0  0  0  0  0  0
  -35.1080   57.3723   67.6065 H   0  0  0  0  0  0  0  0  0  0  0  0
  -35.6020   57.4981   65.8602 H   0  0  0  0  0  0  0  0  0  0  0  0
  -33.3900   56.3670   66.5281 H   0  0  0  0  0  0  0  0  0  0  0  0
  -37.9981   62.3547   67.5933 H   0  0  0  0  0  0  0  0  0  0  0  0
  -37.0600   60.9435   67.2883 H   0  0  0  0  0  0  0  0  0  0  0  0
  -38.7287   62.3301   65.4312 H   0  0  0  0  0  0  0  0  0  0  0  0
  -31.9093   65.5928   66.5397 H   0  0  0  0  0  0  0  0  0  0  0  0
  -31.7098   66.3168   64.2300 H   0  0  0  0  0  0  0  0  0  0  0  0
  -33.3577   65.6230   62.5816 H   0  0  0  0  0  0  0  0  0  0  0  0
  -35.2127   64.2093   63.2685 H   0  0  0  0  0  0  0  0  0  0  0  0
  1  2  1  0  0  0  0
  1  5  1  0  0  0  0
  1  7  1  0  0  0  0
  2 18  2  0  0  0  0
  2 29  1  0  0  0  0
  3 21  2  0  0  0  0
  4  6  1  0  0  0  0
  4 59  1  0  0  0  0
  4 60  1  0  0  0  0
  4 61  1  0  0  0  0
  5 62  1  0  0  0  0
  6 14  1  0  0  0  0
  7 10  1  0  0  0  0
  7 63  1  0  0  0  0
  7 64  1  0  0  0  0
  8 27  1  0  0  0  0
  8 48  1  0  0  0  0
  8 65  1  0  0  0  0
  9 21  1  0  0  0  0
  9 23  1  0  0  0  0
 10 13  1  0  0  0  0
 10 66  1  0  0  0  0
 10 67  1  0  0  0  0
 11 19  1  0  0  0  0
 11 28  1  0  0  0  0
 11 68  1  0  0  0  0
 12 27  2  0  0  0  0
 13 16  2  0  0  0  0
 13 69  1  0  0  0  0
 14 44  1  0  0  0  0
 14 49  1  0  0  0  0
 15 28  2  0  0  0  0
 16 19  1  0  0  0  0
 16 70  1  0  0  0  0
 17 51  2  0  0  0  0
 17 52  1  0  0  0  0
 19 21  1  0  0  0  0
 19 71  1  1  0  0  0
 20 49  2  0  0  0  0
 22 50  1  0  0  0  0
 22 51  1  0  0  0  0
 23 25  1  0  0  0  0
 23 26  1  0  0  0  0
 23 72  1  1  0  0  0
 24 53  1  0  0  0  0
 24 73  1  0  0  0  0
 25 27  1  0  0  0  0
 25 74  1  0  0  0  0
 25 75  1  0  0  0  0
 26 76  1  0  0  0  0
 26 77  1  0  0  0  0
 26 78  1  0  0  0  0
 28 52  1  0  0  0  0
 29 30  1  0  0  0  0
 29 79  1  0  0  0  0
 29 80  1  0  0  0  0
 30 31  1  0  0  0  0
 30 81  1  0  0  0  0
 30 82  1  0  0  0  0
 31 32  1  0  0  0  0
 31 83  1  0  0  0  0
 31 84  1  0  0  0  0
 32 33  1  0  0  0  0
 32 85  1  0  0  0  0
 32 86  1  0  0  0  0
 33 34  1  0  0  0  0
 33 87  1  0  0  0  0
 33 88  1  0  0  0  0
 34 35  1  0  0  0  0
 34 89  1  0  0  0  0
 34 90  1  0  0  0  0
 35 36  1  0  0  0  0
 35 91  1  0  0  0  0
 35 92  1  0  0  0  0
 36 37  1  0  0  0  0
 36 93  1  0  0  0  0
 36 94  1  0  0  0  0
 37 38  1  0  0  0  0
 37 95  1  0  0  0  0
 37 96  1  0  0  0  0
 38 39  1  0  0  0  0
 38 97  1  0  0  0  0
 38 98  1  0  0  0  0
 39 40  1  0  0  0  0
 39 99  1  0  0  0  0
 39100  1  0  0  0  0
 40 41  1  0  0  0  0
 40101  1  0  0  0  0
 40102  1  0  0  0  0
 41 42  1  0  0  0  0
 41103  1  0  0  0  0
 41104  1  0  0  0  0
 42 43  1  0  0  0  0
 42105  1  0  0  0  0
 42106  1  0  0  0  0
 43107  1  0  0  0  0
 43108  1  0  0  0  0
 43109  1  0  0  0  0
 44 45  1  0  0  0  0
 44110  1  0  0  0  0
 44111  1  0  0  0  0
 45 46  1  0  0  0  0
 45112  1  0  0  0  0
 45113  1  0  0  0  0
 46 47  1  0  0  0  0
 46114  1  0  0  0  0
 46115  1  0  0  0  0
 47 48  1  0  0  0  0
 47116  1  0  0  0  0
 47117  1  0  0  0  0
 48 49  1  0  0  0  0
 48118  1  1  0  0  0
 50 52  1  0  0  0  0
 50119  1  0  0  0  0
 50120  1  0  0  0  0
 51 58  1  0  0  0  0
 52121  1  6  0  0  0
 53 54  2  0  0  0  0
 53 58  1  0  0  0  0
 54 55  1  0  0  0  0
 54122  1  0  0  0  0
 55 56  2  0  0  0  0
 55123  1  0  0  0  0
 56 57  1  0  0  0  0
 56124  1  0  0  0  0
 57 58  2  0  0  0  0
 57125  1  0  0  0  0
M  END
$$$$
/media/chris/experiments/cd1a-new-docking/inputs/ligands/1xz0_ligand.pdb
 OpenBabel07022319323D

125127  0  0  1  0  0  0  0  0999 V2000
  -40.5920   59.1775   58.9812 N   0  0  0  0  0  0  0  0  0  0  0  0
  -40.8163   58.2143   58.0488 C   0  0  0  0  0  0  0  0  0  0  0  0
  -34.6358   57.6816   64.4788 O   0  0  0  0  0  0  0  0  0  0  0  0
  -39.5523   62.1846   61.4790 Si  0  0  0  0  0  0  0  0  0  0  0  0
  -41.6647   60.0243   59.2938 O   0  0  0  0  0  0  0  0  0  0  0  0
  -38.2131   62.8280   62.4731 O   0  0  0  0  0  0  0  0  0  0  0  0
  -39.3654   59.4709   59.7291 C   0  0  0  0  0  0  0  0  0  0  0  0
  -33.7957   62.2764   62.2843 N   0  0  0  0  0  0  0  0  0  0  0  0
  -34.6370   58.8922   62.5105 O   0  0  0  0  0  0  0  0  0  0  0  0
  -39.6678   59.3173   61.2339 C   0  0  0  0  0  0  0  0  0  0  0  0
  -36.8950   59.8150   64.6310 N   0  0  0  0  0  0  0  0  0  0  0  0
  -34.8515   61.7950   64.2257 O   0  0  0  0  0  0  0  0  0  0  0  0
  -38.5208   59.5953   62.2201 C   0  0  0  0  0  0  0  0  0  0  0  0
  -36.9179   62.5691   62.1392 N   0  0  0  0  0  0  0  0  0  0  0  0
  -35.4578   59.5184   66.3686 O   0  0  0  0  0  0  0  0  0  0  0  0
  -37.6390   58.4030   62.6110 C   0  0  0  0  0  0  0  0  0  0  0  0
  -37.7528   61.3983   67.3461 N   0  0  0  0  0  0  0  0  0  0  0  0
  -41.9149   58.0961   57.5066 O   0  0  0  0  0  0  0  0  0  0  0  0
  -36.7890   58.5530   63.8960 C   0  0  1  0  0  0  0  0  0  0  0  0
  -36.2497   64.4067   63.2538 O   0  0  0  0  0  0  0  0  0  0  0  0
  -35.3080   58.3090   63.6770 C   0  0  0  0  0  0  0  0  0  0  0  0
  -38.4750   63.0361   66.0090 O   0  0  0  0  0  0  0  0  0  0  0  0
  -33.2588   59.3059   62.5681 C   0  0  1  0  0  0  0  0  0  0  0  0
  -39.8645   59.9912   68.6495 O   0  0  0  0  0  0  0  0  0  0  0  0
  -33.1203   60.3623   63.6540 C   0  0  0  0  0  0  0  0  0  0  0  0
  -32.2655   58.1695   62.7768 C   0  0  0  0  0  0  0  0  0  0  0  0
  -33.9818   61.5773   63.4134 C   0  0  0  0  0  0  0  0  0  0  0  0
  -36.2648   60.2028   65.7534 C   0  0  0  0  0  0  0  0  0  0  0  0
  -39.6757   57.2604   57.6784 C   0  0  0  0  0  0  0  0  0  0  0  0
  -39.1482   56.4164   58.8467 C   0  0  0  0  0  0  0  0  0  0  0  0
  -37.9975   55.5108   58.3673 C   0  0  0  0  0  0  0  0  0  0  0  0
  -36.7914   56.2913   57.8111 C   0  0  0  0  0  0  0  0  0  0  0  0
  -36.1212   57.2414   58.8212 C   0  0  0  0  0  0  0  0  0  0  0  0
  -34.9300   58.0151   58.2182 C   0  0  0  0  0  0  0  0  0  0  0  0
  -34.2179   58.9683   59.2061 C   0  0  0  0  0  0  0  0  0  0  0  0
  -33.0498   59.7368   58.5774 C   0  0  0  0  0  0  0  0  0  0  0  0
  -33.4207   60.6467   57.4020 C   0  0  0  0  0  0  0  0  0  0  0  0
  -34.4234   61.7342   57.8289 C   0  0  0  0  0  0  0  0  0  0  0  0
  -34.8492   62.6709   56.6882 C   0  0  0  0  0  0  0  0  0  0  0  0
  -35.5487   61.9997   55.5017 C   0  0  0  0  0  0  0  0  0  0  0  0
  -35.9473   62.9732   54.3646 C   0  0  0  0  0  0  0  0  0  0  0  0
  -34.7133   63.6778   53.7655 C   0  0  0  0  0  0  0  0  0  0  0  0
  -33.8561   64.5189   54.7189 C   0  0  0  0  0  0  0  0  0  0  0  0
  -36.6475   61.3039   61.4407 C   0  0  0  0  0  0  0  0  0  0  0  0
  -36.2159   61.5661   59.9855 C   0  0  0  0  0  0  0  0  0  0  0  0
  -35.9819   63.0253   59.6311 C   0  0  0  0  0  0  0  0  0  0  0  0
  -34.7706   63.6285   60.3473 C   0  0  0  0  0  0  0  0  0  0  0  0
  -34.6212   63.4139   61.8627 C   0  0  1  0  0  0  0  0  0  0  0  0
  -36.0016   63.4875   62.4855 C   0  0  0  0  0  0  0  0  0  0  0  0
  -37.2130   62.6693   65.4528 C   0  0  0  0  0  0  0  0  0  0  0  0
  -38.7181   62.1905   67.1508 C   0  0  0  0  0  0  0  0  0  0  0  0
  -36.6602   61.5392   66.3649 C   0  0  1  0  0  0  0  0  0  0  0  0
  -40.4382   61.1976   68.7337 C   0  0  0  0  0  0  0  0  0  0  0  0
  -41.5623   61.3745   69.5510 C   0  0  0  0  0  0  0  0  0  0  0  0
  -42.1883   62.6286   69.6491 C   0  0  0  0  0  0  0  0  0  0  0  0
  -41.6912   63.7226   68.9387 C   0  0  0  0  0  0  0  0  0  0  0  0
  -40.5662   63.5528   68.1269 C   0  0  0  0  0  0  0  0  0  0  0  0
  -39.9420   62.2952   68.0197 C   0  0  0  0  0  0  0  0  0  0  0  0
  -40.7933   62.5933   62.0351 H   0  0  0  0  0  0  0  0  0  0  0  0
  -39.4872   60.7663   61.4581 H   0  0  0  0  0  0  0  0  0  0  0  0
  -39.4403   62.6832   60.1541 H   0  0  0  0  0  0  0  0  0  0  0  0
  -42.4386   59.7744   58.7651 H   0  0  0  0  0  0  0  0  0  0  0  0
  -39.0472   60.4717   59.5242 H   0  0  0  0  0  0  0  0  0  0  0  0
  -38.5864   58.7973   59.4388 H   0  0  0  0  0  0  0  0  0  0  0  0
  -33.0529   62.0075   61.6968 H   0  0  0  0  0  0  0  0  0  0  0  0
  -39.9919   58.3104   61.3946 H   0  0  0  0  0  0  0  0  0  0  0  0
  -40.3971   60.0716   61.4440 H   0  0  0  0  0  0  0  0  0  0  0  0
  -37.5175   60.4746   64.2480 H   0  0  0  0  0  0  0  0  0  0  0  0
  -38.3525   60.5396   62.6009 H   0  0  0  0  0  0  0  0  0  0  0  0
  -37.6135   57.5411   62.0440 H   0  0  0  0  0  0  0  0  0  0  0  0
  -37.2383   57.7881   64.4943 H   0  0  0  0  0  0  0  0  0  0  0  0
  -33.0055   59.7065   61.6088 H   0  0  0  0  0  0  0  0  0  0  0  0
  -40.2141   59.2711   69.1365 H   0  0  0  0  0  0  0  0  0  0  0  0
  -32.0975   60.6736   63.6973 H   0  0  0  0  0  0  0  0  0  0  0  0
  -33.4443   59.9191   64.5724 H   0  0  0  0  0  0  0  0  0  0  0  0
  -32.4477   57.7060   63.7239 H   0  0  0  0  0  0  0  0  0  0  0  0
  -31.2689   58.5585   62.7559 H   0  0  0  0  0  0  0  0  0  0  0  0
  -32.3824   57.4459   61.9972 H   0  0  0  0  0  0  0  0  0  0  0  0
  -38.8646   57.8426   57.2936 H   0  0  0  0  0  0  0  0  0  0  0  0
  -40.0739   56.5732   56.9615 H   0  0  0  0  0  0  0  0  0  0  0  0
  -39.9408   55.8085   59.2305 H   0  0  0  0  0  0  0  0  0  0  0  0
  -38.7853   57.0678   59.6140 H   0  0  0  0  0  0  0  0  0  0  0  0
  -38.3702   54.8692   57.5963 H   0  0  0  0  0  0  0  0  0  0  0  0
  -37.6520   54.9635   59.2194 H   0  0  0  0  0  0  0  0  0  0  0  0
  -37.1259   56.8727   56.9774 H   0  0  0  0  0  0  0  0  0  0  0  0
  -36.0546   55.5622   57.5458 H   0  0  0  0  0  0  0  0  0  0  0  0
  -35.7690   56.6645   59.6507 H   0  0  0  0  0  0  0  0  0  0  0  0
  -36.8540   57.9616   59.1198 H   0  0  0  0  0  0  0  0  0  0  0  0
  -35.2910   58.5957   57.3951 H   0  0  0  0  0  0  0  0  0  0  0  0
  -34.2067   57.2819   57.9281 H   0  0  0  0  0  0  0  0  0  0  0  0
  -33.8420   58.3898   60.0240 H   0  0  0  0  0  0  0  0  0  0  0  0
  -34.9395   59.6932   59.5206 H   0  0  0  0  0  0  0  0  0  0  0  0
  -32.3337   59.0223   58.2289 H   0  0  0  0  0  0  0  0  0  0  0  0
  -32.6742   60.3823   59.3436 H   0  0  0  0  0  0  0  0  0  0  0  0
  -33.8595   60.0533   56.6272 H   0  0  0  0  0  0  0  0  0  0  0  0
  -32.5303   61.1272   57.0537 H   0  0  0  0  0  0  0  0  0  0  0  0
  -33.9725   62.3245   58.5990 H   0  0  0  0  0  0  0  0  0  0  0  0
  -35.3061   61.2293   58.1619 H   0  0  0  0  0  0  0  0  0  0  0  0
  -33.9715   63.1588   56.3189 H   0  0  0  0  0  0  0  0  0  0  0  0
  -35.5708   63.3372   57.1127 H   0  0  0  0  0  0  0  0  0  0  0  0
  -36.4365   61.5231   55.8617 H   0  0  0  0  0  0  0  0  0  0  0  0
  -34.8474   61.3087   55.0826 H   0  0  0  0  0  0  0  0  0  0  0  0
  -36.6133   63.7128   54.7575 H   0  0  0  0  0  0  0  0  0  0  0  0
  -36.4206   62.4079   53.5891 H   0  0  0  0  0  0  0  0  0  0  0  0
  -35.0585   64.3252   52.9867 H   0  0  0  0  0  0  0  0  0  0  0  0
  -34.0713   62.8845   53.4439 H   0  0  0  0  0  0  0  0  0  0  0  0
  -34.4339   65.3408   55.0869 H   0  0  0  0  0  0  0  0  0  0  0  0
  -33.0003   64.8907   54.1952 H   0  0  0  0  0  0  0  0  0  0  0  0
  -33.5359   63.9121   55.5400 H   0  0  0  0  0  0  0  0  0  0  0  0
  -37.5347   60.7057   61.4415 H   0  0  0  0  0  0  0  0  0  0  0  0
  -35.8551   60.7939   61.9477 H   0  0  0  0  0  0  0  0  0  0  0  0
  -36.9811   61.1877   59.3403 H   0  0  0  0  0  0  0  0  0  0  0  0
  -35.2722   61.0767   59.8637 H   0  0  0  0  0  0  0  0  0  0  0  0
  -36.8521   63.5858   59.9022 H   0  0  0  0  0  0  0  0  0  0  0  0
  -35.7879   63.0721   58.5798 H   0  0  0  0  0  0  0  0  0  0  0  0
  -34.8015   64.6850   60.1811 H   0  0  0  0  0  0  0  0  0  0  0  0
  -33.9366   63.1046   59.9292 H   0  0  0  0  0  0  0  0  0  0  0  0
  -34.0191   64.2084   62.2514 H   0  0  0  0  0  0  0  0  0  0  0  0
  -36.5479   63.5074   65.4535 H   0  0  0  0  0  0  0  0  0  0  0  0
  -37.3097   62.3442   64.4380 H   0  0  0  0  0  0  0  0  0  0  0  0
  -35.6979   61.8225   66.7371 H   0  0  0  0  0  0  0  0  0  0  0  0
  -41.9346   60.5750   70.0869 H   0  0  0  0  0  0  0  0  0  0  0  0
  -43.0200   62.7416   70.2496 H   0  0  0  0  0  0  0  0  0  0  0  0
  -42.1485   64.6449   69.0119 H   0  0  0  0  0  0  0  0  0  0  0  0
  -40.1894   64.3568   67.6009 H   0  0  0  0  0  0  0  0  0  0  0  0
  1  2  1  0  0  0  0
  1  5  1  0  0  0  0
  1  7  1  0  0  0  0
  2 18  2  0  0  0  0
  2 29  1  0  0  0  0
  3 21  2  0  0  0  0
  4  6  1  0  0  0  0
  4 59  1  0  0  0  0
  4 60  1  0  0  0  0
  4 61  1  0  0  0  0
  5 62  1  0  0  0  0
  6 14  1  0  0  0  0
  7 10  1  0  0  0  0
  7 63  1  0  0  0  0
  7 64  1  0  0  0  0
  8 27  1  0  0  0  0
  8 48  1  0  0  0  0
  8 65  1  0  0  0  0
  9 21  1  0  0  0  0
  9 23  1  0  0  0  0
 10 13  1  0  0  0  0
 10 66  1  0  0  0  0
 10 67  1  0  0  0  0
 11 19  1  0  0  0  0
 11 28  1  0  0  0  0
 11 68  1  0  0  0  0
 12 27  2  0  0  0  0
 13 16  2  0  0  0  0
 13 69  1  0  0  0  0
 14 44  1  0  0  0  0
 14 49  1  0  0  0  0
 15 28  2  0  0  0  0
 16 19  1  0  0  0  0
 16 70  1  0  0  0  0
 17 51  2  0  0  0  0
 17 52  1  0  0  0  0
 19 21  1  0  0  0  0
 19 71  1  1  0  0  0
 20 49  2  0  0  0  0
 22 50  1  0  0  0  0
 22 51  1  0  0  0  0
 23 25  1  0  0  0  0
 23 26  1  0  0  0  0
 23 72  1  6  0  0  0
 24 53  1  0  0  0  0
 24 73  1  0  0  0  0
 25 27  1  0  0  0  0
 25 74  1  0  0  0  0
 25 75  1  0  0  0  0
 26 76  1  0  0  0  0
 26 77  1  0  0  0  0
 26 78  1  0  0  0  0
 28 52  1  0  0  0  0
 29 30  1  0  0  0  0
 29 79  1  0  0  0  0
 29 80  1  0  0  0  0
 30 31  1  0  0  0  0
 30 81  1  0  0  0  0
 30 82  1  0  0  0  0
 31 32  1  0  0  0  0
 31 83  1  0  0  0  0
 31 84  1  0  0  0  0
 32 33  1  0  0  0  0
 32 85  1  0  0  0  0
 32 86  1  0  0  0  0
 33 34  1  0  0  0  0
 33 87  1  0  0  0  0
 33 88  1  0  0  0  0
 34 35  1  0  0  0  0
 34 89  1  0  0  0  0
 34 90  1  0  0  0  0
 35 36  1  0  0  0  0
 35 91  1  0  0  0  0
 35 92  1  0  0  0  0
 36 37  1  0  0  0  0
 36 93  1  0  0  0  0
 36 94  1  0  0  0  0
 37 38  1  0  0  0  0
 37 95  1  0  0  0  0
 37 96  1  0  0  0  0
 38 39  1  0  0  0  0
 38 97  1  0  0  0  0
 38 98  1  0  0  0  0
 39 40  1  0  0  0  0
 39 99  1  0  0  0  0
 39100  1  0  0  0  0
 40 41  1  0  0  0  0
 40101  1  0  0  0  0
 40102  1  0  0  0  0
 41 42  1  0  0  0  0
 41103  1  0  0  0  0
 41104  1  0  0  0  0
 42 43  1  0  0  0  0
 42105  1  0  0  0  0
 42106  1  0  0  0  0
 43107  1  0  0  0  0
 43108  1  0  0  0  0
 43109  1  0  0  0  0
 44 45  1  0  0  0  0
 44110  1  0  0  0  0
 44111  1  0  0  0  0
 45 46  1  0  0  0  0
 45112  1  0  0  0  0
 45113  1  0  0  0  0
 46 47  1  0  0  0  0
 46114  1  0  0  0  0
 46115  1  0  0  0  0
 47 48  1  0  0  0  0
 47116  1  0  0  0  0
 47117  1  0  0  0  0
 48 49  1  0  0  0  0
 48118  1  1  0  0  0
 50 52  1  0  0  0  0
 50119  1  0  0  0  0
 50120  1  0  0  0  0
 51 58  1  0  0  0  0
 52121  1  1  0  0  0
 53 54  2  0  0  0  0
 53 58  1  0  0  0  0
 54 55  1  0  0  0  0
 54122  1  0  0  0  0
 55 56  2  0  0  0  0
 55123  1  0  0  0  0
 56 57  1  0  0  0  0
 56124  1  0  0  0  0
 57 58  2  0  0  0  0
 57125  1  0  0  0  0
M  END
$$$$
/media/chris/experiments/cd1a-new-docking/inputs/ligands/1xz0_ligand.pdb
 OpenBabel07022319323D

125127  0  0  1  0  0  0  0  0999 V2000
  -40.1047   57.2451   59.0990 N   0  0  0  0  0  0  0  0  0  0  0  0
  -39.6492   56.5633   58.0149 C   0  0  0  0  0  0  0  0  0  0  0  0
  -34.8323   58.2135   62.5576 O   0  0  0  0  0  0  0  0  0  0  0  0
  -35.9625   56.7093   60.5057 Si  0  0  0  0  0  0  0  0  0  0  0  0
  -41.4948   57.3437   59.2522 O   0  0  0  0  0  0  0  0  0  0  0  0
  -34.2145   57.0556   60.3631 O   0  0  0  0  0  0  0  0  0  0  0  0
  -39.3411   57.9092   60.1600 C   0  0  0  0  0  0  0  0  0  0  0  0
  -31.1400   55.0962   62.9245 N   0  0  0  0  0  0  0  0  0  0  0  0
  -34.4223   58.1136   64.8296 O   0  0  0  0  0  0  0  0  0  0  0  0
  -39.7171   57.2580   61.5068 C   0  0  0  0  0  0  0  0  0  0  0  0
  -36.8950   59.8150   64.6310 N   0  0  0  0  0  0  0  0  0  0  0  0
  -32.1234   54.7317   64.9284 O   0  0  0  0  0  0  0  0  0  0  0  0
  -39.0441   57.8107   62.7746 C   0  0  0  0  0  0  0  0  0  0  0  0
  -33.2973   56.2367   60.9497 N   0  0  0  0  0  0  0  0  0  0  0  0
  -37.2193   62.0537   64.8677 O   0  0  0  0  0  0  0  0  0  0  0  0
  -37.6390   58.4030   62.6110 C   0  0  0  0  0  0  0  0  0  0  0  0
  -37.7826   62.6004   62.3292 N   0  0  0  0  0  0  0  0  0  0  0  0
  -40.4279   56.0573   57.2072 O   0  0  0  0  0  0  0  0  0  0  0  0
  -36.7890   58.5530   63.8960 C   0  0  1  0  0  0  0  0  0  0  0  0
  -31.9908   58.0099   61.4124 O   0  0  0  0  0  0  0  0  0  0  0  0
  -35.3080   58.3090   63.6770 C   0  0  0  0  0  0  0  0  0  0  0  0
  -39.5836   61.5346   61.5466 O   0  0  0  0  0  0  0  0  0  0  0  0
  -33.7076   56.8787   65.0244 C   0  0  1  0  0  0  0  0  0  0  0  0
  -40.5436   63.0866   59.3716 O   0  0  0  0  0  0  0  0  0  0  0  0
  -32.7886   56.6633   63.8314 C   0  0  0  0  0  0  0  0  0  0  0  0
  -32.9356   56.7947   66.3354 C   0  0  0  0  0  0  0  0  0  0  0  0
  -31.9953   55.3827   63.9168 C   0  0  0  0  0  0  0  0  0  0  0  0
  -37.1633   61.0492   64.1705 C   0  0  0  0  0  0  0  0  0  0  0  0
  -38.1373   56.4234   57.8081 C   0  0  0  0  0  0  0  0  0  0  0  0
  -37.4061   55.6899   58.9407 C   0  0  0  0  0  0  0  0  0  0  0  0
  -37.9512   54.2555   59.0801 C   0  0  0  0  0  0  0  0  0  0  0  0
  -37.2818   53.4502   60.2100 C   0  0  0  0  0  0  0  0  0  0  0  0
  -37.7964   52.0064   60.3602 C   0  0  0  0  0  0  0  0  0  0  0  0
  -37.5677   51.1530   59.0950 C   0  0  0  0  0  0  0  0  0  0  0  0
  -38.0864   49.6998   59.1988 C   0  0  0  0  0  0  0  0  0  0  0  0
  -37.8313   48.8695   57.9356 C   0  0  0  0  0  0  0  0  0  0  0  0
  -36.3588   48.7002   57.5486 C   0  0  0  0  0  0  0  0  0  0  0  0
  -36.2089   47.8687   56.2614 C   0  0  0  0  0  0  0  0  0  0  0  0
  -34.7515   47.6482   55.8289 C   0  0  0  0  0  0  0  0  0  0  0  0
  -33.9402   48.9179   55.5510 C   0  0  0  0  0  0  0  0  0  0  0  0
  -34.5286   49.8173   54.4355 C   0  0  0  0  0  0  0  0  0  0  0  0
  -33.6551   51.0655   54.1965 C   0  0  0  0  0  0  0  0  0  0  0  0
  -34.1289   52.0569   53.1269 C   0  0  0  0  0  0  0  0  0  0  0  0
  -33.6606   54.8190   61.0917 C   0  0  0  0  0  0  0  0  0  0  0  0
  -32.7928   53.9392   60.1721 C   0  0  0  0  0  0  0  0  0  0  0  0
  -31.6532   54.6601   59.4711 C   0  0  0  0  0  0  0  0  0  0  0  0
  -30.5640   55.1376   60.4351 C   0  0  0  0  0  0  0  0  0  0  0  0
  -30.9783   55.8977   61.7061 C   0  0  1  0  0  0  0  0  0  0  0  0
  -32.1467   56.7978   61.3547 C   0  0  0  0  0  0  0  0  0  0  0  0
  -38.8097   60.5014   62.1550 C   0  0  0  0  0  0  0  0  0  0  0  0
  -38.8766   62.7785   61.7217 C   0  0  0  0  0  0  0  0  0  0  0  0
  -37.5309   61.1951   62.7009 C   0  0  1  0  0  0  0  0  0  0  0  0
  -40.1854   64.1796   60.0562 C   0  0  0  0  0  0  0  0  0  0  0  0
  -40.6337   65.4385   59.6353 C   0  0  0  0  0  0  0  0  0  0  0  0
  -40.2639   66.6018   60.3312 C   0  0  0  0  0  0  0  0  0  0  0  0
  -39.4497   66.5185   61.4620 C   0  0  0  0  0  0  0  0  0  0  0  0
  -39.0050   65.2643   61.8897 C   0  0  0  0  0  0  0  0  0  0  0  0
  -39.3668   64.0976   61.1892 C   0  0  0  0  0  0  0  0  0  0  0  0
  -36.7004   57.7044   59.8116 H   0  0  0  0  0  0  0  0  0  0  0  0
  -36.3355   56.7130   61.8759 H   0  0  0  0  0  0  0  0  0  0  0  0
  -36.2402   55.4355   59.9430 H   0  0  0  0  0  0  0  0  0  0  0  0
  -41.9342   56.8848   58.5192 H   0  0  0  0  0  0  0  0  0  0  0  0
  -39.5828   58.9513   60.1819 H   0  0  0  0  0  0  0  0  0  0  0  0
  -38.2916   57.8044   59.9799 H   0  0  0  0  0  0  0  0  0  0  0  0
  -30.5811   54.2914   63.0203 H   0  0  0  0  0  0  0  0  0  0  0  0
  -39.4709   56.2188   61.4403 H   0  0  0  0  0  0  0  0  0  0  0  0
  -40.7573   57.4744   61.6336 H   0  0  0  0  0  0  0  0  0  0  0  0
  -36.7487   59.7503   65.6024 H   0  0  0  0  0  0  0  0  0  0  0  0
  -39.5159   57.7843   63.6921 H   0  0  0  0  0  0  0  0  0  0  0  0
  -37.2771   58.6882   61.6876 H   0  0  0  0  0  0  0  0  0  0  0  0
  -37.2383   57.7881   64.4943 H   0  0  0  0  0  0  0  0  0  0  0  0
  -34.4347   56.0968   65.0944 H   0  0  0  0  0  0  0  0  0  0  0  0
  -41.0923   63.1658   58.6162 H   0  0  0  0  0  0  0  0  0  0  0  0
  -32.1045   57.4842   63.7764 H   0  0  0  0  0  0  0  0  0  0  0  0
  -33.4072   56.5971   62.9609 H   0  0  0  0  0  0  0  0  0  0  0  0
  -32.1781   57.5502   66.3522 H   0  0  0  0  0  0  0  0  0  0  0  0
  -32.4796   55.8304   66.4196 H   0  0  0  0  0  0  0  0  0  0  0  0
  -33.6070   56.9446   67.1549 H   0  0  0  0  0  0  0  0  0  0  0  0
  -37.7196   57.4046   57.7207 H   0  0  0  0  0  0  0  0  0  0  0  0
  -38.0039   55.8322   56.9263 H   0  0  0  0  0  0  0  0  0  0  0  0
  -37.5574   56.2170   59.8595 H   0  0  0  0  0  0  0  0  0  0  0  0
  -36.3613   55.6474   58.7137 H   0  0  0  0  0  0  0  0  0  0  0  0
  -37.7899   53.7407   58.1560 H   0  0  0  0  0  0  0  0  0  0  0  0
  -38.9899   54.3361   59.3241 H   0  0  0  0  0  0  0  0  0  0  0  0
  -37.4540   53.9636   61.1328 H   0  0  0  0  0  0  0  0  0  0  0  0
  -36.2447   53.3777   59.9571 H   0  0  0  0  0  0  0  0  0  0  0  0
  -38.8460   52.0376   60.5659 H   0  0  0  0  0  0  0  0  0  0  0  0
  -37.2478   51.5513   61.1582 H   0  0  0  0  0  0  0  0  0  0  0  0
  -36.5161   51.1194   58.9003 H   0  0  0  0  0  0  0  0  0  0  0  0
  -38.1243   51.6192   58.3090 H   0  0  0  0  0  0  0  0  0  0  0  0
  -39.1408   49.7282   59.3786 H   0  0  0  0  0  0  0  0  0  0  0  0
  -37.5517   49.2304   59.9980 H   0  0  0  0  0  0  0  0  0  0  0  0
  -38.3346   49.3455   57.1201 H   0  0  0  0  0  0  0  0  0  0  0  0
  -38.1955   47.8864   58.1496 H   0  0  0  0  0  0  0  0  0  0  0  0
  -35.8441   48.2047   58.3451 H   0  0  0  0  0  0  0  0  0  0  0  0
  -35.9426   49.6703   57.3735 H   0  0  0  0  0  0  0  0  0  0  0  0
  -36.7218   48.3760   55.4711 H   0  0  0  0  0  0  0  0  0  0  0  0
  -36.6218   46.9030   56.4658 H   0  0  0  0  0  0  0  0  0  0  0  0
  -34.7596   47.0612   54.9343 H   0  0  0  0  0  0  0  0  0  0  0  0
  -34.2709   47.1711   56.6573 H   0  0  0  0  0  0  0  0  0  0  0  0
  -32.9518   48.6277   55.2614 H   0  0  0  0  0  0  0  0  0  0  0  0
  -33.9560   49.4955   56.4516 H   0  0  0  0  0  0  0  0  0  0  0  0
  -35.5107   50.1301   54.7229 H   0  0  0  0  0  0  0  0  0  0  0  0
  -34.5596   49.2505   53.5285 H   0  0  0  0  0  0  0  0  0  0  0  0
  -32.6805   50.7271   53.9127 H   0  0  0  0  0  0  0  0  0  0  0  0
  -33.6954   51.6111   55.1160 H   0  0  0  0  0  0  0  0  0  0  0  0
  -34.1165   51.5808   52.1687 H   0  0  0  0  0  0  0  0  0  0  0  0
  -33.4764   52.9048   53.1123 H   0  0  0  0  0  0  0  0  0  0  0  0
  -35.1245   52.3769   53.3533 H   0  0  0  0  0  0  0  0  0  0  0  0
  -34.6902   54.6924   60.8294 H   0  0  0  0  0  0  0  0  0  0  0  0
  -33.4965   54.5221   62.1065 H   0  0  0  0  0  0  0  0  0  0  0  0
  -33.4285   53.5174   59.4219 H   0  0  0  0  0  0  0  0  0  0  0  0
  -32.3355   53.2088   60.8064 H   0  0  0  0  0  0  0  0  0  0  0  0
  -32.0518   55.5107   58.9588 H   0  0  0  0  0  0  0  0  0  0  0  0
  -31.2007   53.9634   58.7968 H   0  0  0  0  0  0  0  0  0  0  0  0
  -29.9147   55.7827   59.8809 H   0  0  0  0  0  0  0  0  0  0  0  0
  -30.1323   54.2314   60.8058 H   0  0  0  0  0  0  0  0  0  0  0  0
  -30.1511   56.5024   62.0143 H   0  0  0  0  0  0  0  0  0  0  0  0
  -38.5497   59.7562   61.4325 H   0  0  0  0  0  0  0  0  0  0  0  0
  -39.3535   60.0092   62.9341 H   0  0  0  0  0  0  0  0  0  0  0  0
  -36.6658   60.7231   62.2840 H   0  0  0  0  0  0  0  0  0  0  0  0
  -41.2422   65.5122   58.8050 H   0  0  0  0  0  0  0  0  0  0  0  0
  -40.5961   67.5227   60.0046 H   0  0  0  0  0  0  0  0  0  0  0  0
  -39.1796   67.3719   61.9756 H   0  0  0  0  0  0  0  0  0  0  0  0
  -38.4059   65.1927   62.7268 H   0  0  0  0  0  0  0  0  0  0  0  0
  1  2  1  0  0  0  0
  1  5  1  0  0  0  0
  1  7  1  0  0  0  0
  2 18  2  0  0  0  0
  2 29  1  0  0  0  0
  3 21  2  0  0  0  0
  4  6  1  0  0  0  0
  4 59  1  0  0  0  0
  4 60  1  0  0  0  0
  4 61  1  0  0  0  0
  5 62  1  0  0  0  0
  6 14  1  0  0  0  0
  7 10  1  0  0  0  0
  7 63  1  0  0  0  0
  7 64  1  0  0  0  0
  8 27  1  0  0  0  0
  8 48  1  0  0  0  0
  8 65  1  0  0  0  0
  9 21  1  0  0  0  0
  9 23  1  0  0  0  0
 10 13  1  0  0  0  0
 10 66  1  0  0  0  0
 10 67  1  0  0  0  0
 11 19  1  0  0  0  0
 11 28  1  0  0  0  0
 11 68  1  0  0  0  0
 12 27  2  0  0  0  0
 13 16  2  0  0  0  0
 13 69  1  0  0  0  0
 14 44  1  0  0  0  0
 14 49  1  0  0  0  0
 15 28  2  0  0  0  0
 16 19  1  0  0  0  0
 16 70  1  0  0  0  0
 17 51  2  0  0  0  0
 17 52  1  0  0  0  0
 19 21  1  0  0  0  0
 19 71  1  1  0  0  0
 20 49  2  0  0  0  0
 22 50  1  0  0  0  0
 22 51  1  0  0  0  0
 23 25  1  0  0  0  0
 23 26  1  0  0  0  0
 23 72  1  6  0  0  0
 24 53  1  0  0  0  0
 24 73  1  0  0  0  0
 25 27  1  0  0  0  0
 25 74  1  0  0  0  0
 25 75  1  0  0  0  0
 26 76  1  0  0  0  0
 26 77  1  0  0  0  0
 26 78  1  0  0  0  0
 28 52  1  0  0  0  0
 29 30  1  0  0  0  0
 29 79  1  0  0  0  0
 29 80  1  0  0  0  0
 30 31  1  0  0  0  0
 30 81  1  0  0  0  0
 30 82  1  0  0  0  0
 31 32  1  0  0  0  0
 31 83  1  0  0  0  0
 31 84  1  0  0  0  0
 32 33  1  0  0  0  0
 32 85  1  0  0  0  0
 32 86  1  0  0  0  0
 33 34  1  0  0  0  0
 33 87  1  0  0  0  0
 33 88  1  0  0  0  0
 34 35  1  0  0  0  0
 34 89  1  0  0  0  0
 34 90  1  0  0  0  0
 35 36  1  0  0  0  0
 35 91  1  0  0  0  0
 35 92  1  0  0  0  0
 36 37  1  0  0  0  0
 36 93  1  0  0  0  0
 36 94  1  0  0  0  0
 37 38  1  0  0  0  0
 37 95  1  0  0  0  0
 37 96  1  0  0  0  0
 38 39  1  0  0  0  0
 38 97  1  0  0  0  0
 38 98  1  0  0  0  0
 39 40  1  0  0  0  0
 39 99  1  0  0  0  0
 39100  1  0  0  0  0
 40 41  1  0  0  0  0
 40101  1  0  0  0  0
 40102  1  0  0  0  0
 41 42  1  0  0  0  0
 41103  1  0  0  0  0
 41104  1  0  0  0  0
 42 43  1  0  0  0  0
 42105  1  0  0  0  0
 42106  1  0  0  0  0
 43107  1  0  0  0  0
 43108  1  0  0  0  0
 43109  1  0  0  0  0
 44 45  1  0  0  0  0
 44110  1  0  0  0  0
 44111  1  0  0  0  0
 45 46  1  0  0  0  0
 45112  1  0  0  0  0
 45113  1  0  0  0  0
 46 47  1  0  0  0  0
 46114  1  0  0  0  0
 46115  1  0  0  0  0
 47 48  1  0  0  0  0
 47116  1  0  0  0  0
 47117  1  0  0  0  0
 48 49  1  0  0  0  0
 48118  1  1  0  0  0
 50 52  1  0  0  0  0
 50119  1  0  0  0  0
 50120  1  0  0  0  0
 51 58  1  0  0  0  0
 52121  1  6  0  0  0
 53 54  2  0  0  0  0
 53 58  1  0  0  0  0
 54 55  1  0  0  0  0
 54122  1  0  0  0  0
 55 56  2  0  0  0  0
 55123  1  0  0  0  0
 56 57  1  0  0  0  0
 56124  1  0  0  0  0
 57 58  2  0  0  0  0
 57125  1  0  0  0  0
M  END
$$$$
/media/chris/experiments/cd1a-new-docking/inputs/ligands/1xz0_ligand.pdb
 OpenBabel07022319323D

125127  0  0  1  0  0  0  0  0999 V2000
  -36.5317   56.7527   58.6170 N   0  0  0  0  0  0  0  0  0  0  0  0
  -35.4674   56.1616   58.0125 C   0  0  0  0  0  0  0  0  0  0  0  0
  -34.9015   57.3291   63.0745 O   0  0  0  0  0  0  0  0  0  0  0  0
  -29.4544   54.5989   58.3864 Si  0  0  0  0  0  0  0  0  0  0  0  0
  -37.4274   55.9133   59.2942 O   0  0  0  0  0  0  0  0  0  0  0  0
  -29.5503   56.2921   57.8210 O   0  0  0  0  0  0  0  0  0  0  0  0
  -36.8926   58.1729   58.6692 C   0  0  0  0  0  0  0  0  0  0  0  0
  -30.8739   59.0289   61.0784 N   0  0  0  0  0  0  0  0  0  0  0  0
  -34.3234   59.2293   64.2555 O   0  0  0  0  0  0  0  0  0  0  0  0
  -37.6379   58.4343   59.9942 C   0  0  0  0  0  0  0  0  0  0  0  0
  -36.8950   59.8150   64.6310 N   0  0  0  0  0  0  0  0  0  0  0  0
  -30.6442   60.6036   62.6856 O   0  0  0  0  0  0  0  0  0  0  0  0
  -36.8790   58.1542   61.3024 C   0  0  0  0  0  0  0  0  0  0  0  0
  -30.1193   57.2512   58.6035 N   0  0  0  0  0  0  0  0  0  0  0  0
  -38.5876   59.4141   66.0963 O   0  0  0  0  0  0  0  0  0  0  0  0
  -37.6390   58.4030   62.6110 C   0  0  0  0  0  0  0  0  0  0  0  0
  -38.0299   62.5582   65.0676 N   0  0  0  0  0  0  0  0  0  0  0  0
  -34.6272   56.8277   57.4080 O   0  0  0  0  0  0  0  0  0  0  0  0
  -36.7890   58.5530   63.8960 C   0  0  1  0  0  0  0  0  0  0  0  0
  -30.3047   55.7788   60.2956 O   0  0  0  0  0  0  0  0  0  0  0  0
  -35.3080   58.3090   63.6770 C   0  0  0  0  0  0  0  0  0  0  0  0
  -36.1262   63.3650   65.9144 O   0  0  0  0  0  0  0  0  0  0  0  0
  -33.3660   59.9184   63.4295 C   0  0  1  0  0  0  0  0  0  0  0  0
  -39.6916   64.5836   63.9705 O   0  0  0  0  0  0  0  0  0  0  0  0
  -32.2236   58.9625   63.1205 C   0  0  0  0  0  0  0  0  0  0  0  0
  -33.9453   60.5139   62.1522 C   0  0  0  0  0  0  0  0  0  0  0  0
  -31.1438   59.5836   62.2691 C   0  0  0  0  0  0  0  0  0  0  0  0
  -37.7336   60.1539   65.6256 C   0  0  0  0  0  0  0  0  0  0  0  0
  -35.3244   54.6378   58.0862 C   0  0  0  0  0  0  0  0  0  0  0  0
  -35.2309   54.0763   59.5115 C   0  0  0  0  0  0  0  0  0  0  0  0
  -35.0728   52.5442   59.4667 C   0  0  0  0  0  0  0  0  0  0  0  0
  -36.2369   51.8262   58.7580 C   0  0  0  0  0  0  0  0  0  0  0  0
  -36.4325   52.2234   57.2828 C   0  0  0  0  0  0  0  0  0  0  0  0
  -35.2004   51.9095   56.4084 C   0  0  0  0  0  0  0  0  0  0  0  0
  -35.3498   52.3094   54.9220 C   0  0  0  0  0  0  0  0  0  0  0  0
  -35.5818   53.8105   54.7145 C   0  0  0  0  0  0  0  0  0  0  0  0
  -36.8288   54.3815   55.3969 C   0  0  0  0  0  0  0  0  0  0  0  0
  -36.9826   55.8873   55.1154 C   0  0  0  0  0  0  0  0  0  0  0  0
  -38.2081   56.5245   55.7879 C   0  0  0  0  0  0  0  0  0  0  0  0
  -38.4112   58.0197   55.5217 C   0  0  0  0  0  0  0  0  0  0  0  0
  -39.6465   58.6298   56.2300 C   0  0  0  0  0  0  0  0  0  0  0  0
  -40.9499   57.9286   55.7966 C   0  0  0  0  0  0  0  0  0  0  0  0
  -42.2582   58.4433   56.4088 C   0  0  0  0  0  0  0  0  0  0  0  0
  -30.1724   58.6153   58.0574 C   0  0  0  0  0  0  0  0  0  0  0  0
  -31.6256   59.0230   57.7495 C   0  0  0  0  0  0  0  0  0  0  0  0
  -32.6883   58.0476   58.2280 C   0  0  0  0  0  0  0  0  0  0  0  0
  -32.7850   57.9687   59.7538 C   0  0  0  0  0  0  0  0  0  0  0  0
  -31.4940   57.7992   60.5720 C   0  0  1  0  0  0  0  0  0  0  0  0
  -30.5729   56.8683   59.8078 C   0  0  0  0  0  0  0  0  0  0  0  0
  -36.3649   62.1796   66.6724 C   0  0  0  0  0  0  0  0  0  0  0  0
  -37.1912   63.4967   64.9519 C   0  0  0  0  0  0  0  0  0  0  0  0
  -37.6957   61.5896   66.1290 C   0  0  1  0  0  0  0  0  0  0  0  0
  -38.5432   65.1351   63.5598 C   0  0  0  0  0  0  0  0  0  0  0  0
  -38.5738   66.2281   62.6839 C   0  0  0  0  0  0  0  0  0  0  0  0
  -37.3820   66.8186   62.2309 C   0  0  0  0  0  0  0  0  0  0  0  0
  -36.1460   66.3291   62.6566 C   0  0  0  0  0  0  0  0  0  0  0  0
  -36.1102   65.2429   63.5355 C   0  0  0  0  0  0  0  0  0  0  0  0
  -37.3027   64.6434   63.9843 C   0  0  0  0  0  0  0  0  0  0  0  0
  -28.8223   53.8036   57.3942 H   0  0  0  0  0  0  0  0  0  0  0  0
  -30.7641   54.1049   58.6255 H   0  0  0  0  0  0  0  0  0  0  0  0
  -28.7007   54.5433   59.5886 H   0  0  0  0  0  0  0  0  0  0  0  0
  -37.1286   54.9936   59.2188 H   0  0  0  0  0  0  0  0  0  0  0  0
  -37.5275   58.4156   57.8428 H   0  0  0  0  0  0  0  0  0  0  0  0
  -36.0126   58.7793   58.6151 H   0  0  0  0  0  0  0  0  0  0  0  0
  -30.2132   59.4785   60.5034 H   0  0  0  0  0  0  0  0  0  0  0  0
  -38.5151   57.8216   59.9949 H   0  0  0  0  0  0  0  0  0  0  0  0
  -37.8168   59.4892   60.0031 H   0  0  0  0  0  0  0  0  0  0  0  0
  -36.2607   60.5165   64.3574 H   0  0  0  0  0  0  0  0  0  0  0  0
  -35.9044   57.8148   61.2996 H   0  0  0  0  0  0  0  0  0  0  0  0
  -38.6687   58.4674   62.6338 H   0  0  0  0  0  0  0  0  0  0  0  0
  -37.2383   57.7881   64.4943 H   0  0  0  0  0  0  0  0  0  0  0  0
  -33.0182   60.7655   63.9829 H   0  0  0  0  0  0  0  0  0  0  0  0
  -40.5101   64.9296   63.6732 H   0  0  0  0  0  0  0  0  0  0  0  0
  -32.6201   58.1147   62.6020 H   0  0  0  0  0  0  0  0  0  0  0  0
  -31.7759   58.6895   64.0532 H   0  0  0  0  0  0  0  0  0  0  0  0
  -34.3213   59.7281   61.5309 H   0  0  0  0  0  0  0  0  0  0  0  0
  -33.1799   61.0474   61.6284 H   0  0  0  0  0  0  0  0  0  0  0  0
  -34.7414   61.1843   62.4004 H   0  0  0  0  0  0  0  0  0  0  0  0
  -34.4364   54.3593   57.5582 H   0  0  0  0  0  0  0  0  0  0  0  0
  -36.2133   54.2272   57.6547 H   0  0  0  0  0  0  0  0  0  0  0  0
  -36.1221   54.3247   60.0491 H   0  0  0  0  0  0  0  0  0  0  0  0
  -34.3802   54.5024   60.0010 H   0  0  0  0  0  0  0  0  0  0  0  0
  -35.0121   52.1806   60.4712 H   0  0  0  0  0  0  0  0  0  0  0  0
  -34.1862   52.3359   58.9051 H   0  0  0  0  0  0  0  0  0  0  0  0
  -37.1395   52.0517   59.2867 H   0  0  0  0  0  0  0  0  0  0  0  0
  -35.9974   50.7834   58.7620 H   0  0  0  0  0  0  0  0  0  0  0  0
  -36.6263   53.2746   57.2350 H   0  0  0  0  0  0  0  0  0  0  0  0
  -37.2514   51.6499   56.9016 H   0  0  0  0  0  0  0  0  0  0  0  0
  -35.0177   50.8562   56.4543 H   0  0  0  0  0  0  0  0  0  0  0  0
  -34.3929   52.4920   56.8003 H   0  0  0  0  0  0  0  0  0  0  0  0
  -36.1818   51.7776   54.5099 H   0  0  0  0  0  0  0  0  0  0  0  0
  -34.4297   52.0622   54.4348 H   0  0  0  0  0  0  0  0  0  0  0  0
  -35.6695   53.9891   53.6631 H   0  0  0  0  0  0  0  0  0  0  0  0
  -34.7462   54.3038   55.1654 H   0  0  0  0  0  0  0  0  0  0  0  0
  -36.7474   54.2313   56.4532 H   0  0  0  0  0  0  0  0  0  0  0  0
  -37.6877   53.8763   55.0070 H   0  0  0  0  0  0  0  0  0  0  0  0
  -37.0690   56.0252   54.0578 H   0  0  0  0  0  0  0  0  0  0  0  0
  -36.1189   56.3693   55.5234 H   0  0  0  0  0  0  0  0  0  0  0  0
  -38.1102   56.3893   56.8448 H   0  0  0  0  0  0  0  0  0  0  0  0
  -39.0600   56.0350   55.3642 H   0  0  0  0  0  0  0  0  0  0  0  0
  -38.5260   58.1600   54.4671 H   0  0  0  0  0  0  0  0  0  0  0  0
  -37.5523   58.5212   55.9161 H   0  0  0  0  0  0  0  0  0  0  0  0
  -39.7115   59.6686   55.9821 H   0  0  0  0  0  0  0  0  0  0  0  0
  -39.5283   58.4966   57.2850 H   0  0  0  0  0  0  0  0  0  0  0  0
  -40.8595   56.8937   56.0530 H   0  0  0  0  0  0  0  0  0  0  0  0
  -41.0369   58.1301   54.7493 H   0  0  0  0  0  0  0  0  0  0  0  0
  -42.2476   58.2759   57.4656 H   0  0  0  0  0  0  0  0  0  0  0  0
  -43.0850   57.9220   55.9734 H   0  0  0  0  0  0  0  0  0  0  0  0
  -42.3550   59.4910   56.2146 H   0  0  0  0  0  0  0  0  0  0  0  0
  -29.5980   58.6551   57.1555 H   0  0  0  0  0  0  0  0  0  0  0  0
  -29.7719   59.2920   58.7831 H   0  0  0  0  0  0  0  0  0  0  0  0
  -31.7230   59.1242   56.6888 H   0  0  0  0  0  0  0  0  0  0  0  0
  -31.7973   59.9338   58.2843 H   0  0  0  0  0  0  0  0  0  0  0  0
  -32.4525   57.0745   57.8506 H   0  0  0  0  0  0  0  0  0  0  0  0
  -33.6316   58.3991   57.8654 H   0  0  0  0  0  0  0  0  0  0  0  0
  -33.4157   57.1361   59.9860 H   0  0  0  0  0  0  0  0  0  0  0  0
  -33.1465   58.9344   60.0396 H   0  0  0  0  0  0  0  0  0  0  0  0
  -31.7518   57.3468   61.5068 H   0  0  0  0  0  0  0  0  0  0  0  0
  -36.4588   62.4149   67.7120 H   0  0  0  0  0  0  0  0  0  0  0  0
  -35.5581   61.4831   66.5783 H   0  0  0  0  0  0  0  0  0  0  0  0
  -38.3917   61.4827   66.9347 H   0  0  0  0  0  0  0  0  0  0  0  0
  -39.4817   66.6036   62.3679 H   0  0  0  0  0  0  0  0  0  0  0  0
  -37.4207   67.6185   61.5799 H   0  0  0  0  0  0  0  0  0  0  0  0
  -35.2700   66.7636   62.3267 H   0  0  0  0  0  0  0  0  0  0  0  0
  -35.2011   64.8766   63.8585 H   0  0  0  0  0  0  0  0  0  0  0  0
  1  2  1  0  0  0  0
  1  5  1  0  0  0  0
  1  7  1  0  0  0  0
  2 18  2  0  0  0  0
  2 29  1  0  0  0  0
  3 21  2  0  0  0  0
  4  6  1  0  0  0  0
  4 59  1  0  0  0  0
  4 60  1  0  0  0  0
  4 61  1  0  0  0  0
  5 62  1  0  0  0  0
  6 14  1  0  0  0  0
  7 10  1  0  0  0  0
  7 63  1  0  0  0  0
  7 64  1  0  0  0  0
  8 27  1  0  0  0  0
  8 48  1  0  0  0  0
  8 65  1  0  0  0  0
  9 21  1  0  0  0  0
  9 23  1  0  0  0  0
 10 13  1  0  0  0  0
 10 66  1  0  0  0  0
 10 67  1  0  0  0  0
 11 19  1  0  0  0  0
 11 28  1  0  0  0  0
 11 68  1  0  0  0  0
 12 27  2  0  0  0  0
 13 16  2  0  0  0  0
 13 69  1  0  0  0  0
 14 44  1  0  0  0  0
 14 49  1  0  0  0  0
 15 28  2  0  0  0  0
 16 19  1  0  0  0  0
 16 70  1  0  0  0  0
 17 51  2  0  0  0  0
 17 52  1  0  0  0  0
 19 21  1  0  0  0  0
 19 71  1  1  0  0  0
 20 49  2  0  0  0  0
 22 50  1  0  0  0  0
 22 51  1  0  0  0  0
 23 25  1  0  0  0  0
 23 26  1  0  0  0  0
 23 72  1  1  0  0  0
 24 53  1  0  0  0  0
 24 73  1  0  0  0  0
 25 27  1  0  0  0  0
 25 74  1  0  0  0  0
 25 75  1  0  0  0  0
 26 76  1  0  0  0  0
 26 77  1  0  0  0  0
 26 78  1  0  0  0  0
 28 52  1  0  0  0  0
 29 30  1  0  0  0  0
 29 79  1  0  0  0  0
 29 80  1  0  0  0  0
 30 31  1  0  0  0  0
 30 81  1  0  0  0  0
 30 82  1  0  0  0  0
 31 32  1  0  0  0  0
 31 83  1  0  0  0  0
 31 84  1  0  0  0  0
 32 33  1  0  0  0  0
 32 85  1  0  0  0  0
 32 86  1  0  0  0  0
 33 34  1  0  0  0  0
 33 87  1  0  0  0  0
 33 88  1  0  0  0  0
 34 35  1  0  0  0  0
 34 89  1  0  0  0  0
 34 90  1  0  0  0  0
 35 36  1  0  0  0  0
 35 91  1  0  0  0  0
 35 92  1  0  0  0  0
 36 37  1  0  0  0  0
 36 93  1  0  0  0  0
 36 94  1  0  0  0  0
 37 38  1  0  0  0  0
 37 95  1  0  0  0  0
 37 96  1  0  0  0  0
 38 39  1  0  0  0  0
 38 97  1  0  0  0  0
 38 98  1  0  0  0  0
 39 40  1  0  0  0  0
 39 99  1  0  0  0  0
 39100  1  0  0  0  0
 40 41  1  0  0  0  0
 40101  1  0  0  0  0
 40102  1  0  0  0  0
 41 42  1  0  0  0  0
 41103  1  0  0  0  0
 41104  1  0  0  0  0
 42 43  1  0  0  0  0
 42105  1  0  0  0  0
 42106  1  0  0  0  0
 43107  1  0  0  0  0
 43108  1  0  0  0  0
 43109  1  0  0  0  0
 44 45  1  0  0  0  0
 44110  1  0  0  0  0
 44111  1  0  0  0  0
 45 46  1  0  0  0  0
 45112  1  0  0  0  0
 45113  1  0  0  0  0
 46 47  1  0  0  0  0
 46114  1  0  0  0  0
 46115  1  0  0  0  0
 47 48  1  0  0  0  0
 47116  1  0  0  0  0
 47117  1  0  0  0  0
 48 49  1  0  0  0  0
 48118  1  1  0  0  0
 50 52  1  0  0  0  0
 50119  1  0  0  0  0
 50120  1  0  0  0  0
 51 58  1  0  0  0  0
 52121  1  1  0  0  0
 53 54  2  0  0  0  0
 53 58  1  0  0  0  0
 54 55  1  0  0  0  0
 54122  1  0  0  0  0
 55 56  2  0  0  0  0
 55123  1  0  0  0  0
 56 57  1  0  0  0  0
 56124  1  0  0  0  0
 57 58  2  0  0  0  0
 57125  1  0  0  0  0
M  END
$$$$
/media/chris/experiments/cd1a-new-docking/inputs/ligands/1xz0_ligand.pdb
 OpenBabel07022319323D

125127  0  0  1  0  0  0  0  0999 V2000
  -40.9020   55.9054   59.7394 N   0  0  0  0  0  0  0  0  0  0  0  0
  -41.7138   54.9282   59.2558 C   0  0  0  0  0  0  0  0  0  0  0  0
  -34.9015   57.3291   63.0745 O   0  0  0  0  0  0  0  0  0  0  0  0
  -24.5842   59.7648   66.7364 Si  0  0  0  0  0  0  0  0  0  0  0  0
  -40.2286   56.6980   58.7993 O   0  0  0  0  0  0  0  0  0  0  0  0
  -25.9601   60.4253   65.8055 O   0  0  0  0  0  0  0  0  0  0  0  0
  -40.6183   56.2648   61.1323 C   0  0  0  0  0  0  0  0  0  0  0  0
  -29.7171   58.1431   65.0778 N   0  0  0  0  0  0  0  0  0  0  0  0
  -34.3234   59.2293   64.2555 O   0  0  0  0  0  0  0  0  0  0  0  0
  -39.1837   56.8269   61.2043 C   0  0  0  0  0  0  0  0  0  0  0  0
  -36.8950   59.8150   64.6310 N   0  0  0  0  0  0  0  0  0  0  0  0
  -31.0784   58.7088   66.7932 O   0  0  0  0  0  0  0  0  0  0  0  0
  -38.6590   57.2580   62.5844 C   0  0  0  0  0  0  0  0  0  0  0  0
  -26.9534   59.6044   65.3635 N   0  0  0  0  0  0  0  0  0  0  0  0
  -37.6467   59.1566   66.6741 O   0  0  0  0  0  0  0  0  0  0  0  0
  -37.6390   58.4030   62.6110 C   0  0  0  0  0  0  0  0  0  0  0  0
  -37.7584   62.3899   65.2583 N   0  0  0  0  0  0  0  0  0  0  0  0
  -41.8473   54.7523   58.0449 O   0  0  0  0  0  0  0  0  0  0  0  0
  -36.7890   58.5530   63.8960 C   0  0  1  0  0  0  0  0  0  0  0  0
  -27.5709   59.1867   67.4871 O   0  0  0  0  0  0  0  0  0  0  0  0
  -35.3080   58.3090   63.6770 C   0  0  0  0  0  0  0  0  0  0  0  0
  -35.9961   63.3797   66.2103 O   0  0  0  0  0  0  0  0  0  0  0  0
  -33.3633   58.7826   65.2315 C   0  0  1  0  0  0  0  0  0  0  0  0
  -34.7988   64.9712   64.1373 O   0  0  0  0  0  0  0  0  0  0  0  0
  -31.9677   59.0197   64.6745 C   0  0  0  0  0  0  0  0  0  0  0  0
  -33.5203   59.4153   66.6087 C   0  0  0  0  0  0  0  0  0  0  0  0
  -30.8714   58.5715   65.6092 C   0  0  0  0  0  0  0  0  0  0  0  0
  -37.2920   60.0330   65.8968 C   0  0  0  0  0  0  0  0  0  0  0  0
  -42.4759   54.0400   60.2448 C   0  0  0  0  0  0  0  0  0  0  0  0
  -41.7683   53.8355   61.5912 C   0  0  0  0  0  0  0  0  0  0  0  0
  -40.3880   53.1875   61.3699 C   0  0  0  0  0  0  0  0  0  0  0  0
  -39.6130   52.9296   62.6761 C   0  0  0  0  0  0  0  0  0  0  0  0
  -40.3167   51.9786   63.6622 C   0  0  0  0  0  0  0  0  0  0  0  0
  -40.5536   50.5719   63.0740 C   0  0  0  0  0  0  0  0  0  0  0  0
  -39.2642   49.8203   62.6686 C   0  0  0  0  0  0  0  0  0  0  0  0
  -38.4328   50.5603   61.6143 C   0  0  0  0  0  0  0  0  0  0  0  0
  -37.1533   49.8456   61.1684 C   0  0  0  0  0  0  0  0  0  0  0  0
  -36.2052   49.5992   62.3562 C   0  0  0  0  0  0  0  0  0  0  0  0
  -34.8932   48.8992   61.9708 C   0  0  0  0  0  0  0  0  0  0  0  0
  -34.0082   49.6486   60.9694 C   0  0  0  0  0  0  0  0  0  0  0  0
  -33.5285   51.0376   61.4597 C   0  0  0  0  0  0  0  0  0  0  0  0
  -32.6837   50.9226   62.7447 C   0  0  0  0  0  0  0  0  0  0  0  0
  -31.3928   50.0991   62.6621 C   0  0  0  0  0  0  0  0  0  0  0  0
  -27.1740   59.5434   63.9111 C   0  0  0  0  0  0  0  0  0  0  0  0
  -26.7708   58.1642   63.3560 C   0  0  0  0  0  0  0  0  0  0  0  0
  -26.4186   57.1209   64.4035 C   0  0  0  0  0  0  0  0  0  0  0  0
  -27.6209   56.6914   65.2483 C   0  0  0  0  0  0  0  0  0  0  0  0
  -28.5278   57.7753   65.8546 C   0  0  1  0  0  0  0  0  0  0  0  0
  -27.6494   58.9307   66.2933 C   0  0  0  0  0  0  0  0  0  0  0  0
  -36.1819   62.1930   66.9809 C   0  0  0  0  0  0  0  0  0  0  0  0
  -36.9992   63.3970   65.1753 C   0  0  0  0  0  0  0  0  0  0  0  0
  -37.4151   61.4760   66.3644 C   0  0  1  0  0  0  0  0  0  0  0  0
  -36.0372   65.2239   63.6965 C   0  0  0  0  0  0  0  0  0  0  0  0
  -36.2403   66.2253   62.7378 C   0  0  0  0  0  0  0  0  0  0  0  0
  -37.5314   66.5161   62.2661 C   0  0  0  0  0  0  0  0  0  0  0  0
  -38.6332   65.8020   62.7403 C   0  0  0  0  0  0  0  0  0  0  0  0
  -38.4350   64.7978   63.6920 C   0  0  0  0  0  0  0  0  0  0  0  0
  -37.1434   64.5100   64.1731 C   0  0  0  0  0  0  0  0  0  0  0  0
  -23.6939   60.8175   67.0764 H   0  0  0  0  0  0  0  0  0  0  0  0
  -23.8994   58.8013   65.9496 H   0  0  0  0  0  0  0  0  0  0  0  0
  -25.0664   59.1510   67.9227 H   0  0  0  0  0  0  0  0  0  0  0  0
  -40.4617   56.4062   57.9041 H   0  0  0  0  0  0  0  0  0  0  0  0
  -40.6987   55.3972   61.7534 H   0  0  0  0  0  0  0  0  0  0  0  0
  -41.3192   56.9974   61.4743 H   0  0  0  0  0  0  0  0  0  0  0  0
  -29.6639   58.0703   64.0975 H   0  0  0  0  0  0  0  0  0  0  0  0
  -39.1423   57.6831   60.5638 H   0  0  0  0  0  0  0  0  0  0  0  0
  -38.5557   56.0098   60.9167 H   0  0  0  0  0  0  0  0  0  0  0  0
  -36.6386   60.6199   64.1253 H   0  0  0  0  0  0  0  0  0  0  0  0
  -38.9782   56.7985   63.4515 H   0  0  0  0  0  0  0  0  0  0  0  0
  -37.5247   59.0434   61.8099 H   0  0  0  0  0  0  0  0  0  0  0  0
  -37.2383   57.7881   64.4943 H   0  0  0  0  0  0  0  0  0  0  0  0
  -33.5381   57.7401   65.3972 H   0  0  0  0  0  0  0  0  0  0  0  0
  -34.0736   65.4618   63.8039 H   0  0  0  0  0  0  0  0  0  0  0  0
  -31.8490   60.0666   64.4881 H   0  0  0  0  0  0  0  0  0  0  0  0
  -31.8795   58.4400   63.7794 H   0  0  0  0  0  0  0  0  0  0  0  0
  -33.3604   60.4708   66.5367 H   0  0  0  0  0  0  0  0  0  0  0  0
  -32.8032   58.9909   67.2800 H   0  0  0  0  0  0  0  0  0  0  0  0
  -34.5075   59.2284   66.9767 H   0  0  0  0  0  0  0  0  0  0  0  0
  -42.6173   53.0808   59.7923 H   0  0  0  0  0  0  0  0  0  0  0  0
  -43.3967   54.5416   60.4577 H   0  0  0  0  0  0  0  0  0  0  0  0
  -42.3636   53.1978   62.2108 H   0  0  0  0  0  0  0  0  0  0  0  0
  -41.6375   54.7852   62.0664 H   0  0  0  0  0  0  0  0  0  0  0  0
  -39.8039   53.8374   60.7524 H   0  0  0  0  0  0  0  0  0  0  0  0
  -40.5573   52.2356   60.9115 H   0  0  0  0  0  0  0  0  0  0  0  0
  -39.4642   53.8687   63.1667 H   0  0  0  0  0  0  0  0  0  0  0  0
  -38.6972   52.4524   62.3960 H   0  0  0  0  0  0  0  0  0  0  0  0
  -41.2630   52.4014   63.9280 H   0  0  0  0  0  0  0  0  0  0  0  0
  -39.6774   51.8675   64.5130 H   0  0  0  0  0  0  0  0  0  0  0  0
  -41.1690   50.6726   62.2045 H   0  0  0  0  0  0  0  0  0  0  0  0
  -41.0131   49.9923   63.8472 H   0  0  0  0  0  0  0  0  0  0  0  0
  -39.5389   48.8644   62.2739 H   0  0  0  0  0  0  0  0  0  0  0  0
  -38.6584   49.7371   63.5466 H   0  0  0  0  0  0  0  0  0  0  0  0
  -38.1560   51.5111   62.0196 H   0  0  0  0  0  0  0  0  0  0  0  0
  -39.0518   50.6283   60.7442 H   0  0  0  0  0  0  0  0  0  0  0  0
  -36.6517   50.4503   60.4421 H   0  0  0  0  0  0  0  0  0  0  0  0
  -37.4243   48.8982   60.7514 H   0  0  0  0  0  0  0  0  0  0  0  0
  -36.7145   48.9893   63.0728 H   0  0  0  0  0  0  0  0  0  0  0  0
  -35.9415   50.5595   62.7475 H   0  0  0  0  0  0  0  0  0  0  0  0
  -35.1404   47.9496   61.5442 H   0  0  0  0  0  0  0  0  0  0  0  0
  -34.3217   48.8348   62.8731 H   0  0  0  0  0  0  0  0  0  0  0  0
  -34.5655   49.7858   60.0664 H   0  0  0  0  0  0  0  0  0  0  0  0
  -33.1306   49.0527   60.8292 H   0  0  0  0  0  0  0  0  0  0  0  0
  -34.3829   51.6502   61.6589 H   0  0  0  0  0  0  0  0  0  0  0  0
  -32.9189   51.4715   60.6948 H   0  0  0  0  0  0  0  0  0  0  0  0
  -33.3012   50.4788   63.4974 H   0  0  0  0  0  0  0  0  0  0  0  0
  -32.3614   51.9212   62.9538 H   0  0  0  0  0  0  0  0  0  0  0  0
  -31.6340   49.0778   62.4534 H   0  0  0  0  0  0  0  0  0  0  0  0
  -30.8712   50.1591   63.5944 H   0  0  0  0  0  0  0  0  0  0  0  0
  -30.7724   50.4859   61.8808 H   0  0  0  0  0  0  0  0  0  0  0  0
  -26.5855   60.2994   63.4345 H   0  0  0  0  0  0  0  0  0  0  0  0
  -28.2136   59.7026   63.7142 H   0  0  0  0  0  0  0  0  0  0  0  0
  -25.9183   58.2987   62.7235 H   0  0  0  0  0  0  0  0  0  0  0  0
  -27.6308   57.7890   62.8417 H   0  0  0  0  0  0  0  0  0  0  0  0
  -25.6733   57.5289   65.0538 H   0  0  0  0  0  0  0  0  0  0  0  0
  -26.0656   56.2539   63.8854 H   0  0  0  0  0  0  0  0  0  0  0  0
  -27.2413   56.1086   66.0614 H   0  0  0  0  0  0  0  0  0  0  0  0
  -28.2560   56.1829   64.5534 H   0  0  0  0  0  0  0  0  0  0  0  0
  -29.0128   57.3589   66.7126 H   0  0  0  0  0  0  0  0  0  0  0  0
  -36.3679   62.4394   68.0054 H   0  0  0  0  0  0  0  0  0  0  0  0
  -35.3126   61.5695   66.9592 H   0  0  0  0  0  0  0  0  0  0  0  0
  -38.1531   61.3234   67.1239 H   0  0  0  0  0  0  0  0  0  0  0  0
  -35.4327   66.7550   62.3742 H   0  0  0  0  0  0  0  0  0  0  0  0
  -37.6660   67.2617   61.5653 H   0  0  0  0  0  0  0  0  0  0  0  0
  -39.5817   66.0128   62.3926 H   0  0  0  0  0  0  0  0  0  0  0  0
  -39.2432   64.2621   64.0455 H   0  0  0  0  0  0  0  0  0  0  0  0
  1  2  1  0  0  0  0
  1  5  1  0  0  0  0
  1  7  1  0  0  0  0
  2 18  2  0  0  0  0
  2 29  1  0  0  0  0
  3 21  2  0  0  0  0
  4  6  1  0  0  0  0
  4 59  1  0  0  0  0
  4 60  1  0  0  0  0
  4 61  1  0  0  0  0
  5 62  1  0  0  0  0
  6 14  1  0  0  0  0
  7 10  1  0  0  0  0
  7 63  1  0  0  0  0
  7 64  1  0  0  0  0
  8 27  1  0  0  0  0
  8 48  1  0  0  0  0
  8 65  1  0  0  0  0
  9 21  1  0  0  0  0
  9 23  1  0  0  0  0
 10 13  1  0  0  0  0
 10 66  1  0  0  0  0
 10 67  1  0  0  0  0
 11 19  1  0  0  0  0
 11 28  1  0  0  0  0
 11 68  1  0  0  0  0
 12 27  2  0  0  0  0
 13 16  2  0  0  0  0
 13 69  1  0  0  0  0
 14 44  1  0  0  0  0
 14 49  1  0  0  0  0
 15 28  2  0  0  0  0
 16 19  1  0  0  0  0
 16 70  1  0  0  0  0
 17 51  2  0  0  0  0
 17 52  1  0  0  0  0
 19 21  1  0  0  0  0
 19 71  1  1  0  0  0
 20 49  2  0  0  0  0
 22 50  1  0  0  0  0
 22 51  1  0  0  0  0
 23 25  1  0  0  0  0
 23 26  1  0  0  0  0
 23 72  1  1  0  0  0
 24 53  1  0  0  0  0
 24 73  1  0  0  0  0
 25 27  1  0  0  0  0
 25 74  1  0  0  0  0
 25 75  1  0  0  0  0
 26 76  1  0  0  0  0
 26 77  1  0  0  0  0
 26 78  1  0  0  0  0
 28 52  1  0  0  0  0
 29 30  1  0  0  0  0
 29 79  1  0  0  0  0
 29 80  1  0  0  0  0
 30 31  1  0  0  0  0
 30 81  1  0  0  0  0
 30 82  1  0  0  0  0
 31 32  1  0  0  0  0
 31 83  1  0  0  0  0
 31 84  1  0  0  0  0
 32 33  1  0  0  0  0
 32 85  1  0  0  0  0
 32 86  1  0  0  0  0
 33 34  1  0  0  0  0
 33 87  1  0  0  0  0
 33 88  1  0  0  0  0
 34 35  1  0  0  0  0
 34 89  1  0  0  0  0
 34 90  1  0  0  0  0
 35 36  1  0  0  0  0
 35 91  1  0  0  0  0
 35 92  1  0  0  0  0
 36 37  1  0  0  0  0
 36 93  1  0  0  0  0
 36 94  1  0  0  0  0
 37 38  1  0  0  0  0
 37 95  1  0  0  0  0
 37 96  1  0  0  0  0
 38 39  1  0  0  0  0
 38 97  1  0  0  0  0
 38 98  1  0  0  0  0
 39 40  1  0  0  0  0
 39 99  1  0  0  0  0
 39100  1  0  0  0  0
 40 41  1  0  0  0  0
 40101  1  0  0  0  0
 40102  1  0  0  0  0
 41 42  1  0  0  0  0
 41103  1  0  0  0  0
 41104  1  0  0  0  0
 42 43  1  0  0  0  0
 42105  1  0  0  0  0
 42106  1  0  0  0  0
 43107  1  0  0  0  0
 43108  1  0  0  0  0
 43109  1  0  0  0  0
 44 45  1  0  0  0  0
 44110  1  0  0  0  0
 44111  1  0  0  0  0
 45 46  1  0  0  0  0
 45112  1  0  0  0  0
 45113  1  0  0  0  0
 46 47  1  0  0  0  0
 46114  1  0  0  0  0
 46115  1  0  0  0  0
 47 48  1  0  0  0  0
 47116  1  0  0  0  0
 47117  1  0  0  0  0
 48 49  1  0  0  0  0
 48118  1  1  0  0  0
 50 52  1  0  0  0  0
 50119  1  0  0  0  0
 50120  1  0  0  0  0
 51 58  1  0  0  0  0
 52121  1  1  0  0  0
 53 54  2  0  0  0  0
 53 58  1  0  0  0  0
 54 55  1  0  0  0  0
 54122  1  0  0  0  0
 55 56  2  0  0  0  0
 55123  1  0  0  0  0
 56 57  1  0  0  0  0
 56124  1  0  0  0  0
 57 58  2  0  0  0  0
 57125  1  0  0  0  0
M  END
$$$$
/media/chris/experiments/cd1a-new-docking/inputs/ligands/1xz0_ligand.pdb
 OpenBabel07022319323D

125127  0  0  1  0  0  0  0  0999 V2000
  -40.2129   55.0214   61.2541 N   0  0  0  0  0  0  0  0  0  0  0  0
  -40.6375   53.8120   61.7067 C   0  0  0  0  0  0  0  0  0  0  0  0
  -34.7303   58.7191   62.6838 O   0  0  0  0  0  0  0  0  0  0  0  0
  -27.9289   55.1711   67.4548 Si  0  0  0  0  0  0  0  0  0  0  0  0
  -40.9759   56.1408   61.6149 O   0  0  0  0  0  0  0  0  0  0  0  0
  -28.9061   54.6654   68.8638 O   0  0  0  0  0  0  0  0  0  0  0  0
  -39.0463   55.3391   60.4247 C   0  0  0  0  0  0  0  0  0  0  0  0
  -33.0728   56.1348   68.2869 N   0  0  0  0  0  0  0  0  0  0  0  0
  -34.5507   57.5039   64.6410 O   0  0  0  0  0  0  0  0  0  0  0  0
  -38.5576   56.7536   60.7988 C   0  0  0  0  0  0  0  0  0  0  0  0
  -36.8950   59.8150   64.6310 N   0  0  0  0  0  0  0  0  0  0  0  0
  -34.8871   56.0368   66.9400 O   0  0  0  0  0  0  0  0  0  0  0  0
  -38.1064   56.9875   62.2504 C   0  0  0  0  0  0  0  0  0  0  0  0
  -30.2095   55.0464   68.9737 N   0  0  0  0  0  0  0  0  0  0  0  0
  -37.7543   61.2478   66.1742 O   0  0  0  0  0  0  0  0  0  0  0  0
  -37.6390   58.4030   62.6110 C   0  0  0  0  0  0  0  0  0  0  0  0
  -37.8853   57.9472   66.7604 N   0  0  0  0  0  0  0  0  0  0  0  0
  -41.6480   53.7111   62.4022 O   0  0  0  0  0  0  0  0  0  0  0  0
  -36.7890   58.5530   63.8960 C   0  0  1  0  0  0  0  0  0  0  0  0
  -29.8137   56.8272   67.6556 O   0  0  0  0  0  0  0  0  0  0  0  0
  -35.3080   58.3090   63.6770 C   0  0  0  0  0  0  0  0  0  0  0  0
  -39.3379   56.9364   65.3966 O   0  0  0  0  0  0  0  0  0  0  0  0
  -33.3968   58.0359   65.3187 C   0  0  1  0  0  0  0  0  0  0  0  0
  -37.1193   56.3162   68.9560 O   0  0  0  0  0  0  0  0  0  0  0  0
  -33.6623   58.0018   66.8163 C   0  0  0  0  0  0  0  0  0  0  0  0
  -32.0855   57.3393   64.9770 C   0  0  0  0  0  0  0  0  0  0  0  0
  -33.9013   56.6091   67.3452 C   0  0  0  0  0  0  0  0  0  0  0  0
  -37.7336   60.1539   65.6256 C   0  0  0  0  0  0  0  0  0  0  0  0
  -39.8326   52.5597   61.3436 C   0  0  0  0  0  0  0  0  0  0  0  0
  -39.8898   51.4410   62.3927 C   0  0  0  0  0  0  0  0  0  0  0  0
  -39.0354   50.2431   61.9352 C   0  0  0  0  0  0  0  0  0  0  0  0
  -39.0502   49.0632   62.9255 C   0  0  0  0  0  0  0  0  0  0  0  0
  -38.5369   49.4040   64.3370 C   0  0  0  0  0  0  0  0  0  0  0  0
  -38.5526   48.1909   65.2905 C   0  0  0  0  0  0  0  0  0  0  0  0
  -38.0602   48.4955   66.7245 C   0  0  0  0  0  0  0  0  0  0  0  0
  -38.0698   47.2701   67.6458 C   0  0  0  0  0  0  0  0  0  0  0  0
  -39.4364   46.6051   67.8380 C   0  0  0  0  0  0  0  0  0  0  0  0
  -39.3445   45.3989   68.7903 C   0  0  0  0  0  0  0  0  0  0  0  0
  -40.6822   44.6766   69.0113 C   0  0  0  0  0  0  0  0  0  0  0  0
  -41.3321   44.0812   67.7580 C   0  0  0  0  0  0  0  0  0  0  0  0
  -42.6870   43.3765   68.0178 C   0  0  0  0  0  0  0  0  0  0  0  0
  -43.7312   44.3543   68.5938 C   0  0  0  0  0  0  0  0  0  0  0  0
  -45.1187   43.7864   68.9160 C   0  0  0  0  0  0  0  0  0  0  0  0
  -31.1162   54.1312   69.6824 C   0  0  0  0  0  0  0  0  0  0  0  0
  -31.5739   54.7442   71.0193 C   0  0  0  0  0  0  0  0  0  0  0  0
  -31.1657   56.1909   71.2432 C   0  0  0  0  0  0  0  0  0  0  0  0
  -31.8621   57.1641   70.2883 C   0  0  0  0  0  0  0  0  0  0  0  0
  -31.8864   56.8401   68.7853 C   0  0  1  0  0  0  0  0  0  0  0  0
  -30.5530   56.2191   68.4174 C   0  0  0  0  0  0  0  0  0  0  0  0
  -39.6251   58.3251   65.2368 C   0  0  0  0  0  0  0  0  0  0  0  0
  -38.2506   56.8144   66.3352 C   0  0  0  0  0  0  0  0  0  0  0  0
  -38.6466   59.0723   66.1849 C   0  0  1  0  0  0  0  0  0  0  0  0
  -37.1620   55.3133   68.0706 C   0  0  0  0  0  0  0  0  0  0  0  0
  -36.6778   54.0492   68.4318 C   0  0  0  0  0  0  0  0  0  0  0  0
  -36.7027   52.9827   67.5174 C   0  0  0  0  0  0  0  0  0  0  0  0
  -37.2216   53.1656   66.2344 C   0  0  0  0  0  0  0  0  0  0  0  0
  -37.7117   54.4231   65.8713 C   0  0  0  0  0  0  0  0  0  0  0  0
  -37.6800   55.4961   66.7826 C   0  0  0  0  0  0  0  0  0  0  0  0
  -26.6147   54.6475   67.5778 H   0  0  0  0  0  0  0  0  0  0  0  0
  -27.8706   56.5889   67.4035 H   0  0  0  0  0  0  0  0  0  0  0  0
  -28.5251   54.6785   66.2639 H   0  0  0  0  0  0  0  0  0  0  0  0
  -41.7271   55.8582   62.1596 H   0  0  0  0  0  0  0  0  0  0  0  0
  -39.3195   55.3124   59.3905 H   0  0  0  0  0  0  0  0  0  0  0  0
  -38.2686   54.6237   60.5924 H   0  0  0  0  0  0  0  0  0  0  0  0
  -33.2747   55.2511   68.6710 H   0  0  0  0  0  0  0  0  0  0  0  0
  -39.3595   57.4332   60.5988 H   0  0  0  0  0  0  0  0  0  0  0  0
  -37.6754   56.9016   60.2116 H   0  0  0  0  0  0  0  0  0  0  0  0
  -36.2607   60.5165   64.3574 H   0  0  0  0  0  0  0  0  0  0  0  0
  -38.1176   56.2279   62.9488 H   0  0  0  0  0  0  0  0  0  0  0  0
  -37.8799   59.2173   62.0245 H   0  0  0  0  0  0  0  0  0  0  0  0
  -37.2383   57.7881   64.4943 H   0  0  0  0  0  0  0  0  0  0  0  0
  -33.2605   59.0404   64.9763 H   0  0  0  0  0  0  0  0  0  0  0  0
  -36.7682   56.1704   69.8124 H   0  0  0  0  0  0  0  0  0  0  0  0
  -34.5274   58.5970   67.0221 H   0  0  0  0  0  0  0  0  0  0  0  0
  -32.7886   58.3817   67.3032 H   0  0  0  0  0  0  0  0  0  0  0  0
  -32.1332   56.3167   65.2881 H   0  0  0  0  0  0  0  0  0  0  0  0
  -31.2793   57.8287   65.4825 H   0  0  0  0  0  0  0  0  0  0  0  0
  -31.9230   57.3835   63.9203 H   0  0  0  0  0  0  0  0  0  0  0  0
  -38.8096   52.8455   61.2150 H   0  0  0  0  0  0  0  0  0  0  0  0
  -40.2713   52.1636   60.4517 H   0  0  0  0  0  0  0  0  0  0  0  0
  -40.9043   51.1249   62.5183 H   0  0  0  0  0  0  0  0  0  0  0  0
  -39.5066   51.8108   63.3208 H   0  0  0  0  0  0  0  0  0  0  0  0
  -38.0245   50.5736   61.8173 H   0  0  0  0  0  0  0  0  0  0  0  0
  -39.4564   49.8888   61.0175 H   0  0  0  0  0  0  0  0  0  0  0  0
  -38.4350   48.2843   62.5257 H   0  0  0  0  0  0  0  0  0  0  0  0
  -40.0743   48.7738   63.0370 H   0  0  0  0  0  0  0  0  0  0  0  0
  -39.1579   50.1712   64.7501 H   0  0  0  0  0  0  0  0  0  0  0  0
  -37.5203   49.7237   64.2406 H   0  0  0  0  0  0  0  0  0  0  0  0
  -37.9234   47.4315   64.8754 H   0  0  0  0  0  0  0  0  0  0  0  0
  -39.5745   47.8862   65.3781 H   0  0  0  0  0  0  0  0  0  0  0  0
  -38.6959   49.2440   67.1494 H   0  0  0  0  0  0  0  0  0  0  0  0
  -37.0447   48.8234   66.6464 H   0  0  0  0  0  0  0  0  0  0  0  0
  -37.7134   47.5767   68.6070 H   0  0  0  0  0  0  0  0  0  0  0  0
  -37.4494   46.5388   67.1712 H   0  0  0  0  0  0  0  0  0  0  0  0
  -39.7983   46.2719   66.8878 H   0  0  0  0  0  0  0  0  0  0  0  0
  -40.1033   47.3234   68.2673 H   0  0  0  0  0  0  0  0  0  0  0  0
  -38.9876   45.7443   69.7381 H   0  0  0  0  0  0  0  0  0  0  0  0
  -38.6821   44.6930   68.3343 H   0  0  0  0  0  0  0  0  0  0  0  0
  -41.3688   45.3793   69.4351 H   0  0  0  0  0  0  0  0  0  0  0  0
  -40.4625   43.8454   69.6482 H   0  0  0  0  0  0  0  0  0  0  0  0
  -40.6569   43.3654   67.3379 H   0  0  0  0  0  0  0  0  0  0  0  0
  -41.5331   44.8993   67.0982 H   0  0  0  0  0  0  0  0  0  0  0  0
  -42.5359   42.5788   68.7147 H   0  0  0  0  0  0  0  0  0  0  0  0
  -43.0553   43.0029   67.0853 H   0  0  0  0  0  0  0  0  0  0  0  0
  -43.8629   45.1414   67.8811 H   0  0  0  0  0  0  0  0  0  0  0  0
  -43.3318   44.6602   69.5381 H   0  0  0  0  0  0  0  0  0  0  0  0
  -45.5872   43.4556   68.0127 H   0  0  0  0  0  0  0  0  0  0  0  0
  -45.7184   44.5468   69.3711 H   0  0  0  0  0  0  0  0  0  0  0  0
  -45.0186   42.9606   69.5890 H   0  0  0  0  0  0  0  0  0  0  0  0
  -30.6061   53.2105   69.8746 H   0  0  0  0  0  0  0  0  0  0  0  0
  -31.9771   53.9583   69.0708 H   0  0  0  0  0  0  0  0  0  0  0  0
  -31.1588   54.1570   71.8116 H   0  0  0  0  0  0  0  0  0  0  0  0
  -32.6437   54.7384   70.9970 H   0  0  0  0  0  0  0  0  0  0  0  0
  -30.1082   56.2725   71.1017 H   0  0  0  0  0  0  0  0  0  0  0  0
  -31.4573   56.4553   72.2382 H   0  0  0  0  0  0  0  0  0  0  0  0
  -31.3779   58.1120   70.3976 H   0  0  0  0  0  0  0  0  0  0  0  0
  -32.8910   57.1184   70.5787 H   0  0  0  0  0  0  0  0  0  0  0  0
  -32.0037   57.7595   68.2506 H   0  0  0  0  0  0  0  0  0  0  0  0
  -40.6388   58.5299   65.5112 H   0  0  0  0  0  0  0  0  0  0  0  0
  -39.5041   58.6376   64.2206 H   0  0  0  0  0  0  0  0  0  0  0  0
  -39.2058   59.6850   66.8607 H   0  0  0  0  0  0  0  0  0  0  0  0
  -36.2985   53.8998   69.3799 H   0  0  0  0  0  0  0  0  0  0  0  0
  -36.3356   52.0592   67.7957 H   0  0  0  0  0  0  0  0  0  0  0  0
  -37.2430   52.3824   65.5627 H   0  0  0  0  0  0  0  0  0  0  0  0
  -38.1007   54.5666   64.9262 H   0  0  0  0  0  0  0  0  0  0  0  0
  1  2  1  0  0  0  0
  1  5  1  0  0  0  0
  1  7  1  0  0  0  0
  2 18  2  0  0  0  0
  2 29  1  0  0  0  0
  3 21  2  0  0  0  0
  4  6  1  0  0  0  0
  4 59  1  0  0  0  0
  4 60  1  0  0  0  0
  4 61  1  0  0  0  0
  5 62  1  0  0  0  0
  6 14  1  0  0  0  0
  7 10  1  0  0  0  0
  7 63  1  0  0  0  0
  7 64  1  0  0  0  0
  8 27  1  0  0  0  0
  8 48  1  0  0  0  0
  8 65  1  0  0  0  0
  9 21  1  0  0  0  0
  9 23  1  0  0  0  0
 10 13  1  0  0  0  0
 10 66  1  0  0  0  0
 10 67  1  0  0  0  0
 11 19  1  0  0  0  0
 11 28  1  0  0  0  0
 11 68  1  0  0  0  0
 12 27  2  0  0  0  0
 13 16  2  0  0  0  0
 13 69  1  0  0  0  0
 14 44  1  0  0  0  0
 14 49  1  0  0  0  0
 15 28  2  0  0  0  0
 16 19  1  0  0  0  0
 16 70  1  0  0  0  0
 17 51  2  0  0  0  0
 17 52  1  0  0  0  0
 19 21  1  0  0  0  0
 19 71  1  1  0  0  0
 20 49  2  0  0  0  0
 22 50  1  0  0  0  0
 22 51  1  0  0  0  0
 23 25  1  0  0  0  0
 23 26  1  0  0  0  0
 23 72  1  6  0  0  0
 24 53  1  0  0  0  0
 24 73  1  0  0  0  0
 25 27  1  0  0  0  0
 25 74  1  0  0  0  0
 25 75  1  0  0  0  0
 26 76  1  0  0  0  0
 26 77  1  0  0  0  0
 26 78  1  0  0  0  0
 28 52  1  0  0  0  0
 29 30  1  0  0  0  0
 29 79  1  0  0  0  0
 29 80  1  0  0  0  0
 30 31  1  0  0  0  0
 30 81  1  0  0  0  0
 30 82  1  0  0  0  0
 31 32  1  0  0  0  0
 31 83  1  0  0  0  0
 31 84  1  0  0  0  0
 32 33  1  0  0  0  0
 32 85  1  0  0  0  0
 32 86  1  0  0  0  0
 33 34  1  0  0  0  0
 33 87  1  0  0  0  0
 33 88  1  0  0  0  0
 34 35  1  0  0  0  0
 34 89  1  0  0  0  0
 34 90  1  0  0  0  0
 35 36  1  0  0  0  0
 35 91  1  0  0  0  0
 35 92  1  0  0  0  0
 36 37  1  0  0  0  0
 36 93  1  0  0  0  0
 36 94  1  0  0  0  0
 37 38  1  0  0  0  0
 37 95  1  0  0  0  0
 37 96  1  0  0  0  0
 38 39  1  0  0  0  0
 38 97  1  0  0  0  0
 38 98  1  0  0  0  0
 39 40  1  0  0  0  0
 39 99  1  0  0  0  0
 39100  1  0  0  0  0
 40 41  1  0  0  0  0
 40101  1  0  0  0  0
 40102  1  0  0  0  0
 41 42  1  0  0  0  0
 41103  1  0  0  0  0
 41104  1  0  0  0  0
 42 43  1  0  0  0  0
 42105  1  0  0  0  0
 42106  1  0  0  0  0
 43107  1  0  0  0  0
 43108  1  0  0  0  0
 43109  1  0  0  0  0
 44 45  1  0  0  0  0
 44110  1  0  0  0  0
 44111  1  0  0  0  0
 45 46  1  0  0  0  0
 45112  1  0  0  0  0
 45113  1  0  0  0  0
 46 47  1  0  0  0  0
 46114  1  0  0  0  0
 46115  1  0  0  0  0
 47 48  1  0  0  0  0
 47116  1  0  0  0  0
 47117  1  0  0  0  0
 48 49  1  0  0  0  0
 48118  1  6  0  0  0
 50 52  1  0  0  0  0
 50119  1  0  0  0  0
 50120  1  0  0  0  0
 51 58  1  0  0  0  0
 52121  1  1  0  0  0
 53 54  2  0  0  0  0
 53 58  1  0  0  0  0
 54 55  1  0  0  0  0
 54122  1  0  0  0  0
 55 56  2  0  0  0  0
 55123  1  0  0  0  0
 56 57  1  0  0  0  0
 56124  1  0  0  0  0
 57 58  2  0  0  0  0
 57125  1  0  0  0  0
M  END
$$$$
/media/chris/experiments/cd1a-new-docking/inputs/ligands/1xz0_ligand.pdb
 OpenBabel07022319323D

125127  0  0  1  0  0  0  0  0999 V2000
  -36.9376   55.0195   60.2363 N   0  0  0  0  0  0  0  0  0  0  0  0
  -35.6897   54.5116   60.0560 C   0  0  0  0  0  0  0  0  0  0  0  0
  -34.6358   57.6816   64.4788 O   0  0  0  0  0  0  0  0  0  0  0  0
  -37.3131   64.9984   61.5957 Si  0  0  0  0  0  0  0  0  0  0  0  0
  -37.8498   54.2306   60.9511 O   0  0  0  0  0  0  0  0  0  0  0  0
  -38.2717   63.5760   61.0919 O   0  0  0  0  0  0  0  0  0  0  0  0
  -37.4866   56.3018   59.7847 C   0  0  0  0  0  0  0  0  0  0  0  0
  -35.6695   60.3473   59.4618 N   0  0  0  0  0  0  0  0  0  0  0  0
  -34.6370   58.8922   62.5105 O   0  0  0  0  0  0  0  0  0  0  0  0
  -38.5576   56.7536   60.7988 C   0  0  0  0  0  0  0  0  0  0  0  0
  -36.8950   59.8150   64.6310 N   0  0  0  0  0  0  0  0  0  0  0  0
  -33.4205   60.1910   59.6437 O   0  0  0  0  0  0  0  0  0  0  0  0
  -38.1064   56.9875   62.2504 C   0  0  0  0  0  0  0  0  0  0  0  0
  -37.6898   62.5633   60.3906 N   0  0  0  0  0  0  0  0  0  0  0  0
  -35.2587   61.0902   63.6986 O   0  0  0  0  0  0  0  0  0  0  0  0
  -37.6390   58.4030   62.6110 C   0  0  0  0  0  0  0  0  0  0  0  0
  -35.2204   62.4137   66.2625 N   0  0  0  0  0  0  0  0  0  0  0  0
  -34.8252   55.1453   59.4511 O   0  0  0  0  0  0  0  0  0  0  0  0
  -36.7890   58.5530   63.8960 C   0  0  1  0  0  0  0  0  0  0  0  0
  -35.6704   63.5198   60.6597 O   0  0  0  0  0  0  0  0  0  0  0  0
  -35.3080   58.3090   63.6770 C   0  0  0  0  0  0  0  0  0  0  0  0
  -36.7793   62.1456   67.8405 O   0  0  0  0  0  0  0  0  0  0  0  0
  -33.9487   58.0670   61.5518 C   0  0  1  0  0  0  0  0  0  0  0  0
  -35.9705   63.7508   70.0383 O   0  0  0  0  0  0  0  0  0  0  0  0
  -34.5979   58.2699   60.1910 C   0  0  0  0  0  0  0  0  0  0  0  0
  -32.4442   58.2979   61.4831 C   0  0  0  0  0  0  0  0  0  0  0  0
  -34.5227   59.6959   59.7041 C   0  0  0  0  0  0  0  0  0  0  0  0
  -36.1713   60.9404   64.5004 C   0  0  0  0  0  0  0  0  0  0  0  0
  -35.3666   53.1218   60.6148 C   0  0  0  0  0  0  0  0  0  0  0  0
  -33.9250   52.6568   60.3679 C   0  0  0  0  0  0  0  0  0  0  0  0
  -33.6343   52.6165   58.8552 C   0  0  0  0  0  0  0  0  0  0  0  0
  -34.5690   51.6733   58.0743 C   0  0  0  0  0  0  0  0  0  0  0  0
  -34.2891   51.6009   56.5615 C   0  0  0  0  0  0  0  0  0  0  0  0
  -32.8702   51.0880   56.2375 C   0  0  0  0  0  0  0  0  0  0  0  0
  -32.5429   51.0167   54.7277 C   0  0  0  0  0  0  0  0  0  0  0  0
  -32.6183   52.3757   54.0224 C   0  0  0  0  0  0  0  0  0  0  0  0
  -31.6543   53.4428   54.5506 C   0  0  0  0  0  0  0  0  0  0  0  0
  -31.8186   54.7723   53.7918 C   0  0  0  0  0  0  0  0  0  0  0  0
  -30.8656   55.8807   54.2642 C   0  0  0  0  0  0  0  0  0  0  0  0
  -30.9828   56.2750   55.7402 C   0  0  0  0  0  0  0  0  0  0  0  0
  -32.3852   56.7879   56.1521 C   0  0  0  0  0  0  0  0  0  0  0  0
  -33.4680   55.7125   55.9297 C   0  0  0  0  0  0  0  0  0  0  0  0
  -34.9121   56.0904   56.2806 C   0  0  0  0  0  0  0  0  0  0  0  0
  -38.5521   61.4378   60.0012 C   0  0  0  0  0  0  0  0  0  0  0  0
  -38.7581   61.4116   58.4749 C   0  0  0  0  0  0  0  0  0  0  0  0
  -37.9116   62.3992   57.6890 C   0  0  0  0  0  0  0  0  0  0  0  0
  -36.4167   62.0712   57.7296 C   0  0  0  0  0  0  0  0  0  0  0  0
  -35.7607   61.7628   59.0858 C   0  0  1  0  0  0  0  0  0  0  0  0
  -36.3787   62.6777   60.1250 C   0  0  0  0  0  0  0  0  0  0  0  0
  -37.4727   61.8763   66.6226 C   0  0  0  0  0  0  0  0  0  0  0  0
  -35.4086   62.4475   67.5119 C   0  0  0  0  0  0  0  0  0  0  0  0
  -36.4281   62.0691   65.4884 C   0  0  1  0  0  0  0  0  0  0  0  0
  -34.7048   63.4269   69.7470 C   0  0  0  0  0  0  0  0  0  0  0  0
  -33.6881   63.7076   70.6692 C   0  0  0  0  0  0  0  0  0  0  0  0
  -32.3506   63.3862   70.3830 C   0  0  0  0  0  0  0  0  0  0  0  0
  -32.0157   62.7712   69.1754 C   0  0  0  0  0  0  0  0  0  0  0  0
  -33.0272   62.4833   68.2548 C   0  0  0  0  0  0  0  0  0  0  0  0
  -34.3674   62.8122   68.5350 C   0  0  0  0  0  0  0  0  0  0  0  0
  -38.1457   65.9026   62.3067 H   0  0  0  0  0  0  0  0  0  0  0  0
  -36.7853   65.6445   60.4466 H   0  0  0  0  0  0  0  0  0  0  0  0
  -36.2468   64.5778   62.4339 H   0  0  0  0  0  0  0  0  0  0  0  0
  -37.4216   53.4019   61.2172 H   0  0  0  0  0  0  0  0  0  0  0  0
  -37.9300   56.1853   58.8179 H   0  0  0  0  0  0  0  0  0  0  0  0
  -36.7087   57.0336   59.7192 H   0  0  0  0  0  0  0  0  0  0  0  0
  -36.5095   59.8401   59.5418 H   0  0  0  0  0  0  0  0  0  0  0  0
  -39.3191   56.0021   60.8169 H   0  0  0  0  0  0  0  0  0  0  0  0
  -38.8726   57.7157   60.4525 H   0  0  0  0  0  0  0  0  0  0  0  0
  -37.5975   59.8434   65.3202 H   0  0  0  0  0  0  0  0  0  0  0  0
  -38.1176   56.2279   62.9488 H   0  0  0  0  0  0  0  0  0  0  0  0
  -37.8799   59.2173   62.0245 H   0  0  0  0  0  0  0  0  0  0  0  0
  -37.2383   57.7881   64.4943 H   0  0  0  0  0  0  0  0  0  0  0  0
  -34.0466   57.0520   61.8759 H   0  0  0  0  0  0  0  0  0  0  0  0
  -36.1727   64.1616   70.8558 H   0  0  0  0  0  0  0  0  0  0  0  0
  -35.6277   57.9878   60.2600 H   0  0  0  0  0  0  0  0  0  0  0  0
  -34.0620   57.6653   59.4894 H   0  0  0  0  0  0  0  0  0  0  0  0
  -32.2515   59.3007   61.1633 H   0  0  0  0  0  0  0  0  0  0  0  0
  -32.0095   57.6117   60.7866 H   0  0  0  0  0  0  0  0  0  0  0  0
  -32.0150   58.1436   62.4510 H   0  0  0  0  0  0  0  0  0  0  0  0
  -36.0285   52.4158   60.1583 H   0  0  0  0  0  0  0  0  0  0  0  0
  -35.4891   53.1841   61.6759 H   0  0  0  0  0  0  0  0  0  0  0  0
  -33.7932   51.6782   60.7799 H   0  0  0  0  0  0  0  0  0  0  0  0
  -33.2503   53.3425   60.8364 H   0  0  0  0  0  0  0  0  0  0  0  0
  -32.6260   52.2882   58.7128 H   0  0  0  0  0  0  0  0  0  0  0  0
  -33.7970   53.6042   58.4773 H   0  0  0  0  0  0  0  0  0  0  0  0
  -35.5749   52.0112   58.2117 H   0  0  0  0  0  0  0  0  0  0  0  0
  -34.3998   50.6901   58.4612 H   0  0  0  0  0  0  0  0  0  0  0  0
  -34.4010   52.5807   56.1463 H   0  0  0  0  0  0  0  0  0  0  0  0
  -34.9857   50.9075   56.1387 H   0  0  0  0  0  0  0  0  0  0  0  0
  -32.7684   50.1052   56.6483 H   0  0  0  0  0  0  0  0  0  0  0  0
  -32.1873   51.7928   56.6639 H   0  0  0  0  0  0  0  0  0  0  0  0
  -33.2403   50.3532   54.2606 H   0  0  0  0  0  0  0  0  0  0  0  0
  -31.5340   50.6712   54.6398 H   0  0  0  0  0  0  0  0  0  0  0  0
  -33.6153   52.7489   54.1300 H   0  0  0  0  0  0  0  0  0  0  0  0
  -32.3340   52.1975   53.0064 H   0  0  0  0  0  0  0  0  0  0  0  0
  -30.6496   53.0949   54.4300 H   0  0  0  0  0  0  0  0  0  0  0  0
  -31.8748   53.6147   55.5834 H   0  0  0  0  0  0  0  0  0  0  0  0
  -32.8241   55.1136   53.9240 H   0  0  0  0  0  0  0  0  0  0  0  0
  -31.5828   54.5761   52.7668 H   0  0  0  0  0  0  0  0  0  0  0  0
  -31.0582   56.7528   53.6749 H   0  0  0  0  0  0  0  0  0  0  0  0
  -29.8782   55.4857   54.1459 H   0  0  0  0  0  0  0  0  0  0  0  0
  -30.2711   57.0491   55.9380 H   0  0  0  0  0  0  0  0  0  0  0  0
  -30.8005   55.3880   56.3103 H   0  0  0  0  0  0  0  0  0  0  0  0
  -32.6261   57.6502   55.5662 H   0  0  0  0  0  0  0  0  0  0  0  0
  -32.3615   57.0300   57.1941 H   0  0  0  0  0  0  0  0  0  0  0  0
  -33.2042   54.8622   56.5234 H   0  0  0  0  0  0  0  0  0  0  0  0
  -33.4758   55.5427   54.8733 H   0  0  0  0  0  0  0  0  0  0  0  0
  -34.9865   56.2775   57.3315 H   0  0  0  0  0  0  0  0  0  0  0  0
  -35.5659   55.2863   56.0143 H   0  0  0  0  0  0  0  0  0  0  0  0
  -35.1915   56.9709   55.7408 H   0  0  0  0  0  0  0  0  0  0  0  0
  -39.5024   61.5408   60.4821 H   0  0  0  0  0  0  0  0  0  0  0  0
  -38.0815   60.5246   60.3003 H   0  0  0  0  0  0  0  0  0  0  0  0
  -39.7873   61.6269   58.2764 H   0  0  0  0  0  0  0  0  0  0  0  0
  -38.4541   60.4379   58.1517 H   0  0  0  0  0  0  0  0  0  0  0  0
  -38.0575   63.3762   58.1002 H   0  0  0  0  0  0  0  0  0  0  0  0
  -38.2233   62.3452   56.6668 H   0  0  0  0  0  0  0  0  0  0  0  0
  -35.8995   62.9107   57.3142 H   0  0  0  0  0  0  0  0  0  0  0  0
  -36.3400   61.1501   57.1906 H   0  0  0  0  0  0  0  0  0  0  0  0
  -34.7161   61.9801   59.0050 H   0  0  0  0  0  0  0  0  0  0  0  0
  -38.2872   62.5590   66.4989 H   0  0  0  0  0  0  0  0  0  0  0  0
  -37.8848   60.8888   66.6144 H   0  0  0  0  0  0  0  0  0  0  0  0
  -36.7905   62.7963   64.7921 H   0  0  0  0  0  0  0  0  0  0  0  0
  -33.9242   64.1554   71.5685 H   0  0  0  0  0  0  0  0  0  0  0  0
  -31.6118   63.6060   71.0693 H   0  0  0  0  0  0  0  0  0  0  0  0
  -31.0341   62.5322   68.9651 H   0  0  0  0  0  0  0  0  0  0  0  0
  -32.7895   62.0253   67.3610 H   0  0  0  0  0  0  0  0  0  0  0  0
  1  2  1  0  0  0  0
  1  5  1  0  0  0  0
  1  7  1  0  0  0  0
  2 18  2  0  0  0  0
  2 29  1  0  0  0  0
  3 21  2  0  0  0  0
  4  6  1  0  0  0  0
  4 59  1  0  0  0  0
  4 60  1  0  0  0  0
  4 61  1  0  0  0  0
  5 62  1  0  0  0  0
  6 14  1  0  0  0  0
  7 10  1  0  0  0  0
  7 63  1  0  0  0  0
  7 64  1  0  0  0  0
  8 27  1  0  0  0  0
  8 48  1  0  0  0  0
  8 65  1  0  0  0  0
  9 21  1  0  0  0  0
  9 23  1  0  0  0  0
 10 13  1  0  0  0  0
 10 66  1  0  0  0  0
 10 67  1  0  0  0  0
 11 19  1  0  0  0  0
 11 28  1  0  0  0  0
 11 68  1  0  0  0  0
 12 27  2  0  0  0  0
 13 16  2  0  0  0  0
 13 69  1  0  0  0  0
 14 44  1  0  0  0  0
 14 49  1  0  0  0  0
 15 28  2  0  0  0  0
 16 19  1  0  0  0  0
 16 70  1  0  0  0  0
 17 51  2  0  0  0  0
 17 52  1  0  0  0  0
 19 21  1  0  0  0  0
 19 71  1  1  0  0  0
 20 49  2  0  0  0  0
 22 50  1  0  0  0  0
 22 51  1  0  0  0  0
 23 25  1  0  0  0  0
 23 26  1  0  0  0  0
 23 72  1  1  0  0  0
 24 53  1  0  0  0  0
 24 73  1  0  0  0  0
 25 27  1  0  0  0  0
 25 74  1  0  0  0  0
 25 75  1  0  0  0  0
 26 76  1  0  0  0  0
 26 77  1  0  0  0  0
 26 78  1  0  0  0  0
 28 52  1  0  0  0  0
 29 30  1  0  0  0  0
 29 79  1  0  0  0  0
 29 80  1  0  0  0  0
 30 31  1  0  0  0  0
 30 81  1  0  0  0  0
 30 82  1  0  0  0  0
 31 32  1  0  0  0  0
 31 83  1  0  0  0  0
 31 84  1  0  0  0  0
 32 33  1  0  0  0  0
 32 85  1  0  0  0  0
 32 86  1  0  0  0  0
 33 34  1  0  0  0  0
 33 87  1  0  0  0  0
 33 88  1  0  0  0  0
 34 35  1  0  0  0  0
 34 89  1  0  0  0  0
 34 90  1  0  0  0  0
 35 36  1  0  0  0  0
 35 91  1  0  0  0  0
 35 92  1  0  0  0  0
 36 37  1  0  0  0  0
 36 93  1  0  0  0  0
 36 94  1  0  0  0  0
 37 38  1  0  0  0  0
 37 95  1  0  0  0  0
 37 96  1  0  0  0  0
 38 39  1  0  0  0  0
 38 97  1  0  0  0  0
 38 98  1  0  0  0  0
 39 40  1  0  0  0  0
 39 99  1  0  0  0  0
 39100  1  0  0  0  0
 40 41  1  0  0  0  0
 40101  1  0  0  0  0
 40102  1  0  0  0  0
 41 42  1  0  0  0  0
 41103  1  0  0  0  0
 41104  1  0  0  0  0
 42 43  1  0  0  0  0
 42105  1  0  0  0  0
 42106  1  0  0  0  0
 43107  1  0  0  0  0
 43108  1  0  0  0  0
 43109  1  0  0  0  0
 44 45  1  0  0  0  0
 44110  1  0  0  0  0
 44111  1  0  0  0  0
 45 46  1  0  0  0  0
 45112  1  0  0  0  0
 45113  1  0  0  0  0
 46 47  1  0  0  0  0
 46114  1  0  0  0  0
 46115  1  0  0  0  0
 47 48  1  0  0  0  0
 47116  1  0  0  0  0
 47117  1  0  0  0  0
 48 49  1  0  0  0  0
 48118  1  6  0  0  0
 50 52  1  0  0  0  0
 50119  1  0  0  0  0
 50120  1  0  0  0  0
 51 58  1  0  0  0  0
 52121  1  6  0  0  0
 53 54  2  0  0  0  0
 53 58  1  0  0  0  0
 54 55  1  0  0  0  0
 54122  1  0  0  0  0
 55 56  2  0  0  0  0
 55123  1  0  0  0  0
 56 57  1  0  0  0  0
 56124  1  0  0  0  0
 57 58  2  0  0  0  0
 57125  1  0  0  0  0
M  END
$$$$
/media/chris/experiments/cd1a-new-docking/inputs/ligands/1xz0_ligand.pdb
 OpenBabel07022319323D

125127  0  0  1  0  0  0  0  0999 V2000
  -36.3713   58.4855   58.3441 N   0  0  0  0  0  0  0  0  0  0  0  0
  -35.5591   57.6339   57.6639 C   0  0  0  0  0  0  0  0  0  0  0  0
  -34.7303   58.7191   62.6838 O   0  0  0  0  0  0  0  0  0  0  0  0
  -30.7958   51.8849   62.7164 Si  0  0  0  0  0  0  0  0  0  0  0  0
  -35.8627   59.7605   58.6290 O   0  0  0  0  0  0  0  0  0  0  0  0
  -30.3312   53.3054   61.7353 O   0  0  0  0  0  0  0  0  0  0  0  0
  -37.7348   58.2656   58.8364 C   0  0  0  0  0  0  0  0  0  0  0  0
  -33.3084   56.6087   61.4577 N   0  0  0  0  0  0  0  0  0  0  0  0
  -34.5507   57.5039   64.6410 O   0  0  0  0  0  0  0  0  0  0  0  0
  -37.9322   59.1139   60.1095 C   0  0  0  0  0  0  0  0  0  0  0  0
  -36.8950   59.8150   64.6310 N   0  0  0  0  0  0  0  0  0  0  0  0
  -32.6027   58.6481   62.1347 O   0  0  0  0  0  0  0  0  0  0  0  0
  -36.9889   58.8455   61.2943 C   0  0  0  0  0  0  0  0  0  0  0  0
  -31.2645   54.2277   61.3688 N   0  0  0  0  0  0  0  0  0  0  0  0
  -37.9248   61.7067   65.3617 O   0  0  0  0  0  0  0  0  0  0  0  0
  -37.6390   58.4030   62.6110 C   0  0  0  0  0  0  0  0  0  0  0  0
  -39.7804   58.9936   64.6904 N   0  0  0  0  0  0  0  0  0  0  0  0
  -35.9335   56.5007   57.3626 O   0  0  0  0  0  0  0  0  0  0  0  0
  -36.7890   58.5530   63.8960 C   0  0  1  0  0  0  0  0  0  0  0  0
  -32.3090   53.9755   63.3464 O   0  0  0  0  0  0  0  0  0  0  0  0
  -35.3080   58.3090   63.6770 C   0  0  0  0  0  0  0  0  0  0  0  0
  -39.8549   58.5826   62.4955 O   0  0  0  0  0  0  0  0  0  0  0  0
  -33.1344   57.6899   64.8237 C   0  0  1  0  0  0  0  0  0  0  0  0
  -41.7566   57.5636   66.1454 O   0  0  0  0  0  0  0  0  0  0  0  0
  -32.4066   56.9557   63.7076 C   0  0  0  0  0  0  0  0  0  0  0  0
  -32.6928   59.1461   64.9031 C   0  0  0  0  0  0  0  0  0  0  0  0
  -32.7608   57.4651   62.3323 C   0  0  0  0  0  0  0  0  0  0  0  0
  -37.9361   60.6601   64.7271 C   0  0  0  0  0  0  0  0  0  0  0  0
  -34.1524   58.1014   57.2759 C   0  0  0  0  0  0  0  0  0  0  0  0
  -33.0162   57.2514   57.8606 C   0  0  0  0  0  0  0  0  0  0  0  0
  -31.6522   57.8191   57.4229 C   0  0  0  0  0  0  0  0  0  0  0  0
  -30.4516   57.0128   57.9534 C   0  0  0  0  0  0  0  0  0  0  0  0
  -30.4097   55.5447   57.4897 C   0  0  0  0  0  0  0  0  0  0  0  0
  -30.3185   55.4021   55.9559 C   0  0  0  0  0  0  0  0  0  0  0  0
  -31.4916   56.0461   55.1807 C   0  0  0  0  0  0  0  0  0  0  0  0
  -31.3851   55.8752   53.6609 C   0  0  0  0  0  0  0  0  0  0  0  0
  -32.5172   56.5120   52.8487 C   0  0  0  0  0  0  0  0  0  0  0  0
  -33.8869   55.9303   53.2435 C   0  0  0  0  0  0  0  0  0  0  0  0
  -34.2581   56.1562   54.7169 C   0  0  0  0  0  0  0  0  0  0  0  0
  -35.6066   55.5790   55.1597 C   0  0  0  0  0  0  0  0  0  0  0  0
  -35.7221   54.0420   55.0054 C   0  0  0  0  0  0  0  0  0  0  0  0
  -37.1072   53.5318   55.4519 C   0  0  0  0  0  0  0  0  0  0  0  0
  -37.3567   52.0211   55.3685 C   0  0  0  0  0  0  0  0  0  0  0  0
  -31.0471   54.9295   60.0952 C   0  0  0  0  0  0  0  0  0  0  0  0
  -32.1012   54.5084   59.0540 C   0  0  0  0  0  0  0  0  0  0  0  0
  -33.2232   53.6313   59.5848 C   0  0  0  0  0  0  0  0  0  0  0  0
  -34.1422   54.3636   60.5662 C   0  0  0  0  0  0  0  0  0  0  0  0
  -33.5113   55.1772   61.7084 C   0  0  1  0  0  0  0  0  0  0  0  0
  -32.2953   54.4212   62.2071 C   0  0  0  0  0  0  0  0  0  0  0  0
  -39.3094   59.8985   62.5807 C   0  0  0  0  0  0  0  0  0  0  0  0
  -40.0924   58.1141   63.8379 C   0  0  0  0  0  0  0  0  0  0  0  0
  -39.2550   60.2376   64.0962 C   0  0  1  0  0  0  0  0  0  0  0  0
  -41.5028   56.5728   65.2820 C   0  0  0  0  0  0  0  0  0  0  0  0
  -42.0558   55.3043   65.5011 C   0  0  0  0  0  0  0  0  0  0  0  0
  -41.7968   54.2453   64.6148 C   0  0  0  0  0  0  0  0  0  0  0  0
  -40.9896   54.4454   63.4935 C   0  0  0  0  0  0  0  0  0  0  0  0
  -40.4406   55.7106   63.2670 C   0  0  0  0  0  0  0  0  0  0  0  0
  -40.6914   56.7716   64.1583 C   0  0  0  0  0  0  0  0  0  0  0  0
  -29.6495   51.0835   62.9614 H   0  0  0  0  0  0  0  0  0  0  0  0
  -31.7658   51.1216   62.0143 H   0  0  0  0  0  0  0  0  0  0  0  0
  -31.3412   52.3215   63.9526 H   0  0  0  0  0  0  0  0  0  0  0  0
  -34.9622   59.8356   58.2764 H   0  0  0  0  0  0  0  0  0  0  0  0
  -37.8739   57.2299   59.0664 H   0  0  0  0  0  0  0  0  0  0  0  0
  -38.4468   58.5496   58.0899 H   0  0  0  0  0  0  0  0  0  0  0  0
  -33.5944   56.9656   60.5858 H   0  0  0  0  0  0  0  0  0  0  0  0
  -38.9324   58.9496   60.4524 H   0  0  0  0  0  0  0  0  0  0  0  0
  -37.7114   60.1161   59.8066 H   0  0  0  0  0  0  0  0  0  0  0  0
  -36.0875   60.0833   65.1262 H   0  0  0  0  0  0  0  0  0  0  0  0
  -35.9667   58.9578   61.2074 H   0  0  0  0  0  0  0  0  0  0  0  0
  -38.5981   58.0231   62.6390 H   0  0  0  0  0  0  0  0  0  0  0  0
  -37.2383   57.7881   64.4943 H   0  0  0  0  0  0  0  0  0  0  0  0
  -32.8798   57.2831   65.7800 H   0  0  0  0  0  0  0  0  0  0  0  0
  -42.3027   57.4073   66.8906 H   0  0  0  0  0  0  0  0  0  0  0  0
  -32.6599   55.9176   63.7616 H   0  0  0  0  0  0  0  0  0  0  0  0
  -31.3588   57.1212   63.8482 H   0  0  0  0  0  0  0  0  0  0  0  0
  -32.9119   59.6363   63.9776 H   0  0  0  0  0  0  0  0  0  0  0  0
  -31.6400   59.1898   65.0893 H   0  0  0  0  0  0  0  0  0  0  0  0
  -33.2162   59.6346   65.6982 H   0  0  0  0  0  0  0  0  0  0  0  0
  -34.0280   59.1073   57.6188 H   0  0  0  0  0  0  0  0  0  0  0  0
  -34.0840   58.0110   56.2119 H   0  0  0  0  0  0  0  0  0  0  0  0
  -33.1100   56.2451   57.5094 H   0  0  0  0  0  0  0  0  0  0  0  0
  -33.0776   57.2710   58.9287 H   0  0  0  0  0  0  0  0  0  0  0  0
  -31.5718   58.8232   57.7838 H   0  0  0  0  0  0  0  0  0  0  0  0
  -31.6184   57.7676   56.3546 H   0  0  0  0  0  0  0  0  0  0  0  0
  -30.4883   57.0241   59.0227 H   0  0  0  0  0  0  0  0  0  0  0  0
  -29.5740   57.4806   57.5585 H   0  0  0  0  0  0  0  0  0  0  0  0
  -31.2997   55.0550   57.8259 H   0  0  0  0  0  0  0  0  0  0  0  0
  -29.5297   55.1012   57.9065 H   0  0  0  0  0  0  0  0  0  0  0  0
  -30.2935   54.3591   55.7183 H   0  0  0  0  0  0  0  0  0  0  0  0
  -29.4330   55.9215   55.6543 H   0  0  0  0  0  0  0  0  0  0  0  0
  -31.5113   57.0924   55.4036 H   0  0  0  0  0  0  0  0  0  0  0  0
  -32.3863   55.5486   55.4921 H   0  0  0  0  0  0  0  0  0  0  0  0
  -31.3737   54.8270   53.4463 H   0  0  0  0  0  0  0  0  0  0  0  0
  -30.4898   56.3829   53.3685 H   0  0  0  0  0  0  0  0  0  0  0  0
  -32.3467   56.3266   51.8088 H   0  0  0  0  0  0  0  0  0  0  0  0
  -32.5266   57.5628   53.0501 H   0  0  0  0  0  0  0  0  0  0  0  0
  -33.8716   54.8766   53.0577 H   0  0  0  0  0  0  0  0  0  0  0  0
  -34.6218   56.4404   52.6564 H   0  0  0  0  0  0  0  0  0  0  0  0
  -34.2789   57.2115   54.8924 H   0  0  0  0  0  0  0  0  0  0  0  0
  -33.5172   55.6354   55.2869 H   0  0  0  0  0  0  0  0  0  0  0  0
  -36.3756   56.0339   54.5711 H   0  0  0  0  0  0  0  0  0  0  0  0
  -35.7031   55.7909   56.2041 H   0  0  0  0  0  0  0  0  0  0  0  0
  -34.9694   53.5747   55.6055 H   0  0  0  0  0  0  0  0  0  0  0  0
  -35.5913   53.7975   53.9720 H   0  0  0  0  0  0  0  0  0  0  0  0
  -37.8406   54.0136   54.8396 H   0  0  0  0  0  0  0  0  0  0  0  0
  -37.1642   53.7640   56.4948 H   0  0  0  0  0  0  0  0  0  0  0  0
  -37.3153   51.7086   54.3460 H   0  0  0  0  0  0  0  0  0  0  0  0
  -38.3222   51.7963   55.7713 H   0  0  0  0  0  0  0  0  0  0  0  0
  -36.6068   51.5042   55.9300 H   0  0  0  0  0  0  0  0  0  0  0  0
  -30.0723   54.6903   59.7245 H   0  0  0  0  0  0  0  0  0  0  0  0
  -31.1322   55.9826   60.2641 H   0  0  0  0  0  0  0  0  0  0  0  0
  -31.6011   53.9706   58.2759 H   0  0  0  0  0  0  0  0  0  0  0  0
  -32.5652   55.4128   58.7198 H   0  0  0  0  0  0  0  0  0  0  0  0
  -32.7907   52.7904   60.0855 H   0  0  0  0  0  0  0  0  0  0  0  0
  -33.8203   53.3344   58.7481 H   0  0  0  0  0  0  0  0  0  0  0  0
  -34.7722   53.6255   61.0170 H   0  0  0  0  0  0  0  0  0  0  0  0
  -34.6288   55.1009   59.9625 H   0  0  0  0  0  0  0  0  0  0  0  0
  -34.2283   55.2478   62.4995 H   0  0  0  0  0  0  0  0  0  0  0  0
  -39.9364   60.5958   62.0653 H   0  0  0  0  0  0  0  0  0  0  0  0
  -38.3404   59.9528   62.1302 H   0  0  0  0  0  0  0  0  0  0  0  0
  -39.8019   61.1391   64.2779 H   0  0  0  0  0  0  0  0  0  0  0  0
  -42.6601   55.1461   66.3226 H   0  0  0  0  0  0  0  0  0  0  0  0
  -42.2053   53.3147   64.7936 H   0  0  0  0  0  0  0  0  0  0  0  0
  -40.8007   53.6691   62.8403 H   0  0  0  0  0  0  0  0  0  0  0  0
  -39.8458   55.8688   62.4387 H   0  0  0  0  0  0  0  0  0  0  0  0
  1  2  1  0  0  0  0
  1  5  1  0  0  0  0
  1  7  1  0  0  0  0
  2 18  2  0  0  0  0
  2 29  1  0  0  0  0
  3 21  2  0  0  0  0
  4  6  1  0  0  0  0
  4 59  1  0  0  0  0
  4 60  1  0  0  0  0
  4 61  1  0  0  0  0
  5 62  1  0  0  0  0
  6 14  1  0  0  0  0
  7 10  1  0  0  0  0
  7 63  1  0  0  0  0
  7 64  1  0  0  0  0
  8 27  1  0  0  0  0
  8 48  1  0  0  0  0
  8 65  1  0  0  0  0
  9 21  1  0  0  0  0
  9 23  1  0  0  0  0
 10 13  1  0  0  0  0
 10 66  1  0  0  0  0
 10 67  1  0  0  0  0
 11 19  1  0  0  0  0
 11 28  1  0  0  0  0
 11 68  1  0  0  0  0
 12 27  2  0  0  0  0
 13 16  2  0  0  0  0
 13 69  1  0  0  0  0
 14 44  1  0  0  0  0
 14 49  1  0  0  0  0
 15 28  2  0  0  0  0
 16 19  1  0  0  0  0
 16 70  1  0  0  0  0
 17 51  2  0  0  0  0
 17 52  1  0  0  0  0
 19 21  1  0  0  0  0
 19 71  1  1  0  0  0
 20 49  2  0  0  0  0
 22 50  1  0  0  0  0
 22 51  1  0  0  0  0
 23 25  1  0  0  0  0
 23 26  1  0  0  0  0
 23 72  1  1  0  0  0
 24 53  1  0  0  0  0
 24 73  1  0  0  0  0
 25 27  1  0  0  0  0
 25 74  1  0  0  0  0
 25 75  1  0  0  0  0
 26 76  1  0  0  0  0
 26 77  1  0  0  0  0
 26 78  1  0  0  0  0
 28 52  1  0  0  0  0
 29 30  1  0  0  0  0
 29 79  1  0  0  0  0
 29 80  1  0  0  0  0
 30 31  1  0  0  0  0
 30 81  1  0  0  0  0
 30 82  1  0  0  0  0
 31 32  1  0  0  0  0
 31 83  1  0  0  0  0
 31 84  1  0  0  0  0
 32 33  1  0  0  0  0
 32 85  1  0  0  0  0
 32 86  1  0  0  0  0
 33 34  1  0  0  0  0
 33 87  1  0  0  0  0
 33 88  1  0  0  0  0
 34 35  1  0  0  0  0
 34 89  1  0  0  0  0
 34 90  1  0  0  0  0
 35 36  1  0  0  0  0
 35 91  1  0  0  0  0
 35 92  1  0  0  0  0
 36 37  1  0  0  0  0
 36 93  1  0  0  0  0
 36 94  1  0  0  0  0
 37 38  1  0  0  0  0
 37 95  1  0  0  0  0
 37 96  1  0  0  0  0
 38 39  1  0  0  0  0
 38 97  1  0  0  0  0
 38 98  1  0  0  0  0
 39 40  1  0  0  0  0
 39 99  1  0  0  0  0
 39100  1  0  0  0  0
 40 41  1  0  0  0  0
 40101  1  0  0  0  0
 40102  1  0  0  0  0
 41 42  1  0  0  0  0
 41103  1  0  0  0  0
 41104  1  0  0  0  0
 42 43  1  0  0  0  0
 42105  1  0  0  0  0
 42106  1  0  0  0  0
 43107  1  0  0  0  0
 43108  1  0  0  0  0
 43109  1  0  0  0  0
 44 45  1  0  0  0  0
 44110  1  0  0  0  0
 44111  1  0  0  0  0
 45 46  1  0  0  0  0
 45112  1  0  0  0  0
 45113  1  0  0  0  0
 46 47  1  0  0  0  0
 46114  1  0  0  0  0
 46115  1  0  0  0  0
 47 48  1  0  0  0  0
 47116  1  0  0  0  0
 47117  1  0  0  0  0
 48 49  1  0  0  0  0
 48118  1  1  0  0  0
 50 52  1  0  0  0  0
 50119  1  0  0  0  0
 50120  1  0  0  0  0
 51 58  1  0  0  0  0
 52121  1  1  0  0  0
 53 54  2  0  0  0  0
 53 58  1  0  0  0  0
 54 55  1  0  0  0  0
 54122  1  0  0  0  0
 55 56  2  0  0  0  0
 55123  1  0  0  0  0
 56 57  1  0  0  0  0
 56124  1  0  0  0  0
 57 58  2  0  0  0  0
 57125  1  0  0  0  0
M  END
$$$$
/media/chris/experiments/cd1a-new-docking/inputs/ligands/1xz0_ligand.pdb
 OpenBabel07022319323D

125127  0  0  1  0  0  0  0  0999 V2000
  -41.2793   56.3510   62.9529 N   0  0  0  0  0  0  0  0  0  0  0  0
  -41.4225   55.2667   63.7600 C   0  0  0  0  0  0  0  0  0  0  0  0
  -34.5332   58.1855   64.6113 O   0  0  0  0  0  0  0  0  0  0  0  0
  -36.6980   60.2253   55.5781 Si  0  0  0  0  0  0  0  0  0  0  0  0
  -41.9890   57.5072   63.3066 O   0  0  0  0  0  0  0  0  0  0  0  0
  -37.2648   60.0038   57.2591 O   0  0  0  0  0  0  0  0  0  0  0  0
  -40.4727   56.4971   61.7372 C   0  0  0  0  0  0  0  0  0  0  0  0
  -34.3438   57.6588   59.6717 N   0  0  0  0  0  0  0  0  0  0  0  0
  -34.7660   58.2851   62.3144 O   0  0  0  0  0  0  0  0  0  0  0  0
  -40.0251   57.9692   61.6276 C   0  0  0  0  0  0  0  0  0  0  0  0
  -36.8950   59.8150   64.6310 N   0  0  0  0  0  0  0  0  0  0  0  0
  -32.6100   56.2100   59.5679 O   0  0  0  0  0  0  0  0  0  0  0  0
  -39.1591   58.5341   62.7662 C   0  0  0  0  0  0  0  0  0  0  0  0
  -36.6142   59.1538   58.1018 N   0  0  0  0  0  0  0  0  0  0  0  0
  -35.2587   61.0902   63.6986 O   0  0  0  0  0  0  0  0  0  0  0  0
  -37.6390   58.4030   62.6110 C   0  0  0  0  0  0  0  0  0  0  0  0
  -35.2204   62.4137   66.2625 N   0  0  0  0  0  0  0  0  0  0  0  0
  -42.1448   55.3048   64.7558 O   0  0  0  0  0  0  0  0  0  0  0  0
  -36.7890   58.5530   63.8960 C   0  0  1  0  0  0  0  0  0  0  0  0
  -35.0029   58.8400   56.5621 O   0  0  0  0  0  0  0  0  0  0  0  0
  -35.3080   58.3090   63.6770 C   0  0  0  0  0  0  0  0  0  0  0  0
  -36.7793   62.1456   67.8405 O   0  0  0  0  0  0  0  0  0  0  0  0
  -33.4308   58.7440   62.0310 C   0  0  1  0  0  0  0  0  0  0  0  0
  -35.8680   62.5220   70.3720 O   0  0  0  0  0  0  0  0  0  0  0  0
  -32.6435   57.5881   61.4324 C   0  0  0  0  0  0  0  0  0  0  0  0
  -33.3619   59.9768   61.1381 C   0  0  0  0  0  0  0  0  0  0  0  0
  -33.2331   57.0731   60.1427 C   0  0  0  0  0  0  0  0  0  0  0  0
  -36.1713   60.9404   64.5004 C   0  0  0  0  0  0  0  0  0  0  0  0
  -40.6615   53.9815   63.4177 C   0  0  0  0  0  0  0  0  0  0  0  0
  -40.9111   52.8178   64.3866 C   0  0  0  0  0  0  0  0  0  0  0  0
  -40.0866   51.5882   63.9594 C   0  0  0  0  0  0  0  0  0  0  0  0
  -40.4150   51.0909   62.5388 C   0  0  0  0  0  0  0  0  0  0  0  0
  -40.1542   52.1198   61.4229 C   0  0  0  0  0  0  0  0  0  0  0  0
  -38.6765   52.5570   61.3430 C   0  0  0  0  0  0  0  0  0  0  0  0
  -38.3754   53.6037   60.2451 C   0  0  0  0  0  0  0  0  0  0  0  0
  -38.7280   53.1243   58.8323 C   0  0  0  0  0  0  0  0  0  0  0  0
  -40.2033   52.7788   58.6063 C   0  0  0  0  0  0  0  0  0  0  0  0
  -40.4516   52.2927   57.1668 C   0  0  0  0  0  0  0  0  0  0  0  0
  -41.9186   51.9458   56.8711 C   0  0  0  0  0  0  0  0  0  0  0  0
  -42.5331   50.8496   57.7477 C   0  0  0  0  0  0  0  0  0  0  0  0
  -44.0073   50.5158   57.4086 C   0  0  0  0  0  0  0  0  0  0  0  0
  -44.1530   50.0090   55.9594 C   0  0  0  0  0  0  0  0  0  0  0  0
  -45.5661   49.6554   55.4804 C   0  0  0  0  0  0  0  0  0  0  0  0
  -37.1545   59.0173   59.4624 C   0  0  0  0  0  0  0  0  0  0  0  0
  -37.7561   57.6149   59.6718 C   0  0  0  0  0  0  0  0  0  0  0  0
  -37.5126   56.6290   58.5411 C   0  0  0  0  0  0  0  0  0  0  0  0
  -36.0404   56.2338   58.3983 C   0  0  0  0  0  0  0  0  0  0  0  0
  -34.9724   57.3401   58.3847 C   0  0  1  0  0  0  0  0  0  0  0  0
  -35.5318   58.5230   57.6187 C   0  0  0  0  0  0  0  0  0  0  0  0
  -37.4727   61.8763   66.6226 C   0  0  0  0  0  0  0  0  0  0  0  0
  -35.4086   62.4475   67.5119 C   0  0  0  0  0  0  0  0  0  0  0  0
  -36.4281   62.0691   65.4884 C   0  0  1  0  0  0  0  0  0  0  0  0
  -34.6472   62.8134   69.9070 C   0  0  0  0  0  0  0  0  0  0  0  0
  -33.6206   63.1299   70.8064 C   0  0  0  0  0  0  0  0  0  0  0  0
  -32.3331   63.4486   70.3430 C   0  0  0  0  0  0  0  0  0  0  0  0
  -32.0548   63.4447   68.9750 C   0  0  0  0  0  0  0  0  0  0  0  0
  -33.0738   63.1235   68.0740 C   0  0  0  0  0  0  0  0  0  0  0  0
  -34.3674   62.8122   68.5350 C   0  0  0  0  0  0  0  0  0  0  0  0
  -37.5400   61.1557   54.9134 H   0  0  0  0  0  0  0  0  0  0  0  0
  -36.7380   58.9799   54.8971 H   0  0  0  0  0  0  0  0  0  0  0  0
  -35.3656   60.7163   55.5888 H   0  0  0  0  0  0  0  0  0  0  0  0
  -42.4977   57.3396   64.1153 H   0  0  0  0  0  0  0  0  0  0  0  0
  -41.0572   56.2319   60.8810 H   0  0  0  0  0  0  0  0  0  0  0  0
  -39.6186   55.8541   61.7817 H   0  0  0  0  0  0  0  0  0  0  0  0
  -34.7672   58.3513   60.2288 H   0  0  0  0  0  0  0  0  0  0  0  0
  -40.9088   58.5695   61.5687 H   0  0  0  0  0  0  0  0  0  0  0  0
  -39.3937   57.9988   60.7642 H   0  0  0  0  0  0  0  0  0  0  0  0
  -37.5975   59.8434   65.3202 H   0  0  0  0  0  0  0  0  0  0  0  0
  -39.5811   58.9804   63.5956 H   0  0  0  0  0  0  0  0  0  0  0  0
  -37.2032   58.2232   61.6930 H   0  0  0  0  0  0  0  0  0  0  0  0
  -37.2383   57.7881   64.4943 H   0  0  0  0  0  0  0  0  0  0  0  0
  -32.9996   59.0629   62.9569 H   0  0  0  0  0  0  0  0  0  0  0  0
  -36.0320   62.5291   71.2945 H   0  0  0  0  0  0  0  0  0  0  0  0
  -32.6236   56.7868   62.1413 H   0  0  0  0  0  0  0  0  0  0  0  0
  -31.6621   57.9524   61.2106 H   0  0  0  0  0  0  0  0  0  0  0  0
  -33.7770   59.7464   60.1792 H   0  0  0  0  0  0  0  0  0  0  0  0
  -32.3413   60.2766   61.0223 H   0  0  0  0  0  0  0  0  0  0  0  0
  -33.9189   60.7731   61.5859 H   0  0  0  0  0  0  0  0  0  0  0  0
  -39.6144   54.2017   63.4221 H   0  0  0  0  0  0  0  0  0  0  0  0
  -41.0175   53.6625   62.4604 H   0  0  0  0  0  0  0  0  0  0  0  0
  -41.9512   52.5670   64.3783 H   0  0  0  0  0  0  0  0  0  0  0  0
  -40.6160   53.1126   65.3720 H   0  0  0  0  0  0  0  0  0  0  0  0
  -40.2809   50.7939   64.6495 H   0  0  0  0  0  0  0  0  0  0  0  0
  -39.0582   51.8836   63.9593 H   0  0  0  0  0  0  0  0  0  0  0  0
  -41.4505   50.8228   62.5102 H   0  0  0  0  0  0  0  0  0  0  0  0
  -39.7621   50.2649   62.3483 H   0  0  0  0  0  0  0  0  0  0  0  0
  -40.7566   52.9845   61.6081 H   0  0  0  0  0  0  0  0  0  0  0  0
  -40.4021   51.6539   60.4921 H   0  0  0  0  0  0  0  0  0  0  0  0
  -38.0813   51.6891   61.1495 H   0  0  0  0  0  0  0  0  0  0  0  0
  -38.4461   53.0226   62.2785 H   0  0  0  0  0  0  0  0  0  0  0  0
  -37.3309   53.8343   60.2740 H   0  0  0  0  0  0  0  0  0  0  0  0
  -38.9848   54.4591   60.4492 H   0  0  0  0  0  0  0  0  0  0  0  0
  -38.1483   52.2489   58.6261 H   0  0  0  0  0  0  0  0  0  0  0  0
  -38.5134   53.9447   58.1797 H   0  0  0  0  0  0  0  0  0  0  0  0
  -40.7967   53.6507   58.7868 H   0  0  0  0  0  0  0  0  0  0  0  0
  -40.4718   51.9912   59.2790 H   0  0  0  0  0  0  0  0  0  0  0  0
  -39.8583   51.4181   56.9995 H   0  0  0  0  0  0  0  0  0  0  0  0
  -40.1862   53.0998   56.5163 H   0  0  0  0  0  0  0  0  0  0  0  0
  -41.9815   51.6253   55.8521 H   0  0  0  0  0  0  0  0  0  0  0  0
  -42.4762   52.8342   57.0824 H   0  0  0  0  0  0  0  0  0  0  0  0
  -42.4880   51.1710   58.7673 H   0  0  0  0  0  0  0  0  0  0  0  0
  -41.9675   49.9594   57.5676 H   0  0  0  0  0  0  0  0  0  0  0  0
  -44.6003   51.3981   57.5297 H   0  0  0  0  0  0  0  0  0  0  0  0
  -44.3369   49.7417   58.0697 H   0  0  0  0  0  0  0  0  0  0  0  0
  -43.5510   49.1296   55.8637 H   0  0  0  0  0  0  0  0  0  0  0  0
  -43.8519   50.8331   55.3470 H   0  0  0  0  0  0  0  0  0  0  0  0
  -45.9402   48.8311   56.0509 H   0  0  0  0  0  0  0  0  0  0  0  0
  -45.5352   49.3877   54.4449 H   0  0  0  0  0  0  0  0  0  0  0  0
  -46.2090   50.5007   55.6113 H   0  0  0  0  0  0  0  0  0  0  0  0
  -37.9171   59.7526   59.6128 H   0  0  0  0  0  0  0  0  0  0  0  0
  -36.3590   59.1584   60.1640 H   0  0  0  0  0  0  0  0  0  0  0  0
  -38.8136   57.7235   59.7937 H   0  0  0  0  0  0  0  0  0  0  0  0
  -37.2655   57.2074   60.5309 H   0  0  0  0  0  0  0  0  0  0  0  0
  -37.8362   57.0753   57.6240 H   0  0  0  0  0  0  0  0  0  0  0  0
  -38.0620   55.7394   58.7684 H   0  0  0  0  0  0  0  0  0  0  0  0
  -35.9474   55.6960   57.4780 H   0  0  0  0  0  0  0  0  0  0  0  0
  -35.8325   55.6857   59.2935 H   0  0  0  0  0  0  0  0  0  0  0  0
  -34.1133   56.9642   57.8695 H   0  0  0  0  0  0  0  0  0  0  0  0
  -38.2872   62.5590   66.4989 H   0  0  0  0  0  0  0  0  0  0  0  0
  -37.8848   60.8888   66.6144 H   0  0  0  0  0  0  0  0  0  0  0  0
  -36.7905   62.7963   64.7921 H   0  0  0  0  0  0  0  0  0  0  0  0
  -33.8123   63.1289   71.8205 H   0  0  0  0  0  0  0  0  0  0  0  0
  -31.5892   63.6869   71.0174 H   0  0  0  0  0  0  0  0  0  0  0  0
  -31.1088   63.6761   68.6335 H   0  0  0  0  0  0  0  0  0  0  0  0
  -32.8763   63.1143   67.0611 H   0  0  0  0  0  0  0  0  0  0  0  0
  1  2  1  0  0  0  0
  1  5  1  0  0  0  0
  1  7  1  0  0  0  0
  2 18  2  0  0  0  0
  2 29  1  0  0  0  0
  3 21  2  0  0  0  0
  4  6  1  0  0  0  0
  4 59  1  0  0  0  0
  4 60  1  0  0  0  0
  4 61  1  0  0  0  0
  5 62  1  0  0  0  0
  6 14  1  0  0  0  0
  7 10  1  0  0  0  0
  7 63  1  0  0  0  0
  7 64  1  0  0  0  0
  8 27  1  0  0  0  0
  8 48  1  0  0  0  0
  8 65  1  0  0  0  0
  9 21  1  0  0  0  0
  9 23  1  0  0  0  0
 10 13  1  0  0  0  0
 10 66  1  0  0  0  0
 10 67  1  0  0  0  0
 11 19  1  0  0  0  0
 11 28  1  0  0  0  0
 11 68  1  0  0  0  0
 12 27  2  0  0  0  0
 13 16  2  0  0  0  0
 13 69  1  0  0  0  0
 14 44  1  0  0  0  0
 14 49  1  0  0  0  0
 15 28  2  0  0  0  0
 16 19  1  0  0  0  0
 16 70  1  0  0  0  0
 17 51  2  0  0  0  0
 17 52  1  0  0  0  0
 19 21  1  0  0  0  0
 19 71  1  1  0  0  0
 20 49  2  0  0  0  0
 22 50  1  0  0  0  0
 22 51  1  0  0  0  0
 23 25  1  0  0  0  0
 23 26  1  0  0  0  0
 23 72  1  1  0  0  0
 24 53  1  0  0  0  0
 24 73  1  0  0  0  0
 25 27  1  0  0  0  0
 25 74  1  0  0  0  0
 25 75  1  0  0  0  0
 26 76  1  0  0  0  0
 26 77  1  0  0  0  0
 26 78  1  0  0  0  0
 28 52  1  0  0  0  0
 29 30  1  0  0  0  0
 29 79  1  0  0  0  0
 29 80  1  0  0  0  0
 30 31  1  0  0  0  0
 30 81  1  0  0  0  0
 30 82  1  0  0  0  0
 31 32  1  0  0  0  0
 31 83  1  0  0  0  0
 31 84  1  0  0  0  0
 32 33  1  0  0  0  0
 32 85  1  0  0  0  0
 32 86  1  0  0  0  0
 33 34  1  0  0  0  0
 33 87  1  0  0  0  0
 33 88  1  0  0  0  0
 34 35  1  0  0  0  0
 34 89  1  0  0  0  0
 34 90  1  0  0  0  0
 35 36  1  0  0  0  0
 35 91  1  0  0  0  0
 35 92  1  0  0  0  0
 36 37  1  0  0  0  0
 36 93  1  0  0  0  0
 36 94  1  0  0  0  0
 37 38  1  0  0  0  0
 37 95  1  0  0  0  0
 37 96  1  0  0  0  0
 38 39  1  0  0  0  0
 38 97  1  0  0  0  0
 38 98  1  0  0  0  0
 39 40  1  0  0  0  0
 39 99  1  0  0  0  0
 39100  1  0  0  0  0
 40 41  1  0  0  0  0
 40101  1  0  0  0  0
 40102  1  0  0  0  0
 41 42  1  0  0  0  0
 41103  1  0  0  0  0
 41104  1  0  0  0  0
 42 43  1  0  0  0  0
 42105  1  0  0  0  0
 42106  1  0  0  0  0
 43107  1  0  0  0  0
 43108  1  0  0  0  0
 43109  1  0  0  0  0
 44 45  1  0  0  0  0
 44110  1  0  0  0  0
 44111  1  0  0  0  0
 45 46  1  0  0  0  0
 45112  1  0  0  0  0
 45113  1  0  0  0  0
 46 47  1  0  0  0  0
 46114  1  0  0  0  0
 46115  1  0  0  0  0
 47 48  1  0  0  0  0
 47116  1  0  0  0  0
 47117  1  0  0  0  0
 48 49  1  0  0  0  0
 48118  1  6  0  0  0
 50 52  1  0  0  0  0
 50119  1  0  0  0  0
 50120  1  0  0  0  0
 51 58  1  0  0  0  0
 52121  1  6  0  0  0
 53 54  2  0  0  0  0
 53 58  1  0  0  0  0
 54 55  1  0  0  0  0
 54122  1  0  0  0  0
 55 56  2  0  0  0  0
 55123  1  0  0  0  0
 56 57  1  0  0  0  0
 56124  1  0  0  0  0
 57 58  2  0  0  0  0
 57125  1  0  0  0  0
M  END
$$$$
/media/chris/experiments/cd1a-new-docking/inputs/ligands/1xz0_ligand.pdb
 OpenBabel07022319323D

125127  0  0  1  0  0  0  0  0999 V2000
  -40.4583   57.9669   62.0097 N   0  0  0  0  0  0  0  0  0  0  0  0
  -40.7074   56.7470   62.5550 C   0  0  0  0  0  0  0  0  0  0  0  0
  -34.8470   57.1816   63.6074 O   0  0  0  0  0  0  0  0  0  0  0  0
  -26.0646   56.6632   60.8318 Si  0  0  0  0  0  0  0  0  0  0  0  0
  -40.7923   59.0897   62.7800 O   0  0  0  0  0  0  0  0  0  0  0  0
  -26.6401   58.0500   61.8022 O   0  0  0  0  0  0  0  0  0  0  0  0
  -39.8770   58.2933   60.7038 C   0  0  0  0  0  0  0  0  0  0  0  0
  -30.2848   58.6727   64.2883 N   0  0  0  0  0  0  0  0  0  0  0  0
  -34.3830   59.4453   63.6122 O   0  0  0  0  0  0  0  0  0  0  0  0
  -39.1167   59.6292   60.8329 C   0  0  0  0  0  0  0  0  0  0  0  0
  -36.8950   59.8150   64.6310 N   0  0  0  0  0  0  0  0  0  0  0  0
  -29.8497   60.1568   62.6380 O   0  0  0  0  0  0  0  0  0  0  0  0
  -37.9469   59.6864   61.8299 C   0  0  0  0  0  0  0  0  0  0  0  0
  -27.7702   57.9451   62.5557 N   0  0  0  0  0  0  0  0  0  0  0  0
  -36.8820   61.1456   66.4755 O   0  0  0  0  0  0  0  0  0  0  0  0
  -37.6390   58.4030   62.6110 C   0  0  0  0  0  0  0  0  0  0  0  0
  -35.5537   59.3463   68.0045 N   0  0  0  0  0  0  0  0  0  0  0  0
  -41.2044   56.6397   63.6759 O   0  0  0  0  0  0  0  0  0  0  0  0
  -36.7890   58.5530   63.8960 C   0  0  1  0  0  0  0  0  0  0  0  0
  -27.0489   59.6062   63.8921 O   0  0  0  0  0  0  0  0  0  0  0  0
  -35.3080   58.3090   63.6770 C   0  0  0  0  0  0  0  0  0  0  0  0
  -34.2666   57.7383   67.1386 O   0  0  0  0  0  0  0  0  0  0  0  0
  -33.0287   59.3371   64.0897 C   0  0  1  0  0  0  0  0  0  0  0  0
  -31.5891   58.3668   67.9750 O   0  0  0  0  0  0  0  0  0  0  0  0
  -32.0870   59.6220   62.9293 C   0  0  0  0  0  0  0  0  0  0  0  0
  -32.7078   60.2218   65.2880 C   0  0  0  0  0  0  0  0  0  0  0  0
  -30.6302   59.5205   63.3084 C   0  0  0  0  0  0  0  0  0  0  0  0
  -36.7626   60.0473   65.9485 C   0  0  0  0  0  0  0  0  0  0  0  0
  -40.3534   55.4899   61.7535 C   0  0  0  0  0  0  0  0  0  0  0  0
  -39.3380   54.5646   62.4379 C   0  0  0  0  0  0  0  0  0  0  0  0
  -39.8995   54.0672   63.7838 C   0  0  0  0  0  0  0  0  0  0  0  0
  -38.9338   53.1424   64.5490 C   0  0  0  0  0  0  0  0  0  0  0  0
  -37.5876   53.7899   64.9238 C   0  0  0  0  0  0  0  0  0  0  0  0
  -36.7958   54.2828   63.6945 C   0  0  0  0  0  0  0  0  0  0  0  0
  -35.4286   54.9246   64.0270 C   0  0  0  0  0  0  0  0  0  0  0  0
  -34.4618   53.9682   64.7347 C   0  0  0  0  0  0  0  0  0  0  0  0
  -34.0871   52.7108   63.9437 C   0  0  0  0  0  0  0  0  0  0  0  0
  -35.3321   51.8731   63.5991 C   0  0  0  0  0  0  0  0  0  0  0  0
  -35.0206   50.5869   62.8190 C   0  0  0  0  0  0  0  0  0  0  0  0
  -36.2319   49.7290   62.4391 C   0  0  0  0  0  0  0  0  0  0  0  0
  -37.0686   49.2394   63.6474 C   0  0  0  0  0  0  0  0  0  0  0  0
  -38.2588   48.3693   63.1951 C   0  0  0  0  0  0  0  0  0  0  0  0
  -39.2779   49.0151   62.2486 C   0  0  0  0  0  0  0  0  0  0  0  0
  -28.8098   57.0220   62.0771 C   0  0  0  0  0  0  0  0  0  0  0  0
  -28.9351   55.8078   63.0167 C   0  0  0  0  0  0  0  0  0  0  0  0
  -28.1259   55.8944   64.3002 C   0  0  0  0  0  0  0  0  0  0  0  0
  -28.6297   56.9815   65.2532 C   0  0  0  0  0  0  0  0  0  0  0  0
  -28.9043   58.3883   64.6963 C   0  0  1  0  0  0  0  0  0  0  0  0
  -27.8390   58.7005   63.6636 C   0  0  0  0  0  0  0  0  0  0  0  0
  -35.3893   57.7911   66.2593 C   0  0  0  0  0  0  0  0  0  0  0  0
  -34.4570   58.7375   68.1601 C   0  0  0  0  0  0  0  0  0  0  0  0
  -36.3268   58.8890   66.8341 C   0  0  1  0  0  0  0  0  0  0  0  0
  -32.1117   58.7873   69.1333 C   0  0  0  0  0  0  0  0  0  0  0  0
  -31.2666   59.0531   70.2187 C   0  0  0  0  0  0  0  0  0  0  0  0
  -31.7915   59.4864   71.4479 C   0  0  0  0  0  0  0  0  0  0  0  0
  -33.1669   59.6684   71.6027 C   0  0  0  0  0  0  0  0  0  0  0  0
  -34.0136   59.4107   70.5210 C   0  0  0  0  0  0  0  0  0  0  0  0
  -33.4913   58.9679   69.2906 C   0  0  0  0  0  0  0  0  0  0  0  0
  -24.8772   57.0274   60.1434 H   0  0  0  0  0  0  0  0  0  0  0  0
  -27.0634   56.2967   59.8913 H   0  0  0  0  0  0  0  0  0  0  0  0
  -25.7962   55.5640   61.6898 H   0  0  0  0  0  0  0  0  0  0  0  0
  -41.1693   58.8010   63.6258 H   0  0  0  0  0  0  0  0  0  0  0  0
  -40.6547   58.3884   59.9751 H   0  0  0  0  0  0  0  0  0  0  0  0
  -39.2091   57.5172   60.3930 H   0  0  0  0  0  0  0  0  0  0  0  0
  -31.0085   58.2084   64.7678 H   0  0  0  0  0  0  0  0  0  0  0  0
  -39.8257   60.3744   61.1275 H   0  0  0  0  0  0  0  0  0  0  0  0
  -38.6659   59.7803   59.8743 H   0  0  0  0  0  0  0  0  0  0  0  0
  -37.0915   60.6076   64.0811 H   0  0  0  0  0  0  0  0  0  0  0  0
  -37.3952   60.5477   61.9667 H   0  0  0  0  0  0  0  0  0  0  0  0
  -37.9824   57.4826   62.2948 H   0  0  0  0  0  0  0  0  0  0  0  0
  -37.2383   57.7881   64.4943 H   0  0  0  0  0  0  0  0  0  0  0  0
  -32.8974   58.3396   64.4539 H   0  0  0  0  0  0  0  0  0  0  0  0
  -30.6626   58.2530   67.8930 H   0  0  0  0  0  0  0  0  0  0  0  0
  -32.2774   60.6124   62.5720 H   0  0  0  0  0  0  0  0  0  0  0  0
  -32.2731   58.8819   62.1793 H   0  0  0  0  0  0  0  0  0  0  0  0
  -32.8148   61.2498   65.0111 H   0  0  0  0  0  0  0  0  0  0  0  0
  -31.7023   60.0408   65.6060 H   0  0  0  0  0  0  0  0  0  0  0  0
  -33.3811   59.9961   66.0884 H   0  0  0  0  0  0  0  0  0  0  0  0
  -39.9454   55.7968   60.8132 H   0  0  0  0  0  0  0  0  0  0  0  0
  -41.2583   54.9278   61.6530 H   0  0  0  0  0  0  0  0  0  0  0  0
  -38.4292   55.1023   62.6104 H   0  0  0  0  0  0  0  0  0  0  0  0
  -39.1482   53.7232   61.8047 H   0  0  0  0  0  0  0  0  0  0  0  0
  -40.8050   53.5294   63.5949 H   0  0  0  0  0  0  0  0  0  0  0  0
  -40.0598   54.9301   64.3959 H   0  0  0  0  0  0  0  0  0  0  0  0
  -38.7342   52.2882   63.9363 H   0  0  0  0  0  0  0  0  0  0  0  0
  -39.4179   52.8943   65.4704 H   0  0  0  0  0  0  0  0  0  0  0  0
  -36.9946   53.0676   65.4448 H   0  0  0  0  0  0  0  0  0  0  0  0
  -37.8003   54.6439   65.5324 H   0  0  0  0  0  0  0  0  0  0  0  0
  -37.3910   55.0103   63.1834 H   0  0  0  0  0  0  0  0  0  0  0  0
  -36.5890   53.4180   63.0992 H   0  0  0  0  0  0  0  0  0  0  0  0
  -35.5961   55.7689   64.6626 H   0  0  0  0  0  0  0  0  0  0  0  0
  -34.9755   55.2007   63.0979 H   0  0  0  0  0  0  0  0  0  0  0  0
  -34.9163   53.6581   65.6524 H   0  0  0  0  0  0  0  0  0  0  0  0
  -33.5517   54.5145   64.8697 H   0  0  0  0  0  0  0  0  0  0  0  0
  -33.4189   52.1162   64.5310 H   0  0  0  0  0  0  0  0  0  0  0  0
  -33.6213   53.0141   63.0295 H   0  0  0  0  0  0  0  0  0  0  0  0
  -35.9899   52.4750   63.0075 H   0  0  0  0  0  0  0  0  0  0  0  0
  -35.7720   51.5743   64.5276 H   0  0  0  0  0  0  0  0  0  0  0  0
  -34.3691   49.9877   63.4202 H   0  0  0  0  0  0  0  0  0  0  0  0
  -34.5876   50.9052   61.8937 H   0  0  0  0  0  0  0  0  0  0  0  0
  -35.8808   48.8711   61.9046 H   0  0  0  0  0  0  0  0  0  0  0  0
  -36.8754   50.3496   61.8513 H   0  0  0  0  0  0  0  0  0  0  0  0
  -37.4417   50.0895   64.1793 H   0  0  0  0  0  0  0  0  0  0  0  0
  -36.4372   48.6449   64.2742 H   0  0  0  0  0  0  0  0  0  0  0  0
  -38.7855   48.0619   64.0742 H   0  0  0  0  0  0  0  0  0  0  0  0
  -37.8205   47.5746   62.6283 H   0  0  0  0  0  0  0  0  0  0  0  0
  -39.7636   49.8273   62.7479 H   0  0  0  0  0  0  0  0  0  0  0  0
  -40.0069   48.2873   61.9591 H   0  0  0  0  0  0  0  0  0  0  0  0
  -38.7744   49.3813   61.3784 H   0  0  0  0  0  0  0  0  0  0  0  0
  -28.5525   56.6817   61.0959 H   0  0  0  0  0  0  0  0  0  0  0  0
  -29.7462   57.5394   62.0572 H   0  0  0  0  0  0  0  0  0  0  0  0
  -28.6126   54.9400   62.4803 H   0  0  0  0  0  0  0  0  0  0  0  0
  -29.9618   55.7696   63.3158 H   0  0  0  0  0  0  0  0  0  0  0  0
  -27.1081   56.1073   64.0478 H   0  0  0  0  0  0  0  0  0  0  0  0
  -28.2247   54.9559   64.8045 H   0  0  0  0  0  0  0  0  0  0  0  0
  -27.8964   57.0868   66.0253 H   0  0  0  0  0  0  0  0  0  0  0  0
  -29.5942   56.6315   65.5568 H   0  0  0  0  0  0  0  0  0  0  0  0
  -28.8236   59.0854   65.5041 H   0  0  0  0  0  0  0  0  0  0  0  0
  -35.8910   56.8463   66.2386 H   0  0  0  0  0  0  0  0  0  0  0  0
  -35.0928   58.0129   65.2554 H   0  0  0  0  0  0  0  0  0  0  0  0
  -37.2941   58.4696   67.0166 H   0  0  0  0  0  0  0  0  0  0  0  0
  -30.2474   58.9293   70.1142 H   0  0  0  0  0  0  0  0  0  0  0  0
  -31.1569   59.6710   72.2405 H   0  0  0  0  0  0  0  0  0  0  0  0
  -33.5534   59.9892   72.5042 H   0  0  0  0  0  0  0  0  0  0  0  0
  -35.0314   59.5461   70.6251 H   0  0  0  0  0  0  0  0  0  0  0  0
  1  2  1  0  0  0  0
  1  5  1  0  0  0  0
  1  7  1  0  0  0  0
  2 18  2  0  0  0  0
  2 29  1  0  0  0  0
  3 21  2  0  0  0  0
  4  6  1  0  0  0  0
  4 59  1  0  0  0  0
  4 60  1  0  0  0  0
  4 61  1  0  0  0  0
  5 62  1  0  0  0  0
  6 14  1  0  0  0  0
  7 10  1  0  0  0  0
  7 63  1  0  0  0  0
  7 64  1  0  0  0  0
  8 27  1  0  0  0  0
  8 48  1  0  0  0  0
  8 65  1  0  0  0  0
  9 21  1  0  0  0  0
  9 23  1  0  0  0  0
 10 13  1  0  0  0  0
 10 66  1  0  0  0  0
 10 67  1  0  0  0  0
 11 19  1  0  0  0  0
 11 28  1  0  0  0  0
 11 68  1  0  0  0  0
 12 27  2  0  0  0  0
 13 16  2  0  0  0  0
 13 69  1  0  0  0  0
 14 44  1  0  0  0  0
 14 49  1  0  0  0  0
 15 28  2  0  0  0  0
 16 19  1  0  0  0  0
 16 70  1  0  0  0  0
 17 51  2  0  0  0  0
 17 52  1  0  0  0  0
 19 21  1  0  0  0  0
 19 71  1  1  0  0  0
 20 49  2  0  0  0  0
 22 50  1  0  0  0  0
 22 51  1  0  0  0  0
 23 25  1  0  0  0  0
 23 26  1  0  0  0  0
 23 72  1  1  0  0  0
 24 53  1  0  0  0  0
 24 73  1  0  0  0  0
 25 27  1  0  0  0  0
 25 74  1  0  0  0  0
 25 75  1  0  0  0  0
 26 76  1  0  0  0  0
 26 77  1  0  0  0  0
 26 78  1  0  0  0  0
 28 52  1  0  0  0  0
 29 30  1  0  0  0  0
 29 79  1  0  0  0  0
 29 80  1  0  0  0  0
 30 31  1  0  0  0  0
 30 81  1  0  0  0  0
 30 82  1  0  0  0  0
 31 32  1  0  0  0  0
 31 83  1  0  0  0  0
 31 84  1  0  0  0  0
 32 33  1  0  0  0  0
 32 85  1  0  0  0  0
 32 86  1  0  0  0  0
 33 34  1  0  0  0  0
 33 87  1  0  0  0  0
 33 88  1  0  0  0  0
 34 35  1  0  0  0  0
 34 89  1  0  0  0  0
 34 90  1  0  0  0  0
 35 36  1  0  0  0  0
 35 91  1  0  0  0  0
 35 92  1  0  0  0  0
 36 37  1  0  0  0  0
 36 93  1  0  0  0  0
 36 94  1  0  0  0  0
 37 38  1  0  0  0  0
 37 95  1  0  0  0  0
 37 96  1  0  0  0  0
 38 39  1  0  0  0  0
 38 97  1  0  0  0  0
 38 98  1  0  0  0  0
 39 40  1  0  0  0  0
 39 99  1  0  0  0  0
 39100  1  0  0  0  0
 40 41  1  0  0  0  0
 40101  1  0  0  0  0
 40102  1  0  0  0  0
 41 42  1  0  0  0  0
 41103  1  0  0  0  0
 41104  1  0  0  0  0
 42 43  1  0  0  0  0
 42105  1  0  0  0  0
 42106  1  0  0  0  0
 43107  1  0  0  0  0
 43108  1  0  0  0  0
 43109  1  0  0  0  0
 44 45  1  0  0  0  0
 44110  1  0  0  0  0
 44111  1  0  0  0  0
 45 46  1  0  0  0  0
 45112  1  0  0  0  0
 45113  1  0  0  0  0
 46 47  1  0  0  0  0
 46114  1  0  0  0  0
 46115  1  0  0  0  0
 47 48  1  0  0  0  0
 47116  1  0  0  0  0
 47117  1  0  0  0  0
 48 49  1  0  0  0  0
 48118  1  1  0  0  0
 50 52  1  0  0  0  0
 50119  1  0  0  0  0
 50120  1  0  0  0  0
 51 58  1  0  0  0  0
 52121  1  1  0  0  0
 53 54  2  0  0  0  0
 53 58  1  0  0  0  0
 54 55  1  0  0  0  0
 54122  1  0  0  0  0
 55 56  2  0  0  0  0
 55123  1  0  0  0  0
 56 57  1  0  0  0  0
 56124  1  0  0  0  0
 57 58  2  0  0  0  0
 57125  1  0  0  0  0
M  END
$$$$
/media/chris/experiments/cd1a-new-docking/inputs/ligands/1xz0_ligand.pdb
 OpenBabel07022319323D

125127  0  0  1  0  0  0  0  0999 V2000
  -38.2349   61.2640   59.2525 N   0  0  0  0  0  0  0  0  0  0  0  0
  -38.3144   62.1542   58.2283 C   0  0  0  0  0  0  0  0  0  0  0  0
  -34.4677   58.7167   64.4620 O   0  0  0  0  0  0  0  0  0  0  0  0
  -38.9750   51.0580   66.0628 Si  0  0  0  0  0  0  0  0  0  0  0  0
  -37.5169   61.6622   60.3889 O   0  0  0  0  0  0  0  0  0  0  0  0
  -37.9372   50.4306   64.7493 O   0  0  0  0  0  0  0  0  0  0  0  0
  -38.8026   59.9157   59.3501 C   0  0  0  0  0  0  0  0  0  0  0  0
  -35.6603   53.8407   63.0056 N   0  0  0  0  0  0  0  0  0  0  0  0
  -34.8529   57.6257   62.4617 O   0  0  0  0  0  0  0  0  0  0  0  0
  -39.1167   59.6292   60.8329 C   0  0  0  0  0  0  0  0  0  0  0  0
  -36.8950   59.8150   64.6310 N   0  0  0  0  0  0  0  0  0  0  0  0
  -35.0530   54.9623   61.1378 O   0  0  0  0  0  0  0  0  0  0  0  0
  -37.9469   59.6864   61.8299 C   0  0  0  0  0  0  0  0  0  0  0  0
  -37.0812   51.2594   64.0887 N   0  0  0  0  0  0  0  0  0  0  0  0
  -37.3593   61.1359   66.4234 O   0  0  0  0  0  0  0  0  0  0  0  0
  -37.6390   58.4030   62.6110 C   0  0  0  0  0  0  0  0  0  0  0  0
  -36.3796   57.9692   66.9399 N   0  0  0  0  0  0  0  0  0  0  0  0
  -38.9367   61.8883   57.2001 O   0  0  0  0  0  0  0  0  0  0  0  0
  -36.7890   58.5530   63.8960 C   0  0  1  0  0  0  0  0  0  0  0  0
  -38.7795   52.6592   63.6176 O   0  0  0  0  0  0  0  0  0  0  0  0
  -35.3080   58.3090   63.6770 C   0  0  0  0  0  0  0  0  0  0  0  0
  -37.9588   56.5175   66.3148 O   0  0  0  0  0  0  0  0  0  0  0  0
  -33.6205   56.8810   62.4377 C   0  0  1  0  0  0  0  0  0  0  0  0
  -34.3695   56.7800   68.5563 O   0  0  0  0  0  0  0  0  0  0  0  0
  -33.8739   55.5146   63.0565 C   0  0  0  0  0  0  0  0  0  0  0  0
  -32.9869   56.7509   61.0581 C   0  0  0  0  0  0  0  0  0  0  0  0
  -34.9094   54.7086   62.3119 C   0  0  0  0  0  0  0  0  0  0  0  0
  -37.2920   60.0330   65.8968 C   0  0  0  0  0  0  0  0  0  0  0  0
  -37.6079   63.5070   58.3647 C   0  0  0  0  0  0  0  0  0  0  0  0
  -36.1625   63.5241   57.8490 C   0  0  0  0  0  0  0  0  0  0  0  0
  -35.5459   64.9218   58.0504 C   0  0  0  0  0  0  0  0  0  0  0  0
  -34.0959   65.0334   57.5424 C   0  0  0  0  0  0  0  0  0  0  0  0
  -33.4492   66.4161   57.7471 C   0  0  0  0  0  0  0  0  0  0  0  0
  -34.2201   67.5500   57.0392 C   0  0  0  0  0  0  0  0  0  0  0  0
  -35.6785   67.7323   57.5205 C   0  0  0  0  0  0  0  0  0  0  0  0
  -36.4264   68.8532   56.7895 C   0  0  0  0  0  0  0  0  0  0  0  0
  -37.8711   69.0826   57.2446 C   0  0  0  0  0  0  0  0  0  0  0  0
  -38.5396   70.2131   56.4412 C   0  0  0  0  0  0  0  0  0  0  0  0
  -38.6205   69.9404   54.9316 C   0  0  0  0  0  0  0  0  0  0  0  0
  -39.4226   68.7011   54.5211 C   0  0  0  0  0  0  0  0  0  0  0  0
  -39.4672   68.4496   52.9932 C   0  0  0  0  0  0  0  0  0  0  0  0
  -38.0543   68.2313   52.4151 C   0  0  0  0  0  0  0  0  0  0  0  0
  -37.9461   67.9867   50.9052 C   0  0  0  0  0  0  0  0  0  0  0  0
  -35.6500   50.9279   64.1480 C   0  0  0  0  0  0  0  0  0  0  0  0
  -35.1373   50.4767   62.7673 C   0  0  0  0  0  0  0  0  0  0  0  0
  -36.1253   50.6384   61.6238 C   0  0  0  0  0  0  0  0  0  0  0  0
  -36.4261   52.1031   61.2953 C   0  0  0  0  0  0  0  0  0  0  0  0
  -36.7724   53.0657   62.4434 C   0  0  1  0  0  0  0  0  0  0  0  0
  -37.6188   52.3109   63.4497 C   0  0  0  0  0  0  0  0  0  0  0  0
  -38.6321   57.7757   66.3233 C   0  0  0  0  0  0  0  0  0  0  0  0
  -36.5861   56.7475   66.6902 C   0  0  0  0  0  0  0  0  0  0  0  0
  -37.5729   58.8203   66.7723 C   0  0  1  0  0  0  0  0  0  0  0  0
  -34.5227   55.7187   67.7551 C   0  0  0  0  0  0  0  0  0  0  0  0
  -33.6251   54.6469   67.8459 C   0  0  0  0  0  0  0  0  0  0  0  0
  -33.7587   53.5257   67.0096 C   0  0  0  0  0  0  0  0  0  0  0  0
  -34.7978   53.4593   66.0797 C   0  0  0  0  0  0  0  0  0  0  0  0
  -35.6997   54.5232   65.9896 C   0  0  0  0  0  0  0  0  0  0  0  0
  -35.5631   55.6519   66.8203 C   0  0  0  0  0  0  0  0  0  0  0  0
  -39.7683   50.0022   66.5846 H   0  0  0  0  0  0  0  0  0  0  0  0
  -39.8209   52.0776   65.5517 H   0  0  0  0  0  0  0  0  0  0  0  0
  -38.1600   51.5927   67.0955 H   0  0  0  0  0  0  0  0  0  0  0  0
  -37.1718   62.5589   60.2555 H   0  0  0  0  0  0  0  0  0  0  0  0
  -38.0974   59.1988   58.9845 H   0  0  0  0  0  0  0  0  0  0  0  0
  -39.6954   59.8480   58.7642 H   0  0  0  0  0  0  0  0  0  0  0  0
  -35.4507   53.7145   63.9592 H   0  0  0  0  0  0  0  0  0  0  0  0
  -39.5368   58.6466   60.8876 H   0  0  0  0  0  0  0  0  0  0  0  0
  -39.7690   60.4229   61.1319 H   0  0  0  0  0  0  0  0  0  0  0  0
  -36.6386   60.6199   64.1253 H   0  0  0  0  0  0  0  0  0  0  0  0
  -37.3952   60.5477   61.9667 H   0  0  0  0  0  0  0  0  0  0  0  0
  -37.9824   57.4826   62.2948 H   0  0  0  0  0  0  0  0  0  0  0  0
  -37.2383   57.7881   64.4943 H   0  0  0  0  0  0  0  0  0  0  0  0
  -32.9029   57.4331   63.0080 H   0  0  0  0  0  0  0  0  0  0  0  0
  -33.6657   56.8026   69.1744 H   0  0  0  0  0  0  0  0  0  0  0  0
  -34.2101   55.6538   64.0627 H   0  0  0  0  0  0  0  0  0  0  0  0
  -32.9541   54.9696   63.0122 H   0  0  0  0  0  0  0  0  0  0  0  0
  -33.6442   56.2052   60.4138 H   0  0  0  0  0  0  0  0  0  0  0  0
  -32.0556   56.2306   61.1410 H   0  0  0  0  0  0  0  0  0  0  0  0
  -32.8159   57.7254   60.6508 H   0  0  0  0  0  0  0  0  0  0  0  0
  -37.5965   63.7753   59.4005 H   0  0  0  0  0  0  0  0  0  0  0  0
  -38.1555   64.1991   57.7596 H   0  0  0  0  0  0  0  0  0  0  0  0
  -36.1555   63.2809   56.8070 H   0  0  0  0  0  0  0  0  0  0  0  0
  -35.5872   62.8053   58.3941 H   0  0  0  0  0  0  0  0  0  0  0  0
  -35.5569   65.1492   59.0959 H   0  0  0  0  0  0  0  0  0  0  0  0
  -36.1332   65.6099   57.4790 H   0  0  0  0  0  0  0  0  0  0  0  0
  -34.0915   64.8147   56.4950 H   0  0  0  0  0  0  0  0  0  0  0  0
  -33.5187   64.3405   58.1183 H   0  0  0  0  0  0  0  0  0  0  0  0
  -32.4522   66.3875   57.3599 H   0  0  0  0  0  0  0  0  0  0  0  0
  -33.4628   66.6249   58.7965 H   0  0  0  0  0  0  0  0  0  0  0  0
  -34.2384   67.3376   55.9906 H   0  0  0  0  0  0  0  0  0  0  0  0
  -33.7067   68.4591   57.2732 H   0  0  0  0  0  0  0  0  0  0  0  0
  -35.6644   67.9599   58.5659 H   0  0  0  0  0  0  0  0  0  0  0  0
  -36.1960   66.8194   57.3116 H   0  0  0  0  0  0  0  0  0  0  0  0
  -36.4425   68.6142   55.7466 H   0  0  0  0  0  0  0  0  0  0  0  0
  -35.8987   69.7564   57.0147 H   0  0  0  0  0  0  0  0  0  0  0  0
  -37.8719   69.3450   58.2819 H   0  0  0  0  0  0  0  0  0  0  0  0
  -38.4232   68.1808   57.0809 H   0  0  0  0  0  0  0  0  0  0  0  0
  -37.9776   71.1112   56.5916 H   0  0  0  0  0  0  0  0  0  0  0  0
  -39.5456   70.2937   56.7966 H   0  0  0  0  0  0  0  0  0  0  0  0
  -37.6222   69.8218   54.5652 H   0  0  0  0  0  0  0  0  0  0  0  0
  -39.1409   70.7760   54.5123 H   0  0  0  0  0  0  0  0  0  0  0  0
  -40.4268   68.8207   54.8707 H   0  0  0  0  0  0  0  0  0  0  0  0
  -38.9290   67.8577   54.9568 H   0  0  0  0  0  0  0  0  0  0  0  0
  -39.9118   69.2968   52.5142 H   0  0  0  0  0  0  0  0  0  0  0  0
  -40.0431   67.5656   52.8151 H   0  0  0  0  0  0  0  0  0  0  0  0
  -37.6314   67.3821   52.9100 H   0  0  0  0  0  0  0  0  0  0  0  0
  -37.5414   69.1553   52.5827 H   0  0  0  0  0  0  0  0  0  0  0  0
  -38.4405   67.0711   50.6558 H   0  0  0  0  0  0  0  0  0  0  0  0
  -36.9148   67.9224   50.6272 H   0  0  0  0  0  0  0  0  0  0  0  0
  -38.4075   68.7960   50.3788 H   0  0  0  0  0  0  0  0  0  0  0  0
  -35.5017   50.1369   64.8533 H   0  0  0  0  0  0  0  0  0  0  0  0
  -35.1073   51.7998   64.4482 H   0  0  0  0  0  0  0  0  0  0  0  0
  -34.8751   49.4415   62.8340 H   0  0  0  0  0  0  0  0  0  0  0  0
  -34.3097   51.1142   62.5360 H   0  0  0  0  0  0  0  0  0  0  0  0
  -37.0408   50.1545   61.8933 H   0  0  0  0  0  0  0  0  0  0  0  0
  -35.6825   50.1998   60.7541 H   0  0  0  0  0  0  0  0  0  0  0  0
  -37.2554   52.1094   60.6191 H   0  0  0  0  0  0  0  0  0  0  0  0
  -35.4988   52.4779   60.9153 H   0  0  0  0  0  0  0  0  0  0  0  0
  -37.3471   53.8718   62.0373 H   0  0  0  0  0  0  0  0  0  0  0  0
  -39.4506   57.7555   67.0121 H   0  0  0  0  0  0  0  0  0  0  0  0
  -39.0354   58.0128   65.3610 H   0  0  0  0  0  0  0  0  0  0  0  0
  -37.9316   59.3406   67.6358 H   0  0  0  0  0  0  0  0  0  0  0  0
  -32.8572   54.6812   68.5345 H   0  0  0  0  0  0  0  0  0  0  0  0
  -33.0852   52.7473   67.0832 H   0  0  0  0  0  0  0  0  0  0  0  0
  -34.8987   52.6352   65.4667 H   0  0  0  0  0  0  0  0  0  0  0  0
  -36.4732   54.4811   65.3077 H   0  0  0  0  0  0  0  0  0  0  0  0
  1  2  1  0  0  0  0
  1  5  1  0  0  0  0
  1  7  1  0  0  0  0
  2 18  2  0  0  0  0
  2 29  1  0  0  0  0
  3 21  2  0  0  0  0
  4  6  1  0  0  0  0
  4 59  1  0  0  0  0
  4 60  1  0  0  0  0
  4 61  1  0  0  0  0
  5 62  1  0  0  0  0
  6 14  1  0  0  0  0
  7 10  1  0  0  0  0
  7 63  1  0  0  0  0
  7 64  1  0  0  0  0
  8 27  1  0  0  0  0
  8 48  1  0  0  0  0
  8 65  1  0  0  0  0
  9 21  1  0  0  0  0
  9 23  1  0  0  0  0
 10 13  1  0  0  0  0
 10 66  1  0  0  0  0
 10 67  1  0  0  0  0
 11 19  1  0  0  0  0
 11 28  1  0  0  0  0
 11 68  1  0  0  0  0
 12 27  2  0  0  0  0
 13 16  2  0  0  0  0
 13 69  1  0  0  0  0
 14 44  1  0  0  0  0
 14 49  1  0  0  0  0
 15 28  2  0  0  0  0
 16 19  1  0  0  0  0
 16 70  1  0  0  0  0
 17 51  2  0  0  0  0
 17 52  1  0  0  0  0
 19 21  1  0  0  0  0
 19 71  1  1  0  0  0
 20 49  2  0  0  0  0
 22 50  1  0  0  0  0
 22 51  1  0  0  0  0
 23 25  1  0  0  0  0
 23 26  1  0  0  0  0
 23 72  1  1  0  0  0
 24 53  1  0  0  0  0
 24 73  1  0  0  0  0
 25 27  1  0  0  0  0
 25 74  1  0  0  0  0
 25 75  1  0  0  0  0
 26 76  1  0  0  0  0
 26 77  1  0  0  0  0
 26 78  1  0  0  0  0
 28 52  1  0  0  0  0
 29 30  1  0  0  0  0
 29 79  1  0  0  0  0
 29 80  1  0  0  0  0
 30 31  1  0  0  0  0
 30 81  1  0  0  0  0
 30 82  1  0  0  0  0
 31 32  1  0  0  0  0
 31 83  1  0  0  0  0
 31 84  1  0  0  0  0
 32 33  1  0  0  0  0
 32 85  1  0  0  0  0
 32 86  1  0  0  0  0
 33 34  1  0  0  0  0
 33 87  1  0  0  0  0
 33 88  1  0  0  0  0
 34 35  1  0  0  0  0
 34 89  1  0  0  0  0
 34 90  1  0  0  0  0
 35 36  1  0  0  0  0
 35 91  1  0  0  0  0
 35 92  1  0  0  0  0
 36 37  1  0  0  0  0
 36 93  1  0  0  0  0
 36 94  1  0  0  0  0
 37 38  1  0  0  0  0
 37 95  1  0  0  0  0
 37 96  1  0  0  0  0
 38 39  1  0  0  0  0
 38 97  1  0  0  0  0
 38 98  1  0  0  0  0
 39 40  1  0  0  0  0
 39 99  1  0  0  0  0
 39100  1  0  0  0  0
 40 41  1  0  0  0  0
 40101  1  0  0  0  0
 40102  1  0  0  0  0
 41 42  1  0  0  0  0
 41103  1  0  0  0  0
 41104  1  0  0  0  0
 42 43  1  0  0  0  0
 42105  1  0  0  0  0
 42106  1  0  0  0  0
 43107  1  0  0  0  0
 43108  1  0  0  0  0
 43109  1  0  0  0  0
 44 45  1  0  0  0  0
 44110  1  0  0  0  0
 44111  1  0  0  0  0
 45 46  1  0  0  0  0
 45112  1  0  0  0  0
 45113  1  0  0  0  0
 46 47  1  0  0  0  0
 46114  1  0  0  0  0
 46115  1  0  0  0  0
 47 48  1  0  0  0  0
 47116  1  0  0  0  0
 47117  1  0  0  0  0
 48 49  1  0  0  0  0
 48118  1  6  0  0  0
 50 52  1  0  0  0  0
 50119  1  0  0  0  0
 50120  1  0  0  0  0
 51 58  1  0  0  0  0
 52121  1  1  0  0  0
 53 54  2  0  0  0  0
 53 58  1  0  0  0  0
 54 55  1  0  0  0  0
 54122  1  0  0  0  0
 55 56  2  0  0  0  0
 55123  1  0  0  0  0
 56 57  1  0  0  0  0
 56124  1  0  0  0  0
 57 58  2  0  0  0  0
 57125  1  0  0  0  0
M  END
$$$$
/media/chris/experiments/cd1a-new-docking/inputs/ligands/1xz0_ligand.pdb
 OpenBabel07022319323D

125127  0  0  1  0  0  0  0  0999 V2000
  -38.2472   61.2458   59.2272 N   0  0  0  0  0  0  0  0  0  0  0  0
  -37.8076   62.4674   58.8244 C   0  0  0  0  0  0  0  0  0  0  0  0
  -34.4624   59.0890   64.0833 O   0  0  0  0  0  0  0  0  0  0  0  0
  -28.3542   57.6835   61.5937 Si  0  0  0  0  0  0  0  0  0  0  0  0
  -37.4853   60.1346   58.8397 O   0  0  0  0  0  0  0  0  0  0  0  0
  -28.3779   58.4362   63.2150 O   0  0  0  0  0  0  0  0  0  0  0  0
  -39.4282   60.9072   60.0273 C   0  0  0  0  0  0  0  0  0  0  0  0
  -32.5437   59.1886   64.6053 N   0  0  0  0  0  0  0  0  0  0  0  0
  -34.8671   57.1453   62.9008 O   0  0  0  0  0  0  0  0  0  0  0  0
  -39.1167   59.6292   60.8329 C   0  0  0  0  0  0  0  0  0  0  0  0
  -36.8950   59.8150   64.6310 N   0  0  0  0  0  0  0  0  0  0  0  0
  -33.4557   57.5998   65.9318 O   0  0  0  0  0  0  0  0  0  0  0  0
  -37.9469   59.6864   61.8299 C   0  0  0  0  0  0  0  0  0  0  0  0
  -29.5394   58.9233   63.7343 N   0  0  0  0  0  0  0  0  0  0  0  0
  -37.7543   61.2478   66.1742 O   0  0  0  0  0  0  0  0  0  0  0  0
  -37.6390   58.4030   62.6110 C   0  0  0  0  0  0  0  0  0  0  0  0
  -37.8853   57.9472   66.7604 N   0  0  0  0  0  0  0  0  0  0  0  0
  -38.4110   63.4950   59.1326 O   0  0  0  0  0  0  0  0  0  0  0  0
  -36.7890   58.5530   63.8960 C   0  0  1  0  0  0  0  0  0  0  0  0
  -30.6880   58.0749   61.9946 O   0  0  0  0  0  0  0  0  0  0  0  0
  -35.3080   58.3090   63.6770 C   0  0  0  0  0  0  0  0  0  0  0  0
  -39.3379   56.9364   65.3966 O   0  0  0  0  0  0  0  0  0  0  0  0
  -33.9798   56.1611   63.4647 C   0  0  1  0  0  0  0  0  0  0  0  0
  -37.1193   56.3162   68.9560 O   0  0  0  0  0  0  0  0  0  0  0  0
  -32.6899   56.8565   63.8732 C   0  0  0  0  0  0  0  0  0  0  0  0
  -34.5691   55.3695   64.6256 C   0  0  0  0  0  0  0  0  0  0  0  0
  -32.8982   57.9319   64.9108 C   0  0  0  0  0  0  0  0  0  0  0  0
  -37.7336   60.1539   65.6256 C   0  0  0  0  0  0  0  0  0  0  0  0
  -36.5408   62.5542   57.9667 C   0  0  0  0  0  0  0  0  0  0  0  0
  -36.7489   63.1972   56.5888 C   0  0  0  0  0  0  0  0  0  0  0  0
  -35.4204   63.2168   55.8085 C   0  0  0  0  0  0  0  0  0  0  0  0
  -34.2993   63.9958   56.5223 C   0  0  0  0  0  0  0  0  0  0  0  0
  -33.9109   63.4385   57.9046 C   0  0  0  0  0  0  0  0  0  0  0  0
  -33.3884   61.9879   57.8417 C   0  0  0  0  0  0  0  0  0  0  0  0
  -33.0032   61.3846   59.2125 C   0  0  0  0  0  0  0  0  0  0  0  0
  -31.9083   62.1733   59.9401 C   0  0  0  0  0  0  0  0  0  0  0  0
  -30.5810   62.3008   59.1858 C   0  0  0  0  0  0  0  0  0  0  0  0
  -29.5444   63.0922   60.0040 C   0  0  0  0  0  0  0  0  0  0  0  0
  -29.1924   62.4473   61.3532 C   0  0  0  0  0  0  0  0  0  0  0  0
  -28.1762   63.2093   62.2102 C   0  0  0  0  0  0  0  0  0  0  0  0
  -27.8339   62.5198   63.5544 C   0  0  0  0  0  0  0  0  0  0  0  0
  -26.8214   63.3472   64.3721 C   0  0  0  0  0  0  0  0  0  0  0  0
  -26.3780   62.7735   65.7233 C   0  0  0  0  0  0  0  0  0  0  0  0
  -29.4692   59.5408   65.0668 C   0  0  0  0  0  0  0  0  0  0  0  0
  -29.7137   61.0590   64.9775 C   0  0  0  0  0  0  0  0  0  0  0  0
  -30.1484   61.5670   63.6127 C   0  0  0  0  0  0  0  0  0  0  0  0
  -31.5429   61.0807   63.2093 C   0  0  0  0  0  0  0  0  0  0  0  0
  -31.8808   59.5879   63.3586 C   0  0  1  0  0  0  0  0  0  0  0  0
  -30.6473   58.7881   62.9878 C   0  0  0  0  0  0  0  0  0  0  0  0
  -39.6251   58.3251   65.2368 C   0  0  0  0  0  0  0  0  0  0  0  0
  -38.2506   56.8144   66.3352 C   0  0  0  0  0  0  0  0  0  0  0  0
  -38.6466   59.0723   66.1849 C   0  0  1  0  0  0  0  0  0  0  0  0
  -37.1620   55.3133   68.0706 C   0  0  0  0  0  0  0  0  0  0  0  0
  -36.6778   54.0492   68.4318 C   0  0  0  0  0  0  0  0  0  0  0  0
  -36.7027   52.9827   67.5174 C   0  0  0  0  0  0  0  0  0  0  0  0
  -37.2216   53.1656   66.2344 C   0  0  0  0  0  0  0  0  0  0  0  0
  -37.7117   54.4231   65.8713 C   0  0  0  0  0  0  0  0  0  0  0  0
  -37.6800   55.4961   66.7826 C   0  0  0  0  0  0  0  0  0  0  0  0
  -27.0337   57.2608   61.2873 H   0  0  0  0  0  0  0  0  0  0  0  0
  -28.7847   58.6297   60.6263 H   0  0  0  0  0  0  0  0  0  0  0  0
  -29.2254   56.5623   61.5796 H   0  0  0  0  0  0  0  0  0  0  0  0
  -36.7241   60.4309   58.3165 H   0  0  0  0  0  0  0  0  0  0  0  0
  -40.2645   60.7338   59.3827 H   0  0  0  0  0  0  0  0  0  0  0  0
  -39.6677   61.7121   60.6905 H   0  0  0  0  0  0  0  0  0  0  0  0
  -32.7422   59.8929   65.2639 H   0  0  0  0  0  0  0  0  0  0  0  0
  -38.9012   58.8517   60.1300 H   0  0  0  0  0  0  0  0  0  0  0  0
  -39.9841   59.4704   61.4389 H   0  0  0  0  0  0  0  0  0  0  0  0
  -36.2607   60.5165   64.3574 H   0  0  0  0  0  0  0  0  0  0  0  0
  -37.3952   60.5477   61.9667 H   0  0  0  0  0  0  0  0  0  0  0  0
  -37.9824   57.4826   62.2948 H   0  0  0  0  0  0  0  0  0  0  0  0
  -37.2383   57.7881   64.4943 H   0  0  0  0  0  0  0  0  0  0  0  0
  -33.7965   55.4263   62.7088 H   0  0  0  0  0  0  0  0  0  0  0  0
  -36.7682   56.1704   69.8124 H   0  0  0  0  0  0  0  0  0  0  0  0
  -32.2538   57.3024   63.0038 H   0  0  0  0  0  0  0  0  0  0  0  0
  -32.0521   56.1149   64.3070 H   0  0  0  0  0  0  0  0  0  0  0  0
  -34.7857   56.0332   65.4364 H   0  0  0  0  0  0  0  0  0  0  0  0
  -33.8650   54.6310   64.9476 H   0  0  0  0  0  0  0  0  0  0  0  0
  -35.4705   54.8883   64.3080 H   0  0  0  0  0  0  0  0  0  0  0  0
  -36.1679   61.5621   57.8198 H   0  0  0  0  0  0  0  0  0  0  0  0
  -35.8567   63.1837   58.4965 H   0  0  0  0  0  0  0  0  0  0  0  0
  -37.0999   64.2001   56.7154 H   0  0  0  0  0  0  0  0  0  0  0  0
  -37.4691   62.6264   56.0407 H   0  0  0  0  0  0  0  0  0  0  0  0
  -35.5942   63.6708   54.8553 H   0  0  0  0  0  0  0  0  0  0  0  0
  -35.0920   62.2022   55.7212 H   0  0  0  0  0  0  0  0  0  0  0  0
  -34.6246   65.0072   56.6497 H   0  0  0  0  0  0  0  0  0  0  0  0
  -33.4295   63.9091   55.9052 H   0  0  0  0  0  0  0  0  0  0  0  0
  -34.7732   63.4637   58.5375 H   0  0  0  0  0  0  0  0  0  0  0  0
  -33.1191   64.0489   58.2860 H   0  0  0  0  0  0  0  0  0  0  0  0
  -32.5219   61.9718   57.2142 H   0  0  0  0  0  0  0  0  0  0  0  0
  -34.1915   61.3916   57.4618 H   0  0  0  0  0  0  0  0  0  0  0  0
  -32.6545   60.3850   59.0570 H   0  0  0  0  0  0  0  0  0  0  0  0
  -33.8776   61.4173   59.8284 H   0  0  0  0  0  0  0  0  0  0  0  0
  -31.7131   61.6850   60.8719 H   0  0  0  0  0  0  0  0  0  0  0  0
  -32.2838   63.1694   60.0479 H   0  0  0  0  0  0  0  0  0  0  0  0
  -30.7542   62.8078   58.2596 H   0  0  0  0  0  0  0  0  0  0  0  0
  -30.1953   61.3177   59.0137 H   0  0  0  0  0  0  0  0  0  0  0  0
  -29.9374   64.0698   60.1903 H   0  0  0  0  0  0  0  0  0  0  0  0
  -28.6441   63.1144   59.4262 H   0  0  0  0  0  0  0  0  0  0  0  0
  -28.7931   61.4740   61.1578 H   0  0  0  0  0  0  0  0  0  0  0  0
  -30.1012   62.4389   61.9178 H   0  0  0  0  0  0  0  0  0  0  0  0
  -28.5767   64.1785   62.4228 H   0  0  0  0  0  0  0  0  0  0  0  0
  -27.2680   63.2500   61.6459 H   0  0  0  0  0  0  0  0  0  0  0  0
  -27.4142   61.5562   63.3540 H   0  0  0  0  0  0  0  0  0  0  0  0
  -28.7344   62.4316   64.1255 H   0  0  0  0  0  0  0  0  0  0  0  0
  -27.2627   64.3041   64.5577 H   0  0  0  0  0  0  0  0  0  0  0  0
  -25.9336   63.3657   63.7751 H   0  0  0  0  0  0  0  0  0  0  0  0
  -27.2192   62.7229   66.3826 H   0  0  0  0  0  0  0  0  0  0  0  0
  -25.6277   63.4058   66.1502 H   0  0  0  0  0  0  0  0  0  0  0  0
  -25.9776   61.7917   65.5799 H   0  0  0  0  0  0  0  0  0  0  0  0
  -28.4999   59.3652   65.4846 H   0  0  0  0  0  0  0  0  0  0  0  0
  -30.2253   59.1068   65.6871 H   0  0  0  0  0  0  0  0  0  0  0  0
  -28.8038   61.5566   65.2411 H   0  0  0  0  0  0  0  0  0  0  0  0
  -30.5247   61.2681   65.6434 H   0  0  0  0  0  0  0  0  0  0  0  0
  -29.4442   61.2269   62.8822 H   0  0  0  0  0  0  0  0  0  0  0  0
  -30.1849   62.6350   63.6656 H   0  0  0  0  0  0  0  0  0  0  0  0
  -31.6768   61.3314   62.1778 H   0  0  0  0  0  0  0  0  0  0  0  0
  -32.1959   61.5639   63.9057 H   0  0  0  0  0  0  0  0  0  0  0  0
  -32.6676   59.3566   62.6714 H   0  0  0  0  0  0  0  0  0  0  0  0
  -40.6388   58.5299   65.5112 H   0  0  0  0  0  0  0  0  0  0  0  0
  -39.5041   58.6376   64.2206 H   0  0  0  0  0  0  0  0  0  0  0  0
  -39.2058   59.6850   66.8607 H   0  0  0  0  0  0  0  0  0  0  0  0
  -36.2985   53.8998   69.3799 H   0  0  0  0  0  0  0  0  0  0  0  0
  -36.3356   52.0592   67.7957 H   0  0  0  0  0  0  0  0  0  0  0  0
  -37.2430   52.3824   65.5627 H   0  0  0  0  0  0  0  0  0  0  0  0
  -38.1007   54.5666   64.9262 H   0  0  0  0  0  0  0  0  0  0  0  0
  1  2  1  0  0  0  0
  1  5  1  0  0  0  0
  1  7  1  0  0  0  0
  2 18  2  0  0  0  0
  2 29  1  0  0  0  0
  3 21  2  0  0  0  0
  4  6  1  0  0  0  0
  4 59  1  0  0  0  0
  4 60  1  0  0  0  0
  4 61  1  0  0  0  0
  5 62  1  0  0  0  0
  6 14  1  0  0  0  0
  7 10  1  0  0  0  0
  7 63  1  0  0  0  0
  7 64  1  0  0  0  0
  8 27  1  0  0  0  0
  8 48  1  0  0  0  0
  8 65  1  0  0  0  0
  9 21  1  0  0  0  0
  9 23  1  0  0  0  0
 10 13  1  0  0  0  0
 10 66  1  0  0  0  0
 10 67  1  0  0  0  0
 11 19  1  0  0  0  0
 11 28  1  0  0  0  0
 11 68  1  0  0  0  0
 12 27  2  0  0  0  0
 13 16  2  0  0  0  0
 13 69  1  0  0  0  0
 14 44  1  0  0  0  0
 14 49  1  0  0  0  0
 15 28  2  0  0  0  0
 16 19  1  0  0  0  0
 16 70  1  0  0  0  0
 17 51  2  0  0  0  0
 17 52  1  0  0  0  0
 19 21  1  0  0  0  0
 19 71  1  1  0  0  0
 20 49  2  0  0  0  0
 22 50  1  0  0  0  0
 22 51  1  0  0  0  0
 23 25  1  0  0  0  0
 23 26  1  0  0  0  0
 23 72  1  6  0  0  0
 24 53  1  0  0  0  0
 24 73  1  0  0  0  0
 25 27  1  0  0  0  0
 25 74  1  0  0  0  0
 25 75  1  0  0  0  0
 26 76  1  0  0  0  0
 26 77  1  0  0  0  0
 26 78  1  0  0  0  0
 28 52  1  0  0  0  0
 29 30  1  0  0  0  0
 29 79  1  0  0  0  0
 29 80  1  0  0  0  0
 30 31  1  0  0  0  0
 30 81  1  0  0  0  0
 30 82  1  0  0  0  0
 31 32  1  0  0  0  0
 31 83  1  0  0  0  0
 31 84  1  0  0  0  0
 32 33  1  0  0  0  0
 32 85  1  0  0  0  0
 32 86  1  0  0  0  0
 33 34  1  0  0  0  0
 33 87  1  0  0  0  0
 33 88  1  0  0  0  0
 34 35  1  0  0  0  0
 34 89  1  0  0  0  0
 34 90  1  0  0  0  0
 35 36  1  0  0  0  0
 35 91  1  0  0  0  0
 35 92  1  0  0  0  0
 36 37  1  0  0  0  0
 36 93  1  0  0  0  0
 36 94  1  0  0  0  0
 37 38  1  0  0  0  0
 37 95  1  0  0  0  0
 37 96  1  0  0  0  0
 38 39  1  0  0  0  0
 38 97  1  0  0  0  0
 38 98  1  0  0  0  0
 39 40  1  0  0  0  0
 39 99  1  0  0  0  0
 39100  1  0  0  0  0
 40 41  1  0  0  0  0
 40101  1  0  0  0  0
 40102  1  0  0  0  0
 41 42  1  0  0  0  0
 41103  1  0  0  0  0
 41104  1  0  0  0  0
 42 43  1  0  0  0  0
 42105  1  0  0  0  0
 42106  1  0  0  0  0
 43107  1  0  0  0  0
 43108  1  0  0  0  0
 43109  1  0  0  0  0
 44 45  1  0  0  0  0
 44110  1  0  0  0  0
 44111  1  0  0  0  0
 45 46  1  0  0  0  0
 45112  1  0  0  0  0
 45113  1  0  0  0  0
 46 47  1  0  0  0  0
 46114  1  0  0  0  0
 46115  1  0  0  0  0
 47 48  1  0  0  0  0
 47116  1  0  0  0  0
 47117  1  0  0  0  0
 48 49  1  0  0  0  0
 48118  1  6  0  0  0
 50 52  1  0  0  0  0
 50119  1  0  0  0  0
 50120  1  0  0  0  0
 51 58  1  0  0  0  0
 52121  1  1  0  0  0
 53 54  2  0  0  0  0
 53 58  1  0  0  0  0
 54 55  1  0  0  0  0
 54122  1  0  0  0  0
 55 56  2  0  0  0  0
 55123  1  0  0  0  0
 56 57  1  0  0  0  0
 56124  1  0  0  0  0
 57 58  2  0  0  0  0
 57125  1  0  0  0  0
M  END
$$$$
/media/chris/experiments/cd1a-new-docking/inputs/ligands/1xz0_ligand.pdb
 OpenBabel07022319323D

125127  0  0  1  0  0  0  0  0999 V2000
  -38.3697   55.6534   58.6303 N   0  0  0  0  0  0  0  0  0  0  0  0
  -39.3832   54.8781   58.1617 C   0  0  0  0  0  0  0  0  0  0  0  0
  -34.4624   59.0890   64.0833 O   0  0  0  0  0  0  0  0  0  0  0  0
  -35.7891   52.1534   70.6808 Si  0  0  0  0  0  0  0  0  0  0  0  0
  -37.7774   56.5445   57.7243 O   0  0  0  0  0  0  0  0  0  0  0  0
  -34.3603   53.2249   70.7599 O   0  0  0  0  0  0  0  0  0  0  0  0
  -37.7887   55.6996   59.9757 C   0  0  0  0  0  0  0  0  0  0  0  0
  -33.4778   54.6979   66.6484 N   0  0  0  0  0  0  0  0  0  0  0  0
  -34.8671   57.1453   62.9008 O   0  0  0  0  0  0  0  0  0  0  0  0
  -38.5576   56.7536   60.7988 C   0  0  0  0  0  0  0  0  0  0  0  0
  -36.8950   59.8150   64.6310 N   0  0  0  0  0  0  0  0  0  0  0  0
  -33.5554   53.5030   64.7297 O   0  0  0  0  0  0  0  0  0  0  0  0
  -38.1064   56.9875   62.2504 C   0  0  0  0  0  0  0  0  0  0  0  0
  -33.9150   53.8671   69.6440 N   0  0  0  0  0  0  0  0  0  0  0  0
  -37.7543   61.2478   66.1742 O   0  0  0  0  0  0  0  0  0  0  0  0
  -37.6390   58.4030   62.6110 C   0  0  0  0  0  0  0  0  0  0  0  0
  -37.8853   57.9472   66.7604 N   0  0  0  0  0  0  0  0  0  0  0  0
  -39.7593   54.9597   56.9926 O   0  0  0  0  0  0  0  0  0  0  0  0
  -36.7890   58.5530   63.8960 C   0  0  1  0  0  0  0  0  0  0  0  0
  -33.7984   51.9058   68.5461 O   0  0  0  0  0  0  0  0  0  0  0  0
  -35.3080   58.3090   63.6770 C   0  0  0  0  0  0  0  0  0  0  0  0
  -39.3379   56.9364   65.3966 O   0  0  0  0  0  0  0  0  0  0  0  0
  -33.9798   56.1611   63.4647 C   0  0  1  0  0  0  0  0  0  0  0  0
  -39.7409   54.3321   66.4532 O   0  0  0  0  0  0  0  0  0  0  0  0
  -34.6594   55.5413   64.6765 C   0  0  0  0  0  0  0  0  0  0  0  0
  -33.5194   55.0892   62.4846 C   0  0  0  0  0  0  0  0  0  0  0  0
  -33.8115   54.5003   65.3647 C   0  0  0  0  0  0  0  0  0  0  0  0
  -37.7336   60.1539   65.6256 C   0  0  0  0  0  0  0  0  0  0  0  0
  -40.0660   53.8931   59.1164 C   0  0  0  0  0  0  0  0  0  0  0  0
  -39.9745   52.4230   58.6853 C   0  0  0  0  0  0  0  0  0  0  0  0
  -38.4990   51.9861   58.6068 C   0  0  0  0  0  0  0  0  0  0  0  0
  -38.3137   50.5227   58.1628 C   0  0  0  0  0  0  0  0  0  0  0  0
  -36.8482   50.0545   58.0923 C   0  0  0  0  0  0  0  0  0  0  0  0
  -36.1261   50.1355   59.4536 C   0  0  0  0  0  0  0  0  0  0  0  0
  -34.6455   49.6899   59.4221 C   0  0  0  0  0  0  0  0  0  0  0  0
  -33.7738   50.5356   58.4866 C   0  0  0  0  0  0  0  0  0  0  0  0
  -32.3011   50.1206   58.4094 C   0  0  0  0  0  0  0  0  0  0  0  0
  -31.6257   50.1889   59.7913 C   0  0  0  0  0  0  0  0  0  0  0  0
  -30.1396   49.8001   59.7778 C   0  0  0  0  0  0  0  0  0  0  0  0
  -29.4296   49.8372   61.1351 C   0  0  0  0  0  0  0  0  0  0  0  0
  -27.9292   49.4559   61.0786 C   0  0  0  0  0  0  0  0  0  0  0  0
  -27.7286   48.0324   60.5204 C   0  0  0  0  0  0  0  0  0  0  0  0
  -28.3971   46.8814   61.2818 C   0  0  0  0  0  0  0  0  0  0  0  0
  -33.8887   55.3366   69.6837 C   0  0  0  0  0  0  0  0  0  0  0  0
  -32.4385   55.8559   69.6857 C   0  0  0  0  0  0  0  0  0  0  0  0
  -31.3702   54.7980   69.4641 C   0  0  0  0  0  0  0  0  0  0  0  0
  -31.4032   54.1999   68.0551 C   0  0  0  0  0  0  0  0  0  0  0  0
  -32.7497   53.7315   67.4786 C   0  0  1  0  0  0  0  0  0  0  0  0
  -33.5483   53.1020   68.6033 C   0  0  0  0  0  0  0  0  0  0  0  0
  -39.6251   58.3251   65.2368 C   0  0  0  0  0  0  0  0  0  0  0  0
  -38.2506   56.8144   66.3352 C   0  0  0  0  0  0  0  0  0  0  0  0
  -38.6466   59.0723   66.1849 C   0  0  1  0  0  0  0  0  0  0  0  0
  -38.4485   54.3258   66.8014 C   0  0  0  0  0  0  0  0  0  0  0  0
  -37.8435   53.1256   67.1969 C   0  0  0  0  0  0  0  0  0  0  0  0
  -36.4909   53.0943   67.5761 C   0  0  0  0  0  0  0  0  0  0  0  0
  -35.7252   54.2613   67.5546 C   0  0  0  0  0  0  0  0  0  0  0  0
  -36.3225   55.4600   67.1548 C   0  0  0  0  0  0  0  0  0  0  0  0
  -37.6800   55.4961   66.7826 C   0  0  0  0  0  0  0  0  0  0  0  0
  -36.0450   51.6099   71.9674 H   0  0  0  0  0  0  0  0  0  0  0  0
  -35.5399   51.0992   69.7626 H   0  0  0  0  0  0  0  0  0  0  0  0
  -36.9173   52.9001   70.2493 H   0  0  0  0  0  0  0  0  0  0  0  0
  -38.2087   56.4606   56.8595 H   0  0  0  0  0  0  0  0  0  0  0  0
  -36.7556   55.9713   59.9146 H   0  0  0  0  0  0  0  0  0  0  0  0
  -37.8638   54.7400   60.4430 H   0  0  0  0  0  0  0  0  0  0  0  0
  -33.7398   55.5515   67.0631 H   0  0  0  0  0  0  0  0  0  0  0  0
  -39.5839   56.4523   60.8266 H   0  0  0  0  0  0  0  0  0  0  0  0
  -38.3666   57.6812   60.3008 H   0  0  0  0  0  0  0  0  0  0  0  0
  -36.2607   60.5165   64.3574 H   0  0  0  0  0  0  0  0  0  0  0  0
  -38.1176   56.2279   62.9488 H   0  0  0  0  0  0  0  0  0  0  0  0
  -37.8799   59.2173   62.0245 H   0  0  0  0  0  0  0  0  0  0  0  0
  -37.2383   57.7881   64.4943 H   0  0  0  0  0  0  0  0  0  0  0  0
  -33.0800   56.6668   63.7465 H   0  0  0  0  0  0  0  0  0  0  0  0
  -40.2355   53.5365   66.4735 H   0  0  0  0  0  0  0  0  0  0  0  0
  -35.5708   55.0808   64.3570 H   0  0  0  0  0  0  0  0  0  0  0  0
  -34.8323   56.3276   65.3812 H   0  0  0  0  0  0  0  0  0  0  0  0
  -34.3652   54.5277   62.1468 H   0  0  0  0  0  0  0  0  0  0  0  0
  -32.8277   54.4340   62.9716 H   0  0  0  0  0  0  0  0  0  0  0  0
  -33.0418   55.5532   61.6470 H   0  0  0  0  0  0  0  0  0  0  0  0
  -41.1006   54.1575   59.1857 H   0  0  0  0  0  0  0  0  0  0  0  0
  -39.5516   53.9690   60.0515 H   0  0  0  0  0  0  0  0  0  0  0  0
  -40.4298   52.3069   57.7240 H   0  0  0  0  0  0  0  0  0  0  0  0
  -40.4825   51.8146   59.4041 H   0  0  0  0  0  0  0  0  0  0  0  0
  -38.0588   52.1045   59.5748 H   0  0  0  0  0  0  0  0  0  0  0  0
  -38.0279   52.6008   57.8685 H   0  0  0  0  0  0  0  0  0  0  0  0
  -38.7467   50.4115   57.1906 H   0  0  0  0  0  0  0  0  0  0  0  0
  -38.7898   49.9178   58.9060 H   0  0  0  0  0  0  0  0  0  0  0  0
  -36.3259   50.6717   57.3914 H   0  0  0  0  0  0  0  0  0  0  0  0
  -36.8531   49.0275   57.7919 H   0  0  0  0  0  0  0  0  0  0  0  0
  -36.6486   49.5099   60.1467 H   0  0  0  0  0  0  0  0  0  0  0  0
  -36.1273   51.1671   59.7376 H   0  0  0  0  0  0  0  0  0  0  0  0
  -34.6047   48.6719   59.0954 H   0  0  0  0  0  0  0  0  0  0  0  0
  -34.2579   49.8134   60.4118 H   0  0  0  0  0  0  0  0  0  0  0  0
  -33.8139   51.5499   58.8247 H   0  0  0  0  0  0  0  0  0  0  0  0
  -34.1724   50.3947   57.5036 H   0  0  0  0  0  0  0  0  0  0  0  0
  -31.7888   50.7780   57.7385 H   0  0  0  0  0  0  0  0  0  0  0  0
  -32.2536   49.1101   58.0606 H   0  0  0  0  0  0  0  0  0  0  0  0
  -32.1420   49.5239   60.4518 H   0  0  0  0  0  0  0  0  0  0  0  0
  -31.6771   51.2084   60.1119 H   0  0  0  0  0  0  0  0  0  0  0  0
  -29.6296   50.4741   59.1217 H   0  0  0  0  0  0  0  0  0  0  0  0
  -30.1088   48.7785   59.4611 H   0  0  0  0  0  0  0  0  0  0  0  0
  -29.9251   49.1529   61.7916 H   0  0  0  0  0  0  0  0  0  0  0  0
  -29.4764   50.8496   61.4784 H   0  0  0  0  0  0  0  0  0  0  0  0
  -27.5212   49.5026   62.0667 H   0  0  0  0  0  0  0  0  0  0  0  0
  -27.4319   50.1448   60.4283 H   0  0  0  0  0  0  0  0  0  0  0  0
  -26.6764   47.8387   60.5027 H   0  0  0  0  0  0  0  0  0  0  0  0
  -28.2037   48.0421   59.5617 H   0  0  0  0  0  0  0  0  0  0  0  0
  -27.9714   46.8065   62.2606 H   0  0  0  0  0  0  0  0  0  0  0  0
  -28.2391   45.9647   60.7530 H   0  0  0  0  0  0  0  0  0  0  0  0
  -29.4472   47.0699   61.3630 H   0  0  0  0  0  0  0  0  0  0  0  0
  -34.3833   55.6728   70.5710 H   0  0  0  0  0  0  0  0  0  0  0  0
  -34.3874   55.7130   68.8151 H   0  0  0  0  0  0  0  0  0  0  0  0
  -32.2543   56.3187   70.6327 H   0  0  0  0  0  0  0  0  0  0  0  0
  -32.3641   56.5299   68.8579 H   0  0  0  0  0  0  0  0  0  0  0  0
  -31.5187   54.0099   70.1725 H   0  0  0  0  0  0  0  0  0  0  0  0
  -30.4193   55.2727   69.5879 H   0  0  0  0  0  0  0  0  0  0  0  0
  -30.7509   53.3517   68.0585 H   0  0  0  0  0  0  0  0  0  0  0  0
  -31.1213   55.0152   67.4222 H   0  0  0  0  0  0  0  0  0  0  0  0
  -32.5505   52.9901   66.7333 H   0  0  0  0  0  0  0  0  0  0  0  0
  -40.6388   58.5299   65.5112 H   0  0  0  0  0  0  0  0  0  0  0  0
  -39.5041   58.6376   64.2206 H   0  0  0  0  0  0  0  0  0  0  0  0
  -39.2058   59.6850   66.8607 H   0  0  0  0  0  0  0  0  0  0  0  0
  -38.3974   52.2549   67.2098 H   0  0  0  0  0  0  0  0  0  0  0  0
  -36.0613   52.2039   67.8721 H   0  0  0  0  0  0  0  0  0  0  0  0
  -34.7310   54.2393   67.8303 H   0  0  0  0  0  0  0  0  0  0  0  0
  -35.7631   56.3270   67.1321 H   0  0  0  0  0  0  0  0  0  0  0  0
  1  2  1  0  0  0  0
  1  5  1  0  0  0  0
  1  7  1  0  0  0  0
  2 18  2  0  0  0  0
  2 29  1  0  0  0  0
  3 21  2  0  0  0  0
  4  6  1  0  0  0  0
  4 59  1  0  0  0  0
  4 60  1  0  0  0  0
  4 61  1  0  0  0  0
  5 62  1  0  0  0  0
  6 14  1  0  0  0  0
  7 10  1  0  0  0  0
  7 63  1  0  0  0  0
  7 64  1  0  0  0  0
  8 27  1  0  0  0  0
  8 48  1  0  0  0  0
  8 65  1  0  0  0  0
  9 21  1  0  0  0  0
  9 23  1  0  0  0  0
 10 13  1  0  0  0  0
 10 66  1  0  0  0  0
 10 67  1  0  0  0  0
 11 19  1  0  0  0  0
 11 28  1  0  0  0  0
 11 68  1  0  0  0  0
 12 27  2  0  0  0  0
 13 16  2  0  0  0  0
 13 69  1  0  0  0  0
 14 44  1  0  0  0  0
 14 49  1  0  0  0  0
 15 28  2  0  0  0  0
 16 19  1  0  0  0  0
 16 70  1  0  0  0  0
 17 51  2  0  0  0  0
 17 52  1  0  0  0  0
 19 21  1  0  0  0  0
 19 71  1  1  0  0  0
 20 49  2  0  0  0  0
 22 50  1  0  0  0  0
 22 51  1  0  0  0  0
 23 25  1  0  0  0  0
 23 26  1  0  0  0  0
 23 72  1  1  0  0  0
 24 53  1  0  0  0  0
 24 73  1  0  0  0  0
 25 27  1  0  0  0  0
 25 74  1  0  0  0  0
 25 75  1  0  0  0  0
 26 76  1  0  0  0  0
 26 77  1  0  0  0  0
 26 78  1  0  0  0  0
 28 52  1  0  0  0  0
 29 30  1  0  0  0  0
 29 79  1  0  0  0  0
 29 80  1  0  0  0  0
 30 31  1  0  0  0  0
 30 81  1  0  0  0  0
 30 82  1  0  0  0  0
 31 32  1  0  0  0  0
 31 83  1  0  0  0  0
 31 84  1  0  0  0  0
 32 33  1  0  0  0  0
 32 85  1  0  0  0  0
 32 86  1  0  0  0  0
 33 34  1  0  0  0  0
 33 87  1  0  0  0  0
 33 88  1  0  0  0  0
 34 35  1  0  0  0  0
 34 89  1  0  0  0  0
 34 90  1  0  0  0  0
 35 36  1  0  0  0  0
 35 91  1  0  0  0  0
 35 92  1  0  0  0  0
 36 37  1  0  0  0  0
 36 93  1  0  0  0  0
 36 94  1  0  0  0  0
 37 38  1  0  0  0  0
 37 95  1  0  0  0  0
 37 96  1  0  0  0  0
 38 39  1  0  0  0  0
 38 97  1  0  0  0  0
 38 98  1  0  0  0  0
 39 40  1  0  0  0  0
 39 99  1  0  0  0  0
 39100  1  0  0  0  0
 40 41  1  0  0  0  0
 40101  1  0  0  0  0
 40102  1  0  0  0  0
 41 42  1  0  0  0  0
 41103  1  0  0  0  0
 41104  1  0  0  0  0
 42 43  1  0  0  0  0
 42105  1  0  0  0  0
 42106  1  0  0  0  0
 43107  1  0  0  0  0
 43108  1  0  0  0  0
 43109  1  0  0  0  0
 44 45  1  0  0  0  0
 44110  1  0  0  0  0
 44111  1  0  0  0  0
 45 46  1  0  0  0  0
 45112  1  0  0  0  0
 45113  1  0  0  0  0
 46 47  1  0  0  0  0
 46114  1  0  0  0  0
 46115  1  0  0  0  0
 47 48  1  0  0  0  0
 47116  1  0  0  0  0
 47117  1  0  0  0  0
 48 49  1  0  0  0  0
 48118  1  6  0  0  0
 50 52  1  0  0  0  0
 50119  1  0  0  0  0
 50120  1  0  0  0  0
 51 58  1  0  0  0  0
 52121  1  1  0  0  0
 53 54  2  0  0  0  0
 53 58  1  0  0  0  0
 54 55  1  0  0  0  0
 54122  1  0  0  0  0
 55 56  2  0  0  0  0
 55123  1  0  0  0  0
 56 57  1  0  0  0  0
 56124  1  0  0  0  0
 57 58  2  0  0  0  0
 57125  1  0  0  0  0
M  END
$$$$
/media/chris/experiments/cd1a-new-docking/inputs/ligands/1xz0_ligand.pdb
 OpenBabel07022319323D

125127  0  0  1  0  0  0  0  0999 V2000
  -38.2349   61.2640   59.2525 N   0  0  0  0  0  0  0  0  0  0  0  0
  -38.3144   62.1542   58.2283 C   0  0  0  0  0  0  0  0  0  0  0  0
  -34.4677   58.7167   64.4620 O   0  0  0  0  0  0  0  0  0  0  0  0
  -39.6077   50.1936   64.1583 Si  0  0  0  0  0  0  0  0  0  0  0  0
  -37.5169   61.6622   60.3889 O   0  0  0  0  0  0  0  0  0  0  0  0
  -37.9372   50.4306   64.7493 O   0  0  0  0  0  0  0  0  0  0  0  0
  -38.8026   59.9157   59.3501 C   0  0  0  0  0  0  0  0  0  0  0  0
  -35.6603   53.8407   63.0056 N   0  0  0  0  0  0  0  0  0  0  0  0
  -34.8529   57.6257   62.4617 O   0  0  0  0  0  0  0  0  0  0  0  0
  -39.1167   59.6292   60.8329 C   0  0  0  0  0  0  0  0  0  0  0  0
  -36.8950   59.8150   64.6310 N   0  0  0  0  0  0  0  0  0  0  0  0
  -35.0530   54.9623   61.1378 O   0  0  0  0  0  0  0  0  0  0  0  0
  -37.9469   59.6864   61.8299 C   0  0  0  0  0  0  0  0  0  0  0  0
  -37.0812   51.2594   64.0887 N   0  0  0  0  0  0  0  0  0  0  0  0
  -37.6467   59.1566   66.6741 O   0  0  0  0  0  0  0  0  0  0  0  0
  -37.6390   58.4030   62.6110 C   0  0  0  0  0  0  0  0  0  0  0  0
  -38.4016   62.2337   65.5712 N   0  0  0  0  0  0  0  0  0  0  0  0
  -38.9367   61.8883   57.2001 O   0  0  0  0  0  0  0  0  0  0  0  0
  -36.7890   58.5530   63.8960 C   0  0  1  0  0  0  0  0  0  0  0  0
  -38.7795   52.6592   63.6176 O   0  0  0  0  0  0  0  0  0  0  0  0
  -35.3080   58.3090   63.6770 C   0  0  0  0  0  0  0  0  0  0  0  0
  -36.5957   63.5487   65.5313 O   0  0  0  0  0  0  0  0  0  0  0  0
  -33.6205   56.8810   62.4377 C   0  0  1  0  0  0  0  0  0  0  0  0
  -40.7326   62.9739   64.3565 O   0  0  0  0  0  0  0  0  0  0  0  0
  -33.8739   55.5146   63.0565 C   0  0  0  0  0  0  0  0  0  0  0  0
  -32.9869   56.7509   61.0581 C   0  0  0  0  0  0  0  0  0  0  0  0
  -34.9094   54.7086   62.3119 C   0  0  0  0  0  0  0  0  0  0  0  0
  -37.2920   60.0330   65.8968 C   0  0  0  0  0  0  0  0  0  0  0  0
  -37.6079   63.5070   58.3647 C   0  0  0  0  0  0  0  0  0  0  0  0
  -36.1625   63.5241   57.8490 C   0  0  0  0  0  0  0  0  0  0  0  0
  -35.5459   64.9218   58.0504 C   0  0  0  0  0  0  0  0  0  0  0  0
  -34.0959   65.0334   57.5424 C   0  0  0  0  0  0  0  0  0  0  0  0
  -33.4492   66.4161   57.7471 C   0  0  0  0  0  0  0  0  0  0  0  0
  -34.2201   67.5500   57.0392 C   0  0  0  0  0  0  0  0  0  0  0  0
  -35.6785   67.7323   57.5205 C   0  0  0  0  0  0  0  0  0  0  0  0
  -36.4264   68.8532   56.7895 C   0  0  0  0  0  0  0  0  0  0  0  0
  -37.8711   69.0826   57.2446 C   0  0  0  0  0  0  0  0  0  0  0  0
  -38.5396   70.2131   56.4412 C   0  0  0  0  0  0  0  0  0  0  0  0
  -38.6205   69.9404   54.9316 C   0  0  0  0  0  0  0  0  0  0  0  0
  -39.4226   68.7011   54.5211 C   0  0  0  0  0  0  0  0  0  0  0  0
  -39.4672   68.4496   52.9932 C   0  0  0  0  0  0  0  0  0  0  0  0
  -40.3032   67.1999   52.6504 C   0  0  0  0  0  0  0  0  0  0  0  0
  -40.4197   66.8206   51.1692 C   0  0  0  0  0  0  0  0  0  0  0  0
  -35.6500   50.9279   64.1480 C   0  0  0  0  0  0  0  0  0  0  0  0
  -35.1373   50.4767   62.7673 C   0  0  0  0  0  0  0  0  0  0  0  0
  -36.1253   50.6384   61.6238 C   0  0  0  0  0  0  0  0  0  0  0  0
  -36.4261   52.1031   61.2953 C   0  0  0  0  0  0  0  0  0  0  0  0
  -36.7724   53.0657   62.4434 C   0  0  1  0  0  0  0  0  0  0  0  0
  -37.6188   52.3109   63.4497 C   0  0  0  0  0  0  0  0  0  0  0  0
  -36.1797   62.4160   66.2933 C   0  0  0  0  0  0  0  0  0  0  0  0
  -37.9615   63.3312   65.1248 C   0  0  0  0  0  0  0  0  0  0  0  0
  -37.4151   61.4760   66.3644 C   0  0  1  0  0  0  0  0  0  0  0  0
  -40.1039   64.0999   63.9982 C   0  0  0  0  0  0  0  0  0  0  0  0
  -40.7978   65.0819   63.2790 C   0  0  0  0  0  0  0  0  0  0  0  0
  -40.1577   66.2684   62.8829 C   0  0  0  0  0  0  0  0  0  0  0  0
  -38.8191   66.4908   63.2103 C   0  0  0  0  0  0  0  0  0  0  0  0
  -38.1243   65.5170   63.9332 C   0  0  0  0  0  0  0  0  0  0  0  0
  -38.7605   64.3232   64.3239 C   0  0  0  0  0  0  0  0  0  0  0  0
  -40.2894   49.2902   65.0159 H   0  0  0  0  0  0  0  0  0  0  0  0
  -39.5731   49.6620   62.8420 H   0  0  0  0  0  0  0  0  0  0  0  0
  -40.2874   51.4403   64.1476 H   0  0  0  0  0  0  0  0  0  0  0  0
  -37.1718   62.5589   60.2555 H   0  0  0  0  0  0  0  0  0  0  0  0
  -38.0974   59.1988   58.9845 H   0  0  0  0  0  0  0  0  0  0  0  0
  -39.6954   59.8480   58.7642 H   0  0  0  0  0  0  0  0  0  0  0  0
  -35.4507   53.7145   63.9592 H   0  0  0  0  0  0  0  0  0  0  0  0
  -39.5368   58.6466   60.8876 H   0  0  0  0  0  0  0  0  0  0  0  0
  -39.7690   60.4229   61.1319 H   0  0  0  0  0  0  0  0  0  0  0  0
  -36.6386   60.6199   64.1253 H   0  0  0  0  0  0  0  0  0  0  0  0
  -37.3952   60.5477   61.9667 H   0  0  0  0  0  0  0  0  0  0  0  0
  -37.9824   57.4826   62.2948 H   0  0  0  0  0  0  0  0  0  0  0  0
  -37.2383   57.7881   64.4943 H   0  0  0  0  0  0  0  0  0  0  0  0
  -32.9029   57.4331   63.0080 H   0  0  0  0  0  0  0  0  0  0  0  0
  -41.6322   62.8463   64.1274 H   0  0  0  0  0  0  0  0  0  0  0  0
  -34.2101   55.6538   64.0627 H   0  0  0  0  0  0  0  0  0  0  0  0
  -32.9541   54.9696   63.0122 H   0  0  0  0  0  0  0  0  0  0  0  0
  -33.6442   56.2052   60.4138 H   0  0  0  0  0  0  0  0  0  0  0  0
  -32.0556   56.2306   61.1410 H   0  0  0  0  0  0  0  0  0  0  0  0
  -32.8159   57.7254   60.6508 H   0  0  0  0  0  0  0  0  0  0  0  0
  -37.5965   63.7753   59.4005 H   0  0  0  0  0  0  0  0  0  0  0  0
  -38.1555   64.1991   57.7596 H   0  0  0  0  0  0  0  0  0  0  0  0
  -36.1555   63.2809   56.8070 H   0  0  0  0  0  0  0  0  0  0  0  0
  -35.5872   62.8053   58.3941 H   0  0  0  0  0  0  0  0  0  0  0  0
  -35.5569   65.1492   59.0959 H   0  0  0  0  0  0  0  0  0  0  0  0
  -36.1332   65.6099   57.4790 H   0  0  0  0  0  0  0  0  0  0  0  0
  -34.0915   64.8147   56.4950 H   0  0  0  0  0  0  0  0  0  0  0  0
  -33.5187   64.3405   58.1183 H   0  0  0  0  0  0  0  0  0  0  0  0
  -32.4522   66.3875   57.3599 H   0  0  0  0  0  0  0  0  0  0  0  0
  -33.4628   66.6249   58.7965 H   0  0  0  0  0  0  0  0  0  0  0  0
  -34.2384   67.3376   55.9906 H   0  0  0  0  0  0  0  0  0  0  0  0
  -33.7067   68.4591   57.2732 H   0  0  0  0  0  0  0  0  0  0  0  0
  -35.6644   67.9599   58.5659 H   0  0  0  0  0  0  0  0  0  0  0  0
  -36.1960   66.8194   57.3116 H   0  0  0  0  0  0  0  0  0  0  0  0
  -36.4425   68.6142   55.7466 H   0  0  0  0  0  0  0  0  0  0  0  0
  -35.8987   69.7564   57.0147 H   0  0  0  0  0  0  0  0  0  0  0  0
  -37.8719   69.3450   58.2819 H   0  0  0  0  0  0  0  0  0  0  0  0
  -38.4232   68.1808   57.0809 H   0  0  0  0  0  0  0  0  0  0  0  0
  -37.9776   71.1112   56.5916 H   0  0  0  0  0  0  0  0  0  0  0  0
  -39.5456   70.2937   56.7966 H   0  0  0  0  0  0  0  0  0  0  0  0
  -37.6222   69.8218   54.5652 H   0  0  0  0  0  0  0  0  0  0  0  0
  -39.1409   70.7760   54.5123 H   0  0  0  0  0  0  0  0  0  0  0  0
  -40.4268   68.8207   54.8707 H   0  0  0  0  0  0  0  0  0  0  0  0
  -38.9290   67.8577   54.9568 H   0  0  0  0  0  0  0  0  0  0  0  0
  -38.4688   68.3092   52.6347 H   0  0  0  0  0  0  0  0  0  0  0  0
  -39.9237   69.2974   52.5265 H   0  0  0  0  0  0  0  0  0  0  0  0
  -41.2940   67.3639   53.0197 H   0  0  0  0  0  0  0  0  0  0  0  0
  -39.7797   66.3844   53.1041 H   0  0  0  0  0  0  0  0  0  0  0  0
  -40.9371   67.5949   50.6424 H   0  0  0  0  0  0  0  0  0  0  0  0
  -40.9622   65.9029   51.0777 H   0  0  0  0  0  0  0  0  0  0  0  0
  -39.4410   66.6993   50.7541 H   0  0  0  0  0  0  0  0  0  0  0  0
  -35.5017   50.1369   64.8533 H   0  0  0  0  0  0  0  0  0  0  0  0
  -35.1073   51.7998   64.4482 H   0  0  0  0  0  0  0  0  0  0  0  0
  -34.8751   49.4415   62.8340 H   0  0  0  0  0  0  0  0  0  0  0  0
  -34.3097   51.1142   62.5360 H   0  0  0  0  0  0  0  0  0  0  0  0
  -37.0408   50.1545   61.8933 H   0  0  0  0  0  0  0  0  0  0  0  0
  -35.6825   50.1998   60.7541 H   0  0  0  0  0  0  0  0  0  0  0  0
  -37.2554   52.1094   60.6191 H   0  0  0  0  0  0  0  0  0  0  0  0
  -35.4988   52.4779   60.9153 H   0  0  0  0  0  0  0  0  0  0  0  0
  -37.3471   53.8718   62.0373 H   0  0  0  0  0  0  0  0  0  0  0  0
  -35.8835   62.7169   67.2764 H   0  0  0  0  0  0  0  0  0  0  0  0
  -35.3391   61.9280   65.8460 H   0  0  0  0  0  0  0  0  0  0  0  0
  -37.6533   61.2801   67.3890 H   0  0  0  0  0  0  0  0  0  0  0  0
  -41.7899   64.9321   63.0374 H   0  0  0  0  0  0  0  0  0  0  0  0
  -40.6800   66.9791   62.3471 H   0  0  0  0  0  0  0  0  0  0  0  0
  -38.3485   67.3629   62.9224 H   0  0  0  0  0  0  0  0  0  0  0  0
  -37.1354   65.6745   64.1830 H   0  0  0  0  0  0  0  0  0  0  0  0
  1  2  1  0  0  0  0
  1  5  1  0  0  0  0
  1  7  1  0  0  0  0
  2 18  2  0  0  0  0
  2 29  1  0  0  0  0
  3 21  2  0  0  0  0
  4  6  1  0  0  0  0
  4 59  1  0  0  0  0
  4 60  1  0  0  0  0
  4 61  1  0  0  0  0
  5 62  1  0  0  0  0
  6 14  1  0  0  0  0
  7 10  1  0  0  0  0
  7 63  1  0  0  0  0
  7 64  1  0  0  0  0
  8 27  1  0  0  0  0
  8 48  1  0  0  0  0
  8 65  1  0  0  0  0
  9 21  1  0  0  0  0
  9 23  1  0  0  0  0
 10 13  1  0  0  0  0
 10 66  1  0  0  0  0
 10 67  1  0  0  0  0
 11 19  1  0  0  0  0
 11 28  1  0  0  0  0
 11 68  1  0  0  0  0
 12 27  2  0  0  0  0
 13 16  2  0  0  0  0
 13 69  1  0  0  0  0
 14 44  1  0  0  0  0
 14 49  1  0  0  0  0
 15 28  2  0  0  0  0
 16 19  1  0  0  0  0
 16 70  1  0  0  0  0
 17 51  2  0  0  0  0
 17 52  1  0  0  0  0
 19 21  1  0  0  0  0
 19 71  1  1  0  0  0
 20 49  2  0  0  0  0
 22 50  1  0  0  0  0
 22 51  1  0  0  0  0
 23 25  1  0  0  0  0
 23 26  1  0  0  0  0
 23 72  1  1  0  0  0
 24 53  1  0  0  0  0
 24 73  1  0  0  0  0
 25 27  1  0  0  0  0
 25 74  1  0  0  0  0
 25 75  1  0  0  0  0
 26 76  1  0  0  0  0
 26 77  1  0  0  0  0
 26 78  1  0  0  0  0
 28 52  1  0  0  0  0
 29 30  1  0  0  0  0
 29 79  1  0  0  0  0
 29 80  1  0  0  0  0
 30 31  1  0  0  0  0
 30 81  1  0  0  0  0
 30 82  1  0  0  0  0
 31 32  1  0  0  0  0
 31 83  1  0  0  0  0
 31 84  1  0  0  0  0
 32 33  1  0  0  0  0
 32 85  1  0  0  0  0
 32 86  1  0  0  0  0
 33 34  1  0  0  0  0
 33 87  1  0  0  0  0
 33 88  1  0  0  0  0
 34 35  1  0  0  0  0
 34 89  1  0  0  0  0
 34 90  1  0  0  0  0
 35 36  1  0  0  0  0
 35 91  1  0  0  0  0
 35 92  1  0  0  0  0
 36 37  1  0  0  0  0
 36 93  1  0  0  0  0
 36 94  1  0  0  0  0
 37 38  1  0  0  0  0
 37 95  1  0  0  0  0
 37 96  1  0  0  0  0
 38 39  1  0  0  0  0
 38 97  1  0  0  0  0
 38 98  1  0  0  0  0
 39 40  1  0  0  0  0
 39 99  1  0  0  0  0
 39100  1  0  0  0  0
 40 41  1  0  0  0  0
 40101  1  0  0  0  0
 40102  1  0  0  0  0
 41 42  1  0  0  0  0
 41103  1  0  0  0  0
 41104  1  0  0  0  0
 42 43  1  0  0  0  0
 42105  1  0  0  0  0
 42106  1  0  0  0  0
 43107  1  0  0  0  0
 43108  1  0  0  0  0
 43109  1  0  0  0  0
 44 45  1  0  0  0  0
 44110  1  0  0  0  0
 44111  1  0  0  0  0
 45 46  1  0  0  0  0
 45112  1  0  0  0  0
 45113  1  0  0  0  0
 46 47  1  0  0  0  0
 46114  1  0  0  0  0
 46115  1  0  0  0  0
 47 48  1  0  0  0  0
 47116  1  0  0  0  0
 47117  1  0  0  0  0
 48 49  1  0  0  0  0
 48118  1  6  0  0  0
 50 52  1  0  0  0  0
 50119  1  0  0  0  0
 50120  1  0  0  0  0
 51 58  1  0  0  0  0
 52121  1  1  0  0  0
 53 54  2  0  0  0  0
 53 58  1  0  0  0  0
 54 55  1  0  0  0  0
 54122  1  0  0  0  0
 55 56  2  0  0  0  0
 55123  1  0  0  0  0
 56 57  1  0  0  0  0
 56124  1  0  0  0  0
 57 58  2  0  0  0  0
 57125  1  0  0  0  0
M  END
$$$$
/media/chris/experiments/cd1a-new-docking/inputs/ligands/1xz0_ligand.pdb
 OpenBabel07022319323D

125127  0  0  1  0  0  0  0  0999 V2000
  -40.1047   57.2451   59.0990 N   0  0  0  0  0  0  0  0  0  0  0  0
  -40.0883   57.4761   57.7596 C   0  0  0  0  0  0  0  0  0  0  0  0
  -34.5332   58.1855   64.6113 O   0  0  0  0  0  0  0  0  0  0  0  0
  -36.5505   60.7136   58.5784 Si  0  0  0  0  0  0  0  0  0  0  0  0
  -40.9612   56.2360   59.5614 O   0  0  0  0  0  0  0  0  0  0  0  0
  -36.1021   61.9107   59.8281 O   0  0  0  0  0  0  0  0  0  0  0  0
  -39.3411   57.9092   60.1600 C   0  0  0  0  0  0  0  0  0  0  0  0
  -32.0025   62.1949   61.5502 N   0  0  0  0  0  0  0  0  0  0  0  0
  -34.7660   58.2851   62.3144 O   0  0  0  0  0  0  0  0  0  0  0  0
  -39.7171   57.2580   61.5068 C   0  0  0  0  0  0  0  0  0  0  0  0
  -36.8950   59.8150   64.6310 N   0  0  0  0  0  0  0  0  0  0  0  0
  -31.1734   60.0907   61.5631 O   0  0  0  0  0  0  0  0  0  0  0  0
  -39.0441   57.8107   62.7746 C   0  0  0  0  0  0  0  0  0  0  0  0
  -34.7925   62.1567   60.1117 N   0  0  0  0  0  0  0  0  0  0  0  0
  -38.3860   61.0055   63.3930 O   0  0  0  0  0  0  0  0  0  0  0  0
  -37.6390   58.4030   62.6110 C   0  0  0  0  0  0  0  0  0  0  0  0
  -38.3480   63.2341   64.8393 N   0  0  0  0  0  0  0  0  0  0  0  0
  -39.3553   58.3354   57.2704 O   0  0  0  0  0  0  0  0  0  0  0  0
  -36.7890   58.5530   63.8960 C   0  0  1  0  0  0  0  0  0  0  0  0
  -35.3038   62.4456   62.2843 O   0  0  0  0  0  0  0  0  0  0  0  0
  -35.3080   58.3090   63.6770 C   0  0  0  0  0  0  0  0  0  0  0  0
  -36.3399   64.2061   64.9609 O   0  0  0  0  0  0  0  0  0  0  0  0
  -33.4308   58.7440   62.0310 C   0  0  1  0  0  0  0  0  0  0  0  0
  -36.3513   66.8514   64.3421 O   0  0  0  0  0  0  0  0  0  0  0  0
  -33.4537   60.2628   61.9464 C   0  0  0  0  0  0  0  0  0  0  0  0
  -32.3741   58.2643   63.0183 C   0  0  0  0  0  0  0  0  0  0  0  0
  -32.1039   60.8604   61.6346 C   0  0  0  0  0  0  0  0  0  0  0  0
  -37.6390   60.9007   64.3569 C   0  0  0  0  0  0  0  0  0  0  0  0
  -41.0072   56.6505   56.8531 C   0  0  0  0  0  0  0  0  0  0  0  0
  -41.4813   57.3840   55.5911 C   0  0  0  0  0  0  0  0  0  0  0  0
  -40.2709   57.7794   54.7235 C   0  0  0  0  0  0  0  0  0  0  0  0
  -39.4385   56.5752   54.2437 C   0  0  0  0  0  0  0  0  0  0  0  0
  -38.2120   56.9434   53.3881 C   0  0  0  0  0  0  0  0  0  0  0  0
  -37.1999   57.8323   54.1410 C   0  0  0  0  0  0  0  0  0  0  0  0
  -35.9606   58.2391   53.3102 C   0  0  0  0  0  0  0  0  0  0  0  0
  -36.3066   59.0485   52.0551 C   0  0  0  0  0  0  0  0  0  0  0  0
  -37.0227   60.3786   52.3096 C   0  0  0  0  0  0  0  0  0  0  0  0
  -37.3413   61.1057   50.9904 C   0  0  0  0  0  0  0  0  0  0  0  0
  -36.1019   61.4276   50.1418 C   0  0  0  0  0  0  0  0  0  0  0  0
  -36.3693   62.1667   48.8266 C   0  0  0  0  0  0  0  0  0  0  0  0
  -35.0979   62.4582   47.9909 C   0  0  0  0  0  0  0  0  0  0  0  0
  -35.4371   63.2176   46.6922 C   0  0  0  0  0  0  0  0  0  0  0  0
  -34.2714   63.5589   45.7564 C   0  0  0  0  0  0  0  0  0  0  0  0
  -33.8266   61.9800   59.0172 C   0  0  0  0  0  0  0  0  0  0  0  0
  -33.2413   63.3369   58.5825 C   0  0  0  0  0  0  0  0  0  0  0  0
  -33.6200   64.5181   59.4606 C   0  0  0  0  0  0  0  0  0  0  0  0
  -33.0130   64.4396   60.8639 C   0  0  0  0  0  0  0  0  0  0  0  0
  -33.1331   63.1248   61.6524 C   0  0  1  0  0  0  0  0  0  0  0  0
  -34.4981   62.5296   61.3675 C   0  0  0  0  0  0  0  0  0  0  0  0
  -36.0830   62.8427   65.2952 C   0  0  0  0  0  0  0  0  0  0  0  0
  -37.7488   64.3362   64.6851 C   0  0  0  0  0  0  0  0  0  0  0  0
  -37.4607   62.1261   65.2416 C   0  0  1  0  0  0  0  0  0  0  0  0
  -37.6760   66.8184   64.1528 C   0  0  0  0  0  0  0  0  0  0  0  0
  -38.3518   67.9876   63.7798 C   0  0  0  0  0  0  0  0  0  0  0  0
  -39.7432   67.9813   63.5843 C   0  0  0  0  0  0  0  0  0  0  0  0
  -40.4734   66.8031   63.7499 C   0  0  0  0  0  0  0  0  0  0  0  0
  -39.8029   65.6326   64.1158 C   0  0  0  0  0  0  0  0  0  0  0  0
  -38.4099   65.6378   64.3210 C   0  0  0  0  0  0  0  0  0  0  0  0
  -37.9650   60.6441   58.4753 H   0  0  0  0  0  0  0  0  0  0  0  0
  -36.0390   59.4389   58.9388 H   0  0  0  0  0  0  0  0  0  0  0  0
  -36.0036   61.1069   57.3283 H   0  0  0  0  0  0  0  0  0  0  0  0
  -41.4319   55.8422   58.8103 H   0  0  0  0  0  0  0  0  0  0  0  0
  -39.5828   58.9513   60.1819 H   0  0  0  0  0  0  0  0  0  0  0  0
  -38.2916   57.8044   59.9799 H   0  0  0  0  0  0  0  0  0  0  0  0
  -31.1065   62.5778   61.4099 H   0  0  0  0  0  0  0  0  0  0  0  0
  -39.4709   56.2188   61.4403 H   0  0  0  0  0  0  0  0  0  0  0  0
  -40.7573   57.4744   61.6336 H   0  0  0  0  0  0  0  0  0  0  0  0
  -36.3417   59.8774   65.4429 H   0  0  0  0  0  0  0  0  0  0  0  0
  -39.5159   57.7843   63.6921 H   0  0  0  0  0  0  0  0  0  0  0  0
  -37.2771   58.6882   61.6876 H   0  0  0  0  0  0  0  0  0  0  0  0
  -37.2383   57.7881   64.4943 H   0  0  0  0  0  0  0  0  0  0  0  0
  -33.1364   58.3124   61.0972 H   0  0  0  0  0  0  0  0  0  0  0  0
  -35.8810   67.6531   64.2237 H   0  0  0  0  0  0  0  0  0  0  0  0
  -33.7889   60.6508   62.8856 H   0  0  0  0  0  0  0  0  0  0  0  0
  -34.1116   60.5271   61.1450 H   0  0  0  0  0  0  0  0  0  0  0  0
  -32.5921   58.6533   63.9910 H   0  0  0  0  0  0  0  0  0  0  0  0
  -31.4106   58.6079   62.7045 H   0  0  0  0  0  0  0  0  0  0  0  0
  -32.3776   57.1949   63.0529 H   0  0  0  0  0  0  0  0  0  0  0  0
  -41.8699   56.3682   57.4197 H   0  0  0  0  0  0  0  0  0  0  0  0
  -40.4329   55.8114   56.5201 H   0  0  0  0  0  0  0  0  0  0  0  0
  -42.0170   58.2658   55.8743 H   0  0  0  0  0  0  0  0  0  0  0  0
  -42.1196   56.7358   55.0278 H   0  0  0  0  0  0  0  0  0  0  0  0
  -39.6371   58.4214   55.2989 H   0  0  0  0  0  0  0  0  0  0  0  0
  -40.6548   58.2642   53.8503 H   0  0  0  0  0  0  0  0  0  0  0  0
  -40.0737   55.9413   53.6610 H   0  0  0  0  0  0  0  0  0  0  0  0
  -39.0617   56.0972   55.1238 H   0  0  0  0  0  0  0  0  0  0  0  0
  -38.5475   57.4691   52.5187 H   0  0  0  0  0  0  0  0  0  0  0  0
  -37.7122   56.0320   53.1340 H   0  0  0  0  0  0  0  0  0  0  0  0
  -36.8627   57.2973   55.0041 H   0  0  0  0  0  0  0  0  0  0  0  0
  -37.7136   58.7387   54.3847 H   0  0  0  0  0  0  0  0  0  0  0  0
  -35.4475   57.3497   53.0092 H   0  0  0  0  0  0  0  0  0  0  0  0
  -35.3555   58.8649   53.9322 H   0  0  0  0  0  0  0  0  0  0  0  0
  -36.9389   58.4458   51.4371 H   0  0  0  0  0  0  0  0  0  0  0  0
  -35.3721   59.2988   51.5979 H   0  0  0  0  0  0  0  0  0  0  0  0
  -36.3939   61.0036   52.9086 H   0  0  0  0  0  0  0  0  0  0  0  0
  -37.9446   60.1742   52.8129 H   0  0  0  0  0  0  0  0  0  0  0  0
  -37.8378   62.0245   51.2235 H   0  0  0  0  0  0  0  0  0  0  0  0
  -37.9513   60.4446   50.4109 H   0  0  0  0  0  0  0  0  0  0  0  0
  -35.6159   60.5038   49.9066 H   0  0  0  0  0  0  0  0  0  0  0  0
  -35.5083   62.0924   50.7339 H   0  0  0  0  0  0  0  0  0  0  0  0
  -36.8410   63.0994   49.0559 H   0  0  0  0  0  0  0  0  0  0  0  0
  -36.9860   61.5244   48.2333 H   0  0  0  0  0  0  0  0  0  0  0  0
  -34.6274   61.5309   47.7388 H   0  0  0  0  0  0  0  0  0  0  0  0
  -34.4441   63.0701   48.5767 H   0  0  0  0  0  0  0  0  0  0  0  0
  -35.9068   64.1378   46.9705 H   0  0  0  0  0  0  0  0  0  0  0  0
  -36.0533   62.5456   46.1322 H   0  0  0  0  0  0  0  0  0  0  0  0
  -33.6038   64.2341   46.2497 H   0  0  0  0  0  0  0  0  0  0  0  0
  -34.6504   64.0180   44.8673 H   0  0  0  0  0  0  0  0  0  0  0  0
  -33.7464   62.6627   45.4990 H   0  0  0  0  0  0  0  0  0  0  0  0
  -34.3203   61.5270   58.1829 H   0  0  0  0  0  0  0  0  0  0  0  0
  -33.0285   61.3555   59.3606 H   0  0  0  0  0  0  0  0  0  0  0  0
  -33.5819   63.5409   57.5889 H   0  0  0  0  0  0  0  0  0  0  0  0
  -32.1786   63.2393   58.6594 H   0  0  0  0  0  0  0  0  0  0  0  0
  -34.6857   64.5476   59.5513 H   0  0  0  0  0  0  0  0  0  0  0  0
  -33.2340   65.4003   58.9940 H   0  0  0  0  0  0  0  0  0  0  0  0
  -33.4804   65.2020   61.4514 H   0  0  0  0  0  0  0  0  0  0  0  0
  -31.9615   64.5448   60.6963 H   0  0  0  0  0  0  0  0  0  0  0  0
  -33.0630   63.3566   62.6947 H   0  0  0  0  0  0  0  0  0  0  0  0
  -35.6645   62.7725   66.2774 H   0  0  0  0  0  0  0  0  0  0  0  0
  -35.3814   62.3977   64.6209 H   0  0  0  0  0  0  0  0  0  0  0  0
  -37.6541   61.6581   66.1842 H   0  0  0  0  0  0  0  0  0  0  0  0
  -37.8218   68.8632   63.6471 H   0  0  0  0  0  0  0  0  0  0  0  0
  -40.2280   68.8522   63.3169 H   0  0  0  0  0  0  0  0  0  0  0  0
  -41.4950   66.7964   63.6041 H   0  0  0  0  0  0  0  0  0  0  0  0
  -40.3340   64.7560   64.2368 H   0  0  0  0  0  0  0  0  0  0  0  0
  1  2  1  0  0  0  0
  1  5  1  0  0  0  0
  1  7  1  0  0  0  0
  2 18  2  0  0  0  0
  2 29  1  0  0  0  0
  3 21  2  0  0  0  0
  4  6  1  0  0  0  0
  4 59  1  0  0  0  0
  4 60  1  0  0  0  0
  4 61  1  0  0  0  0
  5 62  1  0  0  0  0
  6 14  1  0  0  0  0
  7 10  1  0  0  0  0
  7 63  1  0  0  0  0
  7 64  1  0  0  0  0
  8 27  1  0  0  0  0
  8 48  1  0  0  0  0
  8 65  1  0  0  0  0
  9 21  1  0  0  0  0
  9 23  1  0  0  0  0
 10 13  1  0  0  0  0
 10 66  1  0  0  0  0
 10 67  1  0  0  0  0
 11 19  1  0  0  0  0
 11 28  1  0  0  0  0
 11 68  1  0  0  0  0
 12 27  2  0  0  0  0
 13 16  2  0  0  0  0
 13 69  1  0  0  0  0
 14 44  1  0  0  0  0
 14 49  1  0  0  0  0
 15 28  2  0  0  0  0
 16 19  1  0  0  0  0
 16 70  1  0  0  0  0
 17 51  2  0  0  0  0
 17 52  1  0  0  0  0
 19 21  1  0  0  0  0
 19 71  1  1  0  0  0
 20 49  2  0  0  0  0
 22 50  1  0  0  0  0
 22 51  1  0  0  0  0
 23 25  1  0  0  0  0
 23 26  1  0  0  0  0
 23 72  1  6  0  0  0
 24 53  1  0  0  0  0
 24 73  1  0  0  0  0
 25 27  1  0  0  0  0
 25 74  1  0  0  0  0
 25 75  1  0  0  0  0
 26 76  1  0  0  0  0
 26 77  1  0  0  0  0
 26 78  1  0  0  0  0
 28 52  1  0  0  0  0
 29 30  1  0  0  0  0
 29 79  1  0  0  0  0
 29 80  1  0  0  0  0
 30 31  1  0  0  0  0
 30 81  1  0  0  0  0
 30 82  1  0  0  0  0
 31 32  1  0  0  0  0
 31 83  1  0  0  0  0
 31 84  1  0  0  0  0
 32 33  1  0  0  0  0
 32 85  1  0  0  0  0
 32 86  1  0  0  0  0
 33 34  1  0  0  0  0
 33 87  1  0  0  0  0
 33 88  1  0  0  0  0
 34 35  1  0  0  0  0
 34 89  1  0  0  0  0
 34 90  1  0  0  0  0
 35 36  1  0  0  0  0
 35 91  1  0  0  0  0
 35 92  1  0  0  0  0
 36 37  1  0  0  0  0
 36 93  1  0  0  0  0
 36 94  1  0  0  0  0
 37 38  1  0  0  0  0
 37 95  1  0  0  0  0
 37 96  1  0  0  0  0
 38 39  1  0  0  0  0
 38 97  1  0  0  0  0
 38 98  1  0  0  0  0
 39 40  1  0  0  0  0
 39 99  1  0  0  0  0
 39100  1  0  0  0  0
 40 41  1  0  0  0  0
 40101  1  0  0  0  0
 40102  1  0  0  0  0
 41 42  1  0  0  0  0
 41103  1  0  0  0  0
 41104  1  0  0  0  0
 42 43  1  0  0  0  0
 42105  1  0  0  0  0
 42106  1  0  0  0  0
 43107  1  0  0  0  0
 43108  1  0  0  0  0
 43109  1  0  0  0  0
 44 45  1  0  0  0  0
 44110  1  0  0  0  0
 44111  1  0  0  0  0
 45 46  1  0  0  0  0
 45112  1  0  0  0  0
 45113  1  0  0  0  0
 46 47  1  0  0  0  0
 46114  1  0  0  0  0
 46115  1  0  0  0  0
 47 48  1  0  0  0  0
 47116  1  0  0  0  0
 47117  1  0  0  0  0
 48 49  1  0  0  0  0
 48118  1  1  0  0  0
 50 52  1  0  0  0  0
 50119  1  0  0  0  0
 50120  1  0  0  0  0
 51 58  1  0  0  0  0
 52121  1  1  0  0  0
 53 54  2  0  0  0  0
 53 58  1  0  0  0  0
 54 55  1  0  0  0  0
 54122  1  0  0  0  0
 55 56  2  0  0  0  0
 55123  1  0  0  0  0
 56 57  1  0  0  0  0
 56124  1  0  0  0  0
 57 58  2  0  0  0  0
 57125  1  0  0  0  0
M  END
$$$$
/media/chris/experiments/cd1a-new-docking/inputs/ligands/1xz0_ligand.pdb
 OpenBabel07022319323D

125127  0  0  1  0  0  0  0  0999 V2000
  -41.2006   59.9899   59.4601 N   0  0  0  0  0  0  0  0  0  0  0  0
  -41.1588   59.3797   58.2462 C   0  0  0  0  0  0  0  0  0  0  0  0
  -34.9015   57.3291   63.0745 O   0  0  0  0  0  0  0  0  0  0  0  0
  -26.9778   52.8840   66.9150 Si  0  0  0  0  0  0  0  0  0  0  0  0
  -42.4670   60.2094   60.0200 O   0  0  0  0  0  0  0  0  0  0  0  0
  -28.7273   53.2006   66.7287 O   0  0  0  0  0  0  0  0  0  0  0  0
  -40.0916   60.4644   60.2936 C   0  0  0  0  0  0  0  0  0  0  0  0
  -30.4182   57.2984   66.2791 N   0  0  0  0  0  0  0  0  0  0  0  0
  -34.3234   59.2293   64.2555 O   0  0  0  0  0  0  0  0  0  0  0  0
  -39.6678   59.3173   61.2339 C   0  0  0  0  0  0  0  0  0  0  0  0
  -36.8950   59.8150   64.6310 N   0  0  0  0  0  0  0  0  0  0  0  0
  -30.4877   57.6531   64.0465 O   0  0  0  0  0  0  0  0  0  0  0  0
  -38.5208   59.5953   62.2201 C   0  0  0  0  0  0  0  0  0  0  0  0
  -29.2227   54.4599   66.8862 N   0  0  0  0  0  0  0  0  0  0  0  0
  -35.4578   59.5184   66.3686 O   0  0  0  0  0  0  0  0  0  0  0  0
  -37.6390   58.4030   62.6110 C   0  0  0  0  0  0  0  0  0  0  0  0
  -38.0692   61.8794   66.0900 N   0  0  0  0  0  0  0  0  0  0  0  0
  -40.0871   59.1384   57.6911 O   0  0  0  0  0  0  0  0  0  0  0  0
  -36.7890   58.5530   63.8960 C   0  0  1  0  0  0  0  0  0  0  0  0
  -28.1023   55.1432   65.0577 O   0  0  0  0  0  0  0  0  0  0  0  0
  -35.3080   58.3090   63.6770 C   0  0  0  0  0  0  0  0  0  0  0  0
  -36.9691   63.7250   65.4772 O   0  0  0  0  0  0  0  0  0  0  0  0
  -32.9090   58.9936   64.1228 C   0  0  1  0  0  0  0  0  0  0  0  0
  -38.6471   65.0045   63.5251 O   0  0  0  0  0  0  0  0  0  0  0  0
  -32.4942   57.9664   65.1655 C   0  0  0  0  0  0  0  0  0  0  0  0
  -32.4665   58.5701   62.7276 C   0  0  0  0  0  0  0  0  0  0  0  0
  -31.0193   57.6500   65.1331 C   0  0  0  0  0  0  0  0  0  0  0  0
  -36.2648   60.2028   65.7534 C   0  0  0  0  0  0  0  0  0  0  0  0
  -42.4757   58.9955   57.5634 C   0  0  0  0  0  0  0  0  0  0  0  0
  -43.0557   60.0799   56.6453 C   0  0  0  0  0  0  0  0  0  0  0  0
  -43.3203   61.3673   57.4495 C   0  0  0  0  0  0  0  0  0  0  0  0
  -43.9216   62.5071   56.6054 C   0  0  0  0  0  0  0  0  0  0  0  0
  -45.2842   62.1813   55.9657 C   0  0  0  0  0  0  0  0  0  0  0  0
  -46.3755   61.8608   57.0085 C   0  0  0  0  0  0  0  0  0  0  0  0
  -46.6791   63.0129   57.9945 C   0  0  0  0  0  0  0  0  0  0  0  0
  -47.1828   64.2873   57.3070 C   0  0  0  0  0  0  0  0  0  0  0  0
  -47.4811   65.4629   58.2429 C   0  0  0  0  0  0  0  0  0  0  0  0
  -48.5536   65.0933   59.2837 C   0  0  0  0  0  0  0  0  0  0  0  0
  -49.8958   64.6667   58.6701 C   0  0  0  0  0  0  0  0  0  0  0  0
  -50.9997   64.3056   59.6694 C   0  0  0  0  0  0  0  0  0  0  0  0
  -51.4042   65.4631   60.6161 C   0  0  0  0  0  0  0  0  0  0  0  0
  -50.2047   65.9559   61.4507 C   0  0  0  0  0  0  0  0  0  0  0  0
  -49.5151   64.9302   62.3583 C   0  0  0  0  0  0  0  0  0  0  0  0
  -30.2230   54.6574   67.9456 C   0  0  0  0  0  0  0  0  0  0  0  0
  -29.6464   55.5175   69.0861 C   0  0  0  0  0  0  0  0  0  0  0  0
  -28.2796   56.1238   68.8142 C   0  0  0  0  0  0  0  0  0  0  0  0
  -28.3040   57.1841   67.7101 C   0  0  0  0  0  0  0  0  0  0  0  0
  -29.0211   56.8633   66.3881 C   0  0  1  0  0  0  0  0  0  0  0  0
  -28.7609   55.4073   66.0544 C   0  0  0  0  0  0  0  0  0  0  0  0
  -35.9383   62.8376   65.9092 C   0  0  0  0  0  0  0  0  0  0  0  0
  -38.2295   63.0388   65.6128 C   0  0  0  0  0  0  0  0  0  0  0  0
  -36.6602   61.5392   66.3649 C   0  0  1  0  0  0  0  0  0  0  0  0
  -39.6982   64.5962   64.2463 C   0  0  0  0  0  0  0  0  0  0  0  0
  -40.9712   65.1112   63.9684 C   0  0  0  0  0  0  0  0  0  0  0  0
  -42.0888   64.7058   64.7172 C   0  0  0  0  0  0  0  0  0  0  0  0
  -41.9479   63.7730   65.7461 C   0  0  0  0  0  0  0  0  0  0  0  0
  -40.6811   63.2514   66.0232 C   0  0  0  0  0  0  0  0  0  0  0  0
  -39.5578   63.6624   65.2802 C   0  0  0  0  0  0  0  0  0  0  0  0
  -26.7213   51.5036   66.7026 H   0  0  0  0  0  0  0  0  0  0  0  0
  -26.5683   53.2453   68.2258 H   0  0  0  0  0  0  0  0  0  0  0  0
  -26.2540   53.6517   65.9646 H   0  0  0  0  0  0  0  0  0  0  0  0
  -43.1493   59.8728   59.4183 H   0  0  0  0  0  0  0  0  0  0  0  0
  -40.4081   61.3077   60.8713 H   0  0  0  0  0  0  0  0  0  0  0  0
  -39.2678   60.7603   59.6781 H   0  0  0  0  0  0  0  0  0  0  0  0
  -30.9519   57.3347   67.1056 H   0  0  0  0  0  0  0  0  0  0  0  0
  -39.3702   58.4930   60.6200 H   0  0  0  0  0  0  0  0  0  0  0  0
  -40.5230   59.1416   61.8525 H   0  0  0  0  0  0  0  0  0  0  0  0
  -37.5175   60.4746   64.2480 H   0  0  0  0  0  0  0  0  0  0  0  0
  -38.3525   60.5396   62.6009 H   0  0  0  0  0  0  0  0  0  0  0  0
  -37.6135   57.5411   62.0440 H   0  0  0  0  0  0  0  0  0  0  0  0
  -37.2383   57.7881   64.4943 H   0  0  0  0  0  0  0  0  0  0  0  0
  -32.4131   59.9275   64.2861 H   0  0  0  0  0  0  0  0  0  0  0  0
  -38.7652   65.6304   62.8379 H   0  0  0  0  0  0  0  0  0  0  0  0
  -33.0399   57.0631   64.9892 H   0  0  0  0  0  0  0  0  0  0  0  0
  -32.7090   58.3842   66.1269 H   0  0  0  0  0  0  0  0  0  0  0  0
  -32.9205   57.6338   62.4783 H   0  0  0  0  0  0  0  0  0  0  0  0
  -31.4017   58.4669   62.7071 H   0  0  0  0  0  0  0  0  0  0  0  0
  -32.7667   59.3122   62.0176 H   0  0  0  0  0  0  0  0  0  0  0  0
  -43.1967   58.7809   58.3243 H   0  0  0  0  0  0  0  0  0  0  0  0
  -42.2613   58.1520   56.9409 H   0  0  0  0  0  0  0  0  0  0  0  0
  -43.9747   59.7314   56.2224 H   0  0  0  0  0  0  0  0  0  0  0  0
  -42.3538   60.2915   55.8658 H   0  0  0  0  0  0  0  0  0  0  0  0
  -42.3929   61.7050   57.8627 H   0  0  0  0  0  0  0  0  0  0  0  0
  -44.0371   61.1240   58.2057 H   0  0  0  0  0  0  0  0  0  0  0  0
  -43.2323   62.7411   55.8213 H   0  0  0  0  0  0  0  0  0  0  0  0
  -44.0889   63.3246   57.2752 H   0  0  0  0  0  0  0  0  0  0  0  0
  -45.1660   61.3336   55.3236 H   0  0  0  0  0  0  0  0  0  0  0  0
  -45.6010   63.0488   55.4254 H   0  0  0  0  0  0  0  0  0  0  0  0
  -46.0568   61.0112   57.5754 H   0  0  0  0  0  0  0  0  0  0  0  0
  -47.2773   61.6840   56.4604 H   0  0  0  0  0  0  0  0  0  0  0  0
  -45.7819   63.2477   58.5281 H   0  0  0  0  0  0  0  0  0  0  0  0
  -47.4598   62.6751   58.6435 H   0  0  0  0  0  0  0  0  0  0  0  0
  -48.0836   64.0458   56.7824 H   0  0  0  0  0  0  0  0  0  0  0  0
  -46.3882   64.6123   56.6683 H   0  0  0  0  0  0  0  0  0  0  0  0
  -47.8303   66.2907   57.6618 H   0  0  0  0  0  0  0  0  0  0  0  0
  -46.5808   65.7170   58.7623 H   0  0  0  0  0  0  0  0  0  0  0  0
  -48.7244   65.9451   59.9084 H   0  0  0  0  0  0  0  0  0  0  0  0
  -48.1802   64.2520   59.8292 H   0  0  0  0  0  0  0  0  0  0  0  0
  -49.7178   63.8105   58.0536 H   0  0  0  0  0  0  0  0  0  0  0  0
  -50.2556   65.5204   58.1348 H   0  0  0  0  0  0  0  0  0  0  0  0
  -50.6562   63.4876   60.2675 H   0  0  0  0  0  0  0  0  0  0  0  0
  -51.8680   64.0625   59.0932 H   0  0  0  0  0  0  0  0  0  0  0  0
  -52.1707   65.1187   61.2785 H   0  0  0  0  0  0  0  0  0  0  0  0
  -51.7552   66.2784   60.0186 H   0  0  0  0  0  0  0  0  0  0  0  0
  -50.5515   66.7546   62.0726 H   0  0  0  0  0  0  0  0  0  0  0  0
  -49.4622   66.2315   60.7312 H   0  0  0  0  0  0  0  0  0  0  0  0
  -50.2005   64.6030   63.1119 H   0  0  0  0  0  0  0  0  0  0  0  0
  -48.6629   65.3808   62.8226 H   0  0  0  0  0  0  0  0  0  0  0  0
  -49.2006   64.0911   61.7736 H   0  0  0  0  0  0  0  0  0  0  0  0
  -30.5132   53.7047   68.3366 H   0  0  0  0  0  0  0  0  0  0  0  0
  -31.0698   55.1617   67.5291 H   0  0  0  0  0  0  0  0  0  0  0  0
  -29.5675   54.9015   69.9574 H   0  0  0  0  0  0  0  0  0  0  0  0
  -30.3181   56.3420   69.2038 H   0  0  0  0  0  0  0  0  0  0  0  0
  -27.6118   55.3411   68.5204 H   0  0  0  0  0  0  0  0  0  0  0  0
  -27.9588   56.6061   69.7138 H   0  0  0  0  0  0  0  0  0  0  0  0
  -27.2863   57.4098   67.4687 H   0  0  0  0  0  0  0  0  0  0  0  0
  -28.8819   57.9806   68.1302 H   0  0  0  0  0  0  0  0  0  0  0  0
  -28.5959   57.4790   65.6233 H   0  0  0  0  0  0  0  0  0  0  0  0
  -35.3945   63.2671   66.7244 H   0  0  0  0  0  0  0  0  0  0  0  0
  -35.2337   62.6427   65.1279 H   0  0  0  0  0  0  0  0  0  0  0  0
  -36.3948   61.3228   67.3786 H   0  0  0  0  0  0  0  0  0  0  0  0
  -41.0892   65.7959   63.2053 H   0  0  0  0  0  0  0  0  0  0  0  0
  -43.0189   65.0997   64.5054 H   0  0  0  0  0  0  0  0  0  0  0  0
  -42.7684   63.4723   66.2951 H   0  0  0  0  0  0  0  0  0  0  0  0
  -40.5679   62.5585   66.7795 H   0  0  0  0  0  0  0  0  0  0  0  0
  1  2  1  0  0  0  0
  1  5  1  0  0  0  0
  1  7  1  0  0  0  0
  2 18  2  0  0  0  0
  2 29  1  0  0  0  0
  3 21  2  0  0  0  0
  4  6  1  0  0  0  0
  4 59  1  0  0  0  0
  4 60  1  0  0  0  0
  4 61  1  0  0  0  0
  5 62  1  0  0  0  0
  6 14  1  0  0  0  0
  7 10  1  0  0  0  0
  7 63  1  0  0  0  0
  7 64  1  0  0  0  0
  8 27  1  0  0  0  0
  8 48  1  0  0  0  0
  8 65  1  0  0  0  0
  9 21  1  0  0  0  0
  9 23  1  0  0  0  0
 10 13  1  0  0  0  0
 10 66  1  0  0  0  0
 10 67  1  0  0  0  0
 11 19  1  0  0  0  0
 11 28  1  0  0  0  0
 11 68  1  0  0  0  0
 12 27  2  0  0  0  0
 13 16  2  0  0  0  0
 13 69  1  0  0  0  0
 14 44  1  0  0  0  0
 14 49  1  0  0  0  0
 15 28  2  0  0  0  0
 16 19  1  0  0  0  0
 16 70  1  0  0  0  0
 17 51  2  0  0  0  0
 17 52  1  0  0  0  0
 19 21  1  0  0  0  0
 19 71  1  1  0  0  0
 20 49  2  0  0  0  0
 22 50  1  0  0  0  0
 22 51  1  0  0  0  0
 23 25  1  0  0  0  0
 23 26  1  0  0  0  0
 23 72  1  1  0  0  0
 24 53  1  0  0  0  0
 24 73  1  0  0  0  0
 25 27  1  0  0  0  0
 25 74  1  0  0  0  0
 25 75  1  0  0  0  0
 26 76  1  0  0  0  0
 26 77  1  0  0  0  0
 26 78  1  0  0  0  0
 28 52  1  0  0  0  0
 29 30  1  0  0  0  0
 29 79  1  0  0  0  0
 29 80  1  0  0  0  0
 30 31  1  0  0  0  0
 30 81  1  0  0  0  0
 30 82  1  0  0  0  0
 31 32  1  0  0  0  0
 31 83  1  0  0  0  0
 31 84  1  0  0  0  0
 32 33  1  0  0  0  0
 32 85  1  0  0  0  0
 32 86  1  0  0  0  0
 33 34  1  0  0  0  0
 33 87  1  0  0  0  0
 33 88  1  0  0  0  0
 34 35  1  0  0  0  0
 34 89  1  0  0  0  0
 34 90  1  0  0  0  0
 35 36  1  0  0  0  0
 35 91  1  0  0  0  0
 35 92  1  0  0  0  0
 36 37  1  0  0  0  0
 36 93  1  0  0  0  0
 36 94  1  0  0  0  0
 37 38  1  0  0  0  0
 37 95  1  0  0  0  0
 37 96  1  0  0  0  0
 38 39  1  0  0  0  0
 38 97  1  0  0  0  0
 38 98  1  0  0  0  0
 39 40  1  0  0  0  0
 39 99  1  0  0  0  0
 39100  1  0  0  0  0
 40 41  1  0  0  0  0
 40101  1  0  0  0  0
 40102  1  0  0  0  0
 41 42  1  0  0  0  0
 41103  1  0  0  0  0
 41104  1  0  0  0  0
 42 43  1  0  0  0  0
 42105  1  0  0  0  0
 42106  1  0  0  0  0
 43107  1  0  0  0  0
 43108  1  0  0  0  0
 43109  1  0  0  0  0
 44 45  1  0  0  0  0
 44110  1  0  0  0  0
 44111  1  0  0  0  0
 45 46  1  0  0  0  0
 45112  1  0  0  0  0
 45113  1  0  0  0  0
 46 47  1  0  0  0  0
 46114  1  0  0  0  0
 46115  1  0  0  0  0
 47 48  1  0  0  0  0
 47116  1  0  0  0  0
 47117  1  0  0  0  0
 48 49  1  0  0  0  0
 48118  1  6  0  0  0
 50 52  1  0  0  0  0
 50119  1  0  0  0  0
 50120  1  0  0  0  0
 51 58  1  0  0  0  0
 52121  1  1  0  0  0
 53 54  2  0  0  0  0
 53 58  1  0  0  0  0
 54 55  1  0  0  0  0
 54122  1  0  0  0  0
 55 56  2  0  0  0  0
 55123  1  0  0  0  0
 56 57  1  0  0  0  0
 56124  1  0  0  0  0
 57 58  2  0  0  0  0
 57125  1  0  0  0  0
M  END
$$$$
/media/chris/experiments/cd1a-new-docking/inputs/ligands/1xz0_ligand.pdb
 OpenBabel07022319323D

125127  0  0  1  0  0  0  0  0999 V2000
  -41.3459   57.8603   60.2293 N   0  0  0  0  0  0  0  0  0  0  0  0
  -42.6735   57.6096   60.3791 C   0  0  0  0  0  0  0  0  0  0  0  0
  -34.6358   57.6816   64.4788 O   0  0  0  0  0  0  0  0  0  0  0  0
  -39.5523   62.1846   61.4790 Si  0  0  0  0  0  0  0  0  0  0  0  0
  -40.8877   58.1134   58.9287 O   0  0  0  0  0  0  0  0  0  0  0  0
  -38.2131   62.8280   62.4731 O   0  0  0  0  0  0  0  0  0  0  0  0
  -40.2943   57.9078   61.2500 C   0  0  0  0  0  0  0  0  0  0  0  0
  -33.7957   62.2764   62.2843 N   0  0  0  0  0  0  0  0  0  0  0  0
  -34.6370   58.8922   62.5105 O   0  0  0  0  0  0  0  0  0  0  0  0
  -39.6678   59.3173   61.2339 C   0  0  0  0  0  0  0  0  0  0  0  0
  -36.8950   59.8150   64.6310 N   0  0  0  0  0  0  0  0  0  0  0  0
  -34.8515   61.7950   64.2257 O   0  0  0  0  0  0  0  0  0  0  0  0
  -38.5208   59.5953   62.2201 C   0  0  0  0  0  0  0  0  0  0  0  0
  -36.9179   62.5691   62.1392 N   0  0  0  0  0  0  0  0  0  0  0  0
  -35.4578   59.5184   66.3686 O   0  0  0  0  0  0  0  0  0  0  0  0
  -37.6390   58.4030   62.6110 C   0  0  0  0  0  0  0  0  0  0  0  0
  -37.7528   61.3983   67.3461 N   0  0  0  0  0  0  0  0  0  0  0  0
  -43.4342   57.6065   59.4116 O   0  0  0  0  0  0  0  0  0  0  0  0
  -36.7890   58.5530   63.8960 C   0  0  1  0  0  0  0  0  0  0  0  0
  -36.2497   64.4067   63.2538 O   0  0  0  0  0  0  0  0  0  0  0  0
  -35.3080   58.3090   63.6770 C   0  0  0  0  0  0  0  0  0  0  0  0
  -38.4750   63.0361   66.0090 O   0  0  0  0  0  0  0  0  0  0  0  0
  -33.2588   59.3059   62.5681 C   0  0  1  0  0  0  0  0  0  0  0  0
  -39.8645   59.9912   68.6495 O   0  0  0  0  0  0  0  0  0  0  0  0
  -33.1203   60.3623   63.6540 C   0  0  0  0  0  0  0  0  0  0  0  0
  -32.2655   58.1695   62.7768 C   0  0  0  0  0  0  0  0  0  0  0  0
  -33.9818   61.5773   63.4134 C   0  0  0  0  0  0  0  0  0  0  0  0
  -36.2648   60.2028   65.7534 C   0  0  0  0  0  0  0  0  0  0  0  0
  -43.2225   57.3335   61.7828 C   0  0  0  0  0  0  0  0  0  0  0  0
  -43.0304   58.4855   62.7785 C   0  0  0  0  0  0  0  0  0  0  0  0
  -43.6006   58.0945   64.1555 C   0  0  0  0  0  0  0  0  0  0  0  0
  -42.9181   56.8607   64.7760 C   0  0  0  0  0  0  0  0  0  0  0  0
  -41.4080   57.0235   65.0312 C   0  0  0  0  0  0  0  0  0  0  0  0
  -40.7619   55.7596   65.6364 C   0  0  0  0  0  0  0  0  0  0  0  0
  -39.2478   55.8879   65.9241 C   0  0  0  0  0  0  0  0  0  0  0  0
  -38.6279   54.6135   66.5087 C   0  0  0  0  0  0  0  0  0  0  0  0
  -38.7218   53.3707   65.6179 C   0  0  0  0  0  0  0  0  0  0  0  0
  -40.1861   53.0188   65.2981 C   0  0  0  0  0  0  0  0  0  0  0  0
  -40.3487   51.7687   64.4202 C   0  0  0  0  0  0  0  0  0  0  0  0
  -39.7988   50.4656   65.0092 C   0  0  0  0  0  0  0  0  0  0  0  0
  -39.9655   49.2311   64.0883 C   0  0  0  0  0  0  0  0  0  0  0  0
  -39.2223   49.4198   62.7503 C   0  0  0  0  0  0  0  0  0  0  0  0
  -39.6357   50.6147   61.8827 C   0  0  0  0  0  0  0  0  0  0  0  0
  -36.6475   61.3039   61.4407 C   0  0  0  0  0  0  0  0  0  0  0  0
  -36.2159   61.5661   59.9855 C   0  0  0  0  0  0  0  0  0  0  0  0
  -35.9819   63.0253   59.6311 C   0  0  0  0  0  0  0  0  0  0  0  0
  -34.7706   63.6285   60.3473 C   0  0  0  0  0  0  0  0  0  0  0  0
  -34.6212   63.4139   61.8627 C   0  0  1  0  0  0  0  0  0  0  0  0
  -36.0016   63.4875   62.4855 C   0  0  0  0  0  0  0  0  0  0  0  0
  -37.2130   62.6693   65.4528 C   0  0  0  0  0  0  0  0  0  0  0  0
  -38.7181   62.1905   67.1508 C   0  0  0  0  0  0  0  0  0  0  0  0
  -36.6602   61.5392   66.3649 C   0  0  1  0  0  0  0  0  0  0  0  0
  -40.4382   61.1976   68.7337 C   0  0  0  0  0  0  0  0  0  0  0  0
  -41.5623   61.3745   69.5510 C   0  0  0  0  0  0  0  0  0  0  0  0
  -42.1883   62.6286   69.6491 C   0  0  0  0  0  0  0  0  0  0  0  0
  -41.6912   63.7226   68.9387 C   0  0  0  0  0  0  0  0  0  0  0  0
  -40.5662   63.5528   68.1269 C   0  0  0  0  0  0  0  0  0  0  0  0
  -39.9420   62.2952   68.0197 C   0  0  0  0  0  0  0  0  0  0  0  0
  -40.7933   62.5933   62.0351 H   0  0  0  0  0  0  0  0  0  0  0  0
  -39.4872   60.7663   61.4581 H   0  0  0  0  0  0  0  0  0  0  0  0
  -39.4403   62.6832   60.1541 H   0  0  0  0  0  0  0  0  0  0  0  0
  -41.6322   58.0661   58.3087 H   0  0  0  0  0  0  0  0  0  0  0  0
  -39.5448   57.1761   61.0317 H   0  0  0  0  0  0  0  0  0  0  0  0
  -40.7070   57.6986   62.2148 H   0  0  0  0  0  0  0  0  0  0  0  0
  -33.0529   62.0075   61.6968 H   0  0  0  0  0  0  0  0  0  0  0  0
  -40.4488   60.0177   61.4448 H   0  0  0  0  0  0  0  0  0  0  0  0
  -39.2224   59.4069   60.2651 H   0  0  0  0  0  0  0  0  0  0  0  0
  -37.5175   60.4746   64.2480 H   0  0  0  0  0  0  0  0  0  0  0  0
  -38.3525   60.5396   62.6009 H   0  0  0  0  0  0  0  0  0  0  0  0
  -37.6135   57.5411   62.0440 H   0  0  0  0  0  0  0  0  0  0  0  0
  -37.2383   57.7881   64.4943 H   0  0  0  0  0  0  0  0  0  0  0  0
  -33.0055   59.7065   61.6088 H   0  0  0  0  0  0  0  0  0  0  0  0
  -40.2141   59.2711   69.1365 H   0  0  0  0  0  0  0  0  0  0  0  0
  -32.0975   60.6736   63.6973 H   0  0  0  0  0  0  0  0  0  0  0  0
  -33.4443   59.9191   64.5724 H   0  0  0  0  0  0  0  0  0  0  0  0
  -32.4477   57.7060   63.7239 H   0  0  0  0  0  0  0  0  0  0  0  0
  -31.2689   58.5585   62.7559 H   0  0  0  0  0  0  0  0  0  0  0  0
  -32.3824   57.4459   61.9972 H   0  0  0  0  0  0  0  0  0  0  0  0
  -42.7262   56.4690   62.1718 H   0  0  0  0  0  0  0  0  0  0  0  0
  -44.2782   57.1964   61.6754 H   0  0  0  0  0  0  0  0  0  0  0  0
  -43.5405   59.3541   62.4177 H   0  0  0  0  0  0  0  0  0  0  0  0
  -41.9853   58.6925   62.8777 H   0  0  0  0  0  0  0  0  0  0  0  0
  -44.6435   57.8836   64.0426 H   0  0  0  0  0  0  0  0  0  0  0  0
  -43.4218   58.9178   64.8152 H   0  0  0  0  0  0  0  0  0  0  0  0
  -43.0570   56.0332   64.1119 H   0  0  0  0  0  0  0  0  0  0  0  0
  -43.3730   56.7119   65.7330 H   0  0  0  0  0  0  0  0  0  0  0  0
  -41.2621   57.8392   65.7081 H   0  0  0  0  0  0  0  0  0  0  0  0
  -40.9399   57.2022   64.0857 H   0  0  0  0  0  0  0  0  0  0  0  0
  -40.9044   54.9505   64.9509 H   0  0  0  0  0  0  0  0  0  0  0  0
  -41.2382   55.5970   66.5807 H   0  0  0  0  0  0  0  0  0  0  0  0
  -39.1017   56.6865   66.6212 H   0  0  0  0  0  0  0  0  0  0  0  0
  -38.7636   56.0736   64.9882 H   0  0  0  0  0  0  0  0  0  0  0  0
  -39.1252   54.3972   67.4310 H   0  0  0  0  0  0  0  0  0  0  0  0
  -37.5837   54.8178   66.6217 H   0  0  0  0  0  0  0  0  0  0  0  0
  -38.2676   52.5445   66.1238 H   0  0  0  0  0  0  0  0  0  0  0  0
  -38.2160   53.5766   64.6977 H   0  0  0  0  0  0  0  0  0  0  0  0
  -40.6283   53.8488   64.7877 H   0  0  0  0  0  0  0  0  0  0  0  0
  -40.6655   52.8075   66.2311 H   0  0  0  0  0  0  0  0  0  0  0  0
  -39.8437   51.9496   63.4944 H   0  0  0  0  0  0  0  0  0  0  0  0
  -41.4034   51.6199   64.3181 H   0  0  0  0  0  0  0  0  0  0  0  0
  -40.3114   50.2703   65.9280 H   0  0  0  0  0  0  0  0  0  0  0  0
  -38.7470   50.6089   65.1431 H   0  0  0  0  0  0  0  0  0  0  0  0
  -41.0066   49.0834   63.8900 H   0  0  0  0  0  0  0  0  0  0  0  0
  -39.5485   48.3813   64.5871 H   0  0  0  0  0  0  0  0  0  0  0  0
  -39.3729   48.5333   62.1704 H   0  0  0  0  0  0  0  0  0  0  0  0
  -38.2065   49.6153   63.0238 H   0  0  0  0  0  0  0  0  0  0  0  0
  -40.6505   50.4918   61.5665 H   0  0  0  0  0  0  0  0  0  0  0  0
  -38.9989   50.6695   61.0245 H   0  0  0  0  0  0  0  0  0  0  0  0
  -39.5460   51.5165   62.4515 H   0  0  0  0  0  0  0  0  0  0  0  0
  -37.5347   60.7057   61.4415 H   0  0  0  0  0  0  0  0  0  0  0  0
  -35.8551   60.7939   61.9477 H   0  0  0  0  0  0  0  0  0  0  0  0
  -36.9811   61.1877   59.3403 H   0  0  0  0  0  0  0  0  0  0  0  0
  -35.2722   61.0767   59.8637 H   0  0  0  0  0  0  0  0  0  0  0  0
  -36.8521   63.5858   59.9022 H   0  0  0  0  0  0  0  0  0  0  0  0
  -35.7879   63.0721   58.5798 H   0  0  0  0  0  0  0  0  0  0  0  0
  -34.8015   64.6850   60.1811 H   0  0  0  0  0  0  0  0  0  0  0  0
  -33.9366   63.1046   59.9292 H   0  0  0  0  0  0  0  0  0  0  0  0
  -34.0191   64.2084   62.2514 H   0  0  0  0  0  0  0  0  0  0  0  0
  -36.5479   63.5074   65.4535 H   0  0  0  0  0  0  0  0  0  0  0  0
  -37.3097   62.3442   64.4380 H   0  0  0  0  0  0  0  0  0  0  0  0
  -35.6979   61.8225   66.7371 H   0  0  0  0  0  0  0  0  0  0  0  0
  -41.9346   60.5750   70.0869 H   0  0  0  0  0  0  0  0  0  0  0  0
  -43.0200   62.7416   70.2496 H   0  0  0  0  0  0  0  0  0  0  0  0
  -42.1485   64.6449   69.0119 H   0  0  0  0  0  0  0  0  0  0  0  0
  -40.1894   64.3568   67.6009 H   0  0  0  0  0  0  0  0  0  0  0  0
  1  2  1  0  0  0  0
  1  5  1  0  0  0  0
  1  7  1  0  0  0  0
  2 18  2  0  0  0  0
  2 29  1  0  0  0  0
  3 21  2  0  0  0  0
  4  6  1  0  0  0  0
  4 59  1  0  0  0  0
  4 60  1  0  0  0  0
  4 61  1  0  0  0  0
  5 62  1  0  0  0  0
  6 14  1  0  0  0  0
  7 10  1  0  0  0  0
  7 63  1  0  0  0  0
  7 64  1  0  0  0  0
  8 27  1  0  0  0  0
  8 48  1  0  0  0  0
  8 65  1  0  0  0  0
  9 21  1  0  0  0  0
  9 23  1  0  0  0  0
 10 13  1  0  0  0  0
 10 66  1  0  0  0  0
 10 67  1  0  0  0  0
 11 19  1  0  0  0  0
 11 28  1  0  0  0  0
 11 68  1  0  0  0  0
 12 27  2  0  0  0  0
 13 16  2  0  0  0  0
 13 69  1  0  0  0  0
 14 44  1  0  0  0  0
 14 49  1  0  0  0  0
 15 28  2  0  0  0  0
 16 19  1  0  0  0  0
 16 70  1  0  0  0  0
 17 51  2  0  0  0  0
 17 52  1  0  0  0  0
 19 21  1  0  0  0  0
 19 71  1  1  0  0  0
 20 49  2  0  0  0  0
 22 50  1  0  0  0  0
 22 51  1  0  0  0  0
 23 25  1  0  0  0  0
 23 26  1  0  0  0  0
 23 72  1  6  0  0  0
 24 53  1  0  0  0  0
 24 73  1  0  0  0  0
 25 27  1  0  0  0  0
 25 74  1  0  0  0  0
 25 75  1  0  0  0  0
 26 76  1  0  0  0  0
 26 77  1  0  0  0  0
 26 78  1  0  0  0  0
 28 52  1  0  0  0  0
 29 30  1  0  0  0  0
 29 79  1  0  0  0  0
 29 80  1  0  0  0  0
 30 31  1  0  0  0  0
 30 81  1  0  0  0  0
 30 82  1  0  0  0  0
 31 32  1  0  0  0  0
 31 83  1  0  0  0  0
 31 84  1  0  0  0  0
 32 33  1  0  0  0  0
 32 85  1  0  0  0  0
 32 86  1  0  0  0  0
 33 34  1  0  0  0  0
 33 87  1  0  0  0  0
 33 88  1  0  0  0  0
 34 35  1  0  0  0  0
 34 89  1  0  0  0  0
 34 90  1  0  0  0  0
 35 36  1  0  0  0  0
 35 91  1  0  0  0  0
 35 92  1  0  0  0  0
 36 37  1  0  0  0  0
 36 93  1  0  0  0  0
 36 94  1  0  0  0  0
 37 38  1  0  0  0  0
 37 95  1  0  0  0  0
 37 96  1  0  0  0  0
 38 39  1  0  0  0  0
 38 97  1  0  0  0  0
 38 98  1  0  0  0  0
 39 40  1  0  0  0  0
 39 99  1  0  0  0  0
 39100  1  0  0  0  0
 40 41  1  0  0  0  0
 40101  1  0  0  0  0
 40102  1  0  0  0  0
 41 42  1  0  0  0  0
 41103  1  0  0  0  0
 41104  1  0  0  0  0
 42 43  1  0  0  0  0
 42105  1  0  0  0  0
 42106  1  0  0  0  0
 43107  1  0  0  0  0
 43108  1  0  0  0  0
 43109  1  0  0  0  0
 44 45  1  0  0  0  0
 44110  1  0  0  0  0
 44111  1  0  0  0  0
 45 46  1  0  0  0  0
 45112  1  0  0  0  0
 45113  1  0  0  0  0
 46 47  1  0  0  0  0
 46114  1  0  0  0  0
 46115  1  0  0  0  0
 47 48  1  0  0  0  0
 47116  1  0  0  0  0
 47117  1  0  0  0  0
 48 49  1  0  0  0  0
 48118  1  1  0  0  0
 50 52  1  0  0  0  0
 50119  1  0  0  0  0
 50120  1  0  0  0  0
 51 58  1  0  0  0  0
 52121  1  1  0  0  0
 53 54  2  0  0  0  0
 53 58  1  0  0  0  0
 54 55  1  0  0  0  0
 54122  1  0  0  0  0
 55 56  2  0  0  0  0
 55123  1  0  0  0  0
 56 57  1  0  0  0  0
 56124  1  0  0  0  0
 57 58  2  0  0  0  0
 57125  1  0  0  0  0
M  END
$$$$
/media/chris/experiments/cd1a-new-docking/inputs/ligands/1xz0_ligand.pdb
 OpenBabel07022319323D

125127  0  0  1  0  0  0  0  0999 V2000
  -42.0244   57.7367   62.1354 N   0  0  0  0  0  0  0  0  0  0  0  0
  -42.7628   57.7828   63.2757 C   0  0  0  0  0  0  0  0  0  0  0  0
  -34.5145   59.2300   63.5740 O   0  0  0  0  0  0  0  0  0  0  0  0
  -35.4821   62.6393   59.3231 Si  0  0  0  0  0  0  0  0  0  0  0  0
  -42.0998   58.8463   61.2818 O   0  0  0  0  0  0  0  0  0  0  0  0
  -33.7873   62.1768   58.9923 O   0  0  0  0  0  0  0  0  0  0  0  0
  -41.1374   56.6740   61.6520 C   0  0  0  0  0  0  0  0  0  0  0  0
  -32.3097   59.7144   62.3990 N   0  0  0  0  0  0  0  0  0  0  0  0
  -34.8102   56.9389   63.5156 O   0  0  0  0  0  0  0  0  0  0  0  0
  -39.7171   57.2580   61.5068 C   0  0  0  0  0  0  0  0  0  0  0  0
  -36.8950   59.8150   64.6310 N   0  0  0  0  0  0  0  0  0  0  0  0
  -34.2772   59.1432   61.4410 O   0  0  0  0  0  0  0  0  0  0  0  0
  -39.0441   57.8107   62.7746 C   0  0  0  0  0  0  0  0  0  0  0  0
  -33.0702   61.4736   59.9128 N   0  0  0  0  0  0  0  0  0  0  0  0
  -37.3593   61.1359   66.4234 O   0  0  0  0  0  0  0  0  0  0  0  0
  -37.6390   58.4030   62.6110 C   0  0  0  0  0  0  0  0  0  0  0  0
  -38.6133   59.0944   67.7818 N   0  0  0  0  0  0  0  0  0  0  0  0
  -43.4645   58.7585   63.5412 O   0  0  0  0  0  0  0  0  0  0  0  0
  -36.7890   58.5530   63.8960 C   0  0  1  0  0  0  0  0  0  0  0  0
  -34.3906   62.2567   61.5586 O   0  0  0  0  0  0  0  0  0  0  0  0
  -35.3080   58.3090   63.6770 C   0  0  0  0  0  0  0  0  0  0  0  0
  -36.9511   58.2137   68.9874 O   0  0  0  0  0  0  0  0  0  0  0  0
  -34.1712   56.5125   62.2975 C   0  0  1  0  0  0  0  0  0  0  0  0
  -37.3053   59.2437   71.6478 O   0  0  0  0  0  0  0  0  0  0  0  0
  -32.9313   57.3673   62.0820 C   0  0  0  0  0  0  0  0  0  0  0  0
  -33.8311   55.0281   62.2477 C   0  0  0  0  0  0  0  0  0  0  0  0
  -33.2369   58.8412   61.9793 C   0  0  0  0  0  0  0  0  0  0  0  0
  -37.2920   60.0330   65.8968 C   0  0  0  0  0  0  0  0  0  0  0  0
  -42.7080   56.5959   64.2433 C   0  0  0  0  0  0  0  0  0  0  0  0
  -41.3130   56.3036   64.8124 C   0  0  0  0  0  0  0  0  0  0  0  0
  -40.3277   56.0011   63.6670 C   0  0  0  0  0  0  0  0  0  0  0  0
  -38.9015   55.6783   64.1518 C   0  0  0  0  0  0  0  0  0  0  0  0
  -38.7991   54.4435   65.0666 C   0  0  0  0  0  0  0  0  0  0  0  0
  -39.2721   53.1459   64.3784 C   0  0  0  0  0  0  0  0  0  0  0  0
  -38.4659   52.7580   63.1169 C   0  0  0  0  0  0  0  0  0  0  0  0
  -36.9785   52.5118   63.3954 C   0  0  0  0  0  0  0  0  0  0  0  0
  -36.1351   52.1409   62.1715 C   0  0  0  0  0  0  0  0  0  0  0  0
  -34.6643   51.8977   62.5565 C   0  0  0  0  0  0  0  0  0  0  0  0
  -33.7608   51.5378   61.3674 C   0  0  0  0  0  0  0  0  0  0  0  0
  -34.1567   50.2798   60.5874 C   0  0  0  0  0  0  0  0  0  0  0  0
  -34.1858   48.9862   61.4391 C   0  0  0  0  0  0  0  0  0  0  0  0
  -34.5738   47.7590   60.5896 C   0  0  0  0  0  0  0  0  0  0  0  0
  -33.6548   47.4019   59.4153 C   0  0  0  0  0  0  0  0  0  0  0  0
  -32.0329   60.5659   59.4010 C   0  0  0  0  0  0  0  0  0  0  0  0
  -30.6283   61.0838   59.7639 C   0  0  0  0  0  0  0  0  0  0  0  0
  -30.5998   62.2790   60.7022 C   0  0  0  0  0  0  0  0  0  0  0  0
  -31.0983   61.9460   62.1110 C   0  0  0  0  0  0  0  0  0  0  0  0
  -32.4177   61.1719   62.2682 C   0  0  1  0  0  0  0  0  0  0  0  0
  -33.3802   61.6643   61.2052 C   0  0  0  0  0  0  0  0  0  0  0  0
  -36.4390   58.2296   67.6555 C   0  0  0  0  0  0  0  0  0  0  0  0
  -38.2778   58.7768   68.9583 C   0  0  0  0  0  0  0  0  0  0  0  0
  -37.5729   58.8203   66.7723 C   0  0  1  0  0  0  0  0  0  0  0  0
  -38.6251   59.1478   71.4466 C   0  0  0  0  0  0  0  0  0  0  0  0
  -39.5030   59.2902   72.5292 C   0  0  0  0  0  0  0  0  0  0  0  0
  -40.8920   59.1844   72.3458 C   0  0  0  0  0  0  0  0  0  0  0  0
  -41.4196   58.9447   71.0758 C   0  0  0  0  0  0  0  0  0  0  0  0
  -40.5483   58.8081   69.9915 C   0  0  0  0  0  0  0  0  0  0  0  0
  -39.1555   58.9050   70.1736 C   0  0  0  0  0  0  0  0  0  0  0  0
  -36.0011   63.3598   58.2150 H   0  0  0  0  0  0  0  0  0  0  0  0
  -35.5320   63.4558   60.4839 H   0  0  0  0  0  0  0  0  0  0  0  0
  -36.2595   61.4698   59.5333 H   0  0  0  0  0  0  0  0  0  0  0  0
  -42.7006   59.5063   61.6617 H   0  0  0  0  0  0  0  0  0  0  0  0
  -41.4815   56.3191   60.7031 H   0  0  0  0  0  0  0  0  0  0  0  0
  -41.1313   55.8563   62.3422 H   0  0  0  0  0  0  0  0  0  0  0  0
  -31.4994   59.3520   62.8250 H   0  0  0  0  0  0  0  0  0  0  0  0
  -39.7701   58.0573   60.7975 H   0  0  0  0  0  0  0  0  0  0  0  0
  -39.1090   56.4272   61.2153 H   0  0  0  0  0  0  0  0  0  0  0  0
  -36.6386   60.6199   64.1253 H   0  0  0  0  0  0  0  0  0  0  0  0
  -39.5159   57.7843   63.6921 H   0  0  0  0  0  0  0  0  0  0  0  0
  -37.2771   58.6882   61.6876 H   0  0  0  0  0  0  0  0  0  0  0  0
  -37.2383   57.7881   64.4943 H   0  0  0  0  0  0  0  0  0  0  0  0
  -34.8746   56.6502   61.5030 H   0  0  0  0  0  0  0  0  0  0  0  0
  -36.9732   59.4066   72.5086 H   0  0  0  0  0  0  0  0  0  0  0  0
  -32.4558   57.0545   61.1759 H   0  0  0  0  0  0  0  0  0  0  0  0
  -32.2992   57.2318   62.9346 H   0  0  0  0  0  0  0  0  0  0  0  0
  -33.1246   54.7981   63.0176 H   0  0  0  0  0  0  0  0  0  0  0  0
  -33.4089   54.7908   61.2936 H   0  0  0  0  0  0  0  0  0  0  0  0
  -34.7211   54.4531   62.3969 H   0  0  0  0  0  0  0  0  0  0  0  0
  -43.0462   55.7244   63.7229 H   0  0  0  0  0  0  0  0  0  0  0  0
  -43.3290   56.8528   65.0760 H   0  0  0  0  0  0  0  0  0  0  0  0
  -41.3671   55.4578   65.4655 H   0  0  0  0  0  0  0  0  0  0  0  0
  -40.9688   57.1598   65.3540 H   0  0  0  0  0  0  0  0  0  0  0  0
  -40.2817   56.8560   63.0253 H   0  0  0  0  0  0  0  0  0  0  0  0
  -40.6918   55.1319   63.1602 H   0  0  0  0  0  0  0  0  0  0  0  0
  -38.5329   56.5252   64.6919 H   0  0  0  0  0  0  0  0  0  0  0  0
  -38.3270   55.4559   63.2769 H   0  0  0  0  0  0  0  0  0  0  0  0
  -39.4035   54.6099   65.9337 H   0  0  0  0  0  0  0  0  0  0  0  0
  -37.7673   54.3155   65.3191 H   0  0  0  0  0  0  0  0  0  0  0  0
  -40.2960   53.2721   64.0947 H   0  0  0  0  0  0  0  0  0  0  0  0
  -39.1280   52.3564   65.0861 H   0  0  0  0  0  0  0  0  0  0  0  0
  -38.5505   53.5509   62.4035 H   0  0  0  0  0  0  0  0  0  0  0  0
  -38.8746   51.8391   62.7516 H   0  0  0  0  0  0  0  0  0  0  0  0
  -36.9027   51.7131   64.1033 H   0  0  0  0  0  0  0  0  0  0  0  0
  -36.5872   53.4412   63.7533 H   0  0  0  0  0  0  0  0  0  0  0  0
  -36.1816   52.9400   61.4614 H   0  0  0  0  0  0  0  0  0  0  0  0
  -36.5276   51.2379   61.7528 H   0  0  0  0  0  0  0  0  0  0  0  0
  -34.6293   51.0937   63.2617 H   0  0  0  0  0  0  0  0  0  0  0  0
  -34.2934   52.8160   62.9616 H   0  0  0  0  0  0  0  0  0  0  0  0
  -32.7683   51.3942   61.7406 H   0  0  0  0  0  0  0  0  0  0  0  0
  -33.8520   52.3496   60.6763 H   0  0  0  0  0  0  0  0  0  0  0  0
  -33.4532   50.1425   59.7930 H   0  0  0  0  0  0  0  0  0  0  0  0
  -35.1546   50.4381   60.2354 H   0  0  0  0  0  0  0  0  0  0  0  0
  -34.9007   49.1042   62.2264 H   0  0  0  0  0  0  0  0  0  0  0  0
  -33.2055   48.8234   61.8361 H   0  0  0  0  0  0  0  0  0  0  0  0
  -35.5504   47.9388   60.1912 H   0  0  0  0  0  0  0  0  0  0  0  0
  -34.5035   46.9267   61.2584 H   0  0  0  0  0  0  0  0  0  0  0  0
  -33.6712   48.1938   58.6959 H   0  0  0  0  0  0  0  0  0  0  0  0
  -33.9962   46.4970   58.9575 H   0  0  0  0  0  0  0  0  0  0  0  0
  -32.6556   47.2656   59.7729 H   0  0  0  0  0  0  0  0  0  0  0  0
  -32.1184   60.4994   58.3365 H   0  0  0  0  0  0  0  0  0  0  0  0
  -32.1695   59.6023   59.8456 H   0  0  0  0  0  0  0  0  0  0  0  0
  -30.1344   61.3636   58.8569 H   0  0  0  0  0  0  0  0  0  0  0  0
  -30.1441   60.2854   60.2865 H   0  0  0  0  0  0  0  0  0  0  0  0
  -31.2214   63.0481   60.2936 H   0  0  0  0  0  0  0  0  0  0  0  0
  -29.5807   62.5931   60.7894 H   0  0  0  0  0  0  0  0  0  0  0  0
  -31.2147   62.8741   62.6305 H   0  0  0  0  0  0  0  0  0  0  0  0
  -30.3583   61.2750   62.4945 H   0  0  0  0  0  0  0  0  0  0  0  0
  -32.8192   61.3955   63.2345 H   0  0  0  0  0  0  0  0  0  0  0  0
  -36.1978   57.2369   67.3373 H   0  0  0  0  0  0  0  0  0  0  0  0
  -35.5427   58.8098   67.5853 H   0  0  0  0  0  0  0  0  0  0  0  0
  -37.8134   58.1274   65.9933 H   0  0  0  0  0  0  0  0  0  0  0  0
  -39.1253   59.4750   73.4716 H   0  0  0  0  0  0  0  0  0  0  0  0
  -41.5256   59.2843   73.1543 H   0  0  0  0  0  0  0  0  0  0  0  0
  -42.4398   58.8694   70.9393 H   0  0  0  0  0  0  0  0  0  0  0  0
  -40.9295   58.6346   69.0483 H   0  0  0  0  0  0  0  0  0  0  0  0
  1  2  1  0  0  0  0
  1  5  1  0  0  0  0
  1  7  1  0  0  0  0
  2 18  2  0  0  0  0
  2 29  1  0  0  0  0
  3 21  2  0  0  0  0
  4  6  1  0  0  0  0
  4 59  1  0  0  0  0
  4 60  1  0  0  0  0
  4 61  1  0  0  0  0
  5 62  1  0  0  0  0
  6 14  1  0  0  0  0
  7 10  1  0  0  0  0
  7 63  1  0  0  0  0
  7 64  1  0  0  0  0
  8 27  1  0  0  0  0
  8 48  1  0  0  0  0
  8 65  1  0  0  0  0
  9 21  1  0  0  0  0
  9 23  1  0  0  0  0
 10 13  1  0  0  0  0
 10 66  1  0  0  0  0
 10 67  1  0  0  0  0
 11 19  1  0  0  0  0
 11 28  1  0  0  0  0
 11 68  1  0  0  0  0
 12 27  2  0  0  0  0
 13 16  2  0  0  0  0
 13 69  1  0  0  0  0
 14 44  1  0  0  0  0
 14 49  1  0  0  0  0
 15 28  2  0  0  0  0
 16 19  1  0  0  0  0
 16 70  1  0  0  0  0
 17 51  2  0  0  0  0
 17 52  1  0  0  0  0
 19 21  1  0  0  0  0
 19 71  1  1  0  0  0
 20 49  2  0  0  0  0
 22 50  1  0  0  0  0
 22 51  1  0  0  0  0
 23 25  1  0  0  0  0
 23 26  1  0  0  0  0
 23 72  1  6  0  0  0
 24 53  1  0  0  0  0
 24 73  1  0  0  0  0
 25 27  1  0  0  0  0
 25 74  1  0  0  0  0
 25 75  1  0  0  0  0
 26 76  1  0  0  0  0
 26 77  1  0  0  0  0
 26 78  1  0  0  0  0
 28 52  1  0  0  0  0
 29 30  1  0  0  0  0
 29 79  1  0  0  0  0
 29 80  1  0  0  0  0
 30 31  1  0  0  0  0
 30 81  1  0  0  0  0
 30 82  1  0  0  0  0
 31 32  1  0  0  0  0
 31 83  1  0  0  0  0
 31 84  1  0  0  0  0
 32 33  1  0  0  0  0
 32 85  1  0  0  0  0
 32 86  1  0  0  0  0
 33 34  1  0  0  0  0
 33 87  1  0  0  0  0
 33 88  1  0  0  0  0
 34 35  1  0  0  0  0
 34 89  1  0  0  0  0
 34 90  1  0  0  0  0
 35 36  1  0  0  0  0
 35 91  1  0  0  0  0
 35 92  1  0  0  0  0
 36 37  1  0  0  0  0
 36 93  1  0  0  0  0
 36 94  1  0  0  0  0
 37 38  1  0  0  0  0
 37 95  1  0  0  0  0
 37 96  1  0  0  0  0
 38 39  1  0  0  0  0
 38 97  1  0  0  0  0
 38 98  1  0  0  0  0
 39 40  1  0  0  0  0
 39 99  1  0  0  0  0
 39100  1  0  0  0  0
 40 41  1  0  0  0  0
 40101  1  0  0  0  0
 40102  1  0  0  0  0
 41 42  1  0  0  0  0
 41103  1  0  0  0  0
 41104  1  0  0  0  0
 42 43  1  0  0  0  0
 42105  1  0  0  0  0
 42106  1  0  0  0  0
 43107  1  0  0  0  0
 43108  1  0  0  0  0
 43109  1  0  0  0  0
 44 45  1  0  0  0  0
 44110  1  0  0  0  0
 44111  1  0  0  0  0
 45 46  1  0  0  0  0
 45112  1  0  0  0  0
 45113  1  0  0  0  0
 46 47  1  0  0  0  0
 46114  1  0  0  0  0
 46115  1  0  0  0  0
 47 48  1  0  0  0  0
 47116  1  0  0  0  0
 47117  1  0  0  0  0
 48 49  1  0  0  0  0
 48118  1  1  0  0  0
 50 52  1  0  0  0  0
 50119  1  0  0  0  0
 50120  1  0  0  0  0
 51 58  1  0  0  0  0
 52121  1  6  0  0  0
 53 54  2  0  0  0  0
 53 58  1  0  0  0  0
 54 55  1  0  0  0  0
 54122  1  0  0  0  0
 55 56  2  0  0  0  0
 55123  1  0  0  0  0
 56 57  1  0  0  0  0
 56124  1  0  0  0  0
 57 58  2  0  0  0  0
 57125  1  0  0  0  0
M  END
$$$$
/media/chris/experiments/cd1a-new-docking/inputs/ligands/1xz0_ligand.pdb
 OpenBabel07022319323D

125127  0  0  1  0  0  0  0  0999 V2000
  -39.4070   55.3381   59.0035 N   0  0  0  0  0  0  0  0  0  0  0  0
  -39.8963   54.3215   58.2453 C   0  0  0  0  0  0  0  0  0  0  0  0
  -34.8470   57.1816   63.6074 O   0  0  0  0  0  0  0  0  0  0  0  0
  -37.4135   66.9275   58.8790 Si  0  0  0  0  0  0  0  0  0  0  0  0
  -39.2095   56.5710   58.3659 O   0  0  0  0  0  0  0  0  0  0  0  0
  -36.2444   65.7403   58.2312 O   0  0  0  0  0  0  0  0  0  0  0  0
  -39.0463   55.3391   60.4247 C   0  0  0  0  0  0  0  0  0  0  0  0
  -34.5934   62.7745   61.1175 N   0  0  0  0  0  0  0  0  0  0  0  0
  -34.3830   59.4453   63.6122 O   0  0  0  0  0  0  0  0  0  0  0  0
  -38.5576   56.7536   60.7988 C   0  0  0  0  0  0  0  0  0  0  0  0
  -36.8950   59.8150   64.6310 N   0  0  0  0  0  0  0  0  0  0  0  0
  -35.7271   61.6768   62.7378 O   0  0  0  0  0  0  0  0  0  0  0  0
  -38.1064   56.9875   62.2504 C   0  0  0  0  0  0  0  0  0  0  0  0
  -35.4879   64.9839   59.0747 N   0  0  0  0  0  0  0  0  0  0  0  0
  -38.5876   59.4141   66.0963 O   0  0  0  0  0  0  0  0  0  0  0  0
  -37.6390   58.4030   62.6110 C   0  0  0  0  0  0  0  0  0  0  0  0
  -36.7378   61.7633   67.2375 N   0  0  0  0  0  0  0  0  0  0  0  0
  -40.1107   53.2110   58.7306 O   0  0  0  0  0  0  0  0  0  0  0  0
  -36.7890   58.5530   63.8960 C   0  0  1  0  0  0  0  0  0  0  0  0
  -37.2106   64.8453   60.5163 O   0  0  0  0  0  0  0  0  0  0  0  0
  -35.3080   58.3090   63.6770 C   0  0  0  0  0  0  0  0  0  0  0  0
  -38.6104   62.6885   68.0309 O   0  0  0  0  0  0  0  0  0  0  0  0
  -33.5507   59.6690   62.4585 C   0  0  1  0  0  0  0  0  0  0  0  0
  -37.7935   64.6288   69.9358 O   0  0  0  0  0  0  0  0  0  0  0  0
  -34.3894   60.3492   61.3870 C   0  0  0  0  0  0  0  0  0  0  0  0
  -32.2764   60.4553   62.7407 C   0  0  0  0  0  0  0  0  0  0  0  0
  -34.9372   61.6862   61.8216 C   0  0  0  0  0  0  0  0  0  0  0  0
  -37.7336   60.1539   65.6256 C   0  0  0  0  0  0  0  0  0  0  0  0
  -40.1763   54.5724   56.7598 C   0  0  0  0  0  0  0  0  0  0  0  0
  -41.6378   54.3577   56.3434 C   0  0  0  0  0  0  0  0  0  0  0  0
  -42.5555   55.3228   57.1184 C   0  0  0  0  0  0  0  0  0  0  0  0
  -44.0482   55.1628   56.7730 C   0  0  0  0  0  0  0  0  0  0  0  0
  -44.9867   56.1277   57.5215 C   0  0  0  0  0  0  0  0  0  0  0  0
  -46.4724   55.9217   57.1590 C   0  0  0  0  0  0  0  0  0  0  0  0
  -47.4475   56.8836   57.8772 C   0  0  0  0  0  0  0  0  0  0  0  0
  -47.1883   58.3615   57.5629 C   0  0  0  0  0  0  0  0  0  0  0  0
  -48.1197   59.3542   58.2656 C   0  0  0  0  0  0  0  0  0  0  0  0
  -49.5928   59.0974   57.8991 C   0  0  0  0  0  0  0  0  0  0  0  0
  -50.5782   60.0732   58.5600 C   0  0  0  0  0  0  0  0  0  0  0  0
  -50.5710   60.0907   60.0921 C   0  0  0  0  0  0  0  0  0  0  0  0
  -51.5892   61.0738   60.7218 C   0  0  0  0  0  0  0  0  0  0  0  0
  -53.0366   60.7198   60.3243 C   0  0  0  0  0  0  0  0  0  0  0  0
  -53.3702   60.7154   58.8276 C   0  0  0  0  0  0  0  0  0  0  0  0
  -34.1582   64.5767   58.5971 C   0  0  0  0  0  0  0  0  0  0  0  0
  -33.0505   65.2864   59.3983 C   0  0  0  0  0  0  0  0  0  0  0  0
  -33.5291   66.0876   60.5978 C   0  0  0  0  0  0  0  0  0  0  0  0
  -34.1006   65.2099   61.7144 C   0  0  0  0  0  0  0  0  0  0  0  0
  -35.1252   64.1217   61.3529 C   0  0  1  0  0  0  0  0  0  0  0  0
  -36.0267   64.6692   60.2636 C   0  0  0  0  0  0  0  0  0  0  0  0
  -38.9781   62.2280   66.7311 C   0  0  0  0  0  0  0  0  0  0  0  0
  -37.2283   62.3418   68.2486 C   0  0  0  0  0  0  0  0  0  0  0  0
  -37.6957   61.5896   66.1290 C   0  0  1  0  0  0  0  0  0  0  0  0
  -36.8030   63.7989   70.2847 C   0  0  0  0  0  0  0  0  0  0  0  0
  -36.0764   64.0420   71.4577 C   0  0  0  0  0  0  0  0  0  0  0  0
  -35.0259   63.1912   71.8408 C   0  0  0  0  0  0  0  0  0  0  0  0
  -34.6964   62.0817   71.0603 C   0  0  0  0  0  0  0  0  0  0  0  0
  -35.4224   61.8313   69.8925 C   0  0  0  0  0  0  0  0  0  0  0  0
  -36.4700   62.6871   69.5014 C   0  0  0  0  0  0  0  0  0  0  0  0
  -38.0702   67.5808   57.8028 H   0  0  0  0  0  0  0  0  0  0  0  0
  -36.7255   67.8879   59.6667 H   0  0  0  0  0  0  0  0  0  0  0  0
  -38.3735   66.2567   59.6821 H   0  0  0  0  0  0  0  0  0  0  0  0
  -39.4672   56.4979   57.4337 H   0  0  0  0  0  0  0  0  0  0  0  0
  -38.2661   54.6283   60.6006 H   0  0  0  0  0  0  0  0  0  0  0  0
  -39.8940   55.0722   61.0205 H   0  0  0  0  0  0  0  0  0  0  0  0
  -33.9381   62.6616   60.3915 H   0  0  0  0  0  0  0  0  0  0  0  0
  -39.3595   57.4332   60.5988 H   0  0  0  0  0  0  0  0  0  0  0  0
  -37.6754   56.9016   60.2116 H   0  0  0  0  0  0  0  0  0  0  0  0
  -36.2607   60.5165   64.3574 H   0  0  0  0  0  0  0  0  0  0  0  0
  -38.1176   56.2279   62.9488 H   0  0  0  0  0  0  0  0  0  0  0  0
  -37.8799   59.2173   62.0245 H   0  0  0  0  0  0  0  0  0  0  0  0
  -37.2383   57.7881   64.4943 H   0  0  0  0  0  0  0  0  0  0  0  0
  -33.2040   58.7133   62.1248 H   0  0  0  0  0  0  0  0  0  0  0  0
  -37.9986   65.3667   70.4757 H   0  0  0  0  0  0  0  0  0  0  0  0
  -35.2106   59.7091   61.1403 H   0  0  0  0  0  0  0  0  0  0  0  0
  -33.7508   60.5249   60.5466 H   0  0  0  0  0  0  0  0  0  0  0  0
  -32.5312   61.4363   63.0837 H   0  0  0  0  0  0  0  0  0  0  0  0
  -31.6975   60.5302   61.8439 H   0  0  0  0  0  0  0  0  0  0  0  0
  -31.7057   59.9516   63.4926 H   0  0  0  0  0  0  0  0  0  0  0  0
  -39.5643   53.9072   56.1872 H   0  0  0  0  0  0  0  0  0  0  0  0
  -39.9561   55.6037   56.5782 H   0  0  0  0  0  0  0  0  0  0  0  0
  -41.9226   53.3490   56.5582 H   0  0  0  0  0  0  0  0  0  0  0  0
  -41.7351   54.5476   55.2948 H   0  0  0  0  0  0  0  0  0  0  0  0
  -42.2610   56.3260   56.8911 H   0  0  0  0  0  0  0  0  0  0  0  0
  -42.4469   55.0934   58.1579 H   0  0  0  0  0  0  0  0  0  0  0  0
  -44.3403   54.1613   57.0110 H   0  0  0  0  0  0  0  0  0  0  0  0
  -44.1448   55.3922   55.7323 H   0  0  0  0  0  0  0  0  0  0  0  0
  -44.7112   57.1318   57.2751 H   0  0  0  0  0  0  0  0  0  0  0  0
  -44.8811   55.9313   58.5680 H   0  0  0  0  0  0  0  0  0  0  0  0
  -46.7430   54.9187   57.4156 H   0  0  0  0  0  0  0  0  0  0  0  0
  -46.5610   56.1244   56.1122 H   0  0  0  0  0  0  0  0  0  0  0  0
  -47.3499   56.7393   58.9329 H   0  0  0  0  0  0  0  0  0  0  0  0
  -48.4321   56.6545   57.5264 H   0  0  0  0  0  0  0  0  0  0  0  0
  -47.2953   58.4985   56.5072 H   0  0  0  0  0  0  0  0  0  0  0  0
  -46.2039   58.5725   57.9255 H   0  0  0  0  0  0  0  0  0  0  0  0
  -47.8557   60.3483   57.9705 H   0  0  0  0  0  0  0  0  0  0  0  0
  -48.0088   59.2302   59.3226 H   0  0  0  0  0  0  0  0  0  0  0  0
  -49.8474   58.1037   58.2037 H   0  0  0  0  0  0  0  0  0  0  0  0
  -49.6788   59.2378   56.8419 H   0  0  0  0  0  0  0  0  0  0  0  0
  -51.5648   59.8115   58.2391 H   0  0  0  0  0  0  0  0  0  0  0  0
  -50.2674   61.0510   58.2563 H   0  0  0  0  0  0  0  0  0  0  0  0
  -49.5908   60.3675   60.4198 H   0  0  0  0  0  0  0  0  0  0  0  0
  -50.8538   59.1094   60.4116 H   0  0  0  0  0  0  0  0  0  0  0  0
  -51.3689   62.0653   60.3852 H   0  0  0  0  0  0  0  0  0  0  0  0
  -51.5072   61.0059   61.7864 H   0  0  0  0  0  0  0  0  0  0  0  0
  -53.6831   61.4298   60.7963 H   0  0  0  0  0  0  0  0  0  0  0  0
  -53.1696   59.7061   60.6399 H   0  0  0  0  0  0  0  0  0  0  0  0
  -53.2593   61.7044   58.4346 H   0  0  0  0  0  0  0  0  0  0  0  0
  -54.3790   60.3871   58.6880 H   0  0  0  0  0  0  0  0  0  0  0  0
  -52.7050   60.0516   58.3159 H   0  0  0  0  0  0  0  0  0  0  0  0
  -34.0628   64.8333   57.5628 H   0  0  0  0  0  0  0  0  0  0  0  0
  -34.0544   63.5199   58.7288 H   0  0  0  0  0  0  0  0  0  0  0  0
  -32.5402   65.9546   58.7365 H   0  0  0  0  0  0  0  0  0  0  0  0
  -32.4255   64.5113   59.7902 H   0  0  0  0  0  0  0  0  0  0  0  0
  -34.2909   66.7652   60.2731 H   0  0  0  0  0  0  0  0  0  0  0  0
  -32.6806   66.6023   60.9979 H   0  0  0  0  0  0  0  0  0  0  0  0
  -34.5720   65.8640   62.4179 H   0  0  0  0  0  0  0  0  0  0  0  0
  -33.2541   64.6596   62.0687 H   0  0  0  0  0  0  0  0  0  0  0  0
  -35.7125   63.9180   62.2237 H   0  0  0  0  0  0  0  0  0  0  0  0
  -39.3066   63.0464   66.1251 H   0  0  0  0  0  0  0  0  0  0  0  0
  -39.7838   61.5254   66.7758 H   0  0  0  0  0  0  0  0  0  0  0  0
  -37.4647   62.0666   65.1995 H   0  0  0  0  0  0  0  0  0  0  0  0
  -36.3154   64.8549   72.0469 H   0  0  0  0  0  0  0  0  0  0  0  0
  -34.4950   63.3875   72.7037 H   0  0  0  0  0  0  0  0  0  0  0  0
  -33.9268   61.4545   71.3419 H   0  0  0  0  0  0  0  0  0  0  0  0
  -35.1884   61.0113   69.3112 H   0  0  0  0  0  0  0  0  0  0  0  0
  1  2  1  0  0  0  0
  1  5  1  0  0  0  0
  1  7  1  0  0  0  0
  2 18  2  0  0  0  0
  2 29  1  0  0  0  0
  3 21  2  0  0  0  0
  4  6  1  0  0  0  0
  4 59  1  0  0  0  0
  4 60  1  0  0  0  0
  4 61  1  0  0  0  0
  5 62  1  0  0  0  0
  6 14  1  0  0  0  0
  7 10  1  0  0  0  0
  7 63  1  0  0  0  0
  7 64  1  0  0  0  0
  8 27  1  0  0  0  0
  8 48  1  0  0  0  0
  8 65  1  0  0  0  0
  9 21  1  0  0  0  0
  9 23  1  0  0  0  0
 10 13  1  0  0  0  0
 10 66  1  0  0  0  0
 10 67  1  0  0  0  0
 11 19  1  0  0  0  0
 11 28  1  0  0  0  0
 11 68  1  0  0  0  0
 12 27  2  0  0  0  0
 13 16  2  0  0  0  0
 13 69  1  0  0  0  0
 14 44  1  0  0  0  0
 14 49  1  0  0  0  0
 15 28  2  0  0  0  0
 16 19  1  0  0  0  0
 16 70  1  0  0  0  0
 17 51  2  0  0  0  0
 17 52  1  0  0  0  0
 19 21  1  0  0  0  0
 19 71  1  1  0  0  0
 20 49  2  0  0  0  0
 22 50  1  0  0  0  0
 22 51  1  0  0  0  0
 23 25  1  0  0  0  0
 23 26  1  0  0  0  0
 23 72  1  6  0  0  0
 24 53  1  0  0  0  0
 24 73  1  0  0  0  0
 25 27  1  0  0  0  0
 25 74  1  0  0  0  0
 25 75  1  0  0  0  0
 26 76  1  0  0  0  0
 26 77  1  0  0  0  0
 26 78  1  0  0  0  0
 28 52  1  0  0  0  0
 29 30  1  0  0  0  0
 29 79  1  0  0  0  0
 29 80  1  0  0  0  0
 30 31  1  0  0  0  0
 30 81  1  0  0  0  0
 30 82  1  0  0  0  0
 31 32  1  0  0  0  0
 31 83  1  0  0  0  0
 31 84  1  0  0  0  0
 32 33  1  0  0  0  0
 32 85  1  0  0  0  0
 32 86  1  0  0  0  0
 33 34  1  0  0  0  0
 33 87  1  0  0  0  0
 33 88  1  0  0  0  0
 34 35  1  0  0  0  0
 34 89  1  0  0  0  0
 34 90  1  0  0  0  0
 35 36  1  0  0  0  0
 35 91  1  0  0  0  0
 35 92  1  0  0  0  0
 36 37  1  0  0  0  0
 36 93  1  0  0  0  0
 36 94  1  0  0  0  0
 37 38  1  0  0  0  0
 37 95  1  0  0  0  0
 37 96  1  0  0  0  0
 38 39  1  0  0  0  0
 38 97  1  0  0  0  0
 38 98  1  0  0  0  0
 39 40  1  0  0  0  0
 39 99  1  0  0  0  0
 39100  1  0  0  0  0
 40 41  1  0  0  0  0
 40101  1  0  0  0  0
 40102  1  0  0  0  0
 41 42  1  0  0  0  0
 41103  1  0  0  0  0
 41104  1  0  0  0  0
 42 43  1  0  0  0  0
 42105  1  0  0  0  0
 42106  1  0  0  0  0
 43107  1  0  0  0  0
 43108  1  0  0  0  0
 43109  1  0  0  0  0
 44 45  1  0  0  0  0
 44110  1  0  0  0  0
 44111  1  0  0  0  0
 45 46  1  0  0  0  0
 45112  1  0  0  0  0
 45113  1  0  0  0  0
 46 47  1  0  0  0  0
 46114  1  0  0  0  0
 46115  1  0  0  0  0
 47 48  1  0  0  0  0
 47116  1  0  0  0  0
 47117  1  0  0  0  0
 48 49  1  0  0  0  0
 48118  1  1  0  0  0
 50 52  1  0  0  0  0
 50119  1  0  0  0  0
 50120  1  0  0  0  0
 51 58  1  0  0  0  0
 52121  1  6  0  0  0
 53 54  2  0  0  0  0
 53 58  1  0  0  0  0
 54 55  1  0  0  0  0
 54122  1  0  0  0  0
 55 56  2  0  0  0  0
 55123  1  0  0  0  0
 56 57  1  0  0  0  0
 56124  1  0  0  0  0
 57 58  2  0  0  0  0
 57125  1  0  0  0  0
M  END
$$$$
/media/chris/experiments/cd1a-new-docking/inputs/ligands/1xz0_ligand.pdb
 OpenBabel07022319323D

125127  0  0  1  0  0  0  0  0999 V2000
  -40.5527   58.4476   59.2550 N   0  0  0  0  0  0  0  0  0  0  0  0
  -41.2611   59.5743   58.9784 C   0  0  0  0  0  0  0  0  0  0  0  0
  -34.5145   59.2300   63.5740 O   0  0  0  0  0  0  0  0  0  0  0  0
  -32.4512   63.3313   58.3447 Si  0  0  0  0  0  0  0  0  0  0  0  0
  -40.9314   57.2758   58.5849 O   0  0  0  0  0  0  0  0  0  0  0  0
  -31.0861   62.9341   59.4285 O   0  0  0  0  0  0  0  0  0  0  0  0
  -39.4223   58.2695   60.1717 C   0  0  0  0  0  0  0  0  0  0  0  0
  -32.4136   59.7582   62.2578 N   0  0  0  0  0  0  0  0  0  0  0  0
  -34.8102   56.9389   63.5156 O   0  0  0  0  0  0  0  0  0  0  0  0
  -39.1167   59.6292   60.8329 C   0  0  0  0  0  0  0  0  0  0  0  0
  -36.8950   59.8150   64.6310 N   0  0  0  0  0  0  0  0  0  0  0  0
  -33.1161   59.2469   64.3460 O   0  0  0  0  0  0  0  0  0  0  0  0
  -37.9469   59.6864   61.8299 C   0  0  0  0  0  0  0  0  0  0  0  0
  -31.2453   62.0353   60.4399 N   0  0  0  0  0  0  0  0  0  0  0  0
  -37.6467   59.1566   66.6741 O   0  0  0  0  0  0  0  0  0  0  0  0
  -37.6390   58.4030   62.6110 C   0  0  0  0  0  0  0  0  0  0  0  0
  -38.7655   62.0216   66.1297 N   0  0  0  0  0  0  0  0  0  0  0  0
  -40.9852   60.6477   59.5136 O   0  0  0  0  0  0  0  0  0  0  0  0
  -36.7890   58.5530   63.8960 C   0  0  1  0  0  0  0  0  0  0  0  0
  -33.4574   62.4482   60.4761 O   0  0  0  0  0  0  0  0  0  0  0  0
  -35.3080   58.3090   63.6770 C   0  0  0  0  0  0  0  0  0  0  0  0
  -37.4262   63.5725   65.2393 O   0  0  0  0  0  0  0  0  0  0  0  0
  -33.4580   56.5871   63.8642 C   0  0  1  0  0  0  0  0  0  0  0  0
  -39.0131   64.9012   63.2443 O   0  0  0  0  0  0  0  0  0  0  0  0
  -32.5112   57.4364   63.0296 C   0  0  0  0  0  0  0  0  0  0  0  0
  -33.1369   56.7038   65.3491 C   0  0  0  0  0  0  0  0  0  0  0  0
  -32.6745   58.9171   63.2691 C   0  0  0  0  0  0  0  0  0  0  0  0
  -37.2920   60.0330   65.8968 C   0  0  0  0  0  0  0  0  0  0  0  0
  -42.4256   59.4933   57.9857 C   0  0  0  0  0  0  0  0  0  0  0  0
  -43.1426   60.8273   57.7367 C   0  0  0  0  0  0  0  0  0  0  0  0
  -44.3014   60.6268   56.7411 C   0  0  0  0  0  0  0  0  0  0  0  0
  -45.0676   61.9240   56.4199 C   0  0  0  0  0  0  0  0  0  0  0  0
  -46.2426   61.7488   55.4397 C   0  0  0  0  0  0  0  0  0  0  0  0
  -46.9707   63.0743   55.1326 C   0  0  0  0  0  0  0  0  0  0  0  0
  -47.5692   63.7797   56.3719 C   0  0  0  0  0  0  0  0  0  0  0  0
  -48.3011   65.0844   56.0368 C   0  0  0  0  0  0  0  0  0  0  0  0
  -48.8970   65.8284   57.2361 C   0  0  0  0  0  0  0  0  0  0  0  0
  -49.9167   64.9542   57.9886 C   0  0  0  0  0  0  0  0  0  0  0  0
  -50.5642   65.6512   59.1948 C   0  0  0  0  0  0  0  0  0  0  0  0
  -49.5995   66.1251   60.2866 C   0  0  0  0  0  0  0  0  0  0  0  0
  -48.7509   64.9945   60.9201 C   0  0  0  0  0  0  0  0  0  0  0  0
  -47.8170   65.5378   62.0205 C   0  0  0  0  0  0  0  0  0  0  0  0
  -46.7990   66.6081   61.6089 C   0  0  0  0  0  0  0  0  0  0  0  0
  -30.0639   61.2520   60.8306 C   0  0  0  0  0  0  0  0  0  0  0  0
  -29.5798   61.6595   62.2350 C   0  0  0  0  0  0  0  0  0  0  0  0
  -30.4933   62.6156   62.9840 C   0  0  0  0  0  0  0  0  0  0  0  0
  -31.8327   61.9835   63.3718 C   0  0  0  0  0  0  0  0  0  0  0  0
  -32.6251   61.2095   62.3051 C   0  0  1  0  0  0  0  0  0  0  0  0
  -32.4687   61.9373   60.9843 C   0  0  0  0  0  0  0  0  0  0  0  0
  -36.5259   62.5734   65.7165 C   0  0  0  0  0  0  0  0  0  0  0  0
  -38.7685   63.1323   65.5264 C   0  0  0  0  0  0  0  0  0  0  0  0
  -37.4151   61.4760   66.3644 C   0  0  1  0  0  0  0  0  0  0  0  0
  -40.0597   64.7609   64.0669 C   0  0  0  0  0  0  0  0  0  0  0  0
  -41.2479   65.4539   63.8005 C   0  0  0  0  0  0  0  0  0  0  0  0
  -42.3574   65.3308   64.6538 C   0  0  0  0  0  0  0  0  0  0  0  0
  -42.2947   64.5054   65.7778 C   0  0  0  0  0  0  0  0  0  0  0  0
  -41.1138   63.8070   66.0444 C   0  0  0  0  0  0  0  0  0  0  0  0
  -39.9973   63.9351   65.1960 C   0  0  0  0  0  0  0  0  0  0  0  0
  -32.0290   64.2864   57.3823 H   0  0  0  0  0  0  0  0  0  0  0  0
  -33.5206   63.8697   59.1082 H   0  0  0  0  0  0  0  0  0  0  0  0
  -32.8882   62.1536   57.6826 H   0  0  0  0  0  0  0  0  0  0  0  0
  -41.6805   57.4663   57.9988 H   0  0  0  0  0  0  0  0  0  0  0  0
  -38.5653   57.9307   59.6280 H   0  0  0  0  0  0  0  0  0  0  0  0
  -39.6641   57.5422   60.9184 H   0  0  0  0  0  0  0  0  0  0  0  0
  -32.0550   59.3750   61.4248 H   0  0  0  0  0  0  0  0  0  0  0  0
  -39.9983   59.9371   61.3551 H   0  0  0  0  0  0  0  0  0  0  0  0
  -38.8181   60.2643   60.0252 H   0  0  0  0  0  0  0  0  0  0  0  0
  -36.6386   60.6199   64.1253 H   0  0  0  0  0  0  0  0  0  0  0  0
  -37.3952   60.5477   61.9667 H   0  0  0  0  0  0  0  0  0  0  0  0
  -37.9824   57.4826   62.2948 H   0  0  0  0  0  0  0  0  0  0  0  0
  -37.2383   57.7881   64.4943 H   0  0  0  0  0  0  0  0  0  0  0  0
  -33.3326   55.5469   63.6468 H   0  0  0  0  0  0  0  0  0  0  0  0
  -39.0780   65.4594   62.4946 H   0  0  0  0  0  0  0  0  0  0  0  0
  -32.6974   57.2365   61.9950 H   0  0  0  0  0  0  0  0  0  0  0  0
  -31.5137   57.1758   63.3157 H   0  0  0  0  0  0  0  0  0  0  0  0
  -33.2380   57.7236   65.6569 H   0  0  0  0  0  0  0  0  0  0  0  0
  -32.1333   56.3764   65.5238 H   0  0  0  0  0  0  0  0  0  0  0  0
  -33.8138   56.0933   65.9095 H   0  0  0  0  0  0  0  0  0  0  0  0
  -43.1414   58.7949   58.3662 H   0  0  0  0  0  0  0  0  0  0  0  0
  -42.0063   59.1932   57.0481 H   0  0  0  0  0  0  0  0  0  0  0  0
  -42.4471   61.5331   57.3330 H   0  0  0  0  0  0  0  0  0  0  0  0
  -43.5351   61.1924   58.6627 H   0  0  0  0  0  0  0  0  0  0  0  0
  -44.9892   59.9220   57.1597 H   0  0  0  0  0  0  0  0  0  0  0  0
  -43.8720   60.2799   55.8245 H   0  0  0  0  0  0  0  0  0  0  0  0
  -44.3780   62.6219   55.9929 H   0  0  0  0  0  0  0  0  0  0  0  0
  -45.4905   62.2627   57.3426 H   0  0  0  0  0  0  0  0  0  0  0  0
  -46.9451   61.0645   55.8676 H   0  0  0  0  0  0  0  0  0  0  0  0
  -45.8404   61.3823   54.5184 H   0  0  0  0  0  0  0  0  0  0  0  0
  -47.7672   62.8673   54.4488 H   0  0  0  0  0  0  0  0  0  0  0  0
  -46.2353   63.7390   54.7298 H   0  0  0  0  0  0  0  0  0  0  0  0
  -46.7739   64.0024   57.0522 H   0  0  0  0  0  0  0  0  0  0  0  0
  -48.2907   63.1133   56.7964 H   0  0  0  0  0  0  0  0  0  0  0  0
  -49.0989   64.8519   55.3627 H   0  0  0  0  0  0  0  0  0  0  0  0
  -47.5638   65.7383   55.6200 H   0  0  0  0  0  0  0  0  0  0  0  0
  -49.3869   66.7138   56.8883 H   0  0  0  0  0  0  0  0  0  0  0  0
  -48.1022   66.0741   57.9091 H   0  0  0  0  0  0  0  0  0  0  0  0
  -49.4151   64.0755   58.3366 H   0  0  0  0  0  0  0  0  0  0  0  0
  -50.7040   64.7320   57.2989 H   0  0  0  0  0  0  0  0  0  0  0  0
  -51.2529   64.9642   59.6405 H   0  0  0  0  0  0  0  0  0  0  0  0
  -51.0232   66.5368   58.8074 H   0  0  0  0  0  0  0  0  0  0  0  0
  -50.1724   66.5891   61.0621 H   0  0  0  0  0  0  0  0  0  0  0  0
  -48.9127   66.7988   59.8182 H   0  0  0  0  0  0  0  0  0  0  0  0
  -48.1583   64.5351   60.1567 H   0  0  0  0  0  0  0  0  0  0  0  0
  -49.4162   64.2843   61.3649 H   0  0  0  0  0  0  0  0  0  0  0  0
  -47.2696   64.7082   62.4169 H   0  0  0  0  0  0  0  0  0  0  0  0
  -48.4657   66.0269   62.7168 H   0  0  0  0  0  0  0  0  0  0  0  0
  -46.1080   66.1915   60.9060 H   0  0  0  0  0  0  0  0  0  0  0  0
  -46.2676   66.9463   62.4738 H   0  0  0  0  0  0  0  0  0  0  0  0
  -47.3109   67.4332   61.1595 H   0  0  0  0  0  0  0  0  0  0  0  0
  -29.2787   61.4250   60.1246 H   0  0  0  0  0  0  0  0  0  0  0  0
  -30.3283   60.2153   60.8455 H   0  0  0  0  0  0  0  0  0  0  0  0
  -28.6234   62.1283   62.1320 H   0  0  0  0  0  0  0  0  0  0  0  0
  -29.5556   60.7592   62.8127 H   0  0  0  0  0  0  0  0  0  0  0  0
  -30.6845   63.4636   62.3601 H   0  0  0  0  0  0  0  0  0  0  0  0
  -29.9950   62.8904   63.8901 H   0  0  0  0  0  0  0  0  0  0  0  0
  -32.4640   62.7741   63.7200 H   0  0  0  0  0  0  0  0  0  0  0  0
  -31.5667   61.2353   64.0890 H   0  0  0  0  0  0  0  0  0  0  0  0
  -33.6567   61.2172   62.5890 H   0  0  0  0  0  0  0  0  0  0  0  0
  -35.8590   62.9892   66.4427 H   0  0  0  0  0  0  0  0  0  0  0  0
  -35.9238   62.1762   64.9262 H   0  0  0  0  0  0  0  0  0  0  0  0
  -37.1134   61.3290   67.3804 H   0  0  0  0  0  0  0  0  0  0  0  0
  -41.3088   66.0614   62.9685 H   0  0  0  0  0  0  0  0  0  0  0  0
  -43.2233   65.8534   64.4484 H   0  0  0  0  0  0  0  0  0  0  0  0
  -43.1098   64.4120   66.4038 H   0  0  0  0  0  0  0  0  0  0  0  0
  -41.0595   63.1915   66.8710 H   0  0  0  0  0  0  0  0  0  0  0  0
  1  2  1  0  0  0  0
  1  5  1  0  0  0  0
  1  7  1  0  0  0  0
  2 18  2  0  0  0  0
  2 29  1  0  0  0  0
  3 21  2  0  0  0  0
  4  6  1  0  0  0  0
  4 59  1  0  0  0  0
  4 60  1  0  0  0  0
  4 61  1  0  0  0  0
  5 62  1  0  0  0  0
  6 14  1  0  0  0  0
  7 10  1  0  0  0  0
  7 63  1  0  0  0  0
  7 64  1  0  0  0  0
  8 27  1  0  0  0  0
  8 48  1  0  0  0  0
  8 65  1  0  0  0  0
  9 21  1  0  0  0  0
  9 23  1  0  0  0  0
 10 13  1  0  0  0  0
 10 66  1  0  0  0  0
 10 67  1  0  0  0  0
 11 19  1  0  0  0  0
 11 28  1  0  0  0  0
 11 68  1  0  0  0  0
 12 27  2  0  0  0  0
 13 16  2  0  0  0  0
 13 69  1  0  0  0  0
 14 44  1  0  0  0  0
 14 49  1  0  0  0  0
 15 28  2  0  0  0  0
 16 19  1  0  0  0  0
 16 70  1  0  0  0  0
 17 51  2  0  0  0  0
 17 52  1  0  0  0  0
 19 21  1  0  0  0  0
 19 71  1  1  0  0  0
 20 49  2  0  0  0  0
 22 50  1  0  0  0  0
 22 51  1  0  0  0  0
 23 25  1  0  0  0  0
 23 26  1  0  0  0  0
 23 72  1  6  0  0  0
 24 53  1  0  0  0  0
 24 73  1  0  0  0  0
 25 27  1  0  0  0  0
 25 74  1  0  0  0  0
 25 75  1  0  0  0  0
 26 76  1  0  0  0  0
 26 77  1  0  0  0  0
 26 78  1  0  0  0  0
 28 52  1  0  0  0  0
 29 30  1  0  0  0  0
 29 79  1  0  0  0  0
 29 80  1  0  0  0  0
 30 31  1  0  0  0  0
 30 81  1  0  0  0  0
 30 82  1  0  0  0  0
 31 32  1  0  0  0  0
 31 83  1  0  0  0  0
 31 84  1  0  0  0  0
 32 33  1  0  0  0  0
 32 85  1  0  0  0  0
 32 86  1  0  0  0  0
 33 34  1  0  0  0  0
 33 87  1  0  0  0  0
 33 88  1  0  0  0  0
 34 35  1  0  0  0  0
 34 89  1  0  0  0  0
 34 90  1  0  0  0  0
 35 36  1  0  0  0  0
 35 91  1  0  0  0  0
 35 92  1  0  0  0  0
 36 37  1  0  0  0  0
 36 93  1  0  0  0  0
 36 94  1  0  0  0  0
 37 38  1  0  0  0  0
 37 95  1  0  0  0  0
 37 96  1  0  0  0  0
 38 39  1  0  0  0  0
 38 97  1  0  0  0  0
 38 98  1  0  0  0  0
 39 40  1  0  0  0  0
 39 99  1  0  0  0  0
 39100  1  0  0  0  0
 40 41  1  0  0  0  0
 40101  1  0  0  0  0
 40102  1  0  0  0  0
 41 42  1  0  0  0  0
 41103  1  0  0  0  0
 41104  1  0  0  0  0
 42 43  1  0  0  0  0
 42105  1  0  0  0  0
 42106  1  0  0  0  0
 43107  1  0  0  0  0
 43108  1  0  0  0  0
 43109  1  0  0  0  0
 44 45  1  0  0  0  0
 44110  1  0  0  0  0
 44111  1  0  0  0  0
 45 46  1  0  0  0  0
 45112  1  0  0  0  0
 45113  1  0  0  0  0
 46 47  1  0  0  0  0
 46114  1  0  0  0  0
 46115  1  0  0  0  0
 47 48  1  0  0  0  0
 47116  1  0  0  0  0
 47117  1  0  0  0  0
 48 49  1  0  0  0  0
 48118  1  1  0  0  0
 50 52  1  0  0  0  0
 50119  1  0  0  0  0
 50120  1  0  0  0  0
 51 58  1  0  0  0  0
 52121  1  1  0  0  0
 53 54  2  0  0  0  0
 53 58  1  0  0  0  0
 54 55  1  0  0  0  0
 54122  1  0  0  0  0
 55 56  2  0  0  0  0
 55123  1  0  0  0  0
 56 57  1  0  0  0  0
 56124  1  0  0  0  0
 57 58  2  0  0  0  0
 57125  1  0  0  0  0
M  END
$$$$
/media/chris/experiments/cd1a-new-docking/inputs/ligands/1xz0_ligand.pdb
 OpenBabel07022319323D

125127  0  0  1  0  0  0  0  0999 V2000
  -40.9734   60.6468   59.6224 N   0  0  0  0  0  0  0  0  0  0  0  0
  -41.2844   59.4730   59.0115 C   0  0  0  0  0  0  0  0  0  0  0  0
  -34.8948   57.7059   62.7003 O   0  0  0  0  0  0  0  0  0  0  0  0
  -39.9417   51.4611   64.9231 Si  0  0  0  0  0  0  0  0  0  0  0  0
  -41.7688   61.7583   59.3103 O   0  0  0  0  0  0  0  0  0  0  0  0
  -39.3487   52.6845   66.0838 O   0  0  0  0  0  0  0  0  0  0  0  0
  -39.9040   60.9321   60.5841 C   0  0  0  0  0  0  0  0  0  0  0  0
  -36.6309   56.1397   65.3564 N   0  0  0  0  0  0  0  0  0  0  0  0
  -34.3393   58.7437   64.6888 O   0  0  0  0  0  0  0  0  0  0  0  0
  -39.1167   59.6292   60.8329 C   0  0  0  0  0  0  0  0  0  0  0  0
  -36.8950   59.8150   64.6310 N   0  0  0  0  0  0  0  0  0  0  0  0
  -34.7681   55.4202   64.2945 O   0  0  0  0  0  0  0  0  0  0  0  0
  -37.9469   59.6864   61.8299 C   0  0  0  0  0  0  0  0  0  0  0  0
  -38.3437   53.5365   65.7371 N   0  0  0  0  0  0  0  0  0  0  0  0
  -36.2434   61.3596   63.0940 O   0  0  0  0  0  0  0  0  0  0  0  0
  -37.6390   58.4030   62.6110 C   0  0  0  0  0  0  0  0  0  0  0  0
  -35.4385   62.8987   65.3983 N   0  0  0  0  0  0  0  0  0  0  0  0
  -42.2241   59.3961   58.2203 O   0  0  0  0  0  0  0  0  0  0  0  0
  -36.7890   58.5530   63.8960 C   0  0  1  0  0  0  0  0  0  0  0  0
  -39.8533   55.1020   65.1578 O   0  0  0  0  0  0  0  0  0  0  0  0
  -35.3080   58.3090   63.6770 C   0  0  0  0  0  0  0  0  0  0  0  0
  -36.0098   62.4075   67.5017 O   0  0  0  0  0  0  0  0  0  0  0  0
  -33.5035   57.7973   65.3813 C   0  0  1  0  0  0  0  0  0  0  0  0
  -33.5375   62.3156   68.9656 O   0  0  0  0  0  0  0  0  0  0  0  0
  -34.4010   56.8108   66.1133 C   0  0  0  0  0  0  0  0  0  0  0  0
  -32.4989   57.0728   64.4939 C   0  0  0  0  0  0  0  0  0  0  0  0
  -35.3047   56.0322   65.1895 C   0  0  0  0  0  0  0  0  0  0  0  0
  -36.6335   61.0669   64.2166 C   0  0  0  0  0  0  0  0  0  0  0  0
  -40.4473   58.2286   59.3257 C   0  0  0  0  0  0  0  0  0  0  0  0
  -40.8769   56.9654   58.5672 C   0  0  0  0  0  0  0  0  0  0  0  0
  -42.3420   56.6223   58.8988 C   0  0  0  0  0  0  0  0  0  0  0  0
  -42.5911   56.3733   60.3985 C   0  0  0  0  0  0  0  0  0  0  0  0
  -42.2749   57.5744   61.3093 C   0  0  0  0  0  0  0  0  0  0  0  0
  -43.1281   58.8175   60.9811 C   0  0  0  0  0  0  0  0  0  0  0  0
  -44.6526   58.6084   61.1356 C   0  0  0  0  0  0  0  0  0  0  0  0
  -45.0753   58.2313   62.5602 C   0  0  0  0  0  0  0  0  0  0  0  0
  -44.7420   59.2670   63.6387 C   0  0  0  0  0  0  0  0  0  0  0  0
  -45.1893   58.7896   65.0324 C   0  0  0  0  0  0  0  0  0  0  0  0
  -44.8979   59.7939   66.1578 C   0  0  0  0  0  0  0  0  0  0  0  0
  -45.3109   59.3538   67.5661 C   0  0  0  0  0  0  0  0  0  0  0  0
  -46.8220   59.0490   67.7197 C   0  0  0  0  0  0  0  0  0  0  0  0
  -47.1701   58.6298   69.1624 C   0  0  0  0  0  0  0  0  0  0  0  0
  -48.6342   58.2811   69.4558 C   0  0  0  0  0  0  0  0  0  0  0  0
  -36.9691   53.1021   66.0262 C   0  0  0  0  0  0  0  0  0  0  0  0
  -36.2028   52.8141   64.7213 C   0  0  0  0  0  0  0  0  0  0  0  0
  -36.9287   53.2016   63.4436 C   0  0  0  0  0  0  0  0  0  0  0  0
  -37.0981   54.7151   63.2869 C   0  0  0  0  0  0  0  0  0  0  0  0
  -37.6340   55.5294   64.4763 C   0  0  1  0  0  0  0  0  0  0  0  0
  -38.6974   54.7014   65.1709 C   0  0  0  0  0  0  0  0  0  0  0  0
  -37.0673   61.8537   66.7197 C   0  0  0  0  0  0  0  0  0  0  0  0
  -35.0598   63.0083   66.5992 C   0  0  0  0  0  0  0  0  0  0  0  0
  -36.7218   62.1879   65.2420 C   0  0  1  0  0  0  0  0  0  0  0  0
  -33.1133   63.3276   68.1990 C   0  0  0  0  0  0  0  0  0  0  0  0
  -31.9424   64.0149   68.5447 C   0  0  0  0  0  0  0  0  0  0  0  0
  -31.4815   65.0867   67.7617 C   0  0  0  0  0  0  0  0  0  0  0  0
  -32.1808   65.4770   66.6184 C   0  0  0  0  0  0  0  0  0  0  0  0
  -33.3460   64.7904   66.2657 C   0  0  0  0  0  0  0  0  0  0  0  0
  -33.8152   63.7216   67.0532 C   0  0  0  0  0  0  0  0  0  0  0  0
  -40.9833   50.7051   65.5231 H   0  0  0  0  0  0  0  0  0  0  0  0
  -38.8758   50.5951   64.5622 H   0  0  0  0  0  0  0  0  0  0  0  0
  -40.4372   52.1112   63.7619 H   0  0  0  0  0  0  0  0  0  0  0  0
  -42.4517   61.4982   58.6724 H   0  0  0  0  0  0  0  0  0  0  0  0
  -40.3272   61.2803   61.5032 H   0  0  0  0  0  0  0  0  0  0  0  0
  -39.2530   61.6885   60.1982 H   0  0  0  0  0  0  0  0  0  0  0  0
  -36.9544   56.6650   66.1236 H   0  0  0  0  0  0  0  0  0  0  0  0
  -38.7205   59.3093   59.8918 H   0  0  0  0  0  0  0  0  0  0  0  0
  -39.8248   58.9638   61.2810 H   0  0  0  0  0  0  0  0  0  0  0  0
  -37.2021   59.7352   65.5630 H   0  0  0  0  0  0  0  0  0  0  0  0
  -37.3952   60.5477   61.9667 H   0  0  0  0  0  0  0  0  0  0  0  0
  -37.9824   57.4826   62.2948 H   0  0  0  0  0  0  0  0  0  0  0  0
  -37.2383   57.7881   64.4943 H   0  0  0  0  0  0  0  0  0  0  0  0
  -32.8989   58.3496   66.0700 H   0  0  0  0  0  0  0  0  0  0  0  0
  -33.0513   62.0696   69.7278 H   0  0  0  0  0  0  0  0  0  0  0  0
  -35.0091   57.3537   66.8063 H   0  0  0  0  0  0  0  0  0  0  0  0
  -33.7641   56.1053   66.6048 H   0  0  0  0  0  0  0  0  0  0  0  0
  -33.0222   56.4884   63.7662 H   0  0  0  0  0  0  0  0  0  0  0  0
  -31.8895   56.4311   65.0954 H   0  0  0  0  0  0  0  0  0  0  0  0
  -31.8796   57.7900   63.9970 H   0  0  0  0  0  0  0  0  0  0  0  0
  -40.5230   58.0308   60.3746 H   0  0  0  0  0  0  0  0  0  0  0  0
  -39.4477   58.4468   59.0126 H   0  0  0  0  0  0  0  0  0  0  0  0
  -40.2482   56.1487   58.8548 H   0  0  0  0  0  0  0  0  0  0  0  0
  -40.7872   57.1405   57.5155 H   0  0  0  0  0  0  0  0  0  0  0  0
  -42.6134   55.7391   58.3593 H   0  0  0  0  0  0  0  0  0  0  0  0
  -42.9344   57.4679   58.6178 H   0  0  0  0  0  0  0  0  0  0  0  0
  -41.9796   55.5510   60.7063 H   0  0  0  0  0  0  0  0  0  0  0  0
  -43.6382   56.1803   60.5040 H   0  0  0  0  0  0  0  0  0  0  0  0
  -41.2421   57.8286   61.1928 H   0  0  0  0  0  0  0  0  0  0  0  0
  -42.5026   57.2845   62.3138 H   0  0  0  0  0  0  0  0  0  0  0  0
  -42.9306   59.1004   59.9683 H   0  0  0  0  0  0  0  0  0  0  0  0
  -42.8514   59.5716   61.6880 H   0  0  0  0  0  0  0  0  0  0  0  0
  -44.9561   57.8248   60.4734 H   0  0  0  0  0  0  0  0  0  0  0  0
  -45.1240   59.5405   60.9031 H   0  0  0  0  0  0  0  0  0  0  0  0
  -44.5855   57.3158   62.8187 H   0  0  0  0  0  0  0  0  0  0  0  0
  -46.1425   58.1568   62.5418 H   0  0  0  0  0  0  0  0  0  0  0  0
  -45.2427   60.1840   63.4075 H   0  0  0  0  0  0  0  0  0  0  0  0
  -43.6814   59.4075   63.6549 H   0  0  0  0  0  0  0  0  0  0  0  0
  -44.6786   57.8762   65.2555 H   0  0  0  0  0  0  0  0  0  0  0  0
  -46.2515   58.6673   64.9927 H   0  0  0  0  0  0  0  0  0  0  0  0
  -45.4181   60.7011   65.9313 H   0  0  0  0  0  0  0  0  0  0  0  0
  -43.8334   59.8987   66.1860 H   0  0  0  0  0  0  0  0  0  0  0  0
  -45.0553   60.1357   68.2503 H   0  0  0  0  0  0  0  0  0  0  0  0
  -44.7915   58.4402   67.7670 H   0  0  0  0  0  0  0  0  0  0  0  0
  -47.0859   58.2544   67.0535 H   0  0  0  0  0  0  0  0  0  0  0  0
  -47.3693   59.9385   67.4872 H   0  0  0  0  0  0  0  0  0  0  0  0
  -46.8960   59.4382   69.8077 H   0  0  0  0  0  0  0  0  0  0  0  0
  -46.6317   57.7192   69.3230 H   0  0  0  0  0  0  0  0  0  0  0  0
  -49.2428   59.1499   69.3157 H   0  0  0  0  0  0  0  0  0  0  0  0
  -48.7243   57.9417   70.4666 H   0  0  0  0  0  0  0  0  0  0  0  0
  -48.9571   57.5083   68.7900 H   0  0  0  0  0  0  0  0  0  0  0  0
  -36.9995   52.2120   66.6193 H   0  0  0  0  0  0  0  0  0  0  0  0
  -36.4655   53.8840   66.5551 H   0  0  0  0  0  0  0  0  0  0  0  0
  -36.0007   51.7641   64.6814 H   0  0  0  0  0  0  0  0  0  0  0  0
  -35.3209   53.4190   64.7561 H   0  0  0  0  0  0  0  0  0  0  0  0
  -37.8982   52.7490   63.4516 H   0  0  0  0  0  0  0  0  0  0  0  0
  -36.3348   52.8594   62.6219 H   0  0  0  0  0  0  0  0  0  0  0  0
  -37.7706   54.8730   62.4697 H   0  0  0  0  0  0  0  0  0  0  0  0
  -36.0986   55.0745   63.1577 H   0  0  0  0  0  0  0  0  0  0  0  0
  -38.0813   56.4219   64.0913 H   0  0  0  0  0  0  0  0  0  0  0  0
  -38.0030   62.2954   66.9925 H   0  0  0  0  0  0  0  0  0  0  0  0
  -37.1597   60.7989   66.8734 H   0  0  0  0  0  0  0  0  0  0  0  0
  -37.5333   62.7285   64.8014 H   0  0  0  0  0  0  0  0  0  0  0  0
  -31.4127   63.7309   69.3836 H   0  0  0  0  0  0  0  0  0  0  0  0
  -30.6213   65.5881   68.0334 H   0  0  0  0  0  0  0  0  0  0  0  0
  -31.8419   66.2623   66.0410 H   0  0  0  0  0  0  0  0  0  0  0  0
  -33.8675   65.0695   65.4200 H   0  0  0  0  0  0  0  0  0  0  0  0
  1  2  1  0  0  0  0
  1  5  1  0  0  0  0
  1  7  1  0  0  0  0
  2 18  2  0  0  0  0
  2 29  1  0  0  0  0
  3 21  2  0  0  0  0
  4  6  1  0  0  0  0
  4 59  1  0  0  0  0
  4 60  1  0  0  0  0
  4 61  1  0  0  0  0
  5 62  1  0  0  0  0
  6 14  1  0  0  0  0
  7 10  1  0  0  0  0
  7 63  1  0  0  0  0
  7 64  1  0  0  0  0
  8 27  1  0  0  0  0
  8 48  1  0  0  0  0
  8 65  1  0  0  0  0
  9 21  1  0  0  0  0
  9 23  1  0  0  0  0
 10 13  1  0  0  0  0
 10 66  1  0  0  0  0
 10 67  1  0  0  0  0
 11 19  1  0  0  0  0
 11 28  1  0  0  0  0
 11 68  1  0  0  0  0
 12 27  2  0  0  0  0
 13 16  2  0  0  0  0
 13 69  1  0  0  0  0
 14 44  1  0  0  0  0
 14 49  1  0  0  0  0
 15 28  2  0  0  0  0
 16 19  1  0  0  0  0
 16 70  1  0  0  0  0
 17 51  2  0  0  0  0
 17 52  1  0  0  0  0
 19 21  1  0  0  0  0
 19 71  1  1  0  0  0
 20 49  2  0  0  0  0
 22 50  1  0  0  0  0
 22 51  1  0  0  0  0
 23 25  1  0  0  0  0
 23 26  1  0  0  0  0
 23 72  1  1  0  0  0
 24 53  1  0  0  0  0
 24 73  1  0  0  0  0
 25 27  1  0  0  0  0
 25 74  1  0  0  0  0
 25 75  1  0  0  0  0
 26 76  1  0  0  0  0
 26 77  1  0  0  0  0
 26 78  1  0  0  0  0
 28 52  1  0  0  0  0
 29 30  1  0  0  0  0
 29 79  1  0  0  0  0
 29 80  1  0  0  0  0
 30 31  1  0  0  0  0
 30 81  1  0  0  0  0
 30 82  1  0  0  0  0
 31 32  1  0  0  0  0
 31 83  1  0  0  0  0
 31 84  1  0  0  0  0
 32 33  1  0  0  0  0
 32 85  1  0  0  0  0
 32 86  1  0  0  0  0
 33 34  1  0  0  0  0
 33 87  1  0  0  0  0
 33 88  1  0  0  0  0
 34 35  1  0  0  0  0
 34 89  1  0  0  0  0
 34 90  1  0  0  0  0
 35 36  1  0  0  0  0
 35 91  1  0  0  0  0
 35 92  1  0  0  0  0
 36 37  1  0  0  0  0
 36 93  1  0  0  0  0
 36 94  1  0  0  0  0
 37 38  1  0  0  0  0
 37 95  1  0  0  0  0
 37 96  1  0  0  0  0
 38 39  1  0  0  0  0
 38 97  1  0  0  0  0
 38 98  1  0  0  0  0
 39 40  1  0  0  0  0
 39 99  1  0  0  0  0
 39100  1  0  0  0  0
 40 41  1  0  0  0  0
 40101  1  0  0  0  0
 40102  1  0  0  0  0
 41 42  1  0  0  0  0
 41103  1  0  0  0  0
 41104  1  0  0  0  0
 42 43  1  0  0  0  0
 42105  1  0  0  0  0
 42106  1  0  0  0  0
 43107  1  0  0  0  0
 43108  1  0  0  0  0
 43109  1  0  0  0  0
 44 45  1  0  0  0  0
 44110  1  0  0  0  0
 44111  1  0  0  0  0
 45 46  1  0  0  0  0
 45112  1  0  0  0  0
 45113  1  0  0  0  0
 46 47  1  0  0  0  0
 46114  1  0  0  0  0
 46115  1  0  0  0  0
 47 48  1  0  0  0  0
 47116  1  0  0  0  0
 47117  1  0  0  0  0
 48 49  1  0  0  0  0
 48118  1  6  0  0  0
 50 52  1  0  0  0  0
 50119  1  0  0  0  0
 50120  1  0  0  0  0
 51 58  1  0  0  0  0
 52121  1  6  0  0  0
 53 54  2  0  0  0  0
 53 58  1  0  0  0  0
 54 55  1  0  0  0  0
 54122  1  0  0  0  0
 55 56  2  0  0  0  0
 55123  1  0  0  0  0
 56 57  1  0  0  0  0
 56124  1  0  0  0  0
 57 58  2  0  0  0  0
 57125  1  0  0  0  0
M  END
$$$$
/media/chris/experiments/cd1a-new-docking/inputs/ligands/1xz0_ligand.pdb
 OpenBabel07022319323D

125127  0  0  1  0  0  0  0  0999 V2000
  -39.2648   60.1319   59.6831 N   0  0  0  0  0  0  0  0  0  0  0  0
  -39.1856   60.5205   58.3829 C   0  0  0  0  0  0  0  0  0  0  0  0
  -34.9015   57.3291   63.0745 O   0  0  0  0  0  0  0  0  0  0  0  0
  -34.9599   60.1340   73.1620 Si  0  0  0  0  0  0  0  0  0  0  0  0
  -38.0680   60.0990   60.4126 O   0  0  0  0  0  0  0  0  0  0  0  0
  -33.2483   59.9043   72.6997 O   0  0  0  0  0  0  0  0  0  0  0  0
  -40.4442   59.7327   60.4573 C   0  0  0  0  0  0  0  0  0  0  0  0
  -32.4416   59.2298   68.3699 N   0  0  0  0  0  0  0  0  0  0  0  0
  -34.3234   59.2293   64.2555 O   0  0  0  0  0  0  0  0  0  0  0  0
  -39.9996   58.7111   61.5241 C   0  0  0  0  0  0  0  0  0  0  0  0
  -36.8950   59.8150   64.6310 N   0  0  0  0  0  0  0  0  0  0  0  0
  -33.1355   57.1136   67.9755 O   0  0  0  0  0  0  0  0  0  0  0  0
  -38.9635   59.1745   62.5621 C   0  0  0  0  0  0  0  0  0  0  0  0
  -32.8715   59.9633   71.3918 N   0  0  0  0  0  0  0  0  0  0  0  0
  -37.6467   59.1566   66.6741 O   0  0  0  0  0  0  0  0  0  0  0  0
  -37.6390   58.4030   62.6110 C   0  0  0  0  0  0  0  0  0  0  0  0
  -37.7584   62.3899   65.2583 N   0  0  0  0  0  0  0  0  0  0  0  0
  -38.1078   60.8284   57.8746 O   0  0  0  0  0  0  0  0  0  0  0  0
  -36.7890   58.5530   63.8960 C   0  0  1  0  0  0  0  0  0  0  0  0
  -32.3436   57.7758   71.4319 O   0  0  0  0  0  0  0  0  0  0  0  0
  -35.3080   58.3090   63.6770 C   0  0  0  0  0  0  0  0  0  0  0  0
  -35.9961   63.3797   66.2103 O   0  0  0  0  0  0  0  0  0  0  0  0
  -33.3633   58.7826   65.2315 C   0  0  1  0  0  0  0  0  0  0  0  0
  -39.5112   64.2371   64.0001 O   0  0  0  0  0  0  0  0  0  0  0  0
  -34.0476   58.7333   66.5894 C   0  0  0  0  0  0  0  0  0  0  0  0
  -32.6988   57.4517   64.9021 C   0  0  0  0  0  0  0  0  0  0  0  0
  -33.1285   58.2919   67.7015 C   0  0  0  0  0  0  0  0  0  0  0  0
  -37.2920   60.0330   65.8968 C   0  0  0  0  0  0  0  0  0  0  0  0
  -40.4683   60.5783   57.5466 C   0  0  0  0  0  0  0  0  0  0  0  0
  -40.4586   61.6424   56.4407 C   0  0  0  0  0  0  0  0  0  0  0  0
  -40.2538   63.0408   57.0546 C   0  0  0  0  0  0  0  0  0  0  0  0
  -40.2484   64.1752   56.0124 C   0  0  0  0  0  0  0  0  0  0  0  0
  -39.1573   64.0491   54.9328 C   0  0  0  0  0  0  0  0  0  0  0  0
  -39.2885   62.7602   54.0945 C   0  0  0  0  0  0  0  0  0  0  0  0
  -40.6179   62.6347   53.3144 C   0  0  0  0  0  0  0  0  0  0  0  0
  -41.8580   62.6543   54.2154 C   0  0  0  0  0  0  0  0  0  0  0  0
  -43.1991   62.5155   53.4880 C   0  0  0  0  0  0  0  0  0  0  0  0
  -44.3802   62.5640   54.4744 C   0  0  0  0  0  0  0  0  0  0  0  0
  -45.7555   62.4125   53.8070 C   0  0  0  0  0  0  0  0  0  0  0  0
  -46.9626   62.4716   54.7489 C   0  0  0  0  0  0  0  0  0  0  0  0
  -46.9617   61.3849   55.8529 C   0  0  0  0  0  0  0  0  0  0  0  0
  -45.7250   61.5082   56.7660 C   0  0  0  0  0  0  0  0  0  0  0  0
  -45.5575   62.8188   57.5441 C   0  0  0  0  0  0  0  0  0  0  0  0
  -33.1157   61.2274   70.6818 C   0  0  0  0  0  0  0  0  0  0  0  0
  -31.7866   61.9314   70.3494 C   0  0  0  0  0  0  0  0  0  0  0  0
  -30.5334   61.1225   70.6407 C   0  0  0  0  0  0  0  0  0  0  0  0
  -30.3852   59.9000   69.7310 C   0  0  0  0  0  0  0  0  0  0  0  0
  -31.5926   58.9675   69.5377 C   0  0  1  0  0  0  0  0  0  0  0  0
  -32.3191   58.8591   70.8640 C   0  0  0  0  0  0  0  0  0  0  0  0
  -36.1819   62.1930   66.9809 C   0  0  0  0  0  0  0  0  0  0  0  0
  -36.9992   63.3970   65.1753 C   0  0  0  0  0  0  0  0  0  0  0  0
  -37.4151   61.4760   66.3644 C   0  0  1  0  0  0  0  0  0  0  0  0
  -38.3897   64.8806   63.6536 C   0  0  0  0  0  0  0  0  0  0  0  0
  -38.4553   65.9490   62.7498 C   0  0  0  0  0  0  0  0  0  0  0  0
  -37.2913   66.6345   62.3629 C   0  0  0  0  0  0  0  0  0  0  0  0
  -36.0496   66.2656   62.8834 C   0  0  0  0  0  0  0  0  0  0  0  0
  -35.9798   65.2044   63.7903 C   0  0  0  0  0  0  0  0  0  0  0  0
  -37.1434   64.5100   64.1731 C   0  0  0  0  0  0  0  0  0  0  0  0
  -35.0878   60.0263   74.5721 H   0  0  0  0  0  0  0  0  0  0  0  0
  -35.7566   59.1386   72.5370 H   0  0  0  0  0  0  0  0  0  0  0  0
  -35.3946   61.4196   72.7441 H   0  0  0  0  0  0  0  0  0  0  0  0
  -37.3335   60.3733   59.8414 H   0  0  0  0  0  0  0  0  0  0  0  0
  -41.1688   59.2866   59.8087 H   0  0  0  0  0  0  0  0  0  0  0  0
  -40.8843   60.5879   60.9263 H   0  0  0  0  0  0  0  0  0  0  0  0
  -32.5118   60.1599   68.0549 H   0  0  0  0  0  0  0  0  0  0  0  0
  -39.5837   57.8704   61.0092 H   0  0  0  0  0  0  0  0  0  0  0  0
  -40.8832   58.5080   62.0924 H   0  0  0  0  0  0  0  0  0  0  0  0
  -36.6386   60.6199   64.1253 H   0  0  0  0  0  0  0  0  0  0  0  0
  -39.1508   59.9672   63.1958 H   0  0  0  0  0  0  0  0  0  0  0  0
  -37.3289   57.8116   61.8242 H   0  0  0  0  0  0  0  0  0  0  0  0
  -37.2383   57.7881   64.4943 H   0  0  0  0  0  0  0  0  0  0  0  0
  -32.5584   59.4876   65.2332 H   0  0  0  0  0  0  0  0  0  0  0  0
  -40.3342   64.5028   63.6396 H   0  0  0  0  0  0  0  0  0  0  0  0
  -34.8669   58.0474   66.5327 H   0  0  0  0  0  0  0  0  0  0  0  0
  -34.3709   59.7270   66.8192 H   0  0  0  0  0  0  0  0  0  0  0  0
  -33.4392   56.6794   64.8791 H   0  0  0  0  0  0  0  0  0  0  0  0
  -31.9681   57.2231   65.6495 H   0  0  0  0  0  0  0  0  0  0  0  0
  -32.2226   57.5177   63.9462 H   0  0  0  0  0  0  0  0  0  0  0  0
  -41.2867   60.7863   58.2037 H   0  0  0  0  0  0  0  0  0  0  0  0
  -40.5556   59.6309   57.0570 H   0  0  0  0  0  0  0  0  0  0  0  0
  -41.3920   61.6184   55.9181 H   0  0  0  0  0  0  0  0  0  0  0  0
  -39.6569   61.4363   55.7628 H   0  0  0  0  0  0  0  0  0  0  0  0
  -39.3162   63.0502   57.5702 H   0  0  0  0  0  0  0  0  0  0  0  0
  -41.0798   63.2204   57.7106 H   0  0  0  0  0  0  0  0  0  0  0  0
  -40.1022   65.1013   56.5280 H   0  0  0  0  0  0  0  0  0  0  0  0
  -41.1874   64.1225   55.5020 H   0  0  0  0  0  0  0  0  0  0  0  0
  -38.2008   64.0486   55.4124 H   0  0  0  0  0  0  0  0  0  0  0  0
  -39.2677   64.8786   54.2660 H   0  0  0  0  0  0  0  0  0  0  0  0
  -39.2084   61.9224   54.7552 H   0  0  0  0  0  0  0  0  0  0  0  0
  -38.5084   62.7925   53.3629 H   0  0  0  0  0  0  0  0  0  0  0  0
  -40.6071   61.7121   52.7725 H   0  0  0  0  0  0  0  0  0  0  0  0
  -40.6850   63.4839   52.6669 H   0  0  0  0  0  0  0  0  0  0  0  0
  -41.8653   63.5826   54.7474 H   0  0  0  0  0  0  0  0  0  0  0  0
  -41.7759   61.7966   54.8499 H   0  0  0  0  0  0  0  0  0  0  0  0
  -43.2180   61.5806   52.9677 H   0  0  0  0  0  0  0  0  0  0  0  0
  -43.2976   63.3324   52.8039 H   0  0  0  0  0  0  0  0  0  0  0  0
  -44.3549   63.5044   54.9842 H   0  0  0  0  0  0  0  0  0  0  0  0
  -44.2642   61.7332   55.1387 H   0  0  0  0  0  0  0  0  0  0  0  0
  -45.7754   61.4670   53.3064 H   0  0  0  0  0  0  0  0  0  0  0  0
  -45.8556   63.2530   53.1524 H   0  0  0  0  0  0  0  0  0  0  0  0
  -47.8506   62.3543   54.1636 H   0  0  0  0  0  0  0  0  0  0  0  0
  -46.9163   63.4167   55.2483 H   0  0  0  0  0  0  0  0  0  0  0  0
  -46.9579   60.4198   55.3909 H   0  0  0  0  0  0  0  0  0  0  0  0
  -47.8372   61.5161   56.4539 H   0  0  0  0  0  0  0  0  0  0  0  0
  -44.8576   61.3851   56.1518 H   0  0  0  0  0  0  0  0  0  0  0  0
  -45.8595   60.7569   57.5160 H   0  0  0  0  0  0  0  0  0  0  0  0
  -45.4168   63.6264   56.8564 H   0  0  0  0  0  0  0  0  0  0  0  0
  -44.7055   62.7455   58.1872 H   0  0  0  0  0  0  0  0  0  0  0  0
  -46.4333   62.9993   58.1317 H   0  0  0  0  0  0  0  0  0  0  0  0
  -33.7078   61.8689   71.3005 H   0  0  0  0  0  0  0  0  0  0  0  0
  -33.6300   61.0146   69.7679 H   0  0  0  0  0  0  0  0  0  0  0  0
  -31.7382   62.8340   70.9221 H   0  0  0  0  0  0  0  0  0  0  0  0
  -31.7944   62.0950   69.2920 H   0  0  0  0  0  0  0  0  0  0  0  0
  -30.5714   60.7889   71.6566 H   0  0  0  0  0  0  0  0  0  0  0  0
  -29.6925   61.7592   70.4604 H   0  0  0  0  0  0  0  0  0  0  0  0
  -29.5901   59.3057   70.1306 H   0  0  0  0  0  0  0  0  0  0  0  0
  -30.2249   60.3192   68.7597 H   0  0  0  0  0  0  0  0  0  0  0  0
  -31.2238   58.0020   69.2606 H   0  0  0  0  0  0  0  0  0  0  0  0
  -36.3679   62.4394   68.0054 H   0  0  0  0  0  0  0  0  0  0  0  0
  -35.3126   61.5695   66.9592 H   0  0  0  0  0  0  0  0  0  0  0  0
  -38.1531   61.3234   67.1239 H   0  0  0  0  0  0  0  0  0  0  0  0
  -39.3684   66.2358   62.3638 H   0  0  0  0  0  0  0  0  0  0  0  0
  -37.3547   67.4147   61.6905 H   0  0  0  0  0  0  0  0  0  0  0  0
  -35.1943   66.7699   62.6021 H   0  0  0  0  0  0  0  0  0  0  0  0
  -35.0667   64.9271   64.1831 H   0  0  0  0  0  0  0  0  0  0  0  0
  1  2  1  0  0  0  0
  1  5  1  0  0  0  0
  1  7  1  0  0  0  0
  2 18  2  0  0  0  0
  2 29  1  0  0  0  0
  3 21  2  0  0  0  0
  4  6  1  0  0  0  0
  4 59  1  0  0  0  0
  4 60  1  0  0  0  0
  4 61  1  0  0  0  0
  5 62  1  0  0  0  0
  6 14  1  0  0  0  0
  7 10  1  0  0  0  0
  7 63  1  0  0  0  0
  7 64  1  0  0  0  0
  8 27  1  0  0  0  0
  8 48  1  0  0  0  0
  8 65  1  0  0  0  0
  9 21  1  0  0  0  0
  9 23  1  0  0  0  0
 10 13  1  0  0  0  0
 10 66  1  0  0  0  0
 10 67  1  0  0  0  0
 11 19  1  0  0  0  0
 11 28  1  0  0  0  0
 11 68  1  0  0  0  0
 12 27  2  0  0  0  0
 13 16  2  0  0  0  0
 13 69  1  0  0  0  0
 14 44  1  0  0  0  0
 14 49  1  0  0  0  0
 15 28  2  0  0  0  0
 16 19  1  0  0  0  0
 16 70  1  0  0  0  0
 17 51  2  0  0  0  0
 17 52  1  0  0  0  0
 19 21  1  0  0  0  0
 19 71  1  1  0  0  0
 20 49  2  0  0  0  0
 22 50  1  0  0  0  0
 22 51  1  0  0  0  0
 23 25  1  0  0  0  0
 23 26  1  0  0  0  0
 23 72  1  1  0  0  0
 24 53  1  0  0  0  0
 24 73  1  0  0  0  0
 25 27  1  0  0  0  0
 25 74  1  0  0  0  0
 25 75  1  0  0  0  0
 26 76  1  0  0  0  0
 26 77  1  0  0  0  0
 26 78  1  0  0  0  0
 28 52  1  0  0  0  0
 29 30  1  0  0  0  0
 29 79  1  0  0  0  0
 29 80  1  0  0  0  0
 30 31  1  0  0  0  0
 30 81  1  0  0  0  0
 30 82  1  0  0  0  0
 31 32  1  0  0  0  0
 31 83  1  0  0  0  0
 31 84  1  0  0  0  0
 32 33  1  0  0  0  0
 32 85  1  0  0  0  0
 32 86  1  0  0  0  0
 33 34  1  0  0  0  0
 33 87  1  0  0  0  0
 33 88  1  0  0  0  0
 34 35  1  0  0  0  0
 34 89  1  0  0  0  0
 34 90  1  0  0  0  0
 35 36  1  0  0  0  0
 35 91  1  0  0  0  0
 35 92  1  0  0  0  0
 36 37  1  0  0  0  0
 36 93  1  0  0  0  0
 36 94  1  0  0  0  0
 37 38  1  0  0  0  0
 37 95  1  0  0  0  0
 37 96  1  0  0  0  0
 38 39  1  0  0  0  0
 38 97  1  0  0  0  0
 38 98  1  0  0  0  0
 39 40  1  0  0  0  0
 39 99  1  0  0  0  0
 39100  1  0  0  0  0
 40 41  1  0  0  0  0
 40101  1  0  0  0  0
 40102  1  0  0  0  0
 41 42  1  0  0  0  0
 41103  1  0  0  0  0
 41104  1  0  0  0  0
 42 43  1  0  0  0  0
 42105  1  0  0  0  0
 42106  1  0  0  0  0
 43107  1  0  0  0  0
 43108  1  0  0  0  0
 43109  1  0  0  0  0
 44 45  1  0  0  0  0
 44110  1  0  0  0  0
 44111  1  0  0  0  0
 45 46  1  0  0  0  0
 45112  1  0  0  0  0
 45113  1  0  0  0  0
 46 47  1  0  0  0  0
 46114  1  0  0  0  0
 46115  1  0  0  0  0
 47 48  1  0  0  0  0
 47116  1  0  0  0  0
 47117  1  0  0  0  0
 48 49  1  0  0  0  0
 48118  1  6  0  0  0
 50 52  1  0  0  0  0
 50119  1  0  0  0  0
 50120  1  0  0  0  0
 51 58  1  0  0  0  0
 52121  1  1  0  0  0
 53 54  2  0  0  0  0
 53 58  1  0  0  0  0
 54 55  1  0  0  0  0
 54122  1  0  0  0  0
 55 56  2  0  0  0  0
 55123  1  0  0  0  0
 56 57  1  0  0  0  0
 56124  1  0  0  0  0
 57 58  2  0  0  0  0
 57125  1  0  0  0  0
M  END
$$$$
/media/chris/experiments/cd1a-new-docking/inputs/ligands/1xz0_ligand.pdb
 OpenBabel07022319323D

125127  0  0  1  0  0  0  0  0999 V2000
  -37.6214   56.7442   58.0079 N   0  0  0  0  0  0  0  0  0  0  0  0
  -38.2796   55.7686   57.3277 C   0  0  0  0  0  0  0  0  0  0  0  0
  -34.7303   58.7191   62.6838 O   0  0  0  0  0  0  0  0  0  0  0  0
  -32.2770   58.8624   71.8687 Si  0  0  0  0  0  0  0  0  0  0  0  0
  -37.5404   58.0035   57.3972 O   0  0  0  0  0  0  0  0  0  0  0  0
  -31.7227   59.3963   70.2551 O   0  0  0  0  0  0  0  0  0  0  0  0
  -36.9674   56.6757   59.3184 C   0  0  0  0  0  0  0  0  0  0  0  0
  -31.4263   56.2634   67.1008 N   0  0  0  0  0  0  0  0  0  0  0  0
  -34.5507   57.5039   64.6410 O   0  0  0  0  0  0  0  0  0  0  0  0
  -38.0028   57.0570   60.3963 C   0  0  0  0  0  0  0  0  0  0  0  0
  -36.8950   59.8150   64.6310 N   0  0  0  0  0  0  0  0  0  0  0  0
  -33.1376   57.7377   66.9861 O   0  0  0  0  0  0  0  0  0  0  0  0
  -37.5311   57.0701   61.8602 C   0  0  0  0  0  0  0  0  0  0  0  0
  -31.3411   58.4838   69.3183 N   0  0  0  0  0  0  0  0  0  0  0  0
  -34.7636   60.6081   64.5976 O   0  0  0  0  0  0  0  0  0  0  0  0
  -37.6390   58.4030   62.6110 C   0  0  0  0  0  0  0  0  0  0  0  0
  -36.1032   61.5987   67.2398 N   0  0  0  0  0  0  0  0  0  0  0  0
  -38.7801   55.9877   56.2248 O   0  0  0  0  0  0  0  0  0  0  0  0
  -36.7890   58.5530   63.8960 C   0  0  1  0  0  0  0  0  0  0  0  0
  -32.9424   57.0691   70.0251 O   0  0  0  0  0  0  0  0  0  0  0  0
  -35.3080   58.3090   63.6770 C   0  0  0  0  0  0  0  0  0  0  0  0
  -38.1978   62.3745   67.1849 O   0  0  0  0  0  0  0  0  0  0  0  0
  -33.4468   56.6783   64.2242 C   0  0  1  0  0  0  0  0  0  0  0  0
  -34.8124   62.0903   69.7216 O   0  0  0  0  0  0  0  0  0  0  0  0
  -32.1956   57.1481   64.9511 C   0  0  0  0  0  0  0  0  0  0  0  0
  -33.6666   55.1831   64.4183 C   0  0  0  0  0  0  0  0  0  0  0  0
  -32.3055   57.0407   66.4520 C   0  0  0  0  0  0  0  0  0  0  0  0
  -35.9390   60.7142   64.9223 C   0  0  0  0  0  0  0  0  0  0  0  0
  -38.3997   54.3769   57.9577 C   0  0  0  0  0  0  0  0  0  0  0  0
  -37.7695   53.2482   57.1304 C   0  0  0  0  0  0  0  0  0  0  0  0
  -37.9630   51.8972   57.8457 C   0  0  0  0  0  0  0  0  0  0  0  0
  -39.4415   51.5166   58.0517 C   0  0  0  0  0  0  0  0  0  0  0  0
  -39.6637   50.1779   58.7801 C   0  0  0  0  0  0  0  0  0  0  0  0
  -41.1569   49.8274   58.9496 C   0  0  0  0  0  0  0  0  0  0  0  0
  -41.9354   49.6768   57.6219 C   0  0  0  0  0  0  0  0  0  0  0  0
  -43.4193   49.3457   57.8192 C   0  0  0  0  0  0  0  0  0  0  0  0
  -44.2287   49.1702   56.5305 C   0  0  0  0  0  0  0  0  0  0  0  0
  -43.6777   48.0149   55.6748 C   0  0  0  0  0  0  0  0  0  0  0  0
  -44.4378   47.7984   54.3575 C   0  0  0  0  0  0  0  0  0  0  0  0
  -44.4357   48.9826   53.3853 C   0  0  0  0  0  0  0  0  0  0  0  0
  -45.2262   48.7327   52.0767 C   0  0  0  0  0  0  0  0  0  0  0  0
  -45.1680   49.9558   51.1391 C   0  0  0  0  0  0  0  0  0  0  0  0
  -45.7175   51.2804   51.6819 C   0  0  0  0  0  0  0  0  0  0  0  0
  -30.3116   58.9037   68.3561 C   0  0  0  0  0  0  0  0  0  0  0  0
  -28.9970   58.1373   68.5952 C   0  0  0  0  0  0  0  0  0  0  0  0
  -29.0785   57.0111   69.6125 C   0  0  0  0  0  0  0  0  0  0  0  0
  -29.9493   55.8425   69.1433 C   0  0  0  0  0  0  0  0  0  0  0  0
  -31.3408   56.1406   68.5605 C   0  0  1  0  0  0  0  0  0  0  0  0
  -31.9451   57.2851   69.3502 C   0  0  0  0  0  0  0  0  0  0  0  0
  -37.7828   62.4076   65.8199 C   0  0  0  0  0  0  0  0  0  0  0  0
  -37.1060   61.8506   67.9668 C   0  0  0  0  0  0  0  0  0  0  0  0
  -36.3172   61.8913   65.8097 C   0  0  1  0  0  0  0  0  0  0  0  0
  -36.0115   61.8341   70.2586 C   0  0  0  0  0  0  0  0  0  0  0  0
  -36.1349   61.7045   71.6481 C   0  0  0  0  0  0  0  0  0  0  0  0
  -37.3807   61.4264   72.2354 C   0  0  0  0  0  0  0  0  0  0  0  0
  -38.5193   61.2847   71.4404 C   0  0  0  0  0  0  0  0  0  0  0  0
  -38.4026   61.4193   70.0541 C   0  0  0  0  0  0  0  0  0  0  0  0
  -37.1540   61.6894   69.4620 C   0  0  0  0  0  0  0  0  0  0  0  0
  -32.6145   59.9972   72.6526 H   0  0  0  0  0  0  0  0  0  0  0  0
  -31.2385   58.1363   72.5095 H   0  0  0  0  0  0  0  0  0  0  0  0
  -33.4182   58.0296   71.7255 H   0  0  0  0  0  0  0  0  0  0  0  0
  -37.9914   57.9762   56.5388 H   0  0  0  0  0  0  0  0  0  0  0  0
  -36.1450   57.3596   59.3486 H   0  0  0  0  0  0  0  0  0  0  0  0
  -36.5979   55.6872   59.4951 H   0  0  0  0  0  0  0  0  0  0  0  0
  -30.7936   55.7380   66.5596 H   0  0  0  0  0  0  0  0  0  0  0  0
  -38.8107   56.3590   60.3260 H   0  0  0  0  0  0  0  0  0  0  0  0
  -38.2572   58.0741   60.1826 H   0  0  0  0  0  0  0  0  0  0  0  0
  -37.7963   60.0370   64.9592 H   0  0  0  0  0  0  0  0  0  0  0  0
  -37.1595   56.2219   62.3158 H   0  0  0  0  0  0  0  0  0  0  0  0
  -38.2496   59.1642   62.2753 H   0  0  0  0  0  0  0  0  0  0  0  0
  -37.2383   57.7881   64.4943 H   0  0  0  0  0  0  0  0  0  0  0  0
  -33.3422   56.7957   63.1658 H   0  0  0  0  0  0  0  0  0  0  0  0
  -34.0617   62.1832   70.2745 H   0  0  0  0  0  0  0  0  0  0  0  0
  -32.0177   58.1717   64.6953 H   0  0  0  0  0  0  0  0  0  0  0  0
  -31.3917   56.5120   64.6444 H   0  0  0  0  0  0  0  0  0  0  0  0
  -33.7826   54.9720   65.4608 H   0  0  0  0  0  0  0  0  0  0  0  0
  -32.8231   54.6462   64.0374 H   0  0  0  0  0  0  0  0  0  0  0  0
  -34.5485   54.8811   63.8930 H   0  0  0  0  0  0  0  0  0  0  0  0
  -39.4389   54.1568   58.0866 H   0  0  0  0  0  0  0  0  0  0  0  0
  -37.8624   54.4136   58.8822 H   0  0  0  0  0  0  0  0  0  0  0  0
  -36.7235   53.4387   57.0105 H   0  0  0  0  0  0  0  0  0  0  0  0
  -38.2441   53.2087   56.1723 H   0  0  0  0  0  0  0  0  0  0  0  0
  -37.4905   51.9508   58.8042 H   0  0  0  0  0  0  0  0  0  0  0  0
  -37.5289   51.1453   57.2204 H   0  0  0  0  0  0  0  0  0  0  0  0
  -39.9072   51.4547   57.0903 H   0  0  0  0  0  0  0  0  0  0  0  0
  -39.8658   52.2752   58.6756 H   0  0  0  0  0  0  0  0  0  0  0  0
  -39.2148   50.2380   59.7495 H   0  0  0  0  0  0  0  0  0  0  0  0
  -39.2192   49.4095   58.1826 H   0  0  0  0  0  0  0  0  0  0  0  0
  -41.6194   50.6042   59.5220 H   0  0  0  0  0  0  0  0  0  0  0  0
  -41.1924   48.8735   59.4330 H   0  0  0  0  0  0  0  0  0  0  0  0
  -41.4855   48.8906   57.0525 H   0  0  0  0  0  0  0  0  0  0  0  0
  -41.8869   50.6200   57.1191 H   0  0  0  0  0  0  0  0  0  0  0  0
  -43.8630   50.1399   58.3824 H   0  0  0  0  0  0  0  0  0  0  0  0
  -43.4471   48.3989   58.3169 H   0  0  0  0  0  0  0  0  0  0  0  0
  -44.1819   50.0765   55.9636 H   0  0  0  0  0  0  0  0  0  0  0  0
  -45.2395   48.9405   56.7960 H   0  0  0  0  0  0  0  0  0  0  0  0
  -43.7347   47.1137   56.2487 H   0  0  0  0  0  0  0  0  0  0  0  0
  -42.6726   48.2734   55.4144 H   0  0  0  0  0  0  0  0  0  0  0  0
  -45.4556   47.5732   54.5987 H   0  0  0  0  0  0  0  0  0  0  0  0
  -43.9254   47.0063   53.8525 H   0  0  0  0  0  0  0  0  0  0  0  0
  -43.4209   49.2029   53.1272 H   0  0  0  0  0  0  0  0  0  0  0  0
  -44.9216   49.7930   53.8875 H   0  0  0  0  0  0  0  0  0  0  0  0
  -46.2480   48.5302   52.3210 H   0  0  0  0  0  0  0  0  0  0  0  0
  -44.7834   47.9004   51.5707 H   0  0  0  0  0  0  0  0  0  0  0  0
  -45.7247   49.7130   50.2582 H   0  0  0  0  0  0  0  0  0  0  0  0
  -44.1248   50.1334   50.9812 H   0  0  0  0  0  0  0  0  0  0  0  0
  -46.7669   51.1822   51.8668 H   0  0  0  0  0  0  0  0  0  0  0  0
  -45.5530   52.0560   50.9633 H   0  0  0  0  0  0  0  0  0  0  0  0
  -45.2162   51.5274   52.5943 H   0  0  0  0  0  0  0  0  0  0  0  0
  -30.1322   59.9525   68.4692 H   0  0  0  0  0  0  0  0  0  0  0  0
  -30.6586   58.6907   67.3666 H   0  0  0  0  0  0  0  0  0  0  0  0
  -28.2631   58.8376   68.9353 H   0  0  0  0  0  0  0  0  0  0  0  0
  -28.7491   57.6761   67.6621 H   0  0  0  0  0  0  0  0  0  0  0  0
  -29.4906   57.4005   70.5199 H   0  0  0  0  0  0  0  0  0  0  0  0
  -28.0868   56.6347   69.7532 H   0  0  0  0  0  0  0  0  0  0  0  0
  -30.0930   55.1996   69.9864 H   0  0  0  0  0  0  0  0  0  0  0  0
  -29.4065   55.4316   68.3178 H   0  0  0  0  0  0  0  0  0  0  0  0
  -31.9470   55.2682   68.6889 H   0  0  0  0  0  0  0  0  0  0  0  0
  -37.8283   63.4072   65.4409 H   0  0  0  0  0  0  0  0  0  0  0  0
  -38.4162   61.8067   65.2013 H   0  0  0  0  0  0  0  0  0  0  0  0
  -35.6851   62.6269   65.3578 H   0  0  0  0  0  0  0  0  0  0  0  0
  -35.3016   61.8145   72.2469 H   0  0  0  0  0  0  0  0  0  0  0  0
  -37.4543   61.3264   73.2599 H   0  0  0  0  0  0  0  0  0  0  0  0
  -39.4354   61.0830   71.8706 H   0  0  0  0  0  0  0  0  0  0  0  0
  -39.2397   61.3200   69.4587 H   0  0  0  0  0  0  0  0  0  0  0  0
  1  2  1  0  0  0  0
  1  5  1  0  0  0  0
  1  7  1  0  0  0  0
  2 18  2  0  0  0  0
  2 29  1  0  0  0  0
  3 21  2  0  0  0  0
  4  6  1  0  0  0  0
  4 59  1  0  0  0  0
  4 60  1  0  0  0  0
  4 61  1  0  0  0  0
  5 62  1  0  0  0  0
  6 14  1  0  0  0  0
  7 10  1  0  0  0  0
  7 63  1  0  0  0  0
  7 64  1  0  0  0  0
  8 27  1  0  0  0  0
  8 48  1  0  0  0  0
  8 65  1  0  0  0  0
  9 21  1  0  0  0  0
  9 23  1  0  0  0  0
 10 13  1  0  0  0  0
 10 66  1  0  0  0  0
 10 67  1  0  0  0  0
 11 19  1  0  0  0  0
 11 28  1  0  0  0  0
 11 68  1  0  0  0  0
 12 27  2  0  0  0  0
 13 16  2  0  0  0  0
 13 69  1  0  0  0  0
 14 44  1  0  0  0  0
 14 49  1  0  0  0  0
 15 28  2  0  0  0  0
 16 19  1  0  0  0  0
 16 70  1  0  0  0  0
 17 51  2  0  0  0  0
 17 52  1  0  0  0  0
 19 21  1  0  0  0  0
 19 71  1  1  0  0  0
 20 49  2  0  0  0  0
 22 50  1  0  0  0  0
 22 51  1  0  0  0  0
 23 25  1  0  0  0  0
 23 26  1  0  0  0  0
 23 72  1  6  0  0  0
 24 53  1  0  0  0  0
 24 73  1  0  0  0  0
 25 27  1  0  0  0  0
 25 74  1  0  0  0  0
 25 75  1  0  0  0  0
 26 76  1  0  0  0  0
 26 77  1  0  0  0  0
 26 78  1  0  0  0  0
 28 52  1  0  0  0  0
 29 30  1  0  0  0  0
 29 79  1  0  0  0  0
 29 80  1  0  0  0  0
 30 31  1  0  0  0  0
 30 81  1  0  0  0  0
 30 82  1  0  0  0  0
 31 32  1  0  0  0  0
 31 83  1  0  0  0  0
 31 84  1  0  0  0  0
 32 33  1  0  0  0  0
 32 85  1  0  0  0  0
 32 86  1  0  0  0  0
 33 34  1  0  0  0  0
 33 87  1  0  0  0  0
 33 88  1  0  0  0  0
 34 35  1  0  0  0  0
 34 89  1  0  0  0  0
 34 90  1  0  0  0  0
 35 36  1  0  0  0  0
 35 91  1  0  0  0  0
 35 92  1  0  0  0  0
 36 37  1  0  0  0  0
 36 93  1  0  0  0  0
 36 94  1  0  0  0  0
 37 38  1  0  0  0  0
 37 95  1  0  0  0  0
 37 96  1  0  0  0  0
 38 39  1  0  0  0  0
 38 97  1  0  0  0  0
 38 98  1  0  0  0  0
 39 40  1  0  0  0  0
 39 99  1  0  0  0  0
 39100  1  0  0  0  0
 40 41  1  0  0  0  0
 40101  1  0  0  0  0
 40102  1  0  0  0  0
 41 42  1  0  0  0  0
 41103  1  0  0  0  0
 41104  1  0  0  0  0
 42 43  1  0  0  0  0
 42105  1  0  0  0  0
 42106  1  0  0  0  0
 43107  1  0  0  0  0
 43108  1  0  0  0  0
 43109  1  0  0  0  0
 44 45  1  0  0  0  0
 44110  1  0  0  0  0
 44111  1  0  0  0  0
 45 46  1  0  0  0  0
 45112  1  0  0  0  0
 45113  1  0  0  0  0
 46 47  1  0  0  0  0
 46114  1  0  0  0  0
 46115  1  0  0  0  0
 47 48  1  0  0  0  0
 47116  1  0  0  0  0
 47117  1  0  0  0  0
 48 49  1  0  0  0  0
 48118  1  1  0  0  0
 50 52  1  0  0  0  0
 50119  1  0  0  0  0
 50120  1  0  0  0  0
 51 58  1  0  0  0  0
 52121  1  6  0  0  0
 53 54  2  0  0  0  0
 53 58  1  0  0  0  0
 54 55  1  0  0  0  0
 54122  1  0  0  0  0
 55 56  2  0  0  0  0
 55123  1  0  0  0  0
 56 57  1  0  0  0  0
 56124  1  0  0  0  0
 57 58  2  0  0  0  0
 57125  1  0  0  0  0
M  END
$$$$
/media/chris/experiments/cd1a-new-docking/inputs/ligands/1xz0_ligand.pdb
 OpenBabel07022319323D

125127  0  0  1  0  0  0  0  0999 V2000
  -39.5416   57.5022   58.6965 N   0  0  0  0  0  0  0  0  0  0  0  0
  -38.8020   57.5143   57.5561 C   0  0  0  0  0  0  0  0  0  0  0  0
  -34.4677   58.7167   64.4620 O   0  0  0  0  0  0  0  0  0  0  0  0
  -32.5268   54.8638   68.6823 Si  0  0  0  0  0  0  0  0  0  0  0  0
  -40.8456   56.9954   58.6053 O   0  0  0  0  0  0  0  0  0  0  0  0
  -33.1471   53.2351   68.2842 O   0  0  0  0  0  0  0  0  0  0  0  0
  -39.1706   57.9501   60.0425 C   0  0  0  0  0  0  0  0  0  0  0  0
  -34.4399   53.2251   64.0202 N   0  0  0  0  0  0  0  0  0  0  0  0
  -34.8529   57.6257   62.4617 O   0  0  0  0  0  0  0  0  0  0  0  0
  -38.5576   56.7536   60.7988 C   0  0  0  0  0  0  0  0  0  0  0  0
  -36.8950   59.8150   64.6310 N   0  0  0  0  0  0  0  0  0  0  0  0
  -33.7482   53.5290   61.8884 O   0  0  0  0  0  0  0  0  0  0  0  0
  -38.1064   56.9875   62.2504 C   0  0  0  0  0  0  0  0  0  0  0  0
  -33.6735   52.9773   67.0543 N   0  0  0  0  0  0  0  0  0  0  0  0
  -38.5876   59.4141   66.0963 O   0  0  0  0  0  0  0  0  0  0  0  0
  -37.6390   58.4030   62.6110 C   0  0  0  0  0  0  0  0  0  0  0  0
  -38.6382   62.4583   65.3984 N   0  0  0  0  0  0  0  0  0  0  0  0
  -39.2627   57.0974   56.4937 O   0  0  0  0  0  0  0  0  0  0  0  0
  -36.7890   58.5530   63.8960 C   0  0  1  0  0  0  0  0  0  0  0  0
  -34.1629   55.1584   66.7924 O   0  0  0  0  0  0  0  0  0  0  0  0
  -35.3080   58.3090   63.6770 C   0  0  0  0  0  0  0  0  0  0  0  0
  -36.7170   63.5949   65.3031 O   0  0  0  0  0  0  0  0  0  0  0  0
  -34.0764   56.4147   62.5292 C   0  0  1  0  0  0  0  0  0  0  0  0
  -40.9376   63.4491   64.3086 O   0  0  0  0  0  0  0  0  0  0  0  0
  -35.0244   55.2504   62.7742 C   0  0  0  0  0  0  0  0  0  0  0  0
  -33.1953   56.1597   61.3125 C   0  0  0  0  0  0  0  0  0  0  0  0
  -34.3175   53.9218   62.8809 C   0  0  0  0  0  0  0  0  0  0  0  0
  -37.7336   60.1539   65.6256 C   0  0  0  0  0  0  0  0  0  0  0  0
  -37.3685   58.0532   57.6074 C   0  0  0  0  0  0  0  0  0  0  0  0
  -37.2444   59.5572   57.3281 C   0  0  0  0  0  0  0  0  0  0  0  0
  -35.7655   59.9856   57.3876 C   0  0  0  0  0  0  0  0  0  0  0  0
  -34.8766   59.2726   56.3509 C   0  0  0  0  0  0  0  0  0  0  0  0
  -33.3894   59.6700   56.3999 C   0  0  0  0  0  0  0  0  0  0  0  0
  -32.5394   58.9461   55.3347 C   0  0  0  0  0  0  0  0  0  0  0  0
  -32.5576   57.4033   55.4389 C   0  0  0  0  0  0  0  0  0  0  0  0
  -31.6920   56.7101   54.3803 C   0  0  0  0  0  0  0  0  0  0  0  0
  -31.6921   55.1791   54.4334 C   0  0  0  0  0  0  0  0  0  0  0  0
  -31.1868   54.6648   55.7938 C   0  0  0  0  0  0  0  0  0  0  0  0
  -31.1466   53.1332   55.9046 C   0  0  0  0  0  0  0  0  0  0  0  0
  -30.2356   52.4170   54.9022 C   0  0  0  0  0  0  0  0  0  0  0  0
  -30.2348   50.8735   55.0335 C   0  0  0  0  0  0  0  0  0  0  0  0
  -31.6411   50.2856   54.7993 C   0  0  0  0  0  0  0  0  0  0  0  0
  -32.7615   50.7578   55.7337 C   0  0  0  0  0  0  0  0  0  0  0  0
  -33.5305   51.6076   66.5394 C   0  0  0  0  0  0  0  0  0  0  0  0
  -34.8988   50.9027   66.4783 C   0  0  0  0  0  0  0  0  0  0  0  0
  -36.0986   51.7886   66.7707 C   0  0  0  0  0  0  0  0  0  0  0  0
  -36.3341   52.8517   65.6945 C   0  0  0  0  0  0  0  0  0  0  0  0
  -35.1444   53.7006   65.2163 C   0  0  1  0  0  0  0  0  0  0  0  0
  -34.2679   53.9988   66.4171 C   0  0  0  0  0  0  0  0  0  0  0  0
  -36.3795   62.4085   66.0208 C   0  0  0  0  0  0  0  0  0  0  0  0
  -38.1139   63.5197   64.9556 C   0  0  0  0  0  0  0  0  0  0  0  0
  -37.6957   61.5896   66.1290 C   0  0  1  0  0  0  0  0  0  0  0  0
  -40.2192   64.5186   63.9456 C   0  0  0  0  0  0  0  0  0  0  0  0
  -40.8456   65.5805   63.2802 C   0  0  0  0  0  0  0  0  0  0  0  0
  -40.1117   66.7100   62.8804 C   0  0  0  0  0  0  0  0  0  0  0  0
  -38.7447   66.7948   63.1503 C   0  0  0  0  0  0  0  0  0  0  0  0
  -38.1164   65.7408   63.8195 C   0  0  0  0  0  0  0  0  0  0  0  0
  -38.8475   64.6038   64.2137 C   0  0  0  0  0  0  0  0  0  0  0  0
  -32.0359   54.8706   70.0148 H   0  0  0  0  0  0  0  0  0  0  0  0
  -33.5759   55.8129   68.5596 H   0  0  0  0  0  0  0  0  0  0  0  0
  -31.4760   55.2015   67.7890 H   0  0  0  0  0  0  0  0  0  0  0  0
  -41.0221   56.7195   57.6923 H   0  0  0  0  0  0  0  0  0  0  0  0
  -40.0397   58.2987   60.5603 H   0  0  0  0  0  0  0  0  0  0  0  0
  -38.4630   58.7505   59.9829 H   0  0  0  0  0  0  0  0  0  0  0  0
  -34.0282   52.3315   64.0566 H   0  0  0  0  0  0  0  0  0  0  0  0
  -37.7013   56.4291   60.2452 H   0  0  0  0  0  0  0  0  0  0  0  0
  -39.3523   56.0407   60.8716 H   0  0  0  0  0  0  0  0  0  0  0  0
  -36.2607   60.5165   64.3574 H   0  0  0  0  0  0  0  0  0  0  0  0
  -38.1176   56.2279   62.9488 H   0  0  0  0  0  0  0  0  0  0  0  0
  -37.8799   59.2173   62.0245 H   0  0  0  0  0  0  0  0  0  0  0  0
  -37.2383   57.7881   64.4943 H   0  0  0  0  0  0  0  0  0  0  0  0
  -33.3853   56.5234   63.3388 H   0  0  0  0  0  0  0  0  0  0  0  0
  -41.8545   63.4142   64.1187 H   0  0  0  0  0  0  0  0  0  0  0  0
  -35.7199   55.2014   61.9626 H   0  0  0  0  0  0  0  0  0  0  0  0
  -35.5113   55.4280   63.7102 H   0  0  0  0  0  0  0  0  0  0  0  0
  -33.8108   56.0374   60.4458 H   0  0  0  0  0  0  0  0  0  0  0  0
  -32.6193   55.2717   61.4691 H   0  0  0  0  0  0  0  0  0  0  0  0
  -32.5372   56.9909   61.1682 H   0  0  0  0  0  0  0  0  0  0  0  0
  -36.7878   57.5286   56.8776 H   0  0  0  0  0  0  0  0  0  0  0  0
  -37.0208   57.8993   58.6075 H   0  0  0  0  0  0  0  0  0  0  0  0
  -37.8003   60.1008   58.0632 H   0  0  0  0  0  0  0  0  0  0  0  0
  -37.6309   59.7657   56.3524 H   0  0  0  0  0  0  0  0  0  0  0  0
  -35.3885   59.7664   58.3647 H   0  0  0  0  0  0  0  0  0  0  0  0
  -35.7319   61.0315   57.1644 H   0  0  0  0  0  0  0  0  0  0  0  0
  -35.2514   59.5025   55.3754 H   0  0  0  0  0  0  0  0  0  0  0  0
  -34.9192   58.2287   56.5818 H   0  0  0  0  0  0  0  0  0  0  0  0
  -33.0028   59.4276   57.3677 H   0  0  0  0  0  0  0  0  0  0  0  0
  -33.3305   60.7193   56.1991 H   0  0  0  0  0  0  0  0  0  0  0  0
  -31.5264   59.2759   55.4349 H   0  0  0  0  0  0  0  0  0  0  0  0
  -32.9676   59.1919   54.3854 H   0  0  0  0  0  0  0  0  0  0  0  0
  -33.5671   57.0677   55.3242 H   0  0  0  0  0  0  0  0  0  0  0  0
  -32.1518   57.1470   56.3953 H   0  0  0  0  0  0  0  0  0  0  0  0
  -30.6837   57.0451   54.5070 H   0  0  0  0  0  0  0  0  0  0  0  0
  -32.1159   56.9730   53.4337 H   0  0  0  0  0  0  0  0  0  0  0  0
  -31.0543   54.8038   53.6606 H   0  0  0  0  0  0  0  0  0  0  0  0
  -32.6965   54.8371   54.2958 H   0  0  0  0  0  0  0  0  0  0  0  0
  -31.8346   55.0410   56.5579 H   0  0  0  0  0  0  0  0  0  0  0  0
  -30.1799   55.0105   55.9020 H   0  0  0  0  0  0  0  0  0  0  0  0
  -32.1422   52.7674   55.7633 H   0  0  0  0  0  0  0  0  0  0  0  0
  -30.7390   52.9217   56.8710 H   0  0  0  0  0  0  0  0  0  0  0  0
  -29.2351   52.7666   55.0491 H   0  0  0  0  0  0  0  0  0  0  0  0
  -30.6151   52.6419   53.9273 H   0  0  0  0  0  0  0  0  0  0  0  0
  -29.9065   50.6084   56.0168 H   0  0  0  0  0  0  0  0  0  0  0  0
  -29.5759   50.4737   54.2913 H   0  0  0  0  0  0  0  0  0  0  0  0
  -31.5664   49.2227   54.8974 H   0  0  0  0  0  0  0  0  0  0  0  0
  -31.9271   50.6320   53.8281 H   0  0  0  0  0  0  0  0  0  0  0  0
  -32.5461   50.4466   56.7346 H   0  0  0  0  0  0  0  0  0  0  0  0
  -33.6912   50.3312   55.4199 H   0  0  0  0  0  0  0  0  0  0  0  0
  -32.8290   51.8251   55.6988 H   0  0  0  0  0  0  0  0  0  0  0  0
  -32.8798   51.0558   67.1852 H   0  0  0  0  0  0  0  0  0  0  0  0
  -33.1226   51.6526   65.5512 H   0  0  0  0  0  0  0  0  0  0  0  0
  -34.8931   50.1070   67.1936 H   0  0  0  0  0  0  0  0  0  0  0  0
  -35.0156   50.5698   65.4681 H   0  0  0  0  0  0  0  0  0  0  0  0
  -35.9387   52.2810   67.7071 H   0  0  0  0  0  0  0  0  0  0  0  0
  -36.9634   51.1588   66.7929 H   0  0  0  0  0  0  0  0  0  0  0  0
  -37.0693   53.5284   66.0771 H   0  0  0  0  0  0  0  0  0  0  0  0
  -36.6115   52.2861   64.8296 H   0  0  0  0  0  0  0  0  0  0  0  0
  -35.5293   54.6200   64.8271 H   0  0  0  0  0  0  0  0  0  0  0  0
  -36.0127   62.6543   66.9955 H   0  0  0  0  0  0  0  0  0  0  0  0
  -35.6105   61.8538   65.5250 H   0  0  0  0  0  0  0  0  0  0  0  0
  -37.9066   61.3912   67.1591 H   0  0  0  0  0  0  0  0  0  0  0  0
  -41.8572   65.5327   63.0816 H   0  0  0  0  0  0  0  0  0  0  0  0
  -40.5857   67.4810   62.3845 H   0  0  0  0  0  0  0  0  0  0  0  0
  -38.2050   67.6250   62.8595 H   0  0  0  0  0  0  0  0  0  0  0  0
  -37.1070   65.7964   64.0267 H   0  0  0  0  0  0  0  0  0  0  0  0
  1  2  1  0  0  0  0
  1  5  1  0  0  0  0
  1  7  1  0  0  0  0
  2 18  2  0  0  0  0
  2 29  1  0  0  0  0
  3 21  2  0  0  0  0
  4  6  1  0  0  0  0
  4 59  1  0  0  0  0
  4 60  1  0  0  0  0
  4 61  1  0  0  0  0
  5 62  1  0  0  0  0
  6 14  1  0  0  0  0
  7 10  1  0  0  0  0
  7 63  1  0  0  0  0
  7 64  1  0  0  0  0
  8 27  1  0  0  0  0
  8 48  1  0  0  0  0
  8 65  1  0  0  0  0
  9 21  1  0  0  0  0
  9 23  1  0  0  0  0
 10 13  1  0  0  0  0
 10 66  1  0  0  0  0
 10 67  1  0  0  0  0
 11 19  1  0  0  0  0
 11 28  1  0  0  0  0
 11 68  1  0  0  0  0
 12 27  2  0  0  0  0
 13 16  2  0  0  0  0
 13 69  1  0  0  0  0
 14 44  1  0  0  0  0
 14 49  1  0  0  0  0
 15 28  2  0  0  0  0
 16 19  1  0  0  0  0
 16 70  1  0  0  0  0
 17 51  2  0  0  0  0
 17 52  1  0  0  0  0
 19 21  1  0  0  0  0
 19 71  1  1  0  0  0
 20 49  2  0  0  0  0
 22 50  1  0  0  0  0
 22 51  1  0  0  0  0
 23 25  1  0  0  0  0
 23 26  1  0  0  0  0
 23 72  1  1  0  0  0
 24 53  1  0  0  0  0
 24 73  1  0  0  0  0
 25 27  1  0  0  0  0
 25 74  1  0  0  0  0
 25 75  1  0  0  0  0
 26 76  1  0  0  0  0
 26 77  1  0  0  0  0
 26 78  1  0  0  0  0
 28 52  1  0  0  0  0
 29 30  1  0  0  0  0
 29 79  1  0  0  0  0
 29 80  1  0  0  0  0
 30 31  1  0  0  0  0
 30 81  1  0  0  0  0
 30 82  1  0  0  0  0
 31 32  1  0  0  0  0
 31 83  1  0  0  0  0
 31 84  1  0  0  0  0
 32 33  1  0  0  0  0
 32 85  1  0  0  0  0
 32 86  1  0  0  0  0
 33 34  1  0  0  0  0
 33 87  1  0  0  0  0
 33 88  1  0  0  0  0
 34 35  1  0  0  0  0
 34 89  1  0  0  0  0
 34 90  1  0  0  0  0
 35 36  1  0  0  0  0
 35 91  1  0  0  0  0
 35 92  1  0  0  0  0
 36 37  1  0  0  0  0
 36 93  1  0  0  0  0
 36 94  1  0  0  0  0
 37 38  1  0  0  0  0
 37 95  1  0  0  0  0
 37 96  1  0  0  0  0
 38 39  1  0  0  0  0
 38 97  1  0  0  0  0
 38 98  1  0  0  0  0
 39 40  1  0  0  0  0
 39 99  1  0  0  0  0
 39100  1  0  0  0  0
 40 41  1  0  0  0  0
 40101  1  0  0  0  0
 40102  1  0  0  0  0
 41 42  1  0  0  0  0
 41103  1  0  0  0  0
 41104  1  0  0  0  0
 42 43  1  0  0  0  0
 42105  1  0  0  0  0
 42106  1  0  0  0  0
 43107  1  0  0  0  0
 43108  1  0  0  0  0
 43109  1  0  0  0  0
 44 45  1  0  0  0  0
 44110  1  0  0  0  0
 44111  1  0  0  0  0
 45 46  1  0  0  0  0
 45112  1  0  0  0  0
 45113  1  0  0  0  0
 46 47  1  0  0  0  0
 46114  1  0  0  0  0
 46115  1  0  0  0  0
 47 48  1  0  0  0  0
 47116  1  0  0  0  0
 47117  1  0  0  0  0
 48 49  1  0  0  0  0
 48118  1  6  0  0  0
 50 52  1  0  0  0  0
 50119  1  0  0  0  0
 50120  1  0  0  0  0
 51 58  1  0  0  0  0
 52121  1  1  0  0  0
 53 54  2  0  0  0  0
 53 58  1  0  0  0  0
 54 55  1  0  0  0  0
 54122  1  0  0  0  0
 55 56  2  0  0  0  0
 55123  1  0  0  0  0
 56 57  1  0  0  0  0
 56124  1  0  0  0  0
 57 58  2  0  0  0  0
 57125  1  0  0  0  0
M  END
$$$$
/media/chris/experiments/cd1a-new-docking/inputs/ligands/1xz0_ligand.pdb
 OpenBabel07022319323D

125127  0  0  1  0  0  0  0  0999 V2000
  -36.3713   58.4855   58.3441 N   0  0  0  0  0  0  0  0  0  0  0  0
  -35.5591   57.6339   57.6639 C   0  0  0  0  0  0  0  0  0  0  0  0
  -34.7303   58.7191   62.6838 O   0  0  0  0  0  0  0  0  0  0  0  0
  -37.8891   56.4440   70.4187 Si  0  0  0  0  0  0  0  0  0  0  0  0
  -35.8627   59.7605   58.6290 O   0  0  0  0  0  0  0  0  0  0  0  0
  -37.6825   56.7395   68.6677 O   0  0  0  0  0  0  0  0  0  0  0  0
  -37.7348   58.2656   58.8364 C   0  0  0  0  0  0  0  0  0  0  0  0
  -34.4785   59.6003   67.4832 N   0  0  0  0  0  0  0  0  0  0  0  0
  -34.5507   57.5039   64.6410 O   0  0  0  0  0  0  0  0  0  0  0  0
  -37.9322   59.1139   60.1095 C   0  0  0  0  0  0  0  0  0  0  0  0
  -36.8950   59.8150   64.6310 N   0  0  0  0  0  0  0  0  0  0  0  0
  -33.2054   57.7467   67.7259 O   0  0  0  0  0  0  0  0  0  0  0  0
  -36.9889   58.8455   61.2943 C   0  0  0  0  0  0  0  0  0  0  0  0
  -36.9303   57.7864   68.2273 N   0  0  0  0  0  0  0  0  0  0  0  0
  -37.9248   61.7067   65.3617 O   0  0  0  0  0  0  0  0  0  0  0  0
  -37.6390   58.4030   62.6110 C   0  0  0  0  0  0  0  0  0  0  0  0
  -39.7804   58.9936   64.6904 N   0  0  0  0  0  0  0  0  0  0  0  0
  -34.4282   57.9733   57.3164 O   0  0  0  0  0  0  0  0  0  0  0  0
  -36.7890   58.5530   63.8960 C   0  0  1  0  0  0  0  0  0  0  0  0
  -35.4959   57.4916   69.9364 O   0  0  0  0  0  0  0  0  0  0  0  0
  -35.3080   58.3090   63.6770 C   0  0  0  0  0  0  0  0  0  0  0  0
  -39.8549   58.5826   62.4955 O   0  0  0  0  0  0  0  0  0  0  0  0
  -33.1344   57.6899   64.8237 C   0  0  1  0  0  0  0  0  0  0  0  0
  -41.7566   57.5636   66.1454 O   0  0  0  0  0  0  0  0  0  0  0  0
  -32.9219   58.8929   65.7303 C   0  0  0  0  0  0  0  0  0  0  0  0
  -32.3987   56.4654   65.3536 C   0  0  0  0  0  0  0  0  0  0  0  0
  -33.5405   58.7236   67.0960 C   0  0  0  0  0  0  0  0  0  0  0  0
  -37.9361   60.6601   64.7271 C   0  0  0  0  0  0  0  0  0  0  0  0
  -36.0734   56.2311   57.3238 C   0  0  0  0  0  0  0  0  0  0  0  0
  -36.1212   55.9184   55.8220 C   0  0  0  0  0  0  0  0  0  0  0  0
  -36.6674   54.4955   55.5955 C   0  0  0  0  0  0  0  0  0  0  0  0
  -36.7332   54.0912   54.1104 C   0  0  0  0  0  0  0  0  0  0  0  0
  -35.3742   54.0877   53.3858 C   0  0  0  0  0  0  0  0  0  0  0  0
  -34.6802   55.4659   53.4052 C   0  0  0  0  0  0  0  0  0  0  0  0
  -33.3191   55.5093   52.6724 C   0  0  0  0  0  0  0  0  0  0  0  0
  -32.6436   56.8846   52.7214 C   0  0  0  0  0  0  0  0  0  0  0  0
  -31.2989   56.9808   51.9937 C   0  0  0  0  0  0  0  0  0  0  0  0
  -31.4493   56.6691   50.4935 C   0  0  0  0  0  0  0  0  0  0  0  0
  -32.3911   57.6281   49.7496 C   0  0  0  0  0  0  0  0  0  0  0  0
  -32.5847   57.3458   48.2561 C   0  0  0  0  0  0  0  0  0  0  0  0
  -33.1909   55.9546   47.9451 C   0  0  0  0  0  0  0  0  0  0  0  0
  -33.3418   55.7305   46.4268 C   0  0  0  0  0  0  0  0  0  0  0  0
  -33.9470   54.3967   45.9730 C   0  0  0  0  0  0  0  0  0  0  0  0
  -37.3139   58.3924   66.9437 C   0  0  0  0  0  0  0  0  0  0  0  0
  -37.8687   59.8136   67.1561 C   0  0  0  0  0  0  0  0  0  0  0  0
  -37.7385   60.3564   68.5697 C   0  0  0  0  0  0  0  0  0  0  0  0
  -36.2859   60.6074   68.9830 C   0  0  0  0  0  0  0  0  0  0  0  0
  -35.2418   59.5065   68.7329 C   0  0  1  0  0  0  0  0  0  0  0  0
  -35.8995   58.1666   68.9993 C   0  0  0  0  0  0  0  0  0  0  0  0
  -39.3094   59.8985   62.5807 C   0  0  0  0  0  0  0  0  0  0  0  0
  -40.0924   58.1141   63.8379 C   0  0  0  0  0  0  0  0  0  0  0  0
  -39.2550   60.2376   64.0962 C   0  0  1  0  0  0  0  0  0  0  0  0
  -41.5028   56.5728   65.2820 C   0  0  0  0  0  0  0  0  0  0  0  0
  -42.0558   55.3043   65.5011 C   0  0  0  0  0  0  0  0  0  0  0  0
  -41.7968   54.2453   64.6148 C   0  0  0  0  0  0  0  0  0  0  0  0
  -40.9896   54.4454   63.4935 C   0  0  0  0  0  0  0  0  0  0  0  0
  -40.4406   55.7106   63.2670 C   0  0  0  0  0  0  0  0  0  0  0  0
  -40.6914   56.7716   64.1583 C   0  0  0  0  0  0  0  0  0  0  0  0
  -38.7106   55.3020   70.6122 H   0  0  0  0  0  0  0  0  0  0  0  0
  -38.5013   57.5750   71.0206 H   0  0  0  0  0  0  0  0  0  0  0  0
  -36.6195   56.2201   71.0139 H   0  0  0  0  0  0  0  0  0  0  0  0
  -34.9622   59.8356   58.2764 H   0  0  0  0  0  0  0  0  0  0  0  0
  -37.8739   57.2299   59.0664 H   0  0  0  0  0  0  0  0  0  0  0  0
  -38.4468   58.5496   58.0899 H   0  0  0  0  0  0  0  0  0  0  0  0
  -34.6683   60.3604   66.8871 H   0  0  0  0  0  0  0  0  0  0  0  0
  -38.9324   58.9496   60.4524 H   0  0  0  0  0  0  0  0  0  0  0  0
  -37.7114   60.1161   59.8066 H   0  0  0  0  0  0  0  0  0  0  0  0
  -36.0875   60.0833   65.1262 H   0  0  0  0  0  0  0  0  0  0  0  0
  -35.9667   58.9578   61.2074 H   0  0  0  0  0  0  0  0  0  0  0  0
  -38.5981   58.0231   62.6390 H   0  0  0  0  0  0  0  0  0  0  0  0
  -37.2383   57.7881   64.4943 H   0  0  0  0  0  0  0  0  0  0  0  0
  -32.7073   57.8581   63.8571 H   0  0  0  0  0  0  0  0  0  0  0  0
  -42.3027   57.4073   66.8906 H   0  0  0  0  0  0  0  0  0  0  0  0
  -33.3573   59.7518   65.2637 H   0  0  0  0  0  0  0  0  0  0  0  0
  -31.8669   59.0036   65.8703 H   0  0  0  0  0  0  0  0  0  0  0  0
  -32.7667   56.2224   66.3285 H   0  0  0  0  0  0  0  0  0  0  0  0
  -31.3510   56.6754   65.4099 H   0  0  0  0  0  0  0  0  0  0  0  0
  -32.5618   55.6384   64.6945 H   0  0  0  0  0  0  0  0  0  0  0  0
  -37.0636   56.1335   57.7173 H   0  0  0  0  0  0  0  0  0  0  0  0
  -35.3813   55.5396   57.7571 H   0  0  0  0  0  0  0  0  0  0  0  0
  -35.1343   55.9878   55.4143 H   0  0  0  0  0  0  0  0  0  0  0  0
  -36.7651   56.6223   55.3376 H   0  0  0  0  0  0  0  0  0  0  0  0
  -37.6546   54.4427   56.0048 H   0  0  0  0  0  0  0  0  0  0  0  0
  -35.9918   53.8191   56.0760 H   0  0  0  0  0  0  0  0  0  0  0  0
  -37.3788   54.7790   53.6056 H   0  0  0  0  0  0  0  0  0  0  0  0
  -37.0922   53.0835   54.0863 H   0  0  0  0  0  0  0  0  0  0  0  0
  -35.5309   53.7986   52.3676 H   0  0  0  0  0  0  0  0  0  0  0  0
  -34.7370   53.3999   53.9014 H   0  0  0  0  0  0  0  0  0  0  0  0
  -34.5194   55.7446   54.4256 H   0  0  0  0  0  0  0  0  0  0  0  0
  -35.3278   56.1398   52.8842 H   0  0  0  0  0  0  0  0  0  0  0  0
  -33.4773   55.2457   51.6475 H   0  0  0  0  0  0  0  0  0  0  0  0
  -32.6698   54.8210   53.1720 H   0  0  0  0  0  0  0  0  0  0  0  0
  -32.4821   57.1370   53.7486 H   0  0  0  0  0  0  0  0  0  0  0  0
  -33.3034   57.5562   52.2131 H   0  0  0  0  0  0  0  0  0  0  0  0
  -30.6168   56.2803   52.4283 H   0  0  0  0  0  0  0  0  0  0  0  0
  -30.9317   57.9807   52.0950 H   0  0  0  0  0  0  0  0  0  0  0  0
  -31.8324   55.6751   50.3927 H   0  0  0  0  0  0  0  0  0  0  0  0
  -30.4803   56.7825   50.0541 H   0  0  0  0  0  0  0  0  0  0  0  0
  -31.9971   58.6179   49.8485 H   0  0  0  0  0  0  0  0  0  0  0  0
  -33.3538   57.4967   50.1979 H   0  0  0  0  0  0  0  0  0  0  0  0
  -31.6306   57.4107   47.7761 H   0  0  0  0  0  0  0  0  0  0  0  0
  -33.2818   58.0723   47.8942 H   0  0  0  0  0  0  0  0  0  0  0  0
  -34.1549   55.8848   48.4044 H   0  0  0  0  0  0  0  0  0  0  0  0
  -32.5302   55.2065   48.3309 H   0  0  0  0  0  0  0  0  0  0  0  0
  -32.3672   55.8067   45.9916 H   0  0  0  0  0  0  0  0  0  0  0  0
  -34.0407   56.4744   46.1059 H   0  0  0  0  0  0  0  0  0  0  0  0
  -33.2992   53.5950   46.2604 H   0  0  0  0  0  0  0  0  0  0  0  0
  -34.0600   54.4000   44.9090 H   0  0  0  0  0  0  0  0  0  0  0  0
  -34.9040   54.2644   46.4329 H   0  0  0  0  0  0  0  0  0  0  0  0
  -38.0654   57.7877   66.4806 H   0  0  0  0  0  0  0  0  0  0  0  0
  -36.4473   58.4515   66.3188 H   0  0  0  0  0  0  0  0  0  0  0  0
  -38.9075   59.8048   66.8996 H   0  0  0  0  0  0  0  0  0  0  0  0
  -37.2799   60.4571   66.5364 H   0  0  0  0  0  0  0  0  0  0  0  0
  -38.1684   59.6488   69.2475 H   0  0  0  0  0  0  0  0  0  0  0  0
  -38.2467   61.2975   68.5991 H   0  0  0  0  0  0  0  0  0  0  0  0
  -36.2883   60.8050   70.0346 H   0  0  0  0  0  0  0  0  0  0  0  0
  -35.9721   61.4095   68.3482 H   0  0  0  0  0  0  0  0  0  0  0  0
  -34.4401   59.6470   69.4275 H   0  0  0  0  0  0  0  0  0  0  0  0
  -39.9364   60.5958   62.0653 H   0  0  0  0  0  0  0  0  0  0  0  0
  -38.3404   59.9528   62.1302 H   0  0  0  0  0  0  0  0  0  0  0  0
  -39.8019   61.1391   64.2779 H   0  0  0  0  0  0  0  0  0  0  0  0
  -42.6601   55.1461   66.3226 H   0  0  0  0  0  0  0  0  0  0  0  0
  -42.2053   53.3147   64.7936 H   0  0  0  0  0  0  0  0  0  0  0  0
  -40.8007   53.6691   62.8403 H   0  0  0  0  0  0  0  0  0  0  0  0
  -39.8458   55.8688   62.4387 H   0  0  0  0  0  0  0  0  0  0  0  0
  1  2  1  0  0  0  0
  1  5  1  0  0  0  0
  1  7  1  0  0  0  0
  2 18  2  0  0  0  0
  2 29  1  0  0  0  0
  3 21  2  0  0  0  0
  4  6  1  0  0  0  0
  4 59  1  0  0  0  0
  4 60  1  0  0  0  0
  4 61  1  0  0  0  0
  5 62  1  0  0  0  0
  6 14  1  0  0  0  0
  7 10  1  0  0  0  0
  7 63  1  0  0  0  0
  7 64  1  0  0  0  0
  8 27  1  0  0  0  0
  8 48  1  0  0  0  0
  8 65  1  0  0  0  0
  9 21  1  0  0  0  0
  9 23  1  0  0  0  0
 10 13  1  0  0  0  0
 10 66  1  0  0  0  0
 10 67  1  0  0  0  0
 11 19  1  0  0  0  0
 11 28  1  0  0  0  0
 11 68  1  0  0  0  0
 12 27  2  0  0  0  0
 13 16  2  0  0  0  0
 13 69  1  0  0  0  0
 14 44  1  0  0  0  0
 14 49  1  0  0  0  0
 15 28  2  0  0  0  0
 16 19  1  0  0  0  0
 16 70  1  0  0  0  0
 17 51  2  0  0  0  0
 17 52  1  0  0  0  0
 19 21  1  0  0  0  0
 19 71  1  1  0  0  0
 20 49  2  0  0  0  0
 22 50  1  0  0  0  0
 22 51  1  0  0  0  0
 23 25  1  0  0  0  0
 23 26  1  0  0  0  0
 23 72  1  6  0  0  0
 24 53  1  0  0  0  0
 24 73  1  0  0  0  0
 25 27  1  0  0  0  0
 25 74  1  0  0  0  0
 25 75  1  0  0  0  0
 26 76  1  0  0  0  0
 26 77  1  0  0  0  0
 26 78  1  0  0  0  0
 28 52  1  0  0  0  0
 29 30  1  0  0  0  0
 29 79  1  0  0  0  0
 29 80  1  0  0  0  0
 30 31  1  0  0  0  0
 30 81  1  0  0  0  0
 30 82  1  0  0  0  0
 31 32  1  0  0  0  0
 31 83  1  0  0  0  0
 31 84  1  0  0  0  0
 32 33  1  0  0  0  0
 32 85  1  0  0  0  0
 32 86  1  0  0  0  0
 33 34  1  0  0  0  0
 33 87  1  0  0  0  0
 33 88  1  0  0  0  0
 34 35  1  0  0  0  0
 34 89  1  0  0  0  0
 34 90  1  0  0  0  0
 35 36  1  0  0  0  0
 35 91  1  0  0  0  0
 35 92  1  0  0  0  0
 36 37  1  0  0  0  0
 36 93  1  0  0  0  0
 36 94  1  0  0  0  0
 37 38  1  0  0  0  0
 37 95  1  0  0  0  0
 37 96  1  0  0  0  0
 38 39  1  0  0  0  0
 38 97  1  0  0  0  0
 38 98  1  0  0  0  0
 39 40  1  0  0  0  0
 39 99  1  0  0  0  0
 39100  1  0  0  0  0
 40 41  1  0  0  0  0
 40101  1  0  0  0  0
 40102  1  0  0  0  0
 41 42  1  0  0  0  0
 41103  1  0  0  0  0
 41104  1  0  0  0  0
 42 43  1  0  0  0  0
 42105  1  0  0  0  0
 42106  1  0  0  0  0
 43107  1  0  0  0  0
 43108  1  0  0  0  0
 43109  1  0  0  0  0
 44 45  1  0  0  0  0
 44110  1  0  0  0  0
 44111  1  0  0  0  0
 45 46  1  0  0  0  0
 45112  1  0  0  0  0
 45113  1  0  0  0  0
 46 47  1  0  0  0  0
 46114  1  0  0  0  0
 46115  1  0  0  0  0
 47 48  1  0  0  0  0
 47116  1  0  0  0  0
 47117  1  0  0  0  0
 48 49  1  0  0  0  0
 48118  1  1  0  0  0
 50 52  1  0  0  0  0
 50119  1  0  0  0  0
 50120  1  0  0  0  0
 51 58  1  0  0  0  0
 52121  1  1  0  0  0
 53 54  2  0  0  0  0
 53 58  1  0  0  0  0
 54 55  1  0  0  0  0
 54122  1  0  0  0  0
 55 56  2  0  0  0  0
 55123  1  0  0  0  0
 56 57  1  0  0  0  0
 56124  1  0  0  0  0
 57 58  2  0  0  0  0
 57125  1  0  0  0  0
M  END
$$$$
/media/chris/experiments/cd1a-new-docking/inputs/ligands/1xz0_ligand.pdb
 OpenBabel07022319323D

125127  0  0  1  0  0  0  0  0999 V2000
  -39.4070   55.3381   59.0035 N   0  0  0  0  0  0  0  0  0  0  0  0
  -40.6073   55.6064   58.4248 C   0  0  0  0  0  0  0  0  0  0  0  0
  -34.4624   59.0890   64.0833 O   0  0  0  0  0  0  0  0  0  0  0  0
  -29.5247   52.6602   60.0020 Si  0  0  0  0  0  0  0  0  0  0  0  0
  -38.3453   55.0123   58.1478 O   0  0  0  0  0  0  0  0  0  0  0  0
  -30.7273   51.3578   60.2331 O   0  0  0  0  0  0  0  0  0  0  0  0
  -39.0463   55.3391   60.4247 C   0  0  0  0  0  0  0  0  0  0  0  0
  -34.5435   53.1967   61.6143 N   0  0  0  0  0  0  0  0  0  0  0  0
  -34.8671   57.1453   62.9008 O   0  0  0  0  0  0  0  0  0  0  0  0
  -38.5576   56.7536   60.7988 C   0  0  0  0  0  0  0  0  0  0  0  0
  -36.8950   59.8150   64.6310 N   0  0  0  0  0  0  0  0  0  0  0  0
  -35.8635   55.0270   61.4618 O   0  0  0  0  0  0  0  0  0  0  0  0
  -38.1064   56.9875   62.2504 C   0  0  0  0  0  0  0  0  0  0  0  0
  -32.0079   51.6547   60.5908 N   0  0  0  0  0  0  0  0  0  0  0  0
  -38.5876   59.4141   66.0963 O   0  0  0  0  0  0  0  0  0  0  0  0
  -37.6390   58.4030   62.6110 C   0  0  0  0  0  0  0  0  0  0  0  0
  -38.0299   62.5582   65.0676 N   0  0  0  0  0  0  0  0  0  0  0  0
  -40.7492   55.5635   57.2029 O   0  0  0  0  0  0  0  0  0  0  0  0
  -36.7890   58.5530   63.8960 C   0  0  1  0  0  0  0  0  0  0  0  0
  -31.2560   52.8266   62.3591 O   0  0  0  0  0  0  0  0  0  0  0  0
  -35.3080   58.3090   63.6770 C   0  0  0  0  0  0  0  0  0  0  0  0
  -36.1262   63.3650   65.9144 O   0  0  0  0  0  0  0  0  0  0  0  0
  -33.9798   56.1611   63.4647 C   0  0  1  0  0  0  0  0  0  0  0  0
  -39.3560   63.8460   63.0576 O   0  0  0  0  0  0  0  0  0  0  0  0
  -34.6857   54.8136   63.4477 C   0  0  0  0  0  0  0  0  0  0  0  0
  -32.6172   56.0764   62.7882 C   0  0  0  0  0  0  0  0  0  0  0  0
  -35.0546   54.3541   62.0587 C   0  0  0  0  0  0  0  0  0  0  0  0
  -37.7336   60.1539   65.6256 C   0  0  0  0  0  0  0  0  0  0  0  0
  -41.7963   55.9736   59.3189 C   0  0  0  0  0  0  0  0  0  0  0  0
  -42.9949   55.0218   59.2053 C   0  0  0  0  0  0  0  0  0  0  0  0
  -42.5784   53.5961   59.6153 C   0  0  0  0  0  0  0  0  0  0  0  0
  -43.7214   52.5683   59.5139 C   0  0  0  0  0  0  0  0  0  0  0  0
  -43.3366   51.1375   59.9345 C   0  0  0  0  0  0  0  0  0  0  0  0
  -42.8711   51.0483   61.4030 C   0  0  0  0  0  0  0  0  0  0  0  0
  -42.4587   49.6298   61.8605 C   0  0  0  0  0  0  0  0  0  0  0  0
  -41.2868   49.0479   61.0616 C   0  0  0  0  0  0  0  0  0  0  0  0
  -40.8532   47.6359   61.4681 C   0  0  0  0  0  0  0  0  0  0  0  0
  -40.4232   47.5845   62.9456 C   0  0  0  0  0  0  0  0  0  0  0  0
  -39.9597   46.1959   63.4112 C   0  0  0  0  0  0  0  0  0  0  0  0
  -38.7462   45.6179   62.6757 C   0  0  0  0  0  0  0  0  0  0  0  0
  -38.3195   44.2100   63.1611 C   0  0  0  0  0  0  0  0  0  0  0  0
  -37.9592   44.2144   64.6605 C   0  0  0  0  0  0  0  0  0  0  0  0
  -37.5014   42.8858   65.2741 C   0  0  0  0  0  0  0  0  0  0  0  0
  -33.0740   51.2354   59.6691 C   0  0  0  0  0  0  0  0  0  0  0  0
  -33.9232   50.1119   60.2931 C   0  0  0  0  0  0  0  0  0  0  0  0
  -33.6217   49.8039   61.7504 C   0  0  0  0  0  0  0  0  0  0  0  0
  -34.0097   50.9438   62.6959 C   0  0  0  0  0  0  0  0  0  0  0  0
  -33.5734   52.3771   62.3493 C   0  0  1  0  0  0  0  0  0  0  0  0
  -32.1829   52.3121   61.7484 C   0  0  0  0  0  0  0  0  0  0  0  0
  -36.3649   62.1796   66.6724 C   0  0  0  0  0  0  0  0  0  0  0  0
  -37.1912   63.4967   64.9519 C   0  0  0  0  0  0  0  0  0  0  0  0
  -37.6957   61.5896   66.1290 C   0  0  1  0  0  0  0  0  0  0  0  0
  -38.3843   64.7655   63.1035 C   0  0  0  0  0  0  0  0  0  0  0  0
  -38.4420   65.8773   62.2530 C   0  0  0  0  0  0  0  0  0  0  0  0
  -37.4296   66.8514   62.2752 C   0  0  0  0  0  0  0  0  0  0  0  0
  -36.3530   66.7299   63.1555 C   0  0  0  0  0  0  0  0  0  0  0  0
  -36.2942   65.6258   64.0104 C   0  0  0  0  0  0  0  0  0  0  0  0
  -37.3027   64.6434   63.9843 C   0  0  0  0  0  0  0  0  0  0  0  0
  -28.2762   52.0919   59.6349 H   0  0  0  0  0  0  0  0  0  0  0  0
  -29.3760   53.3874   61.2126 H   0  0  0  0  0  0  0  0  0  0  0  0
  -29.9665   53.5357   58.9751 H   0  0  0  0  0  0  0  0  0  0  0  0
  -38.6538   55.0308   57.2283 H   0  0  0  0  0  0  0  0  0  0  0  0
  -38.2661   54.6283   60.6006 H   0  0  0  0  0  0  0  0  0  0  0  0
  -39.8940   55.0722   61.0205 H   0  0  0  0  0  0  0  0  0  0  0  0
  -34.8402   52.8742   60.7327 H   0  0  0  0  0  0  0  0  0  0  0  0
  -39.3595   57.4332   60.5988 H   0  0  0  0  0  0  0  0  0  0  0  0
  -37.6754   56.9016   60.2116 H   0  0  0  0  0  0  0  0  0  0  0  0
  -36.2607   60.5165   64.3574 H   0  0  0  0  0  0  0  0  0  0  0  0
  -38.1176   56.2279   62.9488 H   0  0  0  0  0  0  0  0  0  0  0  0
  -37.8799   59.2173   62.0245 H   0  0  0  0  0  0  0  0  0  0  0  0
  -37.2383   57.7881   64.4943 H   0  0  0  0  0  0  0  0  0  0  0  0
  -33.7600   56.4662   64.4664 H   0  0  0  0  0  0  0  0  0  0  0  0
  -40.0703   63.9487   62.4599 H   0  0  0  0  0  0  0  0  0  0  0  0
  -35.5806   54.8909   64.0293 H   0  0  0  0  0  0  0  0  0  0  0  0
  -34.0056   54.0929   63.8513 H   0  0  0  0  0  0  0  0  0  0  0  0
  -32.7429   55.7740   61.7695 H   0  0  0  0  0  0  0  0  0  0  0  0
  -32.0087   55.3606   63.3002 H   0  0  0  0  0  0  0  0  0  0  0  0
  -32.1431   57.0352   62.8197 H   0  0  0  0  0  0  0  0  0  0  0  0
  -42.1238   56.9568   59.0526 H   0  0  0  0  0  0  0  0  0  0  0  0
  -41.4497   55.9078   60.3290 H   0  0  0  0  0  0  0  0  0  0  0  0
  -43.3443   55.0115   58.1940 H   0  0  0  0  0  0  0  0  0  0  0  0
  -43.7742   55.3601   59.8559 H   0  0  0  0  0  0  0  0  0  0  0  0
  -42.2350   53.6218   60.6284 H   0  0  0  0  0  0  0  0  0  0  0  0
  -41.8136   53.2840   58.9351 H   0  0  0  0  0  0  0  0  0  0  0  0
  -44.0548   52.5391   58.4976 H   0  0  0  0  0  0  0  0  0  0  0  0
  -44.4804   52.8908   60.1956 H   0  0  0  0  0  0  0  0  0  0  0  0
  -42.5421   50.7981   59.3033 H   0  0  0  0  0  0  0  0  0  0  0  0
  -44.2105   50.5280   59.8370 H   0  0  0  0  0  0  0  0  0  0  0  0
  -43.6729   51.3812   62.0285 H   0  0  0  0  0  0  0  0  0  0  0  0
  -41.9966   51.6597   61.4826 H   0  0  0  0  0  0  0  0  0  0  0  0
  -43.3011   48.9794   61.7489 H   0  0  0  0  0  0  0  0  0  0  0  0
  -42.1389   49.7072   62.8786 H   0  0  0  0  0  0  0  0  0  0  0  0
  -40.4471   49.6996   61.1847 H   0  0  0  0  0  0  0  0  0  0  0  0
  -41.6271   48.9728   60.0500 H   0  0  0  0  0  0  0  0  0  0  0  0
  -40.0297   47.3344   60.8550 H   0  0  0  0  0  0  0  0  0  0  0  0
  -41.6856   46.9767   61.3363 H   0  0  0  0  0  0  0  0  0  0  0  0
  -41.2552   47.8819   63.5491 H   0  0  0  0  0  0  0  0  0  0  0  0
  -39.5853   48.2421   63.0482 H   0  0  0  0  0  0  0  0  0  0  0  0
  -40.7763   45.5166   63.2820 H   0  0  0  0  0  0  0  0  0  0  0  0
  -39.6525   46.3176   64.4289 H   0  0  0  0  0  0  0  0  0  0  0  0
  -37.9210   46.2848   62.8145 H   0  0  0  0  0  0  0  0  0  0  0  0
  -39.0294   45.5159   61.6489 H   0  0  0  0  0  0  0  0  0  0  0  0
  -37.4660   43.8925   62.5993 H   0  0  0  0  0  0  0  0  0  0  0  0
  -39.1418   43.5411   63.0152 H   0  0  0  0  0  0  0  0  0  0  0  0
  -38.8260   44.5361   65.1991 H   0  0  0  0  0  0  0  0  0  0  0  0
  -37.1109   44.8617   64.7390 H   0  0  0  0  0  0  0  0  0  0  0  0
  -38.3033   42.1786   65.2324 H   0  0  0  0  0  0  0  0  0  0  0  0
  -37.2171   43.0429   66.2936 H   0  0  0  0  0  0  0  0  0  0  0  0
  -36.6644   42.5087   64.7244 H   0  0  0  0  0  0  0  0  0  0  0  0
  -32.6335   50.8797   58.7612 H   0  0  0  0  0  0  0  0  0  0  0  0
  -33.7070   52.0751   59.4709 H   0  0  0  0  0  0  0  0  0  0  0  0
  -33.7595   49.2197   59.7257 H   0  0  0  0  0  0  0  0  0  0  0  0
  -34.9359   50.4566   60.2666 H   0  0  0  0  0  0  0  0  0  0  0  0
  -32.5722   49.6206   61.8500 H   0  0  0  0  0  0  0  0  0  0  0  0
  -34.2043   48.9491   62.0239 H   0  0  0  0  0  0  0  0  0  0  0  0
  -33.5942   50.7121   63.6543 H   0  0  0  0  0  0  0  0  0  0  0  0
  -35.0774   50.9773   62.6349 H   0  0  0  0  0  0  0  0  0  0  0  0
  -33.5359   52.9404   63.2582 H   0  0  0  0  0  0  0  0  0  0  0  0
  -36.4588   62.4149   67.7120 H   0  0  0  0  0  0  0  0  0  0  0  0
  -35.5581   61.4831   66.5783 H   0  0  0  0  0  0  0  0  0  0  0  0
  -38.3917   61.4827   66.9347 H   0  0  0  0  0  0  0  0  0  0  0  0
  -39.2367   65.9820   61.6030 H   0  0  0  0  0  0  0  0  0  0  0  0
  -37.4823   67.6610   61.6374 H   0  0  0  0  0  0  0  0  0  0  0  0
  -35.6102   67.4460   63.1747 H   0  0  0  0  0  0  0  0  0  0  0  0
  -35.5040   65.5295   64.6672 H   0  0  0  0  0  0  0  0  0  0  0  0
  1  2  1  0  0  0  0
  1  5  1  0  0  0  0
  1  7  1  0  0  0  0
  2 18  2  0  0  0  0
  2 29  1  0  0  0  0
  3 21  2  0  0  0  0
  4  6  1  0  0  0  0
  4 59  1  0  0  0  0
  4 60  1  0  0  0  0
  4 61  1  0  0  0  0
  5 62  1  0  0  0  0
  6 14  1  0  0  0  0
  7 10  1  0  0  0  0
  7 63  1  0  0  0  0
  7 64  1  0  0  0  0
  8 27  1  0  0  0  0
  8 48  1  0  0  0  0
  8 65  1  0  0  0  0
  9 21  1  0  0  0  0
  9 23  1  0  0  0  0
 10 13  1  0  0  0  0
 10 66  1  0  0  0  0
 10 67  1  0  0  0  0
 11 19  1  0  0  0  0
 11 28  1  0  0  0  0
 11 68  1  0  0  0  0
 12 27  2  0  0  0  0
 13 16  2  0  0  0  0
 13 69  1  0  0  0  0
 14 44  1  0  0  0  0
 14 49  1  0  0  0  0
 15 28  2  0  0  0  0
 16 19  1  0  0  0  0
 16 70  1  0  0  0  0
 17 51  2  0  0  0  0
 17 52  1  0  0  0  0
 19 21  1  0  0  0  0
 19 71  1  1  0  0  0
 20 49  2  0  0  0  0
 22 50  1  0  0  0  0
 22 51  1  0  0  0  0
 23 25  1  0  0  0  0
 23 26  1  0  0  0  0
 23 72  1  1  0  0  0
 24 53  1  0  0  0  0
 24 73  1  0  0  0  0
 25 27  1  0  0  0  0
 25 74  1  0  0  0  0
 25 75  1  0  0  0  0
 26 76  1  0  0  0  0
 26 77  1  0  0  0  0
 26 78  1  0  0  0  0
 28 52  1  0  0  0  0
 29 30  1  0  0  0  0
 29 79  1  0  0  0  0
 29 80  1  0  0  0  0
 30 31  1  0  0  0  0
 30 81  1  0  0  0  0
 30 82  1  0  0  0  0
 31 32  1  0  0  0  0
 31 83  1  0  0  0  0
 31 84  1  0  0  0  0
 32 33  1  0  0  0  0
 32 85  1  0  0  0  0
 32 86  1  0  0  0  0
 33 34  1  0  0  0  0
 33 87  1  0  0  0  0
 33 88  1  0  0  0  0
 34 35  1  0  0  0  0
 34 89  1  0  0  0  0
 34 90  1  0  0  0  0
 35 36  1  0  0  0  0
 35 91  1  0  0  0  0
 35 92  1  0  0  0  0
 36 37  1  0  0  0  0
 36 93  1  0  0  0  0
 36 94  1  0  0  0  0
 37 38  1  0  0  0  0
 37 95  1  0  0  0  0
 37 96  1  0  0  0  0
 38 39  1  0  0  0  0
 38 97  1  0  0  0  0
 38 98  1  0  0  0  0
 39 40  1  0  0  0  0
 39 99  1  0  0  0  0
 39100  1  0  0  0  0
 40 41  1  0  0  0  0
 40101  1  0  0  0  0
 40102  1  0  0  0  0
 41 42  1  0  0  0  0
 41103  1  0  0  0  0
 41104  1  0  0  0  0
 42 43  1  0  0  0  0
 42105  1  0  0  0  0
 42106  1  0  0  0  0
 43107  1  0  0  0  0
 43108  1  0  0  0  0
 43109  1  0  0  0  0
 44 45  1  0  0  0  0
 44110  1  0  0  0  0
 44111  1  0  0  0  0
 45 46  1  0  0  0  0
 45112  1  0  0  0  0
 45113  1  0  0  0  0
 46 47  1  0  0  0  0
 46114  1  0  0  0  0
 46115  1  0  0  0  0
 47 48  1  0  0  0  0
 47116  1  0  0  0  0
 47117  1  0  0  0  0
 48 49  1  0  0  0  0
 48118  1  1  0  0  0
 50 52  1  0  0  0  0
 50119  1  0  0  0  0
 50120  1  0  0  0  0
 51 58  1  0  0  0  0
 52121  1  1  0  0  0
 53 54  2  0  0  0  0
 53 58  1  0  0  0  0
 54 55  1  0  0  0  0
 54122  1  0  0  0  0
 55 56  2  0  0  0  0
 55123  1  0  0  0  0
 56 57  1  0  0  0  0
 56124  1  0  0  0  0
 57 58  2  0  0  0  0
 57125  1  0  0  0  0
M  END
$$$$
/media/chris/experiments/cd1a-new-docking/inputs/ligands/1xz0_ligand.pdb
 OpenBabel07022319323D

125127  0  0  1  0  0  0  0  0999 V2000
  -40.1291   59.9932   60.2710 N   0  0  0  0  0  0  0  0  0  0  0  0
  -39.1501   59.8679   59.3363 C   0  0  0  0  0  0  0  0  0  0  0  0
  -34.5332   58.1855   64.6113 O   0  0  0  0  0  0  0  0  0  0  0  0
  -36.5837   57.9161   59.0865 Si  0  0  0  0  0  0  0  0  0  0  0  0
  -40.4110   61.2879   60.7291 O   0  0  0  0  0  0  0  0  0  0  0  0
  -35.1443   56.9338   58.6876 O   0  0  0  0  0  0  0  0  0  0  0  0
  -40.9562   58.9512   60.8872 C   0  0  0  0  0  0  0  0  0  0  0  0
  -32.4778   55.1716   61.7919 N   0  0  0  0  0  0  0  0  0  0  0  0
  -34.7660   58.2851   62.3144 O   0  0  0  0  0  0  0  0  0  0  0  0
  -40.0251   57.9692   61.6276 C   0  0  0  0  0  0  0  0  0  0  0  0
  -36.8950   59.8150   64.6310 N   0  0  0  0  0  0  0  0  0  0  0  0
  -32.4902   56.6163   63.5321 O   0  0  0  0  0  0  0  0  0  0  0  0
  -39.1591   58.5341   62.7662 C   0  0  0  0  0  0  0  0  0  0  0  0
  -34.5336   56.1815   59.6451 N   0  0  0  0  0  0  0  0  0  0  0  0
  -38.5876   59.4141   66.0963 O   0  0  0  0  0  0  0  0  0  0  0  0
  -37.6390   58.4030   62.6110 C   0  0  0  0  0  0  0  0  0  0  0  0
  -36.7378   61.7633   67.2375 N   0  0  0  0  0  0  0  0  0  0  0  0
  -38.8496   58.7683   58.8722 O   0  0  0  0  0  0  0  0  0  0  0  0
  -36.7890   58.5530   63.8960 C   0  0  1  0  0  0  0  0  0  0  0  0
  -32.5265   56.6141   58.7233 O   0  0  0  0  0  0  0  0  0  0  0  0
  -35.3080   58.3090   63.6770 C   0  0  0  0  0  0  0  0  0  0  0  0
  -38.6104   62.6885   68.0309 O   0  0  0  0  0  0  0  0  0  0  0  0
  -33.4308   58.7440   62.0310 C   0  0  1  0  0  0  0  0  0  0  0  0
  -38.3764   63.6735   70.5519 O   0  0  0  0  0  0  0  0  0  0  0  0
  -32.6435   57.5881   61.4324 C   0  0  0  0  0  0  0  0  0  0  0  0
  -33.3619   59.9768   61.1381 C   0  0  0  0  0  0  0  0  0  0  0  0
  -32.5610   56.3901   62.3458 C   0  0  0  0  0  0  0  0  0  0  0  0
  -37.7336   60.1539   65.6256 C   0  0  0  0  0  0  0  0  0  0  0  0
  -38.4103   61.1239   58.8640 C   0  0  0  0  0  0  0  0  0  0  0  0
  -38.5336   61.4067   57.3606 C   0  0  0  0  0  0  0  0  0  0  0  0
  -37.7408   62.6763   56.9948 C   0  0  0  0  0  0  0  0  0  0  0  0
  -37.8248   63.0449   55.5014 C   0  0  0  0  0  0  0  0  0  0  0  0
  -37.0268   64.3011   55.1050 C   0  0  0  0  0  0  0  0  0  0  0  0
  -35.5147   64.1634   55.3806 C   0  0  0  0  0  0  0  0  0  0  0  0
  -34.6790   65.4113   55.0119 C   0  0  0  0  0  0  0  0  0  0  0  0
  -34.7826   65.7996   53.5325 C   0  0  0  0  0  0  0  0  0  0  0  0
  -33.9575   67.0213   53.1160 C   0  0  0  0  0  0  0  0  0  0  0  0
  -34.1417   67.3396   51.6209 C   0  0  0  0  0  0  0  0  0  0  0  0
  -35.5904   67.6662   51.2279 C   0  0  0  0  0  0  0  0  0  0  0  0
  -35.8248   67.9733   49.7452 C   0  0  0  0  0  0  0  0  0  0  0  0
  -37.2936   68.3145   49.3907 C   0  0  0  0  0  0  0  0  0  0  0  0
  -37.4607   68.5949   47.8834 C   0  0  0  0  0  0  0  0  0  0  0  0
  -38.8655   68.9637   47.3917 C   0  0  0  0  0  0  0  0  0  0  0  0
  -35.3797   55.6670   60.7320 C   0  0  0  0  0  0  0  0  0  0  0  0
  -35.5175   54.1358   60.6372 C   0  0  0  0  0  0  0  0  0  0  0  0
  -34.6350   53.4682   59.5955 C   0  0  0  0  0  0  0  0  0  0  0  0
  -33.1440   53.5490   59.9335 C   0  0  0  0  0  0  0  0  0  0  0  0
  -32.5496   54.9045   60.3509 C   0  0  1  0  0  0  0  0  0  0  0  0
  -33.2117   55.9840   59.5171 C   0  0  0  0  0  0  0  0  0  0  0  0
  -38.9781   62.2280   66.7311 C   0  0  0  0  0  0  0  0  0  0  0  0
  -37.2283   62.3418   68.2486 C   0  0  0  0  0  0  0  0  0  0  0  0
  -37.6957   61.5896   66.1290 C   0  0  1  0  0  0  0  0  0  0  0  0
  -37.0867   63.3172   70.5892 C   0  0  0  0  0  0  0  0  0  0  0  0
  -36.3288   63.5786   71.7382 C   0  0  0  0  0  0  0  0  0  0  0  0
  -34.9708   63.2229   71.7987 C   0  0  0  0  0  0  0  0  0  0  0  0
  -34.3577   62.5926   70.7145 C   0  0  0  0  0  0  0  0  0  0  0  0
  -35.1112   62.3240   69.5683 C   0  0  0  0  0  0  0  0  0  0  0  0
  -36.4700   62.6871   69.5014 C   0  0  0  0  0  0  0  0  0  0  0  0
  -37.0265   58.6009   57.9241 H   0  0  0  0  0  0  0  0  0  0  0  0
  -36.2485   58.8599   60.0931 H   0  0  0  0  0  0  0  0  0  0  0  0
  -37.6195   57.0676   59.5594 H   0  0  0  0  0  0  0  0  0  0  0  0
  -39.8301   61.9229   60.2817 H   0  0  0  0  0  0  0  0  0  0  0  0
  -41.5043   58.4296   60.1306 H   0  0  0  0  0  0  0  0  0  0  0  0
  -41.6508   59.3892   61.5733 H   0  0  0  0  0  0  0  0  0  0  0  0
  -32.3602   54.4021   62.3946 H   0  0  0  0  0  0  0  0  0  0  0  0
  -39.3632   57.5456   60.9013 H   0  0  0  0  0  0  0  0  0  0  0  0
  -40.6847   57.2751   62.1050 H   0  0  0  0  0  0  0  0  0  0  0  0
  -36.2607   60.5165   64.3574 H   0  0  0  0  0  0  0  0  0  0  0  0
  -39.5811   58.9804   63.5956 H   0  0  0  0  0  0  0  0  0  0  0  0
  -37.2032   58.2232   61.6930 H   0  0  0  0  0  0  0  0  0  0  0  0
  -37.2383   57.7881   64.4943 H   0  0  0  0  0  0  0  0  0  0  0  0
  -32.9996   59.0629   62.9569 H   0  0  0  0  0  0  0  0  0  0  0  0
  -38.7678   64.0941   71.2921 H   0  0  0  0  0  0  0  0  0  0  0  0
  -31.6498   57.9255   61.2232 H   0  0  0  0  0  0  0  0  0  0  0  0
  -33.1571   57.2781   60.5464 H   0  0  0  0  0  0  0  0  0  0  0  0
  -33.7770   59.7464   60.1792 H   0  0  0  0  0  0  0  0  0  0  0  0
  -32.3413   60.2766   61.0223 H   0  0  0  0  0  0  0  0  0  0  0  0
  -33.9189   60.7731   61.5859 H   0  0  0  0  0  0  0  0  0  0  0  0
  -37.3727   61.0087   59.0985 H   0  0  0  0  0  0  0  0  0  0  0  0
  -38.8633   61.9519   59.3680 H   0  0  0  0  0  0  0  0  0  0  0  0
  -39.5643   61.5485   57.1104 H   0  0  0  0  0  0  0  0  0  0  0  0
  -38.1377   60.5765   56.8140 H   0  0  0  0  0  0  0  0  0  0  0  0
  -36.7131   62.5182   57.2473 H   0  0  0  0  0  0  0  0  0  0  0  0
  -38.1738   63.4865   57.5435 H   0  0  0  0  0  0  0  0  0  0  0  0
  -38.8529   63.2114   55.2561 H   0  0  0  0  0  0  0  0  0  0  0  0
  -37.3916   62.2281   54.9628 H   0  0  0  0  0  0  0  0  0  0  0  0
  -37.4012   65.1337   55.6632 H   0  0  0  0  0  0  0  0  0  0  0  0
  -37.1499   64.4406   54.0513 H   0  0  0  0  0  0  0  0  0  0  0  0
  -35.1458   63.3347   54.8131 H   0  0  0  0  0  0  0  0  0  0  0  0
  -35.4092   64.0278   56.4367 H   0  0  0  0  0  0  0  0  0  0  0  0
  -33.6527   65.2111   55.2387 H   0  0  0  0  0  0  0  0  0  0  0  0
  -35.0672   66.2302   55.5808 H   0  0  0  0  0  0  0  0  0  0  0  0
  -35.8101   66.0054   53.3161 H   0  0  0  0  0  0  0  0  0  0  0  0
  -34.3853   64.9728   52.9815 H   0  0  0  0  0  0  0  0  0  0  0  0
  -32.9230   66.8237   53.3050 H   0  0  0  0  0  0  0  0  0  0  0  0
  -34.2927   67.8639   53.6838 H   0  0  0  0  0  0  0  0  0  0  0  0
  -33.8221   66.4904   51.0538 H   0  0  0  0  0  0  0  0  0  0  0  0
  -33.5597   68.2136   51.4155 H   0  0  0  0  0  0  0  0  0  0  0  0
  -35.8996   68.5205   51.7931 H   0  0  0  0  0  0  0  0  0  0  0  0
  -36.1548   66.7809   51.4345 H   0  0  0  0  0  0  0  0  0  0  0  0
  -35.5325   67.1164   49.1749 H   0  0  0  0  0  0  0  0  0  0  0  0
  -35.2439   68.8422   49.5161 H   0  0  0  0  0  0  0  0  0  0  0  0
  -37.5915   69.1824   49.9409 H   0  0  0  0  0  0  0  0  0  0  0  0
  -37.9045   67.4738   49.6455 H   0  0  0  0  0  0  0  0  0  0  0  0
  -37.1556   67.7151   47.3564 H   0  0  0  0  0  0  0  0  0  0  0  0
  -36.8655   69.4643   47.6966 H   0  0  0  0  0  0  0  0  0  0  0  0
  -39.5261   68.1362   47.5462 H   0  0  0  0  0  0  0  0  0  0  0  0
  -38.8277   69.2001   46.3489 H   0  0  0  0  0  0  0  0  0  0  0  0
  -39.2230   69.8121   47.9371 H   0  0  0  0  0  0  0  0  0  0  0  0
  -36.3503   56.1120   60.6621 H   0  0  0  0  0  0  0  0  0  0  0  0
  -34.9244   55.9139   61.6684 H   0  0  0  0  0  0  0  0  0  0  0  0
  -36.5364   53.9094   60.4016 H   0  0  0  0  0  0  0  0  0  0  0  0
  -35.2011   53.7508   61.5841 H   0  0  0  0  0  0  0  0  0  0  0  0
  -34.7974   53.9481   58.6530 H   0  0  0  0  0  0  0  0  0  0  0  0
  -34.9010   52.4321   59.5674 H   0  0  0  0  0  0  0  0  0  0  0  0
  -32.6074   53.2242   59.0666 H   0  0  0  0  0  0  0  0  0  0  0  0
  -33.0450   52.9431   60.8098 H   0  0  0  0  0  0  0  0  0  0  0  0
  -31.5021   54.8873   60.1334 H   0  0  0  0  0  0  0  0  0  0  0  0
  -39.3066   63.0464   66.1251 H   0  0  0  0  0  0  0  0  0  0  0  0
  -39.7838   61.5254   66.7758 H   0  0  0  0  0  0  0  0  0  0  0  0
  -37.4647   62.0666   65.1995 H   0  0  0  0  0  0  0  0  0  0  0  0
  -36.7728   64.0374   72.5490 H   0  0  0  0  0  0  0  0  0  0  0  0
  -34.4237   63.4287   72.6492 H   0  0  0  0  0  0  0  0  0  0  0  0
  -33.3611   62.3285   70.7586 H   0  0  0  0  0  0  0  0  0  0  0  0
  -34.6673   61.8549   68.7633 H   0  0  0  0  0  0  0  0  0  0  0  0
  1  2  1  0  0  0  0
  1  5  1  0  0  0  0
  1  7  1  0  0  0  0
  2 18  2  0  0  0  0
  2 29  1  0  0  0  0
  3 21  2  0  0  0  0
  4  6  1  0  0  0  0
  4 59  1  0  0  0  0
  4 60  1  0  0  0  0
  4 61  1  0  0  0  0
  5 62  1  0  0  0  0
  6 14  1  0  0  0  0
  7 10  1  0  0  0  0
  7 63  1  0  0  0  0
  7 64  1  0  0  0  0
  8 27  1  0  0  0  0
  8 48  1  0  0  0  0
  8 65  1  0  0  0  0
  9 21  1  0  0  0  0
  9 23  1  0  0  0  0
 10 13  1  0  0  0  0
 10 66  1  0  0  0  0
 10 67  1  0  0  0  0
 11 19  1  0  0  0  0
 11 28  1  0  0  0  0
 11 68  1  0  0  0  0
 12 27  2  0  0  0  0
 13 16  2  0  0  0  0
 13 69  1  0  0  0  0
 14 44  1  0  0  0  0
 14 49  1  0  0  0  0
 15 28  2  0  0  0  0
 16 19  1  0  0  0  0
 16 70  1  0  0  0  0
 17 51  2  0  0  0  0
 17 52  1  0  0  0  0
 19 21  1  0  0  0  0
 19 71  1  1  0  0  0
 20 49  2  0  0  0  0
 22 50  1  0  0  0  0
 22 51  1  0  0  0  0
 23 25  1  0  0  0  0
 23 26  1  0  0  0  0
 23 72  1  1  0  0  0
 24 53  1  0  0  0  0
 24 73  1  0  0  0  0
 25 27  1  0  0  0  0
 25 74  1  0  0  0  0
 25 75  1  0  0  0  0
 26 76  1  0  0  0  0
 26 77  1  0  0  0  0
 26 78  1  0  0  0  0
 28 52  1  0  0  0  0
 29 30  1  0  0  0  0
 29 79  1  0  0  0  0
 29 80  1  0  0  0  0
 30 31  1  0  0  0  0
 30 81  1  0  0  0  0
 30 82  1  0  0  0  0
 31 32  1  0  0  0  0
 31 83  1  0  0  0  0
 31 84  1  0  0  0  0
 32 33  1  0  0  0  0
 32 85  1  0  0  0  0
 32 86  1  0  0  0  0
 33 34  1  0  0  0  0
 33 87  1  0  0  0  0
 33 88  1  0  0  0  0
 34 35  1  0  0  0  0
 34 89  1  0  0  0  0
 34 90  1  0  0  0  0
 35 36  1  0  0  0  0
 35 91  1  0  0  0  0
 35 92  1  0  0  0  0
 36 37  1  0  0  0  0
 36 93  1  0  0  0  0
 36 94  1  0  0  0  0
 37 38  1  0  0  0  0
 37 95  1  0  0  0  0
 37 96  1  0  0  0  0
 38 39  1  0  0  0  0
 38 97  1  0  0  0  0
 38 98  1  0  0  0  0
 39 40  1  0  0  0  0
 39 99  1  0  0  0  0
 39100  1  0  0  0  0
 40 41  1  0  0  0  0
 40101  1  0  0  0  0
 40102  1  0  0  0  0
 41 42  1  0  0  0  0
 41103  1  0  0  0  0
 41104  1  0  0  0  0
 42 43  1  0  0  0  0
 42105  1  0  0  0  0
 42106  1  0  0  0  0
 43107  1  0  0  0  0
 43108  1  0  0  0  0
 43109  1  0  0  0  0
 44 45  1  0  0  0  0
 44110  1  0  0  0  0
 44111  1  0  0  0  0
 45 46  1  0  0  0  0
 45112  1  0  0  0  0
 45113  1  0  0  0  0
 46 47  1  0  0  0  0
 46114  1  0  0  0  0
 46115  1  0  0  0  0
 47 48  1  0  0  0  0
 47116  1  0  0  0  0
 47117  1  0  0  0  0
 48 49  1  0  0  0  0
 48118  1  6  0  0  0
 50 52  1  0  0  0  0
 50119  1  0  0  0  0
 50120  1  0  0  0  0
 51 58  1  0  0  0  0
 52121  1  6  0  0  0
 53 54  2  0  0  0  0
 53 58  1  0  0  0  0
 54 55  1  0  0  0  0
 54122  1  0  0  0  0
 55 56  2  0  0  0  0
 55123  1  0  0  0  0
 56 57  1  0  0  0  0
 56124  1  0  0  0  0
 57 58  2  0  0  0  0
 57125  1  0  0  0  0
M  END
$$$$
/media/chris/experiments/cd1a-new-docking/inputs/ligands/1xz0_ligand.pdb
 OpenBabel07022319323D

125127  0  0  1  0  0  0  0  0999 V2000
  -37.9367   56.8563   59.1870 N   0  0  0  0  0  0  0  0  0  0  0  0
  -37.0687   55.8154   59.0824 C   0  0  0  0  0  0  0  0  0  0  0  0
  -34.6103   59.1028   63.0674 O   0  0  0  0  0  0  0  0  0  0  0  0
  -31.1450   61.0455   56.9605 Si  0  0  0  0  0  0  0  0  0  0  0  0
  -39.2110   56.5747   59.6992 O   0  0  0  0  0  0  0  0  0  0  0  0
  -32.4733   60.7024   58.1067 O   0  0  0  0  0  0  0  0  0  0  0  0
  -37.7348   58.2656   58.8364 C   0  0  0  0  0  0  0  0  0  0  0  0
  -32.5243   59.0166   62.2308 N   0  0  0  0  0  0  0  0  0  0  0  0
  -34.6971   57.0605   64.1450 O   0  0  0  0  0  0  0  0  0  0  0  0
  -37.9322   59.1139   60.1095 C   0  0  0  0  0  0  0  0  0  0  0  0
  -36.8950   59.8150   64.6310 N   0  0  0  0  0  0  0  0  0  0  0  0
  -32.2850   59.4068   64.4457 O   0  0  0  0  0  0  0  0  0  0  0  0
  -36.9889   58.8455   61.2943 C   0  0  0  0  0  0  0  0  0  0  0  0
  -32.2024   60.2608   59.3667 N   0  0  0  0  0  0  0  0  0  0  0  0
  -36.8820   61.1456   66.4755 O   0  0  0  0  0  0  0  0  0  0  0  0
  -37.6390   58.4030   62.6110 C   0  0  0  0  0  0  0  0  0  0  0  0
  -35.5537   59.3463   68.0045 N   0  0  0  0  0  0  0  0  0  0  0  0
  -37.3935   54.6784   59.4240 O   0  0  0  0  0  0  0  0  0  0  0  0
  -36.7890   58.5530   63.8960 C   0  0  1  0  0  0  0  0  0  0  0  0
  -34.1858   61.0476   60.0827 O   0  0  0  0  0  0  0  0  0  0  0  0
  -35.3080   58.3090   63.6770 C   0  0  0  0  0  0  0  0  0  0  0  0
  -34.2666   57.7383   67.1386 O   0  0  0  0  0  0  0  0  0  0  0  0
  -33.6005   56.4517   63.4374 C   0  0  1  0  0  0  0  0  0  0  0  0
  -34.8387   60.6757   70.2801 O   0  0  0  0  0  0  0  0  0  0  0  0
  -32.3188   57.1721   63.8282 C   0  0  0  0  0  0  0  0  0  0  0  0
  -33.4709   54.9478   63.6449 C   0  0  0  0  0  0  0  0  0  0  0  0
  -32.3448   58.6461   63.5070 C   0  0  0  0  0  0  0  0  0  0  0  0
  -36.7626   60.0473   65.9485 C   0  0  0  0  0  0  0  0  0  0  0  0
  -35.6617   56.0751   58.5338 C   0  0  0  0  0  0  0  0  0  0  0  0
  -35.5346   55.9223   57.0120 C   0  0  0  0  0  0  0  0  0  0  0  0
  -34.0813   56.1874   56.5738 C   0  0  0  0  0  0  0  0  0  0  0  0
  -33.0634   55.2144   57.1984 C   0  0  0  0  0  0  0  0  0  0  0  0
  -33.2936   53.7326   56.8470 C   0  0  0  0  0  0  0  0  0  0  0  0
  -33.2080   53.4548   55.3316 C   0  0  0  0  0  0  0  0  0  0  0  0
  -33.4506   51.9799   54.9348 C   0  0  0  0  0  0  0  0  0  0  0  0
  -34.8380   51.4619   55.3313 C   0  0  0  0  0  0  0  0  0  0  0  0
  -36.0200   52.2044   54.7001 C   0  0  0  0  0  0  0  0  0  0  0  0
  -37.3649   51.6226   55.1725 C   0  0  0  0  0  0  0  0  0  0  0  0
  -37.5507   50.1344   54.8399 C   0  0  0  0  0  0  0  0  0  0  0  0
  -38.8829   49.5161   55.2765 C   0  0  0  0  0  0  0  0  0  0  0  0
  -40.1299   50.1727   54.6336 C   0  0  0  0  0  0  0  0  0  0  0  0
  -41.4337   49.5148   55.1291 C   0  0  0  0  0  0  0  0  0  0  0  0
  -41.6030   48.0133   54.8679 C   0  0  0  0  0  0  0  0  0  0  0  0
  -30.9777   59.4679   59.5486 C   0  0  0  0  0  0  0  0  0  0  0  0
  -29.9396   60.2502   60.3751 C   0  0  0  0  0  0  0  0  0  0  0  0
  -30.4373   61.5553   60.9741 C   0  0  0  0  0  0  0  0  0  0  0  0
  -31.4958   61.3498   62.0609 C   0  0  0  0  0  0  0  0  0  0  0  0
  -32.6756   60.4045   61.7793 C   0  0  1  0  0  0  0  0  0  0  0  0
  -33.0822   60.5806   60.3293 C   0  0  0  0  0  0  0  0  0  0  0  0
  -35.3893   57.7911   66.2593 C   0  0  0  0  0  0  0  0  0  0  0  0
  -34.4570   58.7375   68.1601 C   0  0  0  0  0  0  0  0  0  0  0  0
  -36.3268   58.8890   66.8341 C   0  0  1  0  0  0  0  0  0  0  0  0
  -33.7411   59.9097   70.2962 C   0  0  0  0  0  0  0  0  0  0  0  0
  -32.8149   60.0484   71.3383 C   0  0  0  0  0  0  0  0  0  0  0  0
  -31.6504   59.2628   71.3730 C   0  0  0  0  0  0  0  0  0  0  0  0
  -31.4038   58.3226   70.3711 C   0  0  0  0  0  0  0  0  0  0  0  0
  -32.3278   58.1760   69.3327 C   0  0  0  0  0  0  0  0  0  0  0  0
  -33.4913   58.9679   69.2906 C   0  0  0  0  0  0  0  0  0  0  0  0
  -31.6882   61.4887   55.7255 H   0  0  0  0  0  0  0  0  0  0  0  0
  -30.3868   59.8640   56.7473 H   0  0  0  0  0  0  0  0  0  0  0  0
  -30.3051   62.0564   57.4981 H   0  0  0  0  0  0  0  0  0  0  0  0
  -39.2738   55.6296   59.9083 H   0  0  0  0  0  0  0  0  0  0  0  0
  -38.4457   58.5588   58.0923 H   0  0  0  0  0  0  0  0  0  0  0  0
  -36.7495   58.4110   58.4454 H   0  0  0  0  0  0  0  0  0  0  0  0
  -32.5568   58.3074   61.5487 H   0  0  0  0  0  0  0  0  0  0  0  0
  -38.9324   58.9496   60.4524 H   0  0  0  0  0  0  0  0  0  0  0  0
  -37.7114   60.1161   59.8066 H   0  0  0  0  0  0  0  0  0  0  0  0
  -37.0915   60.6076   64.0811 H   0  0  0  0  0  0  0  0  0  0  0  0
  -35.9667   58.9578   61.2074 H   0  0  0  0  0  0  0  0  0  0  0  0
  -38.5981   58.0231   62.6390 H   0  0  0  0  0  0  0  0  0  0  0  0
  -37.2383   57.7881   64.4943 H   0  0  0  0  0  0  0  0  0  0  0  0
  -33.7969   56.5590   62.3911 H   0  0  0  0  0  0  0  0  0  0  0  0
  -34.9848   61.2994   70.9639 H   0  0  0  0  0  0  0  0  0  0  0  0
  -31.5024   56.7236   63.3017 H   0  0  0  0  0  0  0  0  0  0  0  0
  -32.2122   57.0792   64.8888 H   0  0  0  0  0  0  0  0  0  0  0  0
  -33.2714   54.7459   64.6765 H   0  0  0  0  0  0  0  0  0  0  0  0
  -32.6671   54.5731   63.0462 H   0  0  0  0  0  0  0  0  0  0  0  0
  -34.3833   54.4682   63.3576 H   0  0  0  0  0  0  0  0  0  0  0  0
  -34.9895   55.3831   58.9966 H   0  0  0  0  0  0  0  0  0  0  0  0
  -35.4309   57.0955   58.7579 H   0  0  0  0  0  0  0  0  0  0  0  0
  -36.1832   56.6238   56.5303 H   0  0  0  0  0  0  0  0  0  0  0  0
  -35.8078   54.9254   56.7357 H   0  0  0  0  0  0  0  0  0  0  0  0
  -33.8175   57.1838   56.8609 H   0  0  0  0  0  0  0  0  0  0  0  0
  -34.0418   56.0463   55.5138 H   0  0  0  0  0  0  0  0  0  0  0  0
  -33.1134   55.3167   58.2623 H   0  0  0  0  0  0  0  0  0  0  0  0
  -32.1072   55.4764   56.7959 H   0  0  0  0  0  0  0  0  0  0  0  0
  -34.2652   53.4468   57.1923 H   0  0  0  0  0  0  0  0  0  0  0  0
  -32.5199   53.1660   57.3217 H   0  0  0  0  0  0  0  0  0  0  0  0
  -32.2317   53.7351   54.9951 H   0  0  0  0  0  0  0  0  0  0  0  0
  -33.9886   54.0254   54.8732 H   0  0  0  0  0  0  0  0  0  0  0  0
  -32.7121   51.3735   55.4162 H   0  0  0  0  0  0  0  0  0  0  0  0
  -33.3867   51.9256   53.8681 H   0  0  0  0  0  0  0  0  0  0  0  0
  -34.9284   51.5402   56.3946 H   0  0  0  0  0  0  0  0  0  0  0  0
  -34.8928   50.4567   54.9688 H   0  0  0  0  0  0  0  0  0  0  0  0
  -35.9576   52.1172   53.6355 H   0  0  0  0  0  0  0  0  0  0  0  0
  -35.9726   53.2304   55.0001 H   0  0  0  0  0  0  0  0  0  0  0  0
  -38.1535   52.1735   54.7038 H   0  0  0  0  0  0  0  0  0  0  0  0
  -37.3823   51.7070   56.2390 H   0  0  0  0  0  0  0  0  0  0  0  0
  -36.7634   49.5901   55.3183 H   0  0  0  0  0  0  0  0  0  0  0  0
  -37.5364   50.0708   53.7719 H   0  0  0  0  0  0  0  0  0  0  0  0
  -38.9643   49.6107   56.3392 H   0  0  0  0  0  0  0  0  0  0  0  0
  -38.8699   48.4971   54.9503 H   0  0  0  0  0  0  0  0  0  0  0  0
  -40.0694   50.0672   53.5705 H   0  0  0  0  0  0  0  0  0  0  0  0
  -40.1475   51.2053   54.9135 H   0  0  0  0  0  0  0  0  0  0  0  0
  -42.2494   50.0183   54.6537 H   0  0  0  0  0  0  0  0  0  0  0  0
  -41.4027   49.6081   56.1945 H   0  0  0  0  0  0  0  0  0  0  0  0
  -41.6429   47.8370   53.8133 H   0  0  0  0  0  0  0  0  0  0  0  0
  -42.5104   47.6725   55.3211 H   0  0  0  0  0  0  0  0  0  0  0  0
  -40.7738   47.4826   55.2870 H   0  0  0  0  0  0  0  0  0  0  0  0
  -30.5623   59.2384   58.5896 H   0  0  0  0  0  0  0  0  0  0  0  0
  -31.2255   58.5677   60.0712 H   0  0  0  0  0  0  0  0  0  0  0  0
  -29.1100   60.4741   59.7374 H   0  0  0  0  0  0  0  0  0  0  0  0
  -29.6860   59.6219   61.2032 H   0  0  0  0  0  0  0  0  0  0  0  0
  -30.8625   62.1491   60.1920 H   0  0  0  0  0  0  0  0  0  0  0  0
  -29.5988   62.0378   61.4313 H   0  0  0  0  0  0  0  0  0  0  0  0
  -31.9096   62.3114   62.2822 H   0  0  0  0  0  0  0  0  0  0  0  0
  -30.9620   60.8672   62.8528 H   0  0  0  0  0  0  0  0  0  0  0  0
  -33.4902   60.6955   62.4090 H   0  0  0  0  0  0  0  0  0  0  0  0
  -35.8910   56.8463   66.2386 H   0  0  0  0  0  0  0  0  0  0  0  0
  -35.0928   58.0129   65.2554 H   0  0  0  0  0  0  0  0  0  0  0  0
  -37.2941   58.4696   67.0166 H   0  0  0  0  0  0  0  0  0  0  0  0
  -32.9899   60.7349   72.0887 H   0  0  0  0  0  0  0  0  0  0  0  0
  -30.9739   59.3816   72.1432 H   0  0  0  0  0  0  0  0  0  0  0  0
  -30.5502   57.7431   70.3968 H   0  0  0  0  0  0  0  0  0  0  0  0
  -32.1556   57.4808   68.5898 H   0  0  0  0  0  0  0  0  0  0  0  0
  1  2  1  0  0  0  0
  1  5  1  0  0  0  0
  1  7  1  0  0  0  0
  2 18  2  0  0  0  0
  2 29  1  0  0  0  0
  3 21  2  0  0  0  0
  4  6  1  0  0  0  0
  4 59  1  0  0  0  0
  4 60  1  0  0  0  0
  4 61  1  0  0  0  0
  5 62  1  0  0  0  0
  6 14  1  0  0  0  0
  7 10  1  0  0  0  0
  7 63  1  0  0  0  0
  7 64  1  0  0  0  0
  8 27  1  0  0  0  0
  8 48  1  0  0  0  0
  8 65  1  0  0  0  0
  9 21  1  0  0  0  0
  9 23  1  0  0  0  0
 10 13  1  0  0  0  0
 10 66  1  0  0  0  0
 10 67  1  0  0  0  0
 11 19  1  0  0  0  0
 11 28  1  0  0  0  0
 11 68  1  0  0  0  0
 12 27  2  0  0  0  0
 13 16  2  0  0  0  0
 13 69  1  0  0  0  0
 14 44  1  0  0  0  0
 14 49  1  0  0  0  0
 15 28  2  0  0  0  0
 16 19  1  0  0  0  0
 16 70  1  0  0  0  0
 17 51  2  0  0  0  0
 17 52  1  0  0  0  0
 19 21  1  0  0  0  0
 19 71  1  1  0  0  0
 20 49  2  0  0  0  0
 22 50  1  0  0  0  0
 22 51  1  0  0  0  0
 23 25  1  0  0  0  0
 23 26  1  0  0  0  0
 23 72  1  6  0  0  0
 24 53  1  0  0  0  0
 24 73  1  0  0  0  0
 25 27  1  0  0  0  0
 25 74  1  0  0  0  0
 25 75  1  0  0  0  0
 26 76  1  0  0  0  0
 26 77  1  0  0  0  0
 26 78  1  0  0  0  0
 28 52  1  0  0  0  0
 29 30  1  0  0  0  0
 29 79  1  0  0  0  0
 29 80  1  0  0  0  0
 30 31  1  0  0  0  0
 30 81  1  0  0  0  0
 30 82  1  0  0  0  0
 31 32  1  0  0  0  0
 31 83  1  0  0  0  0
 31 84  1  0  0  0  0
 32 33  1  0  0  0  0
 32 85  1  0  0  0  0
 32 86  1  0  0  0  0
 33 34  1  0  0  0  0
 33 87  1  0  0  0  0
 33 88  1  0  0  0  0
 34 35  1  0  0  0  0
 34 89  1  0  0  0  0
 34 90  1  0  0  0  0
 35 36  1  0  0  0  0
 35 91  1  0  0  0  0
 35 92  1  0  0  0  0
 36 37  1  0  0  0  0
 36 93  1  0  0  0  0
 36 94  1  0  0  0  0
 37 38  1  0  0  0  0
 37 95  1  0  0  0  0
 37 96  1  0  0  0  0
 38 39  1  0  0  0  0
 38 97  1  0  0  0  0
 38 98  1  0  0  0  0
 39 40  1  0  0  0  0
 39 99  1  0  0  0  0
 39100  1  0  0  0  0
 40 41  1  0  0  0  0
 40101  1  0  0  0  0
 40102  1  0  0  0  0
 41 42  1  0  0  0  0
 41103  1  0  0  0  0
 41104  1  0  0  0  0
 42 43  1  0  0  0  0
 42105  1  0  0  0  0
 42106  1  0  0  0  0
 43107  1  0  0  0  0
 43108  1  0  0  0  0
 43109  1  0  0  0  0
 44 45  1  0  0  0  0
 44110  1  0  0  0  0
 44111  1  0  0  0  0
 45 46  1  0  0  0  0
 45112  1  0  0  0  0
 45113  1  0  0  0  0
 46 47  1  0  0  0  0
 46114  1  0  0  0  0
 46115  1  0  0  0  0
 47 48  1  0  0  0  0
 47116  1  0  0  0  0
 47117  1  0  0  0  0
 48 49  1  0  0  0  0
 48118  1  1  0  0  0
 50 52  1  0  0  0  0
 50119  1  0  0  0  0
 50120  1  0  0  0  0
 51 58  1  0  0  0  0
 52121  1  1  0  0  0
 53 54  2  0  0  0  0
 53 58  1  0  0  0  0
 54 55  1  0  0  0  0
 54122  1  0  0  0  0
 55 56  2  0  0  0  0
 55123  1  0  0  0  0
 56 57  1  0  0  0  0
 56124  1  0  0  0  0
 57 58  2  0  0  0  0
 57125  1  0  0  0  0
M  END
$$$$
/media/chris/experiments/cd1a-new-docking/inputs/ligands/1xz0_ligand.pdb
 OpenBabel07022319323D

125127  0  0  1  0  0  0  0  0999 V2000
  -39.5416   57.5022   58.6965 N   0  0  0  0  0  0  0  0  0  0  0  0
  -38.8020   57.5143   57.5561 C   0  0  0  0  0  0  0  0  0  0  0  0
  -34.4677   58.7167   64.4620 O   0  0  0  0  0  0  0  0  0  0  0  0
  -32.5268   54.8638   68.6823 Si  0  0  0  0  0  0  0  0  0  0  0  0
  -40.8456   56.9954   58.6053 O   0  0  0  0  0  0  0  0  0  0  0  0
  -33.1471   53.2351   68.2842 O   0  0  0  0  0  0  0  0  0  0  0  0
  -39.1706   57.9501   60.0425 C   0  0  0  0  0  0  0  0  0  0  0  0
  -34.4399   53.2251   64.0202 N   0  0  0  0  0  0  0  0  0  0  0  0
  -34.8529   57.6257   62.4617 O   0  0  0  0  0  0  0  0  0  0  0  0
  -38.5576   56.7536   60.7988 C   0  0  0  0  0  0  0  0  0  0  0  0
  -36.8950   59.8150   64.6310 N   0  0  0  0  0  0  0  0  0  0  0  0
  -33.7482   53.5290   61.8884 O   0  0  0  0  0  0  0  0  0  0  0  0
  -38.1064   56.9875   62.2504 C   0  0  0  0  0  0  0  0  0  0  0  0
  -33.6735   52.9773   67.0543 N   0  0  0  0  0  0  0  0  0  0  0  0
  -36.2434   61.3596   63.0940 O   0  0  0  0  0  0  0  0  0  0  0  0
  -37.6390   58.4030   62.6110 C   0  0  0  0  0  0  0  0  0  0  0  0
  -35.4307   62.4269   65.9148 N   0  0  0  0  0  0  0  0  0  0  0  0
  -39.2627   57.0974   56.4937 O   0  0  0  0  0  0  0  0  0  0  0  0
  -36.7890   58.5530   63.8960 C   0  0  1  0  0  0  0  0  0  0  0  0
  -34.1629   55.1584   66.7924 O   0  0  0  0  0  0  0  0  0  0  0  0
  -35.3080   58.3090   63.6770 C   0  0  0  0  0  0  0  0  0  0  0  0
  -36.8657   62.2350   67.6166 O   0  0  0  0  0  0  0  0  0  0  0  0
  -34.0764   56.4147   62.5292 C   0  0  1  0  0  0  0  0  0  0  0  0
  -32.7843   62.9551   66.3327 O   0  0  0  0  0  0  0  0  0  0  0  0
  -35.0244   55.2504   62.7742 C   0  0  0  0  0  0  0  0  0  0  0  0
  -33.1953   56.1597   61.3125 C   0  0  0  0  0  0  0  0  0  0  0  0
  -34.3175   53.9218   62.8809 C   0  0  0  0  0  0  0  0  0  0  0  0
  -36.6335   61.0669   64.2166 C   0  0  0  0  0  0  0  0  0  0  0  0
  -37.3685   58.0532   57.6074 C   0  0  0  0  0  0  0  0  0  0  0  0
  -36.6672   57.8663   58.9596 C   0  0  0  0  0  0  0  0  0  0  0  0
  -35.2452   58.4571   58.9037 C   0  0  0  0  0  0  0  0  0  0  0  0
  -35.2182   59.9674   58.6011 C   0  0  0  0  0  0  0  0  0  0  0  0
  -33.8076   60.5806   58.5225 C   0  0  0  0  0  0  0  0  0  0  0  0
  -33.8273   62.0966   58.2351 C   0  0  0  0  0  0  0  0  0  0  0  0
  -34.5222   62.4896   56.9106 C   0  0  0  0  0  0  0  0  0  0  0  0
  -34.5127   63.9988   56.6413 C   0  0  0  0  0  0  0  0  0  0  0  0
  -35.2053   64.4383   55.3474 C   0  0  0  0  0  0  0  0  0  0  0  0
  -34.5553   63.7858   54.1136 C   0  0  0  0  0  0  0  0  0  0  0  0
  -35.1952   64.2007   52.7801 C   0  0  0  0  0  0  0  0  0  0  0  0
  -34.5913   63.5625   51.5249 C   0  0  0  0  0  0  0  0  0  0  0  0
  -35.2511   64.0181   50.1994 C   0  0  0  0  0  0  0  0  0  0  0  0
  -35.1101   65.5397   49.9918 C   0  0  0  0  0  0  0  0  0  0  0  0
  -35.7167   66.4516   51.0651 C   0  0  0  0  0  0  0  0  0  0  0  0
  -33.5305   51.6076   66.5394 C   0  0  0  0  0  0  0  0  0  0  0  0
  -34.8988   50.9027   66.4783 C   0  0  0  0  0  0  0  0  0  0  0  0
  -36.0986   51.7886   66.7707 C   0  0  0  0  0  0  0  0  0  0  0  0
  -36.3341   52.8517   65.6945 C   0  0  0  0  0  0  0  0  0  0  0  0
  -35.1444   53.7006   65.2163 C   0  0  1  0  0  0  0  0  0  0  0  0
  -34.2679   53.9988   66.4171 C   0  0  0  0  0  0  0  0  0  0  0  0
  -37.6778   62.0444   66.4587 C   0  0  0  0  0  0  0  0  0  0  0  0
  -35.5093   62.4452   67.1761 C   0  0  0  0  0  0  0  0  0  0  0  0
  -36.7218   62.1879   65.2420 C   0  0  1  0  0  0  0  0  0  0  0  0
  -33.0676   62.9672   67.6408 C   0  0  0  0  0  0  0  0  0  0  0  0
  -32.0524   63.2401   68.5670 C   0  0  0  0  0  0  0  0  0  0  0  0
  -32.3222   63.2493   69.9459 C   0  0  0  0  0  0  0  0  0  0  0  0
  -33.6126   62.9955   70.4139 C   0  0  0  0  0  0  0  0  0  0  0  0
  -34.6302   62.7289   69.4936 C   0  0  0  0  0  0  0  0  0  0  0  0
  -34.3611   62.7104   68.1116 C   0  0  0  0  0  0  0  0  0  0  0  0
  -32.0359   54.8706   70.0148 H   0  0  0  0  0  0  0  0  0  0  0  0
  -33.5759   55.8129   68.5596 H   0  0  0  0  0  0  0  0  0  0  0  0
  -31.4760   55.2015   67.7890 H   0  0  0  0  0  0  0  0  0  0  0  0
  -41.0221   56.7195   57.6923 H   0  0  0  0  0  0  0  0  0  0  0  0
  -40.0397   58.2987   60.5603 H   0  0  0  0  0  0  0  0  0  0  0  0
  -38.4630   58.7505   59.9829 H   0  0  0  0  0  0  0  0  0  0  0  0
  -34.0282   52.3315   64.0566 H   0  0  0  0  0  0  0  0  0  0  0  0
  -37.7013   56.4291   60.2452 H   0  0  0  0  0  0  0  0  0  0  0  0
  -39.3523   56.0407   60.8716 H   0  0  0  0  0  0  0  0  0  0  0  0
  -37.2021   59.7352   65.5630 H   0  0  0  0  0  0  0  0  0  0  0  0
  -38.1176   56.2279   62.9488 H   0  0  0  0  0  0  0  0  0  0  0  0
  -37.8799   59.2173   62.0245 H   0  0  0  0  0  0  0  0  0  0  0  0
  -37.2383   57.7881   64.4943 H   0  0  0  0  0  0  0  0  0  0  0  0
  -33.3853   56.5234   63.3388 H   0  0  0  0  0  0  0  0  0  0  0  0
  -31.9113   63.1299   66.0407 H   0  0  0  0  0  0  0  0  0  0  0  0
  -35.7199   55.2014   61.9626 H   0  0  0  0  0  0  0  0  0  0  0  0
  -35.5113   55.4280   63.7102 H   0  0  0  0  0  0  0  0  0  0  0  0
  -33.8108   56.0374   60.4458 H   0  0  0  0  0  0  0  0  0  0  0  0
  -32.6193   55.2717   61.4691 H   0  0  0  0  0  0  0  0  0  0  0  0
  -32.5372   56.9909   61.1682 H   0  0  0  0  0  0  0  0  0  0  0  0
  -37.3967   59.0999   57.3872 H   0  0  0  0  0  0  0  0  0  0  0  0
  -36.8058   57.4906   56.8920 H   0  0  0  0  0  0  0  0  0  0  0  0
  -36.6081   56.8223   59.1866 H   0  0  0  0  0  0  0  0  0  0  0  0
  -37.2274   58.3722   59.7180 H   0  0  0  0  0  0  0  0  0  0  0  0
  -34.6971   57.9486   58.1382 H   0  0  0  0  0  0  0  0  0  0  0  0
  -34.8104   58.3226   59.8720 H   0  0  0  0  0  0  0  0  0  0  0  0
  -35.7590   60.4723   59.3740 H   0  0  0  0  0  0  0  0  0  0  0  0
  -35.6566   60.0904   57.6328 H   0  0  0  0  0  0  0  0  0  0  0  0
  -33.2658   60.0917   57.7399 H   0  0  0  0  0  0  0  0  0  0  0  0
  -33.3428   60.4405   59.4760 H   0  0  0  0  0  0  0  0  0  0  0  0
  -32.8155   62.4427   58.1971 H   0  0  0  0  0  0  0  0  0  0  0  0
  -34.3949   62.5479   59.0219 H   0  0  0  0  0  0  0  0  0  0  0  0
  -35.5390   62.1587   56.9500 H   0  0  0  0  0  0  0  0  0  0  0  0
  -33.9753   62.0243   56.1173 H   0  0  0  0  0  0  0  0  0  0  0  0
  -33.4930   64.3199   56.5958 H   0  0  0  0  0  0  0  0  0  0  0  0
  -35.0679   64.4450   57.4398 H   0  0  0  0  0  0  0  0  0  0  0  0
  -35.1328   65.5020   55.2576 H   0  0  0  0  0  0  0  0  0  0  0  0
  -36.2290   64.1301   55.3916 H   0  0  0  0  0  0  0  0  0  0  0  0
  -34.6386   62.7235   54.2111 H   0  0  0  0  0  0  0  0  0  0  0  0
  -33.5383   64.1174   54.0865 H   0  0  0  0  0  0  0  0  0  0  0  0
  -35.1008   65.2624   52.6867 H   0  0  0  0  0  0  0  0  0  0  0  0
  -36.2075   63.8566   52.8234 H   0  0  0  0  0  0  0  0  0  0  0  0
  -34.6970   62.5008   51.6045 H   0  0  0  0  0  0  0  0  0  0  0  0
  -33.5691   63.8759   51.4826 H   0  0  0  0  0  0  0  0  0  0  0  0
  -36.2905   63.7653   50.2235 H   0  0  0  0  0  0  0  0  0  0  0  0
  -34.7570   63.5217   49.3905 H   0  0  0  0  0  0  0  0  0  0  0  0
  -35.5783   65.7825   49.0608 H   0  0  0  0  0  0  0  0  0  0  0  0
  -34.0576   65.7277   50.0323 H   0  0  0  0  0  0  0  0  0  0  0  0
  -36.7784   66.3199   51.0866 H   0  0  0  0  0  0  0  0  0  0  0  0
  -35.4884   67.4717   50.8370 H   0  0  0  0  0  0  0  0  0  0  0  0
  -35.3066   66.1994   52.0207 H   0  0  0  0  0  0  0  0  0  0  0  0
  -32.8798   51.0558   67.1852 H   0  0  0  0  0  0  0  0  0  0  0  0
  -33.1226   51.6526   65.5512 H   0  0  0  0  0  0  0  0  0  0  0  0
  -34.8931   50.1070   67.1936 H   0  0  0  0  0  0  0  0  0  0  0  0
  -35.0156   50.5698   65.4681 H   0  0  0  0  0  0  0  0  0  0  0  0
  -35.9387   52.2810   67.7071 H   0  0  0  0  0  0  0  0  0  0  0  0
  -36.9634   51.1588   66.7929 H   0  0  0  0  0  0  0  0  0  0  0  0
  -37.0693   53.5284   66.0771 H   0  0  0  0  0  0  0  0  0  0  0  0
  -36.6115   52.2861   64.8296 H   0  0  0  0  0  0  0  0  0  0  0  0
  -35.5293   54.6200   64.8271 H   0  0  0  0  0  0  0  0  0  0  0  0
  -38.4474   62.7866   66.4172 H   0  0  0  0  0  0  0  0  0  0  0  0
  -38.1606   61.0896   66.4693 H   0  0  0  0  0  0  0  0  0  0  0  0
  -37.0875   62.9551   64.5920 H   0  0  0  0  0  0  0  0  0  0  0  0
  -31.0960   63.4365   68.2327 H   0  0  0  0  0  0  0  0  0  0  0  0
  -31.5622   63.4447   70.6163 H   0  0  0  0  0  0  0  0  0  0  0  0
  -33.8126   63.0045   71.4263 H   0  0  0  0  0  0  0  0  0  0  0  0
  -35.5881   62.5439   69.8303 H   0  0  0  0  0  0  0  0  0  0  0  0
  1  2  1  0  0  0  0
  1  5  1  0  0  0  0
  1  7  1  0  0  0  0
  2 18  2  0  0  0  0
  2 29  1  0  0  0  0
  3 21  2  0  0  0  0
  4  6  1  0  0  0  0
  4 59  1  0  0  0  0
  4 60  1  0  0  0  0
  4 61  1  0  0  0  0
  5 62  1  0  0  0  0
  6 14  1  0  0  0  0
  7 10  1  0  0  0  0
  7 63  1  0  0  0  0
  7 64  1  0  0  0  0
  8 27  1  0  0  0  0
  8 48  1  0  0  0  0
  8 65  1  0  0  0  0
  9 21  1  0  0  0  0
  9 23  1  0  0  0  0
 10 13  1  0  0  0  0
 10 66  1  0  0  0  0
 10 67  1  0  0  0  0
 11 19  1  0  0  0  0
 11 28  1  0  0  0  0
 11 68  1  0  0  0  0
 12 27  2  0  0  0  0
 13 16  2  0  0  0  0
 13 69  1  0  0  0  0
 14 44  1  0  0  0  0
 14 49  1  0  0  0  0
 15 28  2  0  0  0  0
 16 19  1  0  0  0  0
 16 70  1  0  0  0  0
 17 51  2  0  0  0  0
 17 52  1  0  0  0  0
 19 21  1  0  0  0  0
 19 71  1  1  0  0  0
 20 49  2  0  0  0  0
 22 50  1  0  0  0  0
 22 51  1  0  0  0  0
 23 25  1  0  0  0  0
 23 26  1  0  0  0  0
 23 72  1  1  0  0  0
 24 53  1  0  0  0  0
 24 73  1  0  0  0  0
 25 27  1  0  0  0  0
 25 74  1  0  0  0  0
 25 75  1  0  0  0  0
 26 76  1  0  0  0  0
 26 77  1  0  0  0  0
 26 78  1  0  0  0  0
 28 52  1  0  0  0  0
 29 30  1  0  0  0  0
 29 79  1  0  0  0  0
 29 80  1  0  0  0  0
 30 31  1  0  0  0  0
 30 81  1  0  0  0  0
 30 82  1  0  0  0  0
 31 32  1  0  0  0  0
 31 83  1  0  0  0  0
 31 84  1  0  0  0  0
 32 33  1  0  0  0  0
 32 85  1  0  0  0  0
 32 86  1  0  0  0  0
 33 34  1  0  0  0  0
 33 87  1  0  0  0  0
 33 88  1  0  0  0  0
 34 35  1  0  0  0  0
 34 89  1  0  0  0  0
 34 90  1  0  0  0  0
 35 36  1  0  0  0  0
 35 91  1  0  0  0  0
 35 92  1  0  0  0  0
 36 37  1  0  0  0  0
 36 93  1  0  0  0  0
 36 94  1  0  0  0  0
 37 38  1  0  0  0  0
 37 95  1  0  0  0  0
 37 96  1  0  0  0  0
 38 39  1  0  0  0  0
 38 97  1  0  0  0  0
 38 98  1  0  0  0  0
 39 40  1  0  0  0  0
 39 99  1  0  0  0  0
 39100  1  0  0  0  0
 40 41  1  0  0  0  0
 40101  1  0  0  0  0
 40102  1  0  0  0  0
 41 42  1  0  0  0  0
 41103  1  0  0  0  0
 41104  1  0  0  0  0
 42 43  1  0  0  0  0
 42105  1  0  0  0  0
 42106  1  0  0  0  0
 43107  1  0  0  0  0
 43108  1  0  0  0  0
 43109  1  0  0  0  0
 44 45  1  0  0  0  0
 44110  1  0  0  0  0
 44111  1  0  0  0  0
 45 46  1  0  0  0  0
 45112  1  0  0  0  0
 45113  1  0  0  0  0
 46 47  1  0  0  0  0
 46114  1  0  0  0  0
 46115  1  0  0  0  0
 47 48  1  0  0  0  0
 47116  1  0  0  0  0
 47117  1  0  0  0  0
 48 49  1  0  0  0  0
 48118  1  6  0  0  0
 50 52  1  0  0  0  0
 50119  1  0  0  0  0
 50120  1  0  0  0  0
 51 58  1  0  0  0  0
 52121  1  6  0  0  0
 53 54  2  0  0  0  0
 53 58  1  0  0  0  0
 54 55  1  0  0  0  0
 54122  1  0  0  0  0
 55 56  2  0  0  0  0
 55123  1  0  0  0  0
 56 57  1  0  0  0  0
 56124  1  0  0  0  0
 57 58  2  0  0  0  0
 57125  1  0  0  0  0
M  END
$$$$
/media/chris/experiments/cd1a-new-docking/inputs/ligands/1xz0_ligand.pdb
 OpenBabel07022319323D

125127  0  0  1  0  0  0  0  0999 V2000
  -38.0879   60.7990   60.3861 N   0  0  0  0  0  0  0  0  0  0  0  0
  -36.7820   61.0531   60.6651 C   0  0  0  0  0  0  0  0  0  0  0  0
  -34.5145   59.2300   63.5740 O   0  0  0  0  0  0  0  0  0  0  0  0
  -39.7597   53.9654   61.5739 Si  0  0  0  0  0  0  0  0  0  0  0  0
  -38.9751   61.8829   60.4456 O   0  0  0  0  0  0  0  0  0  0  0  0
  -38.5600   53.1675   62.6323 O   0  0  0  0  0  0  0  0  0  0  0  0
  -38.7241   59.5292   60.0221 C   0  0  0  0  0  0  0  0  0  0  0  0
  -35.4163   55.0274   65.1840 N   0  0  0  0  0  0  0  0  0  0  0  0
  -34.8102   56.9389   63.5156 O   0  0  0  0  0  0  0  0  0  0  0  0
  -37.6379   58.4343   59.9942 C   0  0  0  0  0  0  0  0  0  0  0  0
  -36.8950   59.8150   64.6310 N   0  0  0  0  0  0  0  0  0  0  0  0
  -33.8897   54.6362   66.8063 O   0  0  0  0  0  0  0  0  0  0  0  0
  -36.8790   58.1542   61.3024 C   0  0  0  0  0  0  0  0  0  0  0  0
  -37.8240   53.8976   63.5162 N   0  0  0  0  0  0  0  0  0  0  0  0
  -37.6467   59.1566   66.6741 O   0  0  0  0  0  0  0  0  0  0  0  0
  -37.6390   58.4030   62.6110 C   0  0  0  0  0  0  0  0  0  0  0  0
  -38.4016   62.2337   65.5712 N   0  0  0  0  0  0  0  0  0  0  0  0
  -35.9361   60.1600   60.6228 O   0  0  0  0  0  0  0  0  0  0  0  0
  -36.7890   58.5530   63.8960 C   0  0  1  0  0  0  0  0  0  0  0  0
  -36.6226   52.0696   64.0456 O   0  0  0  0  0  0  0  0  0  0  0  0
  -35.3080   58.3090   63.6770 C   0  0  0  0  0  0  0  0  0  0  0  0
  -36.5957   63.5487   65.5313 O   0  0  0  0  0  0  0  0  0  0  0  0
  -33.4580   56.5871   63.8642 C   0  0  1  0  0  0  0  0  0  0  0  0
  -36.9290   65.8443   64.1171 O   0  0  0  0  0  0  0  0  0  0  0  0
  -33.3880   56.3865   65.3706 C   0  0  0  0  0  0  0  0  0  0  0  0
  -32.9083   55.3752   63.1222 C   0  0  0  0  0  0  0  0  0  0  0  0
  -34.2895   55.2823   65.8649 C   0  0  0  0  0  0  0  0  0  0  0  0
  -37.2920   60.0330   65.8968 C   0  0  0  0  0  0  0  0  0  0  0  0
  -36.3683   62.4791   61.0438 C   0  0  0  0  0  0  0  0  0  0  0  0
  -34.8689   62.6535   61.3209 C   0  0  0  0  0  0  0  0  0  0  0  0
  -34.5692   64.1146   61.7076 C   0  0  0  0  0  0  0  0  0  0  0  0
  -33.0784   64.3835   61.9873 C   0  0  0  0  0  0  0  0  0  0  0  0
  -32.7532   65.8332   62.3929 C   0  0  0  0  0  0  0  0  0  0  0  0
  -33.1610   66.8629   61.3184 C   0  0  0  0  0  0  0  0  0  0  0  0
  -34.6724   66.8847   60.9914 C   0  0  0  0  0  0  0  0  0  0  0  0
  -35.0476   67.9039   59.9093 C   0  0  0  0  0  0  0  0  0  0  0  0
  -36.5384   67.9737   59.5633 C   0  0  0  0  0  0  0  0  0  0  0  0
  -37.3808   68.3721   60.7888 C   0  0  0  0  0  0  0  0  0  0  0  0
  -37.0260   69.7505   61.3668 C   0  0  0  0  0  0  0  0  0  0  0  0
  -37.8280   70.1823   62.5988 C   0  0  0  0  0  0  0  0  0  0  0  0
  -37.6708   69.2435   63.8210 C   0  0  0  0  0  0  0  0  0  0  0  0
  -36.2045   69.1714   64.2933 C   0  0  0  0  0  0  0  0  0  0  0  0
  -35.8985   68.2622   65.4896 C   0  0  0  0  0  0  0  0  0  0  0  0
  -38.0658   55.3475   63.5508 C   0  0  0  0  0  0  0  0  0  0  0  0
  -38.7358   55.7569   64.8760 C   0  0  0  0  0  0  0  0  0  0  0  0
  -38.8371   54.6561   65.9189 C   0  0  0  0  0  0  0  0  0  0  0  0
  -37.4747   54.2249   66.4683 C   0  0  0  0  0  0  0  0  0  0  0  0
  -36.3367   53.9233   65.4790 C   0  0  1  0  0  0  0  0  0  0  0  0
  -36.9363   53.2304   64.2710 C   0  0  0  0  0  0  0  0  0  0  0  0
  -36.1797   62.4160   66.2933 C   0  0  0  0  0  0  0  0  0  0  0  0
  -37.9615   63.3312   65.1248 C   0  0  0  0  0  0  0  0  0  0  0  0
  -37.4151   61.4760   66.3644 C   0  0  1  0  0  0  0  0  0  0  0  0
  -38.1986   65.5149   63.8499 C   0  0  0  0  0  0  0  0  0  0  0  0
  -38.9908   66.3774   63.0808 C   0  0  0  0  0  0  0  0  0  0  0  0
  -40.3291   66.0589   62.7945 C   0  0  0  0  0  0  0  0  0  0  0  0
  -40.8874   64.8694   63.2656 C   0  0  0  0  0  0  0  0  0  0  0  0
  -40.0993   64.0026   64.0279 C   0  0  0  0  0  0  0  0  0  0  0  0
  -38.7605   64.3232   64.3239 C   0  0  0  0  0  0  0  0  0  0  0  0
  -40.3876   52.9920   60.7525 H   0  0  0  0  0  0  0  0  0  0  0  0
  -39.1056   54.9243   60.7560 H   0  0  0  0  0  0  0  0  0  0  0  0
  -40.7387   54.6134   62.3727 H   0  0  0  0  0  0  0  0  0  0  0  0
  -38.4888   62.6857   60.6904 H   0  0  0  0  0  0  0  0  0  0  0  0
  -39.1765   59.6148   59.0562 H   0  0  0  0  0  0  0  0  0  0  0  0
  -39.4821   59.2787   60.7346 H   0  0  0  0  0  0  0  0  0  0  0  0
  -35.6419   55.6230   64.4333 H   0  0  0  0  0  0  0  0  0  0  0  0
  -36.9147   58.7188   59.2587 H   0  0  0  0  0  0  0  0  0  0  0  0
  -38.1687   57.5285   59.7874 H   0  0  0  0  0  0  0  0  0  0  0  0
  -36.6386   60.6199   64.1253 H   0  0  0  0  0  0  0  0  0  0  0  0
  -35.9044   57.8148   61.2996 H   0  0  0  0  0  0  0  0  0  0  0  0
  -38.6687   58.4674   62.6338 H   0  0  0  0  0  0  0  0  0  0  0  0
  -37.2383   57.7881   64.4943 H   0  0  0  0  0  0  0  0  0  0  0  0
  -32.8282   57.3951   63.5554 H   0  0  0  0  0  0  0  0  0  0  0  0
  -36.5744   66.6472   63.7891 H   0  0  0  0  0  0  0  0  0  0  0  0
  -33.6747   57.2996   65.8491 H   0  0  0  0  0  0  0  0  0  0  0  0
  -32.3828   56.1071   65.6082 H   0  0  0  0  0  0  0  0  0  0  0  0
  -33.4856   54.5103   63.3747 H   0  0  0  0  0  0  0  0  0  0  0  0
  -31.8880   55.2174   63.4032 H   0  0  0  0  0  0  0  0  0  0  0  0
  -32.9654   55.5466   62.0675 H   0  0  0  0  0  0  0  0  0  0  0  0
  -36.9061   62.7604   61.9249 H   0  0  0  0  0  0  0  0  0  0  0  0
  -36.5959   63.0965   60.2001 H   0  0  0  0  0  0  0  0  0  0  0  0
  -34.3144   62.3990   60.4419 H   0  0  0  0  0  0  0  0  0  0  0  0
  -34.5847   62.0117   62.1286 H   0  0  0  0  0  0  0  0  0  0  0  0
  -35.1274   64.3529   62.5888 H   0  0  0  0  0  0  0  0  0  0  0  0
  -34.8476   64.7241   60.8734 H   0  0  0  0  0  0  0  0  0  0  0  0
  -32.5257   64.1531   61.1006 H   0  0  0  0  0  0  0  0  0  0  0  0
  -32.8105   63.7682   62.8207 H   0  0  0  0  0  0  0  0  0  0  0  0
  -31.6993   65.9129   62.5597 H   0  0  0  0  0  0  0  0  0  0  0  0
  -33.3139   66.0528   63.2774 H   0  0  0  0  0  0  0  0  0  0  0  0
  -32.6278   66.6361   60.4189 H   0  0  0  0  0  0  0  0  0  0  0  0
  -32.9217   67.8274   61.7151 H   0  0  0  0  0  0  0  0  0  0  0  0
  -35.2091   67.1260   61.8850 H   0  0  0  0  0  0  0  0  0  0  0  0
  -34.9276   65.9163   60.6146 H   0  0  0  0  0  0  0  0  0  0  0  0
  -34.5130   67.6510   59.0176 H   0  0  0  0  0  0  0  0  0  0  0  0
  -34.7911   68.8639   60.3059 H   0  0  0  0  0  0  0  0  0  0  0  0
  -36.8606   67.0142   59.2162 H   0  0  0  0  0  0  0  0  0  0  0  0
  -36.6739   68.7165   58.8052 H   0  0  0  0  0  0  0  0  0  0  0  0
  -37.2320   67.6380   61.5529 H   0  0  0  0  0  0  0  0  0  0  0  0
  -38.3984   68.4249   60.4623 H   0  0  0  0  0  0  0  0  0  0  0  0
  -37.1848   70.4792   60.5995 H   0  0  0  0  0  0  0  0  0  0  0  0
  -36.0094   69.6768   61.6923 H   0  0  0  0  0  0  0  0  0  0  0  0
  -38.8634   70.2135   62.3309 H   0  0  0  0  0  0  0  0  0  0  0  0
  -37.4466   71.1374   62.8942 H   0  0  0  0  0  0  0  0  0  0  0  0
  -37.9974   68.2615   63.5494 H   0  0  0  0  0  0  0  0  0  0  0  0
  -38.2628   69.6337   64.6224 H   0  0  0  0  0  0  0  0  0  0  0  0
  -35.9018   70.1632   64.5568 H   0  0  0  0  0  0  0  0  0  0  0  0
  -35.6712   68.7377   63.4732 H   0  0  0  0  0  0  0  0  0  0  0  0
  -36.4016   68.6338   66.3578 H   0  0  0  0  0  0  0  0  0  0  0  0
  -34.8434   68.2491   65.6669 H   0  0  0  0  0  0  0  0  0  0  0  0
  -36.2371   67.2693   65.2788 H   0  0  0  0  0  0  0  0  0  0  0  0
  -38.7054   55.6164   62.7362 H   0  0  0  0  0  0  0  0  0  0  0  0
  -37.1271   55.8546   63.4691 H   0  0  0  0  0  0  0  0  0  0  0  0
  -39.7266   56.0952   64.6549 H   0  0  0  0  0  0  0  0  0  0  0  0
  -38.1103   56.5128   65.3030 H   0  0  0  0  0  0  0  0  0  0  0  0
  -39.3093   53.8060   65.4726 H   0  0  0  0  0  0  0  0  0  0  0  0
  -39.4046   55.0437   66.7391 H   0  0  0  0  0  0  0  0  0  0  0  0
  -37.6347   53.3368   67.0432 H   0  0  0  0  0  0  0  0  0  0  0  0
  -37.1293   55.0839   67.0047 H   0  0  0  0  0  0  0  0  0  0  0  0
  -35.6491   53.2583   65.9584 H   0  0  0  0  0  0  0  0  0  0  0  0
  -35.8835   62.7169   67.2764 H   0  0  0  0  0  0  0  0  0  0  0  0
  -35.3391   61.9280   65.8460 H   0  0  0  0  0  0  0  0  0  0  0  0
  -37.6533   61.2801   67.3890 H   0  0  0  0  0  0  0  0  0  0  0  0
  -38.5871   67.2562   62.7207 H   0  0  0  0  0  0  0  0  0  0  0  0
  -40.9022   66.7079   62.2329 H   0  0  0  0  0  0  0  0  0  0  0  0
  -41.8694   64.6331   63.0538 H   0  0  0  0  0  0  0  0  0  0  0  0
  -40.5025   63.1192   64.3773 H   0  0  0  0  0  0  0  0  0  0  0  0
  1  2  1  0  0  0  0
  1  5  1  0  0  0  0
  1  7  1  0  0  0  0
  2 18  2  0  0  0  0
  2 29  1  0  0  0  0
  3 21  2  0  0  0  0
  4  6  1  0  0  0  0
  4 59  1  0  0  0  0
  4 60  1  0  0  0  0
  4 61  1  0  0  0  0
  5 62  1  0  0  0  0
  6 14  1  0  0  0  0
  7 10  1  0  0  0  0
  7 63  1  0  0  0  0
  7 64  1  0  0  0  0
  8 27  1  0  0  0  0
  8 48  1  0  0  0  0
  8 65  1  0  0  0  0
  9 21  1  0  0  0  0
  9 23  1  0  0  0  0
 10 13  1  0  0  0  0
 10 66  1  0  0  0  0
 10 67  1  0  0  0  0
 11 19  1  0  0  0  0
 11 28  1  0  0  0  0
 11 68  1  0  0  0  0
 12 27  2  0  0  0  0
 13 16  2  0  0  0  0
 13 69  1  0  0  0  0
 14 44  1  0  0  0  0
 14 49  1  0  0  0  0
 15 28  2  0  0  0  0
 16 19  1  0  0  0  0
 16 70  1  0  0  0  0
 17 51  2  0  0  0  0
 17 52  1  0  0  0  0
 19 21  1  0  0  0  0
 19 71  1  1  0  0  0
 20 49  2  0  0  0  0
 22 50  1  0  0  0  0
 22 51  1  0  0  0  0
 23 25  1  0  0  0  0
 23 26  1  0  0  0  0
 23 72  1  6  0  0  0
 24 53  1  0  0  0  0
 24 73  1  0  0  0  0
 25 27  1  0  0  0  0
 25 74  1  0  0  0  0
 25 75  1  0  0  0  0
 26 76  1  0  0  0  0
 26 77  1  0  0  0  0
 26 78  1  0  0  0  0
 28 52  1  0  0  0  0
 29 30  1  0  0  0  0
 29 79  1  0  0  0  0
 29 80  1  0  0  0  0
 30 31  1  0  0  0  0
 30 81  1  0  0  0  0
 30 82  1  0  0  0  0
 31 32  1  0  0  0  0
 31 83  1  0  0  0  0
 31 84  1  0  0  0  0
 32 33  1  0  0  0  0
 32 85  1  0  0  0  0
 32 86  1  0  0  0  0
 33 34  1  0  0  0  0
 33 87  1  0  0  0  0
 33 88  1  0  0  0  0
 34 35  1  0  0  0  0
 34 89  1  0  0  0  0
 34 90  1  0  0  0  0
 35 36  1  0  0  0  0
 35 91  1  0  0  0  0
 35 92  1  0  0  0  0
 36 37  1  0  0  0  0
 36 93  1  0  0  0  0
 36 94  1  0  0  0  0
 37 38  1  0  0  0  0
 37 95  1  0  0  0  0
 37 96  1  0  0  0  0
 38 39  1  0  0  0  0
 38 97  1  0  0  0  0
 38 98  1  0  0  0  0
 39 40  1  0  0  0  0
 39 99  1  0  0  0  0
 39100  1  0  0  0  0
 40 41  1  0  0  0  0
 40101  1  0  0  0  0
 40102  1  0  0  0  0
 41 42  1  0  0  0  0
 41103  1  0  0  0  0
 41104  1  0  0  0  0
 42 43  1  0  0  0  0
 42105  1  0  0  0  0
 42106  1  0  0  0  0
 43107  1  0  0  0  0
 43108  1  0  0  0  0
 43109  1  0  0  0  0
 44 45  1  0  0  0  0
 44110  1  0  0  0  0
 44111  1  0  0  0  0
 45 46  1  0  0  0  0
 45112  1  0  0  0  0
 45113  1  0  0  0  0
 46 47  1  0  0  0  0
 46114  1  0  0  0  0
 46115  1  0  0  0  0
 47 48  1  0  0  0  0
 47116  1  0  0  0  0
 47117  1  0  0  0  0
 48 49  1  0  0  0  0
 48118  1  1  0  0  0
 50 52  1  0  0  0  0
 50119  1  0  0  0  0
 50120  1  0  0  0  0
 51 58  1  0  0  0  0
 52121  1  1  0  0  0
 53 54  2  0  0  0  0
 53 58  1  0  0  0  0
 54 55  1  0  0  0  0
 54122  1  0  0  0  0
 55 56  2  0  0  0  0
 55123  1  0  0  0  0
 56 57  1  0  0  0  0
 56124  1  0  0  0  0
 57 58  2  0  0  0  0
 57125  1  0  0  0  0
M  END
$$$$
/media/chris/experiments/cd1a-new-docking/inputs/ligands/1xz0_ligand.pdb
 OpenBabel07022319323D

125127  0  0  1  0  0  0  0  0999 V2000
  -40.0375   55.1583   59.6441 N   0  0  0  0  0  0  0  0  0  0  0  0
  -40.1165   56.0672   58.6365 C   0  0  0  0  0  0  0  0  0  0  0  0
  -34.8948   57.7059   62.7003 O   0  0  0  0  0  0  0  0  0  0  0  0
  -29.1203   53.9687   62.2767 Si  0  0  0  0  0  0  0  0  0  0  0  0
  -40.4343   53.8459   59.3512 O   0  0  0  0  0  0  0  0  0  0  0  0
  -30.1400   54.9809   61.2130 O   0  0  0  0  0  0  0  0  0  0  0  0
  -39.5873   55.3488   61.0264 C   0  0  0  0  0  0  0  0  0  0  0  0
  -31.3457   58.9556   62.8257 N   0  0  0  0  0  0  0  0  0  0  0  0
  -34.3393   58.7437   64.6888 O   0  0  0  0  0  0  0  0  0  0  0  0
  -39.1837   56.8269   61.2043 C   0  0  0  0  0  0  0  0  0  0  0  0
  -36.8950   59.8150   64.6310 N   0  0  0  0  0  0  0  0  0  0  0  0
  -31.0256   59.2725   65.0421 O   0  0  0  0  0  0  0  0  0  0  0  0
  -38.6590   57.2580   62.5844 C   0  0  0  0  0  0  0  0  0  0  0  0
  -30.3332   56.3003   61.4918 N   0  0  0  0  0  0  0  0  0  0  0  0
  -36.2434   61.3596   63.0940 O   0  0  0  0  0  0  0  0  0  0  0  0
  -37.6390   58.4030   62.6110 C   0  0  0  0  0  0  0  0  0  0  0  0
  -38.0649   62.2832   65.8450 N   0  0  0  0  0  0  0  0  0  0  0  0
  -39.7754   57.2376   58.8063 O   0  0  0  0  0  0  0  0  0  0  0  0
  -36.7890   58.5530   63.8960 C   0  0  1  0  0  0  0  0  0  0  0  0
  -32.5111   55.9080   61.9019 O   0  0  0  0  0  0  0  0  0  0  0  0
  -35.3080   58.3090   63.6770 C   0  0  0  0  0  0  0  0  0  0  0  0
  -37.6431   64.3813   65.2031 O   0  0  0  0  0  0  0  0  0  0  0  0
  -33.5035   57.7973   65.3813 C   0  0  1  0  0  0  0  0  0  0  0  0
  -40.2193   65.5936   64.8063 O   0  0  0  0  0  0  0  0  0  0  0  0
  -32.3320   57.4417   64.4782 C   0  0  0  0  0  0  0  0  0  0  0  0
  -33.0213   58.2621   66.7499 C   0  0  0  0  0  0  0  0  0  0  0  0
  -31.4759   58.6314   64.1203 C   0  0  0  0  0  0  0  0  0  0  0  0
  -36.6335   61.0669   64.2166 C   0  0  0  0  0  0  0  0  0  0  0  0
  -40.6467   55.6171   57.2712 C   0  0  0  0  0  0  0  0  0  0  0  0
  -40.6760   56.7208   56.2052 C   0  0  0  0  0  0  0  0  0  0  0  0
  -41.5666   57.8868   56.6759 C   0  0  0  0  0  0  0  0  0  0  0  0
  -43.0232   57.4727   56.9588 C   0  0  0  0  0  0  0  0  0  0  0  0
  -43.1854   56.4113   58.0629 C   0  0  0  0  0  0  0  0  0  0  0  0
  -42.6489   56.8818   59.4311 C   0  0  0  0  0  0  0  0  0  0  0  0
  -43.3512   58.1374   59.9984 C   0  0  0  0  0  0  0  0  0  0  0  0
  -44.8534   57.9421   60.2338 C   0  0  0  0  0  0  0  0  0  0  0  0
  -45.2228   56.8402   61.2321 C   0  0  0  0  0  0  0  0  0  0  0  0
  -44.6396   57.1288   62.6274 C   0  0  0  0  0  0  0  0  0  0  0  0
  -44.9611   56.0492   63.6720 C   0  0  0  0  0  0  0  0  0  0  0  0
  -44.4148   56.3026   65.0809 C   0  0  0  0  0  0  0  0  0  0  0  0
  -44.9462   57.5969   65.7459 C   0  0  0  0  0  0  0  0  0  0  0  0
  -44.3439   57.7985   67.1511 C   0  0  0  0  0  0  0  0  0  0  0  0
  -44.7961   59.0362   67.9354 C   0  0  0  0  0  0  0  0  0  0  0  0
  -29.1401   57.1591   61.5227 C   0  0  0  0  0  0  0  0  0  0  0  0
  -29.1496   58.1478   60.3416 C   0  0  0  0  0  0  0  0  0  0  0  0
  -30.4290   58.1668   59.5215 C   0  0  0  0  0  0  0  0  0  0  0  0
  -31.6290   58.7165   60.2972 C   0  0  0  0  0  0  0  0  0  0  0  0
  -31.9067   58.1820   61.7121 C   0  0  1  0  0  0  0  0  0  0  0  0
  -31.5946   56.6983   61.7230 C   0  0  0  0  0  0  0  0  0  0  0  0
  -36.4818   63.6576   64.7981 C   0  0  0  0  0  0  0  0  0  0  0  0
  -38.5542   63.4482   65.8173 C   0  0  0  0  0  0  0  0  0  0  0  0
  -36.7218   62.1879   65.2420 C   0  0  1  0  0  0  0  0  0  0  0  0
  -40.6518   64.8797   65.8528 C   0  0  0  0  0  0  0  0  0  0  0  0
  -41.8979   65.1714   66.4228 C   0  0  0  0  0  0  0  0  0  0  0  0
  -42.3701   64.4429   67.5276 C   0  0  0  0  0  0  0  0  0  0  0  0
  -41.6059   63.4077   68.0688 C   0  0  0  0  0  0  0  0  0  0  0  0
  -40.3648   63.1086   67.4997 C   0  0  0  0  0  0  0  0  0  0  0  0
  -39.8850   63.8426   66.3980 C   0  0  0  0  0  0  0  0  0  0  0  0
  -29.0797   52.6423   61.7712 H   0  0  0  0  0  0  0  0  0  0  0  0
  -29.6670   53.9592   63.5872 H   0  0  0  0  0  0  0  0  0  0  0  0
  -27.8042   54.5005   62.3167 H   0  0  0  0  0  0  0  0  0  0  0  0
  -40.7182   53.7930   58.4252 H   0  0  0  0  0  0  0  0  0  0  0  0
  -38.7460   54.7177   61.2233 H   0  0  0  0  0  0  0  0  0  0  0  0
  -40.3723   55.0962   61.7082 H   0  0  0  0  0  0  0  0  0  0  0  0
  -30.8378   59.7702   62.6069 H   0  0  0  0  0  0  0  0  0  0  0  0
  -40.0458   57.4229   60.9886 H   0  0  0  0  0  0  0  0  0  0  0  0
  -38.3548   56.9650   60.5419 H   0  0  0  0  0  0  0  0  0  0  0  0
  -37.2021   59.7352   65.5630 H   0  0  0  0  0  0  0  0  0  0  0  0
  -38.9782   56.7985   63.4515 H   0  0  0  0  0  0  0  0  0  0  0  0
  -37.5247   59.0434   61.8099 H   0  0  0  0  0  0  0  0  0  0  0  0
  -37.2383   57.7881   64.4943 H   0  0  0  0  0  0  0  0  0  0  0  0
  -34.1023   56.9354   65.5898 H   0  0  0  0  0  0  0  0  0  0  0  0
  -40.7497   66.2831   64.4582 H   0  0  0  0  0  0  0  0  0  0  0  0
  -32.7159   57.0148   63.5753 H   0  0  0  0  0  0  0  0  0  0  0  0
  -31.7129   56.7542   65.0159 H   0  0  0  0  0  0  0  0  0  0  0  0
  -32.4074   59.1310   66.6356 H   0  0  0  0  0  0  0  0  0  0  0  0
  -32.4529   57.4820   67.2117 H   0  0  0  0  0  0  0  0  0  0  0  0
  -33.8650   58.4998   67.3635 H   0  0  0  0  0  0  0  0  0  0  0  0
  -41.6443   55.2533   57.4033 H   0  0  0  0  0  0  0  0  0  0  0  0
  -39.9721   54.8670   56.9146 H   0  0  0  0  0  0  0  0  0  0  0  0
  -41.0679   56.3218   55.2930 H   0  0  0  0  0  0  0  0  0  0  0  0
  -39.6811   57.0815   56.0466 H   0  0  0  0  0  0  0  0  0  0  0  0
  -41.5701   58.6388   55.9148 H   0  0  0  0  0  0  0  0  0  0  0  0
  -41.1565   58.2436   57.5975 H   0  0  0  0  0  0  0  0  0  0  0  0
  -43.4401   57.0802   56.0548 H   0  0  0  0  0  0  0  0  0  0  0  0
  -43.5260   58.3509   57.3063 H   0  0  0  0  0  0  0  0  0  0  0  0
  -42.6517   55.5309   57.7713 H   0  0  0  0  0  0  0  0  0  0  0  0
  -44.2325   56.2228   58.1760 H   0  0  0  0  0  0  0  0  0  0  0  0
  -41.6072   57.1013   59.3240 H   0  0  0  0  0  0  0  0  0  0  0  0
  -42.8405   56.0878   60.1223 H   0  0  0  0  0  0  0  0  0  0  0  0
  -43.2185   58.9421   59.3058 H   0  0  0  0  0  0  0  0  0  0  0  0
  -42.9072   58.3444   60.9497 H   0  0  0  0  0  0  0  0  0  0  0  0
  -45.3066   57.7025   59.2946 H   0  0  0  0  0  0  0  0  0  0  0  0
  -45.2073   58.8576   60.6600 H   0  0  0  0  0  0  0  0  0  0  0  0
  -44.8363   55.9069   60.8793 H   0  0  0  0  0  0  0  0  0  0  0  0
  -46.2890   56.8028   61.3135 H   0  0  0  0  0  0  0  0  0  0  0  0
  -45.0370   58.0604   62.9725 H   0  0  0  0  0  0  0  0  0  0  0  0
  -43.5752   57.1504   62.5207 H   0  0  0  0  0  0  0  0  0  0  0  0
  -44.5539   55.1232   63.3234 H   0  0  0  0  0  0  0  0  0  0  0  0
  -46.0267   56.0462   63.7691 H   0  0  0  0  0  0  0  0  0  0  0  0
  -43.3487   56.3702   65.0201 H   0  0  0  0  0  0  0  0  0  0  0  0
  -44.7450   55.4869   65.6895 H   0  0  0  0  0  0  0  0  0  0  0  0
  -46.0110   57.5327   65.8299 H   0  0  0  0  0  0  0  0  0  0  0  0
  -44.6617   58.4288   65.1361 H   0  0  0  0  0  0  0  0  0  0  0  0
  -43.2812   57.8578   67.0406 H   0  0  0  0  0  0  0  0  0  0  0  0
  -44.6941   56.9654   67.7239 H   0  0  0  0  0  0  0  0  0  0  0  0
  -44.4800   59.9195   67.4209 H   0  0  0  0  0  0  0  0  0  0  0  0
  -44.3611   59.0177   68.9128 H   0  0  0  0  0  0  0  0  0  0  0  0
  -45.8628   59.0349   68.0196 H   0  0  0  0  0  0  0  0  0  0  0  0
  -28.2649   56.5466   61.4609 H   0  0  0  0  0  0  0  0  0  0  0  0
  -29.1405   57.7154   62.4367 H   0  0  0  0  0  0  0  0  0  0  0  0
  -28.3420   57.8905   59.6885 H   0  0  0  0  0  0  0  0  0  0  0  0
  -29.0588   59.1235   60.7713 H   0  0  0  0  0  0  0  0  0  0  0  0
  -30.6514   57.1665   59.2135 H   0  0  0  0  0  0  0  0  0  0  0  0
  -30.2640   58.8147   58.6862 H   0  0  0  0  0  0  0  0  0  0  0  0
  -32.5008   58.5175   59.7096 H   0  0  0  0  0  0  0  0  0  0  0  0
  -31.3850   59.7464   60.4538 H   0  0  0  0  0  0  0  0  0  0  0  0
  -32.9467   58.3224   61.9206 H   0  0  0  0  0  0  0  0  0  0  0  0
  -35.6104   64.0537   65.2764 H   0  0  0  0  0  0  0  0  0  0  0  0
  -36.3220   63.7288   63.7425 H   0  0  0  0  0  0  0  0  0  0  0  0
  -35.9191   61.8731   65.8756 H   0  0  0  0  0  0  0  0  0  0  0  0
  -42.4753   65.9296   66.0269 H   0  0  0  0  0  0  0  0  0  0  0  0
  -43.2869   64.6745   67.9412 H   0  0  0  0  0  0  0  0  0  0  0  0
  -41.9527   62.8701   68.8785 H   0  0  0  0  0  0  0  0  0  0  0  0
  -39.7946   62.3425   67.8907 H   0  0  0  0  0  0  0  0  0  0  0  0
  1  2  1  0  0  0  0
  1  5  1  0  0  0  0
  1  7  1  0  0  0  0
  2 18  2  0  0  0  0
  2 29  1  0  0  0  0
  3 21  2  0  0  0  0
  4  6  1  0  0  0  0
  4 59  1  0  0  0  0
  4 60  1  0  0  0  0
  4 61  1  0  0  0  0
  5 62  1  0  0  0  0
  6 14  1  0  0  0  0
  7 10  1  0  0  0  0
  7 63  1  0  0  0  0
  7 64  1  0  0  0  0
  8 27  1  0  0  0  0
  8 48  1  0  0  0  0
  8 65  1  0  0  0  0
  9 21  1  0  0  0  0
  9 23  1  0  0  0  0
 10 13  1  0  0  0  0
 10 66  1  0  0  0  0
 10 67  1  0  0  0  0
 11 19  1  0  0  0  0
 11 28  1  0  0  0  0
 11 68  1  0  0  0  0
 12 27  2  0  0  0  0
 13 16  2  0  0  0  0
 13 69  1  0  0  0  0
 14 44  1  0  0  0  0
 14 49  1  0  0  0  0
 15 28  2  0  0  0  0
 16 19  1  0  0  0  0
 16 70  1  0  0  0  0
 17 51  2  0  0  0  0
 17 52  1  0  0  0  0
 19 21  1  0  0  0  0
 19 71  1  1  0  0  0
 20 49  2  0  0  0  0
 22 50  1  0  0  0  0
 22 51  1  0  0  0  0
 23 25  1  0  0  0  0
 23 26  1  0  0  0  0
 23 72  1  1  0  0  0
 24 53  1  0  0  0  0
 24 73  1  0  0  0  0
 25 27  1  0  0  0  0
 25 74  1  0  0  0  0
 25 75  1  0  0  0  0
 26 76  1  0  0  0  0
 26 77  1  0  0  0  0
 26 78  1  0  0  0  0
 28 52  1  0  0  0  0
 29 30  1  0  0  0  0
 29 79  1  0  0  0  0
 29 80  1  0  0  0  0
 30 31  1  0  0  0  0
 30 81  1  0  0  0  0
 30 82  1  0  0  0  0
 31 32  1  0  0  0  0
 31 83  1  0  0  0  0
 31 84  1  0  0  0  0
 32 33  1  0  0  0  0
 32 85  1  0  0  0  0
 32 86  1  0  0  0  0
 33 34  1  0  0  0  0
 33 87  1  0  0  0  0
 33 88  1  0  0  0  0
 34 35  1  0  0  0  0
 34 89  1  0  0  0  0
 34 90  1  0  0  0  0
 35 36  1  0  0  0  0
 35 91  1  0  0  0  0
 35 92  1  0  0  0  0
 36 37  1  0  0  0  0
 36 93  1  0  0  0  0
 36 94  1  0  0  0  0
 37 38  1  0  0  0  0
 37 95  1  0  0  0  0
 37 96  1  0  0  0  0
 38 39  1  0  0  0  0
 38 97  1  0  0  0  0
 38 98  1  0  0  0  0
 39 40  1  0  0  0  0
 39 99  1  0  0  0  0
 39100  1  0  0  0  0
 40 41  1  0  0  0  0
 40101  1  0  0  0  0
 40102  1  0  0  0  0
 41 42  1  0  0  0  0
 41103  1  0  0  0  0
 41104  1  0  0  0  0
 42 43  1  0  0  0  0
 42105  1  0  0  0  0
 42106  1  0  0  0  0
 43107  1  0  0  0  0
 43108  1  0  0  0  0
 43109  1  0  0  0  0
 44 45  1  0  0  0  0
 44110  1  0  0  0  0
 44111  1  0  0  0  0
 45 46  1  0  0  0  0
 45112  1  0  0  0  0
 45113  1  0  0  0  0
 46 47  1  0  0  0  0
 46114  1  0  0  0  0
 46115  1  0  0  0  0
 47 48  1  0  0  0  0
 47116  1  0  0  0  0
 47117  1  0  0  0  0
 48 49  1  0  0  0  0
 48118  1  1  0  0  0
 50 52  1  0  0  0  0
 50119  1  0  0  0  0
 50120  1  0  0  0  0
 51 58  1  0  0  0  0
 52121  1  1  0  0  0
 53 54  2  0  0  0  0
 53 58  1  0  0  0  0
 54 55  1  0  0  0  0
 54122  1  0  0  0  0
 55 56  2  0  0  0  0
 55123  1  0  0  0  0
 56 57  1  0  0  0  0
 56124  1  0  0  0  0
 57 58  2  0  0  0  0
 57125  1  0  0  0  0
M  END
$$$$
/media/chris/experiments/cd1a-new-docking/inputs/ligands/1xz0_ligand.pdb
 OpenBabel07022319323D

125127  0  0  1  0  0  0  0  0999 V2000
  -37.3690   55.3929   59.3295 N   0  0  0  0  0  0  0  0  0  0  0  0
  -38.0990   54.4610   58.6614 C   0  0  0  0  0  0  0  0  0  0  0  0
  -34.9015   57.3291   63.0745 O   0  0  0  0  0  0  0  0  0  0  0  0
  -32.5842   64.7218   57.1790 Si  0  0  0  0  0  0  0  0  0  0  0  0
  -36.7736   54.9927   60.5341 O   0  0  0  0  0  0  0  0  0  0  0  0
  -31.7474   64.3105   58.7043 O   0  0  0  0  0  0  0  0  0  0  0  0
  -37.1032   56.7893   58.9700 C   0  0  0  0  0  0  0  0  0  0  0  0
  -33.4771   61.5655   61.7581 N   0  0  0  0  0  0  0  0  0  0  0  0
  -34.3234   59.2293   64.2555 O   0  0  0  0  0  0  0  0  0  0  0  0
  -37.6556   57.6914   60.0926 C   0  0  0  0  0  0  0  0  0  0  0  0
  -36.8950   59.8150   64.6310 N   0  0  0  0  0  0  0  0  0  0  0  0
  -32.6955   59.5170   61.2028 O   0  0  0  0  0  0  0  0  0  0  0  0
  -37.0678   57.5104   61.5024 C   0  0  0  0  0  0  0  0  0  0  0  0
  -32.4238   63.7126   59.7245 N   0  0  0  0  0  0  0  0  0  0  0  0
  -35.4578   59.5184   66.3686 O   0  0  0  0  0  0  0  0  0  0  0  0
  -37.6390   58.4030   62.6110 C   0  0  0  0  0  0  0  0  0  0  0  0
  -38.0692   61.8794   66.0900 N   0  0  0  0  0  0  0  0  0  0  0  0
  -38.6439   54.7267   57.5903 O   0  0  0  0  0  0  0  0  0  0  0  0
  -36.7890   58.5530   63.8960 C   0  0  1  0  0  0  0  0  0  0  0  0
  -32.7157   61.8686   58.4675 O   0  0  0  0  0  0  0  0  0  0  0  0
  -35.3080   58.3090   63.6770 C   0  0  0  0  0  0  0  0  0  0  0  0
  -36.9691   63.7250   65.4772 O   0  0  0  0  0  0  0  0  0  0  0  0
  -32.9090   58.9936   64.1228 C   0  0  1  0  0  0  0  0  0  0  0  0
  -38.6471   65.0045   63.5251 O   0  0  0  0  0  0  0  0  0  0  0  0
  -32.2928   60.1754   63.3893 C   0  0  0  0  0  0  0  0  0  0  0  0
  -32.1864   58.7248   65.4370 C   0  0  0  0  0  0  0  0  0  0  0  0
  -32.8793   60.3932   62.0164 C   0  0  0  0  0  0  0  0  0  0  0  0
  -36.2648   60.2028   65.7534 C   0  0  0  0  0  0  0  0  0  0  0  0
  -38.2445   53.0601   59.2650 C   0  0  0  0  0  0  0  0  0  0  0  0
  -37.1611   52.0644   58.8287 C   0  0  0  0  0  0  0  0  0  0  0  0
  -37.1784   51.9024   57.2965 C   0  0  0  0  0  0  0  0  0  0  0  0
  -36.1296   50.9034   56.7718 C   0  0  0  0  0  0  0  0  0  0  0  0
  -36.2926   49.4658   57.2999 C   0  0  0  0  0  0  0  0  0  0  0  0
  -37.6475   48.8352   56.9152 C   0  0  0  0  0  0  0  0  0  0  0  0
  -37.8904   48.7156   55.3926 C   0  0  0  0  0  0  0  0  0  0  0  0
  -39.2499   48.1021   55.0383 C   0  0  0  0  0  0  0  0  0  0  0  0
  -39.5290   47.9477   53.5399 C   0  0  0  0  0  0  0  0  0  0  0  0
  -39.4781   49.3061   52.8168 C   0  0  0  0  0  0  0  0  0  0  0  0
  -40.4882   50.3334   53.3499 C   0  0  0  0  0  0  0  0  0  0  0  0
  -40.4853   51.6956   52.6484 C   0  0  0  0  0  0  0  0  0  0  0  0
  -40.8195   51.6335   51.1371 C   0  0  0  0  0  0  0  0  0  0  0  0
  -40.7818   53.0338   50.4921 C   0  0  0  0  0  0  0  0  0  0  0  0
  -41.7345   54.0922   51.0609 C   0  0  0  0  0  0  0  0  0  0  0  0
  -32.4748   64.4323   61.0056 C   0  0  0  0  0  0  0  0  0  0  0  0
  -33.9059   64.9200   61.3002 C   0  0  0  0  0  0  0  0  0  0  0  0
  -34.9728   64.4178   60.3413 C   0  0  0  0  0  0  0  0  0  0  0  0
  -35.2121   62.9095   60.4488 C   0  0  0  0  0  0  0  0  0  0  0  0
  -33.9999   61.9632   60.4459 C   0  0  1  0  0  0  0  0  0  0  0  0
  -32.9761   62.5148   59.4731 C   0  0  0  0  0  0  0  0  0  0  0  0
  -35.9383   62.8376   65.9092 C   0  0  0  0  0  0  0  0  0  0  0  0
  -38.2295   63.0388   65.6128 C   0  0  0  0  0  0  0  0  0  0  0  0
  -36.6602   61.5392   66.3649 C   0  0  1  0  0  0  0  0  0  0  0  0
  -39.6982   64.5962   64.2463 C   0  0  0  0  0  0  0  0  0  0  0  0
  -40.9712   65.1112   63.9684 C   0  0  0  0  0  0  0  0  0  0  0  0
  -42.0888   64.7058   64.7172 C   0  0  0  0  0  0  0  0  0  0  0  0
  -41.9479   63.7730   65.7461 C   0  0  0  0  0  0  0  0  0  0  0  0
  -40.6811   63.2514   66.0232 C   0  0  0  0  0  0  0  0  0  0  0  0
  -39.5578   63.6624   65.2802 C   0  0  0  0  0  0  0  0  0  0  0  0
  -31.6652   65.3313   56.2844 H   0  0  0  0  0  0  0  0  0  0  0  0
  -33.6481   65.6222   57.4508 H   0  0  0  0  0  0  0  0  0  0  0  0
  -33.1040   63.5387   56.5904 H   0  0  0  0  0  0  0  0  0  0  0  0
  -36.9900   54.0634   60.7086 H   0  0  0  0  0  0  0  0  0  0  0  0
  -37.5884   57.0236   58.0456 H   0  0  0  0  0  0  0  0  0  0  0  0
  -36.0511   56.9466   58.8545 H   0  0  0  0  0  0  0  0  0  0  0  0
  -33.5720   62.2043   62.5012 H   0  0  0  0  0  0  0  0  0  0  0  0
  -38.7085   57.5125   60.1589 H   0  0  0  0  0  0  0  0  0  0  0  0
  -37.3776   58.6843   59.8065 H   0  0  0  0  0  0  0  0  0  0  0  0
  -37.5175   60.4746   64.2480 H   0  0  0  0  0  0  0  0  0  0  0  0
  -36.3241   56.8209   61.6932 H   0  0  0  0  0  0  0  0  0  0  0  0
  -38.5474   58.8812   62.5053 H   0  0  0  0  0  0  0  0  0  0  0  0
  -37.2383   57.7881   64.4943 H   0  0  0  0  0  0  0  0  0  0  0  0
  -32.7872   58.0895   63.5636 H   0  0  0  0  0  0  0  0  0  0  0  0
  -38.7652   65.6304   62.8379 H   0  0  0  0  0  0  0  0  0  0  0  0
  -31.2419   60.0017   63.2867 H   0  0  0  0  0  0  0  0  0  0  0  0
  -32.5004   61.0518   63.9669 H   0  0  0  0  0  0  0  0  0  0  0  0
  -32.2581   59.5872   66.0663 H   0  0  0  0  0  0  0  0  0  0  0  0
  -31.1565   58.5112   65.2406 H   0  0  0  0  0  0  0  0  0  0  0  0
  -32.6372   57.8872   65.9271 H   0  0  0  0  0  0  0  0  0  0  0  0
  -39.1963   52.6676   58.9735 H   0  0  0  0  0  0  0  0  0  0  0  0
  -38.1455   53.1731   60.3244 H   0  0  0  0  0  0  0  0  0  0  0  0
  -37.3469   51.1156   59.2871 H   0  0  0  0  0  0  0  0  0  0  0  0
  -36.2035   52.4333   59.1314 H   0  0  0  0  0  0  0  0  0  0  0  0
  -36.9880   52.8573   56.8528 H   0  0  0  0  0  0  0  0  0  0  0  0
  -38.1405   51.5162   57.0318 H   0  0  0  0  0  0  0  0  0  0  0  0
  -35.1606   51.2560   57.0576 H   0  0  0  0  0  0  0  0  0  0  0  0
  -36.2622   50.8537   55.7112 H   0  0  0  0  0  0  0  0  0  0  0  0
  -36.2147   49.4831   58.3669 H   0  0  0  0  0  0  0  0  0  0  0  0
  -35.5232   48.8707   56.8541 H   0  0  0  0  0  0  0  0  0  0  0  0
  -38.4270   49.4385   57.3316 H   0  0  0  0  0  0  0  0  0  0  0  0
  -37.6390   47.8373   57.3012 H   0  0  0  0  0  0  0  0  0  0  0  0
  -37.1215   48.1005   54.9740 H   0  0  0  0  0  0  0  0  0  0  0  0
  -37.8782   49.7079   54.9924 H   0  0  0  0  0  0  0  0  0  0  0  0
  -40.0128   48.7269   55.4537 H   0  0  0  0  0  0  0  0  0  0  0  0
  -39.2407   47.1107   55.4408 H   0  0  0  0  0  0  0  0  0  0  0  0
  -40.5008   47.5197   53.4089 H   0  0  0  0  0  0  0  0  0  0  0  0
  -38.7757   47.3142   53.1203 H   0  0  0  0  0  0  0  0  0  0  0  0
  -39.6795   49.1428   51.7787 H   0  0  0  0  0  0  0  0  0  0  0  0
  -38.5029   49.7122   52.9872 H   0  0  0  0  0  0  0  0  0  0  0  0
  -40.2751   50.4967   54.3856 H   0  0  0  0  0  0  0  0  0  0  0  0
  -41.4550   49.9134   53.1661 H   0  0  0  0  0  0  0  0  0  0  0  0
  -39.5128   52.1278   52.7594 H   0  0  0  0  0  0  0  0  0  0  0  0
  -41.2542   52.2798   53.1092 H   0  0  0  0  0  0  0  0  0  0  0  0
  -41.7988   51.2203   51.0142 H   0  0  0  0  0  0  0  0  0  0  0  0
  -40.0850   51.0222   50.6557 H   0  0  0  0  0  0  0  0  0  0  0  0
  -41.0134   52.9166   49.4540 H   0  0  0  0  0  0  0  0  0  0  0  0
  -39.8002   53.4065   50.6981 H   0  0  0  0  0  0  0  0  0  0  0  0
  -42.7465   53.7885   50.8922 H   0  0  0  0  0  0  0  0  0  0  0  0
  -41.5576   55.0291   50.5754 H   0  0  0  0  0  0  0  0  0  0  0  0
  -41.5642   54.1973   52.1120 H   0  0  0  0  0  0  0  0  0  0  0  0
  -31.8186   65.2763   60.9606 H   0  0  0  0  0  0  0  0  0  0  0  0
  -32.1709   63.7666   61.7863 H   0  0  0  0  0  0  0  0  0  0  0  0
  -33.9051   65.9893   61.2634 H   0  0  0  0  0  0  0  0  0  0  0  0
  -34.1616   64.5247   62.2611 H   0  0  0  0  0  0  0  0  0  0  0  0
  -34.6661   64.6439   59.3414 H   0  0  0  0  0  0  0  0  0  0  0  0
  -35.8894   64.9063   60.5983 H   0  0  0  0  0  0  0  0  0  0  0  0
  -35.8308   62.6299   59.6218 H   0  0  0  0  0  0  0  0  0  0  0  0
  -35.6347   62.7843   61.4238 H   0  0  0  0  0  0  0  0  0  0  0  0
  -34.3291   61.0050   60.1017 H   0  0  0  0  0  0  0  0  0  0  0  0
  -35.3945   63.2671   66.7244 H   0  0  0  0  0  0  0  0  0  0  0  0
  -35.2337   62.6427   65.1279 H   0  0  0  0  0  0  0  0  0  0  0  0
  -36.3948   61.3228   67.3786 H   0  0  0  0  0  0  0  0  0  0  0  0
  -41.0892   65.7959   63.2053 H   0  0  0  0  0  0  0  0  0  0  0  0
  -43.0189   65.0997   64.5054 H   0  0  0  0  0  0  0  0  0  0  0  0
  -42.7684   63.4723   66.2951 H   0  0  0  0  0  0  0  0  0  0  0  0
  -40.5679   62.5585   66.7795 H   0  0  0  0  0  0  0  0  0  0  0  0
  1  2  1  0  0  0  0
  1  5  1  0  0  0  0
  1  7  1  0  0  0  0
  2 18  2  0  0  0  0
  2 29  1  0  0  0  0
  3 21  2  0  0  0  0
  4  6  1  0  0  0  0
  4 59  1  0  0  0  0
  4 60  1  0  0  0  0
  4 61  1  0  0  0  0
  5 62  1  0  0  0  0
  6 14  1  0  0  0  0
  7 10  1  0  0  0  0
  7 63  1  0  0  0  0
  7 64  1  0  0  0  0
  8 27  1  0  0  0  0
  8 48  1  0  0  0  0
  8 65  1  0  0  0  0
  9 21  1  0  0  0  0
  9 23  1  0  0  0  0
 10 13  1  0  0  0  0
 10 66  1  0  0  0  0
 10 67  1  0  0  0  0
 11 19  1  0  0  0  0
 11 28  1  0  0  0  0
 11 68  1  0  0  0  0
 12 27  2  0  0  0  0
 13 16  2  0  0  0  0
 13 69  1  0  0  0  0
 14 44  1  0  0  0  0
 14 49  1  0  0  0  0
 15 28  2  0  0  0  0
 16 19  1  0  0  0  0
 16 70  1  0  0  0  0
 17 51  2  0  0  0  0
 17 52  1  0  0  0  0
 19 21  1  0  0  0  0
 19 71  1  1  0  0  0
 20 49  2  0  0  0  0
 22 50  1  0  0  0  0
 22 51  1  0  0  0  0
 23 25  1  0  0  0  0
 23 26  1  0  0  0  0
 23 72  1  6  0  0  0
 24 53  1  0  0  0  0
 24 73  1  0  0  0  0
 25 27  1  0  0  0  0
 25 74  1  0  0  0  0
 25 75  1  0  0  0  0
 26 76  1  0  0  0  0
 26 77  1  0  0  0  0
 26 78  1  0  0  0  0
 28 52  1  0  0  0  0
 29 30  1  0  0  0  0
 29 79  1  0  0  0  0
 29 80  1  0  0  0  0
 30 31  1  0  0  0  0
 30 81  1  0  0  0  0
 30 82  1  0  0  0  0
 31 32  1  0  0  0  0
 31 83  1  0  0  0  0
 31 84  1  0  0  0  0
 32 33  1  0  0  0  0
 32 85  1  0  0  0  0
 32 86  1  0  0  0  0
 33 34  1  0  0  0  0
 33 87  1  0  0  0  0
 33 88  1  0  0  0  0
 34 35  1  0  0  0  0
 34 89  1  0  0  0  0
 34 90  1  0  0  0  0
 35 36  1  0  0  0  0
 35 91  1  0  0  0  0
 35 92  1  0  0  0  0
 36 37  1  0  0  0  0
 36 93  1  0  0  0  0
 36 94  1  0  0  0  0
 37 38  1  0  0  0  0
 37 95  1  0  0  0  0
 37 96  1  0  0  0  0
 38 39  1  0  0  0  0
 38 97  1  0  0  0  0
 38 98  1  0  0  0  0
 39 40  1  0  0  0  0
 39 99  1  0  0  0  0
 39100  1  0  0  0  0
 40 41  1  0  0  0  0
 40101  1  0  0  0  0
 40102  1  0  0  0  0
 41 42  1  0  0  0  0
 41103  1  0  0  0  0
 41104  1  0  0  0  0
 42 43  1  0  0  0  0
 42105  1  0  0  0  0
 42106  1  0  0  0  0
 43107  1  0  0  0  0
 43108  1  0  0  0  0
 43109  1  0  0  0  0
 44 45  1  0  0  0  0
 44110  1  0  0  0  0
 44111  1  0  0  0  0
 45 46  1  0  0  0  0
 45112  1  0  0  0  0
 45113  1  0  0  0  0
 46 47  1  0  0  0  0
 46114  1  0  0  0  0
 46115  1  0  0  0  0
 47 48  1  0  0  0  0
 47116  1  0  0  0  0
 47117  1  0  0  0  0
 48 49  1  0  0  0  0
 48118  1  6  0  0  0
 50 52  1  0  0  0  0
 50119  1  0  0  0  0
 50120  1  0  0  0  0
 51 58  1  0  0  0  0
 52121  1  1  0  0  0
 53 54  2  0  0  0  0
 53 58  1  0  0  0  0
 54 55  1  0  0  0  0
 54122  1  0  0  0  0
 55 56  2  0  0  0  0
 55123  1  0  0  0  0
 56 57  1  0  0  0  0
 56124  1  0  0  0  0
 57 58  2  0  0  0  0
 57125  1  0  0  0  0
M  END
$$$$
/media/chris/experiments/cd1a-new-docking/inputs/ligands/1xz0_ligand.pdb
 OpenBabel07022319323D

125127  0  0  1  0  0  0  0  0999 V2000
  -37.6214   56.7442   58.0079 N   0  0  0  0  0  0  0  0  0  0  0  0
  -38.1987   57.8107   57.3940 C   0  0  0  0  0  0  0  0  0  0  0  0
  -34.7303   58.7191   62.6838 O   0  0  0  0  0  0  0  0  0  0  0  0
  -36.2600   54.8824   71.6738 Si  0  0  0  0  0  0  0  0  0  0  0  0
  -37.6369   55.5250   57.3159 O   0  0  0  0  0  0  0  0  0  0  0  0
  -35.7869   56.4714   71.0051 O   0  0  0  0  0  0  0  0  0  0  0  0
  -36.9674   56.6757   59.3184 C   0  0  0  0  0  0  0  0  0  0  0  0
  -32.4268   56.4934   68.0790 N   0  0  0  0  0  0  0  0  0  0  0  0
  -34.5507   57.5039   64.6410 O   0  0  0  0  0  0  0  0  0  0  0  0
  -38.0028   57.0570   60.3963 C   0  0  0  0  0  0  0  0  0  0  0  0
  -36.8950   59.8150   64.6310 N   0  0  0  0  0  0  0  0  0  0  0  0
  -34.5266   56.8050   67.2985 O   0  0  0  0  0  0  0  0  0  0  0  0
  -37.5311   57.0701   61.8602 C   0  0  0  0  0  0  0  0  0  0  0  0
  -34.6134   56.6150   70.3282 N   0  0  0  0  0  0  0  0  0  0  0  0
  -34.7636   60.6081   64.5976 O   0  0  0  0  0  0  0  0  0  0  0  0
  -37.6390   58.4030   62.6110 C   0  0  0  0  0  0  0  0  0  0  0  0
  -36.1032   61.5987   67.2398 N   0  0  0  0  0  0  0  0  0  0  0  0
  -38.7106   57.7041   56.2798 O   0  0  0  0  0  0  0  0  0  0  0  0
  -36.7890   58.5530   63.8960 C   0  0  1  0  0  0  0  0  0  0  0  0
  -34.8605   54.5625   69.4385 O   0  0  0  0  0  0  0  0  0  0  0  0
  -35.3080   58.3090   63.6770 C   0  0  0  0  0  0  0  0  0  0  0  0
  -38.1978   62.3745   67.1849 O   0  0  0  0  0  0  0  0  0  0  0  0
  -33.1344   57.6899   64.8237 C   0  0  1  0  0  0  0  0  0  0  0  0
  -39.4177   62.4403   69.6115 O   0  0  0  0  0  0  0  0  0  0  0  0
  -32.8852   58.0816   66.2724 C   0  0  0  0  0  0  0  0  0  0  0  0
  -32.2823   56.4918   64.4237 C   0  0  0  0  0  0  0  0  0  0  0  0
  -33.3392   57.0327   67.2574 C   0  0  0  0  0  0  0  0  0  0  0  0
  -35.9390   60.7142   64.9223 C   0  0  0  0  0  0  0  0  0  0  0  0
  -38.2008   59.1662   58.1085 C   0  0  0  0  0  0  0  0  0  0  0  0
  -39.5984   59.7384   58.3821 C   0  0  0  0  0  0  0  0  0  0  0  0
  -39.4819   61.1048   59.0846 C   0  0  0  0  0  0  0  0  0  0  0  0
  -38.7308   62.1619   58.2529 C   0  0  0  0  0  0  0  0  0  0  0  0
  -38.5851   63.5329   58.9392 C   0  0  0  0  0  0  0  0  0  0  0  0
  -37.8427   64.5656   58.0654 C   0  0  0  0  0  0  0  0  0  0  0  0
  -38.5336   64.8813   56.7183 C   0  0  0  0  0  0  0  0  0  0  0  0
  -37.7670   65.8965   55.8628 C   0  0  0  0  0  0  0  0  0  0  0  0
  -38.4223   66.2538   54.5249 C   0  0  0  0  0  0  0  0  0  0  0  0
  -39.8125   66.8824   54.7311 C   0  0  0  0  0  0  0  0  0  0  0  0
  -40.5306   67.2482   53.4233 C   0  0  0  0  0  0  0  0  0  0  0  0
  -40.8144   66.0819   52.4710 C   0  0  0  0  0  0  0  0  0  0  0  0
  -41.5237   66.4922   51.1564 C   0  0  0  0  0  0  0  0  0  0  0  0
  -41.7937   65.2705   50.2549 C   0  0  0  0  0  0  0  0  0  0  0  0
  -42.4786   65.5323   48.9082 C   0  0  0  0  0  0  0  0  0  0  0  0
  -33.9546   57.9274   70.4026 C   0  0  0  0  0  0  0  0  0  0  0  0
  -32.6455   57.8351   71.2092 C   0  0  0  0  0  0  0  0  0  0  0  0
  -32.2162   56.4280   71.5905 C   0  0  0  0  0  0  0  0  0  0  0  0
  -31.8085   55.5788   70.3837 C   0  0  0  0  0  0  0  0  0  0  0  0
  -32.7321   55.5432   69.1547 C   0  0  1  0  0  0  0  0  0  0  0  0
  -34.1667   55.5487   69.6453 C   0  0  0  0  0  0  0  0  0  0  0  0
  -37.7828   62.4076   65.8199 C   0  0  0  0  0  0  0  0  0  0  0  0
  -37.1060   61.8506   67.9668 C   0  0  0  0  0  0  0  0  0  0  0  0
  -36.3172   61.8913   65.8097 C   0  0  1  0  0  0  0  0  0  0  0  0
  -38.3089   61.9757   70.2001 C   0  0  0  0  0  0  0  0  0  0  0  0
  -38.2944   61.7702   71.5859 C   0  0  0  0  0  0  0  0  0  0  0  0
  -37.1399   61.2923   72.2286 C   0  0  0  0  0  0  0  0  0  0  0  0
  -35.9899   61.0049   71.4914 C   0  0  0  0  0  0  0  0  0  0  0  0
  -36.0014   61.2023   70.1078 C   0  0  0  0  0  0  0  0  0  0  0  0
  -37.1540   61.6894   69.4620 C   0  0  0  0  0  0  0  0  0  0  0  0
  -37.5150   54.9988   72.3279 H   0  0  0  0  0  0  0  0  0  0  0  0
  -35.2792   54.4497   72.6050 H   0  0  0  0  0  0  0  0  0  0  0  0
  -36.3617   53.9365   70.6196 H   0  0  0  0  0  0  0  0  0  0  0  0
  -38.0822   55.6433   56.4623 H   0  0  0  0  0  0  0  0  0  0  0  0
  -36.1450   57.3596   59.3486 H   0  0  0  0  0  0  0  0  0  0  0  0
  -36.5979   55.6872   59.4951 H   0  0  0  0  0  0  0  0  0  0  0  0
  -31.4859   56.7533   67.9514 H   0  0  0  0  0  0  0  0  0  0  0  0
  -38.8107   56.3590   60.3260 H   0  0  0  0  0  0  0  0  0  0  0  0
  -38.2572   58.0741   60.1826 H   0  0  0  0  0  0  0  0  0  0  0  0
  -37.7963   60.0370   64.9592 H   0  0  0  0  0  0  0  0  0  0  0  0
  -37.1595   56.2219   62.3158 H   0  0  0  0  0  0  0  0  0  0  0  0
  -38.2496   59.1642   62.2753 H   0  0  0  0  0  0  0  0  0  0  0  0
  -37.2383   57.7881   64.4943 H   0  0  0  0  0  0  0  0  0  0  0  0
  -32.8263   58.4686   64.1576 H   0  0  0  0  0  0  0  0  0  0  0  0
  -40.1789   62.6250   70.1258 H   0  0  0  0  0  0  0  0  0  0  0  0
  -33.4134   58.9898   66.4750 H   0  0  0  0  0  0  0  0  0  0  0  0
  -31.8283   58.1961   66.3939 H   0  0  0  0  0  0  0  0  0  0  0  0
  -32.5270   55.6565   65.0461 H   0  0  0  0  0  0  0  0  0  0  0  0
  -31.2471   56.7345   64.5433 H   0  0  0  0  0  0  0  0  0  0  0  0
  -32.4744   56.2430   63.4010 H   0  0  0  0  0  0  0  0  0  0  0  0
  -37.6664   59.8657   57.5002 H   0  0  0  0  0  0  0  0  0  0  0  0
  -37.7441   59.0081   59.0631 H   0  0  0  0  0  0  0  0  0  0  0  0
  -40.1410   59.0627   59.0098 H   0  0  0  0  0  0  0  0  0  0  0  0
  -40.1136   59.8647   57.4528 H   0  0  0  0  0  0  0  0  0  0  0  0
  -38.9599   60.9672   60.0084 H   0  0  0  0  0  0  0  0  0  0  0  0
  -40.4773   61.4690   59.2310 H   0  0  0  0  0  0  0  0  0  0  0  0
  -39.2618   62.3031   57.3348 H   0  0  0  0  0  0  0  0  0  0  0  0
  -37.7388   61.7870   58.1109 H   0  0  0  0  0  0  0  0  0  0  0  0
  -38.0402   63.4023   59.8508 H   0  0  0  0  0  0  0  0  0  0  0  0
  -39.5707   63.9104   59.1153 H   0  0  0  0  0  0  0  0  0  0  0  0
  -36.8641   64.1859   57.8581 H   0  0  0  0  0  0  0  0  0  0  0  0
  -37.8280   65.4798   58.6212 H   0  0  0  0  0  0  0  0  0  0  0  0
  -39.5075   65.2755   56.9210 H   0  0  0  0  0  0  0  0  0  0  0  0
  -38.5741   63.9676   56.1629 H   0  0  0  0  0  0  0  0  0  0  0  0
  -36.7980   65.4914   55.6584 H   0  0  0  0  0  0  0  0  0  0  0  0
  -37.7423   66.8028   56.4310 H   0  0  0  0  0  0  0  0  0  0  0  0
  -38.5257   65.3643   53.9393 H   0  0  0  0  0  0  0  0  0  0  0  0
  -37.8007   66.9670   54.0250 H   0  0  0  0  0  0  0  0  0  0  0  0
  -39.6965   67.7733   55.3123 H   0  0  0  0  0  0  0  0  0  0  0  0
  -40.4159   66.1475   55.2217 H   0  0  0  0  0  0  0  0  0  0  0  0
  -39.9224   67.9575   52.9019 H   0  0  0  0  0  0  0  0  0  0  0  0
  -41.4884   67.6270   53.7132 H   0  0  0  0  0  0  0  0  0  0  0  0
  -41.4359   65.3760   52.9812 H   0  0  0  0  0  0  0  0  0  0  0  0
  -39.8648   65.6743   52.1933 H   0  0  0  0  0  0  0  0  0  0  0  0
  -40.9022   67.1841   50.6273 H   0  0  0  0  0  0  0  0  0  0  0  0
  -42.4632   66.9388   51.4070 H   0  0  0  0  0  0  0  0  0  0  0  0
  -42.4140   64.5946   50.8057 H   0  0  0  0  0  0  0  0  0  0  0  0
  -40.8246   64.8933   50.0032 H   0  0  0  0  0  0  0  0  0  0  0  0
  -43.4633   65.9153   49.0773 H   0  0  0  0  0  0  0  0  0  0  0  0
  -42.5415   64.6178   48.3563 H   0  0  0  0  0  0  0  0  0  0  0  0
  -41.9089   66.2465   48.3512 H   0  0  0  0  0  0  0  0  0  0  0  0
  -34.6123   58.6239   70.8792 H   0  0  0  0  0  0  0  0  0  0  0  0
  -33.7245   58.2533   69.4098 H   0  0  0  0  0  0  0  0  0  0  0  0
  -32.7719   58.3980   72.1103 H   0  0  0  0  0  0  0  0  0  0  0  0
  -31.8765   58.2165   70.5703 H   0  0  0  0  0  0  0  0  0  0  0  0
  -33.0320   55.9454   72.0869 H   0  0  0  0  0  0  0  0  0  0  0  0
  -31.3585   56.5159   72.2242 H   0  0  0  0  0  0  0  0  0  0  0  0
  -31.7060   54.5712   70.7288 H   0  0  0  0  0  0  0  0  0  0  0  0
  -30.9188   56.0521   70.0241 H   0  0  0  0  0  0  0  0  0  0  0  0
  -32.5460   54.6310   68.6274 H   0  0  0  0  0  0  0  0  0  0  0  0
  -37.8283   63.4072   65.4409 H   0  0  0  0  0  0  0  0  0  0  0  0
  -38.4162   61.8067   65.2013 H   0  0  0  0  0  0  0  0  0  0  0  0
  -35.6851   62.6269   65.3578 H   0  0  0  0  0  0  0  0  0  0  0  0
  -39.1408   61.9720   72.1406 H   0  0  0  0  0  0  0  0  0  0  0  0
  -37.1422   61.1530   73.2512 H   0  0  0  0  0  0  0  0  0  0  0  0
  -35.1422   60.6514   71.9619 H   0  0  0  0  0  0  0  0  0  0  0  0
  -35.1570   60.9889   69.5541 H   0  0  0  0  0  0  0  0  0  0  0  0
  1  2  1  0  0  0  0
  1  5  1  0  0  0  0
  1  7  1  0  0  0  0
  2 18  2  0  0  0  0
  2 29  1  0  0  0  0
  3 21  2  0  0  0  0
  4  6  1  0  0  0  0
  4 59  1  0  0  0  0
  4 60  1  0  0  0  0
  4 61  1  0  0  0  0
  5 62  1  0  0  0  0
  6 14  1  0  0  0  0
  7 10  1  0  0  0  0
  7 63  1  0  0  0  0
  7 64  1  0  0  0  0
  8 27  1  0  0  0  0
  8 48  1  0  0  0  0
  8 65  1  0  0  0  0
  9 21  1  0  0  0  0
  9 23  1  0  0  0  0
 10 13  1  0  0  0  0
 10 66  1  0  0  0  0
 10 67  1  0  0  0  0
 11 19  1  0  0  0  0
 11 28  1  0  0  0  0
 11 68  1  0  0  0  0
 12 27  2  0  0  0  0
 13 16  2  0  0  0  0
 13 69  1  0  0  0  0
 14 44  1  0  0  0  0
 14 49  1  0  0  0  0
 15 28  2  0  0  0  0
 16 19  1  0  0  0  0
 16 70  1  0  0  0  0
 17 51  2  0  0  0  0
 17 52  1  0  0  0  0
 19 21  1  0  0  0  0
 19 71  1  1  0  0  0
 20 49  2  0  0  0  0
 22 50  1  0  0  0  0
 22 51  1  0  0  0  0
 23 25  1  0  0  0  0
 23 26  1  0  0  0  0
 23 72  1  6  0  0  0
 24 53  1  0  0  0  0
 24 73  1  0  0  0  0
 25 27  1  0  0  0  0
 25 74  1  0  0  0  0
 25 75  1  0  0  0  0
 26 76  1  0  0  0  0
 26 77  1  0  0  0  0
 26 78  1  0  0  0  0
 28 52  1  0  0  0  0
 29 30  1  0  0  0  0
 29 79  1  0  0  0  0
 29 80  1  0  0  0  0
 30 31  1  0  0  0  0
 30 81  1  0  0  0  0
 30 82  1  0  0  0  0
 31 32  1  0  0  0  0
 31 83  1  0  0  0  0
 31 84  1  0  0  0  0
 32 33  1  0  0  0  0
 32 85  1  0  0  0  0
 32 86  1  0  0  0  0
 33 34  1  0  0  0  0
 33 87  1  0  0  0  0
 33 88  1  0  0  0  0
 34 35  1  0  0  0  0
 34 89  1  0  0  0  0
 34 90  1  0  0  0  0
 35 36  1  0  0  0  0
 35 91  1  0  0  0  0
 35 92  1  0  0  0  0
 36 37  1  0  0  0  0
 36 93  1  0  0  0  0
 36 94  1  0  0  0  0
 37 38  1  0  0  0  0
 37 95  1  0  0  0  0
 37 96  1  0  0  0  0
 38 39  1  0  0  0  0
 38 97  1  0  0  0  0
 38 98  1  0  0  0  0
 39 40  1  0  0  0  0
 39 99  1  0  0  0  0
 39100  1  0  0  0  0
 40 41  1  0  0  0  0
 40101  1  0  0  0  0
 40102  1  0  0  0  0
 41 42  1  0  0  0  0
 41103  1  0  0  0  0
 41104  1  0  0  0  0
 42 43  1  0  0  0  0
 42105  1  0  0  0  0
 42106  1  0  0  0  0
 43107  1  0  0  0  0
 43108  1  0  0  0  0
 43109  1  0  0  0  0
 44 45  1  0  0  0  0
 44110  1  0  0  0  0
 44111  1  0  0  0  0
 45 46  1  0  0  0  0
 45112  1  0  0  0  0
 45113  1  0  0  0  0
 46 47  1  0  0  0  0
 46114  1  0  0  0  0
 46115  1  0  0  0  0
 47 48  1  0  0  0  0
 47116  1  0  0  0  0
 47117  1  0  0  0  0
 48 49  1  0  0  0  0
 48118  1  6  0  0  0
 50 52  1  0  0  0  0
 50119  1  0  0  0  0
 50120  1  0  0  0  0
 51 58  1  0  0  0  0
 52121  1  6  0  0  0
 53 54  2  0  0  0  0
 53 58  1  0  0  0  0
 54 55  1  0  0  0  0
 54122  1  0  0  0  0
 55 56  2  0  0  0  0
 55123  1  0  0  0  0
 56 57  1  0  0  0  0
 56124  1  0  0  0  0
 57 58  2  0  0  0  0
 57125  1  0  0  0  0
M  END
$$$$
/media/chris/experiments/cd1a-new-docking/inputs/ligands/1xz0_ligand.pdb
 OpenBabel07022319323D

125127  0  0  1  0  0  0  0  0999 V2000
  -40.2151   56.1065   59.1308 N   0  0  0  0  0  0  0  0  0  0  0  0
  -41.1076   56.7252   58.3133 C   0  0  0  0  0  0  0  0  0  0  0  0
  -34.6103   59.1028   63.0674 O   0  0  0  0  0  0  0  0  0  0  0  0
  -33.9830   60.2183   57.2806 Si  0  0  0  0  0  0  0  0  0  0  0  0
  -39.3581   55.1655   58.5430 O   0  0  0  0  0  0  0  0  0  0  0  0
  -32.4733   60.7024   58.1067 O   0  0  0  0  0  0  0  0  0  0  0  0
  -40.0082   56.2806   60.5719 C   0  0  0  0  0  0  0  0  0  0  0  0
  -32.5243   59.0166   62.2308 N   0  0  0  0  0  0  0  0  0  0  0  0
  -34.6971   57.0605   64.1450 O   0  0  0  0  0  0  0  0  0  0  0  0
  -38.5576   56.7536   60.7988 C   0  0  0  0  0  0  0  0  0  0  0  0
  -36.8950   59.8150   64.6310 N   0  0  0  0  0  0  0  0  0  0  0  0
  -32.2850   59.4068   64.4457 O   0  0  0  0  0  0  0  0  0  0  0  0
  -38.1064   56.9875   62.2504 C   0  0  0  0  0  0  0  0  0  0  0  0
  -32.2024   60.2608   59.3667 N   0  0  0  0  0  0  0  0  0  0  0  0
  -36.5186   59.1872   66.7844 O   0  0  0  0  0  0  0  0  0  0  0  0
  -37.6390   58.4030   62.6110 C   0  0  0  0  0  0  0  0  0  0  0  0
  -37.5622   61.4562   67.8342 N   0  0  0  0  0  0  0  0  0  0  0  0
  -41.1560   56.4662   57.1110 O   0  0  0  0  0  0  0  0  0  0  0  0
  -36.7890   58.5530   63.8960 C   0  0  1  0  0  0  0  0  0  0  0  0
  -34.1858   61.0476   60.0827 O   0  0  0  0  0  0  0  0  0  0  0  0
  -35.3080   58.3090   63.6770 C   0  0  0  0  0  0  0  0  0  0  0  0
  -39.0286   62.7350   66.7359 O   0  0  0  0  0  0  0  0  0  0  0  0
  -33.6005   56.4517   63.4374 C   0  0  1  0  0  0  0  0  0  0  0  0
  -37.7901   61.0073   70.5182 O   0  0  0  0  0  0  0  0  0  0  0  0
  -32.3188   57.1721   63.8282 C   0  0  0  0  0  0  0  0  0  0  0  0
  -33.4709   54.9478   63.6449 C   0  0  0  0  0  0  0  0  0  0  0  0
  -32.3448   58.6461   63.5070 C   0  0  0  0  0  0  0  0  0  0  0  0
  -36.7626   60.0473   65.9485 C   0  0  0  0  0  0  0  0  0  0  0  0
  -42.0612   57.7663   58.9089 C   0  0  0  0  0  0  0  0  0  0  0  0
  -41.9308   59.1693   58.3006 C   0  0  0  0  0  0  0  0  0  0  0  0
  -42.9192   60.1350   58.9824 C   0  0  0  0  0  0  0  0  0  0  0  0
  -42.6819   60.2901   60.4966 C   0  0  0  0  0  0  0  0  0  0  0  0
  -41.2967   60.8470   60.8749 C   0  0  0  0  0  0  0  0  0  0  0  0
  -41.0391   62.2561   60.3010 C   0  0  0  0  0  0  0  0  0  0  0  0
  -39.6508   62.8448   60.6441 C   0  0  0  0  0  0  0  0  0  0  0  0
  -39.4275   64.2513   60.0767 C   0  0  0  0  0  0  0  0  0  0  0  0
  -40.4056   65.3211   60.5726 C   0  0  0  0  0  0  0  0  0  0  0  0
  -41.8606   64.9538   60.2287 C   0  0  0  0  0  0  0  0  0  0  0  0
  -42.1205   64.7822   58.7244 C   0  0  0  0  0  0  0  0  0  0  0  0
  -43.5601   64.4325   58.3332 C   0  0  0  0  0  0  0  0  0  0  0  0
  -44.6077   65.4963   58.7464 C   0  0  0  0  0  0  0  0  0  0  0  0
  -46.0335   65.0734   58.3385 C   0  0  0  0  0  0  0  0  0  0  0  0
  -46.2911   64.8284   56.8469 C   0  0  0  0  0  0  0  0  0  0  0  0
  -30.9777   59.4679   59.5486 C   0  0  0  0  0  0  0  0  0  0  0  0
  -29.9396   60.2502   60.3751 C   0  0  0  0  0  0  0  0  0  0  0  0
  -30.4373   61.5553   60.9741 C   0  0  0  0  0  0  0  0  0  0  0  0
  -31.4958   61.3498   62.0609 C   0  0  0  0  0  0  0  0  0  0  0  0
  -32.6756   60.4045   61.7793 C   0  0  1  0  0  0  0  0  0  0  0  0
  -33.0822   60.5806   60.3293 C   0  0  0  0  0  0  0  0  0  0  0  0
  -38.0981   62.3368   65.7298 C   0  0  0  0  0  0  0  0  0  0  0  0
  -38.6206   62.1316   67.9798 C   0  0  0  0  0  0  0  0  0  0  0  0
  -37.0426   61.4554   66.4535 C   0  0  1  0  0  0  0  0  0  0  0  0
  -38.8800   61.7835   70.4821 C   0  0  0  0  0  0  0  0  0  0  0  0
  -39.5818   62.0476   71.6656 C   0  0  0  0  0  0  0  0  0  0  0  0
  -40.7341   62.8516   71.6528 C   0  0  0  0  0  0  0  0  0  0  0  0
  -41.1921   63.4088   70.4576 C   0  0  0  0  0  0  0  0  0  0  0  0
  -40.4919   63.1535   69.2753 C   0  0  0  0  0  0  0  0  0  0  0  0
  -39.3418   62.3411   69.2836 C   0  0  0  0  0  0  0  0  0  0  0  0
  -34.0257   60.8073   55.9892 H   0  0  0  0  0  0  0  0  0  0  0  0
  -35.0997   60.6588   58.0390 H   0  0  0  0  0  0  0  0  0  0  0  0
  -34.0226   58.8042   57.1574 H   0  0  0  0  0  0  0  0  0  0  0  0
  -39.5496   55.1020   57.5942 H   0  0  0  0  0  0  0  0  0  0  0  0
  -40.1684   55.3502   61.0755 H   0  0  0  0  0  0  0  0  0  0  0  0
  -40.6964   57.0028   60.9588 H   0  0  0  0  0  0  0  0  0  0  0  0
  -32.5568   58.3074   61.5487 H   0  0  0  0  0  0  0  0  0  0  0  0
  -38.4354   57.6770   60.2723 H   0  0  0  0  0  0  0  0  0  0  0  0
  -37.9494   55.9448   60.4510 H   0  0  0  0  0  0  0  0  0  0  0  0
  -37.0915   60.6076   64.0811 H   0  0  0  0  0  0  0  0  0  0  0  0
  -38.1176   56.2279   62.9488 H   0  0  0  0  0  0  0  0  0  0  0  0
  -37.8799   59.2173   62.0245 H   0  0  0  0  0  0  0  0  0  0  0  0
  -37.2383   57.7881   64.4943 H   0  0  0  0  0  0  0  0  0  0  0  0
  -33.7969   56.5590   62.3911 H   0  0  0  0  0  0  0  0  0  0  0  0
  -37.4997   60.6450   71.3320 H   0  0  0  0  0  0  0  0  0  0  0  0
  -31.5024   56.7236   63.3017 H   0  0  0  0  0  0  0  0  0  0  0  0
  -32.2122   57.0792   64.8888 H   0  0  0  0  0  0  0  0  0  0  0  0
  -33.2714   54.7459   64.6765 H   0  0  0  0  0  0  0  0  0  0  0  0
  -32.6671   54.5731   63.0462 H   0  0  0  0  0  0  0  0  0  0  0  0
  -34.3833   54.4682   63.3576 H   0  0  0  0  0  0  0  0  0  0  0  0
  -41.8653   57.8374   59.9584 H   0  0  0  0  0  0  0  0  0  0  0  0
  -43.0535   57.4307   58.6907 H   0  0  0  0  0  0  0  0  0  0  0  0
  -42.1466   59.1227   57.2536 H   0  0  0  0  0  0  0  0  0  0  0  0
  -40.9330   59.5252   58.4507 H   0  0  0  0  0  0  0  0  0  0  0  0
  -43.9120   59.7657   58.8314 H   0  0  0  0  0  0  0  0  0  0  0  0
  -42.7727   61.0985   58.5407 H   0  0  0  0  0  0  0  0  0  0  0  0
  -42.7903   59.3278   60.9517 H   0  0  0  0  0  0  0  0  0  0  0  0
  -43.4004   61.0025   60.8446 H   0  0  0  0  0  0  0  0  0  0  0  0
  -40.5471   60.1827   60.4984 H   0  0  0  0  0  0  0  0  0  0  0  0
  -41.2615   60.9232   61.9416 H   0  0  0  0  0  0  0  0  0  0  0  0
  -41.7869   62.9163   60.6881 H   0  0  0  0  0  0  0  0  0  0  0  0
  -41.0746   62.1618   59.2358 H   0  0  0  0  0  0  0  0  0  0  0  0
  -38.8994   62.1954   60.2459 H   0  0  0  0  0  0  0  0  0  0  0  0
  -39.5957   62.9222   61.7099 H   0  0  0  0  0  0  0  0  0  0  0  0
  -39.5117   64.1951   59.0115 H   0  0  0  0  0  0  0  0  0  0  0  0
  -38.4594   64.5563   60.4153 H   0  0  0  0  0  0  0  0  0  0  0  0
  -40.1636   66.2553   60.1104 H   0  0  0  0  0  0  0  0  0  0  0  0
  -40.3180   65.3905   61.6368 H   0  0  0  0  0  0  0  0  0  0  0  0
  -42.4995   65.7303   60.5945 H   0  0  0  0  0  0  0  0  0  0  0  0
  -42.0590   64.0080   60.6880 H   0  0  0  0  0  0  0  0  0  0  0  0
  -41.4839   63.9993   58.3683 H   0  0  0  0  0  0  0  0  0  0  0  0
  -41.9229   65.7371   58.2840 H   0  0  0  0  0  0  0  0  0  0  0  0
  -43.8195   63.5065   58.8023 H   0  0  0  0  0  0  0  0  0  0  0  0
  -43.5832   64.3776   57.2649 H   0  0  0  0  0  0  0  0  0  0  0  0
  -44.3695   66.4231   58.2676 H   0  0  0  0  0  0  0  0  0  0  0  0
  -44.5796   65.5994   59.8110 H   0  0  0  0  0  0  0  0  0  0  0  0
  -46.7022   65.8450   58.6584 H   0  0  0  0  0  0  0  0  0  0  0  0
  -46.1834   64.1220   58.8046 H   0  0  0  0  0  0  0  0  0  0  0  0
  -46.1594   65.7429   56.3073 H   0  0  0  0  0  0  0  0  0  0  0  0
  -47.2919   64.4750   56.7111 H   0  0  0  0  0  0  0  0  0  0  0  0
  -45.6017   64.0962   56.4814 H   0  0  0  0  0  0  0  0  0  0  0  0
  -30.5623   59.2384   58.5896 H   0  0  0  0  0  0  0  0  0  0  0  0
  -31.2255   58.5677   60.0712 H   0  0  0  0  0  0  0  0  0  0  0  0
  -29.1100   60.4741   59.7374 H   0  0  0  0  0  0  0  0  0  0  0  0
  -29.6860   59.6219   61.2032 H   0  0  0  0  0  0  0  0  0  0  0  0
  -30.8625   62.1491   60.1920 H   0  0  0  0  0  0  0  0  0  0  0  0
  -29.5988   62.0378   61.4313 H   0  0  0  0  0  0  0  0  0  0  0  0
  -31.9096   62.3114   62.2822 H   0  0  0  0  0  0  0  0  0  0  0  0
  -30.9620   60.8672   62.8528 H   0  0  0  0  0  0  0  0  0  0  0  0
  -33.4902   60.6955   62.4090 H   0  0  0  0  0  0  0  0  0  0  0  0
  -37.6310   63.1950   65.2938 H   0  0  0  0  0  0  0  0  0  0  0  0
  -38.5798   61.8031   64.9373 H   0  0  0  0  0  0  0  0  0  0  0  0
  -36.0677   61.8667   66.2942 H   0  0  0  0  0  0  0  0  0  0  0  0
  -39.2487   61.6473   72.5566 H   0  0  0  0  0  0  0  0  0  0  0  0
  -41.2445   63.0310   72.5316 H   0  0  0  0  0  0  0  0  0  0  0  0
  -42.0367   64.0016   70.4473 H   0  0  0  0  0  0  0  0  0  0  0  0
  -40.8209   63.5643   68.3876 H   0  0  0  0  0  0  0  0  0  0  0  0
  1  2  1  0  0  0  0
  1  5  1  0  0  0  0
  1  7  1  0  0  0  0
  2 18  2  0  0  0  0
  2 29  1  0  0  0  0
  3 21  2  0  0  0  0
  4  6  1  0  0  0  0
  4 59  1  0  0  0  0
  4 60  1  0  0  0  0
  4 61  1  0  0  0  0
  5 62  1  0  0  0  0
  6 14  1  0  0  0  0
  7 10  1  0  0  0  0
  7 63  1  0  0  0  0
  7 64  1  0  0  0  0
  8 27  1  0  0  0  0
  8 48  1  0  0  0  0
  8 65  1  0  0  0  0
  9 21  1  0  0  0  0
  9 23  1  0  0  0  0
 10 13  1  0  0  0  0
 10 66  1  0  0  0  0
 10 67  1  0  0  0  0
 11 19  1  0  0  0  0
 11 28  1  0  0  0  0
 11 68  1  0  0  0  0
 12 27  2  0  0  0  0
 13 16  2  0  0  0  0
 13 69  1  0  0  0  0
 14 44  1  0  0  0  0
 14 49  1  0  0  0  0
 15 28  2  0  0  0  0
 16 19  1  0  0  0  0
 16 70  1  0  0  0  0
 17 51  2  0  0  0  0
 17 52  1  0  0  0  0
 19 21  1  0  0  0  0
 19 71  1  1  0  0  0
 20 49  2  0  0  0  0
 22 50  1  0  0  0  0
 22 51  1  0  0  0  0
 23 25  1  0  0  0  0
 23 26  1  0  0  0  0
 23 72  1  6  0  0  0
 24 53  1  0  0  0  0
 24 73  1  0  0  0  0
 25 27  1  0  0  0  0
 25 74  1  0  0  0  0
 25 75  1  0  0  0  0
 26 76  1  0  0  0  0
 26 77  1  0  0  0  0
 26 78  1  0  0  0  0
 28 52  1  0  0  0  0
 29 30  1  0  0  0  0
 29 79  1  0  0  0  0
 29 80  1  0  0  0  0
 30 31  1  0  0  0  0
 30 81  1  0  0  0  0
 30 82  1  0  0  0  0
 31 32  1  0  0  0  0
 31 83  1  0  0  0  0
 31 84  1  0  0  0  0
 32 33  1  0  0  0  0
 32 85  1  0  0  0  0
 32 86  1  0  0  0  0
 33 34  1  0  0  0  0
 33 87  1  0  0  0  0
 33 88  1  0  0  0  0
 34 35  1  0  0  0  0
 34 89  1  0  0  0  0
 34 90  1  0  0  0  0
 35 36  1  0  0  0  0
 35 91  1  0  0  0  0
 35 92  1  0  0  0  0
 36 37  1  0  0  0  0
 36 93  1  0  0  0  0
 36 94  1  0  0  0  0
 37 38  1  0  0  0  0
 37 95  1  0  0  0  0
 37 96  1  0  0  0  0
 38 39  1  0  0  0  0
 38 97  1  0  0  0  0
 38 98  1  0  0  0  0
 39 40  1  0  0  0  0
 39 99  1  0  0  0  0
 39100  1  0  0  0  0
 40 41  1  0  0  0  0
 40101  1  0  0  0  0
 40102  1  0  0  0  0
 41 42  1  0  0  0  0
 41103  1  0  0  0  0
 41104  1  0  0  0  0
 42 43  1  0  0  0  0
 42105  1  0  0  0  0
 42106  1  0  0  0  0
 43107  1  0  0  0  0
 43108  1  0  0  0  0
 43109  1  0  0  0  0
 44 45  1  0  0  0  0
 44110  1  0  0  0  0
 44111  1  0  0  0  0
 45 46  1  0  0  0  0
 45112  1  0  0  0  0
 45113  1  0  0  0  0
 46 47  1  0  0  0  0
 46114  1  0  0  0  0
 46115  1  0  0  0  0
 47 48  1  0  0  0  0
 47116  1  0  0  0  0
 47117  1  0  0  0  0
 48 49  1  0  0  0  0
 48118  1  1  0  0  0
 50 52  1  0  0  0  0
 50119  1  0  0  0  0
 50120  1  0  0  0  0
 51 58  1  0  0  0  0
 52121  1  1  0  0  0
 53 54  2  0  0  0  0
 53 58  1  0  0  0  0
 54 55  1  0  0  0  0
 54122  1  0  0  0  0
 55 56  2  0  0  0  0
 55123  1  0  0  0  0
 56 57  1  0  0  0  0
 56124  1  0  0  0  0
 57 58  2  0  0  0  0
 57125  1  0  0  0  0
M  END
$$$$
/media/chris/experiments/cd1a-new-docking/inputs/ligands/1xz0_ligand.pdb
 OpenBabel07022319323D

125127  0  0  1  0  0  0  0  0999 V2000
  -38.2349   61.2640   59.2525 N   0  0  0  0  0  0  0  0  0  0  0  0
  -38.3144   62.1542   58.2283 C   0  0  0  0  0  0  0  0  0  0  0  0
  -34.4677   58.7167   64.4620 O   0  0  0  0  0  0  0  0  0  0  0  0
  -31.1737   64.7787   65.3710 Si  0  0  0  0  0  0  0  0  0  0  0  0
  -37.5169   61.6622   60.3889 O   0  0  0  0  0  0  0  0  0  0  0  0
  -30.0833   63.3989   65.6921 O   0  0  0  0  0  0  0  0  0  0  0  0
  -38.8026   59.9157   59.3501 C   0  0  0  0  0  0  0  0  0  0  0  0
  -32.1171   59.6609   64.3715 N   0  0  0  0  0  0  0  0  0  0  0  0
  -34.8529   57.6257   62.4617 O   0  0  0  0  0  0  0  0  0  0  0  0
  -39.1167   59.6292   60.8329 C   0  0  0  0  0  0  0  0  0  0  0  0
  -36.8950   59.8150   64.6310 N   0  0  0  0  0  0  0  0  0  0  0  0
  -33.2605   57.8052   64.9753 O   0  0  0  0  0  0  0  0  0  0  0  0
  -37.9469   59.6864   61.8299 C   0  0  0  0  0  0  0  0  0  0  0  0
  -30.4910   62.1230   65.4431 N   0  0  0  0  0  0  0  0  0  0  0  0
  -37.6467   59.1566   66.6741 O   0  0  0  0  0  0  0  0  0  0  0  0
  -37.6390   58.4030   62.6110 C   0  0  0  0  0  0  0  0  0  0  0  0
  -38.7655   62.0216   66.1297 N   0  0  0  0  0  0  0  0  0  0  0  0
  -38.9367   61.8883   57.2001 O   0  0  0  0  0  0  0  0  0  0  0  0
  -36.7890   58.5530   63.8960 C   0  0  1  0  0  0  0  0  0  0  0  0
  -32.6405   62.7538   65.6599 O   0  0  0  0  0  0  0  0  0  0  0  0
  -35.3080   58.3090   63.6770 C   0  0  0  0  0  0  0  0  0  0  0  0
  -37.4262   63.5725   65.2393 O   0  0  0  0  0  0  0  0  0  0  0  0
  -33.6205   56.8810   62.4377 C   0  0  1  0  0  0  0  0  0  0  0  0
  -41.4791   62.3262   66.1586 O   0  0  0  0  0  0  0  0  0  0  0  0
  -32.4822   57.8264   62.7912 C   0  0  0  0  0  0  0  0  0  0  0  0
  -33.6090   55.6479   63.3326 C   0  0  0  0  0  0  0  0  0  0  0  0
  -32.6214   58.4357   64.1645 C   0  0  0  0  0  0  0  0  0  0  0  0
  -37.2920   60.0330   65.8968 C   0  0  0  0  0  0  0  0  0  0  0  0
  -37.6079   63.5070   58.3647 C   0  0  0  0  0  0  0  0  0  0  0  0
  -36.1625   63.5241   57.8490 C   0  0  0  0  0  0  0  0  0  0  0  0
  -35.5459   64.9218   58.0504 C   0  0  0  0  0  0  0  0  0  0  0  0
  -34.0959   65.0334   57.5424 C   0  0  0  0  0  0  0  0  0  0  0  0
  -33.4492   66.4161   57.7471 C   0  0  0  0  0  0  0  0  0  0  0  0
  -34.2201   67.5500   57.0392 C   0  0  0  0  0  0  0  0  0  0  0  0
  -35.6785   67.7323   57.5205 C   0  0  0  0  0  0  0  0  0  0  0  0
  -36.4264   68.8532   56.7895 C   0  0  0  0  0  0  0  0  0  0  0  0
  -37.8711   69.0826   57.2446 C   0  0  0  0  0  0  0  0  0  0  0  0
  -38.5396   70.2131   56.4412 C   0  0  0  0  0  0  0  0  0  0  0  0
  -38.6205   69.9404   54.9316 C   0  0  0  0  0  0  0  0  0  0  0  0
  -37.2805   69.7189   54.2224 C   0  0  0  0  0  0  0  0  0  0  0  0
  -37.4015   69.4641   52.6992 C   0  0  0  0  0  0  0  0  0  0  0  0
  -36.0203   69.2326   52.0535 C   0  0  0  0  0  0  0  0  0  0  0  0
  -35.9878   68.9835   50.5408 C   0  0  0  0  0  0  0  0  0  0  0  0
  -29.4546   61.1522   65.0621 C   0  0  0  0  0  0  0  0  0  0  0  0
  -29.2534   60.1051   66.1738 C   0  0  0  0  0  0  0  0  0  0  0  0
  -30.2561   60.1688   67.3141 C   0  0  0  0  0  0  0  0  0  0  0  0
  -31.6752   59.7861   66.8854 C   0  0  0  0  0  0  0  0  0  0  0  0
  -32.2649   60.4236   65.6164 C   0  0  1  0  0  0  0  0  0  0  0  0
  -31.8039   61.8669   65.5585 C   0  0  0  0  0  0  0  0  0  0  0  0
  -36.5259   62.5734   65.7165 C   0  0  0  0  0  0  0  0  0  0  0  0
  -38.7685   63.1323   65.5264 C   0  0  0  0  0  0  0  0  0  0  0  0
  -37.4151   61.4760   66.3644 C   0  0  1  0  0  0  0  0  0  0  0  0
  -41.2815   63.4986   65.5437 C   0  0  0  0  0  0  0  0  0  0  0  0
  -42.3792   64.3129   65.2356 C   0  0  0  0  0  0  0  0  0  0  0  0
  -42.1991   65.5436   64.5820 C   0  0  0  0  0  0  0  0  0  0  0  0
  -40.9181   65.9787   64.2380 C   0  0  0  0  0  0  0  0  0  0  0  0
  -39.8192   65.1730   64.5489 C   0  0  0  0  0  0  0  0  0  0  0  0
  -39.9973   63.9351   65.1960 C   0  0  0  0  0  0  0  0  0  0  0  0
  -30.5166   65.9905   65.7116 H   0  0  0  0  0  0  0  0  0  0  0  0
  -32.3515   64.6431   66.1526 H   0  0  0  0  0  0  0  0  0  0  0  0
  -31.5192   64.7985   63.9938 H   0  0  0  0  0  0  0  0  0  0  0  0
  -37.1718   62.5589   60.2555 H   0  0  0  0  0  0  0  0  0  0  0  0
  -38.0974   59.1988   58.9845 H   0  0  0  0  0  0  0  0  0  0  0  0
  -39.6954   59.8480   58.7642 H   0  0  0  0  0  0  0  0  0  0  0  0
  -31.6121   60.0780   63.6366 H   0  0  0  0  0  0  0  0  0  0  0  0
  -39.5368   58.6466   60.8876 H   0  0  0  0  0  0  0  0  0  0  0  0
  -39.7690   60.4229   61.1319 H   0  0  0  0  0  0  0  0  0  0  0  0
  -36.6386   60.6199   64.1253 H   0  0  0  0  0  0  0  0  0  0  0  0
  -37.3952   60.5477   61.9667 H   0  0  0  0  0  0  0  0  0  0  0  0
  -37.9824   57.4826   62.2948 H   0  0  0  0  0  0  0  0  0  0  0  0
  -37.2383   57.7881   64.4943 H   0  0  0  0  0  0  0  0  0  0  0  0
  -33.5021   56.4916   61.4482 H   0  0  0  0  0  0  0  0  0  0  0  0
  -42.3477   62.0547   66.3817 H   0  0  0  0  0  0  0  0  0  0  0  0
  -32.4591   58.6160   62.0695 H   0  0  0  0  0  0  0  0  0  0  0  0
  -31.5791   57.2526   62.7877 H   0  0  0  0  0  0  0  0  0  0  0  0
  -33.7234   55.9471   64.3536 H   0  0  0  0  0  0  0  0  0  0  0  0
  -32.6801   55.1302   63.2146 H   0  0  0  0  0  0  0  0  0  0  0  0
  -34.4155   55.0005   63.0581 H   0  0  0  0  0  0  0  0  0  0  0  0
  -37.5965   63.7753   59.4005 H   0  0  0  0  0  0  0  0  0  0  0  0
  -38.1555   64.1991   57.7596 H   0  0  0  0  0  0  0  0  0  0  0  0
  -36.1555   63.2809   56.8070 H   0  0  0  0  0  0  0  0  0  0  0  0
  -35.5872   62.8053   58.3941 H   0  0  0  0  0  0  0  0  0  0  0  0
  -35.5569   65.1492   59.0959 H   0  0  0  0  0  0  0  0  0  0  0  0
  -36.1332   65.6099   57.4790 H   0  0  0  0  0  0  0  0  0  0  0  0
  -34.0915   64.8147   56.4950 H   0  0  0  0  0  0  0  0  0  0  0  0
  -33.5187   64.3405   58.1183 H   0  0  0  0  0  0  0  0  0  0  0  0
  -32.4522   66.3875   57.3599 H   0  0  0  0  0  0  0  0  0  0  0  0
  -33.4628   66.6249   58.7965 H   0  0  0  0  0  0  0  0  0  0  0  0
  -34.2384   67.3376   55.9906 H   0  0  0  0  0  0  0  0  0  0  0  0
  -33.7067   68.4591   57.2732 H   0  0  0  0  0  0  0  0  0  0  0  0
  -35.6644   67.9599   58.5659 H   0  0  0  0  0  0  0  0  0  0  0  0
  -36.1960   66.8194   57.3116 H   0  0  0  0  0  0  0  0  0  0  0  0
  -36.4425   68.6142   55.7466 H   0  0  0  0  0  0  0  0  0  0  0  0
  -35.8987   69.7564   57.0147 H   0  0  0  0  0  0  0  0  0  0  0  0
  -37.8719   69.3450   58.2819 H   0  0  0  0  0  0  0  0  0  0  0  0
  -38.4232   68.1808   57.0809 H   0  0  0  0  0  0  0  0  0  0  0  0
  -37.9776   71.1112   56.5916 H   0  0  0  0  0  0  0  0  0  0  0  0
  -39.5456   70.2937   56.7966 H   0  0  0  0  0  0  0  0  0  0  0  0
  -39.1010   70.7785   54.4716 H   0  0  0  0  0  0  0  0  0  0  0  0
  -39.1590   69.0213   54.8302 H   0  0  0  0  0  0  0  0  0  0  0  0
  -36.8018   68.8716   54.6671 H   0  0  0  0  0  0  0  0  0  0  0  0
  -36.7185   70.6219   54.3389 H   0  0  0  0  0  0  0  0  0  0  0  0
  -37.8619   70.3139   52.2400 H   0  0  0  0  0  0  0  0  0  0  0  0
  -37.9927   68.5846   52.5518 H   0  0  0  0  0  0  0  0  0  0  0  0
  -35.5809   68.3811   52.5297 H   0  0  0  0  0  0  0  0  0  0  0  0
  -35.4923   70.1526   52.1934 H   0  0  0  0  0  0  0  0  0  0  0  0
  -36.5013   68.0715   50.3184 H   0  0  0  0  0  0  0  0  0  0  0  0
  -34.9719   68.9099   50.2132 H   0  0  0  0  0  0  0  0  0  0  0  0
  -36.4676   69.7954   50.0353 H   0  0  0  0  0  0  0  0  0  0  0  0
  -28.5328   61.6695   64.8960 H   0  0  0  0  0  0  0  0  0  0  0  0
  -29.7651   60.6505   64.1694 H   0  0  0  0  0  0  0  0  0  0  0  0
  -28.2755   60.2435   66.5853 H   0  0  0  0  0  0  0  0  0  0  0  0
  -29.3921   59.1507   65.7104 H   0  0  0  0  0  0  0  0  0  0  0  0
  -30.2735   61.1676   67.6974 H   0  0  0  0  0  0  0  0  0  0  0  0
  -29.9440   59.4620   68.0544 H   0  0  0  0  0  0  0  0  0  0  0  0
  -32.3269   60.0384   67.6957 H   0  0  0  0  0  0  0  0  0  0  0  0
  -31.5993   58.7472   66.6408 H   0  0  0  0  0  0  0  0  0  0  0  0
  -33.3314   60.3999   65.6993 H   0  0  0  0  0  0  0  0  0  0  0  0
  -35.8590   62.9892   66.4427 H   0  0  0  0  0  0  0  0  0  0  0  0
  -35.9238   62.1762   64.9262 H   0  0  0  0  0  0  0  0  0  0  0  0
  -37.1134   61.3290   67.3804 H   0  0  0  0  0  0  0  0  0  0  0  0
  -43.3305   64.0054   65.4915 H   0  0  0  0  0  0  0  0  0  0  0  0
  -43.0182   66.1290   64.3551 H   0  0  0  0  0  0  0  0  0  0  0  0
  -40.7842   66.8837   63.7603 H   0  0  0  0  0  0  0  0  0  0  0  0
  -38.8681   65.4883   64.3018 H   0  0  0  0  0  0  0  0  0  0  0  0
  1  2  1  0  0  0  0
  1  5  1  0  0  0  0
  1  7  1  0  0  0  0
  2 18  2  0  0  0  0
  2 29  1  0  0  0  0
  3 21  2  0  0  0  0
  4  6  1  0  0  0  0
  4 59  1  0  0  0  0
  4 60  1  0  0  0  0
  4 61  1  0  0  0  0
  5 62  1  0  0  0  0
  6 14  1  0  0  0  0
  7 10  1  0  0  0  0
  7 63  1  0  0  0  0
  7 64  1  0  0  0  0
  8 27  1  0  0  0  0
  8 48  1  0  0  0  0
  8 65  1  0  0  0  0
  9 21  1  0  0  0  0
  9 23  1  0  0  0  0
 10 13  1  0  0  0  0
 10 66  1  0  0  0  0
 10 67  1  0  0  0  0
 11 19  1  0  0  0  0
 11 28  1  0  0  0  0
 11 68  1  0  0  0  0
 12 27  2  0  0  0  0
 13 16  2  0  0  0  0
 13 69  1  0  0  0  0
 14 44  1  0  0  0  0
 14 49  1  0  0  0  0
 15 28  2  0  0  0  0
 16 19  1  0  0  0  0
 16 70  1  0  0  0  0
 17 51  2  0  0  0  0
 17 52  1  0  0  0  0
 19 21  1  0  0  0  0
 19 71  1  1  0  0  0
 20 49  2  0  0  0  0
 22 50  1  0  0  0  0
 22 51  1  0  0  0  0
 23 25  1  0  0  0  0
 23 26  1  0  0  0  0
 23 72  1  6  0  0  0
 24 53  1  0  0  0  0
 24 73  1  0  0  0  0
 25 27  1  0  0  0  0
 25 74  1  0  0  0  0
 25 75  1  0  0  0  0
 26 76  1  0  0  0  0
 26 77  1  0  0  0  0
 26 78  1  0  0  0  0
 28 52  1  0  0  0  0
 29 30  1  0  0  0  0
 29 79  1  0  0  0  0
 29 80  1  0  0  0  0
 30 31  1  0  0  0  0
 30 81  1  0  0  0  0
 30 82  1  0  0  0  0
 31 32  1  0  0  0  0
 31 83  1  0  0  0  0
 31 84  1  0  0  0  0
 32 33  1  0  0  0  0
 32 85  1  0  0  0  0
 32 86  1  0  0  0  0
 33 34  1  0  0  0  0
 33 87  1  0  0  0  0
 33 88  1  0  0  0  0
 34 35  1  0  0  0  0
 34 89  1  0  0  0  0
 34 90  1  0  0  0  0
 35 36  1  0  0  0  0
 35 91  1  0  0  0  0
 35 92  1  0  0  0  0
 36 37  1  0  0  0  0
 36 93  1  0  0  0  0
 36 94  1  0  0  0  0
 37 38  1  0  0  0  0
 37 95  1  0  0  0  0
 37 96  1  0  0  0  0
 38 39  1  0  0  0  0
 38 97  1  0  0  0  0
 38 98  1  0  0  0  0
 39 40  1  0  0  0  0
 39 99  1  0  0  0  0
 39100  1  0  0  0  0
 40 41  1  0  0  0  0
 40101  1  0  0  0  0
 40102  1  0  0  0  0
 41 42  1  0  0  0  0
 41103  1  0  0  0  0
 41104  1  0  0  0  0
 42 43  1  0  0  0  0
 42105  1  0  0  0  0
 42106  1  0  0  0  0
 43107  1  0  0  0  0
 43108  1  0  0  0  0
 43109  1  0  0  0  0
 44 45  1  0  0  0  0
 44110  1  0  0  0  0
 44111  1  0  0  0  0
 45 46  1  0  0  0  0
 45112  1  0  0  0  0
 45113  1  0  0  0  0
 46 47  1  0  0  0  0
 46114  1  0  0  0  0
 46115  1  0  0  0  0
 47 48  1  0  0  0  0
 47116  1  0  0  0  0
 47117  1  0  0  0  0
 48 49  1  0  0  0  0
 48118  1  1  0  0  0
 50 52  1  0  0  0  0
 50119  1  0  0  0  0
 50120  1  0  0  0  0
 51 58  1  0  0  0  0
 52121  1  1  0  0  0
 53 54  2  0  0  0  0
 53 58  1  0  0  0  0
 54 55  1  0  0  0  0
 54122  1  0  0  0  0
 55 56  2  0  0  0  0
 55123  1  0  0  0  0
 56 57  1  0  0  0  0
 56124  1  0  0  0  0
 57 58  2  0  0  0  0
 57125  1  0  0  0  0
M  END
$$$$
/media/chris/experiments/cd1a-new-docking/inputs/ligands/1xz0_ligand.pdb
 OpenBabel07022319323D

125127  0  0  1  0  0  0  0  0999 V2000
  -40.4884   60.5770   59.5198 N   0  0  0  0  0  0  0  0  0  0  0  0
  -40.4745   59.7734   58.4236 C   0  0  0  0  0  0  0  0  0  0  0  0
  -34.9015   57.3291   63.0745 O   0  0  0  0  0  0  0  0  0  0  0  0
  -26.3164   59.9723   58.1198 Si  0  0  0  0  0  0  0  0  0  0  0  0
  -41.5344   61.5055   59.6163 O   0  0  0  0  0  0  0  0  0  0  0  0
  -28.0993   59.9524   58.2496 O   0  0  0  0  0  0  0  0  0  0  0  0
  -39.5502   60.6191   60.6457 C   0  0  0  0  0  0  0  0  0  0  0  0
  -30.2607   60.6022   62.0914 N   0  0  0  0  0  0  0  0  0  0  0  0
  -34.3234   59.2293   64.2555 O   0  0  0  0  0  0  0  0  0  0  0  0
  -38.4615   59.5524   60.4085 C   0  0  0  0  0  0  0  0  0  0  0  0
  -36.8950   59.8150   64.6310 N   0  0  0  0  0  0  0  0  0  0  0  0
  -30.1836   59.4754   64.0509 O   0  0  0  0  0  0  0  0  0  0  0  0
  -37.3686   59.4033   61.4804 C   0  0  0  0  0  0  0  0  0  0  0  0
  -28.7028   59.8641   59.4678 N   0  0  0  0  0  0  0  0  0  0  0  0
  -38.3860   61.0055   63.3930 O   0  0  0  0  0  0  0  0  0  0  0  0
  -37.6390   58.4030   62.6110 C   0  0  0  0  0  0  0  0  0  0  0  0
  -37.7121   63.3810   64.5077 N   0  0  0  0  0  0  0  0  0  0  0  0
  -39.5985   58.9228   58.2684 O   0  0  0  0  0  0  0  0  0  0  0  0
  -36.7890   58.5530   63.8960 C   0  0  1  0  0  0  0  0  0  0  0  0
  -27.8976   61.8898   60.0280 O   0  0  0  0  0  0  0  0  0  0  0  0
  -35.3080   58.3090   63.6770 C   0  0  0  0  0  0  0  0  0  0  0  0
  -35.7326   63.7445   65.4780 O   0  0  0  0  0  0  0  0  0  0  0  0
  -32.9090   58.9936   64.1228 C   0  0  1  0  0  0  0  0  0  0  0  0
  -39.1855   65.7720   64.0841 O   0  0  0  0  0  0  0  0  0  0  0  0
  -32.2928   60.1754   63.3893 C   0  0  0  0  0  0  0  0  0  0  0  0
  -32.1864   58.7248   65.4370 C   0  0  0  0  0  0  0  0  0  0  0  0
  -30.8062   60.0316   63.1755 C   0  0  0  0  0  0  0  0  0  0  0  0
  -37.6390   60.9007   64.3569 C   0  0  0  0  0  0  0  0  0  0  0  0
  -41.5703   59.9425   57.3659 C   0  0  0  0  0  0  0  0  0  0  0  0
  -41.9349   58.6536   56.6167 C   0  0  0  0  0  0  0  0  0  0  0  0
  -40.6935   58.0909   55.8980 C   0  0  0  0  0  0  0  0  0  0  0  0
  -40.9746   56.8013   55.1035 C   0  0  0  0  0  0  0  0  0  0  0  0
  -39.7463   56.2076   54.3889 C   0  0  0  0  0  0  0  0  0  0  0  0
  -38.6153   55.8175   55.3634 C   0  0  0  0  0  0  0  0  0  0  0  0
  -38.0709   56.9874   56.2159 C   0  0  0  0  0  0  0  0  0  0  0  0
  -36.9372   56.5763   57.1626 C   0  0  0  0  0  0  0  0  0  0  0  0
  -36.3766   57.6995   58.0407 C   0  0  0  0  0  0  0  0  0  0  0  0
  -35.8163   58.8521   57.1875 C   0  0  0  0  0  0  0  0  0  0  0  0
  -35.2224   60.0048   58.0112 C   0  0  0  0  0  0  0  0  0  0  0  0
  -34.0422   59.6369   58.9165 C   0  0  0  0  0  0  0  0  0  0  0  0
  -33.4818   60.8208   59.7435 C   0  0  0  0  0  0  0  0  0  0  0  0
  -34.5517   61.4080   60.6863 C   0  0  0  0  0  0  0  0  0  0  0  0
  -34.1388   62.6012   61.5564 C   0  0  0  0  0  0  0  0  0  0  0  0
  -29.5792   58.7061   59.6976 C   0  0  0  0  0  0  0  0  0  0  0  0
  -28.9607   57.7523   60.7370 C   0  0  0  0  0  0  0  0  0  0  0  0
  -27.7108   58.2698   61.4296 C   0  0  0  0  0  0  0  0  0  0  0  0
  -27.9852   59.4668   62.3437 C   0  0  0  0  0  0  0  0  0  0  0  0
  -28.8224   60.6378   61.8028 C   0  0  1  0  0  0  0  0  0  0  0  0
  -28.4518   60.8469   60.3475 C   0  0  0  0  0  0  0  0  0  0  0  0
  -36.0749   62.4189   65.8807 C   0  0  0  0  0  0  0  0  0  0  0  0
  -36.7896   64.2363   64.6302 C   0  0  0  0  0  0  0  0  0  0  0  0
  -37.4607   62.1261   65.2416 C   0  0  1  0  0  0  0  0  0  0  0  0
  -37.9941   66.3139   63.8039 C   0  0  0  0  0  0  0  0  0  0  0  0
  -37.9298   67.6084   63.2718 C   0  0  0  0  0  0  0  0  0  0  0  0
  -36.6920   68.1959   62.9603 C   0  0  0  0  0  0  0  0  0  0  0  0
  -35.5037   67.4992   63.1867 C   0  0  0  0  0  0  0  0  0  0  0  0
  -35.5622   66.2099   63.7232 C   0  0  0  0  0  0  0  0  0  0  0  0
  -36.8016   65.6152   64.0282 C   0  0  0  0  0  0  0  0  0  0  0  0
  -25.9423   60.0694   56.7534 H   0  0  0  0  0  0  0  0  0  0  0  0
  -25.7883   58.7749   58.6711 H   0  0  0  0  0  0  0  0  0  0  0  0
  -25.8024   61.0882   58.8318 H   0  0  0  0  0  0  0  0  0  0  0  0
  -42.1131   61.4222   58.8423 H   0  0  0  0  0  0  0  0  0  0  0  0
  -40.0695   60.4097   61.5575 H   0  0  0  0  0  0  0  0  0  0  0  0
  -39.1057   61.5897   60.7194 H   0  0  0  0  0  0  0  0  0  0  0  0
  -30.8681   61.0270   61.4434 H   0  0  0  0  0  0  0  0  0  0  0  0
  -37.9751   59.7904   59.4856 H   0  0  0  0  0  0  0  0  0  0  0  0
  -38.9859   58.6198   60.4219 H   0  0  0  0  0  0  0  0  0  0  0  0
  -36.3417   59.8774   65.4429 H   0  0  0  0  0  0  0  0  0  0  0  0
  -36.4946   59.9506   61.4407 H   0  0  0  0  0  0  0  0  0  0  0  0
  -38.3541   57.6645   62.5194 H   0  0  0  0  0  0  0  0  0  0  0  0
  -37.2383   57.7881   64.4943 H   0  0  0  0  0  0  0  0  0  0  0  0
  -32.7872   58.0895   63.5636 H   0  0  0  0  0  0  0  0  0  0  0  0
  -39.9705   66.2586   63.9256 H   0  0  0  0  0  0  0  0  0  0  0  0
  -32.4700   61.0614   63.9624 H   0  0  0  0  0  0  0  0  0  0  0  0
  -32.7501   60.2240   62.4232 H   0  0  0  0  0  0  0  0  0  0  0  0
  -32.2581   59.5872   66.0663 H   0  0  0  0  0  0  0  0  0  0  0  0
  -31.1565   58.5112   65.2406 H   0  0  0  0  0  0  0  0  0  0  0  0
  -32.6372   57.8872   65.9271 H   0  0  0  0  0  0  0  0  0  0  0  0
  -41.2348   60.6625   56.6490 H   0  0  0  0  0  0  0  0  0  0  0  0
  -42.4520   60.2515   57.8874 H   0  0  0  0  0  0  0  0  0  0  0  0
  -42.6955   58.8667   55.8950 H   0  0  0  0  0  0  0  0  0  0  0  0
  -42.2921   57.9292   57.3185 H   0  0  0  0  0  0  0  0  0  0  0  0
  -39.9440   57.8798   56.6319 H   0  0  0  0  0  0  0  0  0  0  0  0
  -40.3752   58.8310   55.1938 H   0  0  0  0  0  0  0  0  0  0  0  0
  -41.7173   57.0197   54.3648 H   0  0  0  0  0  0  0  0  0  0  0  0
  -41.2937   56.0697   55.8162 H   0  0  0  0  0  0  0  0  0  0  0  0
  -39.3681   56.9337   53.6999 H   0  0  0  0  0  0  0  0  0  0  0  0
  -40.0641   55.3150   53.8918 H   0  0  0  0  0  0  0  0  0  0  0  0
  -37.8052   55.4157   54.7915 H   0  0  0  0  0  0  0  0  0  0  0  0
  -39.0347   55.1111   56.0490 H   0  0  0  0  0  0  0  0  0  0  0  0
  -38.8745   57.3830   56.8012 H   0  0  0  0  0  0  0  0  0  0  0  0
  -37.6689   57.7112   55.5382 H   0  0  0  0  0  0  0  0  0  0  0  0
  -36.1353   56.1893   56.5693 H   0  0  0  0  0  0  0  0  0  0  0  0
  -37.3591   55.8585   57.8346 H   0  0  0  0  0  0  0  0  0  0  0  0
  -35.5918   57.3051   58.6517 H   0  0  0  0  0  0  0  0  0  0  0  0
  -37.1717   58.0833   58.6453 H   0  0  0  0  0  0  0  0  0  0  0  0
  -36.6102   59.2424   56.5855 H   0  0  0  0  0  0  0  0  0  0  0  0
  -35.0184   58.4456   56.6020 H   0  0  0  0  0  0  0  0  0  0  0  0
  -36.0001   60.4010   58.6302 H   0  0  0  0  0  0  0  0  0  0  0  0
  -34.8360   60.7031   57.2985 H   0  0  0  0  0  0  0  0  0  0  0  0
  -33.2543   59.2548   58.3016 H   0  0  0  0  0  0  0  0  0  0  0  0
  -34.4069   58.9170   59.6190 H   0  0  0  0  0  0  0  0  0  0  0  0
  -33.1503   61.5867   59.0739 H   0  0  0  0  0  0  0  0  0  0  0  0
  -32.6705   60.4593   60.3402 H   0  0  0  0  0  0  0  0  0  0  0  0
  -34.8674   60.6244   61.3430 H   0  0  0  0  0  0  0  0  0  0  0  0
  -35.3123   61.7894   60.0374 H   0  0  0  0  0  0  0  0  0  0  0  0
  -33.3731   62.2968   62.2391 H   0  0  0  0  0  0  0  0  0  0  0  0
  -34.9872   62.9526   62.1057 H   0  0  0  0  0  0  0  0  0  0  0  0
  -33.7680   63.3868   60.9318 H   0  0  0  0  0  0  0  0  0  0  0  0
  -29.7153   58.1803   58.7757 H   0  0  0  0  0  0  0  0  0  0  0  0
  -30.5202   59.0553   60.0685 H   0  0  0  0  0  0  0  0  0  0  0  0
  -28.7090   56.8391   60.2393 H   0  0  0  0  0  0  0  0  0  0  0  0
  -29.6967   57.6330   61.5044 H   0  0  0  0  0  0  0  0  0  0  0  0
  -27.0049   58.5663   60.6822 H   0  0  0  0  0  0  0  0  0  0  0  0
  -27.3342   57.4783   62.0433 H   0  0  0  0  0  0  0  0  0  0  0  0
  -27.0353   59.8665   62.6316 H   0  0  0  0  0  0  0  0  0  0  0  0
  -28.5882   59.0594   63.1282 H   0  0  0  0  0  0  0  0  0  0  0  0
  -28.5637   61.5143   62.3593 H   0  0  0  0  0  0  0  0  0  0  0  0
  -36.1361   62.3576   66.9472 H   0  0  0  0  0  0  0  0  0  0  0  0
  -35.3385   61.7094   65.5657 H   0  0  0  0  0  0  0  0  0  0  0  0
  -38.1558   61.8573   66.0093 H   0  0  0  0  0  0  0  0  0  0  0  0
  -38.8011   68.1363   63.1069 H   0  0  0  0  0  0  0  0  0  0  0  0
  -36.6611   69.1474   62.5621 H   0  0  0  0  0  0  0  0  0  0  0  0
  -34.5937   67.9305   62.9609 H   0  0  0  0  0  0  0  0  0  0  0  0
  -34.6887   65.6887   63.8975 H   0  0  0  0  0  0  0  0  0  0  0  0
  1  2  1  0  0  0  0
  1  5  1  0  0  0  0
  1  7  1  0  0  0  0
  2 18  2  0  0  0  0
  2 29  1  0  0  0  0
  3 21  2  0  0  0  0
  4  6  1  0  0  0  0
  4 59  1  0  0  0  0
  4 60  1  0  0  0  0
  4 61  1  0  0  0  0
  5 62  1  0  0  0  0
  6 14  1  0  0  0  0
  7 10  1  0  0  0  0
  7 63  1  0  0  0  0
  7 64  1  0  0  0  0
  8 27  1  0  0  0  0
  8 48  1  0  0  0  0
  8 65  1  0  0  0  0
  9 21  1  0  0  0  0
  9 23  1  0  0  0  0
 10 13  1  0  0  0  0
 10 66  1  0  0  0  0
 10 67  1  0  0  0  0
 11 19  1  0  0  0  0
 11 28  1  0  0  0  0
 11 68  1  0  0  0  0
 12 27  2  0  0  0  0
 13 16  2  0  0  0  0
 13 69  1  0  0  0  0
 14 44  1  0  0  0  0
 14 49  1  0  0  0  0
 15 28  2  0  0  0  0
 16 19  1  0  0  0  0
 16 70  1  0  0  0  0
 17 51  2  0  0  0  0
 17 52  1  0  0  0  0
 19 21  1  0  0  0  0
 19 71  1  1  0  0  0
 20 49  2  0  0  0  0
 22 50  1  0  0  0  0
 22 51  1  0  0  0  0
 23 25  1  0  0  0  0
 23 26  1  0  0  0  0
 23 72  1  6  0  0  0
 24 53  1  0  0  0  0
 24 73  1  0  0  0  0
 25 27  1  0  0  0  0
 25 74  1  0  0  0  0
 25 75  1  0  0  0  0
 26 76  1  0  0  0  0
 26 77  1  0  0  0  0
 26 78  1  0  0  0  0
 28 52  1  0  0  0  0
 29 30  1  0  0  0  0
 29 79  1  0  0  0  0
 29 80  1  0  0  0  0
 30 31  1  0  0  0  0
 30 81  1  0  0  0  0
 30 82  1  0  0  0  0
 31 32  1  0  0  0  0
 31 83  1  0  0  0  0
 31 84  1  0  0  0  0
 32 33  1  0  0  0  0
 32 85  1  0  0  0  0
 32 86  1  0  0  0  0
 33 34  1  0  0  0  0
 33 87  1  0  0  0  0
 33 88  1  0  0  0  0
 34 35  1  0  0  0  0
 34 89  1  0  0  0  0
 34 90  1  0  0  0  0
 35 36  1  0  0  0  0
 35 91  1  0  0  0  0
 35 92  1  0  0  0  0
 36 37  1  0  0  0  0
 36 93  1  0  0  0  0
 36 94  1  0  0  0  0
 37 38  1  0  0  0  0
 37 95  1  0  0  0  0
 37 96  1  0  0  0  0
 38 39  1  0  0  0  0
 38 97  1  0  0  0  0
 38 98  1  0  0  0  0
 39 40  1  0  0  0  0
 39 99  1  0  0  0  0
 39100  1  0  0  0  0
 40 41  1  0  0  0  0
 40101  1  0  0  0  0
 40102  1  0  0  0  0
 41 42  1  0  0  0  0
 41103  1  0  0  0  0
 41104  1  0  0  0  0
 42 43  1  0  0  0  0
 42105  1  0  0  0  0
 42106  1  0  0  0  0
 43107  1  0  0  0  0
 43108  1  0  0  0  0
 43109  1  0  0  0  0
 44 45  1  0  0  0  0
 44110  1  0  0  0  0
 44111  1  0  0  0  0
 45 46  1  0  0  0  0
 45112  1  0  0  0  0
 45113  1  0  0  0  0
 46 47  1  0  0  0  0
 46114  1  0  0  0  0
 46115  1  0  0  0  0
 47 48  1  0  0  0  0
 47116  1  0  0  0  0
 47117  1  0  0  0  0
 48 49  1  0  0  0  0
 48118  1  1  0  0  0
 50 52  1  0  0  0  0
 50119  1  0  0  0  0
 50120  1  0  0  0  0
 51 58  1  0  0  0  0
 52121  1  1  0  0  0
 53 54  2  0  0  0  0
 53 58  1  0  0  0  0
 54 55  1  0  0  0  0
 54122  1  0  0  0  0
 55 56  2  0  0  0  0
 55123  1  0  0  0  0
 56 57  1  0  0  0  0
 56124  1  0  0  0  0
 57 58  2  0  0  0  0
 57125  1  0  0  0  0
M  END
$$$$
