/media/chris/experiments/cd1a-new-docking/inputs/ligands/1xz0_ligand.pdb
 OpenBabel07022319323D

125127  0  0  1  0  0  0  0  0999 V2000
  -42.0244   57.7367   62.1354 N   0  0  0  0  0  0  0  0  0  0  0  0
  -42.7628   57.7828   63.2757 C   0  0  0  0  0  0  0  0  0  0  0  0
  -34.5145   59.2300   63.5740 O   0  0  0  0  0  0  0  0  0  0  0  0
  -35.4821   62.6393   59.3231 Si  0  0  0  0  0  0  0  0  0  0  0  0
  -42.0998   58.8463   61.2818 O   0  0  0  0  0  0  0  0  0  0  0  0
  -33.7873   62.1768   58.9923 O   0  0  0  0  0  0  0  0  0  0  0  0
  -41.1374   56.6740   61.6520 C   0  0  0  0  0  0  0  0  0  0  0  0
  -32.3097   59.7144   62.3990 N   0  0  0  0  0  0  0  0  0  0  0  0
  -34.8102   56.9389   63.5156 O   0  0  0  0  0  0  0  0  0  0  0  0
  -39.7171   57.2580   61.5068 C   0  0  0  0  0  0  0  0  0  0  0  0
  -36.8950   59.8150   64.6310 N   0  0  0  0  0  0  0  0  0  0  0  0
  -34.2772   59.1432   61.4410 O   0  0  0  0  0  0  0  0  0  0  0  0
  -39.0441   57.8107   62.7746 C   0  0  0  0  0  0  0  0  0  0  0  0
  -33.0702   61.4736   59.9128 N   0  0  0  0  0  0  0  0  0  0  0  0
  -37.3593   61.1359   66.4234 O   0  0  0  0  0  0  0  0  0  0  0  0
  -37.6390   58.4030   62.6110 C   0  0  0  0  0  0  0  0  0  0  0  0
  -38.6133   59.0944   67.7818 N   0  0  0  0  0  0  0  0  0  0  0  0
  -43.4645   58.7585   63.5412 O   0  0  0  0  0  0  0  0  0  0  0  0
  -36.7890   58.5530   63.8960 C   0  0  1  0  0  0  0  0  0  0  0  0
  -34.3906   62.2567   61.5586 O   0  0  0  0  0  0  0  0  0  0  0  0
  -35.3080   58.3090   63.6770 C   0  0  0  0  0  0  0  0  0  0  0  0
  -36.9511   58.2137   68.9874 O   0  0  0  0  0  0  0  0  0  0  0  0
  -34.1712   56.5125   62.2975 C   0  0  1  0  0  0  0  0  0  0  0  0
  -37.3053   59.2437   71.6478 O   0  0  0  0  0  0  0  0  0  0  0  0
  -32.9313   57.3673   62.0820 C   0  0  0  0  0  0  0  0  0  0  0  0
  -33.8311   55.0281   62.2477 C   0  0  0  0  0  0  0  0  0  0  0  0
  -33.2369   58.8412   61.9793 C   0  0  0  0  0  0  0  0  0  0  0  0
  -37.2920   60.0330   65.8968 C   0  0  0  0  0  0  0  0  0  0  0  0
  -42.7080   56.5959   64.2433 C   0  0  0  0  0  0  0  0  0  0  0  0
  -41.3130   56.3036   64.8124 C   0  0  0  0  0  0  0  0  0  0  0  0
  -40.3277   56.0011   63.6670 C   0  0  0  0  0  0  0  0  0  0  0  0
  -38.9015   55.6783   64.1518 C   0  0  0  0  0  0  0  0  0  0  0  0
  -38.7991   54.4435   65.0666 C   0  0  0  0  0  0  0  0  0  0  0  0
  -39.2721   53.1459   64.3784 C   0  0  0  0  0  0  0  0  0  0  0  0
  -38.4659   52.7580   63.1169 C   0  0  0  0  0  0  0  0  0  0  0  0
  -36.9785   52.5118   63.3954 C   0  0  0  0  0  0  0  0  0  0  0  0
  -36.1351   52.1409   62.1715 C   0  0  0  0  0  0  0  0  0  0  0  0
  -34.6643   51.8977   62.5565 C   0  0  0  0  0  0  0  0  0  0  0  0
  -33.7608   51.5378   61.3674 C   0  0  0  0  0  0  0  0  0  0  0  0
  -34.1567   50.2798   60.5874 C   0  0  0  0  0  0  0  0  0  0  0  0
  -34.1858   48.9862   61.4391 C   0  0  0  0  0  0  0  0  0  0  0  0
  -34.5738   47.7590   60.5896 C   0  0  0  0  0  0  0  0  0  0  0  0
  -33.6548   47.4019   59.4153 C   0  0  0  0  0  0  0  0  0  0  0  0
  -32.0329   60.5659   59.4010 C   0  0  0  0  0  0  0  0  0  0  0  0
  -30.6283   61.0838   59.7639 C   0  0  0  0  0  0  0  0  0  0  0  0
  -30.5998   62.2790   60.7022 C   0  0  0  0  0  0  0  0  0  0  0  0
  -31.0983   61.9460   62.1110 C   0  0  0  0  0  0  0  0  0  0  0  0
  -32.4177   61.1719   62.2682 C   0  0  1  0  0  0  0  0  0  0  0  0
  -33.3802   61.6643   61.2052 C   0  0  0  0  0  0  0  0  0  0  0  0
  -36.4390   58.2296   67.6555 C   0  0  0  0  0  0  0  0  0  0  0  0
  -38.2778   58.7768   68.9583 C   0  0  0  0  0  0  0  0  0  0  0  0
  -37.5729   58.8203   66.7723 C   0  0  1  0  0  0  0  0  0  0  0  0
  -38.6251   59.1478   71.4466 C   0  0  0  0  0  0  0  0  0  0  0  0
  -39.5030   59.2902   72.5292 C   0  0  0  0  0  0  0  0  0  0  0  0
  -40.8920   59.1844   72.3458 C   0  0  0  0  0  0  0  0  0  0  0  0
  -41.4196   58.9447   71.0758 C   0  0  0  0  0  0  0  0  0  0  0  0
  -40.5483   58.8081   69.9915 C   0  0  0  0  0  0  0  0  0  0  0  0
  -39.1555   58.9050   70.1736 C   0  0  0  0  0  0  0  0  0  0  0  0
  -36.0011   63.3598   58.2150 H   0  0  0  0  0  0  0  0  0  0  0  0
  -35.5320   63.4558   60.4839 H   0  0  0  0  0  0  0  0  0  0  0  0
  -36.2595   61.4698   59.5333 H   0  0  0  0  0  0  0  0  0  0  0  0
  -42.7006   59.5063   61.6617 H   0  0  0  0  0  0  0  0  0  0  0  0
  -41.4815   56.3191   60.7031 H   0  0  0  0  0  0  0  0  0  0  0  0
  -41.1313   55.8563   62.3422 H   0  0  0  0  0  0  0  0  0  0  0  0
  -31.4994   59.3520   62.8250 H   0  0  0  0  0  0  0  0  0  0  0  0
  -39.7701   58.0573   60.7975 H   0  0  0  0  0  0  0  0  0  0  0  0
  -39.1090   56.4272   61.2153 H   0  0  0  0  0  0  0  0  0  0  0  0
  -36.6386   60.6199   64.1253 H   0  0  0  0  0  0  0  0  0  0  0  0
  -39.5159   57.7843   63.6921 H   0  0  0  0  0  0  0  0  0  0  0  0
  -37.2771   58.6882   61.6876 H   0  0  0  0  0  0  0  0  0  0  0  0
  -37.2383   57.7881   64.4943 H   0  0  0  0  0  0  0  0  0  0  0  0
  -34.8746   56.6502   61.5030 H   0  0  0  0  0  0  0  0  0  0  0  0
  -36.9732   59.4066   72.5086 H   0  0  0  0  0  0  0  0  0  0  0  0
  -32.4558   57.0545   61.1759 H   0  0  0  0  0  0  0  0  0  0  0  0
  -32.2992   57.2318   62.9346 H   0  0  0  0  0  0  0  0  0  0  0  0
  -33.1246   54.7981   63.0176 H   0  0  0  0  0  0  0  0  0  0  0  0
  -33.4089   54.7908   61.2936 H   0  0  0  0  0  0  0  0  0  0  0  0
  -34.7211   54.4531   62.3969 H   0  0  0  0  0  0  0  0  0  0  0  0
  -43.0462   55.7244   63.7229 H   0  0  0  0  0  0  0  0  0  0  0  0
  -43.3290   56.8528   65.0760 H   0  0  0  0  0  0  0  0  0  0  0  0
  -41.3671   55.4578   65.4655 H   0  0  0  0  0  0  0  0  0  0  0  0
  -40.9688   57.1598   65.3540 H   0  0  0  0  0  0  0  0  0  0  0  0
  -40.2817   56.8560   63.0253 H   0  0  0  0  0  0  0  0  0  0  0  0
  -40.6918   55.1319   63.1602 H   0  0  0  0  0  0  0  0  0  0  0  0
  -38.5329   56.5252   64.6919 H   0  0  0  0  0  0  0  0  0  0  0  0
  -38.3270   55.4559   63.2769 H   0  0  0  0  0  0  0  0  0  0  0  0
  -39.4035   54.6099   65.9337 H   0  0  0  0  0  0  0  0  0  0  0  0
  -37.7673   54.3155   65.3191 H   0  0  0  0  0  0  0  0  0  0  0  0
  -40.2960   53.2721   64.0947 H   0  0  0  0  0  0  0  0  0  0  0  0
  -39.1280   52.3564   65.0861 H   0  0  0  0  0  0  0  0  0  0  0  0
  -38.5505   53.5509   62.4035 H   0  0  0  0  0  0  0  0  0  0  0  0
  -38.8746   51.8391   62.7516 H   0  0  0  0  0  0  0  0  0  0  0  0
  -36.9027   51.7131   64.1033 H   0  0  0  0  0  0  0  0  0  0  0  0
  -36.5872   53.4412   63.7533 H   0  0  0  0  0  0  0  0  0  0  0  0
  -36.1816   52.9400   61.4614 H   0  0  0  0  0  0  0  0  0  0  0  0
  -36.5276   51.2379   61.7528 H   0  0  0  0  0  0  0  0  0  0  0  0
  -34.6293   51.0937   63.2617 H   0  0  0  0  0  0  0  0  0  0  0  0
  -34.2934   52.8160   62.9616 H   0  0  0  0  0  0  0  0  0  0  0  0
  -32.7683   51.3942   61.7406 H   0  0  0  0  0  0  0  0  0  0  0  0
  -33.8520   52.3496   60.6763 H   0  0  0  0  0  0  0  0  0  0  0  0
  -33.4532   50.1425   59.7930 H   0  0  0  0  0  0  0  0  0  0  0  0
  -35.1546   50.4381   60.2354 H   0  0  0  0  0  0  0  0  0  0  0  0
  -34.9007   49.1042   62.2264 H   0  0  0  0  0  0  0  0  0  0  0  0
  -33.2055   48.8234   61.8361 H   0  0  0  0  0  0  0  0  0  0  0  0
  -35.5504   47.9388   60.1912 H   0  0  0  0  0  0  0  0  0  0  0  0
  -34.5035   46.9267   61.2584 H   0  0  0  0  0  0  0  0  0  0  0  0
  -33.6712   48.1938   58.6959 H   0  0  0  0  0  0  0  0  0  0  0  0
  -33.9962   46.4970   58.9575 H   0  0  0  0  0  0  0  0  0  0  0  0
  -32.6556   47.2656   59.7729 H   0  0  0  0  0  0  0  0  0  0  0  0
  -32.1184   60.4994   58.3365 H   0  0  0  0  0  0  0  0  0  0  0  0
  -32.1695   59.6023   59.8456 H   0  0  0  0  0  0  0  0  0  0  0  0
  -30.1344   61.3636   58.8569 H   0  0  0  0  0  0  0  0  0  0  0  0
  -30.1441   60.2854   60.2865 H   0  0  0  0  0  0  0  0  0  0  0  0
  -31.2214   63.0481   60.2936 H   0  0  0  0  0  0  0  0  0  0  0  0
  -29.5807   62.5931   60.7894 H   0  0  0  0  0  0  0  0  0  0  0  0
  -31.2147   62.8741   62.6305 H   0  0  0  0  0  0  0  0  0  0  0  0
  -30.3583   61.2750   62.4945 H   0  0  0  0  0  0  0  0  0  0  0  0
  -32.8192   61.3955   63.2345 H   0  0  0  0  0  0  0  0  0  0  0  0
  -36.1978   57.2369   67.3373 H   0  0  0  0  0  0  0  0  0  0  0  0
  -35.5427   58.8098   67.5853 H   0  0  0  0  0  0  0  0  0  0  0  0
  -37.8134   58.1274   65.9933 H   0  0  0  0  0  0  0  0  0  0  0  0
  -39.1253   59.4750   73.4716 H   0  0  0  0  0  0  0  0  0  0  0  0
  -41.5256   59.2843   73.1543 H   0  0  0  0  0  0  0  0  0  0  0  0
  -42.4398   58.8694   70.9393 H   0  0  0  0  0  0  0  0  0  0  0  0
  -40.9295   58.6346   69.0483 H   0  0  0  0  0  0  0  0  0  0  0  0
  1  2  1  0  0  0  0
  1  5  1  0  0  0  0
  1  7  1  0  0  0  0
  2 18  2  0  0  0  0
  2 29  1  0  0  0  0
  3 21  2  0  0  0  0
  4  6  1  0  0  0  0
  4 59  1  0  0  0  0
  4 60  1  0  0  0  0
  4 61  1  0  0  0  0
  5 62  1  0  0  0  0
  6 14  1  0  0  0  0
  7 10  1  0  0  0  0
  7 63  1  0  0  0  0
  7 64  1  0  0  0  0
  8 27  1  0  0  0  0
  8 48  1  0  0  0  0
  8 65  1  0  0  0  0
  9 21  1  0  0  0  0
  9 23  1  0  0  0  0
 10 13  1  0  0  0  0
 10 66  1  0  0  0  0
 10 67  1  0  0  0  0
 11 19  1  0  0  0  0
 11 28  1  0  0  0  0
 11 68  1  0  0  0  0
 12 27  2  0  0  0  0
 13 16  2  0  0  0  0
 13 69  1  0  0  0  0
 14 44  1  0  0  0  0
 14 49  1  0  0  0  0
 15 28  2  0  0  0  0
 16 19  1  0  0  0  0
 16 70  1  0  0  0  0
 17 51  2  0  0  0  0
 17 52  1  0  0  0  0
 19 21  1  0  0  0  0
 19 71  1  1  0  0  0
 20 49  2  0  0  0  0
 22 50  1  0  0  0  0
 22 51  1  0  0  0  0
 23 25  1  0  0  0  0
 23 26  1  0  0  0  0
 23 72  1  6  0  0  0
 24 53  1  0  0  0  0
 24 73  1  0  0  0  0
 25 27  1  0  0  0  0
 25 74  1  0  0  0  0
 25 75  1  0  0  0  0
 26 76  1  0  0  0  0
 26 77  1  0  0  0  0
 26 78  1  0  0  0  0
 28 52  1  0  0  0  0
 29 30  1  0  0  0  0
 29 79  1  0  0  0  0
 29 80  1  0  0  0  0
 30 31  1  0  0  0  0
 30 81  1  0  0  0  0
 30 82  1  0  0  0  0
 31 32  1  0  0  0  0
 31 83  1  0  0  0  0
 31 84  1  0  0  0  0
 32 33  1  0  0  0  0
 32 85  1  0  0  0  0
 32 86  1  0  0  0  0
 33 34  1  0  0  0  0
 33 87  1  0  0  0  0
 33 88  1  0  0  0  0
 34 35  1  0  0  0  0
 34 89  1  0  0  0  0
 34 90  1  0  0  0  0
 35 36  1  0  0  0  0
 35 91  1  0  0  0  0
 35 92  1  0  0  0  0
 36 37  1  0  0  0  0
 36 93  1  0  0  0  0
 36 94  1  0  0  0  0
 37 38  1  0  0  0  0
 37 95  1  0  0  0  0
 37 96  1  0  0  0  0
 38 39  1  0  0  0  0
 38 97  1  0  0  0  0
 38 98  1  0  0  0  0
 39 40  1  0  0  0  0
 39 99  1  0  0  0  0
 39100  1  0  0  0  0
 40 41  1  0  0  0  0
 40101  1  0  0  0  0
 40102  1  0  0  0  0
 41 42  1  0  0  0  0
 41103  1  0  0  0  0
 41104  1  0  0  0  0
 42 43  1  0  0  0  0
 42105  1  0  0  0  0
 42106  1  0  0  0  0
 43107  1  0  0  0  0
 43108  1  0  0  0  0
 43109  1  0  0  0  0
 44 45  1  0  0  0  0
 44110  1  0  0  0  0
 44111  1  0  0  0  0
 45 46  1  0  0  0  0
 45112  1  0  0  0  0
 45113  1  0  0  0  0
 46 47  1  0  0  0  0
 46114  1  0  0  0  0
 46115  1  0  0  0  0
 47 48  1  0  0  0  0
 47116  1  0  0  0  0
 47117  1  0  0  0  0
 48 49  1  0  0  0  0
 48118  1  1  0  0  0
 50 52  1  0  0  0  0
 50119  1  0  0  0  0
 50120  1  0  0  0  0
 51 58  1  0  0  0  0
 52121  1  6  0  0  0
 53 54  2  0  0  0  0
 53 58  1  0  0  0  0
 54 55  1  0  0  0  0
 54122  1  0  0  0  0
 55 56  2  0  0  0  0
 55123  1  0  0  0  0
 56 57  1  0  0  0  0
 56124  1  0  0  0  0
 57 58  2  0  0  0  0
 57125  1  0  0  0  0
M  END
$$$$