/media/chris/experiments/cd1a-new-docking/inputs/ligands/1xz0_ligand.pdb
 OpenBabel07022319323D

125127  0  0  1  0  0  0  0  0999 V2000
  -40.4884   60.5770   59.5198 N   0  0  0  0  0  0  0  0  0  0  0  0
  -40.8098   61.5587   58.6362 C   0  0  0  0  0  0  0  0  0  0  0  0
  -34.6103   59.1028   63.0674 O   0  0  0  0  0  0  0  0  0  0  0  0
  -33.0551   60.2231   71.1247 Si  0  0  0  0  0  0  0  0  0  0  0  0
  -41.1262   59.3392   59.3572 O   0  0  0  0  0  0  0  0  0  0  0  0
  -31.7412   59.3728   70.2607 O   0  0  0  0  0  0  0  0  0  0  0  0
  -39.5502   60.6191   60.6457 C   0  0  0  0  0  0  0  0  0  0  0  0
  -31.4087   57.7834   66.1114 N   0  0  0  0  0  0  0  0  0  0  0  0
  -34.6971   57.0605   64.1450 O   0  0  0  0  0  0  0  0  0  0  0  0
  -38.4615   59.5524   60.4085 C   0  0  0  0  0  0  0  0  0  0  0  0
  -36.8950   59.8150   64.6310 N   0  0  0  0  0  0  0  0  0  0  0  0
  -32.0668   58.6505   64.1288 O   0  0  0  0  0  0  0  0  0  0  0  0
  -37.3686   59.4033   61.4804 C   0  0  0  0  0  0  0  0  0  0  0  0
  -31.8667   59.0687   68.9386 N   0  0  0  0  0  0  0  0  0  0  0  0
  -38.3860   61.0055   63.3930 O   0  0  0  0  0  0  0  0  0  0  0  0
  -37.6390   58.4030   62.6110 C   0  0  0  0  0  0  0  0  0  0  0  0
  -36.4220   63.0371   64.7241 N   0  0  0  0  0  0  0  0  0  0  0  0
  -41.6254   61.3629   57.7355 O   0  0  0  0  0  0  0  0  0  0  0  0
  -36.7890   58.5530   63.8960 C   0  0  1  0  0  0  0  0  0  0  0  0
  -29.6269   58.9959   68.7295 O   0  0  0  0  0  0  0  0  0  0  0  0
  -35.3080   58.3090   63.6770 C   0  0  0  0  0  0  0  0  0  0  0  0
  -35.8390   62.7601   66.8631 O   0  0  0  0  0  0  0  0  0  0  0  0
  -33.6005   56.4517   63.4374 C   0  0  1  0  0  0  0  0  0  0  0  0
  -33.5945   64.1111   67.5825 O   0  0  0  0  0  0  0  0  0  0  0  0
  -32.4083   56.3708   64.3790 C   0  0  0  0  0  0  0  0  0  0  0  0
  -33.9165   55.0895   62.8323 C   0  0  0  0  0  0  0  0  0  0  0  0
  -31.9655   57.7183   64.8932 C   0  0  0  0  0  0  0  0  0  0  0  0
  -37.6390   60.9007   64.3569 C   0  0  0  0  0  0  0  0  0  0  0  0
  -40.1338   62.9273   58.7697 C   0  0  0  0  0  0  0  0  0  0  0  0
  -38.6059   62.8982   58.6283 C   0  0  0  0  0  0  0  0  0  0  0  0
  -38.0323   64.3184   58.7964 C   0  0  0  0  0  0  0  0  0  0  0  0
  -38.3332   64.9444   60.1714 C   0  0  0  0  0  0  0  0  0  0  0  0
  -37.7581   64.1665   61.3699 C   0  0  0  0  0  0  0  0  0  0  0  0
  -38.0973   64.8182   62.7269 C   0  0  0  0  0  0  0  0  0  0  0  0
  -39.6106   64.9243   63.0275 C   0  0  0  0  0  0  0  0  0  0  0  0
  -39.9199   65.5906   64.3731 C   0  0  0  0  0  0  0  0  0  0  0  0
  -39.4209   67.0313   64.5213 C   0  0  0  0  0  0  0  0  0  0  0  0
  -37.8932   67.1164   64.3501 C   0  0  0  0  0  0  0  0  0  0  0  0
  -37.3274   68.5362   64.5049 C   0  0  0  0  0  0  0  0  0  0  0  0
  -37.5622   69.2017   65.8649 C   0  0  0  0  0  0  0  0  0  0  0  0
  -36.9928   70.6379   65.9770 C   0  0  0  0  0  0  0  0  0  0  0  0
  -37.2484   71.2398   67.3737 C   0  0  0  0  0  0  0  0  0  0  0  0
  -38.7083   71.3606   67.8271 C   0  0  0  0  0  0  0  0  0  0  0  0
  -33.2265   58.8285   68.4337 C   0  0  0  0  0  0  0  0  0  0  0  0
  -33.6595   59.9551   67.4767 C   0  0  0  0  0  0  0  0  0  0  0  0
  -32.5706   60.9504   67.1114 C   0  0  0  0  0  0  0  0  0  0  0  0
  -31.4575   60.3342   66.2599 C   0  0  0  0  0  0  0  0  0  0  0  0
  -30.8369   58.9986   66.7026 C   0  0  1  0  0  0  0  0  0  0  0  0
  -30.7371   59.0061   68.2155 C   0  0  0  0  0  0  0  0  0  0  0  0
  -37.0051   61.9506   66.7168 C   0  0  0  0  0  0  0  0  0  0  0  0
  -35.5586   63.3671   65.5861 C   0  0  0  0  0  0  0  0  0  0  0  0
  -37.4607   62.1261   65.2416 C   0  0  1  0  0  0  0  0  0  0  0  0
  -33.4875   64.6228   66.3503 C   0  0  0  0  0  0  0  0  0  0  0  0
  -32.4272   65.4877   66.0490 C   0  0  0  0  0  0  0  0  0  0  0  0
  -32.2982   66.0454   64.7658 C   0  0  0  0  0  0  0  0  0  0  0  0
  -33.2225   65.7366   63.7663 C   0  0  0  0  0  0  0  0  0  0  0  0
  -34.2784   64.8692   64.0600 C   0  0  0  0  0  0  0  0  0  0  0  0
  -34.4153   64.3157   65.3475 C   0  0  0  0  0  0  0  0  0  0  0  0
  -32.6804   60.4200   72.4801 H   0  0  0  0  0  0  0  0  0  0  0  0
  -34.2402   59.4428   71.0698 H   0  0  0  0  0  0  0  0  0  0  0  0
  -33.2884   61.4820   70.5105 H   0  0  0  0  0  0  0  0  0  0  0  0
  -41.7289   59.3832   58.5984 H   0  0  0  0  0  0  0  0  0  0  0  0
  -40.0695   60.4097   61.5575 H   0  0  0  0  0  0  0  0  0  0  0  0
  -39.1057   61.5897   60.7194 H   0  0  0  0  0  0  0  0  0  0  0  0
  -31.3818   56.9577   66.6469 H   0  0  0  0  0  0  0  0  0  0  0  0
  -37.9751   59.7904   59.4856 H   0  0  0  0  0  0  0  0  0  0  0  0
  -38.9859   58.6198   60.4219 H   0  0  0  0  0  0  0  0  0  0  0  0
  -36.3417   59.8774   65.4429 H   0  0  0  0  0  0  0  0  0  0  0  0
  -36.4946   59.9506   61.4407 H   0  0  0  0  0  0  0  0  0  0  0  0
  -38.3541   57.6645   62.5194 H   0  0  0  0  0  0  0  0  0  0  0  0
  -37.2383   57.7881   64.4943 H   0  0  0  0  0  0  0  0  0  0  0  0
  -33.3813   57.0722   62.5937 H   0  0  0  0  0  0  0  0  0  0  0  0
  -32.9616   64.3308   68.2376 H   0  0  0  0  0  0  0  0  0  0  0  0
  -31.5909   55.9212   63.8550 H   0  0  0  0  0  0  0  0  0  0  0  0
  -32.7102   55.7905   65.2257 H   0  0  0  0  0  0  0  0  0  0  0  0
  -34.1503   54.3975   63.6142 H   0  0  0  0  0  0  0  0  0  0  0  0
  -33.0673   54.7364   62.2856 H   0  0  0  0  0  0  0  0  0  0  0  0
  -34.7540   55.1781   62.1722 H   0  0  0  0  0  0  0  0  0  0  0  0
  -40.3728   63.3256   59.7336 H   0  0  0  0  0  0  0  0  0  0  0  0
  -40.5028   63.5291   57.9656 H   0  0  0  0  0  0  0  0  0  0  0  0
  -38.3471   62.5242   57.6597 H   0  0  0  0  0  0  0  0  0  0  0  0
  -38.1958   62.2626   59.3850 H   0  0  0  0  0  0  0  0  0  0  0  0
  -38.4541   64.9457   58.0392 H   0  0  0  0  0  0  0  0  0  0  0  0
  -36.9685   64.2399   58.7126 H   0  0  0  0  0  0  0  0  0  0  0  0
  -39.3954   64.9993   60.2879 H   0  0  0  0  0  0  0  0  0  0  0  0
  -37.8600   65.9040   60.1777 H   0  0  0  0  0  0  0  0  0  0  0  0
  -36.6938   64.1218   61.2691 H   0  0  0  0  0  0  0  0  0  0  0  0
  -38.2000   63.1920   61.3622 H   0  0  0  0  0  0  0  0  0  0  0  0
  -37.6849   65.8055   62.7357 H   0  0  0  0  0  0  0  0  0  0  0  0
  -37.6811   64.1839   63.4814 H   0  0  0  0  0  0  0  0  0  0  0  0
  -40.0247   63.9377   63.0345 H   0  0  0  0  0  0  0  0  0  0  0  0
  -40.0413   65.5389   62.2648 H   0  0  0  0  0  0  0  0  0  0  0  0
  -39.4674   65.0031   65.1444 H   0  0  0  0  0  0  0  0  0  0  0  0
  -40.9867   65.6390   64.4405 H   0  0  0  0  0  0  0  0  0  0  0  0
  -39.6829   67.3923   65.4939 H   0  0  0  0  0  0  0  0  0  0  0  0
  -39.8790   67.6268   63.7595 H   0  0  0  0  0  0  0  0  0  0  0  0
  -37.6433   66.7588   63.3731 H   0  0  0  0  0  0  0  0  0  0  0  0
  -37.4600   66.5229   65.1280 H   0  0  0  0  0  0  0  0  0  0  0  0
  -37.7776   69.1528   63.7553 H   0  0  0  0  0  0  0  0  0  0  0  0
  -36.2662   68.4389   64.4078 H   0  0  0  0  0  0  0  0  0  0  0  0
  -37.1002   68.5980   66.6179 H   0  0  0  0  0  0  0  0  0  0  0  0
  -38.6221   69.2811   65.9889 H   0  0  0  0  0  0  0  0  0  0  0  0
  -37.4620   71.2565   65.2407 H   0  0  0  0  0  0  0  0  0  0  0  0
  -35.9354   70.5932   65.8191 H   0  0  0  0  0  0  0  0  0  0  0  0
  -36.8258   72.2227   67.3831 H   0  0  0  0  0  0  0  0  0  0  0  0
  -36.8029   70.5484   68.0581 H   0  0  0  0  0  0  0  0  0  0  0  0
  -39.2260   72.0421   67.1849 H   0  0  0  0  0  0  0  0  0  0  0  0
  -38.7404   71.7240   68.8330 H   0  0  0  0  0  0  0  0  0  0  0  0
  -39.1771   70.3999   67.7798 H   0  0  0  0  0  0  0  0  0  0  0  0
  -33.9058   58.7888   69.2595 H   0  0  0  0  0  0  0  0  0  0  0  0
  -33.2362   57.9012   67.8999 H   0  0  0  0  0  0  0  0  0  0  0  0
  -34.4585   60.4946   67.9410 H   0  0  0  0  0  0  0  0  0  0  0  0
  -33.9410   59.4754   66.5626 H   0  0  0  0  0  0  0  0  0  0  0  0
  -32.1390   61.3299   68.0140 H   0  0  0  0  0  0  0  0  0  0  0  0
  -33.0266   61.7245   66.5303 H   0  0  0  0  0  0  0  0  0  0  0  0
  -30.6635   61.0500   66.2151 H   0  0  0  0  0  0  0  0  0  0  0  0
  -31.9406   60.0999   65.3344 H   0  0  0  0  0  0  0  0  0  0  0  0
  -29.8528   58.9374   66.2872 H   0  0  0  0  0  0  0  0  0  0  0  0
  -37.7731   62.2793   67.3855 H   0  0  0  0  0  0  0  0  0  0  0  0
  -36.8040   60.9252   66.9472 H   0  0  0  0  0  0  0  0  0  0  0  0
  -38.4731   62.4720   65.2217 H   0  0  0  0  0  0  0  0  0  0  0  0
  -31.7335   65.7177   66.7776 H   0  0  0  0  0  0  0  0  0  0  0  0
  -31.5160   66.6867   64.5612 H   0  0  0  0  0  0  0  0  0  0  0  0
  -33.1273   66.1434   62.8226 H   0  0  0  0  0  0  0  0  0  0  0  0
  -34.9643   64.6322   63.3263 H   0  0  0  0  0  0  0  0  0  0  0  0
  1  2  1  0  0  0  0
  1  5  1  0  0  0  0
  1  7  1  0  0  0  0
  2 18  2  0  0  0  0
  2 29  1  0  0  0  0
  3 21  2  0  0  0  0
  4  6  1  0  0  0  0
  4 59  1  0  0  0  0
  4 60  1  0  0  0  0
  4 61  1  0  0  0  0
  5 62  1  0  0  0  0
  6 14  1  0  0  0  0
  7 10  1  0  0  0  0
  7 63  1  0  0  0  0
  7 64  1  0  0  0  0
  8 27  1  0  0  0  0
  8 48  1  0  0  0  0
  8 65  1  0  0  0  0
  9 21  1  0  0  0  0
  9 23  1  0  0  0  0
 10 13  1  0  0  0  0
 10 66  1  0  0  0  0
 10 67  1  0  0  0  0
 11 19  1  0  0  0  0
 11 28  1  0  0  0  0
 11 68  1  0  0  0  0
 12 27  2  0  0  0  0
 13 16  2  0  0  0  0
 13 69  1  0  0  0  0
 14 44  1  0  0  0  0
 14 49  1  0  0  0  0
 15 28  2  0  0  0  0
 16 19  1  0  0  0  0
 16 70  1  0  0  0  0
 17 51  2  0  0  0  0
 17 52  1  0  0  0  0
 19 21  1  0  0  0  0
 19 71  1  1  0  0  0
 20 49  2  0  0  0  0
 22 50  1  0  0  0  0
 22 51  1  0  0  0  0
 23 25  1  0  0  0  0
 23 26  1  0  0  0  0
 23 72  1  6  0  0  0
 24 53  1  0  0  0  0
 24 73  1  0  0  0  0
 25 27  1  0  0  0  0
 25 74  1  0  0  0  0
 25 75  1  0  0  0  0
 26 76  1  0  0  0  0
 26 77  1  0  0  0  0
 26 78  1  0  0  0  0
 28 52  1  0  0  0  0
 29 30  1  0  0  0  0
 29 79  1  0  0  0  0
 29 80  1  0  0  0  0
 30 31  1  0  0  0  0
 30 81  1  0  0  0  0
 30 82  1  0  0  0  0
 31 32  1  0  0  0  0
 31 83  1  0  0  0  0
 31 84  1  0  0  0  0
 32 33  1  0  0  0  0
 32 85  1  0  0  0  0
 32 86  1  0  0  0  0
 33 34  1  0  0  0  0
 33 87  1  0  0  0  0
 33 88  1  0  0  0  0
 34 35  1  0  0  0  0
 34 89  1  0  0  0  0
 34 90  1  0  0  0  0
 35 36  1  0  0  0  0
 35 91  1  0  0  0  0
 35 92  1  0  0  0  0
 36 37  1  0  0  0  0
 36 93  1  0  0  0  0
 36 94  1  0  0  0  0
 37 38  1  0  0  0  0
 37 95  1  0  0  0  0
 37 96  1  0  0  0  0
 38 39  1  0  0  0  0
 38 97  1  0  0  0  0
 38 98  1  0  0  0  0
 39 40  1  0  0  0  0
 39 99  1  0  0  0  0
 39100  1  0  0  0  0
 40 41  1  0  0  0  0
 40101  1  0  0  0  0
 40102  1  0  0  0  0
 41 42  1  0  0  0  0
 41103  1  0  0  0  0
 41104  1  0  0  0  0
 42 43  1  0  0  0  0
 42105  1  0  0  0  0
 42106  1  0  0  0  0
 43107  1  0  0  0  0
 43108  1  0  0  0  0
 43109  1  0  0  0  0
 44 45  1  0  0  0  0
 44110  1  0  0  0  0
 44111  1  0  0  0  0
 45 46  1  0  0  0  0
 45112  1  0  0  0  0
 45113  1  0  0  0  0
 46 47  1  0  0  0  0
 46114  1  0  0  0  0
 46115  1  0  0  0  0
 47 48  1  0  0  0  0
 47116  1  0  0  0  0
 47117  1  0  0  0  0
 48 49  1  0  0  0  0
 48118  1  6  0  0  0
 50 52  1  0  0  0  0
 50119  1  0  0  0  0
 50120  1  0  0  0  0
 51 58  1  0  0  0  0
 52121  1  1  0  0  0
 53 54  2  0  0  0  0
 53 58  1  0  0  0  0
 54 55  1  0  0  0  0
 54122  1  0  0  0  0
 55 56  2  0  0  0  0
 55123  1  0  0  0  0
 56 57  1  0  0  0  0
 56124  1  0  0  0  0
 57 58  2  0  0  0  0
 57125  1  0  0  0  0
M  END
$$$$