/media/chris/experiments/cd1a-new-docking/inputs/ligands/1xz0_ligand.pdb
 OpenBabel07022319323D

125127  0  0  1  0  0  0  0  0999 V2000
  -39.5416   57.5022   58.6965 N   0  0  0  0  0  0  0  0  0  0  0  0
  -38.8020   57.5143   57.5561 C   0  0  0  0  0  0  0  0  0  0  0  0
  -34.4677   58.7167   64.4620 O   0  0  0  0  0  0  0  0  0  0  0  0
  -32.5268   54.8638   68.6823 Si  0  0  0  0  0  0  0  0  0  0  0  0
  -40.8456   56.9954   58.6053 O   0  0  0  0  0  0  0  0  0  0  0  0
  -33.1471   53.2351   68.2842 O   0  0  0  0  0  0  0  0  0  0  0  0
  -39.1706   57.9501   60.0425 C   0  0  0  0  0  0  0  0  0  0  0  0
  -34.4399   53.2251   64.0202 N   0  0  0  0  0  0  0  0  0  0  0  0
  -34.8529   57.6257   62.4617 O   0  0  0  0  0  0  0  0  0  0  0  0
  -38.5576   56.7536   60.7988 C   0  0  0  0  0  0  0  0  0  0  0  0
  -36.8950   59.8150   64.6310 N   0  0  0  0  0  0  0  0  0  0  0  0
  -33.7482   53.5290   61.8884 O   0  0  0  0  0  0  0  0  0  0  0  0
  -38.1064   56.9875   62.2504 C   0  0  0  0  0  0  0  0  0  0  0  0
  -33.6735   52.9773   67.0543 N   0  0  0  0  0  0  0  0  0  0  0  0
  -36.2434   61.3596   63.0940 O   0  0  0  0  0  0  0  0  0  0  0  0
  -37.6390   58.4030   62.6110 C   0  0  0  0  0  0  0  0  0  0  0  0
  -35.4307   62.4269   65.9148 N   0  0  0  0  0  0  0  0  0  0  0  0
  -39.2627   57.0974   56.4937 O   0  0  0  0  0  0  0  0  0  0  0  0
  -36.7890   58.5530   63.8960 C   0  0  1  0  0  0  0  0  0  0  0  0
  -34.1629   55.1584   66.7924 O   0  0  0  0  0  0  0  0  0  0  0  0
  -35.3080   58.3090   63.6770 C   0  0  0  0  0  0  0  0  0  0  0  0
  -36.8657   62.2350   67.6166 O   0  0  0  0  0  0  0  0  0  0  0  0
  -34.0764   56.4147   62.5292 C   0  0  1  0  0  0  0  0  0  0  0  0
  -32.7843   62.9551   66.3327 O   0  0  0  0  0  0  0  0  0  0  0  0
  -35.0244   55.2504   62.7742 C   0  0  0  0  0  0  0  0  0  0  0  0
  -33.1953   56.1597   61.3125 C   0  0  0  0  0  0  0  0  0  0  0  0
  -34.3175   53.9218   62.8809 C   0  0  0  0  0  0  0  0  0  0  0  0
  -36.6335   61.0669   64.2166 C   0  0  0  0  0  0  0  0  0  0  0  0
  -37.3685   58.0532   57.6074 C   0  0  0  0  0  0  0  0  0  0  0  0
  -36.6672   57.8663   58.9596 C   0  0  0  0  0  0  0  0  0  0  0  0
  -35.2452   58.4571   58.9037 C   0  0  0  0  0  0  0  0  0  0  0  0
  -35.2182   59.9674   58.6011 C   0  0  0  0  0  0  0  0  0  0  0  0
  -33.8076   60.5806   58.5225 C   0  0  0  0  0  0  0  0  0  0  0  0
  -33.8273   62.0966   58.2351 C   0  0  0  0  0  0  0  0  0  0  0  0
  -34.5222   62.4896   56.9106 C   0  0  0  0  0  0  0  0  0  0  0  0
  -34.5127   63.9988   56.6413 C   0  0  0  0  0  0  0  0  0  0  0  0
  -35.2053   64.4383   55.3474 C   0  0  0  0  0  0  0  0  0  0  0  0
  -34.5553   63.7858   54.1136 C   0  0  0  0  0  0  0  0  0  0  0  0
  -35.1952   64.2007   52.7801 C   0  0  0  0  0  0  0  0  0  0  0  0
  -34.5913   63.5625   51.5249 C   0  0  0  0  0  0  0  0  0  0  0  0
  -35.2511   64.0181   50.1994 C   0  0  0  0  0  0  0  0  0  0  0  0
  -35.1101   65.5397   49.9918 C   0  0  0  0  0  0  0  0  0  0  0  0
  -35.7167   66.4516   51.0651 C   0  0  0  0  0  0  0  0  0  0  0  0
  -33.5305   51.6076   66.5394 C   0  0  0  0  0  0  0  0  0  0  0  0
  -34.8988   50.9027   66.4783 C   0  0  0  0  0  0  0  0  0  0  0  0
  -36.0986   51.7886   66.7707 C   0  0  0  0  0  0  0  0  0  0  0  0
  -36.3341   52.8517   65.6945 C   0  0  0  0  0  0  0  0  0  0  0  0
  -35.1444   53.7006   65.2163 C   0  0  1  0  0  0  0  0  0  0  0  0
  -34.2679   53.9988   66.4171 C   0  0  0  0  0  0  0  0  0  0  0  0
  -37.6778   62.0444   66.4587 C   0  0  0  0  0  0  0  0  0  0  0  0
  -35.5093   62.4452   67.1761 C   0  0  0  0  0  0  0  0  0  0  0  0
  -36.7218   62.1879   65.2420 C   0  0  1  0  0  0  0  0  0  0  0  0
  -33.0676   62.9672   67.6408 C   0  0  0  0  0  0  0  0  0  0  0  0
  -32.0524   63.2401   68.5670 C   0  0  0  0  0  0  0  0  0  0  0  0
  -32.3222   63.2493   69.9459 C   0  0  0  0  0  0  0  0  0  0  0  0
  -33.6126   62.9955   70.4139 C   0  0  0  0  0  0  0  0  0  0  0  0
  -34.6302   62.7289   69.4936 C   0  0  0  0  0  0  0  0  0  0  0  0
  -34.3611   62.7104   68.1116 C   0  0  0  0  0  0  0  0  0  0  0  0
  -32.0359   54.8706   70.0148 H   0  0  0  0  0  0  0  0  0  0  0  0
  -33.5759   55.8129   68.5596 H   0  0  0  0  0  0  0  0  0  0  0  0
  -31.4760   55.2015   67.7890 H   0  0  0  0  0  0  0  0  0  0  0  0
  -41.0221   56.7195   57.6923 H   0  0  0  0  0  0  0  0  0  0  0  0
  -40.0397   58.2987   60.5603 H   0  0  0  0  0  0  0  0  0  0  0  0
  -38.4630   58.7505   59.9829 H   0  0  0  0  0  0  0  0  0  0  0  0
  -34.0282   52.3315   64.0566 H   0  0  0  0  0  0  0  0  0  0  0  0
  -37.7013   56.4291   60.2452 H   0  0  0  0  0  0  0  0  0  0  0  0
  -39.3523   56.0407   60.8716 H   0  0  0  0  0  0  0  0  0  0  0  0
  -37.2021   59.7352   65.5630 H   0  0  0  0  0  0  0  0  0  0  0  0
  -38.1176   56.2279   62.9488 H   0  0  0  0  0  0  0  0  0  0  0  0
  -37.8799   59.2173   62.0245 H   0  0  0  0  0  0  0  0  0  0  0  0
  -37.2383   57.7881   64.4943 H   0  0  0  0  0  0  0  0  0  0  0  0
  -33.3853   56.5234   63.3388 H   0  0  0  0  0  0  0  0  0  0  0  0
  -31.9113   63.1299   66.0407 H   0  0  0  0  0  0  0  0  0  0  0  0
  -35.7199   55.2014   61.9626 H   0  0  0  0  0  0  0  0  0  0  0  0
  -35.5113   55.4280   63.7102 H   0  0  0  0  0  0  0  0  0  0  0  0
  -33.8108   56.0374   60.4458 H   0  0  0  0  0  0  0  0  0  0  0  0
  -32.6193   55.2717   61.4691 H   0  0  0  0  0  0  0  0  0  0  0  0
  -32.5372   56.9909   61.1682 H   0  0  0  0  0  0  0  0  0  0  0  0
  -37.3967   59.0999   57.3872 H   0  0  0  0  0  0  0  0  0  0  0  0
  -36.8058   57.4906   56.8920 H   0  0  0  0  0  0  0  0  0  0  0  0
  -36.6081   56.8223   59.1866 H   0  0  0  0  0  0  0  0  0  0  0  0
  -37.2274   58.3722   59.7180 H   0  0  0  0  0  0  0  0  0  0  0  0
  -34.6971   57.9486   58.1382 H   0  0  0  0  0  0  0  0  0  0  0  0
  -34.8104   58.3226   59.8720 H   0  0  0  0  0  0  0  0  0  0  0  0
  -35.7590   60.4723   59.3740 H   0  0  0  0  0  0  0  0  0  0  0  0
  -35.6566   60.0904   57.6328 H   0  0  0  0  0  0  0  0  0  0  0  0
  -33.2658   60.0917   57.7399 H   0  0  0  0  0  0  0  0  0  0  0  0
  -33.3428   60.4405   59.4760 H   0  0  0  0  0  0  0  0  0  0  0  0
  -32.8155   62.4427   58.1971 H   0  0  0  0  0  0  0  0  0  0  0  0
  -34.3949   62.5479   59.0219 H   0  0  0  0  0  0  0  0  0  0  0  0
  -35.5390   62.1587   56.9500 H   0  0  0  0  0  0  0  0  0  0  0  0
  -33.9753   62.0243   56.1173 H   0  0  0  0  0  0  0  0  0  0  0  0
  -33.4930   64.3199   56.5958 H   0  0  0  0  0  0  0  0  0  0  0  0
  -35.0679   64.4450   57.4398 H   0  0  0  0  0  0  0  0  0  0  0  0
  -35.1328   65.5020   55.2576 H   0  0  0  0  0  0  0  0  0  0  0  0
  -36.2290   64.1301   55.3916 H   0  0  0  0  0  0  0  0  0  0  0  0
  -34.6386   62.7235   54.2111 H   0  0  0  0  0  0  0  0  0  0  0  0
  -33.5383   64.1174   54.0865 H   0  0  0  0  0  0  0  0  0  0  0  0
  -35.1008   65.2624   52.6867 H   0  0  0  0  0  0  0  0  0  0  0  0
  -36.2075   63.8566   52.8234 H   0  0  0  0  0  0  0  0  0  0  0  0
  -34.6970   62.5008   51.6045 H   0  0  0  0  0  0  0  0  0  0  0  0
  -33.5691   63.8759   51.4826 H   0  0  0  0  0  0  0  0  0  0  0  0
  -36.2905   63.7653   50.2235 H   0  0  0  0  0  0  0  0  0  0  0  0
  -34.7570   63.5217   49.3905 H   0  0  0  0  0  0  0  0  0  0  0  0
  -35.5783   65.7825   49.0608 H   0  0  0  0  0  0  0  0  0  0  0  0
  -34.0576   65.7277   50.0323 H   0  0  0  0  0  0  0  0  0  0  0  0
  -36.7784   66.3199   51.0866 H   0  0  0  0  0  0  0  0  0  0  0  0
  -35.4884   67.4717   50.8370 H   0  0  0  0  0  0  0  0  0  0  0  0
  -35.3066   66.1994   52.0207 H   0  0  0  0  0  0  0  0  0  0  0  0
  -32.8798   51.0558   67.1852 H   0  0  0  0  0  0  0  0  0  0  0  0
  -33.1226   51.6526   65.5512 H   0  0  0  0  0  0  0  0  0  0  0  0
  -34.8931   50.1070   67.1936 H   0  0  0  0  0  0  0  0  0  0  0  0
  -35.0156   50.5698   65.4681 H   0  0  0  0  0  0  0  0  0  0  0  0
  -35.9387   52.2810   67.7071 H   0  0  0  0  0  0  0  0  0  0  0  0
  -36.9634   51.1588   66.7929 H   0  0  0  0  0  0  0  0  0  0  0  0
  -37.0693   53.5284   66.0771 H   0  0  0  0  0  0  0  0  0  0  0  0
  -36.6115   52.2861   64.8296 H   0  0  0  0  0  0  0  0  0  0  0  0
  -35.5293   54.6200   64.8271 H   0  0  0  0  0  0  0  0  0  0  0  0
  -38.4474   62.7866   66.4172 H   0  0  0  0  0  0  0  0  0  0  0  0
  -38.1606   61.0896   66.4693 H   0  0  0  0  0  0  0  0  0  0  0  0
  -37.0875   62.9551   64.5920 H   0  0  0  0  0  0  0  0  0  0  0  0
  -31.0960   63.4365   68.2327 H   0  0  0  0  0  0  0  0  0  0  0  0
  -31.5622   63.4447   70.6163 H   0  0  0  0  0  0  0  0  0  0  0  0
  -33.8126   63.0045   71.4263 H   0  0  0  0  0  0  0  0  0  0  0  0
  -35.5881   62.5439   69.8303 H   0  0  0  0  0  0  0  0  0  0  0  0
  1  2  1  0  0  0  0
  1  5  1  0  0  0  0
  1  7  1  0  0  0  0
  2 18  2  0  0  0  0
  2 29  1  0  0  0  0
  3 21  2  0  0  0  0
  4  6  1  0  0  0  0
  4 59  1  0  0  0  0
  4 60  1  0  0  0  0
  4 61  1  0  0  0  0
  5 62  1  0  0  0  0
  6 14  1  0  0  0  0
  7 10  1  0  0  0  0
  7 63  1  0  0  0  0
  7 64  1  0  0  0  0
  8 27  1  0  0  0  0
  8 48  1  0  0  0  0
  8 65  1  0  0  0  0
  9 21  1  0  0  0  0
  9 23  1  0  0  0  0
 10 13  1  0  0  0  0
 10 66  1  0  0  0  0
 10 67  1  0  0  0  0
 11 19  1  0  0  0  0
 11 28  1  0  0  0  0
 11 68  1  0  0  0  0
 12 27  2  0  0  0  0
 13 16  2  0  0  0  0
 13 69  1  0  0  0  0
 14 44  1  0  0  0  0
 14 49  1  0  0  0  0
 15 28  2  0  0  0  0
 16 19  1  0  0  0  0
 16 70  1  0  0  0  0
 17 51  2  0  0  0  0
 17 52  1  0  0  0  0
 19 21  1  0  0  0  0
 19 71  1  1  0  0  0
 20 49  2  0  0  0  0
 22 50  1  0  0  0  0
 22 51  1  0  0  0  0
 23 25  1  0  0  0  0
 23 26  1  0  0  0  0
 23 72  1  1  0  0  0
 24 53  1  0  0  0  0
 24 73  1  0  0  0  0
 25 27  1  0  0  0  0
 25 74  1  0  0  0  0
 25 75  1  0  0  0  0
 26 76  1  0  0  0  0
 26 77  1  0  0  0  0
 26 78  1  0  0  0  0
 28 52  1  0  0  0  0
 29 30  1  0  0  0  0
 29 79  1  0  0  0  0
 29 80  1  0  0  0  0
 30 31  1  0  0  0  0
 30 81  1  0  0  0  0
 30 82  1  0  0  0  0
 31 32  1  0  0  0  0
 31 83  1  0  0  0  0
 31 84  1  0  0  0  0
 32 33  1  0  0  0  0
 32 85  1  0  0  0  0
 32 86  1  0  0  0  0
 33 34  1  0  0  0  0
 33 87  1  0  0  0  0
 33 88  1  0  0  0  0
 34 35  1  0  0  0  0
 34 89  1  0  0  0  0
 34 90  1  0  0  0  0
 35 36  1  0  0  0  0
 35 91  1  0  0  0  0
 35 92  1  0  0  0  0
 36 37  1  0  0  0  0
 36 93  1  0  0  0  0
 36 94  1  0  0  0  0
 37 38  1  0  0  0  0
 37 95  1  0  0  0  0
 37 96  1  0  0  0  0
 38 39  1  0  0  0  0
 38 97  1  0  0  0  0
 38 98  1  0  0  0  0
 39 40  1  0  0  0  0
 39 99  1  0  0  0  0
 39100  1  0  0  0  0
 40 41  1  0  0  0  0
 40101  1  0  0  0  0
 40102  1  0  0  0  0
 41 42  1  0  0  0  0
 41103  1  0  0  0  0
 41104  1  0  0  0  0
 42 43  1  0  0  0  0
 42105  1  0  0  0  0
 42106  1  0  0  0  0
 43107  1  0  0  0  0
 43108  1  0  0  0  0
 43109  1  0  0  0  0
 44 45  1  0  0  0  0
 44110  1  0  0  0  0
 44111  1  0  0  0  0
 45 46  1  0  0  0  0
 45112  1  0  0  0  0
 45113  1  0  0  0  0
 46 47  1  0  0  0  0
 46114  1  0  0  0  0
 46115  1  0  0  0  0
 47 48  1  0  0  0  0
 47116  1  0  0  0  0
 47117  1  0  0  0  0
 48 49  1  0  0  0  0
 48118  1  6  0  0  0
 50 52  1  0  0  0  0
 50119  1  0  0  0  0
 50120  1  0  0  0  0
 51 58  1  0  0  0  0
 52121  1  6  0  0  0
 53 54  2  0  0  0  0
 53 58  1  0  0  0  0
 54 55  1  0  0  0  0
 54122  1  0  0  0  0
 55 56  2  0  0  0  0
 55123  1  0  0  0  0
 56 57  1  0  0  0  0
 56124  1  0  0  0  0
 57 58  2  0  0  0  0
 57125  1  0  0  0  0
M  END
$$$$