/media/chris/experiments/cd1a-new-docking/inputs/ligands/1xz0_ligand.pdb
 OpenBabel07022319323D

125127  0  0  1  0  0  0  0  0999 V2000
  -37.8923   58.4037   59.8649 N   0  0  0  0  0  0  0  0  0  0  0  0
  -37.4128   59.6691   59.9932 C   0  0  0  0  0  0  0  0  0  0  0  0
  -34.6103   59.1028   63.0674 O   0  0  0  0  0  0  0  0  0  0  0  0
  -29.3963   52.3886   59.3843 Si  0  0  0  0  0  0  0  0  0  0  0  0
  -36.9857   57.4173   59.4517 O   0  0  0  0  0  0  0  0  0  0  0  0
  -31.0326   52.9644   59.8165 O   0  0  0  0  0  0  0  0  0  0  0  0
  -39.2498   57.9024   60.1005 C   0  0  0  0  0  0  0  0  0  0  0  0
  -32.6264   56.9970   60.8419 N   0  0  0  0  0  0  0  0  0  0  0  0
  -34.6971   57.0605   64.1450 O   0  0  0  0  0  0  0  0  0  0  0  0
  -39.1837   56.8269   61.2043 C   0  0  0  0  0  0  0  0  0  0  0  0
  -36.8950   59.8150   64.6310 N   0  0  0  0  0  0  0  0  0  0  0  0
  -32.9576   55.3106   62.3122 O   0  0  0  0  0  0  0  0  0  0  0  0
  -38.6590   57.2580   62.5844 C   0  0  0  0  0  0  0  0  0  0  0  0
  -31.2719   54.2930   60.0001 N   0  0  0  0  0  0  0  0  0  0  0  0
  -39.0951   59.8922   65.2022 O   0  0  0  0  0  0  0  0  0  0  0  0
  -37.6390   58.4030   62.6110 C   0  0  0  0  0  0  0  0  0  0  0  0
  -38.1072   62.8323   64.8327 N   0  0  0  0  0  0  0  0  0  0  0  0
  -36.2338   59.9307   59.7557 O   0  0  0  0  0  0  0  0  0  0  0  0
  -36.7890   58.5530   63.8960 C   0  0  1  0  0  0  0  0  0  0  0  0
  -33.4518   53.9775   59.5375 O   0  0  0  0  0  0  0  0  0  0  0  0
  -35.3080   58.3090   63.6770 C   0  0  0  0  0  0  0  0  0  0  0  0
  -36.1222   63.4359   65.6618 O   0  0  0  0  0  0  0  0  0  0  0  0
  -33.2995   56.9918   64.4853 C   0  0  1  0  0  0  0  0  0  0  0  0
  -35.9703   66.2577   65.3868 O   0  0  0  0  0  0  0  0  0  0  0  0
  -32.4876   57.3753   63.2572 C   0  0  0  0  0  0  0  0  0  0  0  0
  -32.9003   57.8316   65.6923 C   0  0  0  0  0  0  0  0  0  0  0  0
  -32.7432   56.4768   62.0723 C   0  0  0  0  0  0  0  0  0  0  0  0
  -37.9718   60.3782   65.2060 C   0  0  0  0  0  0  0  0  0  0  0  0
  -38.3646   60.7804   60.4483 C   0  0  0  0  0  0  0  0  0  0  0  0
  -38.9803   60.5610   61.8368 C   0  0  0  0  0  0  0  0  0  0  0  0
  -39.9295   61.7241   62.1840 C   0  0  0  0  0  0  0  0  0  0  0  0
  -41.1065   61.8716   61.2011 C   0  0  0  0  0  0  0  0  0  0  0  0
  -42.0343   60.6449   61.1228 C   0  0  0  0  0  0  0  0  0  0  0  0
  -43.1883   60.8286   60.1150 C   0  0  0  0  0  0  0  0  0  0  0  0
  -44.1540   59.6244   60.0187 C   0  0  0  0  0  0  0  0  0  0  0  0
  -45.2805   59.8260   58.9986 C   0  0  0  0  0  0  0  0  0  0  0  0
  -44.8244   60.0392   57.5518 C   0  0  0  0  0  0  0  0  0  0  0  0
  -43.9158   61.2758   57.4263 C   0  0  0  0  0  0  0  0  0  0  0  0
  -43.4375   61.5542   55.9933 C   0  0  0  0  0  0  0  0  0  0  0  0
  -44.5400   61.8273   54.9649 C   0  0  0  0  0  0  0  0  0  0  0  0
  -44.0202   62.0865   53.5288 C   0  0  0  0  0  0  0  0  0  0  0  0
  -43.2431   60.8721   52.9814 C   0  0  0  0  0  0  0  0  0  0  0  0
  -42.6549   60.9957   51.5707 C   0  0  0  0  0  0  0  0  0  0  0  0
  -30.1536   55.1125   60.4898 C   0  0  0  0  0  0  0  0  0  0  0  0
  -29.6719   56.0857   59.3973 C   0  0  0  0  0  0  0  0  0  0  0  0
  -30.5344   56.1361   58.1470 C   0  0  0  0  0  0  0  0  0  0  0  0
  -31.9206   56.7347   58.3998 C   0  0  0  0  0  0  0  0  0  0  0  0
  -32.7412   56.2279   59.5975 C   0  0  1  0  0  0  0  0  0  0  0  0
  -32.5099   54.7350   59.7269 C   0  0  0  0  0  0  0  0  0  0  0  0
  -36.4230   62.2179   66.3418 C   0  0  0  0  0  0  0  0  0  0  0  0
  -37.2055   63.7143   64.7524 C   0  0  0  0  0  0  0  0  0  0  0  0
  -37.8111   61.7664   65.8088 C   0  0  1  0  0  0  0  0  0  0  0  0
  -36.6304   66.1321   64.2291 C   0  0  0  0  0  0  0  0  0  0  0  0
  -36.6961   67.2191   63.3476 C   0  0  0  0  0  0  0  0  0  0  0  0
  -37.3909   67.1155   62.1307 C   0  0  0  0  0  0  0  0  0  0  0  0
  -38.0195   65.9204   61.7769 C   0  0  0  0  0  0  0  0  0  0  0  0
  -37.9515   64.8311   62.6500 C   0  0  0  0  0  0  0  0  0  0  0  0
  -37.2634   64.9346   63.8741 C   0  0  0  0  0  0  0  0  0  0  0  0
  -29.4119   50.9749   59.2510 H   0  0  0  0  0  0  0  0  0  0  0  0
  -28.4798   52.7578   60.4042 H   0  0  0  0  0  0  0  0  0  0  0  0
  -28.9974   52.9756   58.1544 H   0  0  0  0  0  0  0  0  0  0  0  0
  -36.1126   57.8173   59.3153 H   0  0  0  0  0  0  0  0  0  0  0  0
  -39.6386   57.4737   59.2004 H   0  0  0  0  0  0  0  0  0  0  0  0
  -39.8913   58.7032   60.4037 H   0  0  0  0  0  0  0  0  0  0  0  0
  -32.4512   57.9629   60.7682 H   0  0  0  0  0  0  0  0  0  0  0  0
  -38.5477   56.0427   60.8502 H   0  0  0  0  0  0  0  0  0  0  0  0
  -40.2025   56.5479   61.3748 H   0  0  0  0  0  0  0  0  0  0  0  0
  -36.0569   60.3245   64.7164 H   0  0  0  0  0  0  0  0  0  0  0  0
  -38.9782   56.7985   63.4515 H   0  0  0  0  0  0  0  0  0  0  0  0
  -37.5247   59.0434   61.8099 H   0  0  0  0  0  0  0  0  0  0  0  0
  -37.2383   57.7881   64.4943 H   0  0  0  0  0  0  0  0  0  0  0  0
  -33.0925   55.9850   64.7826 H   0  0  0  0  0  0  0  0  0  0  0  0
  -35.5543   67.0689   65.6032 H   0  0  0  0  0  0  0  0  0  0  0  0
  -31.4484   57.3224   63.5062 H   0  0  0  0  0  0  0  0  0  0  0  0
  -32.7834   58.3644   62.9762 H   0  0  0  0  0  0  0  0  0  0  0  0
  -33.0758   58.8657   65.4811 H   0  0  0  0  0  0  0  0  0  0  0  0
  -31.8621   57.6819   65.9034 H   0  0  0  0  0  0  0  0  0  0  0  0
  -33.4827   57.5368   66.5402 H   0  0  0  0  0  0  0  0  0  0  0  0
  -39.1607   60.8509   59.7368 H   0  0  0  0  0  0  0  0  0  0  0  0
  -37.7805   61.6747   60.5119 H   0  0  0  0  0  0  0  0  0  0  0  0
  -38.1993   60.5114   62.5666 H   0  0  0  0  0  0  0  0  0  0  0  0
  -39.5340   59.6454   61.8341 H   0  0  0  0  0  0  0  0  0  0  0  0
  -39.3666   62.6340   62.1772 H   0  0  0  0  0  0  0  0  0  0  0  0
  -40.3476   61.5124   63.1459 H   0  0  0  0  0  0  0  0  0  0  0  0
  -40.7058   62.0499   60.2251 H   0  0  0  0  0  0  0  0  0  0  0  0
  -41.7045   62.6814   61.5637 H   0  0  0  0  0  0  0  0  0  0  0  0
  -42.4521   60.4703   62.0922 H   0  0  0  0  0  0  0  0  0  0  0  0
  -41.4446   59.8170   60.7885 H   0  0  0  0  0  0  0  0  0  0  0  0
  -42.7634   60.9943   59.1470 H   0  0  0  0  0  0  0  0  0  0  0  0
  -43.7687   61.6566   60.4648 H   0  0  0  0  0  0  0  0  0  0  0  0
  -44.5930   59.4642   60.9812 H   0  0  0  0  0  0  0  0  0  0  0  0
  -43.5785   58.7840   59.6910 H   0  0  0  0  0  0  0  0  0  0  0  0
  -45.8463   60.6840   59.2965 H   0  0  0  0  0  0  0  0  0  0  0  0
  -45.8459   58.9176   58.9994 H   0  0  0  0  0  0  0  0  0  0  0  0
  -45.6856   60.1755   56.9316 H   0  0  0  0  0  0  0  0  0  0  0  0
  -44.2674   59.1791   57.2438 H   0  0  0  0  0  0  0  0  0  0  0  0
  -43.0559   61.1262   58.0453 H   0  0  0  0  0  0  0  0  0  0  0  0
  -44.4980   62.1209   57.7291 H   0  0  0  0  0  0  0  0  0  0  0  0
  -42.8820   60.7022   55.6610 H   0  0  0  0  0  0  0  0  0  0  0  0
  -42.8614   62.4542   56.0483 H   0  0  0  0  0  0  0  0  0  0  0  0
  -45.0896   62.6884   55.2831 H   0  0  0  0  0  0  0  0  0  0  0  0
  -45.1423   60.9441   54.9187 H   0  0  0  0  0  0  0  0  0  0  0  0
  -43.3714   62.9372   53.5421 H   0  0  0  0  0  0  0  0  0  0  0  0
  -44.8630   62.2602   52.8929 H   0  0  0  0  0  0  0  0  0  0  0  0
  -43.9112   60.0363   52.9797 H   0  0  0  0  0  0  0  0  0  0  0  0
  -42.3952   60.7730   53.6265 H   0  0  0  0  0  0  0  0  0  0  0  0
  -43.4490   61.0993   50.8610 H   0  0  0  0  0  0  0  0  0  0  0  0
  -42.0857   60.1186   51.3434 H   0  0  0  0  0  0  0  0  0  0  0  0
  -42.0196   61.8554   51.5232 H   0  0  0  0  0  0  0  0  0  0  0  0
  -29.3445   54.4709   60.7702 H   0  0  0  0  0  0  0  0  0  0  0  0
  -30.4870   55.6802   61.3333 H   0  0  0  0  0  0  0  0  0  0  0  0
  -28.6844   55.7937   59.1064 H   0  0  0  0  0  0  0  0  0  0  0  0
  -29.7196   57.0633   59.8296 H   0  0  0  0  0  0  0  0  0  0  0  0
  -30.6558   55.1397   57.7763 H   0  0  0  0  0  0  0  0  0  0  0  0
  -30.0372   56.7675   57.4406 H   0  0  0  0  0  0  0  0  0  0  0  0
  -32.5046   56.5568   57.5211 H   0  0  0  0  0  0  0  0  0  0  0  0
  -31.7198   57.7581   58.6393 H   0  0  0  0  0  0  0  0  0  0  0  0
  -33.7756   56.4049   59.3884 H   0  0  0  0  0  0  0  0  0  0  0  0
  -36.4650   62.3817   67.3983 H   0  0  0  0  0  0  0  0  0  0  0  0
  -35.6736   61.4743   66.1674 H   0  0  0  0  0  0  0  0  0  0  0  0
  -38.4862   61.6503   66.6308 H   0  0  0  0  0  0  0  0  0  0  0  0
  -36.2291   68.1055   63.5948 H   0  0  0  0  0  0  0  0  0  0  0  0
  -37.4367   67.9273   61.4951 H   0  0  0  0  0  0  0  0  0  0  0  0
  -38.5278   65.8422   60.8822 H   0  0  0  0  0  0  0  0  0  0  0  0
  -38.4100   63.9424   62.3950 H   0  0  0  0  0  0  0  0  0  0  0  0
  1  2  1  0  0  0  0
  1  5  1  0  0  0  0
  1  7  1  0  0  0  0
  2 18  2  0  0  0  0
  2 29  1  0  0  0  0
  3 21  2  0  0  0  0
  4  6  1  0  0  0  0
  4 59  1  0  0  0  0
  4 60  1  0  0  0  0
  4 61  1  0  0  0  0
  5 62  1  0  0  0  0
  6 14  1  0  0  0  0
  7 10  1  0  0  0  0
  7 63  1  0  0  0  0
  7 64  1  0  0  0  0
  8 27  1  0  0  0  0
  8 48  1  0  0  0  0
  8 65  1  0  0  0  0
  9 21  1  0  0  0  0
  9 23  1  0  0  0  0
 10 13  1  0  0  0  0
 10 66  1  0  0  0  0
 10 67  1  0  0  0  0
 11 19  1  0  0  0  0
 11 28  1  0  0  0  0
 11 68  1  0  0  0  0
 12 27  2  0  0  0  0
 13 16  2  0  0  0  0
 13 69  1  0  0  0  0
 14 44  1  0  0  0  0
 14 49  1  0  0  0  0
 15 28  2  0  0  0  0
 16 19  1  0  0  0  0
 16 70  1  0  0  0  0
 17 51  2  0  0  0  0
 17 52  1  0  0  0  0
 19 21  1  0  0  0  0
 19 71  1  1  0  0  0
 20 49  2  0  0  0  0
 22 50  1  0  0  0  0
 22 51  1  0  0  0  0
 23 25  1  0  0  0  0
 23 26  1  0  0  0  0
 23 72  1  1  0  0  0
 24 53  1  0  0  0  0
 24 73  1  0  0  0  0
 25 27  1  0  0  0  0
 25 74  1  0  0  0  0
 25 75  1  0  0  0  0
 26 76  1  0  0  0  0
 26 77  1  0  0  0  0
 26 78  1  0  0  0  0
 28 52  1  0  0  0  0
 29 30  1  0  0  0  0
 29 79  1  0  0  0  0
 29 80  1  0  0  0  0
 30 31  1  0  0  0  0
 30 81  1  0  0  0  0
 30 82  1  0  0  0  0
 31 32  1  0  0  0  0
 31 83  1  0  0  0  0
 31 84  1  0  0  0  0
 32 33  1  0  0  0  0
 32 85  1  0  0  0  0
 32 86  1  0  0  0  0
 33 34  1  0  0  0  0
 33 87  1  0  0  0  0
 33 88  1  0  0  0  0
 34 35  1  0  0  0  0
 34 89  1  0  0  0  0
 34 90  1  0  0  0  0
 35 36  1  0  0  0  0
 35 91  1  0  0  0  0
 35 92  1  0  0  0  0
 36 37  1  0  0  0  0
 36 93  1  0  0  0  0
 36 94  1  0  0  0  0
 37 38  1  0  0  0  0
 37 95  1  0  0  0  0
 37 96  1  0  0  0  0
 38 39  1  0  0  0  0
 38 97  1  0  0  0  0
 38 98  1  0  0  0  0
 39 40  1  0  0  0  0
 39 99  1  0  0  0  0
 39100  1  0  0  0  0
 40 41  1  0  0  0  0
 40101  1  0  0  0  0
 40102  1  0  0  0  0
 41 42  1  0  0  0  0
 41103  1  0  0  0  0
 41104  1  0  0  0  0
 42 43  1  0  0  0  0
 42105  1  0  0  0  0
 42106  1  0  0  0  0
 43107  1  0  0  0  0
 43108  1  0  0  0  0
 43109  1  0  0  0  0
 44 45  1  0  0  0  0
 44110  1  0  0  0  0
 44111  1  0  0  0  0
 45 46  1  0  0  0  0
 45112  1  0  0  0  0
 45113  1  0  0  0  0
 46 47  1  0  0  0  0
 46114  1  0  0  0  0
 46115  1  0  0  0  0
 47 48  1  0  0  0  0
 47116  1  0  0  0  0
 47117  1  0  0  0  0
 48 49  1  0  0  0  0
 48118  1  6  0  0  0
 50 52  1  0  0  0  0
 50119  1  0  0  0  0
 50120  1  0  0  0  0
 51 58  1  0  0  0  0
 52121  1  1  0  0  0
 53 54  2  0  0  0  0
 53 58  1  0  0  0  0
 54 55  1  0  0  0  0
 54122  1  0  0  0  0
 55 56  2  0  0  0  0
 55123  1  0  0  0  0
 56 57  1  0  0  0  0
 56124  1  0  0  0  0
 57 58  2  0  0  0  0
 57125  1  0  0  0  0
M  END
$$$$