/media/chris/experiments/cd1a-new-docking/inputs/ligands/1xz0_ligand.pdb
 OpenBabel07022319323D

125127  0  0  1  0  0  0  0  0999 V2000
  -38.7199   58.6964   57.8395 N   0  0  0  0  0  0  0  0  0  0  0  0
  -38.6237   58.6922   56.4836 C   0  0  0  0  0  0  0  0  0  0  0  0
  -34.9015   57.3291   63.0745 O   0  0  0  0  0  0  0  0  0  0  0  0
  -35.3037   53.1293   69.5267 Si  0  0  0  0  0  0  0  0  0  0  0  0
  -39.9171   59.1727   58.3922 O   0  0  0  0  0  0  0  0  0  0  0  0
  -35.8422   52.9282   67.8340 O   0  0  0  0  0  0  0  0  0  0  0  0
  -37.7348   58.2656   58.8364 C   0  0  0  0  0  0  0  0  0  0  0  0
  -34.1333   55.7506   64.8395 N   0  0  0  0  0  0  0  0  0  0  0  0
  -34.3234   59.2293   64.2555 O   0  0  0  0  0  0  0  0  0  0  0  0
  -37.9322   59.1139   60.1095 C   0  0  0  0  0  0  0  0  0  0  0  0
  -36.8950   59.8150   64.6310 N   0  0  0  0  0  0  0  0  0  0  0  0
  -33.1497   56.3711   62.8997 O   0  0  0  0  0  0  0  0  0  0  0  0
  -36.9889   58.8455   61.2943 C   0  0  0  0  0  0  0  0  0  0  0  0
  -35.5952   53.8984   66.9100 N   0  0  0  0  0  0  0  0  0  0  0  0
  -39.0190   60.4929   64.1818 O   0  0  0  0  0  0  0  0  0  0  0  0
  -37.6390   58.4030   62.6110 C   0  0  0  0  0  0  0  0  0  0  0  0
  -36.6761   62.7997   64.8481 N   0  0  0  0  0  0  0  0  0  0  0  0
  -39.5503   59.0904   55.7780 O   0  0  0  0  0  0  0  0  0  0  0  0
  -36.7890   58.5530   63.8960 C   0  0  1  0  0  0  0  0  0  0  0  0
  -33.6051   54.3248   67.8707 O   0  0  0  0  0  0  0  0  0  0  0  0
  -35.3080   58.3090   63.6770 C   0  0  0  0  0  0  0  0  0  0  0  0
  -36.0644   62.7402   66.9961 O   0  0  0  0  0  0  0  0  0  0  0  0
  -32.9090   58.9936   64.1228 C   0  0  1  0  0  0  0  0  0  0  0  0
  -33.7854   64.1167   67.5367 O   0  0  0  0  0  0  0  0  0  0  0  0
  -32.5863   57.6467   64.7522 C   0  0  0  0  0  0  0  0  0  0  0  0
  -32.3861   59.0720   62.6938 C   0  0  0  0  0  0  0  0  0  0  0  0
  -33.3053   56.4958   64.0929 C   0  0  0  0  0  0  0  0  0  0  0  0
  -37.9361   60.6601   64.7271 C   0  0  0  0  0  0  0  0  0  0  0  0
  -37.3366   58.1747   55.8329 C   0  0  0  0  0  0  0  0  0  0  0  0
  -36.0716   58.3754   56.6786 C   0  0  0  0  0  0  0  0  0  0  0  0
  -34.8406   57.8373   55.9241 C   0  0  0  0  0  0  0  0  0  0  0  0
  -33.5245   57.9836   56.7112 C   0  0  0  0  0  0  0  0  0  0  0  0
  -33.4944   57.2329   58.0557 C   0  0  0  0  0  0  0  0  0  0  0  0
  -33.6774   55.7090   57.8964 C   0  0  0  0  0  0  0  0  0  0  0  0
  -35.0029   55.2891   57.2193 C   0  0  0  0  0  0  0  0  0  0  0  0
  -35.1670   53.7705   57.0890 C   0  0  0  0  0  0  0  0  0  0  0  0
  -36.4586   53.3066   56.4083 C   0  0  0  0  0  0  0  0  0  0  0  0
  -37.7025   53.8013   57.1689 C   0  0  0  0  0  0  0  0  0  0  0  0
  -39.0329   53.3538   56.5445 C   0  0  0  0  0  0  0  0  0  0  0  0
  -40.2993   53.8373   57.2587 C   0  0  0  0  0  0  0  0  0  0  0  0
  -41.6198   53.3519   56.6103 C   0  0  0  0  0  0  0  0  0  0  0  0
  -42.8516   53.8882   57.3675 C   0  0  0  0  0  0  0  0  0  0  0  0
  -42.9810   53.5123   58.8485 C   0  0  0  0  0  0  0  0  0  0  0  0
  -36.5660   54.0419   65.8151 C   0  0  0  0  0  0  0  0  0  0  0  0
  -37.3398   55.3677   65.9430 C   0  0  0  0  0  0  0  0  0  0  0  0
  -36.8355   56.3118   67.0220 C   0  0  0  0  0  0  0  0  0  0  0  0
  -35.4462   56.8793   66.7191 C   0  0  0  0  0  0  0  0  0  0  0  0
  -34.3291   55.9160   66.2843 C   0  0  1  0  0  0  0  0  0  0  0  0
  -34.4826   54.6317   67.0754 C   0  0  0  0  0  0  0  0  0  0  0  0
  -37.2467   61.9422   66.9529 C   0  0  0  0  0  0  0  0  0  0  0  0
  -35.7935   63.2028   65.6580 C   0  0  0  0  0  0  0  0  0  0  0  0
  -37.7224   61.9689   65.4738 C   0  0  1  0  0  0  0  0  0  0  0  0
  -33.6889   64.4926   66.2556 C   0  0  0  0  0  0  0  0  0  0  0  0
  -32.6185   65.3001   65.8494 C   0  0  0  0  0  0  0  0  0  0  0  0
  -32.4999   65.7159   64.5125 C   0  0  0  0  0  0  0  0  0  0  0  0
  -33.4451   65.3205   63.5644 C   0  0  0  0  0  0  0  0  0  0  0  0
  -34.5113   64.5097   63.9633 C   0  0  0  0  0  0  0  0  0  0  0  0
  -34.6376   64.0986   65.3041 C   0  0  0  0  0  0  0  0  0  0  0  0
  -35.6803   51.9873   70.2820 H   0  0  0  0  0  0  0  0  0  0  0  0
  -35.9117   54.2859   70.0826 H   0  0  0  0  0  0  0  0  0  0  0  0
  -33.8916   53.2743   69.5602 H   0  0  0  0  0  0  0  0  0  0  0  0
  -40.5190   59.4386   57.6794 H   0  0  0  0  0  0  0  0  0  0  0  0
  -36.7460   58.4110   58.4543 H   0  0  0  0  0  0  0  0  0  0  0  0
  -37.8665   57.2277   59.0606 H   0  0  0  0  0  0  0  0  0  0  0  0
  -34.6458   55.0427   64.3864 H   0  0  0  0  0  0  0  0  0  0  0  0
  -38.9324   58.9496   60.4524 H   0  0  0  0  0  0  0  0  0  0  0  0
  -37.7114   60.1161   59.8066 H   0  0  0  0  0  0  0  0  0  0  0  0
  -36.0875   60.0833   65.1262 H   0  0  0  0  0  0  0  0  0  0  0  0
  -35.9667   58.9578   61.2074 H   0  0  0  0  0  0  0  0  0  0  0  0
  -38.5981   58.0231   62.6390 H   0  0  0  0  0  0  0  0  0  0  0  0
  -37.2383   57.7881   64.4943 H   0  0  0  0  0  0  0  0  0  0  0  0
  -32.4039   59.7865   64.6338 H   0  0  0  0  0  0  0  0  0  0  0  0
  -33.1385   64.3925   68.1559 H   0  0  0  0  0  0  0  0  0  0  0  0
  -32.8676   57.6773   65.7841 H   0  0  0  0  0  0  0  0  0  0  0  0
  -31.5368   57.4801   64.6269 H   0  0  0  0  0  0  0  0  0  0  0  0
  -32.8437   58.3054   62.1040 H   0  0  0  0  0  0  0  0  0  0  0  0
  -31.3248   58.9358   62.6944 H   0  0  0  0  0  0  0  0  0  0  0  0
  -32.6225   60.0297   62.2795 H   0  0  0  0  0  0  0  0  0  0  0  0
  -37.2022   58.6875   54.9035 H   0  0  0  0  0  0  0  0  0  0  0  0
  -37.4589   57.1184   55.7136 H   0  0  0  0  0  0  0  0  0  0  0  0
  -36.1775   57.8492   57.6042 H   0  0  0  0  0  0  0  0  0  0  0  0
  -35.9382   59.4201   56.8673 H   0  0  0  0  0  0  0  0  0  0  0  0
  -34.7461   58.3746   55.0036 H   0  0  0  0  0  0  0  0  0  0  0  0
  -34.9995   56.7906   55.7689 H   0  0  0  0  0  0  0  0  0  0  0  0
  -33.3661   59.0237   56.9062 H   0  0  0  0  0  0  0  0  0  0  0  0
  -32.7582   57.5488   56.1040 H   0  0  0  0  0  0  0  0  0  0  0  0
  -34.2824   57.6086   58.6743 H   0  0  0  0  0  0  0  0  0  0  0  0
  -32.5320   57.3968   58.4936 H   0  0  0  0  0  0  0  0  0  0  0  0
  -33.6439   55.2649   58.8693 H   0  0  0  0  0  0  0  0  0  0  0  0
  -32.8889   55.3733   57.2557 H   0  0  0  0  0  0  0  0  0  0  0  0
  -35.0341   55.7187   56.2398 H   0  0  0  0  0  0  0  0  0  0  0  0
  -35.7997   55.6403   57.8411 H   0  0  0  0  0  0  0  0  0  0  0  0
  -35.1424   53.3499   58.0726 H   0  0  0  0  0  0  0  0  0  0  0  0
  -34.3666   53.4396   56.4606 H   0  0  0  0  0  0  0  0  0  0  0  0
  -36.4716   52.2371   56.3779 H   0  0  0  0  0  0  0  0  0  0  0  0
  -36.4838   53.7146   55.4195 H   0  0  0  0  0  0  0  0  0  0  0  0
  -37.6823   54.8710   57.1880 H   0  0  0  0  0  0  0  0  0  0  0  0
  -37.6590   53.3719   58.1480 H   0  0  0  0  0  0  0  0  0  0  0  0
  -39.0485   52.2840   56.5363 H   0  0  0  0  0  0  0  0  0  0  0  0
  -39.0609   53.7964   55.5707 H   0  0  0  0  0  0  0  0  0  0  0  0
  -40.2980   54.9073   57.2563 H   0  0  0  0  0  0  0  0  0  0  0  0
  -40.2719   53.4243   58.2455 H   0  0  0  0  0  0  0  0  0  0  0  0
  -41.6415   52.2822   56.6244 H   0  0  0  0  0  0  0  0  0  0  0  0
  -41.6561   53.7204   55.6064 H   0  0  0  0  0  0  0  0  0  0  0  0
  -43.7228   53.5227   56.8651 H   0  0  0  0  0  0  0  0  0  0  0  0
  -42.7380   54.9521   57.3614 H   0  0  0  0  0  0  0  0  0  0  0  0
  -43.0992   52.4527   58.9385 H   0  0  0  0  0  0  0  0  0  0  0  0
  -43.8342   54.0033   59.2678 H   0  0  0  0  0  0  0  0  0  0  0  0
  -42.0998   53.8187   59.3725 H   0  0  0  0  0  0  0  0  0  0  0  0
  -37.2581   53.2266   65.8503 H   0  0  0  0  0  0  0  0  0  0  0  0
  -36.0376   54.0407   64.8847 H   0  0  0  0  0  0  0  0  0  0  0  0
  -38.3616   55.1347   66.1587 H   0  0  0  0  0  0  0  0  0  0  0  0
  -37.2043   55.8806   65.0138 H   0  0  0  0  0  0  0  0  0  0  0  0
  -36.7912   55.7782   67.9484 H   0  0  0  0  0  0  0  0  0  0  0  0
  -37.5150   57.1370   67.0682 H   0  0  0  0  0  0  0  0  0  0  0  0
  -35.1080   57.3723   67.6065 H   0  0  0  0  0  0  0  0  0  0  0  0
  -35.6020   57.4981   65.8602 H   0  0  0  0  0  0  0  0  0  0  0  0
  -33.3900   56.3670   66.5281 H   0  0  0  0  0  0  0  0  0  0  0  0
  -37.9981   62.3547   67.5933 H   0  0  0  0  0  0  0  0  0  0  0  0
  -37.0600   60.9435   67.2883 H   0  0  0  0  0  0  0  0  0  0  0  0
  -38.7287   62.3301   65.4312 H   0  0  0  0  0  0  0  0  0  0  0  0
  -31.9093   65.5928   66.5397 H   0  0  0  0  0  0  0  0  0  0  0  0
  -31.7098   66.3168   64.2300 H   0  0  0  0  0  0  0  0  0  0  0  0
  -33.3577   65.6230   62.5816 H   0  0  0  0  0  0  0  0  0  0  0  0
  -35.2127   64.2093   63.2685 H   0  0  0  0  0  0  0  0  0  0  0  0
  1  2  1  0  0  0  0
  1  5  1  0  0  0  0
  1  7  1  0  0  0  0
  2 18  2  0  0  0  0
  2 29  1  0  0  0  0
  3 21  2  0  0  0  0
  4  6  1  0  0  0  0
  4 59  1  0  0  0  0
  4 60  1  0  0  0  0
  4 61  1  0  0  0  0
  5 62  1  0  0  0  0
  6 14  1  0  0  0  0
  7 10  1  0  0  0  0
  7 63  1  0  0  0  0
  7 64  1  0  0  0  0
  8 27  1  0  0  0  0
  8 48  1  0  0  0  0
  8 65  1  0  0  0  0
  9 21  1  0  0  0  0
  9 23  1  0  0  0  0
 10 13  1  0  0  0  0
 10 66  1  0  0  0  0
 10 67  1  0  0  0  0
 11 19  1  0  0  0  0
 11 28  1  0  0  0  0
 11 68  1  0  0  0  0
 12 27  2  0  0  0  0
 13 16  2  0  0  0  0
 13 69  1  0  0  0  0
 14 44  1  0  0  0  0
 14 49  1  0  0  0  0
 15 28  2  0  0  0  0
 16 19  1  0  0  0  0
 16 70  1  0  0  0  0
 17 51  2  0  0  0  0
 17 52  1  0  0  0  0
 19 21  1  0  0  0  0
 19 71  1  1  0  0  0
 20 49  2  0  0  0  0
 22 50  1  0  0  0  0
 22 51  1  0  0  0  0
 23 25  1  0  0  0  0
 23 26  1  0  0  0  0
 23 72  1  1  0  0  0
 24 53  1  0  0  0  0
 24 73  1  0  0  0  0
 25 27  1  0  0  0  0
 25 74  1  0  0  0  0
 25 75  1  0  0  0  0
 26 76  1  0  0  0  0
 26 77  1  0  0  0  0
 26 78  1  0  0  0  0
 28 52  1  0  0  0  0
 29 30  1  0  0  0  0
 29 79  1  0  0  0  0
 29 80  1  0  0  0  0
 30 31  1  0  0  0  0
 30 81  1  0  0  0  0
 30 82  1  0  0  0  0
 31 32  1  0  0  0  0
 31 83  1  0  0  0  0
 31 84  1  0  0  0  0
 32 33  1  0  0  0  0
 32 85  1  0  0  0  0
 32 86  1  0  0  0  0
 33 34  1  0  0  0  0
 33 87  1  0  0  0  0
 33 88  1  0  0  0  0
 34 35  1  0  0  0  0
 34 89  1  0  0  0  0
 34 90  1  0  0  0  0
 35 36  1  0  0  0  0
 35 91  1  0  0  0  0
 35 92  1  0  0  0  0
 36 37  1  0  0  0  0
 36 93  1  0  0  0  0
 36 94  1  0  0  0  0
 37 38  1  0  0  0  0
 37 95  1  0  0  0  0
 37 96  1  0  0  0  0
 38 39  1  0  0  0  0
 38 97  1  0  0  0  0
 38 98  1  0  0  0  0
 39 40  1  0  0  0  0
 39 99  1  0  0  0  0
 39100  1  0  0  0  0
 40 41  1  0  0  0  0
 40101  1  0  0  0  0
 40102  1  0  0  0  0
 41 42  1  0  0  0  0
 41103  1  0  0  0  0
 41104  1  0  0  0  0
 42 43  1  0  0  0  0
 42105  1  0  0  0  0
 42106  1  0  0  0  0
 43107  1  0  0  0  0
 43108  1  0  0  0  0
 43109  1  0  0  0  0
 44 45  1  0  0  0  0
 44110  1  0  0  0  0
 44111  1  0  0  0  0
 45 46  1  0  0  0  0
 45112  1  0  0  0  0
 45113  1  0  0  0  0
 46 47  1  0  0  0  0
 46114  1  0  0  0  0
 46115  1  0  0  0  0
 47 48  1  0  0  0  0
 47116  1  0  0  0  0
 47117  1  0  0  0  0
 48 49  1  0  0  0  0
 48118  1  1  0  0  0
 50 52  1  0  0  0  0
 50119  1  0  0  0  0
 50120  1  0  0  0  0
 51 58  1  0  0  0  0
 52121  1  6  0  0  0
 53 54  2  0  0  0  0
 53 58  1  0  0  0  0
 54 55  1  0  0  0  0
 54122  1  0  0  0  0
 55 56  2  0  0  0  0
 55123  1  0  0  0  0
 56 57  1  0  0  0  0
 56124  1  0  0  0  0
 57 58  2  0  0  0  0
 57125  1  0  0  0  0
M  END
$$$$