/media/chris/experiments/cd1a-new-docking/inputs/ligands/1xz0_ligand.pdb
 OpenBabel07022319323D

125127  0  0  1  0  0  0  0  0999 V2000
  -38.0879   60.7990   60.3861 N   0  0  0  0  0  0  0  0  0  0  0  0
  -36.7820   61.0531   60.6651 C   0  0  0  0  0  0  0  0  0  0  0  0
  -34.5145   59.2300   63.5740 O   0  0  0  0  0  0  0  0  0  0  0  0
  -39.7597   53.9654   61.5739 Si  0  0  0  0  0  0  0  0  0  0  0  0
  -38.9751   61.8829   60.4456 O   0  0  0  0  0  0  0  0  0  0  0  0
  -38.5600   53.1675   62.6323 O   0  0  0  0  0  0  0  0  0  0  0  0
  -38.7241   59.5292   60.0221 C   0  0  0  0  0  0  0  0  0  0  0  0
  -35.4163   55.0274   65.1840 N   0  0  0  0  0  0  0  0  0  0  0  0
  -34.8102   56.9389   63.5156 O   0  0  0  0  0  0  0  0  0  0  0  0
  -37.6379   58.4343   59.9942 C   0  0  0  0  0  0  0  0  0  0  0  0
  -36.8950   59.8150   64.6310 N   0  0  0  0  0  0  0  0  0  0  0  0
  -33.8897   54.6362   66.8063 O   0  0  0  0  0  0  0  0  0  0  0  0
  -36.8790   58.1542   61.3024 C   0  0  0  0  0  0  0  0  0  0  0  0
  -37.8240   53.8976   63.5162 N   0  0  0  0  0  0  0  0  0  0  0  0
  -37.6467   59.1566   66.6741 O   0  0  0  0  0  0  0  0  0  0  0  0
  -37.6390   58.4030   62.6110 C   0  0  0  0  0  0  0  0  0  0  0  0
  -38.4016   62.2337   65.5712 N   0  0  0  0  0  0  0  0  0  0  0  0
  -35.9361   60.1600   60.6228 O   0  0  0  0  0  0  0  0  0  0  0  0
  -36.7890   58.5530   63.8960 C   0  0  1  0  0  0  0  0  0  0  0  0
  -36.6226   52.0696   64.0456 O   0  0  0  0  0  0  0  0  0  0  0  0
  -35.3080   58.3090   63.6770 C   0  0  0  0  0  0  0  0  0  0  0  0
  -36.5957   63.5487   65.5313 O   0  0  0  0  0  0  0  0  0  0  0  0
  -33.4580   56.5871   63.8642 C   0  0  1  0  0  0  0  0  0  0  0  0
  -36.9290   65.8443   64.1171 O   0  0  0  0  0  0  0  0  0  0  0  0
  -33.3880   56.3865   65.3706 C   0  0  0  0  0  0  0  0  0  0  0  0
  -32.9083   55.3752   63.1222 C   0  0  0  0  0  0  0  0  0  0  0  0
  -34.2895   55.2823   65.8649 C   0  0  0  0  0  0  0  0  0  0  0  0
  -37.2920   60.0330   65.8968 C   0  0  0  0  0  0  0  0  0  0  0  0
  -36.3683   62.4791   61.0438 C   0  0  0  0  0  0  0  0  0  0  0  0
  -34.8689   62.6535   61.3209 C   0  0  0  0  0  0  0  0  0  0  0  0
  -34.5692   64.1146   61.7076 C   0  0  0  0  0  0  0  0  0  0  0  0
  -33.0784   64.3835   61.9873 C   0  0  0  0  0  0  0  0  0  0  0  0
  -32.7532   65.8332   62.3929 C   0  0  0  0  0  0  0  0  0  0  0  0
  -33.1610   66.8629   61.3184 C   0  0  0  0  0  0  0  0  0  0  0  0
  -34.6724   66.8847   60.9914 C   0  0  0  0  0  0  0  0  0  0  0  0
  -35.0476   67.9039   59.9093 C   0  0  0  0  0  0  0  0  0  0  0  0
  -36.5384   67.9737   59.5633 C   0  0  0  0  0  0  0  0  0  0  0  0
  -37.3808   68.3721   60.7888 C   0  0  0  0  0  0  0  0  0  0  0  0
  -37.0260   69.7505   61.3668 C   0  0  0  0  0  0  0  0  0  0  0  0
  -37.8280   70.1823   62.5988 C   0  0  0  0  0  0  0  0  0  0  0  0
  -37.6708   69.2435   63.8210 C   0  0  0  0  0  0  0  0  0  0  0  0
  -36.2045   69.1714   64.2933 C   0  0  0  0  0  0  0  0  0  0  0  0
  -35.8985   68.2622   65.4896 C   0  0  0  0  0  0  0  0  0  0  0  0
  -38.0658   55.3475   63.5508 C   0  0  0  0  0  0  0  0  0  0  0  0
  -38.7358   55.7569   64.8760 C   0  0  0  0  0  0  0  0  0  0  0  0
  -38.8371   54.6561   65.9189 C   0  0  0  0  0  0  0  0  0  0  0  0
  -37.4747   54.2249   66.4683 C   0  0  0  0  0  0  0  0  0  0  0  0
  -36.3367   53.9233   65.4790 C   0  0  1  0  0  0  0  0  0  0  0  0
  -36.9363   53.2304   64.2710 C   0  0  0  0  0  0  0  0  0  0  0  0
  -36.1797   62.4160   66.2933 C   0  0  0  0  0  0  0  0  0  0  0  0
  -37.9615   63.3312   65.1248 C   0  0  0  0  0  0  0  0  0  0  0  0
  -37.4151   61.4760   66.3644 C   0  0  1  0  0  0  0  0  0  0  0  0
  -38.1986   65.5149   63.8499 C   0  0  0  0  0  0  0  0  0  0  0  0
  -38.9908   66.3774   63.0808 C   0  0  0  0  0  0  0  0  0  0  0  0
  -40.3291   66.0589   62.7945 C   0  0  0  0  0  0  0  0  0  0  0  0
  -40.8874   64.8694   63.2656 C   0  0  0  0  0  0  0  0  0  0  0  0
  -40.0993   64.0026   64.0279 C   0  0  0  0  0  0  0  0  0  0  0  0
  -38.7605   64.3232   64.3239 C   0  0  0  0  0  0  0  0  0  0  0  0
  -40.3876   52.9920   60.7525 H   0  0  0  0  0  0  0  0  0  0  0  0
  -39.1056   54.9243   60.7560 H   0  0  0  0  0  0  0  0  0  0  0  0
  -40.7387   54.6134   62.3727 H   0  0  0  0  0  0  0  0  0  0  0  0
  -38.4888   62.6857   60.6904 H   0  0  0  0  0  0  0  0  0  0  0  0
  -39.1765   59.6148   59.0562 H   0  0  0  0  0  0  0  0  0  0  0  0
  -39.4821   59.2787   60.7346 H   0  0  0  0  0  0  0  0  0  0  0  0
  -35.6419   55.6230   64.4333 H   0  0  0  0  0  0  0  0  0  0  0  0
  -36.9147   58.7188   59.2587 H   0  0  0  0  0  0  0  0  0  0  0  0
  -38.1687   57.5285   59.7874 H   0  0  0  0  0  0  0  0  0  0  0  0
  -36.6386   60.6199   64.1253 H   0  0  0  0  0  0  0  0  0  0  0  0
  -35.9044   57.8148   61.2996 H   0  0  0  0  0  0  0  0  0  0  0  0
  -38.6687   58.4674   62.6338 H   0  0  0  0  0  0  0  0  0  0  0  0
  -37.2383   57.7881   64.4943 H   0  0  0  0  0  0  0  0  0  0  0  0
  -32.8282   57.3951   63.5554 H   0  0  0  0  0  0  0  0  0  0  0  0
  -36.5744   66.6472   63.7891 H   0  0  0  0  0  0  0  0  0  0  0  0
  -33.6747   57.2996   65.8491 H   0  0  0  0  0  0  0  0  0  0  0  0
  -32.3828   56.1071   65.6082 H   0  0  0  0  0  0  0  0  0  0  0  0
  -33.4856   54.5103   63.3747 H   0  0  0  0  0  0  0  0  0  0  0  0
  -31.8880   55.2174   63.4032 H   0  0  0  0  0  0  0  0  0  0  0  0
  -32.9654   55.5466   62.0675 H   0  0  0  0  0  0  0  0  0  0  0  0
  -36.9061   62.7604   61.9249 H   0  0  0  0  0  0  0  0  0  0  0  0
  -36.5959   63.0965   60.2001 H   0  0  0  0  0  0  0  0  0  0  0  0
  -34.3144   62.3990   60.4419 H   0  0  0  0  0  0  0  0  0  0  0  0
  -34.5847   62.0117   62.1286 H   0  0  0  0  0  0  0  0  0  0  0  0
  -35.1274   64.3529   62.5888 H   0  0  0  0  0  0  0  0  0  0  0  0
  -34.8476   64.7241   60.8734 H   0  0  0  0  0  0  0  0  0  0  0  0
  -32.5257   64.1531   61.1006 H   0  0  0  0  0  0  0  0  0  0  0  0
  -32.8105   63.7682   62.8207 H   0  0  0  0  0  0  0  0  0  0  0  0
  -31.6993   65.9129   62.5597 H   0  0  0  0  0  0  0  0  0  0  0  0
  -33.3139   66.0528   63.2774 H   0  0  0  0  0  0  0  0  0  0  0  0
  -32.6278   66.6361   60.4189 H   0  0  0  0  0  0  0  0  0  0  0  0
  -32.9217   67.8274   61.7151 H   0  0  0  0  0  0  0  0  0  0  0  0
  -35.2091   67.1260   61.8850 H   0  0  0  0  0  0  0  0  0  0  0  0
  -34.9276   65.9163   60.6146 H   0  0  0  0  0  0  0  0  0  0  0  0
  -34.5130   67.6510   59.0176 H   0  0  0  0  0  0  0  0  0  0  0  0
  -34.7911   68.8639   60.3059 H   0  0  0  0  0  0  0  0  0  0  0  0
  -36.8606   67.0142   59.2162 H   0  0  0  0  0  0  0  0  0  0  0  0
  -36.6739   68.7165   58.8052 H   0  0  0  0  0  0  0  0  0  0  0  0
  -37.2320   67.6380   61.5529 H   0  0  0  0  0  0  0  0  0  0  0  0
  -38.3984   68.4249   60.4623 H   0  0  0  0  0  0  0  0  0  0  0  0
  -37.1848   70.4792   60.5995 H   0  0  0  0  0  0  0  0  0  0  0  0
  -36.0094   69.6768   61.6923 H   0  0  0  0  0  0  0  0  0  0  0  0
  -38.8634   70.2135   62.3309 H   0  0  0  0  0  0  0  0  0  0  0  0
  -37.4466   71.1374   62.8942 H   0  0  0  0  0  0  0  0  0  0  0  0
  -37.9974   68.2615   63.5494 H   0  0  0  0  0  0  0  0  0  0  0  0
  -38.2628   69.6337   64.6224 H   0  0  0  0  0  0  0  0  0  0  0  0
  -35.9018   70.1632   64.5568 H   0  0  0  0  0  0  0  0  0  0  0  0
  -35.6712   68.7377   63.4732 H   0  0  0  0  0  0  0  0  0  0  0  0
  -36.4016   68.6338   66.3578 H   0  0  0  0  0  0  0  0  0  0  0  0
  -34.8434   68.2491   65.6669 H   0  0  0  0  0  0  0  0  0  0  0  0
  -36.2371   67.2693   65.2788 H   0  0  0  0  0  0  0  0  0  0  0  0
  -38.7054   55.6164   62.7362 H   0  0  0  0  0  0  0  0  0  0  0  0
  -37.1271   55.8546   63.4691 H   0  0  0  0  0  0  0  0  0  0  0  0
  -39.7266   56.0952   64.6549 H   0  0  0  0  0  0  0  0  0  0  0  0
  -38.1103   56.5128   65.3030 H   0  0  0  0  0  0  0  0  0  0  0  0
  -39.3093   53.8060   65.4726 H   0  0  0  0  0  0  0  0  0  0  0  0
  -39.4046   55.0437   66.7391 H   0  0  0  0  0  0  0  0  0  0  0  0
  -37.6347   53.3368   67.0432 H   0  0  0  0  0  0  0  0  0  0  0  0
  -37.1293   55.0839   67.0047 H   0  0  0  0  0  0  0  0  0  0  0  0
  -35.6491   53.2583   65.9584 H   0  0  0  0  0  0  0  0  0  0  0  0
  -35.8835   62.7169   67.2764 H   0  0  0  0  0  0  0  0  0  0  0  0
  -35.3391   61.9280   65.8460 H   0  0  0  0  0  0  0  0  0  0  0  0
  -37.6533   61.2801   67.3890 H   0  0  0  0  0  0  0  0  0  0  0  0
  -38.5871   67.2562   62.7207 H   0  0  0  0  0  0  0  0  0  0  0  0
  -40.9022   66.7079   62.2329 H   0  0  0  0  0  0  0  0  0  0  0  0
  -41.8694   64.6331   63.0538 H   0  0  0  0  0  0  0  0  0  0  0  0
  -40.5025   63.1192   64.3773 H   0  0  0  0  0  0  0  0  0  0  0  0
  1  2  1  0  0  0  0
  1  5  1  0  0  0  0
  1  7  1  0  0  0  0
  2 18  2  0  0  0  0
  2 29  1  0  0  0  0
  3 21  2  0  0  0  0
  4  6  1  0  0  0  0
  4 59  1  0  0  0  0
  4 60  1  0  0  0  0
  4 61  1  0  0  0  0
  5 62  1  0  0  0  0
  6 14  1  0  0  0  0
  7 10  1  0  0  0  0
  7 63  1  0  0  0  0
  7 64  1  0  0  0  0
  8 27  1  0  0  0  0
  8 48  1  0  0  0  0
  8 65  1  0  0  0  0
  9 21  1  0  0  0  0
  9 23  1  0  0  0  0
 10 13  1  0  0  0  0
 10 66  1  0  0  0  0
 10 67  1  0  0  0  0
 11 19  1  0  0  0  0
 11 28  1  0  0  0  0
 11 68  1  0  0  0  0
 12 27  2  0  0  0  0
 13 16  2  0  0  0  0
 13 69  1  0  0  0  0
 14 44  1  0  0  0  0
 14 49  1  0  0  0  0
 15 28  2  0  0  0  0
 16 19  1  0  0  0  0
 16 70  1  0  0  0  0
 17 51  2  0  0  0  0
 17 52  1  0  0  0  0
 19 21  1  0  0  0  0
 19 71  1  1  0  0  0
 20 49  2  0  0  0  0
 22 50  1  0  0  0  0
 22 51  1  0  0  0  0
 23 25  1  0  0  0  0
 23 26  1  0  0  0  0
 23 72  1  6  0  0  0
 24 53  1  0  0  0  0
 24 73  1  0  0  0  0
 25 27  1  0  0  0  0
 25 74  1  0  0  0  0
 25 75  1  0  0  0  0
 26 76  1  0  0  0  0
 26 77  1  0  0  0  0
 26 78  1  0  0  0  0
 28 52  1  0  0  0  0
 29 30  1  0  0  0  0
 29 79  1  0  0  0  0
 29 80  1  0  0  0  0
 30 31  1  0  0  0  0
 30 81  1  0  0  0  0
 30 82  1  0  0  0  0
 31 32  1  0  0  0  0
 31 83  1  0  0  0  0
 31 84  1  0  0  0  0
 32 33  1  0  0  0  0
 32 85  1  0  0  0  0
 32 86  1  0  0  0  0
 33 34  1  0  0  0  0
 33 87  1  0  0  0  0
 33 88  1  0  0  0  0
 34 35  1  0  0  0  0
 34 89  1  0  0  0  0
 34 90  1  0  0  0  0
 35 36  1  0  0  0  0
 35 91  1  0  0  0  0
 35 92  1  0  0  0  0
 36 37  1  0  0  0  0
 36 93  1  0  0  0  0
 36 94  1  0  0  0  0
 37 38  1  0  0  0  0
 37 95  1  0  0  0  0
 37 96  1  0  0  0  0
 38 39  1  0  0  0  0
 38 97  1  0  0  0  0
 38 98  1  0  0  0  0
 39 40  1  0  0  0  0
 39 99  1  0  0  0  0
 39100  1  0  0  0  0
 40 41  1  0  0  0  0
 40101  1  0  0  0  0
 40102  1  0  0  0  0
 41 42  1  0  0  0  0
 41103  1  0  0  0  0
 41104  1  0  0  0  0
 42 43  1  0  0  0  0
 42105  1  0  0  0  0
 42106  1  0  0  0  0
 43107  1  0  0  0  0
 43108  1  0  0  0  0
 43109  1  0  0  0  0
 44 45  1  0  0  0  0
 44110  1  0  0  0  0
 44111  1  0  0  0  0
 45 46  1  0  0  0  0
 45112  1  0  0  0  0
 45113  1  0  0  0  0
 46 47  1  0  0  0  0
 46114  1  0  0  0  0
 46115  1  0  0  0  0
 47 48  1  0  0  0  0
 47116  1  0  0  0  0
 47117  1  0  0  0  0
 48 49  1  0  0  0  0
 48118  1  1  0  0  0
 50 52  1  0  0  0  0
 50119  1  0  0  0  0
 50120  1  0  0  0  0
 51 58  1  0  0  0  0
 52121  1  1  0  0  0
 53 54  2  0  0  0  0
 53 58  1  0  0  0  0
 54 55  1  0  0  0  0
 54122  1  0  0  0  0
 55 56  2  0  0  0  0
 55123  1  0  0  0  0
 56 57  1  0  0  0  0
 56124  1  0  0  0  0
 57 58  2  0  0  0  0
 57125  1  0  0  0  0
M  END
$$$$