/media/chris/experiments/cd1a-new-docking/inputs/ligands/1xz0_ligand.pdb
 OpenBabel07022319323D

125127  0  0  1  0  0  0  0  0999 V2000
  -38.4351   59.1888   57.7243 N   0  0  0  0  0  0  0  0  0  0  0  0
  -39.6841   58.6666   57.6025 C   0  0  0  0  0  0  0  0  0  0  0  0
  -34.8323   58.2135   62.5576 O   0  0  0  0  0  0  0  0  0  0  0  0
  -28.1617   53.1660   68.2132 Si  0  0  0  0  0  0  0  0  0  0  0  0
  -38.0711   60.1901   56.8129 O   0  0  0  0  0  0  0  0  0  0  0  0
  -29.4215   54.2855   68.8096 O   0  0  0  0  0  0  0  0  0  0  0  0
  -37.3846   58.8544   58.6910 C   0  0  0  0  0  0  0  0  0  0  0  0
  -30.5778   58.0092   66.6534 N   0  0  0  0  0  0  0  0  0  0  0  0
  -34.4223   58.1136   64.8296 O   0  0  0  0  0  0  0  0  0  0  0  0
  -37.9322   59.1139   60.1095 C   0  0  0  0  0  0  0  0  0  0  0  0
  -36.8950   59.8150   64.6310 N   0  0  0  0  0  0  0  0  0  0  0  0
  -32.6033   58.9912   66.4326 O   0  0  0  0  0  0  0  0  0  0  0  0
  -36.9889   58.8455   61.2943 C   0  0  0  0  0  0  0  0  0  0  0  0
  -29.5379   55.5377   68.2858 N   0  0  0  0  0  0  0  0  0  0  0  0
  -37.2193   62.0537   64.8677 O   0  0  0  0  0  0  0  0  0  0  0  0
  -37.6390   58.4030   62.6110 C   0  0  0  0  0  0  0  0  0  0  0  0
  -37.7826   62.6004   62.3292 N   0  0  0  0  0  0  0  0  0  0  0  0
  -40.4565   59.0598   56.7286 O   0  0  0  0  0  0  0  0  0  0  0  0
  -36.7890   58.5530   63.8960 C   0  0  1  0  0  0  0  0  0  0  0  0
  -30.1393   54.6652   66.3002 O   0  0  0  0  0  0  0  0  0  0  0  0
  -35.3080   58.3090   63.6770 C   0  0  0  0  0  0  0  0  0  0  0  0
  -39.5836   61.5346   61.5466 O   0  0  0  0  0  0  0  0  0  0  0  0
  -33.7076   56.8787   65.0244 C   0  0  1  0  0  0  0  0  0  0  0  0
  -40.5436   63.0866   59.3716 O   0  0  0  0  0  0  0  0  0  0  0  0
  -32.2172   57.1835   65.0327 C   0  0  0  0  0  0  0  0  0  0  0  0
  -34.1166   56.1008   66.2691 C   0  0  0  0  0  0  0  0  0  0  0  0
  -31.8103   58.1264   66.1381 C   0  0  0  0  0  0  0  0  0  0  0  0
  -37.1633   61.0492   64.1705 C   0  0  0  0  0  0  0  0  0  0  0  0
  -40.1298   57.5739   58.5799 C   0  0  0  0  0  0  0  0  0  0  0  0
  -41.6359   57.5608   58.8750 C   0  0  0  0  0  0  0  0  0  0  0  0
  -42.0684   58.9118   59.4767 C   0  0  0  0  0  0  0  0  0  0  0  0
  -43.5685   58.9799   59.8205 C   0  0  0  0  0  0  0  0  0  0  0  0
  -44.0313   60.3262   60.4081 C   0  0  0  0  0  0  0  0  0  0  0  0
  -43.8055   61.5106   59.4451 C   0  0  0  0  0  0  0  0  0  0  0  0
  -44.2417   62.8848   60.0047 C   0  0  0  0  0  0  0  0  0  0  0  0
  -44.0225   64.0409   59.0222 C   0  0  0  0  0  0  0  0  0  0  0  0
  -44.7872   63.9309   57.6993 C   0  0  0  0  0  0  0  0  0  0  0  0
  -44.4880   65.1270   56.7771 C   0  0  0  0  0  0  0  0  0  0  0  0
  -45.2398   65.0841   55.4381 C   0  0  0  0  0  0  0  0  0  0  0  0
  -44.9677   63.8577   54.5609 C   0  0  0  0  0  0  0  0  0  0  0  0
  -45.3524   62.5083   55.2172 C   0  0  0  0  0  0  0  0  0  0  0  0
  -45.0365   61.3181   54.2889 C   0  0  0  0  0  0  0  0  0  0  0  0
  -45.3827   59.9165   54.8056 C   0  0  0  0  0  0  0  0  0  0  0  0
  -29.3771   56.6679   69.2124 C   0  0  0  0  0  0  0  0  0  0  0  0
  -28.0802   57.4416   68.9086 C   0  0  0  0  0  0  0  0  0  0  0  0
  -27.3515   57.0155   67.6448 C   0  0  0  0  0  0  0  0  0  0  0  0
  -28.1267   57.3458   66.3666 C   0  0  0  0  0  0  0  0  0  0  0  0
  -29.6145   56.9667   66.2815 C   0  0  1  0  0  0  0  0  0  0  0  0
  -29.7983   55.6293   66.9718 C   0  0  0  0  0  0  0  0  0  0  0  0
  -38.8097   60.5014   62.1550 C   0  0  0  0  0  0  0  0  0  0  0  0
  -38.8766   62.7785   61.7217 C   0  0  0  0  0  0  0  0  0  0  0  0
  -37.5309   61.1951   62.7009 C   0  0  1  0  0  0  0  0  0  0  0  0
  -40.1854   64.1796   60.0562 C   0  0  0  0  0  0  0  0  0  0  0  0
  -40.6337   65.4385   59.6353 C   0  0  0  0  0  0  0  0  0  0  0  0
  -40.2639   66.6018   60.3312 C   0  0  0  0  0  0  0  0  0  0  0  0
  -39.4497   66.5185   61.4620 C   0  0  0  0  0  0  0  0  0  0  0  0
  -39.0050   65.2643   61.8897 C   0  0  0  0  0  0  0  0  0  0  0  0
  -39.3668   64.0976   61.1892 C   0  0  0  0  0  0  0  0  0  0  0  0
  -28.2510   51.9353   68.9158 H   0  0  0  0  0  0  0  0  0  0  0  0
  -26.8801   53.7398   68.4247 H   0  0  0  0  0  0  0  0  0  0  0  0
  -28.3532   52.9339   66.8255 H   0  0  0  0  0  0  0  0  0  0  0  0
  -38.8092   60.3595   56.2068 H   0  0  0  0  0  0  0  0  0  0  0  0
  -36.5246   59.4669   58.5174 H   0  0  0  0  0  0  0  0  0  0  0  0
  -37.1011   57.8279   58.5872 H   0  0  0  0  0  0  0  0  0  0  0  0
  -30.2997   58.6693   67.3289 H   0  0  0  0  0  0  0  0  0  0  0  0
  -38.7942   58.4933   60.2390 H   0  0  0  0  0  0  0  0  0  0  0  0
  -38.1179   60.1672   60.1418 H   0  0  0  0  0  0  0  0  0  0  0  0
  -36.7487   59.7503   65.6024 H   0  0  0  0  0  0  0  0  0  0  0  0
  -35.9667   58.9578   61.2074 H   0  0  0  0  0  0  0  0  0  0  0  0
  -38.5981   58.0231   62.6390 H   0  0  0  0  0  0  0  0  0  0  0  0
  -37.2383   57.7881   64.4943 H   0  0  0  0  0  0  0  0  0  0  0  0
  -33.9620   56.2310   64.2116 H   0  0  0  0  0  0  0  0  0  0  0  0
  -41.0923   63.1658   58.6162 H   0  0  0  0  0  0  0  0  0  0  0  0
  -31.9552   57.6260   64.0944 H   0  0  0  0  0  0  0  0  0  0  0  0
  -31.7042   56.2591   65.1979 H   0  0  0  0  0  0  0  0  0  0  0  0
  -33.8955   56.6807   67.1408 H   0  0  0  0  0  0  0  0  0  0  0  0
  -33.5751   55.1787   66.3074 H   0  0  0  0  0  0  0  0  0  0  0  0
  -35.1663   55.8967   66.2333 H   0  0  0  0  0  0  0  0  0  0  0  0
  -39.6094   57.7190   59.5035 H   0  0  0  0  0  0  0  0  0  0  0  0
  -39.9024   56.6376   58.1145 H   0  0  0  0  0  0  0  0  0  0  0  0
  -41.8536   56.7775   59.5706 H   0  0  0  0  0  0  0  0  0  0  0  0
  -42.1704   57.3960   57.9629 H   0  0  0  0  0  0  0  0  0  0  0  0
  -41.8478   59.6836   58.7692 H   0  0  0  0  0  0  0  0  0  0  0  0
  -41.5298   59.0348   60.3930 H   0  0  0  0  0  0  0  0  0  0  0  0
  -43.7822   58.2128   60.5352 H   0  0  0  0  0  0  0  0  0  0  0  0
  -44.0968   58.8537   58.8986 H   0  0  0  0  0  0  0  0  0  0  0  0
  -43.4861   60.5106   61.3100 H   0  0  0  0  0  0  0  0  0  0  0  0
  -45.0838   60.2538   60.5869 H   0  0  0  0  0  0  0  0  0  0  0  0
  -44.3600   61.3234   58.5493 H   0  0  0  0  0  0  0  0  0  0  0  0
  -42.7502   61.5709   59.2794 H   0  0  0  0  0  0  0  0  0  0  0  0
  -43.6789   63.0833   60.8928 H   0  0  0  0  0  0  0  0  0  0  0  0
  -45.2930   62.8282   60.1957 H   0  0  0  0  0  0  0  0  0  0  0  0
  -42.9777   64.0894   58.7968 H   0  0  0  0  0  0  0  0  0  0  0  0
  -44.3978   64.9171   59.5084 H   0  0  0  0  0  0  0  0  0  0  0  0
  -45.8369   63.9039   57.9050 H   0  0  0  0  0  0  0  0  0  0  0  0
  -44.4747   63.0361   57.2028 H   0  0  0  0  0  0  0  0  0  0  0  0
  -43.4377   65.1408   56.5734 H   0  0  0  0  0  0  0  0  0  0  0  0
  -44.8186   66.0055   57.2908 H   0  0  0  0  0  0  0  0  0  0  0  0
  -44.9660   65.9548   54.8796 H   0  0  0  0  0  0  0  0  0  0  0  0
  -46.2789   65.0378   55.6890 H   0  0  0  0  0  0  0  0  0  0  0  0
  -43.9226   63.8338   54.3328 H   0  0  0  0  0  0  0  0  0  0  0  0
  -45.5804   63.9612   53.6899 H   0  0  0  0  0  0  0  0  0  0  0  0
  -46.4004   62.5127   55.4326 H   0  0  0  0  0  0  0  0  0  0  0  0
  -44.7797   62.3958   56.1141 H   0  0  0  0  0  0  0  0  0  0  0  0
  -43.9858   61.3366   54.0875 H   0  0  0  0  0  0  0  0  0  0  0  0
  -45.6643   61.4602   53.4341 H   0  0  0  0  0  0  0  0  0  0  0  0
  -44.7897   59.6981   55.6691 H   0  0  0  0  0  0  0  0  0  0  0  0
  -45.1802   59.1947   54.0420 H   0  0  0  0  0  0  0  0  0  0  0  0
  -46.4198   59.8785   55.0662 H   0  0  0  0  0  0  0  0  0  0  0  0
  -29.3379   56.2968   70.2153 H   0  0  0  0  0  0  0  0  0  0  0  0
  -30.2086   57.3307   69.0938 H   0  0  0  0  0  0  0  0  0  0  0  0
  -27.4142   57.3082   69.7353 H   0  0  0  0  0  0  0  0  0  0  0  0
  -28.3720   58.4593   68.7534 H   0  0  0  0  0  0  0  0  0  0  0  0
  -27.1922   55.9581   67.6832 H   0  0  0  0  0  0  0  0  0  0  0  0
  -26.4296   57.5574   67.6090 H   0  0  0  0  0  0  0  0  0  0  0  0
  -27.6292   56.8487   65.5602 H   0  0  0  0  0  0  0  0  0  0  0  0
  -28.1309   58.4154   66.3368 H   0  0  0  0  0  0  0  0  0  0  0  0
  -29.8714   56.8652   65.2478 H   0  0  0  0  0  0  0  0  0  0  0  0
  -38.5497   59.7562   61.4325 H   0  0  0  0  0  0  0  0  0  0  0  0
  -39.3535   60.0092   62.9341 H   0  0  0  0  0  0  0  0  0  0  0  0
  -36.6658   60.7231   62.2840 H   0  0  0  0  0  0  0  0  0  0  0  0
  -41.2422   65.5122   58.8050 H   0  0  0  0  0  0  0  0  0  0  0  0
  -40.5961   67.5227   60.0046 H   0  0  0  0  0  0  0  0  0  0  0  0
  -39.1796   67.3719   61.9756 H   0  0  0  0  0  0  0  0  0  0  0  0
  -38.4059   65.1927   62.7268 H   0  0  0  0  0  0  0  0  0  0  0  0
  1  2  1  0  0  0  0
  1  5  1  0  0  0  0
  1  7  1  0  0  0  0
  2 18  2  0  0  0  0
  2 29  1  0  0  0  0
  3 21  2  0  0  0  0
  4  6  1  0  0  0  0
  4 59  1  0  0  0  0
  4 60  1  0  0  0  0
  4 61  1  0  0  0  0
  5 62  1  0  0  0  0
  6 14  1  0  0  0  0
  7 10  1  0  0  0  0
  7 63  1  0  0  0  0
  7 64  1  0  0  0  0
  8 27  1  0  0  0  0
  8 48  1  0  0  0  0
  8 65  1  0  0  0  0
  9 21  1  0  0  0  0
  9 23  1  0  0  0  0
 10 13  1  0  0  0  0
 10 66  1  0  0  0  0
 10 67  1  0  0  0  0
 11 19  1  0  0  0  0
 11 28  1  0  0  0  0
 11 68  1  0  0  0  0
 12 27  2  0  0  0  0
 13 16  2  0  0  0  0
 13 69  1  0  0  0  0
 14 44  1  0  0  0  0
 14 49  1  0  0  0  0
 15 28  2  0  0  0  0
 16 19  1  0  0  0  0
 16 70  1  0  0  0  0
 17 51  2  0  0  0  0
 17 52  1  0  0  0  0
 19 21  1  0  0  0  0
 19 71  1  1  0  0  0
 20 49  2  0  0  0  0
 22 50  1  0  0  0  0
 22 51  1  0  0  0  0
 23 25  1  0  0  0  0
 23 26  1  0  0  0  0
 23 72  1  6  0  0  0
 24 53  1  0  0  0  0
 24 73  1  0  0  0  0
 25 27  1  0  0  0  0
 25 74  1  0  0  0  0
 25 75  1  0  0  0  0
 26 76  1  0  0  0  0
 26 77  1  0  0  0  0
 26 78  1  0  0  0  0
 28 52  1  0  0  0  0
 29 30  1  0  0  0  0
 29 79  1  0  0  0  0
 29 80  1  0  0  0  0
 30 31  1  0  0  0  0
 30 81  1  0  0  0  0
 30 82  1  0  0  0  0
 31 32  1  0  0  0  0
 31 83  1  0  0  0  0
 31 84  1  0  0  0  0
 32 33  1  0  0  0  0
 32 85  1  0  0  0  0
 32 86  1  0  0  0  0
 33 34  1  0  0  0  0
 33 87  1  0  0  0  0
 33 88  1  0  0  0  0
 34 35  1  0  0  0  0
 34 89  1  0  0  0  0
 34 90  1  0  0  0  0
 35 36  1  0  0  0  0
 35 91  1  0  0  0  0
 35 92  1  0  0  0  0
 36 37  1  0  0  0  0
 36 93  1  0  0  0  0
 36 94  1  0  0  0  0
 37 38  1  0  0  0  0
 37 95  1  0  0  0  0
 37 96  1  0  0  0  0
 38 39  1  0  0  0  0
 38 97  1  0  0  0  0
 38 98  1  0  0  0  0
 39 40  1  0  0  0  0
 39 99  1  0  0  0  0
 39100  1  0  0  0  0
 40 41  1  0  0  0  0
 40101  1  0  0  0  0
 40102  1  0  0  0  0
 41 42  1  0  0  0  0
 41103  1  0  0  0  0
 41104  1  0  0  0  0
 42 43  1  0  0  0  0
 42105  1  0  0  0  0
 42106  1  0  0  0  0
 43107  1  0  0  0  0
 43108  1  0  0  0  0
 43109  1  0  0  0  0
 44 45  1  0  0  0  0
 44110  1  0  0  0  0
 44111  1  0  0  0  0
 45 46  1  0  0  0  0
 45112  1  0  0  0  0
 45113  1  0  0  0  0
 46 47  1  0  0  0  0
 46114  1  0  0  0  0
 46115  1  0  0  0  0
 47 48  1  0  0  0  0
 47116  1  0  0  0  0
 47117  1  0  0  0  0
 48 49  1  0  0  0  0
 48118  1  6  0  0  0
 50 52  1  0  0  0  0
 50119  1  0  0  0  0
 50120  1  0  0  0  0
 51 58  1  0  0  0  0
 52121  1  6  0  0  0
 53 54  2  0  0  0  0
 53 58  1  0  0  0  0
 54 55  1  0  0  0  0
 54122  1  0  0  0  0
 55 56  2  0  0  0  0
 55123  1  0  0  0  0
 56 57  1  0  0  0  0
 56124  1  0  0  0  0
 57 58  2  0  0  0  0
 57125  1  0  0  0  0
M  END
$$$$