/media/chris/experiments/cd1a-new-docking/inputs/ligands/1xz0_ligand.pdb
 OpenBabel07022319323D

125127  0  0  1  0  0  0  0  0999 V2000
  -40.1047   57.2451   59.0990 N   0  0  0  0  0  0  0  0  0  0  0  0
  -40.0883   57.4761   57.7596 C   0  0  0  0  0  0  0  0  0  0  0  0
  -34.5332   58.1855   64.6113 O   0  0  0  0  0  0  0  0  0  0  0  0
  -36.5505   60.7136   58.5784 Si  0  0  0  0  0  0  0  0  0  0  0  0
  -40.9612   56.2360   59.5614 O   0  0  0  0  0  0  0  0  0  0  0  0
  -36.1021   61.9107   59.8281 O   0  0  0  0  0  0  0  0  0  0  0  0
  -39.3411   57.9092   60.1600 C   0  0  0  0  0  0  0  0  0  0  0  0
  -32.0025   62.1949   61.5502 N   0  0  0  0  0  0  0  0  0  0  0  0
  -34.7660   58.2851   62.3144 O   0  0  0  0  0  0  0  0  0  0  0  0
  -39.7171   57.2580   61.5068 C   0  0  0  0  0  0  0  0  0  0  0  0
  -36.8950   59.8150   64.6310 N   0  0  0  0  0  0  0  0  0  0  0  0
  -31.1734   60.0907   61.5631 O   0  0  0  0  0  0  0  0  0  0  0  0
  -39.0441   57.8107   62.7746 C   0  0  0  0  0  0  0  0  0  0  0  0
  -34.7925   62.1567   60.1117 N   0  0  0  0  0  0  0  0  0  0  0  0
  -38.3860   61.0055   63.3930 O   0  0  0  0  0  0  0  0  0  0  0  0
  -37.6390   58.4030   62.6110 C   0  0  0  0  0  0  0  0  0  0  0  0
  -38.3480   63.2341   64.8393 N   0  0  0  0  0  0  0  0  0  0  0  0
  -39.3553   58.3354   57.2704 O   0  0  0  0  0  0  0  0  0  0  0  0
  -36.7890   58.5530   63.8960 C   0  0  1  0  0  0  0  0  0  0  0  0
  -35.3038   62.4456   62.2843 O   0  0  0  0  0  0  0  0  0  0  0  0
  -35.3080   58.3090   63.6770 C   0  0  0  0  0  0  0  0  0  0  0  0
  -36.3399   64.2061   64.9609 O   0  0  0  0  0  0  0  0  0  0  0  0
  -33.4308   58.7440   62.0310 C   0  0  1  0  0  0  0  0  0  0  0  0
  -36.3513   66.8514   64.3421 O   0  0  0  0  0  0  0  0  0  0  0  0
  -33.4537   60.2628   61.9464 C   0  0  0  0  0  0  0  0  0  0  0  0
  -32.3741   58.2643   63.0183 C   0  0  0  0  0  0  0  0  0  0  0  0
  -32.1039   60.8604   61.6346 C   0  0  0  0  0  0  0  0  0  0  0  0
  -37.6390   60.9007   64.3569 C   0  0  0  0  0  0  0  0  0  0  0  0
  -41.0072   56.6505   56.8531 C   0  0  0  0  0  0  0  0  0  0  0  0
  -41.4813   57.3840   55.5911 C   0  0  0  0  0  0  0  0  0  0  0  0
  -40.2709   57.7794   54.7235 C   0  0  0  0  0  0  0  0  0  0  0  0
  -39.4385   56.5752   54.2437 C   0  0  0  0  0  0  0  0  0  0  0  0
  -38.2120   56.9434   53.3881 C   0  0  0  0  0  0  0  0  0  0  0  0
  -37.1999   57.8323   54.1410 C   0  0  0  0  0  0  0  0  0  0  0  0
  -35.9606   58.2391   53.3102 C   0  0  0  0  0  0  0  0  0  0  0  0
  -36.3066   59.0485   52.0551 C   0  0  0  0  0  0  0  0  0  0  0  0
  -37.0227   60.3786   52.3096 C   0  0  0  0  0  0  0  0  0  0  0  0
  -37.3413   61.1057   50.9904 C   0  0  0  0  0  0  0  0  0  0  0  0
  -36.1019   61.4276   50.1418 C   0  0  0  0  0  0  0  0  0  0  0  0
  -36.3693   62.1667   48.8266 C   0  0  0  0  0  0  0  0  0  0  0  0
  -35.0979   62.4582   47.9909 C   0  0  0  0  0  0  0  0  0  0  0  0
  -35.4371   63.2176   46.6922 C   0  0  0  0  0  0  0  0  0  0  0  0
  -34.2714   63.5589   45.7564 C   0  0  0  0  0  0  0  0  0  0  0  0
  -33.8266   61.9800   59.0172 C   0  0  0  0  0  0  0  0  0  0  0  0
  -33.2413   63.3369   58.5825 C   0  0  0  0  0  0  0  0  0  0  0  0
  -33.6200   64.5181   59.4606 C   0  0  0  0  0  0  0  0  0  0  0  0
  -33.0130   64.4396   60.8639 C   0  0  0  0  0  0  0  0  0  0  0  0
  -33.1331   63.1248   61.6524 C   0  0  1  0  0  0  0  0  0  0  0  0
  -34.4981   62.5296   61.3675 C   0  0  0  0  0  0  0  0  0  0  0  0
  -36.0830   62.8427   65.2952 C   0  0  0  0  0  0  0  0  0  0  0  0
  -37.7488   64.3362   64.6851 C   0  0  0  0  0  0  0  0  0  0  0  0
  -37.4607   62.1261   65.2416 C   0  0  1  0  0  0  0  0  0  0  0  0
  -37.6760   66.8184   64.1528 C   0  0  0  0  0  0  0  0  0  0  0  0
  -38.3518   67.9876   63.7798 C   0  0  0  0  0  0  0  0  0  0  0  0
  -39.7432   67.9813   63.5843 C   0  0  0  0  0  0  0  0  0  0  0  0
  -40.4734   66.8031   63.7499 C   0  0  0  0  0  0  0  0  0  0  0  0
  -39.8029   65.6326   64.1158 C   0  0  0  0  0  0  0  0  0  0  0  0
  -38.4099   65.6378   64.3210 C   0  0  0  0  0  0  0  0  0  0  0  0
  -37.9650   60.6441   58.4753 H   0  0  0  0  0  0  0  0  0  0  0  0
  -36.0390   59.4389   58.9388 H   0  0  0  0  0  0  0  0  0  0  0  0
  -36.0036   61.1069   57.3283 H   0  0  0  0  0  0  0  0  0  0  0  0
  -41.4319   55.8422   58.8103 H   0  0  0  0  0  0  0  0  0  0  0  0
  -39.5828   58.9513   60.1819 H   0  0  0  0  0  0  0  0  0  0  0  0
  -38.2916   57.8044   59.9799 H   0  0  0  0  0  0  0  0  0  0  0  0
  -31.1065   62.5778   61.4099 H   0  0  0  0  0  0  0  0  0  0  0  0
  -39.4709   56.2188   61.4403 H   0  0  0  0  0  0  0  0  0  0  0  0
  -40.7573   57.4744   61.6336 H   0  0  0  0  0  0  0  0  0  0  0  0
  -36.3417   59.8774   65.4429 H   0  0  0  0  0  0  0  0  0  0  0  0
  -39.5159   57.7843   63.6921 H   0  0  0  0  0  0  0  0  0  0  0  0
  -37.2771   58.6882   61.6876 H   0  0  0  0  0  0  0  0  0  0  0  0
  -37.2383   57.7881   64.4943 H   0  0  0  0  0  0  0  0  0  0  0  0
  -33.1364   58.3124   61.0972 H   0  0  0  0  0  0  0  0  0  0  0  0
  -35.8810   67.6531   64.2237 H   0  0  0  0  0  0  0  0  0  0  0  0
  -33.7889   60.6508   62.8856 H   0  0  0  0  0  0  0  0  0  0  0  0
  -34.1116   60.5271   61.1450 H   0  0  0  0  0  0  0  0  0  0  0  0
  -32.5921   58.6533   63.9910 H   0  0  0  0  0  0  0  0  0  0  0  0
  -31.4106   58.6079   62.7045 H   0  0  0  0  0  0  0  0  0  0  0  0
  -32.3776   57.1949   63.0529 H   0  0  0  0  0  0  0  0  0  0  0  0
  -41.8699   56.3682   57.4197 H   0  0  0  0  0  0  0  0  0  0  0  0
  -40.4329   55.8114   56.5201 H   0  0  0  0  0  0  0  0  0  0  0  0
  -42.0170   58.2658   55.8743 H   0  0  0  0  0  0  0  0  0  0  0  0
  -42.1196   56.7358   55.0278 H   0  0  0  0  0  0  0  0  0  0  0  0
  -39.6371   58.4214   55.2989 H   0  0  0  0  0  0  0  0  0  0  0  0
  -40.6548   58.2642   53.8503 H   0  0  0  0  0  0  0  0  0  0  0  0
  -40.0737   55.9413   53.6610 H   0  0  0  0  0  0  0  0  0  0  0  0
  -39.0617   56.0972   55.1238 H   0  0  0  0  0  0  0  0  0  0  0  0
  -38.5475   57.4691   52.5187 H   0  0  0  0  0  0  0  0  0  0  0  0
  -37.7122   56.0320   53.1340 H   0  0  0  0  0  0  0  0  0  0  0  0
  -36.8627   57.2973   55.0041 H   0  0  0  0  0  0  0  0  0  0  0  0
  -37.7136   58.7387   54.3847 H   0  0  0  0  0  0  0  0  0  0  0  0
  -35.4475   57.3497   53.0092 H   0  0  0  0  0  0  0  0  0  0  0  0
  -35.3555   58.8649   53.9322 H   0  0  0  0  0  0  0  0  0  0  0  0
  -36.9389   58.4458   51.4371 H   0  0  0  0  0  0  0  0  0  0  0  0
  -35.3721   59.2988   51.5979 H   0  0  0  0  0  0  0  0  0  0  0  0
  -36.3939   61.0036   52.9086 H   0  0  0  0  0  0  0  0  0  0  0  0
  -37.9446   60.1742   52.8129 H   0  0  0  0  0  0  0  0  0  0  0  0
  -37.8378   62.0245   51.2235 H   0  0  0  0  0  0  0  0  0  0  0  0
  -37.9513   60.4446   50.4109 H   0  0  0  0  0  0  0  0  0  0  0  0
  -35.6159   60.5038   49.9066 H   0  0  0  0  0  0  0  0  0  0  0  0
  -35.5083   62.0924   50.7339 H   0  0  0  0  0  0  0  0  0  0  0  0
  -36.8410   63.0994   49.0559 H   0  0  0  0  0  0  0  0  0  0  0  0
  -36.9860   61.5244   48.2333 H   0  0  0  0  0  0  0  0  0  0  0  0
  -34.6274   61.5309   47.7388 H   0  0  0  0  0  0  0  0  0  0  0  0
  -34.4441   63.0701   48.5767 H   0  0  0  0  0  0  0  0  0  0  0  0
  -35.9068   64.1378   46.9705 H   0  0  0  0  0  0  0  0  0  0  0  0
  -36.0533   62.5456   46.1322 H   0  0  0  0  0  0  0  0  0  0  0  0
  -33.6038   64.2341   46.2497 H   0  0  0  0  0  0  0  0  0  0  0  0
  -34.6504   64.0180   44.8673 H   0  0  0  0  0  0  0  0  0  0  0  0
  -33.7464   62.6627   45.4990 H   0  0  0  0  0  0  0  0  0  0  0  0
  -34.3203   61.5270   58.1829 H   0  0  0  0  0  0  0  0  0  0  0  0
  -33.0285   61.3555   59.3606 H   0  0  0  0  0  0  0  0  0  0  0  0
  -33.5819   63.5409   57.5889 H   0  0  0  0  0  0  0  0  0  0  0  0
  -32.1786   63.2393   58.6594 H   0  0  0  0  0  0  0  0  0  0  0  0
  -34.6857   64.5476   59.5513 H   0  0  0  0  0  0  0  0  0  0  0  0
  -33.2340   65.4003   58.9940 H   0  0  0  0  0  0  0  0  0  0  0  0
  -33.4804   65.2020   61.4514 H   0  0  0  0  0  0  0  0  0  0  0  0
  -31.9615   64.5448   60.6963 H   0  0  0  0  0  0  0  0  0  0  0  0
  -33.0630   63.3566   62.6947 H   0  0  0  0  0  0  0  0  0  0  0  0
  -35.6645   62.7725   66.2774 H   0  0  0  0  0  0  0  0  0  0  0  0
  -35.3814   62.3977   64.6209 H   0  0  0  0  0  0  0  0  0  0  0  0
  -37.6541   61.6581   66.1842 H   0  0  0  0  0  0  0  0  0  0  0  0
  -37.8218   68.8632   63.6471 H   0  0  0  0  0  0  0  0  0  0  0  0
  -40.2280   68.8522   63.3169 H   0  0  0  0  0  0  0  0  0  0  0  0
  -41.4950   66.7964   63.6041 H   0  0  0  0  0  0  0  0  0  0  0  0
  -40.3340   64.7560   64.2368 H   0  0  0  0  0  0  0  0  0  0  0  0
  1  2  1  0  0  0  0
  1  5  1  0  0  0  0
  1  7  1  0  0  0  0
  2 18  2  0  0  0  0
  2 29  1  0  0  0  0
  3 21  2  0  0  0  0
  4  6  1  0  0  0  0
  4 59  1  0  0  0  0
  4 60  1  0  0  0  0
  4 61  1  0  0  0  0
  5 62  1  0  0  0  0
  6 14  1  0  0  0  0
  7 10  1  0  0  0  0
  7 63  1  0  0  0  0
  7 64  1  0  0  0  0
  8 27  1  0  0  0  0
  8 48  1  0  0  0  0
  8 65  1  0  0  0  0
  9 21  1  0  0  0  0
  9 23  1  0  0  0  0
 10 13  1  0  0  0  0
 10 66  1  0  0  0  0
 10 67  1  0  0  0  0
 11 19  1  0  0  0  0
 11 28  1  0  0  0  0
 11 68  1  0  0  0  0
 12 27  2  0  0  0  0
 13 16  2  0  0  0  0
 13 69  1  0  0  0  0
 14 44  1  0  0  0  0
 14 49  1  0  0  0  0
 15 28  2  0  0  0  0
 16 19  1  0  0  0  0
 16 70  1  0  0  0  0
 17 51  2  0  0  0  0
 17 52  1  0  0  0  0
 19 21  1  0  0  0  0
 19 71  1  1  0  0  0
 20 49  2  0  0  0  0
 22 50  1  0  0  0  0
 22 51  1  0  0  0  0
 23 25  1  0  0  0  0
 23 26  1  0  0  0  0
 23 72  1  6  0  0  0
 24 53  1  0  0  0  0
 24 73  1  0  0  0  0
 25 27  1  0  0  0  0
 25 74  1  0  0  0  0
 25 75  1  0  0  0  0
 26 76  1  0  0  0  0
 26 77  1  0  0  0  0
 26 78  1  0  0  0  0
 28 52  1  0  0  0  0
 29 30  1  0  0  0  0
 29 79  1  0  0  0  0
 29 80  1  0  0  0  0
 30 31  1  0  0  0  0
 30 81  1  0  0  0  0
 30 82  1  0  0  0  0
 31 32  1  0  0  0  0
 31 83  1  0  0  0  0
 31 84  1  0  0  0  0
 32 33  1  0  0  0  0
 32 85  1  0  0  0  0
 32 86  1  0  0  0  0
 33 34  1  0  0  0  0
 33 87  1  0  0  0  0
 33 88  1  0  0  0  0
 34 35  1  0  0  0  0
 34 89  1  0  0  0  0
 34 90  1  0  0  0  0
 35 36  1  0  0  0  0
 35 91  1  0  0  0  0
 35 92  1  0  0  0  0
 36 37  1  0  0  0  0
 36 93  1  0  0  0  0
 36 94  1  0  0  0  0
 37 38  1  0  0  0  0
 37 95  1  0  0  0  0
 37 96  1  0  0  0  0
 38 39  1  0  0  0  0
 38 97  1  0  0  0  0
 38 98  1  0  0  0  0
 39 40  1  0  0  0  0
 39 99  1  0  0  0  0
 39100  1  0  0  0  0
 40 41  1  0  0  0  0
 40101  1  0  0  0  0
 40102  1  0  0  0  0
 41 42  1  0  0  0  0
 41103  1  0  0  0  0
 41104  1  0  0  0  0
 42 43  1  0  0  0  0
 42105  1  0  0  0  0
 42106  1  0  0  0  0
 43107  1  0  0  0  0
 43108  1  0  0  0  0
 43109  1  0  0  0  0
 44 45  1  0  0  0  0
 44110  1  0  0  0  0
 44111  1  0  0  0  0
 45 46  1  0  0  0  0
 45112  1  0  0  0  0
 45113  1  0  0  0  0
 46 47  1  0  0  0  0
 46114  1  0  0  0  0
 46115  1  0  0  0  0
 47 48  1  0  0  0  0
 47116  1  0  0  0  0
 47117  1  0  0  0  0
 48 49  1  0  0  0  0
 48118  1  1  0  0  0
 50 52  1  0  0  0  0
 50119  1  0  0  0  0
 50120  1  0  0  0  0
 51 58  1  0  0  0  0
 52121  1  1  0  0  0
 53 54  2  0  0  0  0
 53 58  1  0  0  0  0
 54 55  1  0  0  0  0
 54122  1  0  0  0  0
 55 56  2  0  0  0  0
 55123  1  0  0  0  0
 56 57  1  0  0  0  0
 56124  1  0  0  0  0
 57 58  2  0  0  0  0
 57125  1  0  0  0  0
M  END
$$$$