/media/chris/experiments/cd1a-new-docking/inputs/ligands/1xz0_ligand.pdb
 OpenBabel07022319323D

125127  0  0  1  0  0  0  0  0999 V2000
  -41.8795   59.5352   61.8651 N   0  0  0  0  0  0  0  0  0  0  0  0
  -41.6004   60.2813   62.9665 C   0  0  0  0  0  0  0  0  0  0  0  0
  -34.5332   58.1855   64.6113 O   0  0  0  0  0  0  0  0  0  0  0  0
  -36.5837   57.9161   59.0865 Si  0  0  0  0  0  0  0  0  0  0  0  0
  -43.2305   59.2708   61.5998 O   0  0  0  0  0  0  0  0  0  0  0  0
  -35.1443   56.9338   58.6876 O   0  0  0  0  0  0  0  0  0  0  0  0
  -40.9562   58.9512   60.8872 C   0  0  0  0  0  0  0  0  0  0  0  0
  -32.4778   55.1716   61.7919 N   0  0  0  0  0  0  0  0  0  0  0  0
  -34.7660   58.2851   62.3144 O   0  0  0  0  0  0  0  0  0  0  0  0
  -40.0251   57.9692   61.6276 C   0  0  0  0  0  0  0  0  0  0  0  0
  -36.8950   59.8150   64.6310 N   0  0  0  0  0  0  0  0  0  0  0  0
  -32.4902   56.6163   63.5321 O   0  0  0  0  0  0  0  0  0  0  0  0
  -39.1591   58.5341   62.7662 C   0  0  0  0  0  0  0  0  0  0  0  0
  -34.5336   56.1815   59.6451 N   0  0  0  0  0  0  0  0  0  0  0  0
  -37.7543   61.2478   66.1742 O   0  0  0  0  0  0  0  0  0  0  0  0
  -37.6390   58.4030   62.6110 C   0  0  0  0  0  0  0  0  0  0  0  0
  -39.9385   59.0155   65.4749 N   0  0  0  0  0  0  0  0  0  0  0  0
  -40.4413   60.5696   63.2637 O   0  0  0  0  0  0  0  0  0  0  0  0
  -36.7890   58.5530   63.8960 C   0  0  1  0  0  0  0  0  0  0  0  0
  -32.5265   56.6141   58.7233 O   0  0  0  0  0  0  0  0  0  0  0  0
  -35.3080   58.3090   63.6770 C   0  0  0  0  0  0  0  0  0  0  0  0
  -40.5406   59.1037   67.6247 O   0  0  0  0  0  0  0  0  0  0  0  0
  -33.4308   58.7440   62.0310 C   0  0  1  0  0  0  0  0  0  0  0  0
  -43.2279   59.0889   68.0232 O   0  0  0  0  0  0  0  0  0  0  0  0
  -32.6435   57.5881   61.4324 C   0  0  0  0  0  0  0  0  0  0  0  0
  -33.3619   59.9768   61.1381 C   0  0  0  0  0  0  0  0  0  0  0  0
  -32.5610   56.3901   62.3458 C   0  0  0  0  0  0  0  0  0  0  0  0
  -37.7336   60.1539   65.6256 C   0  0  0  0  0  0  0  0  0  0  0  0
  -42.7568   60.7612   63.8499 C   0  0  0  0  0  0  0  0  0  0  0  0
  -42.8676   62.2865   63.9788 C   0  0  0  0  0  0  0  0  0  0  0  0
  -44.0475   62.6549   64.8988 C   0  0  0  0  0  0  0  0  0  0  0  0
  -44.2427   64.1734   65.0705 C   0  0  0  0  0  0  0  0  0  0  0  0
  -45.4055   64.5695   65.9995 C   0  0  0  0  0  0  0  0  0  0  0  0
  -45.2306   64.0412   67.4387 C   0  0  0  0  0  0  0  0  0  0  0  0
  -46.3867   64.4031   68.4001 C   0  0  0  0  0  0  0  0  0  0  0  0
  -46.6039   65.9131   68.5515 C   0  0  0  0  0  0  0  0  0  0  0  0
  -47.7288   66.3209   69.5081 C   0  0  0  0  0  0  0  0  0  0  0  0
  -47.8786   67.8516   69.5780 C   0  0  0  0  0  0  0  0  0  0  0  0
  -48.2242   68.5055   68.2315 C   0  0  0  0  0  0  0  0  0  0  0  0
  -48.3666   70.0310   68.2494 C   0  0  0  0  0  0  0  0  0  0  0  0
  -48.7321   70.6518   66.8780 C   0  0  0  0  0  0  0  0  0  0  0  0
  -50.0845   70.1216   66.3601 C   0  0  0  0  0  0  0  0  0  0  0  0
  -51.3208   70.3946   67.2252 C   0  0  0  0  0  0  0  0  0  0  0  0
  -35.3797   55.6670   60.7320 C   0  0  0  0  0  0  0  0  0  0  0  0
  -35.5175   54.1358   60.6372 C   0  0  0  0  0  0  0  0  0  0  0  0
  -34.6350   53.4682   59.5955 C   0  0  0  0  0  0  0  0  0  0  0  0
  -33.1440   53.5490   59.9335 C   0  0  0  0  0  0  0  0  0  0  0  0
  -32.5496   54.9045   60.3509 C   0  0  1  0  0  0  0  0  0  0  0  0
  -33.2117   55.9840   59.5171 C   0  0  0  0  0  0  0  0  0  0  0  0
  -39.1148   59.1498   67.6646 C   0  0  0  0  0  0  0  0  0  0  0  0
  -40.9428   59.0386   66.2420 C   0  0  0  0  0  0  0  0  0  0  0  0
  -38.6466   59.0723   66.1849 C   0  0  1  0  0  0  0  0  0  0  0  0
  -43.4396   58.9963   66.7047 C   0  0  0  0  0  0  0  0  0  0  0  0
  -44.7515   58.9426   66.2159 C   0  0  0  0  0  0  0  0  0  0  0  0
  -45.0000   58.8358   64.8370 C   0  0  0  0  0  0  0  0  0  0  0  0
  -43.9394   58.7915   63.9305 C   0  0  0  0  0  0  0  0  0  0  0  0
  -42.6289   58.8512   64.4128 C   0  0  0  0  0  0  0  0  0  0  0  0
  -42.3766   58.9494   65.7946 C   0  0  0  0  0  0  0  0  0  0  0  0
  -37.0265   58.6009   57.9241 H   0  0  0  0  0  0  0  0  0  0  0  0
  -36.2485   58.8599   60.0931 H   0  0  0  0  0  0  0  0  0  0  0  0
  -37.6195   57.0676   59.5594 H   0  0  0  0  0  0  0  0  0  0  0  0
  -43.7812   59.6849   62.2826 H   0  0  0  0  0  0  0  0  0  0  0  0
  -40.3759   59.7253   60.4302 H   0  0  0  0  0  0  0  0  0  0  0  0
  -41.5032   58.4371   60.1247 H   0  0  0  0  0  0  0  0  0  0  0  0
  -32.3602   54.4021   62.3946 H   0  0  0  0  0  0  0  0  0  0  0  0
  -39.3632   57.5456   60.9013 H   0  0  0  0  0  0  0  0  0  0  0  0
  -40.6847   57.2751   62.1050 H   0  0  0  0  0  0  0  0  0  0  0  0
  -36.2607   60.5165   64.3574 H   0  0  0  0  0  0  0  0  0  0  0  0
  -39.5811   58.9804   63.5956 H   0  0  0  0  0  0  0  0  0  0  0  0
  -37.2032   58.2232   61.6930 H   0  0  0  0  0  0  0  0  0  0  0  0
  -37.2383   57.7881   64.4943 H   0  0  0  0  0  0  0  0  0  0  0  0
  -32.9996   59.0629   62.9569 H   0  0  0  0  0  0  0  0  0  0  0  0
  -43.9550   59.1188   68.6134 H   0  0  0  0  0  0  0  0  0  0  0  0
  -31.6498   57.9255   61.2232 H   0  0  0  0  0  0  0  0  0  0  0  0
  -33.1571   57.2781   60.5464 H   0  0  0  0  0  0  0  0  0  0  0  0
  -33.7770   59.7464   60.1792 H   0  0  0  0  0  0  0  0  0  0  0  0
  -32.3413   60.2766   61.0223 H   0  0  0  0  0  0  0  0  0  0  0  0
  -33.9189   60.7731   61.5859 H   0  0  0  0  0  0  0  0  0  0  0  0
  -42.6217   60.3519   64.8292 H   0  0  0  0  0  0  0  0  0  0  0  0
  -43.6583   60.4290   63.3788 H   0  0  0  0  0  0  0  0  0  0  0  0
  -43.0271   62.7130   63.0105 H   0  0  0  0  0  0  0  0  0  0  0  0
  -41.9617   62.6695   64.4001 H   0  0  0  0  0  0  0  0  0  0  0  0
  -43.8723   62.2249   65.8628 H   0  0  0  0  0  0  0  0  0  0  0  0
  -44.9355   62.2737   64.4394 H   0  0  0  0  0  0  0  0  0  0  0  0
  -44.4271   64.5973   64.1056 H   0  0  0  0  0  0  0  0  0  0  0  0
  -43.3493   64.5440   65.5281 H   0  0  0  0  0  0  0  0  0  0  0  0
  -46.3141   64.1720   65.5978 H   0  0  0  0  0  0  0  0  0  0  0  0
  -45.4266   65.6381   66.0499 H   0  0  0  0  0  0  0  0  0  0  0  0
  -44.3250   64.4491   67.8367 H   0  0  0  0  0  0  0  0  0  0  0  0
  -45.2145   62.9734   67.3709 H   0  0  0  0  0  0  0  0  0  0  0  0
  -46.1667   63.9940   69.3639 H   0  0  0  0  0  0  0  0  0  0  0  0
  -47.2836   63.9958   67.9822 H   0  0  0  0  0  0  0  0  0  0  0  0
  -46.8307   66.3129   67.5853 H   0  0  0  0  0  0  0  0  0  0  0  0
  -45.7009   66.3005   68.9751 H   0  0  0  0  0  0  0  0  0  0  0  0
  -47.5067   65.9478   70.4861 H   0  0  0  0  0  0  0  0  0  0  0  0
  -48.6467   65.9087   69.1442 H   0  0  0  0  0  0  0  0  0  0  0  0
  -46.9551   68.2650   69.9260 H   0  0  0  0  0  0  0  0  0  0  0  0
  -48.6946   68.0539   70.2399 H   0  0  0  0  0  0  0  0  0  0  0  0
  -49.1521   68.0929   67.8944 H   0  0  0  0  0  0  0  0  0  0  0  0
  -47.3963   68.2980   67.5861 H   0  0  0  0  0  0  0  0  0  0  0  0
  -47.4363   70.4509   68.5704 H   0  0  0  0  0  0  0  0  0  0  0  0
  -49.1748   70.2561   68.9135 H   0  0  0  0  0  0  0  0  0  0  0  0
  -47.9682   70.4058   66.1703 H   0  0  0  0  0  0  0  0  0  0  0  0
  -48.8114   71.7119   66.9997 H   0  0  0  0  0  0  0  0  0  0  0  0
  -49.9947   69.0608   66.2524 H   0  0  0  0  0  0  0  0  0  0  0  0
  -50.2606   70.6562   65.4501 H   0  0  0  0  0  0  0  0  0  0  0  0
  -51.2191   69.8885   68.1624 H   0  0  0  0  0  0  0  0  0  0  0  0
  -52.1947   70.0390   66.7207 H   0  0  0  0  0  0  0  0  0  0  0  0
  -51.4111   71.4470   67.3962 H   0  0  0  0  0  0  0  0  0  0  0  0
  -36.3503   56.1120   60.6621 H   0  0  0  0  0  0  0  0  0  0  0  0
  -34.9244   55.9139   61.6684 H   0  0  0  0  0  0  0  0  0  0  0  0
  -36.5364   53.9094   60.4016 H   0  0  0  0  0  0  0  0  0  0  0  0
  -35.2011   53.7508   61.5841 H   0  0  0  0  0  0  0  0  0  0  0  0
  -34.7974   53.9481   58.6530 H   0  0  0  0  0  0  0  0  0  0  0  0
  -34.9010   52.4321   59.5674 H   0  0  0  0  0  0  0  0  0  0  0  0
  -32.6074   53.2242   59.0666 H   0  0  0  0  0  0  0  0  0  0  0  0
  -33.0450   52.9431   60.8098 H   0  0  0  0  0  0  0  0  0  0  0  0
  -31.5021   54.8873   60.1334 H   0  0  0  0  0  0  0  0  0  0  0  0
  -38.7307   58.3204   68.2208 H   0  0  0  0  0  0  0  0  0  0  0  0
  -38.7630   60.0402   68.1425 H   0  0  0  0  0  0  0  0  0  0  0  0
  -37.9827   58.2416   66.0659 H   0  0  0  0  0  0  0  0  0  0  0  0
  -45.5440   58.9819   66.8757 H   0  0  0  0  0  0  0  0  0  0  0  0
  -45.9718   58.7898   64.4927 H   0  0  0  0  0  0  0  0  0  0  0  0
  -44.1205   58.7157   62.9174 H   0  0  0  0  0  0  0  0  0  0  0  0
  -41.8386   58.8230   63.7497 H   0  0  0  0  0  0  0  0  0  0  0  0
  1  2  1  0  0  0  0
  1  5  1  0  0  0  0
  1  7  1  0  0  0  0
  2 18  2  0  0  0  0
  2 29  1  0  0  0  0
  3 21  2  0  0  0  0
  4  6  1  0  0  0  0
  4 59  1  0  0  0  0
  4 60  1  0  0  0  0
  4 61  1  0  0  0  0
  5 62  1  0  0  0  0
  6 14  1  0  0  0  0
  7 10  1  0  0  0  0
  7 63  1  0  0  0  0
  7 64  1  0  0  0  0
  8 27  1  0  0  0  0
  8 48  1  0  0  0  0
  8 65  1  0  0  0  0
  9 21  1  0  0  0  0
  9 23  1  0  0  0  0
 10 13  1  0  0  0  0
 10 66  1  0  0  0  0
 10 67  1  0  0  0  0
 11 19  1  0  0  0  0
 11 28  1  0  0  0  0
 11 68  1  0  0  0  0
 12 27  2  0  0  0  0
 13 16  2  0  0  0  0
 13 69  1  0  0  0  0
 14 44  1  0  0  0  0
 14 49  1  0  0  0  0
 15 28  2  0  0  0  0
 16 19  1  0  0  0  0
 16 70  1  0  0  0  0
 17 51  2  0  0  0  0
 17 52  1  0  0  0  0
 19 21  1  0  0  0  0
 19 71  1  1  0  0  0
 20 49  2  0  0  0  0
 22 50  1  0  0  0  0
 22 51  1  0  0  0  0
 23 25  1  0  0  0  0
 23 26  1  0  0  0  0
 23 72  1  1  0  0  0
 24 53  1  0  0  0  0
 24 73  1  0  0  0  0
 25 27  1  0  0  0  0
 25 74  1  0  0  0  0
 25 75  1  0  0  0  0
 26 76  1  0  0  0  0
 26 77  1  0  0  0  0
 26 78  1  0  0  0  0
 28 52  1  0  0  0  0
 29 30  1  0  0  0  0
 29 79  1  0  0  0  0
 29 80  1  0  0  0  0
 30 31  1  0  0  0  0
 30 81  1  0  0  0  0
 30 82  1  0  0  0  0
 31 32  1  0  0  0  0
 31 83  1  0  0  0  0
 31 84  1  0  0  0  0
 32 33  1  0  0  0  0
 32 85  1  0  0  0  0
 32 86  1  0  0  0  0
 33 34  1  0  0  0  0
 33 87  1  0  0  0  0
 33 88  1  0  0  0  0
 34 35  1  0  0  0  0
 34 89  1  0  0  0  0
 34 90  1  0  0  0  0
 35 36  1  0  0  0  0
 35 91  1  0  0  0  0
 35 92  1  0  0  0  0
 36 37  1  0  0  0  0
 36 93  1  0  0  0  0
 36 94  1  0  0  0  0
 37 38  1  0  0  0  0
 37 95  1  0  0  0  0
 37 96  1  0  0  0  0
 38 39  1  0  0  0  0
 38 97  1  0  0  0  0
 38 98  1  0  0  0  0
 39 40  1  0  0  0  0
 39 99  1  0  0  0  0
 39100  1  0  0  0  0
 40 41  1  0  0  0  0
 40101  1  0  0  0  0
 40102  1  0  0  0  0
 41 42  1  0  0  0  0
 41103  1  0  0  0  0
 41104  1  0  0  0  0
 42 43  1  0  0  0  0
 42105  1  0  0  0  0
 42106  1  0  0  0  0
 43107  1  0  0  0  0
 43108  1  0  0  0  0
 43109  1  0  0  0  0
 44 45  1  0  0  0  0
 44110  1  0  0  0  0
 44111  1  0  0  0  0
 45 46  1  0  0  0  0
 45112  1  0  0  0  0
 45113  1  0  0  0  0
 46 47  1  0  0  0  0
 46114  1  0  0  0  0
 46115  1  0  0  0  0
 47 48  1  0  0  0  0
 47116  1  0  0  0  0
 47117  1  0  0  0  0
 48 49  1  0  0  0  0
 48118  1  6  0  0  0
 50 52  1  0  0  0  0
 50119  1  0  0  0  0
 50120  1  0  0  0  0
 51 58  1  0  0  0  0
 52121  1  6  0  0  0
 53 54  2  0  0  0  0
 53 58  1  0  0  0  0
 54 55  1  0  0  0  0
 54122  1  0  0  0  0
 55 56  2  0  0  0  0
 55123  1  0  0  0  0
 56 57  1  0  0  0  0
 56124  1  0  0  0  0
 57 58  2  0  0  0  0
 57125  1  0  0  0  0
M  END
$$$$