/media/chris/experiments/cd1a-new-docking/inputs/ligands/1xz0_ligand.pdb
 OpenBabel07022319323D

125127  0  0  1  0  0  0  0  0999 V2000
  -39.4070   55.3381   59.0035 N   0  0  0  0  0  0  0  0  0  0  0  0
  -40.6073   55.6064   58.4248 C   0  0  0  0  0  0  0  0  0  0  0  0
  -34.4624   59.0890   64.0833 O   0  0  0  0  0  0  0  0  0  0  0  0
  -29.5247   52.6602   60.0020 Si  0  0  0  0  0  0  0  0  0  0  0  0
  -38.3453   55.0123   58.1478 O   0  0  0  0  0  0  0  0  0  0  0  0
  -30.7273   51.3578   60.2331 O   0  0  0  0  0  0  0  0  0  0  0  0
  -39.0463   55.3391   60.4247 C   0  0  0  0  0  0  0  0  0  0  0  0
  -34.5435   53.1967   61.6143 N   0  0  0  0  0  0  0  0  0  0  0  0
  -34.8671   57.1453   62.9008 O   0  0  0  0  0  0  0  0  0  0  0  0
  -38.5576   56.7536   60.7988 C   0  0  0  0  0  0  0  0  0  0  0  0
  -36.8950   59.8150   64.6310 N   0  0  0  0  0  0  0  0  0  0  0  0
  -35.8635   55.0270   61.4618 O   0  0  0  0  0  0  0  0  0  0  0  0
  -38.1064   56.9875   62.2504 C   0  0  0  0  0  0  0  0  0  0  0  0
  -32.0079   51.6547   60.5908 N   0  0  0  0  0  0  0  0  0  0  0  0
  -38.5876   59.4141   66.0963 O   0  0  0  0  0  0  0  0  0  0  0  0
  -37.6390   58.4030   62.6110 C   0  0  0  0  0  0  0  0  0  0  0  0
  -38.0299   62.5582   65.0676 N   0  0  0  0  0  0  0  0  0  0  0  0
  -40.7492   55.5635   57.2029 O   0  0  0  0  0  0  0  0  0  0  0  0
  -36.7890   58.5530   63.8960 C   0  0  1  0  0  0  0  0  0  0  0  0
  -31.2560   52.8266   62.3591 O   0  0  0  0  0  0  0  0  0  0  0  0
  -35.3080   58.3090   63.6770 C   0  0  0  0  0  0  0  0  0  0  0  0
  -36.1262   63.3650   65.9144 O   0  0  0  0  0  0  0  0  0  0  0  0
  -33.9798   56.1611   63.4647 C   0  0  1  0  0  0  0  0  0  0  0  0
  -39.3560   63.8460   63.0576 O   0  0  0  0  0  0  0  0  0  0  0  0
  -34.6857   54.8136   63.4477 C   0  0  0  0  0  0  0  0  0  0  0  0
  -32.6172   56.0764   62.7882 C   0  0  0  0  0  0  0  0  0  0  0  0
  -35.0546   54.3541   62.0587 C   0  0  0  0  0  0  0  0  0  0  0  0
  -37.7336   60.1539   65.6256 C   0  0  0  0  0  0  0  0  0  0  0  0
  -41.7963   55.9736   59.3189 C   0  0  0  0  0  0  0  0  0  0  0  0
  -42.9949   55.0218   59.2053 C   0  0  0  0  0  0  0  0  0  0  0  0
  -42.5784   53.5961   59.6153 C   0  0  0  0  0  0  0  0  0  0  0  0
  -43.7214   52.5683   59.5139 C   0  0  0  0  0  0  0  0  0  0  0  0
  -43.3366   51.1375   59.9345 C   0  0  0  0  0  0  0  0  0  0  0  0
  -42.8711   51.0483   61.4030 C   0  0  0  0  0  0  0  0  0  0  0  0
  -42.4587   49.6298   61.8605 C   0  0  0  0  0  0  0  0  0  0  0  0
  -41.2868   49.0479   61.0616 C   0  0  0  0  0  0  0  0  0  0  0  0
  -40.8532   47.6359   61.4681 C   0  0  0  0  0  0  0  0  0  0  0  0
  -40.4232   47.5845   62.9456 C   0  0  0  0  0  0  0  0  0  0  0  0
  -39.9597   46.1959   63.4112 C   0  0  0  0  0  0  0  0  0  0  0  0
  -38.7462   45.6179   62.6757 C   0  0  0  0  0  0  0  0  0  0  0  0
  -38.3195   44.2100   63.1611 C   0  0  0  0  0  0  0  0  0  0  0  0
  -37.9592   44.2144   64.6605 C   0  0  0  0  0  0  0  0  0  0  0  0
  -37.5014   42.8858   65.2741 C   0  0  0  0  0  0  0  0  0  0  0  0
  -33.0740   51.2354   59.6691 C   0  0  0  0  0  0  0  0  0  0  0  0
  -33.9232   50.1119   60.2931 C   0  0  0  0  0  0  0  0  0  0  0  0
  -33.6217   49.8039   61.7504 C   0  0  0  0  0  0  0  0  0  0  0  0
  -34.0097   50.9438   62.6959 C   0  0  0  0  0  0  0  0  0  0  0  0
  -33.5734   52.3771   62.3493 C   0  0  1  0  0  0  0  0  0  0  0  0
  -32.1829   52.3121   61.7484 C   0  0  0  0  0  0  0  0  0  0  0  0
  -36.3649   62.1796   66.6724 C   0  0  0  0  0  0  0  0  0  0  0  0
  -37.1912   63.4967   64.9519 C   0  0  0  0  0  0  0  0  0  0  0  0
  -37.6957   61.5896   66.1290 C   0  0  1  0  0  0  0  0  0  0  0  0
  -38.3843   64.7655   63.1035 C   0  0  0  0  0  0  0  0  0  0  0  0
  -38.4420   65.8773   62.2530 C   0  0  0  0  0  0  0  0  0  0  0  0
  -37.4296   66.8514   62.2752 C   0  0  0  0  0  0  0  0  0  0  0  0
  -36.3530   66.7299   63.1555 C   0  0  0  0  0  0  0  0  0  0  0  0
  -36.2942   65.6258   64.0104 C   0  0  0  0  0  0  0  0  0  0  0  0
  -37.3027   64.6434   63.9843 C   0  0  0  0  0  0  0  0  0  0  0  0
  -28.2762   52.0919   59.6349 H   0  0  0  0  0  0  0  0  0  0  0  0
  -29.3760   53.3874   61.2126 H   0  0  0  0  0  0  0  0  0  0  0  0
  -29.9665   53.5357   58.9751 H   0  0  0  0  0  0  0  0  0  0  0  0
  -38.6538   55.0308   57.2283 H   0  0  0  0  0  0  0  0  0  0  0  0
  -38.2661   54.6283   60.6006 H   0  0  0  0  0  0  0  0  0  0  0  0
  -39.8940   55.0722   61.0205 H   0  0  0  0  0  0  0  0  0  0  0  0
  -34.8402   52.8742   60.7327 H   0  0  0  0  0  0  0  0  0  0  0  0
  -39.3595   57.4332   60.5988 H   0  0  0  0  0  0  0  0  0  0  0  0
  -37.6754   56.9016   60.2116 H   0  0  0  0  0  0  0  0  0  0  0  0
  -36.2607   60.5165   64.3574 H   0  0  0  0  0  0  0  0  0  0  0  0
  -38.1176   56.2279   62.9488 H   0  0  0  0  0  0  0  0  0  0  0  0
  -37.8799   59.2173   62.0245 H   0  0  0  0  0  0  0  0  0  0  0  0
  -37.2383   57.7881   64.4943 H   0  0  0  0  0  0  0  0  0  0  0  0
  -33.7600   56.4662   64.4664 H   0  0  0  0  0  0  0  0  0  0  0  0
  -40.0703   63.9487   62.4599 H   0  0  0  0  0  0  0  0  0  0  0  0
  -35.5806   54.8909   64.0293 H   0  0  0  0  0  0  0  0  0  0  0  0
  -34.0056   54.0929   63.8513 H   0  0  0  0  0  0  0  0  0  0  0  0
  -32.7429   55.7740   61.7695 H   0  0  0  0  0  0  0  0  0  0  0  0
  -32.0087   55.3606   63.3002 H   0  0  0  0  0  0  0  0  0  0  0  0
  -32.1431   57.0352   62.8197 H   0  0  0  0  0  0  0  0  0  0  0  0
  -42.1238   56.9568   59.0526 H   0  0  0  0  0  0  0  0  0  0  0  0
  -41.4497   55.9078   60.3290 H   0  0  0  0  0  0  0  0  0  0  0  0
  -43.3443   55.0115   58.1940 H   0  0  0  0  0  0  0  0  0  0  0  0
  -43.7742   55.3601   59.8559 H   0  0  0  0  0  0  0  0  0  0  0  0
  -42.2350   53.6218   60.6284 H   0  0  0  0  0  0  0  0  0  0  0  0
  -41.8136   53.2840   58.9351 H   0  0  0  0  0  0  0  0  0  0  0  0
  -44.0548   52.5391   58.4976 H   0  0  0  0  0  0  0  0  0  0  0  0
  -44.4804   52.8908   60.1956 H   0  0  0  0  0  0  0  0  0  0  0  0
  -42.5421   50.7981   59.3033 H   0  0  0  0  0  0  0  0  0  0  0  0
  -44.2105   50.5280   59.8370 H   0  0  0  0  0  0  0  0  0  0  0  0
  -43.6729   51.3812   62.0285 H   0  0  0  0  0  0  0  0  0  0  0  0
  -41.9966   51.6597   61.4826 H   0  0  0  0  0  0  0  0  0  0  0  0
  -43.3011   48.9794   61.7489 H   0  0  0  0  0  0  0  0  0  0  0  0
  -42.1389   49.7072   62.8786 H   0  0  0  0  0  0  0  0  0  0  0  0
  -40.4471   49.6996   61.1847 H   0  0  0  0  0  0  0  0  0  0  0  0
  -41.6271   48.9728   60.0500 H   0  0  0  0  0  0  0  0  0  0  0  0
  -40.0297   47.3344   60.8550 H   0  0  0  0  0  0  0  0  0  0  0  0
  -41.6856   46.9767   61.3363 H   0  0  0  0  0  0  0  0  0  0  0  0
  -41.2552   47.8819   63.5491 H   0  0  0  0  0  0  0  0  0  0  0  0
  -39.5853   48.2421   63.0482 H   0  0  0  0  0  0  0  0  0  0  0  0
  -40.7763   45.5166   63.2820 H   0  0  0  0  0  0  0  0  0  0  0  0
  -39.6525   46.3176   64.4289 H   0  0  0  0  0  0  0  0  0  0  0  0
  -37.9210   46.2848   62.8145 H   0  0  0  0  0  0  0  0  0  0  0  0
  -39.0294   45.5159   61.6489 H   0  0  0  0  0  0  0  0  0  0  0  0
  -37.4660   43.8925   62.5993 H   0  0  0  0  0  0  0  0  0  0  0  0
  -39.1418   43.5411   63.0152 H   0  0  0  0  0  0  0  0  0  0  0  0
  -38.8260   44.5361   65.1991 H   0  0  0  0  0  0  0  0  0  0  0  0
  -37.1109   44.8617   64.7390 H   0  0  0  0  0  0  0  0  0  0  0  0
  -38.3033   42.1786   65.2324 H   0  0  0  0  0  0  0  0  0  0  0  0
  -37.2171   43.0429   66.2936 H   0  0  0  0  0  0  0  0  0  0  0  0
  -36.6644   42.5087   64.7244 H   0  0  0  0  0  0  0  0  0  0  0  0
  -32.6335   50.8797   58.7612 H   0  0  0  0  0  0  0  0  0  0  0  0
  -33.7070   52.0751   59.4709 H   0  0  0  0  0  0  0  0  0  0  0  0
  -33.7595   49.2197   59.7257 H   0  0  0  0  0  0  0  0  0  0  0  0
  -34.9359   50.4566   60.2666 H   0  0  0  0  0  0  0  0  0  0  0  0
  -32.5722   49.6206   61.8500 H   0  0  0  0  0  0  0  0  0  0  0  0
  -34.2043   48.9491   62.0239 H   0  0  0  0  0  0  0  0  0  0  0  0
  -33.5942   50.7121   63.6543 H   0  0  0  0  0  0  0  0  0  0  0  0
  -35.0774   50.9773   62.6349 H   0  0  0  0  0  0  0  0  0  0  0  0
  -33.5359   52.9404   63.2582 H   0  0  0  0  0  0  0  0  0  0  0  0
  -36.4588   62.4149   67.7120 H   0  0  0  0  0  0  0  0  0  0  0  0
  -35.5581   61.4831   66.5783 H   0  0  0  0  0  0  0  0  0  0  0  0
  -38.3917   61.4827   66.9347 H   0  0  0  0  0  0  0  0  0  0  0  0
  -39.2367   65.9820   61.6030 H   0  0  0  0  0  0  0  0  0  0  0  0
  -37.4823   67.6610   61.6374 H   0  0  0  0  0  0  0  0  0  0  0  0
  -35.6102   67.4460   63.1747 H   0  0  0  0  0  0  0  0  0  0  0  0
  -35.5040   65.5295   64.6672 H   0  0  0  0  0  0  0  0  0  0  0  0
  1  2  1  0  0  0  0
  1  5  1  0  0  0  0
  1  7  1  0  0  0  0
  2 18  2  0  0  0  0
  2 29  1  0  0  0  0
  3 21  2  0  0  0  0
  4  6  1  0  0  0  0
  4 59  1  0  0  0  0
  4 60  1  0  0  0  0
  4 61  1  0  0  0  0
  5 62  1  0  0  0  0
  6 14  1  0  0  0  0
  7 10  1  0  0  0  0
  7 63  1  0  0  0  0
  7 64  1  0  0  0  0
  8 27  1  0  0  0  0
  8 48  1  0  0  0  0
  8 65  1  0  0  0  0
  9 21  1  0  0  0  0
  9 23  1  0  0  0  0
 10 13  1  0  0  0  0
 10 66  1  0  0  0  0
 10 67  1  0  0  0  0
 11 19  1  0  0  0  0
 11 28  1  0  0  0  0
 11 68  1  0  0  0  0
 12 27  2  0  0  0  0
 13 16  2  0  0  0  0
 13 69  1  0  0  0  0
 14 44  1  0  0  0  0
 14 49  1  0  0  0  0
 15 28  2  0  0  0  0
 16 19  1  0  0  0  0
 16 70  1  0  0  0  0
 17 51  2  0  0  0  0
 17 52  1  0  0  0  0
 19 21  1  0  0  0  0
 19 71  1  1  0  0  0
 20 49  2  0  0  0  0
 22 50  1  0  0  0  0
 22 51  1  0  0  0  0
 23 25  1  0  0  0  0
 23 26  1  0  0  0  0
 23 72  1  1  0  0  0
 24 53  1  0  0  0  0
 24 73  1  0  0  0  0
 25 27  1  0  0  0  0
 25 74  1  0  0  0  0
 25 75  1  0  0  0  0
 26 76  1  0  0  0  0
 26 77  1  0  0  0  0
 26 78  1  0  0  0  0
 28 52  1  0  0  0  0
 29 30  1  0  0  0  0
 29 79  1  0  0  0  0
 29 80  1  0  0  0  0
 30 31  1  0  0  0  0
 30 81  1  0  0  0  0
 30 82  1  0  0  0  0
 31 32  1  0  0  0  0
 31 83  1  0  0  0  0
 31 84  1  0  0  0  0
 32 33  1  0  0  0  0
 32 85  1  0  0  0  0
 32 86  1  0  0  0  0
 33 34  1  0  0  0  0
 33 87  1  0  0  0  0
 33 88  1  0  0  0  0
 34 35  1  0  0  0  0
 34 89  1  0  0  0  0
 34 90  1  0  0  0  0
 35 36  1  0  0  0  0
 35 91  1  0  0  0  0
 35 92  1  0  0  0  0
 36 37  1  0  0  0  0
 36 93  1  0  0  0  0
 36 94  1  0  0  0  0
 37 38  1  0  0  0  0
 37 95  1  0  0  0  0
 37 96  1  0  0  0  0
 38 39  1  0  0  0  0
 38 97  1  0  0  0  0
 38 98  1  0  0  0  0
 39 40  1  0  0  0  0
 39 99  1  0  0  0  0
 39100  1  0  0  0  0
 40 41  1  0  0  0  0
 40101  1  0  0  0  0
 40102  1  0  0  0  0
 41 42  1  0  0  0  0
 41103  1  0  0  0  0
 41104  1  0  0  0  0
 42 43  1  0  0  0  0
 42105  1  0  0  0  0
 42106  1  0  0  0  0
 43107  1  0  0  0  0
 43108  1  0  0  0  0
 43109  1  0  0  0  0
 44 45  1  0  0  0  0
 44110  1  0  0  0  0
 44111  1  0  0  0  0
 45 46  1  0  0  0  0
 45112  1  0  0  0  0
 45113  1  0  0  0  0
 46 47  1  0  0  0  0
 46114  1  0  0  0  0
 46115  1  0  0  0  0
 47 48  1  0  0  0  0
 47116  1  0  0  0  0
 47117  1  0  0  0  0
 48 49  1  0  0  0  0
 48118  1  1  0  0  0
 50 52  1  0  0  0  0
 50119  1  0  0  0  0
 50120  1  0  0  0  0
 51 58  1  0  0  0  0
 52121  1  1  0  0  0
 53 54  2  0  0  0  0
 53 58  1  0  0  0  0
 54 55  1  0  0  0  0
 54122  1  0  0  0  0
 55 56  2  0  0  0  0
 55123  1  0  0  0  0
 56 57  1  0  0  0  0
 56124  1  0  0  0  0
 57 58  2  0  0  0  0
 57125  1  0  0  0  0
M  END
$$$$