/media/chris/experiments/cd1a-new-docking/inputs/ligands/1xz0_ligand.pdb
 OpenBabel07022319323D

125127  0  0  1  0  0  0  0  0999 V2000
  -36.9376   55.0195   60.2363 N   0  0  0  0  0  0  0  0  0  0  0  0
  -35.6897   54.5116   60.0560 C   0  0  0  0  0  0  0  0  0  0  0  0
  -34.6358   57.6816   64.4788 O   0  0  0  0  0  0  0  0  0  0  0  0
  -37.3131   64.9984   61.5957 Si  0  0  0  0  0  0  0  0  0  0  0  0
  -37.8498   54.2306   60.9511 O   0  0  0  0  0  0  0  0  0  0  0  0
  -38.2717   63.5760   61.0919 O   0  0  0  0  0  0  0  0  0  0  0  0
  -37.4866   56.3018   59.7847 C   0  0  0  0  0  0  0  0  0  0  0  0
  -35.6695   60.3473   59.4618 N   0  0  0  0  0  0  0  0  0  0  0  0
  -34.6370   58.8922   62.5105 O   0  0  0  0  0  0  0  0  0  0  0  0
  -38.5576   56.7536   60.7988 C   0  0  0  0  0  0  0  0  0  0  0  0
  -36.8950   59.8150   64.6310 N   0  0  0  0  0  0  0  0  0  0  0  0
  -33.4205   60.1910   59.6437 O   0  0  0  0  0  0  0  0  0  0  0  0
  -38.1064   56.9875   62.2504 C   0  0  0  0  0  0  0  0  0  0  0  0
  -37.6898   62.5633   60.3906 N   0  0  0  0  0  0  0  0  0  0  0  0
  -35.2587   61.0902   63.6986 O   0  0  0  0  0  0  0  0  0  0  0  0
  -37.6390   58.4030   62.6110 C   0  0  0  0  0  0  0  0  0  0  0  0
  -35.2204   62.4137   66.2625 N   0  0  0  0  0  0  0  0  0  0  0  0
  -34.8252   55.1453   59.4511 O   0  0  0  0  0  0  0  0  0  0  0  0
  -36.7890   58.5530   63.8960 C   0  0  1  0  0  0  0  0  0  0  0  0
  -35.6704   63.5198   60.6597 O   0  0  0  0  0  0  0  0  0  0  0  0
  -35.3080   58.3090   63.6770 C   0  0  0  0  0  0  0  0  0  0  0  0
  -36.7793   62.1456   67.8405 O   0  0  0  0  0  0  0  0  0  0  0  0
  -33.9487   58.0670   61.5518 C   0  0  1  0  0  0  0  0  0  0  0  0
  -35.9705   63.7508   70.0383 O   0  0  0  0  0  0  0  0  0  0  0  0
  -34.5979   58.2699   60.1910 C   0  0  0  0  0  0  0  0  0  0  0  0
  -32.4442   58.2979   61.4831 C   0  0  0  0  0  0  0  0  0  0  0  0
  -34.5227   59.6959   59.7041 C   0  0  0  0  0  0  0  0  0  0  0  0
  -36.1713   60.9404   64.5004 C   0  0  0  0  0  0  0  0  0  0  0  0
  -35.3666   53.1218   60.6148 C   0  0  0  0  0  0  0  0  0  0  0  0
  -33.9250   52.6568   60.3679 C   0  0  0  0  0  0  0  0  0  0  0  0
  -33.6343   52.6165   58.8552 C   0  0  0  0  0  0  0  0  0  0  0  0
  -34.5690   51.6733   58.0743 C   0  0  0  0  0  0  0  0  0  0  0  0
  -34.2891   51.6009   56.5615 C   0  0  0  0  0  0  0  0  0  0  0  0
  -32.8702   51.0880   56.2375 C   0  0  0  0  0  0  0  0  0  0  0  0
  -32.5429   51.0167   54.7277 C   0  0  0  0  0  0  0  0  0  0  0  0
  -32.6183   52.3757   54.0224 C   0  0  0  0  0  0  0  0  0  0  0  0
  -31.6543   53.4428   54.5506 C   0  0  0  0  0  0  0  0  0  0  0  0
  -31.8186   54.7723   53.7918 C   0  0  0  0  0  0  0  0  0  0  0  0
  -30.8656   55.8807   54.2642 C   0  0  0  0  0  0  0  0  0  0  0  0
  -30.9828   56.2750   55.7402 C   0  0  0  0  0  0  0  0  0  0  0  0
  -32.3852   56.7879   56.1521 C   0  0  0  0  0  0  0  0  0  0  0  0
  -33.4680   55.7125   55.9297 C   0  0  0  0  0  0  0  0  0  0  0  0
  -34.9121   56.0904   56.2806 C   0  0  0  0  0  0  0  0  0  0  0  0
  -38.5521   61.4378   60.0012 C   0  0  0  0  0  0  0  0  0  0  0  0
  -38.7581   61.4116   58.4749 C   0  0  0  0  0  0  0  0  0  0  0  0
  -37.9116   62.3992   57.6890 C   0  0  0  0  0  0  0  0  0  0  0  0
  -36.4167   62.0712   57.7296 C   0  0  0  0  0  0  0  0  0  0  0  0
  -35.7607   61.7628   59.0858 C   0  0  1  0  0  0  0  0  0  0  0  0
  -36.3787   62.6777   60.1250 C   0  0  0  0  0  0  0  0  0  0  0  0
  -37.4727   61.8763   66.6226 C   0  0  0  0  0  0  0  0  0  0  0  0
  -35.4086   62.4475   67.5119 C   0  0  0  0  0  0  0  0  0  0  0  0
  -36.4281   62.0691   65.4884 C   0  0  1  0  0  0  0  0  0  0  0  0
  -34.7048   63.4269   69.7470 C   0  0  0  0  0  0  0  0  0  0  0  0
  -33.6881   63.7076   70.6692 C   0  0  0  0  0  0  0  0  0  0  0  0
  -32.3506   63.3862   70.3830 C   0  0  0  0  0  0  0  0  0  0  0  0
  -32.0157   62.7712   69.1754 C   0  0  0  0  0  0  0  0  0  0  0  0
  -33.0272   62.4833   68.2548 C   0  0  0  0  0  0  0  0  0  0  0  0
  -34.3674   62.8122   68.5350 C   0  0  0  0  0  0  0  0  0  0  0  0
  -38.1457   65.9026   62.3067 H   0  0  0  0  0  0  0  0  0  0  0  0
  -36.7853   65.6445   60.4466 H   0  0  0  0  0  0  0  0  0  0  0  0
  -36.2468   64.5778   62.4339 H   0  0  0  0  0  0  0  0  0  0  0  0
  -37.4216   53.4019   61.2172 H   0  0  0  0  0  0  0  0  0  0  0  0
  -37.9300   56.1853   58.8179 H   0  0  0  0  0  0  0  0  0  0  0  0
  -36.7087   57.0336   59.7192 H   0  0  0  0  0  0  0  0  0  0  0  0
  -36.5095   59.8401   59.5418 H   0  0  0  0  0  0  0  0  0  0  0  0
  -39.3191   56.0021   60.8169 H   0  0  0  0  0  0  0  0  0  0  0  0
  -38.8726   57.7157   60.4525 H   0  0  0  0  0  0  0  0  0  0  0  0
  -37.5975   59.8434   65.3202 H   0  0  0  0  0  0  0  0  0  0  0  0
  -38.1176   56.2279   62.9488 H   0  0  0  0  0  0  0  0  0  0  0  0
  -37.8799   59.2173   62.0245 H   0  0  0  0  0  0  0  0  0  0  0  0
  -37.2383   57.7881   64.4943 H   0  0  0  0  0  0  0  0  0  0  0  0
  -34.0466   57.0520   61.8759 H   0  0  0  0  0  0  0  0  0  0  0  0
  -36.1727   64.1616   70.8558 H   0  0  0  0  0  0  0  0  0  0  0  0
  -35.6277   57.9878   60.2600 H   0  0  0  0  0  0  0  0  0  0  0  0
  -34.0620   57.6653   59.4894 H   0  0  0  0  0  0  0  0  0  0  0  0
  -32.2515   59.3007   61.1633 H   0  0  0  0  0  0  0  0  0  0  0  0
  -32.0095   57.6117   60.7866 H   0  0  0  0  0  0  0  0  0  0  0  0
  -32.0150   58.1436   62.4510 H   0  0  0  0  0  0  0  0  0  0  0  0
  -36.0285   52.4158   60.1583 H   0  0  0  0  0  0  0  0  0  0  0  0
  -35.4891   53.1841   61.6759 H   0  0  0  0  0  0  0  0  0  0  0  0
  -33.7932   51.6782   60.7799 H   0  0  0  0  0  0  0  0  0  0  0  0
  -33.2503   53.3425   60.8364 H   0  0  0  0  0  0  0  0  0  0  0  0
  -32.6260   52.2882   58.7128 H   0  0  0  0  0  0  0  0  0  0  0  0
  -33.7970   53.6042   58.4773 H   0  0  0  0  0  0  0  0  0  0  0  0
  -35.5749   52.0112   58.2117 H   0  0  0  0  0  0  0  0  0  0  0  0
  -34.3998   50.6901   58.4612 H   0  0  0  0  0  0  0  0  0  0  0  0
  -34.4010   52.5807   56.1463 H   0  0  0  0  0  0  0  0  0  0  0  0
  -34.9857   50.9075   56.1387 H   0  0  0  0  0  0  0  0  0  0  0  0
  -32.7684   50.1052   56.6483 H   0  0  0  0  0  0  0  0  0  0  0  0
  -32.1873   51.7928   56.6639 H   0  0  0  0  0  0  0  0  0  0  0  0
  -33.2403   50.3532   54.2606 H   0  0  0  0  0  0  0  0  0  0  0  0
  -31.5340   50.6712   54.6398 H   0  0  0  0  0  0  0  0  0  0  0  0
  -33.6153   52.7489   54.1300 H   0  0  0  0  0  0  0  0  0  0  0  0
  -32.3340   52.1975   53.0064 H   0  0  0  0  0  0  0  0  0  0  0  0
  -30.6496   53.0949   54.4300 H   0  0  0  0  0  0  0  0  0  0  0  0
  -31.8748   53.6147   55.5834 H   0  0  0  0  0  0  0  0  0  0  0  0
  -32.8241   55.1136   53.9240 H   0  0  0  0  0  0  0  0  0  0  0  0
  -31.5828   54.5761   52.7668 H   0  0  0  0  0  0  0  0  0  0  0  0
  -31.0582   56.7528   53.6749 H   0  0  0  0  0  0  0  0  0  0  0  0
  -29.8782   55.4857   54.1459 H   0  0  0  0  0  0  0  0  0  0  0  0
  -30.2711   57.0491   55.9380 H   0  0  0  0  0  0  0  0  0  0  0  0
  -30.8005   55.3880   56.3103 H   0  0  0  0  0  0  0  0  0  0  0  0
  -32.6261   57.6502   55.5662 H   0  0  0  0  0  0  0  0  0  0  0  0
  -32.3615   57.0300   57.1941 H   0  0  0  0  0  0  0  0  0  0  0  0
  -33.2042   54.8622   56.5234 H   0  0  0  0  0  0  0  0  0  0  0  0
  -33.4758   55.5427   54.8733 H   0  0  0  0  0  0  0  0  0  0  0  0
  -34.9865   56.2775   57.3315 H   0  0  0  0  0  0  0  0  0  0  0  0
  -35.5659   55.2863   56.0143 H   0  0  0  0  0  0  0  0  0  0  0  0
  -35.1915   56.9709   55.7408 H   0  0  0  0  0  0  0  0  0  0  0  0
  -39.5024   61.5408   60.4821 H   0  0  0  0  0  0  0  0  0  0  0  0
  -38.0815   60.5246   60.3003 H   0  0  0  0  0  0  0  0  0  0  0  0
  -39.7873   61.6269   58.2764 H   0  0  0  0  0  0  0  0  0  0  0  0
  -38.4541   60.4379   58.1517 H   0  0  0  0  0  0  0  0  0  0  0  0
  -38.0575   63.3762   58.1002 H   0  0  0  0  0  0  0  0  0  0  0  0
  -38.2233   62.3452   56.6668 H   0  0  0  0  0  0  0  0  0  0  0  0
  -35.8995   62.9107   57.3142 H   0  0  0  0  0  0  0  0  0  0  0  0
  -36.3400   61.1501   57.1906 H   0  0  0  0  0  0  0  0  0  0  0  0
  -34.7161   61.9801   59.0050 H   0  0  0  0  0  0  0  0  0  0  0  0
  -38.2872   62.5590   66.4989 H   0  0  0  0  0  0  0  0  0  0  0  0
  -37.8848   60.8888   66.6144 H   0  0  0  0  0  0  0  0  0  0  0  0
  -36.7905   62.7963   64.7921 H   0  0  0  0  0  0  0  0  0  0  0  0
  -33.9242   64.1554   71.5685 H   0  0  0  0  0  0  0  0  0  0  0  0
  -31.6118   63.6060   71.0693 H   0  0  0  0  0  0  0  0  0  0  0  0
  -31.0341   62.5322   68.9651 H   0  0  0  0  0  0  0  0  0  0  0  0
  -32.7895   62.0253   67.3610 H   0  0  0  0  0  0  0  0  0  0  0  0
  1  2  1  0  0  0  0
  1  5  1  0  0  0  0
  1  7  1  0  0  0  0
  2 18  2  0  0  0  0
  2 29  1  0  0  0  0
  3 21  2  0  0  0  0
  4  6  1  0  0  0  0
  4 59  1  0  0  0  0
  4 60  1  0  0  0  0
  4 61  1  0  0  0  0
  5 62  1  0  0  0  0
  6 14  1  0  0  0  0
  7 10  1  0  0  0  0
  7 63  1  0  0  0  0
  7 64  1  0  0  0  0
  8 27  1  0  0  0  0
  8 48  1  0  0  0  0
  8 65  1  0  0  0  0
  9 21  1  0  0  0  0
  9 23  1  0  0  0  0
 10 13  1  0  0  0  0
 10 66  1  0  0  0  0
 10 67  1  0  0  0  0
 11 19  1  0  0  0  0
 11 28  1  0  0  0  0
 11 68  1  0  0  0  0
 12 27  2  0  0  0  0
 13 16  2  0  0  0  0
 13 69  1  0  0  0  0
 14 44  1  0  0  0  0
 14 49  1  0  0  0  0
 15 28  2  0  0  0  0
 16 19  1  0  0  0  0
 16 70  1  0  0  0  0
 17 51  2  0  0  0  0
 17 52  1  0  0  0  0
 19 21  1  0  0  0  0
 19 71  1  1  0  0  0
 20 49  2  0  0  0  0
 22 50  1  0  0  0  0
 22 51  1  0  0  0  0
 23 25  1  0  0  0  0
 23 26  1  0  0  0  0
 23 72  1  1  0  0  0
 24 53  1  0  0  0  0
 24 73  1  0  0  0  0
 25 27  1  0  0  0  0
 25 74  1  0  0  0  0
 25 75  1  0  0  0  0
 26 76  1  0  0  0  0
 26 77  1  0  0  0  0
 26 78  1  0  0  0  0
 28 52  1  0  0  0  0
 29 30  1  0  0  0  0
 29 79  1  0  0  0  0
 29 80  1  0  0  0  0
 30 31  1  0  0  0  0
 30 81  1  0  0  0  0
 30 82  1  0  0  0  0
 31 32  1  0  0  0  0
 31 83  1  0  0  0  0
 31 84  1  0  0  0  0
 32 33  1  0  0  0  0
 32 85  1  0  0  0  0
 32 86  1  0  0  0  0
 33 34  1  0  0  0  0
 33 87  1  0  0  0  0
 33 88  1  0  0  0  0
 34 35  1  0  0  0  0
 34 89  1  0  0  0  0
 34 90  1  0  0  0  0
 35 36  1  0  0  0  0
 35 91  1  0  0  0  0
 35 92  1  0  0  0  0
 36 37  1  0  0  0  0
 36 93  1  0  0  0  0
 36 94  1  0  0  0  0
 37 38  1  0  0  0  0
 37 95  1  0  0  0  0
 37 96  1  0  0  0  0
 38 39  1  0  0  0  0
 38 97  1  0  0  0  0
 38 98  1  0  0  0  0
 39 40  1  0  0  0  0
 39 99  1  0  0  0  0
 39100  1  0  0  0  0
 40 41  1  0  0  0  0
 40101  1  0  0  0  0
 40102  1  0  0  0  0
 41 42  1  0  0  0  0
 41103  1  0  0  0  0
 41104  1  0  0  0  0
 42 43  1  0  0  0  0
 42105  1  0  0  0  0
 42106  1  0  0  0  0
 43107  1  0  0  0  0
 43108  1  0  0  0  0
 43109  1  0  0  0  0
 44 45  1  0  0  0  0
 44110  1  0  0  0  0
 44111  1  0  0  0  0
 45 46  1  0  0  0  0
 45112  1  0  0  0  0
 45113  1  0  0  0  0
 46 47  1  0  0  0  0
 46114  1  0  0  0  0
 46115  1  0  0  0  0
 47 48  1  0  0  0  0
 47116  1  0  0  0  0
 47117  1  0  0  0  0
 48 49  1  0  0  0  0
 48118  1  6  0  0  0
 50 52  1  0  0  0  0
 50119  1  0  0  0  0
 50120  1  0  0  0  0
 51 58  1  0  0  0  0
 52121  1  6  0  0  0
 53 54  2  0  0  0  0
 53 58  1  0  0  0  0
 54 55  1  0  0  0  0
 54122  1  0  0  0  0
 55 56  2  0  0  0  0
 55123  1  0  0  0  0
 56 57  1  0  0  0  0
 56124  1  0  0  0  0
 57 58  2  0  0  0  0
 57125  1  0  0  0  0
M  END
$$$$