/media/chris/experiments/cd1a-new-docking/inputs/ligands/1xz0_ligand.pdb
 OpenBabel07022319323D

125127  0  0  1  0  0  0  0  0999 V2000
  -40.4884   60.5770   59.5198 N   0  0  0  0  0  0  0  0  0  0  0  0
  -40.8098   61.5587   58.6362 C   0  0  0  0  0  0  0  0  0  0  0  0
  -34.5145   59.2300   63.5740 O   0  0  0  0  0  0  0  0  0  0  0  0
  -30.9271   49.8627   58.7360 Si  0  0  0  0  0  0  0  0  0  0  0  0
  -41.1262   59.3392   59.3572 O   0  0  0  0  0  0  0  0  0  0  0  0
  -31.1942   51.6268   58.6238 O   0  0  0  0  0  0  0  0  0  0  0  0
  -39.5502   60.6191   60.6457 C   0  0  0  0  0  0  0  0  0  0  0  0
  -31.4520   54.8299   61.7103 N   0  0  0  0  0  0  0  0  0  0  0  0
  -34.8102   56.9389   63.5156 O   0  0  0  0  0  0  0  0  0  0  0  0
  -38.4615   59.5524   60.4085 C   0  0  0  0  0  0  0  0  0  0  0  0
  -36.8950   59.8150   64.6310 N   0  0  0  0  0  0  0  0  0  0  0  0
  -30.3370   56.2673   63.0541 O   0  0  0  0  0  0  0  0  0  0  0  0
  -37.3686   59.4033   61.4804 C   0  0  0  0  0  0  0  0  0  0  0  0
  -31.1377   52.4069   59.7393 N   0  0  0  0  0  0  0  0  0  0  0  0
  -37.6514   61.9223   65.0309 O   0  0  0  0  0  0  0  0  0  0  0  0
  -37.6390   58.4030   62.6110 C   0  0  0  0  0  0  0  0  0  0  0  0
  -39.8013   61.6702   63.4018 N   0  0  0  0  0  0  0  0  0  0  0  0
  -40.2858   62.6705   58.7009 O   0  0  0  0  0  0  0  0  0  0  0  0
  -36.7890   58.5530   63.8960 C   0  0  1  0  0  0  0  0  0  0  0  0
  -30.6576   54.2047   58.4733 O   0  0  0  0  0  0  0  0  0  0  0  0
  -35.3080   58.3090   63.6770 C   0  0  0  0  0  0  0  0  0  0  0  0
  -40.6847   59.6904   62.8613 O   0  0  0  0  0  0  0  0  0  0  0  0
  -33.6819   56.6465   62.6698 C   0  0  1  0  0  0  0  0  0  0  0  0
  -41.3738   63.8488   63.8894 O   0  0  0  0  0  0  0  0  0  0  0  0
  -32.5934   56.0144   63.5242 C   0  0  0  0  0  0  0  0  0  0  0  0
  -34.0060   55.7775   61.4609 C   0  0  0  0  0  0  0  0  0  0  0  0
  -31.3467   55.6778   62.7439 C   0  0  0  0  0  0  0  0  0  0  0  0
  -37.6390   60.9007   64.3569 C   0  0  0  0  0  0  0  0  0  0  0  0
  -41.8486   61.2665   57.5483 C   0  0  0  0  0  0  0  0  0  0  0  0
  -43.0865   62.1727   57.5917 C   0  0  0  0  0  0  0  0  0  0  0  0
  -44.0677   61.7812   56.4700 C   0  0  0  0  0  0  0  0  0  0  0  0
  -44.5809   60.3328   56.5796 C   0  0  0  0  0  0  0  0  0  0  0  0
  -45.5506   59.9096   55.4604 C   0  0  0  0  0  0  0  0  0  0  0  0
  -46.8167   60.7896   55.3988 C   0  0  0  0  0  0  0  0  0  0  0  0
  -47.8255   60.3864   54.2982 C   0  0  0  0  0  0  0  0  0  0  0  0
  -48.3688   58.9621   54.4609 C   0  0  0  0  0  0  0  0  0  0  0  0
  -49.3599   58.5114   53.3832 C   0  0  0  0  0  0  0  0  0  0  0  0
  -50.5941   59.4306   53.3363 C   0  0  0  0  0  0  0  0  0  0  0  0
  -51.6363   59.0205   52.2848 C   0  0  0  0  0  0  0  0  0  0  0  0
  -52.8752   59.9171   52.1905 C   0  0  0  0  0  0  0  0  0  0  0  0
  -53.6897   60.0167   53.5044 C   0  0  0  0  0  0  0  0  0  0  0  0
  -54.1875   58.6323   53.9670 C   0  0  0  0  0  0  0  0  0  0  0  0
  -55.0925   57.8560   53.0028 C   0  0  0  0  0  0  0  0  0  0  0  0
  -31.5192   51.7804   61.0136 C   0  0  0  0  0  0  0  0  0  0  0  0
  -30.2938   51.6277   61.9342 C   0  0  0  0  0  0  0  0  0  0  0  0
  -29.0230   52.2988   61.4397 C   0  0  0  0  0  0  0  0  0  0  0  0
  -29.1187   53.8267   61.4279 C   0  0  0  0  0  0  0  0  0  0  0  0
  -30.3552   54.4885   60.7972 C   0  0  1  0  0  0  0  0  0  0  0  0
  -30.7478   53.6812   59.5754 C   0  0  0  0  0  0  0  0  0  0  0  0
  -39.2771   59.4566   62.8389 C   0  0  0  0  0  0  0  0  0  0  0  0
  -40.8989   61.0671   63.2311 C   0  0  0  0  0  0  0  0  0  0  0  0
  -38.6157   60.8175   63.1928 C   0  0  1  0  0  0  0  0  0  0  0  0
  -42.4236   63.0563   63.6414 C   0  0  0  0  0  0  0  0  0  0  0  0
  -43.7191   63.5877   63.6887 C   0  0  0  0  0  0  0  0  0  0  0  0
  -44.8380   62.7745   63.4416 C   0  0  0  0  0  0  0  0  0  0  0  0
  -44.6735   61.4227   63.1344 C   0  0  0  0  0  0  0  0  0  0  0  0
  -43.3828   60.8893   63.0797 C   0  0  0  0  0  0  0  0  0  0  0  0
  -42.2601   61.6997   63.3355 C   0  0  0  0  0  0  0  0  0  0  0  0
  -31.0386   49.2840   57.4440 H   0  0  0  0  0  0  0  0  0  0  0  0
  -31.9008   49.2903   59.5966 H   0  0  0  0  0  0  0  0  0  0  0  0
  -29.6298   49.6125   59.2563 H   0  0  0  0  0  0  0  0  0  0  0  0
  -41.7289   59.3832   58.5984 H   0  0  0  0  0  0  0  0  0  0  0  0
  -40.0695   60.4097   61.5575 H   0  0  0  0  0  0  0  0  0  0  0  0
  -39.1057   61.5897   60.7194 H   0  0  0  0  0  0  0  0  0  0  0  0
  -32.3269   54.4067   61.5530 H   0  0  0  0  0  0  0  0  0  0  0  0
  -37.9751   59.7904   59.4856 H   0  0  0  0  0  0  0  0  0  0  0  0
  -38.9859   58.6198   60.4219 H   0  0  0  0  0  0  0  0  0  0  0  0
  -36.3417   59.8774   65.4429 H   0  0  0  0  0  0  0  0  0  0  0  0
  -36.4946   59.9506   61.4407 H   0  0  0  0  0  0  0  0  0  0  0  0
  -38.3541   57.6645   62.5194 H   0  0  0  0  0  0  0  0  0  0  0  0
  -37.2383   57.7881   64.4943 H   0  0  0  0  0  0  0  0  0  0  0  0
  -33.3498   57.5726   62.2492 H   0  0  0  0  0  0  0  0  0  0  0  0
  -41.5075   64.7539   64.0919 H   0  0  0  0  0  0  0  0  0  0  0  0
  -32.9788   55.1138   63.9547 H   0  0  0  0  0  0  0  0  0  0  0  0
  -32.3183   56.7304   64.2703 H   0  0  0  0  0  0  0  0  0  0  0  0
  -34.3502   54.8199   61.7920 H   0  0  0  0  0  0  0  0  0  0  0  0
  -33.1263   55.6536   60.8646 H   0  0  0  0  0  0  0  0  0  0  0  0
  -34.7691   56.2486   60.8773 H   0  0  0  0  0  0  0  0  0  0  0  0
  -42.1723   60.2527   57.6588 H   0  0  0  0  0  0  0  0  0  0  0  0
  -41.3680   61.4520   56.6105 H   0  0  0  0  0  0  0  0  0  0  0  0
  -42.7849   63.1907   57.4589 H   0  0  0  0  0  0  0  0  0  0  0  0
  -43.5721   62.0577   58.5382 H   0  0  0  0  0  0  0  0  0  0  0  0
  -43.5695   61.8936   55.5298 H   0  0  0  0  0  0  0  0  0  0  0  0
  -44.9187   62.4238   56.5581 H   0  0  0  0  0  0  0  0  0  0  0  0
  -45.0865   60.2279   57.5167 H   0  0  0  0  0  0  0  0  0  0  0  0
  -43.7226   59.6997   56.4925 H   0  0  0  0  0  0  0  0  0  0  0  0
  -45.8474   58.8958   55.6310 H   0  0  0  0  0  0  0  0  0  0  0  0
  -45.0355   60.0222   54.5294 H   0  0  0  0  0  0  0  0  0  0  0  0
  -46.5130   61.7998   55.2198 H   0  0  0  0  0  0  0  0  0  0  0  0
  -47.3206   60.6634   56.3343 H   0  0  0  0  0  0  0  0  0  0  0  0
  -47.3373   60.4566   53.3487 H   0  0  0  0  0  0  0  0  0  0  0  0
  -48.6593   61.0526   54.3751 H   0  0  0  0  0  0  0  0  0  0  0  0
  -48.8617   58.9027   55.4087 H   0  0  0  0  0  0  0  0  0  0  0  0
  -47.5233   58.3118   54.3753 H   0  0  0  0  0  0  0  0  0  0  0  0
  -49.6776   57.5125   53.5980 H   0  0  0  0  0  0  0  0  0  0  0  0
  -48.8691   58.5575   52.4335 H   0  0  0  0  0  0  0  0  0  0  0  0
  -50.2657   60.4246   53.1152 H   0  0  0  0  0  0  0  0  0  0  0  0
  -51.0715   59.3584   54.2912 H   0  0  0  0  0  0  0  0  0  0  0  0
  -51.9652   58.0292   52.5174 H   0  0  0  0  0  0  0  0  0  0  0  0
  -51.1437   59.1041   51.3386 H   0  0  0  0  0  0  0  0  0  0  0  0
  -53.5154   59.5254   51.4279 H   0  0  0  0  0  0  0  0  0  0  0  0
  -52.5241   60.9038   51.9714 H   0  0  0  0  0  0  0  0  0  0  0  0
  -54.5341   60.6536   53.3425 H   0  0  0  0  0  0  0  0  0  0  0  0
  -53.0520   60.4157   54.2653 H   0  0  0  0  0  0  0  0  0  0  0  0
  -54.7324   58.7736   54.8769 H   0  0  0  0  0  0  0  0  0  0  0  0
  -53.3033   58.0365   54.0561 H   0  0  0  0  0  0  0  0  0  0  0  0
  -56.0068   58.3935   52.8610 H   0  0  0  0  0  0  0  0  0  0  0  0
  -55.3059   56.8910   53.4128 H   0  0  0  0  0  0  0  0  0  0  0  0
  -54.5963   57.7419   52.0617 H   0  0  0  0  0  0  0  0  0  0  0  0
  -31.9349   50.8138   60.8191 H   0  0  0  0  0  0  0  0  0  0  0  0
  -32.2398   52.4035   61.5009 H   0  0  0  0  0  0  0  0  0  0  0  0
  -30.0934   50.5827   62.0474 H   0  0  0  0  0  0  0  0  0  0  0  0
  -30.5494   52.1166   62.8511 H   0  0  0  0  0  0  0  0  0  0  0  0
  -28.8251   51.9619   60.4435 H   0  0  0  0  0  0  0  0  0  0  0  0
  -28.2370   52.0326   62.1151 H   0  0  0  0  0  0  0  0  0  0  0  0
  -28.2631   54.1909   60.8986 H   0  0  0  0  0  0  0  0  0  0  0  0
  -29.1856   54.0889   62.4632 H   0  0  0  0  0  0  0  0  0  0  0  0
  -30.0815   55.4765   60.4908 H   0  0  0  0  0  0  0  0  0  0  0  0
  -38.9685   59.1341   61.8665 H   0  0  0  0  0  0  0  0  0  0  0  0
  -38.9944   58.6901   63.5299 H   0  0  0  0  0  0  0  0  0  0  0  0
  -37.9398   61.0972   62.4118 H   0  0  0  0  0  0  0  0  0  0  0  0
  -43.8531   64.5873   63.9075 H   0  0  0  0  0  0  0  0  0  0  0  0
  -45.7865   63.1787   63.4874 H   0  0  0  0  0  0  0  0  0  0  0  0
  -45.4943   60.8250   62.9501 H   0  0  0  0  0  0  0  0  0  0  0  0
  -43.2513   59.8919   62.8497 H   0  0  0  0  0  0  0  0  0  0  0  0
  1  2  1  0  0  0  0
  1  5  1  0  0  0  0
  1  7  1  0  0  0  0
  2 18  2  0  0  0  0
  2 29  1  0  0  0  0
  3 21  2  0  0  0  0
  4  6  1  0  0  0  0
  4 59  1  0  0  0  0
  4 60  1  0  0  0  0
  4 61  1  0  0  0  0
  5 62  1  0  0  0  0
  6 14  1  0  0  0  0
  7 10  1  0  0  0  0
  7 63  1  0  0  0  0
  7 64  1  0  0  0  0
  8 27  1  0  0  0  0
  8 48  1  0  0  0  0
  8 65  1  0  0  0  0
  9 21  1  0  0  0  0
  9 23  1  0  0  0  0
 10 13  1  0  0  0  0
 10 66  1  0  0  0  0
 10 67  1  0  0  0  0
 11 19  1  0  0  0  0
 11 28  1  0  0  0  0
 11 68  1  0  0  0  0
 12 27  2  0  0  0  0
 13 16  2  0  0  0  0
 13 69  1  0  0  0  0
 14 44  1  0  0  0  0
 14 49  1  0  0  0  0
 15 28  2  0  0  0  0
 16 19  1  0  0  0  0
 16 70  1  0  0  0  0
 17 51  2  0  0  0  0
 17 52  1  0  0  0  0
 19 21  1  0  0  0  0
 19 71  1  1  0  0  0
 20 49  2  0  0  0  0
 22 50  1  0  0  0  0
 22 51  1  0  0  0  0
 23 25  1  0  0  0  0
 23 26  1  0  0  0  0
 23 72  1  6  0  0  0
 24 53  1  0  0  0  0
 24 73  1  0  0  0  0
 25 27  1  0  0  0  0
 25 74  1  0  0  0  0
 25 75  1  0  0  0  0
 26 76  1  0  0  0  0
 26 77  1  0  0  0  0
 26 78  1  0  0  0  0
 28 52  1  0  0  0  0
 29 30  1  0  0  0  0
 29 79  1  0  0  0  0
 29 80  1  0  0  0  0
 30 31  1  0  0  0  0
 30 81  1  0  0  0  0
 30 82  1  0  0  0  0
 31 32  1  0  0  0  0
 31 83  1  0  0  0  0
 31 84  1  0  0  0  0
 32 33  1  0  0  0  0
 32 85  1  0  0  0  0
 32 86  1  0  0  0  0
 33 34  1  0  0  0  0
 33 87  1  0  0  0  0
 33 88  1  0  0  0  0
 34 35  1  0  0  0  0
 34 89  1  0  0  0  0
 34 90  1  0  0  0  0
 35 36  1  0  0  0  0
 35 91  1  0  0  0  0
 35 92  1  0  0  0  0
 36 37  1  0  0  0  0
 36 93  1  0  0  0  0
 36 94  1  0  0  0  0
 37 38  1  0  0  0  0
 37 95  1  0  0  0  0
 37 96  1  0  0  0  0
 38 39  1  0  0  0  0
 38 97  1  0  0  0  0
 38 98  1  0  0  0  0
 39 40  1  0  0  0  0
 39 99  1  0  0  0  0
 39100  1  0  0  0  0
 40 41  1  0  0  0  0
 40101  1  0  0  0  0
 40102  1  0  0  0  0
 41 42  1  0  0  0  0
 41103  1  0  0  0  0
 41104  1  0  0  0  0
 42 43  1  0  0  0  0
 42105  1  0  0  0  0
 42106  1  0  0  0  0
 43107  1  0  0  0  0
 43108  1  0  0  0  0
 43109  1  0  0  0  0
 44 45  1  0  0  0  0
 44110  1  0  0  0  0
 44111  1  0  0  0  0
 45 46  1  0  0  0  0
 45112  1  0  0  0  0
 45113  1  0  0  0  0
 46 47  1  0  0  0  0
 46114  1  0  0  0  0
 46115  1  0  0  0  0
 47 48  1  0  0  0  0
 47116  1  0  0  0  0
 47117  1  0  0  0  0
 48 49  1  0  0  0  0
 48118  1  6  0  0  0
 50 52  1  0  0  0  0
 50119  1  0  0  0  0
 50120  1  0  0  0  0
 51 58  1  0  0  0  0
 52121  1  6  0  0  0
 53 54  2  0  0  0  0
 53 58  1  0  0  0  0
 54 55  1  0  0  0  0
 54122  1  0  0  0  0
 55 56  2  0  0  0  0
 55123  1  0  0  0  0
 56 57  1  0  0  0  0
 56124  1  0  0  0  0
 57 58  2  0  0  0  0
 57125  1  0  0  0  0
M  END
$$$$