/media/chris/experiments/cd1a-new-docking/inputs/ligands/1xz0_ligand.pdb
 OpenBabel07022319323D

125127  0  0  1  0  0  0  0  0999 V2000
  -38.7199   58.6964   57.8395 N   0  0  0  0  0  0  0  0  0  0  0  0
  -38.6237   58.6922   56.4836 C   0  0  0  0  0  0  0  0  0  0  0  0
  -34.8323   58.2135   62.5576 O   0  0  0  0  0  0  0  0  0  0  0  0
  -37.0164   51.6842   59.5046 Si  0  0  0  0  0  0  0  0  0  0  0  0
  -39.9171   59.1727   58.3922 O   0  0  0  0  0  0  0  0  0  0  0  0
  -36.9460   52.1582   61.2269 O   0  0  0  0  0  0  0  0  0  0  0  0
  -37.7348   58.2656   58.8364 C   0  0  0  0  0  0  0  0  0  0  0  0
  -34.5221   55.7714   62.1871 N   0  0  0  0  0  0  0  0  0  0  0  0
  -34.4223   58.1136   64.8296 O   0  0  0  0  0  0  0  0  0  0  0  0
  -37.9322   59.1139   60.1095 C   0  0  0  0  0  0  0  0  0  0  0  0
  -36.8950   59.8150   64.6310 N   0  0  0  0  0  0  0  0  0  0  0  0
  -33.1295   57.5048   61.7729 O   0  0  0  0  0  0  0  0  0  0  0  0
  -36.9889   58.8455   61.2943 C   0  0  0  0  0  0  0  0  0  0  0  0
  -36.4673   53.3814   61.5883 N   0  0  0  0  0  0  0  0  0  0  0  0
  -37.3593   61.1359   66.4234 O   0  0  0  0  0  0  0  0  0  0  0  0
  -37.6390   58.4030   62.6110 C   0  0  0  0  0  0  0  0  0  0  0  0
  -36.3796   57.9692   66.9399 N   0  0  0  0  0  0  0  0  0  0  0  0
  -39.5503   59.0904   55.7780 O   0  0  0  0  0  0  0  0  0  0  0  0
  -36.7890   58.5530   63.8960 C   0  0  1  0  0  0  0  0  0  0  0  0
  -34.7017   52.4090   62.5894 O   0  0  0  0  0  0  0  0  0  0  0  0
  -35.3080   58.3090   63.6770 C   0  0  0  0  0  0  0  0  0  0  0  0
  -37.9588   56.5175   66.3148 O   0  0  0  0  0  0  0  0  0  0  0  0
  -33.0239   57.8159   64.6579 C   0  0  1  0  0  0  0  0  0  0  0  0
  -37.1960   54.0018   67.3874 O   0  0  0  0  0  0  0  0  0  0  0  0
  -32.9027   56.5250   63.8622 C   0  0  0  0  0  0  0  0  0  0  0  0
  -32.2130   58.9352   64.0166 C   0  0  0  0  0  0  0  0  0  0  0  0
  -33.5230   56.6132   62.4897 C   0  0  0  0  0  0  0  0  0  0  0  0
  -37.2920   60.0330   65.8968 C   0  0  0  0  0  0  0  0  0  0  0  0
  -37.3366   58.1747   55.8329 C   0  0  0  0  0  0  0  0  0  0  0  0
  -37.5360   57.5293   54.4548 C   0  0  0  0  0  0  0  0  0  0  0  0
  -36.1859   57.0311   53.9041 C   0  0  0  0  0  0  0  0  0  0  0  0
  -36.2918   56.3822   52.5109 C   0  0  0  0  0  0  0  0  0  0  0  0
  -37.2268   55.1603   52.4419 C   0  0  0  0  0  0  0  0  0  0  0  0
  -38.6847   55.4982   52.8182 C   0  0  0  0  0  0  0  0  0  0  0  0
  -39.6535   54.2934   52.7780 C   0  0  0  0  0  0  0  0  0  0  0  0
  -39.7399   53.6260   51.4005 C   0  0  0  0  0  0  0  0  0  0  0  0
  -40.7012   52.4368   51.3075 C   0  0  0  0  0  0  0  0  0  0  0  0
  -40.3099   51.3205   52.2930 C   0  0  0  0  0  0  0  0  0  0  0  0
  -41.2275   50.0898   52.2361 C   0  0  0  0  0  0  0  0  0  0  0  0
  -40.8860   48.9592   53.2122 C   0  0  0  0  0  0  0  0  0  0  0  0
  -41.8223   47.7291   53.1133 C   0  0  0  0  0  0  0  0  0  0  0  0
  -41.4334   46.6395   54.1330 C   0  0  0  0  0  0  0  0  0  0  0  0
  -42.2684   45.3534   54.1355 C   0  0  0  0  0  0  0  0  0  0  0  0
  -37.1822   54.5583   61.0728 C   0  0  0  0  0  0  0  0  0  0  0  0
  -37.9021   55.3017   62.2138 C   0  0  0  0  0  0  0  0  0  0  0  0
  -37.5883   54.8009   63.6140 C   0  0  0  0  0  0  0  0  0  0  0  0
  -36.1412   55.0694   64.0354 C   0  0  0  0  0  0  0  0  0  0  0  0
  -35.0051   54.7008   63.0668 C   0  0  1  0  0  0  0  0  0  0  0  0
  -35.3798   53.4045   62.3754 C   0  0  0  0  0  0  0  0  0  0  0  0
  -38.6321   57.7757   66.3233 C   0  0  0  0  0  0  0  0  0  0  0  0
  -36.5861   56.7475   66.6902 C   0  0  0  0  0  0  0  0  0  0  0  0
  -37.5729   58.8203   66.7723 C   0  0  1  0  0  0  0  0  0  0  0  0
  -35.9234   54.3382   67.1442 C   0  0  0  0  0  0  0  0  0  0  0  0
  -34.9227   53.3602   67.2152 C   0  0  0  0  0  0  0  0  0  0  0  0
  -33.5784   53.6899   66.9736 C   0  0  0  0  0  0  0  0  0  0  0  0
  -33.2207   54.9995   66.6484 C   0  0  0  0  0  0  0  0  0  0  0  0
  -34.2162   55.9774   66.5701 C   0  0  0  0  0  0  0  0  0  0  0  0
  -35.5631   55.6519   66.8203 C   0  0  0  0  0  0  0  0  0  0  0  0
  -37.5499   50.3727   59.3961 H   0  0  0  0  0  0  0  0  0  0  0  0
  -35.7083   51.7102   58.9527 H   0  0  0  0  0  0  0  0  0  0  0  0
  -37.8468   52.5931   58.7970 H   0  0  0  0  0  0  0  0  0  0  0  0
  -40.5190   59.4386   57.6794 H   0  0  0  0  0  0  0  0  0  0  0  0
  -36.7460   58.4110   58.4543 H   0  0  0  0  0  0  0  0  0  0  0  0
  -37.8665   57.2277   59.0606 H   0  0  0  0  0  0  0  0  0  0  0  0
  -34.9624   55.8792   61.3133 H   0  0  0  0  0  0  0  0  0  0  0  0
  -38.9324   58.9496   60.4524 H   0  0  0  0  0  0  0  0  0  0  0  0
  -37.7114   60.1161   59.8066 H   0  0  0  0  0  0  0  0  0  0  0  0
  -36.6386   60.6199   64.1253 H   0  0  0  0  0  0  0  0  0  0  0  0
  -35.9667   58.9578   61.2074 H   0  0  0  0  0  0  0  0  0  0  0  0
  -38.5981   58.0231   62.6390 H   0  0  0  0  0  0  0  0  0  0  0  0
  -37.2383   57.7881   64.4943 H   0  0  0  0  0  0  0  0  0  0  0  0
  -32.5988   57.7062   65.6337 H   0  0  0  0  0  0  0  0  0  0  0  0
  -37.4135   53.1161   67.6024 H   0  0  0  0  0  0  0  0  0  0  0  0
  -33.3900   55.7430   64.4062 H   0  0  0  0  0  0  0  0  0  0  0  0
  -31.8591   56.3306   63.7279 H   0  0  0  0  0  0  0  0  0  0  0  0
  -32.5741   59.1145   63.0255 H   0  0  0  0  0  0  0  0  0  0  0  0
  -31.1825   58.6501   63.9746 H   0  0  0  0  0  0  0  0  0  0  0  0
  -32.3129   59.8270   64.5994 H   0  0  0  0  0  0  0  0  0  0  0  0
  -36.9027   57.4450   56.4842 H   0  0  0  0  0  0  0  0  0  0  0  0
  -36.7075   59.0270   55.6820 H   0  0  0  0  0  0  0  0  0  0  0  0
  -37.9480   58.2519   53.7817 H   0  0  0  0  0  0  0  0  0  0  0  0
  -38.2038   56.6987   54.5500 H   0  0  0  0  0  0  0  0  0  0  0  0
  -35.7886   56.3078   54.5852 H   0  0  0  0  0  0  0  0  0  0  0  0
  -35.5516   57.8871   53.8050 H   0  0  0  0  0  0  0  0  0  0  0  0
  -35.3126   56.0704   52.2128 H   0  0  0  0  0  0  0  0  0  0  0  0
  -36.7121   57.1226   51.8628 H   0  0  0  0  0  0  0  0  0  0  0  0
  -36.8639   54.4141   53.1174 H   0  0  0  0  0  0  0  0  0  0  0  0
  -37.2284   54.8139   51.4295 H   0  0  0  0  0  0  0  0  0  0  0  0
  -39.0434   56.2384   52.1339 H   0  0  0  0  0  0  0  0  0  0  0  0
  -38.6658   55.8395   53.8321 H   0  0  0  0  0  0  0  0  0  0  0  0
  -40.6301   54.6345   53.0512 H   0  0  0  0  0  0  0  0  0  0  0  0
  -39.2747   53.5612   53.4600 H   0  0  0  0  0  0  0  0  0  0  0  0
  -38.7615   53.2812   51.1385 H   0  0  0  0  0  0  0  0  0  0  0  0
  -40.1252   54.3701   50.7352 H   0  0  0  0  0  0  0  0  0  0  0  0
  -40.6768   52.0463   50.3116 H   0  0  0  0  0  0  0  0  0  0  0  0
  -41.6842   52.7776   51.5573 H   0  0  0  0  0  0  0  0  0  0  0  0
  -40.3433   51.7201   53.2851 H   0  0  0  0  0  0  0  0  0  0  0  0
  -39.3305   50.9907   52.0157 H   0  0  0  0  0  0  0  0  0  0  0  0
  -41.1823   49.6920   51.2438 H   0  0  0  0  0  0  0  0  0  0  0  0
  -42.1985   50.4372   52.5212 H   0  0  0  0  0  0  0  0  0  0  0  0
  -40.9452   49.3465   54.2079 H   0  0  0  0  0  0  0  0  0  0  0  0
  -39.9042   48.6191   52.9567 H   0  0  0  0  0  0  0  0  0  0  0  0
  -41.7571   47.3209   52.1264 H   0  0  0  0  0  0  0  0  0  0  0  0
  -42.8206   48.0488   53.3279 H   0  0  0  0  0  0  0  0  0  0  0  0
  -41.5048   47.0717   55.1092 H   0  0  0  0  0  0  0  0  0  0  0  0
  -40.4504   46.3301   53.8452 H   0  0  0  0  0  0  0  0  0  0  0  0
  -43.2752   45.5823   54.4165 H   0  0  0  0  0  0  0  0  0  0  0  0
  -41.8519   44.6591   54.8351 H   0  0  0  0  0  0  0  0  0  0  0  0
  -42.2608   44.9212   53.1567 H   0  0  0  0  0  0  0  0  0  0  0  0
  -37.9043   54.2416   60.3495 H   0  0  0  0  0  0  0  0  0  0  0  0
  -36.4730   55.2219   60.6238 H   0  0  0  0  0  0  0  0  0  0  0  0
  -38.9563   55.2066   62.0571 H   0  0  0  0  0  0  0  0  0  0  0  0
  -37.5528   56.3124   62.1756 H   0  0  0  0  0  0  0  0  0  0  0  0
  -37.7624   53.7456   63.6455 H   0  0  0  0  0  0  0  0  0  0  0  0
  -38.2229   55.3310   64.2930 H   0  0  0  0  0  0  0  0  0  0  0  0
  -35.9714   54.5246   64.9405 H   0  0  0  0  0  0  0  0  0  0  0  0
  -36.0861   56.1358   64.1037 H   0  0  0  0  0  0  0  0  0  0  0  0
  -34.1166   54.5463   63.6426 H   0  0  0  0  0  0  0  0  0  0  0  0
  -39.4506   57.7555   67.0121 H   0  0  0  0  0  0  0  0  0  0  0  0
  -39.0354   58.0128   65.3610 H   0  0  0  0  0  0  0  0  0  0  0  0
  -37.9316   59.3406   67.6358 H   0  0  0  0  0  0  0  0  0  0  0  0
  -35.1757   52.3871   67.4475 H   0  0  0  0  0  0  0  0  0  0  0  0
  -32.8515   52.9600   67.0368 H   0  0  0  0  0  0  0  0  0  0  0  0
  -32.2341   55.2424   66.4680 H   0  0  0  0  0  0  0  0  0  0  0  0
  -33.9616   56.9475   66.3266 H   0  0  0  0  0  0  0  0  0  0  0  0
  1  2  1  0  0  0  0
  1  5  1  0  0  0  0
  1  7  1  0  0  0  0
  2 18  2  0  0  0  0
  2 29  1  0  0  0  0
  3 21  2  0  0  0  0
  4  6  1  0  0  0  0
  4 59  1  0  0  0  0
  4 60  1  0  0  0  0
  4 61  1  0  0  0  0
  5 62  1  0  0  0  0
  6 14  1  0  0  0  0
  7 10  1  0  0  0  0
  7 63  1  0  0  0  0
  7 64  1  0  0  0  0
  8 27  1  0  0  0  0
  8 48  1  0  0  0  0
  8 65  1  0  0  0  0
  9 21  1  0  0  0  0
  9 23  1  0  0  0  0
 10 13  1  0  0  0  0
 10 66  1  0  0  0  0
 10 67  1  0  0  0  0
 11 19  1  0  0  0  0
 11 28  1  0  0  0  0
 11 68  1  0  0  0  0
 12 27  2  0  0  0  0
 13 16  2  0  0  0  0
 13 69  1  0  0  0  0
 14 44  1  0  0  0  0
 14 49  1  0  0  0  0
 15 28  2  0  0  0  0
 16 19  1  0  0  0  0
 16 70  1  0  0  0  0
 17 51  2  0  0  0  0
 17 52  1  0  0  0  0
 19 21  1  0  0  0  0
 19 71  1  1  0  0  0
 20 49  2  0  0  0  0
 22 50  1  0  0  0  0
 22 51  1  0  0  0  0
 23 25  1  0  0  0  0
 23 26  1  0  0  0  0
 23 72  1  1  0  0  0
 24 53  1  0  0  0  0
 24 73  1  0  0  0  0
 25 27  1  0  0  0  0
 25 74  1  0  0  0  0
 25 75  1  0  0  0  0
 26 76  1  0  0  0  0
 26 77  1  0  0  0  0
 26 78  1  0  0  0  0
 28 52  1  0  0  0  0
 29 30  1  0  0  0  0
 29 79  1  0  0  0  0
 29 80  1  0  0  0  0
 30 31  1  0  0  0  0
 30 81  1  0  0  0  0
 30 82  1  0  0  0  0
 31 32  1  0  0  0  0
 31 83  1  0  0  0  0
 31 84  1  0  0  0  0
 32 33  1  0  0  0  0
 32 85  1  0  0  0  0
 32 86  1  0  0  0  0
 33 34  1  0  0  0  0
 33 87  1  0  0  0  0
 33 88  1  0  0  0  0
 34 35  1  0  0  0  0
 34 89  1  0  0  0  0
 34 90  1  0  0  0  0
 35 36  1  0  0  0  0
 35 91  1  0  0  0  0
 35 92  1  0  0  0  0
 36 37  1  0  0  0  0
 36 93  1  0  0  0  0
 36 94  1  0  0  0  0
 37 38  1  0  0  0  0
 37 95  1  0  0  0  0
 37 96  1  0  0  0  0
 38 39  1  0  0  0  0
 38 97  1  0  0  0  0
 38 98  1  0  0  0  0
 39 40  1  0  0  0  0
 39 99  1  0  0  0  0
 39100  1  0  0  0  0
 40 41  1  0  0  0  0
 40101  1  0  0  0  0
 40102  1  0  0  0  0
 41 42  1  0  0  0  0
 41103  1  0  0  0  0
 41104  1  0  0  0  0
 42 43  1  0  0  0  0
 42105  1  0  0  0  0
 42106  1  0  0  0  0
 43107  1  0  0  0  0
 43108  1  0  0  0  0
 43109  1  0  0  0  0
 44 45  1  0  0  0  0
 44110  1  0  0  0  0
 44111  1  0  0  0  0
 45 46  1  0  0  0  0
 45112  1  0  0  0  0
 45113  1  0  0  0  0
 46 47  1  0  0  0  0
 46114  1  0  0  0  0
 46115  1  0  0  0  0
 47 48  1  0  0  0  0
 47116  1  0  0  0  0
 47117  1  0  0  0  0
 48 49  1  0  0  0  0
 48118  1  1  0  0  0
 50 52  1  0  0  0  0
 50119  1  0  0  0  0
 50120  1  0  0  0  0
 51 58  1  0  0  0  0
 52121  1  1  0  0  0
 53 54  2  0  0  0  0
 53 58  1  0  0  0  0
 54 55  1  0  0  0  0
 54122  1  0  0  0  0
 55 56  2  0  0  0  0
 55123  1  0  0  0  0
 56 57  1  0  0  0  0
 56124  1  0  0  0  0
 57 58  2  0  0  0  0
 57125  1  0  0  0  0
M  END
$$$$