/media/chris/experiments/cd1a-new-docking/inputs/ligands/1xz0_ligand.pdb
 OpenBabel07022319323D

125127  0  0  1  0  0  0  0  0999 V2000
  -36.3713   58.4855   58.3441 N   0  0  0  0  0  0  0  0  0  0  0  0
  -35.5591   57.6339   57.6639 C   0  0  0  0  0  0  0  0  0  0  0  0
  -34.7303   58.7191   62.6838 O   0  0  0  0  0  0  0  0  0  0  0  0
  -30.7958   51.8849   62.7164 Si  0  0  0  0  0  0  0  0  0  0  0  0
  -35.8627   59.7605   58.6290 O   0  0  0  0  0  0  0  0  0  0  0  0
  -30.3312   53.3054   61.7353 O   0  0  0  0  0  0  0  0  0  0  0  0
  -37.7348   58.2656   58.8364 C   0  0  0  0  0  0  0  0  0  0  0  0
  -33.3084   56.6087   61.4577 N   0  0  0  0  0  0  0  0  0  0  0  0
  -34.5507   57.5039   64.6410 O   0  0  0  0  0  0  0  0  0  0  0  0
  -37.9322   59.1139   60.1095 C   0  0  0  0  0  0  0  0  0  0  0  0
  -36.8950   59.8150   64.6310 N   0  0  0  0  0  0  0  0  0  0  0  0
  -32.6027   58.6481   62.1347 O   0  0  0  0  0  0  0  0  0  0  0  0
  -36.9889   58.8455   61.2943 C   0  0  0  0  0  0  0  0  0  0  0  0
  -31.2645   54.2277   61.3688 N   0  0  0  0  0  0  0  0  0  0  0  0
  -37.9248   61.7067   65.3617 O   0  0  0  0  0  0  0  0  0  0  0  0
  -37.6390   58.4030   62.6110 C   0  0  0  0  0  0  0  0  0  0  0  0
  -39.7804   58.9936   64.6904 N   0  0  0  0  0  0  0  0  0  0  0  0
  -35.9335   56.5007   57.3626 O   0  0  0  0  0  0  0  0  0  0  0  0
  -36.7890   58.5530   63.8960 C   0  0  1  0  0  0  0  0  0  0  0  0
  -32.3090   53.9755   63.3464 O   0  0  0  0  0  0  0  0  0  0  0  0
  -35.3080   58.3090   63.6770 C   0  0  0  0  0  0  0  0  0  0  0  0
  -39.8549   58.5826   62.4955 O   0  0  0  0  0  0  0  0  0  0  0  0
  -33.1344   57.6899   64.8237 C   0  0  1  0  0  0  0  0  0  0  0  0
  -41.7566   57.5636   66.1454 O   0  0  0  0  0  0  0  0  0  0  0  0
  -32.4066   56.9557   63.7076 C   0  0  0  0  0  0  0  0  0  0  0  0
  -32.6928   59.1461   64.9031 C   0  0  0  0  0  0  0  0  0  0  0  0
  -32.7608   57.4651   62.3323 C   0  0  0  0  0  0  0  0  0  0  0  0
  -37.9361   60.6601   64.7271 C   0  0  0  0  0  0  0  0  0  0  0  0
  -34.1524   58.1014   57.2759 C   0  0  0  0  0  0  0  0  0  0  0  0
  -33.0162   57.2514   57.8606 C   0  0  0  0  0  0  0  0  0  0  0  0
  -31.6522   57.8191   57.4229 C   0  0  0  0  0  0  0  0  0  0  0  0
  -30.4516   57.0128   57.9534 C   0  0  0  0  0  0  0  0  0  0  0  0
  -30.4097   55.5447   57.4897 C   0  0  0  0  0  0  0  0  0  0  0  0
  -30.3185   55.4021   55.9559 C   0  0  0  0  0  0  0  0  0  0  0  0
  -31.4916   56.0461   55.1807 C   0  0  0  0  0  0  0  0  0  0  0  0
  -31.3851   55.8752   53.6609 C   0  0  0  0  0  0  0  0  0  0  0  0
  -32.5172   56.5120   52.8487 C   0  0  0  0  0  0  0  0  0  0  0  0
  -33.8869   55.9303   53.2435 C   0  0  0  0  0  0  0  0  0  0  0  0
  -34.2581   56.1562   54.7169 C   0  0  0  0  0  0  0  0  0  0  0  0
  -35.6066   55.5790   55.1597 C   0  0  0  0  0  0  0  0  0  0  0  0
  -35.7221   54.0420   55.0054 C   0  0  0  0  0  0  0  0  0  0  0  0
  -37.1072   53.5318   55.4519 C   0  0  0  0  0  0  0  0  0  0  0  0
  -37.3567   52.0211   55.3685 C   0  0  0  0  0  0  0  0  0  0  0  0
  -31.0471   54.9295   60.0952 C   0  0  0  0  0  0  0  0  0  0  0  0
  -32.1012   54.5084   59.0540 C   0  0  0  0  0  0  0  0  0  0  0  0
  -33.2232   53.6313   59.5848 C   0  0  0  0  0  0  0  0  0  0  0  0
  -34.1422   54.3636   60.5662 C   0  0  0  0  0  0  0  0  0  0  0  0
  -33.5113   55.1772   61.7084 C   0  0  1  0  0  0  0  0  0  0  0  0
  -32.2953   54.4212   62.2071 C   0  0  0  0  0  0  0  0  0  0  0  0
  -39.3094   59.8985   62.5807 C   0  0  0  0  0  0  0  0  0  0  0  0
  -40.0924   58.1141   63.8379 C   0  0  0  0  0  0  0  0  0  0  0  0
  -39.2550   60.2376   64.0962 C   0  0  1  0  0  0  0  0  0  0  0  0
  -41.5028   56.5728   65.2820 C   0  0  0  0  0  0  0  0  0  0  0  0
  -42.0558   55.3043   65.5011 C   0  0  0  0  0  0  0  0  0  0  0  0
  -41.7968   54.2453   64.6148 C   0  0  0  0  0  0  0  0  0  0  0  0
  -40.9896   54.4454   63.4935 C   0  0  0  0  0  0  0  0  0  0  0  0
  -40.4406   55.7106   63.2670 C   0  0  0  0  0  0  0  0  0  0  0  0
  -40.6914   56.7716   64.1583 C   0  0  0  0  0  0  0  0  0  0  0  0
  -29.6495   51.0835   62.9614 H   0  0  0  0  0  0  0  0  0  0  0  0
  -31.7658   51.1216   62.0143 H   0  0  0  0  0  0  0  0  0  0  0  0
  -31.3412   52.3215   63.9526 H   0  0  0  0  0  0  0  0  0  0  0  0
  -34.9622   59.8356   58.2764 H   0  0  0  0  0  0  0  0  0  0  0  0
  -37.8739   57.2299   59.0664 H   0  0  0  0  0  0  0  0  0  0  0  0
  -38.4468   58.5496   58.0899 H   0  0  0  0  0  0  0  0  0  0  0  0
  -33.5944   56.9656   60.5858 H   0  0  0  0  0  0  0  0  0  0  0  0
  -38.9324   58.9496   60.4524 H   0  0  0  0  0  0  0  0  0  0  0  0
  -37.7114   60.1161   59.8066 H   0  0  0  0  0  0  0  0  0  0  0  0
  -36.0875   60.0833   65.1262 H   0  0  0  0  0  0  0  0  0  0  0  0
  -35.9667   58.9578   61.2074 H   0  0  0  0  0  0  0  0  0  0  0  0
  -38.5981   58.0231   62.6390 H   0  0  0  0  0  0  0  0  0  0  0  0
  -37.2383   57.7881   64.4943 H   0  0  0  0  0  0  0  0  0  0  0  0
  -32.8798   57.2831   65.7800 H   0  0  0  0  0  0  0  0  0  0  0  0
  -42.3027   57.4073   66.8906 H   0  0  0  0  0  0  0  0  0  0  0  0
  -32.6599   55.9176   63.7616 H   0  0  0  0  0  0  0  0  0  0  0  0
  -31.3588   57.1212   63.8482 H   0  0  0  0  0  0  0  0  0  0  0  0
  -32.9119   59.6363   63.9776 H   0  0  0  0  0  0  0  0  0  0  0  0
  -31.6400   59.1898   65.0893 H   0  0  0  0  0  0  0  0  0  0  0  0
  -33.2162   59.6346   65.6982 H   0  0  0  0  0  0  0  0  0  0  0  0
  -34.0280   59.1073   57.6188 H   0  0  0  0  0  0  0  0  0  0  0  0
  -34.0840   58.0110   56.2119 H   0  0  0  0  0  0  0  0  0  0  0  0
  -33.1100   56.2451   57.5094 H   0  0  0  0  0  0  0  0  0  0  0  0
  -33.0776   57.2710   58.9287 H   0  0  0  0  0  0  0  0  0  0  0  0
  -31.5718   58.8232   57.7838 H   0  0  0  0  0  0  0  0  0  0  0  0
  -31.6184   57.7676   56.3546 H   0  0  0  0  0  0  0  0  0  0  0  0
  -30.4883   57.0241   59.0227 H   0  0  0  0  0  0  0  0  0  0  0  0
  -29.5740   57.4806   57.5585 H   0  0  0  0  0  0  0  0  0  0  0  0
  -31.2997   55.0550   57.8259 H   0  0  0  0  0  0  0  0  0  0  0  0
  -29.5297   55.1012   57.9065 H   0  0  0  0  0  0  0  0  0  0  0  0
  -30.2935   54.3591   55.7183 H   0  0  0  0  0  0  0  0  0  0  0  0
  -29.4330   55.9215   55.6543 H   0  0  0  0  0  0  0  0  0  0  0  0
  -31.5113   57.0924   55.4036 H   0  0  0  0  0  0  0  0  0  0  0  0
  -32.3863   55.5486   55.4921 H   0  0  0  0  0  0  0  0  0  0  0  0
  -31.3737   54.8270   53.4463 H   0  0  0  0  0  0  0  0  0  0  0  0
  -30.4898   56.3829   53.3685 H   0  0  0  0  0  0  0  0  0  0  0  0
  -32.3467   56.3266   51.8088 H   0  0  0  0  0  0  0  0  0  0  0  0
  -32.5266   57.5628   53.0501 H   0  0  0  0  0  0  0  0  0  0  0  0
  -33.8716   54.8766   53.0577 H   0  0  0  0  0  0  0  0  0  0  0  0
  -34.6218   56.4404   52.6564 H   0  0  0  0  0  0  0  0  0  0  0  0
  -34.2789   57.2115   54.8924 H   0  0  0  0  0  0  0  0  0  0  0  0
  -33.5172   55.6354   55.2869 H   0  0  0  0  0  0  0  0  0  0  0  0
  -36.3756   56.0339   54.5711 H   0  0  0  0  0  0  0  0  0  0  0  0
  -35.7031   55.7909   56.2041 H   0  0  0  0  0  0  0  0  0  0  0  0
  -34.9694   53.5747   55.6055 H   0  0  0  0  0  0  0  0  0  0  0  0
  -35.5913   53.7975   53.9720 H   0  0  0  0  0  0  0  0  0  0  0  0
  -37.8406   54.0136   54.8396 H   0  0  0  0  0  0  0  0  0  0  0  0
  -37.1642   53.7640   56.4948 H   0  0  0  0  0  0  0  0  0  0  0  0
  -37.3153   51.7086   54.3460 H   0  0  0  0  0  0  0  0  0  0  0  0
  -38.3222   51.7963   55.7713 H   0  0  0  0  0  0  0  0  0  0  0  0
  -36.6068   51.5042   55.9300 H   0  0  0  0  0  0  0  0  0  0  0  0
  -30.0723   54.6903   59.7245 H   0  0  0  0  0  0  0  0  0  0  0  0
  -31.1322   55.9826   60.2641 H   0  0  0  0  0  0  0  0  0  0  0  0
  -31.6011   53.9706   58.2759 H   0  0  0  0  0  0  0  0  0  0  0  0
  -32.5652   55.4128   58.7198 H   0  0  0  0  0  0  0  0  0  0  0  0
  -32.7907   52.7904   60.0855 H   0  0  0  0  0  0  0  0  0  0  0  0
  -33.8203   53.3344   58.7481 H   0  0  0  0  0  0  0  0  0  0  0  0
  -34.7722   53.6255   61.0170 H   0  0  0  0  0  0  0  0  0  0  0  0
  -34.6288   55.1009   59.9625 H   0  0  0  0  0  0  0  0  0  0  0  0
  -34.2283   55.2478   62.4995 H   0  0  0  0  0  0  0  0  0  0  0  0
  -39.9364   60.5958   62.0653 H   0  0  0  0  0  0  0  0  0  0  0  0
  -38.3404   59.9528   62.1302 H   0  0  0  0  0  0  0  0  0  0  0  0
  -39.8019   61.1391   64.2779 H   0  0  0  0  0  0  0  0  0  0  0  0
  -42.6601   55.1461   66.3226 H   0  0  0  0  0  0  0  0  0  0  0  0
  -42.2053   53.3147   64.7936 H   0  0  0  0  0  0  0  0  0  0  0  0
  -40.8007   53.6691   62.8403 H   0  0  0  0  0  0  0  0  0  0  0  0
  -39.8458   55.8688   62.4387 H   0  0  0  0  0  0  0  0  0  0  0  0
  1  2  1  0  0  0  0
  1  5  1  0  0  0  0
  1  7  1  0  0  0  0
  2 18  2  0  0  0  0
  2 29  1  0  0  0  0
  3 21  2  0  0  0  0
  4  6  1  0  0  0  0
  4 59  1  0  0  0  0
  4 60  1  0  0  0  0
  4 61  1  0  0  0  0
  5 62  1  0  0  0  0
  6 14  1  0  0  0  0
  7 10  1  0  0  0  0
  7 63  1  0  0  0  0
  7 64  1  0  0  0  0
  8 27  1  0  0  0  0
  8 48  1  0  0  0  0
  8 65  1  0  0  0  0
  9 21  1  0  0  0  0
  9 23  1  0  0  0  0
 10 13  1  0  0  0  0
 10 66  1  0  0  0  0
 10 67  1  0  0  0  0
 11 19  1  0  0  0  0
 11 28  1  0  0  0  0
 11 68  1  0  0  0  0
 12 27  2  0  0  0  0
 13 16  2  0  0  0  0
 13 69  1  0  0  0  0
 14 44  1  0  0  0  0
 14 49  1  0  0  0  0
 15 28  2  0  0  0  0
 16 19  1  0  0  0  0
 16 70  1  0  0  0  0
 17 51  2  0  0  0  0
 17 52  1  0  0  0  0
 19 21  1  0  0  0  0
 19 71  1  1  0  0  0
 20 49  2  0  0  0  0
 22 50  1  0  0  0  0
 22 51  1  0  0  0  0
 23 25  1  0  0  0  0
 23 26  1  0  0  0  0
 23 72  1  1  0  0  0
 24 53  1  0  0  0  0
 24 73  1  0  0  0  0
 25 27  1  0  0  0  0
 25 74  1  0  0  0  0
 25 75  1  0  0  0  0
 26 76  1  0  0  0  0
 26 77  1  0  0  0  0
 26 78  1  0  0  0  0
 28 52  1  0  0  0  0
 29 30  1  0  0  0  0
 29 79  1  0  0  0  0
 29 80  1  0  0  0  0
 30 31  1  0  0  0  0
 30 81  1  0  0  0  0
 30 82  1  0  0  0  0
 31 32  1  0  0  0  0
 31 83  1  0  0  0  0
 31 84  1  0  0  0  0
 32 33  1  0  0  0  0
 32 85  1  0  0  0  0
 32 86  1  0  0  0  0
 33 34  1  0  0  0  0
 33 87  1  0  0  0  0
 33 88  1  0  0  0  0
 34 35  1  0  0  0  0
 34 89  1  0  0  0  0
 34 90  1  0  0  0  0
 35 36  1  0  0  0  0
 35 91  1  0  0  0  0
 35 92  1  0  0  0  0
 36 37  1  0  0  0  0
 36 93  1  0  0  0  0
 36 94  1  0  0  0  0
 37 38  1  0  0  0  0
 37 95  1  0  0  0  0
 37 96  1  0  0  0  0
 38 39  1  0  0  0  0
 38 97  1  0  0  0  0
 38 98  1  0  0  0  0
 39 40  1  0  0  0  0
 39 99  1  0  0  0  0
 39100  1  0  0  0  0
 40 41  1  0  0  0  0
 40101  1  0  0  0  0
 40102  1  0  0  0  0
 41 42  1  0  0  0  0
 41103  1  0  0  0  0
 41104  1  0  0  0  0
 42 43  1  0  0  0  0
 42105  1  0  0  0  0
 42106  1  0  0  0  0
 43107  1  0  0  0  0
 43108  1  0  0  0  0
 43109  1  0  0  0  0
 44 45  1  0  0  0  0
 44110  1  0  0  0  0
 44111  1  0  0  0  0
 45 46  1  0  0  0  0
 45112  1  0  0  0  0
 45113  1  0  0  0  0
 46 47  1  0  0  0  0
 46114  1  0  0  0  0
 46115  1  0  0  0  0
 47 48  1  0  0  0  0
 47116  1  0  0  0  0
 47117  1  0  0  0  0
 48 49  1  0  0  0  0
 48118  1  1  0  0  0
 50 52  1  0  0  0  0
 50119  1  0  0  0  0
 50120  1  0  0  0  0
 51 58  1  0  0  0  0
 52121  1  1  0  0  0
 53 54  2  0  0  0  0
 53 58  1  0  0  0  0
 54 55  1  0  0  0  0
 54122  1  0  0  0  0
 55 56  2  0  0  0  0
 55123  1  0  0  0  0
 56 57  1  0  0  0  0
 56124  1  0  0  0  0
 57 58  2  0  0  0  0
 57125  1  0  0  0  0
M  END
$$$$