/media/chris/experiments/cd1a-new-docking/inputs/ligands/1xz0_ligand.pdb
 OpenBabel07022319323D

125127  0  0  1  0  0  0  0  0999 V2000
  -38.2349   61.2640   59.2525 N   0  0  0  0  0  0  0  0  0  0  0  0
  -38.3144   62.1542   58.2283 C   0  0  0  0  0  0  0  0  0  0  0  0
  -34.4677   58.7167   64.4620 O   0  0  0  0  0  0  0  0  0  0  0  0
  -39.6077   50.1936   64.1583 Si  0  0  0  0  0  0  0  0  0  0  0  0
  -37.5169   61.6622   60.3889 O   0  0  0  0  0  0  0  0  0  0  0  0
  -37.9372   50.4306   64.7493 O   0  0  0  0  0  0  0  0  0  0  0  0
  -38.8026   59.9157   59.3501 C   0  0  0  0  0  0  0  0  0  0  0  0
  -35.6603   53.8407   63.0056 N   0  0  0  0  0  0  0  0  0  0  0  0
  -34.8529   57.6257   62.4617 O   0  0  0  0  0  0  0  0  0  0  0  0
  -39.1167   59.6292   60.8329 C   0  0  0  0  0  0  0  0  0  0  0  0
  -36.8950   59.8150   64.6310 N   0  0  0  0  0  0  0  0  0  0  0  0
  -35.0530   54.9623   61.1378 O   0  0  0  0  0  0  0  0  0  0  0  0
  -37.9469   59.6864   61.8299 C   0  0  0  0  0  0  0  0  0  0  0  0
  -37.0812   51.2594   64.0887 N   0  0  0  0  0  0  0  0  0  0  0  0
  -37.6467   59.1566   66.6741 O   0  0  0  0  0  0  0  0  0  0  0  0
  -37.6390   58.4030   62.6110 C   0  0  0  0  0  0  0  0  0  0  0  0
  -38.4016   62.2337   65.5712 N   0  0  0  0  0  0  0  0  0  0  0  0
  -38.9367   61.8883   57.2001 O   0  0  0  0  0  0  0  0  0  0  0  0
  -36.7890   58.5530   63.8960 C   0  0  1  0  0  0  0  0  0  0  0  0
  -38.7795   52.6592   63.6176 O   0  0  0  0  0  0  0  0  0  0  0  0
  -35.3080   58.3090   63.6770 C   0  0  0  0  0  0  0  0  0  0  0  0
  -36.5957   63.5487   65.5313 O   0  0  0  0  0  0  0  0  0  0  0  0
  -33.6205   56.8810   62.4377 C   0  0  1  0  0  0  0  0  0  0  0  0
  -40.7326   62.9739   64.3565 O   0  0  0  0  0  0  0  0  0  0  0  0
  -33.8739   55.5146   63.0565 C   0  0  0  0  0  0  0  0  0  0  0  0
  -32.9869   56.7509   61.0581 C   0  0  0  0  0  0  0  0  0  0  0  0
  -34.9094   54.7086   62.3119 C   0  0  0  0  0  0  0  0  0  0  0  0
  -37.2920   60.0330   65.8968 C   0  0  0  0  0  0  0  0  0  0  0  0
  -37.6079   63.5070   58.3647 C   0  0  0  0  0  0  0  0  0  0  0  0
  -36.1625   63.5241   57.8490 C   0  0  0  0  0  0  0  0  0  0  0  0
  -35.5459   64.9218   58.0504 C   0  0  0  0  0  0  0  0  0  0  0  0
  -34.0959   65.0334   57.5424 C   0  0  0  0  0  0  0  0  0  0  0  0
  -33.4492   66.4161   57.7471 C   0  0  0  0  0  0  0  0  0  0  0  0
  -34.2201   67.5500   57.0392 C   0  0  0  0  0  0  0  0  0  0  0  0
  -35.6785   67.7323   57.5205 C   0  0  0  0  0  0  0  0  0  0  0  0
  -36.4264   68.8532   56.7895 C   0  0  0  0  0  0  0  0  0  0  0  0
  -37.8711   69.0826   57.2446 C   0  0  0  0  0  0  0  0  0  0  0  0
  -38.5396   70.2131   56.4412 C   0  0  0  0  0  0  0  0  0  0  0  0
  -38.6205   69.9404   54.9316 C   0  0  0  0  0  0  0  0  0  0  0  0
  -39.4226   68.7011   54.5211 C   0  0  0  0  0  0  0  0  0  0  0  0
  -39.4672   68.4496   52.9932 C   0  0  0  0  0  0  0  0  0  0  0  0
  -40.3032   67.1999   52.6504 C   0  0  0  0  0  0  0  0  0  0  0  0
  -40.4197   66.8206   51.1692 C   0  0  0  0  0  0  0  0  0  0  0  0
  -35.6500   50.9279   64.1480 C   0  0  0  0  0  0  0  0  0  0  0  0
  -35.1373   50.4767   62.7673 C   0  0  0  0  0  0  0  0  0  0  0  0
  -36.1253   50.6384   61.6238 C   0  0  0  0  0  0  0  0  0  0  0  0
  -36.4261   52.1031   61.2953 C   0  0  0  0  0  0  0  0  0  0  0  0
  -36.7724   53.0657   62.4434 C   0  0  1  0  0  0  0  0  0  0  0  0
  -37.6188   52.3109   63.4497 C   0  0  0  0  0  0  0  0  0  0  0  0
  -36.1797   62.4160   66.2933 C   0  0  0  0  0  0  0  0  0  0  0  0
  -37.9615   63.3312   65.1248 C   0  0  0  0  0  0  0  0  0  0  0  0
  -37.4151   61.4760   66.3644 C   0  0  1  0  0  0  0  0  0  0  0  0
  -40.1039   64.0999   63.9982 C   0  0  0  0  0  0  0  0  0  0  0  0
  -40.7978   65.0819   63.2790 C   0  0  0  0  0  0  0  0  0  0  0  0
  -40.1577   66.2684   62.8829 C   0  0  0  0  0  0  0  0  0  0  0  0
  -38.8191   66.4908   63.2103 C   0  0  0  0  0  0  0  0  0  0  0  0
  -38.1243   65.5170   63.9332 C   0  0  0  0  0  0  0  0  0  0  0  0
  -38.7605   64.3232   64.3239 C   0  0  0  0  0  0  0  0  0  0  0  0
  -40.2894   49.2902   65.0159 H   0  0  0  0  0  0  0  0  0  0  0  0
  -39.5731   49.6620   62.8420 H   0  0  0  0  0  0  0  0  0  0  0  0
  -40.2874   51.4403   64.1476 H   0  0  0  0  0  0  0  0  0  0  0  0
  -37.1718   62.5589   60.2555 H   0  0  0  0  0  0  0  0  0  0  0  0
  -38.0974   59.1988   58.9845 H   0  0  0  0  0  0  0  0  0  0  0  0
  -39.6954   59.8480   58.7642 H   0  0  0  0  0  0  0  0  0  0  0  0
  -35.4507   53.7145   63.9592 H   0  0  0  0  0  0  0  0  0  0  0  0
  -39.5368   58.6466   60.8876 H   0  0  0  0  0  0  0  0  0  0  0  0
  -39.7690   60.4229   61.1319 H   0  0  0  0  0  0  0  0  0  0  0  0
  -36.6386   60.6199   64.1253 H   0  0  0  0  0  0  0  0  0  0  0  0
  -37.3952   60.5477   61.9667 H   0  0  0  0  0  0  0  0  0  0  0  0
  -37.9824   57.4826   62.2948 H   0  0  0  0  0  0  0  0  0  0  0  0
  -37.2383   57.7881   64.4943 H   0  0  0  0  0  0  0  0  0  0  0  0
  -32.9029   57.4331   63.0080 H   0  0  0  0  0  0  0  0  0  0  0  0
  -41.6322   62.8463   64.1274 H   0  0  0  0  0  0  0  0  0  0  0  0
  -34.2101   55.6538   64.0627 H   0  0  0  0  0  0  0  0  0  0  0  0
  -32.9541   54.9696   63.0122 H   0  0  0  0  0  0  0  0  0  0  0  0
  -33.6442   56.2052   60.4138 H   0  0  0  0  0  0  0  0  0  0  0  0
  -32.0556   56.2306   61.1410 H   0  0  0  0  0  0  0  0  0  0  0  0
  -32.8159   57.7254   60.6508 H   0  0  0  0  0  0  0  0  0  0  0  0
  -37.5965   63.7753   59.4005 H   0  0  0  0  0  0  0  0  0  0  0  0
  -38.1555   64.1991   57.7596 H   0  0  0  0  0  0  0  0  0  0  0  0
  -36.1555   63.2809   56.8070 H   0  0  0  0  0  0  0  0  0  0  0  0
  -35.5872   62.8053   58.3941 H   0  0  0  0  0  0  0  0  0  0  0  0
  -35.5569   65.1492   59.0959 H   0  0  0  0  0  0  0  0  0  0  0  0
  -36.1332   65.6099   57.4790 H   0  0  0  0  0  0  0  0  0  0  0  0
  -34.0915   64.8147   56.4950 H   0  0  0  0  0  0  0  0  0  0  0  0
  -33.5187   64.3405   58.1183 H   0  0  0  0  0  0  0  0  0  0  0  0
  -32.4522   66.3875   57.3599 H   0  0  0  0  0  0  0  0  0  0  0  0
  -33.4628   66.6249   58.7965 H   0  0  0  0  0  0  0  0  0  0  0  0
  -34.2384   67.3376   55.9906 H   0  0  0  0  0  0  0  0  0  0  0  0
  -33.7067   68.4591   57.2732 H   0  0  0  0  0  0  0  0  0  0  0  0
  -35.6644   67.9599   58.5659 H   0  0  0  0  0  0  0  0  0  0  0  0
  -36.1960   66.8194   57.3116 H   0  0  0  0  0  0  0  0  0  0  0  0
  -36.4425   68.6142   55.7466 H   0  0  0  0  0  0  0  0  0  0  0  0
  -35.8987   69.7564   57.0147 H   0  0  0  0  0  0  0  0  0  0  0  0
  -37.8719   69.3450   58.2819 H   0  0  0  0  0  0  0  0  0  0  0  0
  -38.4232   68.1808   57.0809 H   0  0  0  0  0  0  0  0  0  0  0  0
  -37.9776   71.1112   56.5916 H   0  0  0  0  0  0  0  0  0  0  0  0
  -39.5456   70.2937   56.7966 H   0  0  0  0  0  0  0  0  0  0  0  0
  -37.6222   69.8218   54.5652 H   0  0  0  0  0  0  0  0  0  0  0  0
  -39.1409   70.7760   54.5123 H   0  0  0  0  0  0  0  0  0  0  0  0
  -40.4268   68.8207   54.8707 H   0  0  0  0  0  0  0  0  0  0  0  0
  -38.9290   67.8577   54.9568 H   0  0  0  0  0  0  0  0  0  0  0  0
  -38.4688   68.3092   52.6347 H   0  0  0  0  0  0  0  0  0  0  0  0
  -39.9237   69.2974   52.5265 H   0  0  0  0  0  0  0  0  0  0  0  0
  -41.2940   67.3639   53.0197 H   0  0  0  0  0  0  0  0  0  0  0  0
  -39.7797   66.3844   53.1041 H   0  0  0  0  0  0  0  0  0  0  0  0
  -40.9371   67.5949   50.6424 H   0  0  0  0  0  0  0  0  0  0  0  0
  -40.9622   65.9029   51.0777 H   0  0  0  0  0  0  0  0  0  0  0  0
  -39.4410   66.6993   50.7541 H   0  0  0  0  0  0  0  0  0  0  0  0
  -35.5017   50.1369   64.8533 H   0  0  0  0  0  0  0  0  0  0  0  0
  -35.1073   51.7998   64.4482 H   0  0  0  0  0  0  0  0  0  0  0  0
  -34.8751   49.4415   62.8340 H   0  0  0  0  0  0  0  0  0  0  0  0
  -34.3097   51.1142   62.5360 H   0  0  0  0  0  0  0  0  0  0  0  0
  -37.0408   50.1545   61.8933 H   0  0  0  0  0  0  0  0  0  0  0  0
  -35.6825   50.1998   60.7541 H   0  0  0  0  0  0  0  0  0  0  0  0
  -37.2554   52.1094   60.6191 H   0  0  0  0  0  0  0  0  0  0  0  0
  -35.4988   52.4779   60.9153 H   0  0  0  0  0  0  0  0  0  0  0  0
  -37.3471   53.8718   62.0373 H   0  0  0  0  0  0  0  0  0  0  0  0
  -35.8835   62.7169   67.2764 H   0  0  0  0  0  0  0  0  0  0  0  0
  -35.3391   61.9280   65.8460 H   0  0  0  0  0  0  0  0  0  0  0  0
  -37.6533   61.2801   67.3890 H   0  0  0  0  0  0  0  0  0  0  0  0
  -41.7899   64.9321   63.0374 H   0  0  0  0  0  0  0  0  0  0  0  0
  -40.6800   66.9791   62.3471 H   0  0  0  0  0  0  0  0  0  0  0  0
  -38.3485   67.3629   62.9224 H   0  0  0  0  0  0  0  0  0  0  0  0
  -37.1354   65.6745   64.1830 H   0  0  0  0  0  0  0  0  0  0  0  0
  1  2  1  0  0  0  0
  1  5  1  0  0  0  0
  1  7  1  0  0  0  0
  2 18  2  0  0  0  0
  2 29  1  0  0  0  0
  3 21  2  0  0  0  0
  4  6  1  0  0  0  0
  4 59  1  0  0  0  0
  4 60  1  0  0  0  0
  4 61  1  0  0  0  0
  5 62  1  0  0  0  0
  6 14  1  0  0  0  0
  7 10  1  0  0  0  0
  7 63  1  0  0  0  0
  7 64  1  0  0  0  0
  8 27  1  0  0  0  0
  8 48  1  0  0  0  0
  8 65  1  0  0  0  0
  9 21  1  0  0  0  0
  9 23  1  0  0  0  0
 10 13  1  0  0  0  0
 10 66  1  0  0  0  0
 10 67  1  0  0  0  0
 11 19  1  0  0  0  0
 11 28  1  0  0  0  0
 11 68  1  0  0  0  0
 12 27  2  0  0  0  0
 13 16  2  0  0  0  0
 13 69  1  0  0  0  0
 14 44  1  0  0  0  0
 14 49  1  0  0  0  0
 15 28  2  0  0  0  0
 16 19  1  0  0  0  0
 16 70  1  0  0  0  0
 17 51  2  0  0  0  0
 17 52  1  0  0  0  0
 19 21  1  0  0  0  0
 19 71  1  1  0  0  0
 20 49  2  0  0  0  0
 22 50  1  0  0  0  0
 22 51  1  0  0  0  0
 23 25  1  0  0  0  0
 23 26  1  0  0  0  0
 23 72  1  1  0  0  0
 24 53  1  0  0  0  0
 24 73  1  0  0  0  0
 25 27  1  0  0  0  0
 25 74  1  0  0  0  0
 25 75  1  0  0  0  0
 26 76  1  0  0  0  0
 26 77  1  0  0  0  0
 26 78  1  0  0  0  0
 28 52  1  0  0  0  0
 29 30  1  0  0  0  0
 29 79  1  0  0  0  0
 29 80  1  0  0  0  0
 30 31  1  0  0  0  0
 30 81  1  0  0  0  0
 30 82  1  0  0  0  0
 31 32  1  0  0  0  0
 31 83  1  0  0  0  0
 31 84  1  0  0  0  0
 32 33  1  0  0  0  0
 32 85  1  0  0  0  0
 32 86  1  0  0  0  0
 33 34  1  0  0  0  0
 33 87  1  0  0  0  0
 33 88  1  0  0  0  0
 34 35  1  0  0  0  0
 34 89  1  0  0  0  0
 34 90  1  0  0  0  0
 35 36  1  0  0  0  0
 35 91  1  0  0  0  0
 35 92  1  0  0  0  0
 36 37  1  0  0  0  0
 36 93  1  0  0  0  0
 36 94  1  0  0  0  0
 37 38  1  0  0  0  0
 37 95  1  0  0  0  0
 37 96  1  0  0  0  0
 38 39  1  0  0  0  0
 38 97  1  0  0  0  0
 38 98  1  0  0  0  0
 39 40  1  0  0  0  0
 39 99  1  0  0  0  0
 39100  1  0  0  0  0
 40 41  1  0  0  0  0
 40101  1  0  0  0  0
 40102  1  0  0  0  0
 41 42  1  0  0  0  0
 41103  1  0  0  0  0
 41104  1  0  0  0  0
 42 43  1  0  0  0  0
 42105  1  0  0  0  0
 42106  1  0  0  0  0
 43107  1  0  0  0  0
 43108  1  0  0  0  0
 43109  1  0  0  0  0
 44 45  1  0  0  0  0
 44110  1  0  0  0  0
 44111  1  0  0  0  0
 45 46  1  0  0  0  0
 45112  1  0  0  0  0
 45113  1  0  0  0  0
 46 47  1  0  0  0  0
 46114  1  0  0  0  0
 46115  1  0  0  0  0
 47 48  1  0  0  0  0
 47116  1  0  0  0  0
 47117  1  0  0  0  0
 48 49  1  0  0  0  0
 48118  1  6  0  0  0
 50 52  1  0  0  0  0
 50119  1  0  0  0  0
 50120  1  0  0  0  0
 51 58  1  0  0  0  0
 52121  1  1  0  0  0
 53 54  2  0  0  0  0
 53 58  1  0  0  0  0
 54 55  1  0  0  0  0
 54122  1  0  0  0  0
 55 56  2  0  0  0  0
 55123  1  0  0  0  0
 56 57  1  0  0  0  0
 56124  1  0  0  0  0
 57 58  2  0  0  0  0
 57125  1  0  0  0  0
M  END
$$$$