/media/chris/experiments/cd1a-new-docking/inputs/ligands/1xz0_ligand.pdb
 OpenBabel07022319323D

125127  0  0  1  0  0  0  0  0999 V2000
  -39.2135   60.9062   61.1554 N   0  0  0  0  0  0  0  0  0  0  0  0
  -39.3826   62.1281   61.7263 C   0  0  0  0  0  0  0  0  0  0  0  0
  -34.4624   59.0890   64.0833 O   0  0  0  0  0  0  0  0  0  0  0  0
  -30.6182   64.3448   61.1367 Si  0  0  0  0  0  0  0  0  0  0  0  0
  -39.8210   59.8152   61.7928 O   0  0  0  0  0  0  0  0  0  0  0  0
  -32.3310   63.8443   61.0282 O   0  0  0  0  0  0  0  0  0  0  0  0
  -38.4731   60.5487   59.9415 C   0  0  0  0  0  0  0  0  0  0  0  0
  -32.8156   60.0020   63.2314 N   0  0  0  0  0  0  0  0  0  0  0  0
  -34.8671   57.1453   62.9008 O   0  0  0  0  0  0  0  0  0  0  0  0
  -37.9322   59.1139   60.1095 C   0  0  0  0  0  0  0  0  0  0  0  0
  -36.8950   59.8150   64.6310 N   0  0  0  0  0  0  0  0  0  0  0  0
  -32.6078   58.5653   64.9659 O   0  0  0  0  0  0  0  0  0  0  0  0
  -36.9889   58.8455   61.2943 C   0  0  0  0  0  0  0  0  0  0  0  0
  -32.7679   62.7290   61.6772 N   0  0  0  0  0  0  0  0  0  0  0  0
  -37.9248   61.7067   65.3617 O   0  0  0  0  0  0  0  0  0  0  0  0
  -37.6390   58.4030   62.6110 C   0  0  0  0  0  0  0  0  0  0  0  0
  -40.4168   60.7962   64.8137 N   0  0  0  0  0  0  0  0  0  0  0  0
  -38.8934   63.1394   61.2234 O   0  0  0  0  0  0  0  0  0  0  0  0
  -36.7890   58.5530   63.8960 C   0  0  1  0  0  0  0  0  0  0  0  0
  -31.1662   61.5041   60.6774 O   0  0  0  0  0  0  0  0  0  0  0  0
  -35.3080   58.3090   63.6770 C   0  0  0  0  0  0  0  0  0  0  0  0
  -40.9053   58.6210   64.6657 O   0  0  0  0  0  0  0  0  0  0  0  0
  -33.5752   56.5467   63.1165 C   0  0  1  0  0  0  0  0  0  0  0  0
  -43.7379   58.4360   64.7265 O   0  0  0  0  0  0  0  0  0  0  0  0
  -32.5092   57.6012   62.8594 C   0  0  0  0  0  0  0  0  0  0  0  0
  -33.3957   55.9063   64.4873 C   0  0  0  0  0  0  0  0  0  0  0  0
  -32.6197   58.7931   63.7778 C   0  0  0  0  0  0  0  0  0  0  0  0
  -37.9361   60.6601   64.7271 C   0  0  0  0  0  0  0  0  0  0  0  0
  -40.1933   62.2357   63.0222 C   0  0  0  0  0  0  0  0  0  0  0  0
  -39.7586   63.3775   63.9510 C   0  0  0  0  0  0  0  0  0  0  0  0
  -40.6252   63.3814   65.2251 C   0  0  0  0  0  0  0  0  0  0  0  0
  -42.1300   63.5552   64.9449 C   0  0  0  0  0  0  0  0  0  0  0  0
  -42.7525   62.4473   64.0749 C   0  0  0  0  0  0  0  0  0  0  0  0
  -44.2555   62.6695   63.8048 C   0  0  0  0  0  0  0  0  0  0  0  0
  -44.9231   61.5687   62.9480 C   0  0  0  0  0  0  0  0  0  0  0  0
  -44.2875   61.4045   61.5627 C   0  0  0  0  0  0  0  0  0  0  0  0
  -44.9270   60.3359   60.6704 C   0  0  0  0  0  0  0  0  0  0  0  0
  -44.8672   58.9456   61.3292 C   0  0  0  0  0  0  0  0  0  0  0  0
  -45.4785   57.8249   60.4747 C   0  0  0  0  0  0  0  0  0  0  0  0
  -46.9548   58.0005   60.1040 C   0  0  0  0  0  0  0  0  0  0  0  0
  -47.9080   58.1045   61.3206 C   0  0  0  0  0  0  0  0  0  0  0  0
  -49.3764   58.2618   60.8762 C   0  0  0  0  0  0  0  0  0  0  0  0
  -50.4316   58.3936   61.9809 C   0  0  0  0  0  0  0  0  0  0  0  0
  -33.8276   62.9108   62.6801 C   0  0  0  0  0  0  0  0  0  0  0  0
  -35.1457   62.2729   62.2020 C   0  0  0  0  0  0  0  0  0  0  0  0
  -35.0442   61.4521   60.9270 C   0  0  0  0  0  0  0  0  0  0  0  0
  -34.2157   60.1765   61.1007 C   0  0  0  0  0  0  0  0  0  0  0  0
  -32.8437   60.2700   61.7890 C   0  0  1  0  0  0  0  0  0  0  0  0
  -32.1860   61.5639   61.3507 C   0  0  0  0  0  0  0  0  0  0  0  0
  -39.6305   58.7310   64.0338 C   0  0  0  0  0  0  0  0  0  0  0  0
  -41.2888   59.9341   65.1203 C   0  0  0  0  0  0  0  0  0  0  0  0
  -39.2550   60.2376   64.0962 C   0  0  1  0  0  0  0  0  0  0  0  0
  -43.7376   59.4555   65.5940 C   0  0  0  0  0  0  0  0  0  0  0  0
  -44.9075   59.7644   66.3002 C   0  0  0  0  0  0  0  0  0  0  0  0
  -44.9357   60.8354   67.2092 C   0  0  0  0  0  0  0  0  0  0  0  0
  -43.7911   61.6035   67.4299 C   0  0  0  0  0  0  0  0  0  0  0  0
  -42.6197   61.2954   66.7325 C   0  0  0  0  0  0  0  0  0  0  0  0
  -42.5909   60.2282   65.8144 C   0  0  0  0  0  0  0  0  0  0  0  0
  -30.4220   65.5285   60.3774 H   0  0  0  0  0  0  0  0  0  0  0  0
  -29.7898   63.3113   60.6249 H   0  0  0  0  0  0  0  0  0  0  0  0
  -30.2825   64.5920   62.4941 H   0  0  0  0  0  0  0  0  0  0  0  0
  -40.2906   60.1232   62.5837 H   0  0  0  0  0  0  0  0  0  0  0  0
  -37.6586   61.2283   59.8010 H   0  0  0  0  0  0  0  0  0  0  0  0
  -39.1159   60.6029   59.0878 H   0  0  0  0  0  0  0  0  0  0  0  0
  -32.9500   60.7633   63.8410 H   0  0  0  0  0  0  0  0  0  0  0  0
  -37.4017   58.8644   59.2144 H   0  0  0  0  0  0  0  0  0  0  0  0
  -38.7979   58.5177   60.3095 H   0  0  0  0  0  0  0  0  0  0  0  0
  -36.0875   60.0833   65.1262 H   0  0  0  0  0  0  0  0  0  0  0  0
  -35.9667   58.9578   61.2074 H   0  0  0  0  0  0  0  0  0  0  0  0
  -38.5981   58.0231   62.6390 H   0  0  0  0  0  0  0  0  0  0  0  0
  -37.2383   57.7881   64.4943 H   0  0  0  0  0  0  0  0  0  0  0  0
  -33.4822   55.7320   62.4291 H   0  0  0  0  0  0  0  0  0  0  0  0
  -44.5172   57.9327   64.5953 H   0  0  0  0  0  0  0  0  0  0  0  0
  -32.6030   57.9404   61.8489 H   0  0  0  0  0  0  0  0  0  0  0  0
  -31.5591   57.1447   63.0432 H   0  0  0  0  0  0  0  0  0  0  0  0
  -33.4745   56.6577   65.2451 H   0  0  0  0  0  0  0  0  0  0  0  0
  -32.4320   55.4445   64.5419 H   0  0  0  0  0  0  0  0  0  0  0  0
  -34.1545   55.1670   64.6378 H   0  0  0  0  0  0  0  0  0  0  0  0
  -40.0938   61.3139   63.5563 H   0  0  0  0  0  0  0  0  0  0  0  0
  -41.2023   62.4448   62.7338 H   0  0  0  0  0  0  0  0  0  0  0  0
  -39.8737   64.3115   63.4417 H   0  0  0  0  0  0  0  0  0  0  0  0
  -38.7339   63.2362   64.2244 H   0  0  0  0  0  0  0  0  0  0  0  0
  -40.3023   64.1864   65.8517 H   0  0  0  0  0  0  0  0  0  0  0  0
  -40.5006   62.4273   65.6931 H   0  0  0  0  0  0  0  0  0  0  0  0
  -42.2705   64.4907   64.4448 H   0  0  0  0  0  0  0  0  0  0  0  0
  -42.6224   63.5083   65.8936 H   0  0  0  0  0  0  0  0  0  0  0  0
  -42.6307   61.5101   64.5766 H   0  0  0  0  0  0  0  0  0  0  0  0
  -42.2509   62.4610   63.1298 H   0  0  0  0  0  0  0  0  0  0  0  0
  -44.3689   63.6038   63.2958 H   0  0  0  0  0  0  0  0  0  0  0  0
  -44.7418   62.6501   64.7577 H   0  0  0  0  0  0  0  0  0  0  0  0
  -45.9556   61.8186   62.8197 H   0  0  0  0  0  0  0  0  0  0  0  0
  -44.7921   60.6422   63.4670 H   0  0  0  0  0  0  0  0  0  0  0  0
  -43.2579   61.1474   61.7000 H   0  0  0  0  0  0  0  0  0  0  0  0
  -44.4334   62.3367   61.0582 H   0  0  0  0  0  0  0  0  0  0  0  0
  -44.4036   60.3021   59.7378 H   0  0  0  0  0  0  0  0  0  0  0  0
  -45.9545   60.5935   60.5197 H   0  0  0  0  0  0  0  0  0  0  0  0
  -45.3981   58.9895   62.2572 H   0  0  0  0  0  0  0  0  0  0  0  0
  -43.8320   58.7077   61.4589 H   0  0  0  0  0  0  0  0  0  0  0  0
  -45.3830   56.9082   61.0181 H   0  0  0  0  0  0  0  0  0  0  0  0
  -44.9422   57.8392   59.5489 H   0  0  0  0  0  0  0  0  0  0  0  0
  -47.2547   57.1597   59.5139 H   0  0  0  0  0  0  0  0  0  0  0  0
  -47.0303   58.9273   59.5746 H   0  0  0  0  0  0  0  0  0  0  0  0
  -47.6299   58.9541   61.9086 H   0  0  0  0  0  0  0  0  0  0  0  0
  -47.8245   57.2029   61.8907 H   0  0  0  0  0  0  0  0  0  0  0  0
  -49.6292   57.4031   60.2901 H   0  0  0  0  0  0  0  0  0  0  0  0
  -49.4079   59.1938   60.3515 H   0  0  0  0  0  0  0  0  0  0  0  0
  -50.4608   57.4916   62.5557 H   0  0  0  0  0  0  0  0  0  0  0  0
  -51.3908   58.5663   61.5392 H   0  0  0  0  0  0  0  0  0  0  0  0
  -50.1796   59.2150   62.6187 H   0  0  0  0  0  0  0  0  0  0  0  0
  -33.9823   63.9572   62.8418 H   0  0  0  0  0  0  0  0  0  0  0  0
  -33.5255   62.4350   63.5896 H   0  0  0  0  0  0  0  0  0  0  0  0
  -35.8517   63.0591   62.0339 H   0  0  0  0  0  0  0  0  0  0  0  0
  -35.4403   61.5900   62.9713 H   0  0  0  0  0  0  0  0  0  0  0  0
  -34.5881   62.0543   60.1693 H   0  0  0  0  0  0  0  0  0  0  0  0
  -36.0363   61.1550   60.6580 H   0  0  0  0  0  0  0  0  0  0  0  0
  -34.0499   59.7740   60.1232 H   0  0  0  0  0  0  0  0  0  0  0  0
  -34.7994   59.5788   61.7693 H   0  0  0  0  0  0  0  0  0  0  0  0
  -32.2495   59.4449   61.4558 H   0  0  0  0  0  0  0  0  0  0  0  0
  -39.6893   58.4036   63.0169 H   0  0  0  0  0  0  0  0  0  0  0  0
  -38.8967   58.1221   64.5193 H   0  0  0  0  0  0  0  0  0  0  0  0
  -39.0681   60.5980   63.1062 H   0  0  0  0  0  0  0  0  0  0  0  0
  -45.7580   59.1991   66.1510 H   0  0  0  0  0  0  0  0  0  0  0  0
  -45.8071   61.0553   67.7165 H   0  0  0  0  0  0  0  0  0  0  0  0
  -43.8097   62.3888   68.0993 H   0  0  0  0  0  0  0  0  0  0  0  0
  -41.7677   61.8554   66.8921 H   0  0  0  0  0  0  0  0  0  0  0  0
  1  2  1  0  0  0  0
  1  5  1  0  0  0  0
  1  7  1  0  0  0  0
  2 18  2  0  0  0  0
  2 29  1  0  0  0  0
  3 21  2  0  0  0  0
  4  6  1  0  0  0  0
  4 59  1  0  0  0  0
  4 60  1  0  0  0  0
  4 61  1  0  0  0  0
  5 62  1  0  0  0  0
  6 14  1  0  0  0  0
  7 10  1  0  0  0  0
  7 63  1  0  0  0  0
  7 64  1  0  0  0  0
  8 27  1  0  0  0  0
  8 48  1  0  0  0  0
  8 65  1  0  0  0  0
  9 21  1  0  0  0  0
  9 23  1  0  0  0  0
 10 13  1  0  0  0  0
 10 66  1  0  0  0  0
 10 67  1  0  0  0  0
 11 19  1  0  0  0  0
 11 28  1  0  0  0  0
 11 68  1  0  0  0  0
 12 27  2  0  0  0  0
 13 16  2  0  0  0  0
 13 69  1  0  0  0  0
 14 44  1  0  0  0  0
 14 49  1  0  0  0  0
 15 28  2  0  0  0  0
 16 19  1  0  0  0  0
 16 70  1  0  0  0  0
 17 51  2  0  0  0  0
 17 52  1  0  0  0  0
 19 21  1  0  0  0  0
 19 71  1  1  0  0  0
 20 49  2  0  0  0  0
 22 50  1  0  0  0  0
 22 51  1  0  0  0  0
 23 25  1  0  0  0  0
 23 26  1  0  0  0  0
 23 72  1  6  0  0  0
 24 53  1  0  0  0  0
 24 73  1  0  0  0  0
 25 27  1  0  0  0  0
 25 74  1  0  0  0  0
 25 75  1  0  0  0  0
 26 76  1  0  0  0  0
 26 77  1  0  0  0  0
 26 78  1  0  0  0  0
 28 52  1  0  0  0  0
 29 30  1  0  0  0  0
 29 79  1  0  0  0  0
 29 80  1  0  0  0  0
 30 31  1  0  0  0  0
 30 81  1  0  0  0  0
 30 82  1  0  0  0  0
 31 32  1  0  0  0  0
 31 83  1  0  0  0  0
 31 84  1  0  0  0  0
 32 33  1  0  0  0  0
 32 85  1  0  0  0  0
 32 86  1  0  0  0  0
 33 34  1  0  0  0  0
 33 87  1  0  0  0  0
 33 88  1  0  0  0  0
 34 35  1  0  0  0  0
 34 89  1  0  0  0  0
 34 90  1  0  0  0  0
 35 36  1  0  0  0  0
 35 91  1  0  0  0  0
 35 92  1  0  0  0  0
 36 37  1  0  0  0  0
 36 93  1  0  0  0  0
 36 94  1  0  0  0  0
 37 38  1  0  0  0  0
 37 95  1  0  0  0  0
 37 96  1  0  0  0  0
 38 39  1  0  0  0  0
 38 97  1  0  0  0  0
 38 98  1  0  0  0  0
 39 40  1  0  0  0  0
 39 99  1  0  0  0  0
 39100  1  0  0  0  0
 40 41  1  0  0  0  0
 40101  1  0  0  0  0
 40102  1  0  0  0  0
 41 42  1  0  0  0  0
 41103  1  0  0  0  0
 41104  1  0  0  0  0
 42 43  1  0  0  0  0
 42105  1  0  0  0  0
 42106  1  0  0  0  0
 43107  1  0  0  0  0
 43108  1  0  0  0  0
 43109  1  0  0  0  0
 44 45  1  0  0  0  0
 44110  1  0  0  0  0
 44111  1  0  0  0  0
 45 46  1  0  0  0  0
 45112  1  0  0  0  0
 45113  1  0  0  0  0
 46 47  1  0  0  0  0
 46114  1  0  0  0  0
 46115  1  0  0  0  0
 47 48  1  0  0  0  0
 47116  1  0  0  0  0
 47117  1  0  0  0  0
 48 49  1  0  0  0  0
 48118  1  6  0  0  0
 50 52  1  0  0  0  0
 50119  1  0  0  0  0
 50120  1  0  0  0  0
 51 58  1  0  0  0  0
 52121  1  6  0  0  0
 53 54  2  0  0  0  0
 53 58  1  0  0  0  0
 54 55  1  0  0  0  0
 54122  1  0  0  0  0
 55 56  2  0  0  0  0
 55123  1  0  0  0  0
 56 57  1  0  0  0  0
 56124  1  0  0  0  0
 57 58  2  0  0  0  0
 57125  1  0  0  0  0
M  END
$$$$