/media/chris/experiments/cd1a-new-docking/inputs/ligands/1xz0_ligand.pdb
 OpenBabel07022319323D

125127  0  0  1  0  0  0  0  0999 V2000
  -41.2006   59.9899   59.4601 N   0  0  0  0  0  0  0  0  0  0  0  0
  -41.1588   59.3797   58.2462 C   0  0  0  0  0  0  0  0  0  0  0  0
  -34.9015   57.3291   63.0745 O   0  0  0  0  0  0  0  0  0  0  0  0
  -26.9778   52.8840   66.9150 Si  0  0  0  0  0  0  0  0  0  0  0  0
  -42.4670   60.2094   60.0200 O   0  0  0  0  0  0  0  0  0  0  0  0
  -28.7273   53.2006   66.7287 O   0  0  0  0  0  0  0  0  0  0  0  0
  -40.0916   60.4644   60.2936 C   0  0  0  0  0  0  0  0  0  0  0  0
  -30.4182   57.2984   66.2791 N   0  0  0  0  0  0  0  0  0  0  0  0
  -34.3234   59.2293   64.2555 O   0  0  0  0  0  0  0  0  0  0  0  0
  -39.6678   59.3173   61.2339 C   0  0  0  0  0  0  0  0  0  0  0  0
  -36.8950   59.8150   64.6310 N   0  0  0  0  0  0  0  0  0  0  0  0
  -30.4877   57.6531   64.0465 O   0  0  0  0  0  0  0  0  0  0  0  0
  -38.5208   59.5953   62.2201 C   0  0  0  0  0  0  0  0  0  0  0  0
  -29.2227   54.4599   66.8862 N   0  0  0  0  0  0  0  0  0  0  0  0
  -35.4578   59.5184   66.3686 O   0  0  0  0  0  0  0  0  0  0  0  0
  -37.6390   58.4030   62.6110 C   0  0  0  0  0  0  0  0  0  0  0  0
  -38.0692   61.8794   66.0900 N   0  0  0  0  0  0  0  0  0  0  0  0
  -40.0871   59.1384   57.6911 O   0  0  0  0  0  0  0  0  0  0  0  0
  -36.7890   58.5530   63.8960 C   0  0  1  0  0  0  0  0  0  0  0  0
  -28.1023   55.1432   65.0577 O   0  0  0  0  0  0  0  0  0  0  0  0
  -35.3080   58.3090   63.6770 C   0  0  0  0  0  0  0  0  0  0  0  0
  -36.9691   63.7250   65.4772 O   0  0  0  0  0  0  0  0  0  0  0  0
  -32.9090   58.9936   64.1228 C   0  0  1  0  0  0  0  0  0  0  0  0
  -38.6471   65.0045   63.5251 O   0  0  0  0  0  0  0  0  0  0  0  0
  -32.4942   57.9664   65.1655 C   0  0  0  0  0  0  0  0  0  0  0  0
  -32.4665   58.5701   62.7276 C   0  0  0  0  0  0  0  0  0  0  0  0
  -31.0193   57.6500   65.1331 C   0  0  0  0  0  0  0  0  0  0  0  0
  -36.2648   60.2028   65.7534 C   0  0  0  0  0  0  0  0  0  0  0  0
  -42.4757   58.9955   57.5634 C   0  0  0  0  0  0  0  0  0  0  0  0
  -43.0557   60.0799   56.6453 C   0  0  0  0  0  0  0  0  0  0  0  0
  -43.3203   61.3673   57.4495 C   0  0  0  0  0  0  0  0  0  0  0  0
  -43.9216   62.5071   56.6054 C   0  0  0  0  0  0  0  0  0  0  0  0
  -45.2842   62.1813   55.9657 C   0  0  0  0  0  0  0  0  0  0  0  0
  -46.3755   61.8608   57.0085 C   0  0  0  0  0  0  0  0  0  0  0  0
  -46.6791   63.0129   57.9945 C   0  0  0  0  0  0  0  0  0  0  0  0
  -47.1828   64.2873   57.3070 C   0  0  0  0  0  0  0  0  0  0  0  0
  -47.4811   65.4629   58.2429 C   0  0  0  0  0  0  0  0  0  0  0  0
  -48.5536   65.0933   59.2837 C   0  0  0  0  0  0  0  0  0  0  0  0
  -49.8958   64.6667   58.6701 C   0  0  0  0  0  0  0  0  0  0  0  0
  -50.9997   64.3056   59.6694 C   0  0  0  0  0  0  0  0  0  0  0  0
  -51.4042   65.4631   60.6161 C   0  0  0  0  0  0  0  0  0  0  0  0
  -50.2047   65.9559   61.4507 C   0  0  0  0  0  0  0  0  0  0  0  0
  -49.5151   64.9302   62.3583 C   0  0  0  0  0  0  0  0  0  0  0  0
  -30.2230   54.6574   67.9456 C   0  0  0  0  0  0  0  0  0  0  0  0
  -29.6464   55.5175   69.0861 C   0  0  0  0  0  0  0  0  0  0  0  0
  -28.2796   56.1238   68.8142 C   0  0  0  0  0  0  0  0  0  0  0  0
  -28.3040   57.1841   67.7101 C   0  0  0  0  0  0  0  0  0  0  0  0
  -29.0211   56.8633   66.3881 C   0  0  1  0  0  0  0  0  0  0  0  0
  -28.7609   55.4073   66.0544 C   0  0  0  0  0  0  0  0  0  0  0  0
  -35.9383   62.8376   65.9092 C   0  0  0  0  0  0  0  0  0  0  0  0
  -38.2295   63.0388   65.6128 C   0  0  0  0  0  0  0  0  0  0  0  0
  -36.6602   61.5392   66.3649 C   0  0  1  0  0  0  0  0  0  0  0  0
  -39.6982   64.5962   64.2463 C   0  0  0  0  0  0  0  0  0  0  0  0
  -40.9712   65.1112   63.9684 C   0  0  0  0  0  0  0  0  0  0  0  0
  -42.0888   64.7058   64.7172 C   0  0  0  0  0  0  0  0  0  0  0  0
  -41.9479   63.7730   65.7461 C   0  0  0  0  0  0  0  0  0  0  0  0
  -40.6811   63.2514   66.0232 C   0  0  0  0  0  0  0  0  0  0  0  0
  -39.5578   63.6624   65.2802 C   0  0  0  0  0  0  0  0  0  0  0  0
  -26.7213   51.5036   66.7026 H   0  0  0  0  0  0  0  0  0  0  0  0
  -26.5683   53.2453   68.2258 H   0  0  0  0  0  0  0  0  0  0  0  0
  -26.2540   53.6517   65.9646 H   0  0  0  0  0  0  0  0  0  0  0  0
  -43.1493   59.8728   59.4183 H   0  0  0  0  0  0  0  0  0  0  0  0
  -40.4081   61.3077   60.8713 H   0  0  0  0  0  0  0  0  0  0  0  0
  -39.2678   60.7603   59.6781 H   0  0  0  0  0  0  0  0  0  0  0  0
  -30.9519   57.3347   67.1056 H   0  0  0  0  0  0  0  0  0  0  0  0
  -39.3702   58.4930   60.6200 H   0  0  0  0  0  0  0  0  0  0  0  0
  -40.5230   59.1416   61.8525 H   0  0  0  0  0  0  0  0  0  0  0  0
  -37.5175   60.4746   64.2480 H   0  0  0  0  0  0  0  0  0  0  0  0
  -38.3525   60.5396   62.6009 H   0  0  0  0  0  0  0  0  0  0  0  0
  -37.6135   57.5411   62.0440 H   0  0  0  0  0  0  0  0  0  0  0  0
  -37.2383   57.7881   64.4943 H   0  0  0  0  0  0  0  0  0  0  0  0
  -32.4131   59.9275   64.2861 H   0  0  0  0  0  0  0  0  0  0  0  0
  -38.7652   65.6304   62.8379 H   0  0  0  0  0  0  0  0  0  0  0  0
  -33.0399   57.0631   64.9892 H   0  0  0  0  0  0  0  0  0  0  0  0
  -32.7090   58.3842   66.1269 H   0  0  0  0  0  0  0  0  0  0  0  0
  -32.9205   57.6338   62.4783 H   0  0  0  0  0  0  0  0  0  0  0  0
  -31.4017   58.4669   62.7071 H   0  0  0  0  0  0  0  0  0  0  0  0
  -32.7667   59.3122   62.0176 H   0  0  0  0  0  0  0  0  0  0  0  0
  -43.1967   58.7809   58.3243 H   0  0  0  0  0  0  0  0  0  0  0  0
  -42.2613   58.1520   56.9409 H   0  0  0  0  0  0  0  0  0  0  0  0
  -43.9747   59.7314   56.2224 H   0  0  0  0  0  0  0  0  0  0  0  0
  -42.3538   60.2915   55.8658 H   0  0  0  0  0  0  0  0  0  0  0  0
  -42.3929   61.7050   57.8627 H   0  0  0  0  0  0  0  0  0  0  0  0
  -44.0371   61.1240   58.2057 H   0  0  0  0  0  0  0  0  0  0  0  0
  -43.2323   62.7411   55.8213 H   0  0  0  0  0  0  0  0  0  0  0  0
  -44.0889   63.3246   57.2752 H   0  0  0  0  0  0  0  0  0  0  0  0
  -45.1660   61.3336   55.3236 H   0  0  0  0  0  0  0  0  0  0  0  0
  -45.6010   63.0488   55.4254 H   0  0  0  0  0  0  0  0  0  0  0  0
  -46.0568   61.0112   57.5754 H   0  0  0  0  0  0  0  0  0  0  0  0
  -47.2773   61.6840   56.4604 H   0  0  0  0  0  0  0  0  0  0  0  0
  -45.7819   63.2477   58.5281 H   0  0  0  0  0  0  0  0  0  0  0  0
  -47.4598   62.6751   58.6435 H   0  0  0  0  0  0  0  0  0  0  0  0
  -48.0836   64.0458   56.7824 H   0  0  0  0  0  0  0  0  0  0  0  0
  -46.3882   64.6123   56.6683 H   0  0  0  0  0  0  0  0  0  0  0  0
  -47.8303   66.2907   57.6618 H   0  0  0  0  0  0  0  0  0  0  0  0
  -46.5808   65.7170   58.7623 H   0  0  0  0  0  0  0  0  0  0  0  0
  -48.7244   65.9451   59.9084 H   0  0  0  0  0  0  0  0  0  0  0  0
  -48.1802   64.2520   59.8292 H   0  0  0  0  0  0  0  0  0  0  0  0
  -49.7178   63.8105   58.0536 H   0  0  0  0  0  0  0  0  0  0  0  0
  -50.2556   65.5204   58.1348 H   0  0  0  0  0  0  0  0  0  0  0  0
  -50.6562   63.4876   60.2675 H   0  0  0  0  0  0  0  0  0  0  0  0
  -51.8680   64.0625   59.0932 H   0  0  0  0  0  0  0  0  0  0  0  0
  -52.1707   65.1187   61.2785 H   0  0  0  0  0  0  0  0  0  0  0  0
  -51.7552   66.2784   60.0186 H   0  0  0  0  0  0  0  0  0  0  0  0
  -50.5515   66.7546   62.0726 H   0  0  0  0  0  0  0  0  0  0  0  0
  -49.4622   66.2315   60.7312 H   0  0  0  0  0  0  0  0  0  0  0  0
  -50.2005   64.6030   63.1119 H   0  0  0  0  0  0  0  0  0  0  0  0
  -48.6629   65.3808   62.8226 H   0  0  0  0  0  0  0  0  0  0  0  0
  -49.2006   64.0911   61.7736 H   0  0  0  0  0  0  0  0  0  0  0  0
  -30.5132   53.7047   68.3366 H   0  0  0  0  0  0  0  0  0  0  0  0
  -31.0698   55.1617   67.5291 H   0  0  0  0  0  0  0  0  0  0  0  0
  -29.5675   54.9015   69.9574 H   0  0  0  0  0  0  0  0  0  0  0  0
  -30.3181   56.3420   69.2038 H   0  0  0  0  0  0  0  0  0  0  0  0
  -27.6118   55.3411   68.5204 H   0  0  0  0  0  0  0  0  0  0  0  0
  -27.9588   56.6061   69.7138 H   0  0  0  0  0  0  0  0  0  0  0  0
  -27.2863   57.4098   67.4687 H   0  0  0  0  0  0  0  0  0  0  0  0
  -28.8819   57.9806   68.1302 H   0  0  0  0  0  0  0  0  0  0  0  0
  -28.5959   57.4790   65.6233 H   0  0  0  0  0  0  0  0  0  0  0  0
  -35.3945   63.2671   66.7244 H   0  0  0  0  0  0  0  0  0  0  0  0
  -35.2337   62.6427   65.1279 H   0  0  0  0  0  0  0  0  0  0  0  0
  -36.3948   61.3228   67.3786 H   0  0  0  0  0  0  0  0  0  0  0  0
  -41.0892   65.7959   63.2053 H   0  0  0  0  0  0  0  0  0  0  0  0
  -43.0189   65.0997   64.5054 H   0  0  0  0  0  0  0  0  0  0  0  0
  -42.7684   63.4723   66.2951 H   0  0  0  0  0  0  0  0  0  0  0  0
  -40.5679   62.5585   66.7795 H   0  0  0  0  0  0  0  0  0  0  0  0
  1  2  1  0  0  0  0
  1  5  1  0  0  0  0
  1  7  1  0  0  0  0
  2 18  2  0  0  0  0
  2 29  1  0  0  0  0
  3 21  2  0  0  0  0
  4  6  1  0  0  0  0
  4 59  1  0  0  0  0
  4 60  1  0  0  0  0
  4 61  1  0  0  0  0
  5 62  1  0  0  0  0
  6 14  1  0  0  0  0
  7 10  1  0  0  0  0
  7 63  1  0  0  0  0
  7 64  1  0  0  0  0
  8 27  1  0  0  0  0
  8 48  1  0  0  0  0
  8 65  1  0  0  0  0
  9 21  1  0  0  0  0
  9 23  1  0  0  0  0
 10 13  1  0  0  0  0
 10 66  1  0  0  0  0
 10 67  1  0  0  0  0
 11 19  1  0  0  0  0
 11 28  1  0  0  0  0
 11 68  1  0  0  0  0
 12 27  2  0  0  0  0
 13 16  2  0  0  0  0
 13 69  1  0  0  0  0
 14 44  1  0  0  0  0
 14 49  1  0  0  0  0
 15 28  2  0  0  0  0
 16 19  1  0  0  0  0
 16 70  1  0  0  0  0
 17 51  2  0  0  0  0
 17 52  1  0  0  0  0
 19 21  1  0  0  0  0
 19 71  1  1  0  0  0
 20 49  2  0  0  0  0
 22 50  1  0  0  0  0
 22 51  1  0  0  0  0
 23 25  1  0  0  0  0
 23 26  1  0  0  0  0
 23 72  1  1  0  0  0
 24 53  1  0  0  0  0
 24 73  1  0  0  0  0
 25 27  1  0  0  0  0
 25 74  1  0  0  0  0
 25 75  1  0  0  0  0
 26 76  1  0  0  0  0
 26 77  1  0  0  0  0
 26 78  1  0  0  0  0
 28 52  1  0  0  0  0
 29 30  1  0  0  0  0
 29 79  1  0  0  0  0
 29 80  1  0  0  0  0
 30 31  1  0  0  0  0
 30 81  1  0  0  0  0
 30 82  1  0  0  0  0
 31 32  1  0  0  0  0
 31 83  1  0  0  0  0
 31 84  1  0  0  0  0
 32 33  1  0  0  0  0
 32 85  1  0  0  0  0
 32 86  1  0  0  0  0
 33 34  1  0  0  0  0
 33 87  1  0  0  0  0
 33 88  1  0  0  0  0
 34 35  1  0  0  0  0
 34 89  1  0  0  0  0
 34 90  1  0  0  0  0
 35 36  1  0  0  0  0
 35 91  1  0  0  0  0
 35 92  1  0  0  0  0
 36 37  1  0  0  0  0
 36 93  1  0  0  0  0
 36 94  1  0  0  0  0
 37 38  1  0  0  0  0
 37 95  1  0  0  0  0
 37 96  1  0  0  0  0
 38 39  1  0  0  0  0
 38 97  1  0  0  0  0
 38 98  1  0  0  0  0
 39 40  1  0  0  0  0
 39 99  1  0  0  0  0
 39100  1  0  0  0  0
 40 41  1  0  0  0  0
 40101  1  0  0  0  0
 40102  1  0  0  0  0
 41 42  1  0  0  0  0
 41103  1  0  0  0  0
 41104  1  0  0  0  0
 42 43  1  0  0  0  0
 42105  1  0  0  0  0
 42106  1  0  0  0  0
 43107  1  0  0  0  0
 43108  1  0  0  0  0
 43109  1  0  0  0  0
 44 45  1  0  0  0  0
 44110  1  0  0  0  0
 44111  1  0  0  0  0
 45 46  1  0  0  0  0
 45112  1  0  0  0  0
 45113  1  0  0  0  0
 46 47  1  0  0  0  0
 46114  1  0  0  0  0
 46115  1  0  0  0  0
 47 48  1  0  0  0  0
 47116  1  0  0  0  0
 47117  1  0  0  0  0
 48 49  1  0  0  0  0
 48118  1  6  0  0  0
 50 52  1  0  0  0  0
 50119  1  0  0  0  0
 50120  1  0  0  0  0
 51 58  1  0  0  0  0
 52121  1  1  0  0  0
 53 54  2  0  0  0  0
 53 58  1  0  0  0  0
 54 55  1  0  0  0  0
 54122  1  0  0  0  0
 55 56  2  0  0  0  0
 55123  1  0  0  0  0
 56 57  1  0  0  0  0
 56124  1  0  0  0  0
 57 58  2  0  0  0  0
 57125  1  0  0  0  0
M  END
$$$$