/media/chris/experiments/cd1a-new-docking/inputs/ligands/1xz0_ligand.pdb
 OpenBabel07022319323D

125127  0  0  1  0  0  0  0  0999 V2000
  -40.0375   55.1583   59.6441 N   0  0  0  0  0  0  0  0  0  0  0  0
  -40.1165   56.0672   58.6365 C   0  0  0  0  0  0  0  0  0  0  0  0
  -34.8948   57.7059   62.7003 O   0  0  0  0  0  0  0  0  0  0  0  0
  -29.1203   53.9687   62.2767 Si  0  0  0  0  0  0  0  0  0  0  0  0
  -40.4343   53.8459   59.3512 O   0  0  0  0  0  0  0  0  0  0  0  0
  -30.1400   54.9809   61.2130 O   0  0  0  0  0  0  0  0  0  0  0  0
  -39.5873   55.3488   61.0264 C   0  0  0  0  0  0  0  0  0  0  0  0
  -31.3457   58.9556   62.8257 N   0  0  0  0  0  0  0  0  0  0  0  0
  -34.3393   58.7437   64.6888 O   0  0  0  0  0  0  0  0  0  0  0  0
  -39.1837   56.8269   61.2043 C   0  0  0  0  0  0  0  0  0  0  0  0
  -36.8950   59.8150   64.6310 N   0  0  0  0  0  0  0  0  0  0  0  0
  -31.0256   59.2725   65.0421 O   0  0  0  0  0  0  0  0  0  0  0  0
  -38.6590   57.2580   62.5844 C   0  0  0  0  0  0  0  0  0  0  0  0
  -30.3332   56.3003   61.4918 N   0  0  0  0  0  0  0  0  0  0  0  0
  -36.2434   61.3596   63.0940 O   0  0  0  0  0  0  0  0  0  0  0  0
  -37.6390   58.4030   62.6110 C   0  0  0  0  0  0  0  0  0  0  0  0
  -38.0649   62.2832   65.8450 N   0  0  0  0  0  0  0  0  0  0  0  0
  -39.7754   57.2376   58.8063 O   0  0  0  0  0  0  0  0  0  0  0  0
  -36.7890   58.5530   63.8960 C   0  0  1  0  0  0  0  0  0  0  0  0
  -32.5111   55.9080   61.9019 O   0  0  0  0  0  0  0  0  0  0  0  0
  -35.3080   58.3090   63.6770 C   0  0  0  0  0  0  0  0  0  0  0  0
  -37.6431   64.3813   65.2031 O   0  0  0  0  0  0  0  0  0  0  0  0
  -33.5035   57.7973   65.3813 C   0  0  1  0  0  0  0  0  0  0  0  0
  -40.2193   65.5936   64.8063 O   0  0  0  0  0  0  0  0  0  0  0  0
  -32.3320   57.4417   64.4782 C   0  0  0  0  0  0  0  0  0  0  0  0
  -33.0213   58.2621   66.7499 C   0  0  0  0  0  0  0  0  0  0  0  0
  -31.4759   58.6314   64.1203 C   0  0  0  0  0  0  0  0  0  0  0  0
  -36.6335   61.0669   64.2166 C   0  0  0  0  0  0  0  0  0  0  0  0
  -40.6467   55.6171   57.2712 C   0  0  0  0  0  0  0  0  0  0  0  0
  -40.6760   56.7208   56.2052 C   0  0  0  0  0  0  0  0  0  0  0  0
  -41.5666   57.8868   56.6759 C   0  0  0  0  0  0  0  0  0  0  0  0
  -43.0232   57.4727   56.9588 C   0  0  0  0  0  0  0  0  0  0  0  0
  -43.1854   56.4113   58.0629 C   0  0  0  0  0  0  0  0  0  0  0  0
  -42.6489   56.8818   59.4311 C   0  0  0  0  0  0  0  0  0  0  0  0
  -43.3512   58.1374   59.9984 C   0  0  0  0  0  0  0  0  0  0  0  0
  -44.8534   57.9421   60.2338 C   0  0  0  0  0  0  0  0  0  0  0  0
  -45.2228   56.8402   61.2321 C   0  0  0  0  0  0  0  0  0  0  0  0
  -44.6396   57.1288   62.6274 C   0  0  0  0  0  0  0  0  0  0  0  0
  -44.9611   56.0492   63.6720 C   0  0  0  0  0  0  0  0  0  0  0  0
  -44.4148   56.3026   65.0809 C   0  0  0  0  0  0  0  0  0  0  0  0
  -44.9462   57.5969   65.7459 C   0  0  0  0  0  0  0  0  0  0  0  0
  -44.3439   57.7985   67.1511 C   0  0  0  0  0  0  0  0  0  0  0  0
  -44.7961   59.0362   67.9354 C   0  0  0  0  0  0  0  0  0  0  0  0
  -29.1401   57.1591   61.5227 C   0  0  0  0  0  0  0  0  0  0  0  0
  -29.1496   58.1478   60.3416 C   0  0  0  0  0  0  0  0  0  0  0  0
  -30.4290   58.1668   59.5215 C   0  0  0  0  0  0  0  0  0  0  0  0
  -31.6290   58.7165   60.2972 C   0  0  0  0  0  0  0  0  0  0  0  0
  -31.9067   58.1820   61.7121 C   0  0  1  0  0  0  0  0  0  0  0  0
  -31.5946   56.6983   61.7230 C   0  0  0  0  0  0  0  0  0  0  0  0
  -36.4818   63.6576   64.7981 C   0  0  0  0  0  0  0  0  0  0  0  0
  -38.5542   63.4482   65.8173 C   0  0  0  0  0  0  0  0  0  0  0  0
  -36.7218   62.1879   65.2420 C   0  0  1  0  0  0  0  0  0  0  0  0
  -40.6518   64.8797   65.8528 C   0  0  0  0  0  0  0  0  0  0  0  0
  -41.8979   65.1714   66.4228 C   0  0  0  0  0  0  0  0  0  0  0  0
  -42.3701   64.4429   67.5276 C   0  0  0  0  0  0  0  0  0  0  0  0
  -41.6059   63.4077   68.0688 C   0  0  0  0  0  0  0  0  0  0  0  0
  -40.3648   63.1086   67.4997 C   0  0  0  0  0  0  0  0  0  0  0  0
  -39.8850   63.8426   66.3980 C   0  0  0  0  0  0  0  0  0  0  0  0
  -29.0797   52.6423   61.7712 H   0  0  0  0  0  0  0  0  0  0  0  0
  -29.6670   53.9592   63.5872 H   0  0  0  0  0  0  0  0  0  0  0  0
  -27.8042   54.5005   62.3167 H   0  0  0  0  0  0  0  0  0  0  0  0
  -40.7182   53.7930   58.4252 H   0  0  0  0  0  0  0  0  0  0  0  0
  -38.7460   54.7177   61.2233 H   0  0  0  0  0  0  0  0  0  0  0  0
  -40.3723   55.0962   61.7082 H   0  0  0  0  0  0  0  0  0  0  0  0
  -30.8378   59.7702   62.6069 H   0  0  0  0  0  0  0  0  0  0  0  0
  -40.0458   57.4229   60.9886 H   0  0  0  0  0  0  0  0  0  0  0  0
  -38.3548   56.9650   60.5419 H   0  0  0  0  0  0  0  0  0  0  0  0
  -37.2021   59.7352   65.5630 H   0  0  0  0  0  0  0  0  0  0  0  0
  -38.9782   56.7985   63.4515 H   0  0  0  0  0  0  0  0  0  0  0  0
  -37.5247   59.0434   61.8099 H   0  0  0  0  0  0  0  0  0  0  0  0
  -37.2383   57.7881   64.4943 H   0  0  0  0  0  0  0  0  0  0  0  0
  -34.1023   56.9354   65.5898 H   0  0  0  0  0  0  0  0  0  0  0  0
  -40.7497   66.2831   64.4582 H   0  0  0  0  0  0  0  0  0  0  0  0
  -32.7159   57.0148   63.5753 H   0  0  0  0  0  0  0  0  0  0  0  0
  -31.7129   56.7542   65.0159 H   0  0  0  0  0  0  0  0  0  0  0  0
  -32.4074   59.1310   66.6356 H   0  0  0  0  0  0  0  0  0  0  0  0
  -32.4529   57.4820   67.2117 H   0  0  0  0  0  0  0  0  0  0  0  0
  -33.8650   58.4998   67.3635 H   0  0  0  0  0  0  0  0  0  0  0  0
  -41.6443   55.2533   57.4033 H   0  0  0  0  0  0  0  0  0  0  0  0
  -39.9721   54.8670   56.9146 H   0  0  0  0  0  0  0  0  0  0  0  0
  -41.0679   56.3218   55.2930 H   0  0  0  0  0  0  0  0  0  0  0  0
  -39.6811   57.0815   56.0466 H   0  0  0  0  0  0  0  0  0  0  0  0
  -41.5701   58.6388   55.9148 H   0  0  0  0  0  0  0  0  0  0  0  0
  -41.1565   58.2436   57.5975 H   0  0  0  0  0  0  0  0  0  0  0  0
  -43.4401   57.0802   56.0548 H   0  0  0  0  0  0  0  0  0  0  0  0
  -43.5260   58.3509   57.3063 H   0  0  0  0  0  0  0  0  0  0  0  0
  -42.6517   55.5309   57.7713 H   0  0  0  0  0  0  0  0  0  0  0  0
  -44.2325   56.2228   58.1760 H   0  0  0  0  0  0  0  0  0  0  0  0
  -41.6072   57.1013   59.3240 H   0  0  0  0  0  0  0  0  0  0  0  0
  -42.8405   56.0878   60.1223 H   0  0  0  0  0  0  0  0  0  0  0  0
  -43.2185   58.9421   59.3058 H   0  0  0  0  0  0  0  0  0  0  0  0
  -42.9072   58.3444   60.9497 H   0  0  0  0  0  0  0  0  0  0  0  0
  -45.3066   57.7025   59.2946 H   0  0  0  0  0  0  0  0  0  0  0  0
  -45.2073   58.8576   60.6600 H   0  0  0  0  0  0  0  0  0  0  0  0
  -44.8363   55.9069   60.8793 H   0  0  0  0  0  0  0  0  0  0  0  0
  -46.2890   56.8028   61.3135 H   0  0  0  0  0  0  0  0  0  0  0  0
  -45.0370   58.0604   62.9725 H   0  0  0  0  0  0  0  0  0  0  0  0
  -43.5752   57.1504   62.5207 H   0  0  0  0  0  0  0  0  0  0  0  0
  -44.5539   55.1232   63.3234 H   0  0  0  0  0  0  0  0  0  0  0  0
  -46.0267   56.0462   63.7691 H   0  0  0  0  0  0  0  0  0  0  0  0
  -43.3487   56.3702   65.0201 H   0  0  0  0  0  0  0  0  0  0  0  0
  -44.7450   55.4869   65.6895 H   0  0  0  0  0  0  0  0  0  0  0  0
  -46.0110   57.5327   65.8299 H   0  0  0  0  0  0  0  0  0  0  0  0
  -44.6617   58.4288   65.1361 H   0  0  0  0  0  0  0  0  0  0  0  0
  -43.2812   57.8578   67.0406 H   0  0  0  0  0  0  0  0  0  0  0  0
  -44.6941   56.9654   67.7239 H   0  0  0  0  0  0  0  0  0  0  0  0
  -44.4800   59.9195   67.4209 H   0  0  0  0  0  0  0  0  0  0  0  0
  -44.3611   59.0177   68.9128 H   0  0  0  0  0  0  0  0  0  0  0  0
  -45.8628   59.0349   68.0196 H   0  0  0  0  0  0  0  0  0  0  0  0
  -28.2649   56.5466   61.4609 H   0  0  0  0  0  0  0  0  0  0  0  0
  -29.1405   57.7154   62.4367 H   0  0  0  0  0  0  0  0  0  0  0  0
  -28.3420   57.8905   59.6885 H   0  0  0  0  0  0  0  0  0  0  0  0
  -29.0588   59.1235   60.7713 H   0  0  0  0  0  0  0  0  0  0  0  0
  -30.6514   57.1665   59.2135 H   0  0  0  0  0  0  0  0  0  0  0  0
  -30.2640   58.8147   58.6862 H   0  0  0  0  0  0  0  0  0  0  0  0
  -32.5008   58.5175   59.7096 H   0  0  0  0  0  0  0  0  0  0  0  0
  -31.3850   59.7464   60.4538 H   0  0  0  0  0  0  0  0  0  0  0  0
  -32.9467   58.3224   61.9206 H   0  0  0  0  0  0  0  0  0  0  0  0
  -35.6104   64.0537   65.2764 H   0  0  0  0  0  0  0  0  0  0  0  0
  -36.3220   63.7288   63.7425 H   0  0  0  0  0  0  0  0  0  0  0  0
  -35.9191   61.8731   65.8756 H   0  0  0  0  0  0  0  0  0  0  0  0
  -42.4753   65.9296   66.0269 H   0  0  0  0  0  0  0  0  0  0  0  0
  -43.2869   64.6745   67.9412 H   0  0  0  0  0  0  0  0  0  0  0  0
  -41.9527   62.8701   68.8785 H   0  0  0  0  0  0  0  0  0  0  0  0
  -39.7946   62.3425   67.8907 H   0  0  0  0  0  0  0  0  0  0  0  0
  1  2  1  0  0  0  0
  1  5  1  0  0  0  0
  1  7  1  0  0  0  0
  2 18  2  0  0  0  0
  2 29  1  0  0  0  0
  3 21  2  0  0  0  0
  4  6  1  0  0  0  0
  4 59  1  0  0  0  0
  4 60  1  0  0  0  0
  4 61  1  0  0  0  0
  5 62  1  0  0  0  0
  6 14  1  0  0  0  0
  7 10  1  0  0  0  0
  7 63  1  0  0  0  0
  7 64  1  0  0  0  0
  8 27  1  0  0  0  0
  8 48  1  0  0  0  0
  8 65  1  0  0  0  0
  9 21  1  0  0  0  0
  9 23  1  0  0  0  0
 10 13  1  0  0  0  0
 10 66  1  0  0  0  0
 10 67  1  0  0  0  0
 11 19  1  0  0  0  0
 11 28  1  0  0  0  0
 11 68  1  0  0  0  0
 12 27  2  0  0  0  0
 13 16  2  0  0  0  0
 13 69  1  0  0  0  0
 14 44  1  0  0  0  0
 14 49  1  0  0  0  0
 15 28  2  0  0  0  0
 16 19  1  0  0  0  0
 16 70  1  0  0  0  0
 17 51  2  0  0  0  0
 17 52  1  0  0  0  0
 19 21  1  0  0  0  0
 19 71  1  1  0  0  0
 20 49  2  0  0  0  0
 22 50  1  0  0  0  0
 22 51  1  0  0  0  0
 23 25  1  0  0  0  0
 23 26  1  0  0  0  0
 23 72  1  1  0  0  0
 24 53  1  0  0  0  0
 24 73  1  0  0  0  0
 25 27  1  0  0  0  0
 25 74  1  0  0  0  0
 25 75  1  0  0  0  0
 26 76  1  0  0  0  0
 26 77  1  0  0  0  0
 26 78  1  0  0  0  0
 28 52  1  0  0  0  0
 29 30  1  0  0  0  0
 29 79  1  0  0  0  0
 29 80  1  0  0  0  0
 30 31  1  0  0  0  0
 30 81  1  0  0  0  0
 30 82  1  0  0  0  0
 31 32  1  0  0  0  0
 31 83  1  0  0  0  0
 31 84  1  0  0  0  0
 32 33  1  0  0  0  0
 32 85  1  0  0  0  0
 32 86  1  0  0  0  0
 33 34  1  0  0  0  0
 33 87  1  0  0  0  0
 33 88  1  0  0  0  0
 34 35  1  0  0  0  0
 34 89  1  0  0  0  0
 34 90  1  0  0  0  0
 35 36  1  0  0  0  0
 35 91  1  0  0  0  0
 35 92  1  0  0  0  0
 36 37  1  0  0  0  0
 36 93  1  0  0  0  0
 36 94  1  0  0  0  0
 37 38  1  0  0  0  0
 37 95  1  0  0  0  0
 37 96  1  0  0  0  0
 38 39  1  0  0  0  0
 38 97  1  0  0  0  0
 38 98  1  0  0  0  0
 39 40  1  0  0  0  0
 39 99  1  0  0  0  0
 39100  1  0  0  0  0
 40 41  1  0  0  0  0
 40101  1  0  0  0  0
 40102  1  0  0  0  0
 41 42  1  0  0  0  0
 41103  1  0  0  0  0
 41104  1  0  0  0  0
 42 43  1  0  0  0  0
 42105  1  0  0  0  0
 42106  1  0  0  0  0
 43107  1  0  0  0  0
 43108  1  0  0  0  0
 43109  1  0  0  0  0
 44 45  1  0  0  0  0
 44110  1  0  0  0  0
 44111  1  0  0  0  0
 45 46  1  0  0  0  0
 45112  1  0  0  0  0
 45113  1  0  0  0  0
 46 47  1  0  0  0  0
 46114  1  0  0  0  0
 46115  1  0  0  0  0
 47 48  1  0  0  0  0
 47116  1  0  0  0  0
 47117  1  0  0  0  0
 48 49  1  0  0  0  0
 48118  1  1  0  0  0
 50 52  1  0  0  0  0
 50119  1  0  0  0  0
 50120  1  0  0  0  0
 51 58  1  0  0  0  0
 52121  1  1  0  0  0
 53 54  2  0  0  0  0
 53 58  1  0  0  0  0
 54 55  1  0  0  0  0
 54122  1  0  0  0  0
 55 56  2  0  0  0  0
 55123  1  0  0  0  0
 56 57  1  0  0  0  0
 56124  1  0  0  0  0
 57 58  2  0  0  0  0
 57125  1  0  0  0  0
M  END
$$$$