/media/chris/experiments/cd1a-new-docking/inputs/ligands/1xz0_ligand.pdb
 OpenBabel07022319323D

125127  0  0  1  0  0  0  0  0999 V2000
  -41.3459   57.8603   60.2293 N   0  0  0  0  0  0  0  0  0  0  0  0
  -42.6735   57.6096   60.3791 C   0  0  0  0  0  0  0  0  0  0  0  0
  -34.6358   57.6816   64.4788 O   0  0  0  0  0  0  0  0  0  0  0  0
  -39.5523   62.1846   61.4790 Si  0  0  0  0  0  0  0  0  0  0  0  0
  -40.8877   58.1134   58.9287 O   0  0  0  0  0  0  0  0  0  0  0  0
  -38.2131   62.8280   62.4731 O   0  0  0  0  0  0  0  0  0  0  0  0
  -40.2943   57.9078   61.2500 C   0  0  0  0  0  0  0  0  0  0  0  0
  -33.7957   62.2764   62.2843 N   0  0  0  0  0  0  0  0  0  0  0  0
  -34.6370   58.8922   62.5105 O   0  0  0  0  0  0  0  0  0  0  0  0
  -39.6678   59.3173   61.2339 C   0  0  0  0  0  0  0  0  0  0  0  0
  -36.8950   59.8150   64.6310 N   0  0  0  0  0  0  0  0  0  0  0  0
  -34.8515   61.7950   64.2257 O   0  0  0  0  0  0  0  0  0  0  0  0
  -38.5208   59.5953   62.2201 C   0  0  0  0  0  0  0  0  0  0  0  0
  -36.9179   62.5691   62.1392 N   0  0  0  0  0  0  0  0  0  0  0  0
  -35.4578   59.5184   66.3686 O   0  0  0  0  0  0  0  0  0  0  0  0
  -37.6390   58.4030   62.6110 C   0  0  0  0  0  0  0  0  0  0  0  0
  -37.7528   61.3983   67.3461 N   0  0  0  0  0  0  0  0  0  0  0  0
  -43.4342   57.6065   59.4116 O   0  0  0  0  0  0  0  0  0  0  0  0
  -36.7890   58.5530   63.8960 C   0  0  1  0  0  0  0  0  0  0  0  0
  -36.2497   64.4067   63.2538 O   0  0  0  0  0  0  0  0  0  0  0  0
  -35.3080   58.3090   63.6770 C   0  0  0  0  0  0  0  0  0  0  0  0
  -38.4750   63.0361   66.0090 O   0  0  0  0  0  0  0  0  0  0  0  0
  -33.2588   59.3059   62.5681 C   0  0  1  0  0  0  0  0  0  0  0  0
  -39.8645   59.9912   68.6495 O   0  0  0  0  0  0  0  0  0  0  0  0
  -33.1203   60.3623   63.6540 C   0  0  0  0  0  0  0  0  0  0  0  0
  -32.2655   58.1695   62.7768 C   0  0  0  0  0  0  0  0  0  0  0  0
  -33.9818   61.5773   63.4134 C   0  0  0  0  0  0  0  0  0  0  0  0
  -36.2648   60.2028   65.7534 C   0  0  0  0  0  0  0  0  0  0  0  0
  -43.2225   57.3335   61.7828 C   0  0  0  0  0  0  0  0  0  0  0  0
  -43.0304   58.4855   62.7785 C   0  0  0  0  0  0  0  0  0  0  0  0
  -43.6006   58.0945   64.1555 C   0  0  0  0  0  0  0  0  0  0  0  0
  -42.9181   56.8607   64.7760 C   0  0  0  0  0  0  0  0  0  0  0  0
  -41.4080   57.0235   65.0312 C   0  0  0  0  0  0  0  0  0  0  0  0
  -40.7619   55.7596   65.6364 C   0  0  0  0  0  0  0  0  0  0  0  0
  -39.2478   55.8879   65.9241 C   0  0  0  0  0  0  0  0  0  0  0  0
  -38.6279   54.6135   66.5087 C   0  0  0  0  0  0  0  0  0  0  0  0
  -38.7218   53.3707   65.6179 C   0  0  0  0  0  0  0  0  0  0  0  0
  -40.1861   53.0188   65.2981 C   0  0  0  0  0  0  0  0  0  0  0  0
  -40.3487   51.7687   64.4202 C   0  0  0  0  0  0  0  0  0  0  0  0
  -39.7988   50.4656   65.0092 C   0  0  0  0  0  0  0  0  0  0  0  0
  -39.9655   49.2311   64.0883 C   0  0  0  0  0  0  0  0  0  0  0  0
  -39.2223   49.4198   62.7503 C   0  0  0  0  0  0  0  0  0  0  0  0
  -39.6357   50.6147   61.8827 C   0  0  0  0  0  0  0  0  0  0  0  0
  -36.6475   61.3039   61.4407 C   0  0  0  0  0  0  0  0  0  0  0  0
  -36.2159   61.5661   59.9855 C   0  0  0  0  0  0  0  0  0  0  0  0
  -35.9819   63.0253   59.6311 C   0  0  0  0  0  0  0  0  0  0  0  0
  -34.7706   63.6285   60.3473 C   0  0  0  0  0  0  0  0  0  0  0  0
  -34.6212   63.4139   61.8627 C   0  0  1  0  0  0  0  0  0  0  0  0
  -36.0016   63.4875   62.4855 C   0  0  0  0  0  0  0  0  0  0  0  0
  -37.2130   62.6693   65.4528 C   0  0  0  0  0  0  0  0  0  0  0  0
  -38.7181   62.1905   67.1508 C   0  0  0  0  0  0  0  0  0  0  0  0
  -36.6602   61.5392   66.3649 C   0  0  1  0  0  0  0  0  0  0  0  0
  -40.4382   61.1976   68.7337 C   0  0  0  0  0  0  0  0  0  0  0  0
  -41.5623   61.3745   69.5510 C   0  0  0  0  0  0  0  0  0  0  0  0
  -42.1883   62.6286   69.6491 C   0  0  0  0  0  0  0  0  0  0  0  0
  -41.6912   63.7226   68.9387 C   0  0  0  0  0  0  0  0  0  0  0  0
  -40.5662   63.5528   68.1269 C   0  0  0  0  0  0  0  0  0  0  0  0
  -39.9420   62.2952   68.0197 C   0  0  0  0  0  0  0  0  0  0  0  0
  -40.7933   62.5933   62.0351 H   0  0  0  0  0  0  0  0  0  0  0  0
  -39.4872   60.7663   61.4581 H   0  0  0  0  0  0  0  0  0  0  0  0
  -39.4403   62.6832   60.1541 H   0  0  0  0  0  0  0  0  0  0  0  0
  -41.6322   58.0661   58.3087 H   0  0  0  0  0  0  0  0  0  0  0  0
  -39.5448   57.1761   61.0317 H   0  0  0  0  0  0  0  0  0  0  0  0
  -40.7070   57.6986   62.2148 H   0  0  0  0  0  0  0  0  0  0  0  0
  -33.0529   62.0075   61.6968 H   0  0  0  0  0  0  0  0  0  0  0  0
  -40.4488   60.0177   61.4448 H   0  0  0  0  0  0  0  0  0  0  0  0
  -39.2224   59.4069   60.2651 H   0  0  0  0  0  0  0  0  0  0  0  0
  -37.5175   60.4746   64.2480 H   0  0  0  0  0  0  0  0  0  0  0  0
  -38.3525   60.5396   62.6009 H   0  0  0  0  0  0  0  0  0  0  0  0
  -37.6135   57.5411   62.0440 H   0  0  0  0  0  0  0  0  0  0  0  0
  -37.2383   57.7881   64.4943 H   0  0  0  0  0  0  0  0  0  0  0  0
  -33.0055   59.7065   61.6088 H   0  0  0  0  0  0  0  0  0  0  0  0
  -40.2141   59.2711   69.1365 H   0  0  0  0  0  0  0  0  0  0  0  0
  -32.0975   60.6736   63.6973 H   0  0  0  0  0  0  0  0  0  0  0  0
  -33.4443   59.9191   64.5724 H   0  0  0  0  0  0  0  0  0  0  0  0
  -32.4477   57.7060   63.7239 H   0  0  0  0  0  0  0  0  0  0  0  0
  -31.2689   58.5585   62.7559 H   0  0  0  0  0  0  0  0  0  0  0  0
  -32.3824   57.4459   61.9972 H   0  0  0  0  0  0  0  0  0  0  0  0
  -42.7262   56.4690   62.1718 H   0  0  0  0  0  0  0  0  0  0  0  0
  -44.2782   57.1964   61.6754 H   0  0  0  0  0  0  0  0  0  0  0  0
  -43.5405   59.3541   62.4177 H   0  0  0  0  0  0  0  0  0  0  0  0
  -41.9853   58.6925   62.8777 H   0  0  0  0  0  0  0  0  0  0  0  0
  -44.6435   57.8836   64.0426 H   0  0  0  0  0  0  0  0  0  0  0  0
  -43.4218   58.9178   64.8152 H   0  0  0  0  0  0  0  0  0  0  0  0
  -43.0570   56.0332   64.1119 H   0  0  0  0  0  0  0  0  0  0  0  0
  -43.3730   56.7119   65.7330 H   0  0  0  0  0  0  0  0  0  0  0  0
  -41.2621   57.8392   65.7081 H   0  0  0  0  0  0  0  0  0  0  0  0
  -40.9399   57.2022   64.0857 H   0  0  0  0  0  0  0  0  0  0  0  0
  -40.9044   54.9505   64.9509 H   0  0  0  0  0  0  0  0  0  0  0  0
  -41.2382   55.5970   66.5807 H   0  0  0  0  0  0  0  0  0  0  0  0
  -39.1017   56.6865   66.6212 H   0  0  0  0  0  0  0  0  0  0  0  0
  -38.7636   56.0736   64.9882 H   0  0  0  0  0  0  0  0  0  0  0  0
  -39.1252   54.3972   67.4310 H   0  0  0  0  0  0  0  0  0  0  0  0
  -37.5837   54.8178   66.6217 H   0  0  0  0  0  0  0  0  0  0  0  0
  -38.2676   52.5445   66.1238 H   0  0  0  0  0  0  0  0  0  0  0  0
  -38.2160   53.5766   64.6977 H   0  0  0  0  0  0  0  0  0  0  0  0
  -40.6283   53.8488   64.7877 H   0  0  0  0  0  0  0  0  0  0  0  0
  -40.6655   52.8075   66.2311 H   0  0  0  0  0  0  0  0  0  0  0  0
  -39.8437   51.9496   63.4944 H   0  0  0  0  0  0  0  0  0  0  0  0
  -41.4034   51.6199   64.3181 H   0  0  0  0  0  0  0  0  0  0  0  0
  -40.3114   50.2703   65.9280 H   0  0  0  0  0  0  0  0  0  0  0  0
  -38.7470   50.6089   65.1431 H   0  0  0  0  0  0  0  0  0  0  0  0
  -41.0066   49.0834   63.8900 H   0  0  0  0  0  0  0  0  0  0  0  0
  -39.5485   48.3813   64.5871 H   0  0  0  0  0  0  0  0  0  0  0  0
  -39.3729   48.5333   62.1704 H   0  0  0  0  0  0  0  0  0  0  0  0
  -38.2065   49.6153   63.0238 H   0  0  0  0  0  0  0  0  0  0  0  0
  -40.6505   50.4918   61.5665 H   0  0  0  0  0  0  0  0  0  0  0  0
  -38.9989   50.6695   61.0245 H   0  0  0  0  0  0  0  0  0  0  0  0
  -39.5460   51.5165   62.4515 H   0  0  0  0  0  0  0  0  0  0  0  0
  -37.5347   60.7057   61.4415 H   0  0  0  0  0  0  0  0  0  0  0  0
  -35.8551   60.7939   61.9477 H   0  0  0  0  0  0  0  0  0  0  0  0
  -36.9811   61.1877   59.3403 H   0  0  0  0  0  0  0  0  0  0  0  0
  -35.2722   61.0767   59.8637 H   0  0  0  0  0  0  0  0  0  0  0  0
  -36.8521   63.5858   59.9022 H   0  0  0  0  0  0  0  0  0  0  0  0
  -35.7879   63.0721   58.5798 H   0  0  0  0  0  0  0  0  0  0  0  0
  -34.8015   64.6850   60.1811 H   0  0  0  0  0  0  0  0  0  0  0  0
  -33.9366   63.1046   59.9292 H   0  0  0  0  0  0  0  0  0  0  0  0
  -34.0191   64.2084   62.2514 H   0  0  0  0  0  0  0  0  0  0  0  0
  -36.5479   63.5074   65.4535 H   0  0  0  0  0  0  0  0  0  0  0  0
  -37.3097   62.3442   64.4380 H   0  0  0  0  0  0  0  0  0  0  0  0
  -35.6979   61.8225   66.7371 H   0  0  0  0  0  0  0  0  0  0  0  0
  -41.9346   60.5750   70.0869 H   0  0  0  0  0  0  0  0  0  0  0  0
  -43.0200   62.7416   70.2496 H   0  0  0  0  0  0  0  0  0  0  0  0
  -42.1485   64.6449   69.0119 H   0  0  0  0  0  0  0  0  0  0  0  0
  -40.1894   64.3568   67.6009 H   0  0  0  0  0  0  0  0  0  0  0  0
  1  2  1  0  0  0  0
  1  5  1  0  0  0  0
  1  7  1  0  0  0  0
  2 18  2  0  0  0  0
  2 29  1  0  0  0  0
  3 21  2  0  0  0  0
  4  6  1  0  0  0  0
  4 59  1  0  0  0  0
  4 60  1  0  0  0  0
  4 61  1  0  0  0  0
  5 62  1  0  0  0  0
  6 14  1  0  0  0  0
  7 10  1  0  0  0  0
  7 63  1  0  0  0  0
  7 64  1  0  0  0  0
  8 27  1  0  0  0  0
  8 48  1  0  0  0  0
  8 65  1  0  0  0  0
  9 21  1  0  0  0  0
  9 23  1  0  0  0  0
 10 13  1  0  0  0  0
 10 66  1  0  0  0  0
 10 67  1  0  0  0  0
 11 19  1  0  0  0  0
 11 28  1  0  0  0  0
 11 68  1  0  0  0  0
 12 27  2  0  0  0  0
 13 16  2  0  0  0  0
 13 69  1  0  0  0  0
 14 44  1  0  0  0  0
 14 49  1  0  0  0  0
 15 28  2  0  0  0  0
 16 19  1  0  0  0  0
 16 70  1  0  0  0  0
 17 51  2  0  0  0  0
 17 52  1  0  0  0  0
 19 21  1  0  0  0  0
 19 71  1  1  0  0  0
 20 49  2  0  0  0  0
 22 50  1  0  0  0  0
 22 51  1  0  0  0  0
 23 25  1  0  0  0  0
 23 26  1  0  0  0  0
 23 72  1  6  0  0  0
 24 53  1  0  0  0  0
 24 73  1  0  0  0  0
 25 27  1  0  0  0  0
 25 74  1  0  0  0  0
 25 75  1  0  0  0  0
 26 76  1  0  0  0  0
 26 77  1  0  0  0  0
 26 78  1  0  0  0  0
 28 52  1  0  0  0  0
 29 30  1  0  0  0  0
 29 79  1  0  0  0  0
 29 80  1  0  0  0  0
 30 31  1  0  0  0  0
 30 81  1  0  0  0  0
 30 82  1  0  0  0  0
 31 32  1  0  0  0  0
 31 83  1  0  0  0  0
 31 84  1  0  0  0  0
 32 33  1  0  0  0  0
 32 85  1  0  0  0  0
 32 86  1  0  0  0  0
 33 34  1  0  0  0  0
 33 87  1  0  0  0  0
 33 88  1  0  0  0  0
 34 35  1  0  0  0  0
 34 89  1  0  0  0  0
 34 90  1  0  0  0  0
 35 36  1  0  0  0  0
 35 91  1  0  0  0  0
 35 92  1  0  0  0  0
 36 37  1  0  0  0  0
 36 93  1  0  0  0  0
 36 94  1  0  0  0  0
 37 38  1  0  0  0  0
 37 95  1  0  0  0  0
 37 96  1  0  0  0  0
 38 39  1  0  0  0  0
 38 97  1  0  0  0  0
 38 98  1  0  0  0  0
 39 40  1  0  0  0  0
 39 99  1  0  0  0  0
 39100  1  0  0  0  0
 40 41  1  0  0  0  0
 40101  1  0  0  0  0
 40102  1  0  0  0  0
 41 42  1  0  0  0  0
 41103  1  0  0  0  0
 41104  1  0  0  0  0
 42 43  1  0  0  0  0
 42105  1  0  0  0  0
 42106  1  0  0  0  0
 43107  1  0  0  0  0
 43108  1  0  0  0  0
 43109  1  0  0  0  0
 44 45  1  0  0  0  0
 44110  1  0  0  0  0
 44111  1  0  0  0  0
 45 46  1  0  0  0  0
 45112  1  0  0  0  0
 45113  1  0  0  0  0
 46 47  1  0  0  0  0
 46114  1  0  0  0  0
 46115  1  0  0  0  0
 47 48  1  0  0  0  0
 47116  1  0  0  0  0
 47117  1  0  0  0  0
 48 49  1  0  0  0  0
 48118  1  1  0  0  0
 50 52  1  0  0  0  0
 50119  1  0  0  0  0
 50120  1  0  0  0  0
 51 58  1  0  0  0  0
 52121  1  1  0  0  0
 53 54  2  0  0  0  0
 53 58  1  0  0  0  0
 54 55  1  0  0  0  0
 54122  1  0  0  0  0
 55 56  2  0  0  0  0
 55123  1  0  0  0  0
 56 57  1  0  0  0  0
 56124  1  0  0  0  0
 57 58  2  0  0  0  0
 57125  1  0  0  0  0
M  END
$$$$