/media/chris/experiments/cd1a-new-docking/inputs/ligands/1xz0_ligand.pdb
 OpenBabel07022319323D

125127  0  0  1  0  0  0  0  0999 V2000
  -41.1346   57.4955   59.5365 N   0  0  0  0  0  0  0  0  0  0  0  0
  -40.9645   56.1909   59.1946 C   0  0  0  0  0  0  0  0  0  0  0  0
  -34.6358   57.6816   64.4788 O   0  0  0  0  0  0  0  0  0  0  0  0
  -39.6814   57.4551   58.2008 Si  0  0  0  0  0  0  0  0  0  0  0  0
  -41.9471   58.2731   58.6995 O   0  0  0  0  0  0  0  0  0  0  0  0
  -38.3419   57.0859   57.0759 O   0  0  0  0  0  0  0  0  0  0  0  0
  -40.5824   58.2302   60.6789 C   0  0  0  0  0  0  0  0  0  0  0  0
  -34.5028   58.1855   59.0521 N   0  0  0  0  0  0  0  0  0  0  0  0
  -34.6370   58.8922   62.5105 O   0  0  0  0  0  0  0  0  0  0  0  0
  -39.7171   57.2580   61.5068 C   0  0  0  0  0  0  0  0  0  0  0  0
  -36.8950   59.8150   64.6310 N   0  0  0  0  0  0  0  0  0  0  0  0
  -33.1650   59.9085   59.6495 O   0  0  0  0  0  0  0  0  0  0  0  0
  -39.0441   57.8107   62.7746 C   0  0  0  0  0  0  0  0  0  0  0  0
  -37.0472   57.2662   57.4597 N   0  0  0  0  0  0  0  0  0  0  0  0
  -38.3860   61.0055   63.3930 O   0  0  0  0  0  0  0  0  0  0  0  0
  -37.6390   58.4030   62.6110 C   0  0  0  0  0  0  0  0  0  0  0  0
  -36.4556   61.9053   66.2987 N   0  0  0  0  0  0  0  0  0  0  0  0
  -40.2771   55.4365   59.8826 O   0  0  0  0  0  0  0  0  0  0  0  0
  -36.7890   58.5530   63.8960 C   0  0  1  0  0  0  0  0  0  0  0  0
  -37.4971   59.3987   58.0215 O   0  0  0  0  0  0  0  0  0  0  0  0
  -35.3080   58.3090   63.6770 C   0  0  0  0  0  0  0  0  0  0  0  0
  -38.2143   62.7006   67.4241 O   0  0  0  0  0  0  0  0  0  0  0  0
  -33.2203   58.7355   62.3051 C   0  0  1  0  0  0  0  0  0  0  0  0
  -37.8136   62.9050   70.1034 O   0  0  0  0  0  0  0  0  0  0  0  0
  -33.0044   58.0173   60.9815 C   0  0  0  0  0  0  0  0  0  0  0  0
  -32.4254   60.0342   62.3620 C   0  0  0  0  0  0  0  0  0  0  0  0
  -33.5568   58.7738   59.7987 C   0  0  0  0  0  0  0  0  0  0  0  0
  -37.6390   60.9007   64.3569 C   0  0  0  0  0  0  0  0  0  0  0  0
  -41.6402   55.6627   57.9249 C   0  0  0  0  0  0  0  0  0  0  0  0
  -41.3940   54.1737   57.6462 C   0  0  0  0  0  0  0  0  0  0  0  0
  -42.1015   53.7558   56.3427 C   0  0  0  0  0  0  0  0  0  0  0  0
  -41.9201   52.2661   55.9948 C   0  0  0  0  0  0  0  0  0  0  0  0
  -42.4743   51.2893   57.0486 C   0  0  0  0  0  0  0  0  0  0  0  0
  -43.9927   51.4474   57.2737 C   0  0  0  0  0  0  0  0  0  0  0  0
  -44.8578   51.1899   56.0179 C   0  0  0  0  0  0  0  0  0  0  0  0
  -46.3601   51.3703   56.2647 C   0  0  0  0  0  0  0  0  0  0  0  0
  -47.2596   51.1091   55.0524 C   0  0  0  0  0  0  0  0  0  0  0  0
  -46.9093   52.0456   53.8817 C   0  0  0  0  0  0  0  0  0  0  0  0
  -47.7894   51.8446   52.6388 C   0  0  0  0  0  0  0  0  0  0  0  0
  -47.7572   50.4433   52.0199 C   0  0  0  0  0  0  0  0  0  0  0  0
  -48.6433   50.2842   50.7593 C   0  0  0  0  0  0  0  0  0  0  0  0
  -48.5776   48.8486   50.1998 C   0  0  0  0  0  0  0  0  0  0  0  0
  -49.3964   48.5511   48.9379 C   0  0  0  0  0  0  0  0  0  0  0  0
  -36.1757   56.0820   57.4502 C   0  0  0  0  0  0  0  0  0  0  0  0
  -35.1096   56.1987   56.3446 C   0  0  0  0  0  0  0  0  0  0  0  0
  -35.0532   57.5425   55.6369 C   0  0  0  0  0  0  0  0  0  0  0  0
  -34.5743   58.6778   56.5455 C   0  0  0  0  0  0  0  0  0  0  0  0
  -35.2071   58.8314   57.9386 C   0  0  1  0  0  0  0  0  0  0  0  0
  -36.6836   58.5070   57.8217 C   0  0  0  0  0  0  0  0  0  0  0  0
  -38.6628   62.6586   66.0700 C   0  0  0  0  0  0  0  0  0  0  0  0
  -36.8609   62.2055   67.4577 C   0  0  0  0  0  0  0  0  0  0  0  0
  -37.4607   62.1261   65.2416 C   0  0  1  0  0  0  0  0  0  0  0  0
  -36.5590   62.4590   69.9666 C   0  0  0  0  0  0  0  0  0  0  0  0
  -35.7441   62.3251   71.0984 C   0  0  0  0  0  0  0  0  0  0  0  0
  -34.4207   61.8681   70.9801 C   0  0  0  0  0  0  0  0  0  0  0  0
  -33.9002   61.5303   69.7296 C   0  0  0  0  0  0  0  0  0  0  0  0
  -34.7112   61.6561   68.5982 C   0  0  0  0  0  0  0  0  0  0  0  0
  -36.0350   62.1221   68.7126 C   0  0  0  0  0  0  0  0  0  0  0  0
  -40.9218   57.1844   57.5648 H   0  0  0  0  0  0  0  0  0  0  0  0
  -39.6269   58.8257   58.5680 H   0  0  0  0  0  0  0  0  0  0  0  0
  -39.5595   56.6485   59.3630 H   0  0  0  0  0  0  0  0  0  0  0  0
  -42.2762   57.7261   57.9692 H   0  0  0  0  0  0  0  0  0  0  0  0
  -41.3788   58.6106   61.2838 H   0  0  0  0  0  0  0  0  0  0  0  0
  -39.9890   59.0523   60.3369 H   0  0  0  0  0  0  0  0  0  0  0  0
  -34.7415   57.2547   59.2662 H   0  0  0  0  0  0  0  0  0  0  0  0
  -38.9421   56.8930   60.8656 H   0  0  0  0  0  0  0  0  0  0  0  0
  -40.4029   56.5177   61.8626 H   0  0  0  0  0  0  0  0  0  0  0  0
  -36.3417   59.8774   65.4429 H   0  0  0  0  0  0  0  0  0  0  0  0
  -39.5159   57.7843   63.6921 H   0  0  0  0  0  0  0  0  0  0  0  0
  -37.2771   58.6882   61.6876 H   0  0  0  0  0  0  0  0  0  0  0  0
  -37.2383   57.7881   64.4943 H   0  0  0  0  0  0  0  0  0  0  0  0
  -32.8415   58.1568   63.1215 H   0  0  0  0  0  0  0  0  0  0  0  0
  -38.1428   63.1245   70.9528 H   0  0  0  0  0  0  0  0  0  0  0  0
  -33.4856   57.0629   61.0298 H   0  0  0  0  0  0  0  0  0  0  0  0
  -31.9480   57.9275   60.8367 H   0  0  0  0  0  0  0  0  0  0  0  0
  -32.7426   60.6814   61.5711 H   0  0  0  0  0  0  0  0  0  0  0  0
  -31.3831   59.8195   62.2508 H   0  0  0  0  0  0  0  0  0  0  0  0
  -32.5924   60.5136   63.3039 H   0  0  0  0  0  0  0  0  0  0  0  0
  -41.2718   56.2241   57.0918 H   0  0  0  0  0  0  0  0  0  0  0  0
  -42.6942   55.7750   58.0714 H   0  0  0  0  0  0  0  0  0  0  0  0
  -41.7776   53.5932   58.4590 H   0  0  0  0  0  0  0  0  0  0  0  0
  -40.3422   54.0054   57.5437 H   0  0  0  0  0  0  0  0  0  0  0  0
  -41.7054   54.3417   55.5397 H   0  0  0  0  0  0  0  0  0  0  0  0
  -43.1489   53.9198   56.4869 H   0  0  0  0  0  0  0  0  0  0  0  0
  -40.8735   52.0752   55.8806 H   0  0  0  0  0  0  0  0  0  0  0  0
  -42.4785   52.0940   55.0985 H   0  0  0  0  0  0  0  0  0  0  0  0
  -41.9714   51.4664   57.9763 H   0  0  0  0  0  0  0  0  0  0  0  0
  -42.3048   50.2966   56.6871 H   0  0  0  0  0  0  0  0  0  0  0  0
  -44.1787   52.4465   57.6084 H   0  0  0  0  0  0  0  0  0  0  0  0
  -44.2724   50.7061   57.9929 H   0  0  0  0  0  0  0  0  0  0  0  0
  -44.6865   50.1865   55.6882 H   0  0  0  0  0  0  0  0  0  0  0  0
  -44.5699   51.9124   55.2831 H   0  0  0  0  0  0  0  0  0  0  0  0
  -46.5235   52.3776   56.5864 H   0  0  0  0  0  0  0  0  0  0  0  0
  -46.6295   50.6371   56.9960 H   0  0  0  0  0  0  0  0  0  0  0  0
  -48.2792   51.2702   55.3342 H   0  0  0  0  0  0  0  0  0  0  0  0
  -47.1094   50.0991   54.7327 H   0  0  0  0  0  0  0  0  0  0  0  0
  -45.8904   51.8719   53.6047 H   0  0  0  0  0  0  0  0  0  0  0  0
  -47.0776   53.0456   54.2229 H   0  0  0  0  0  0  0  0  0  0  0  0
  -47.4679   52.5407   51.8925 H   0  0  0  0  0  0  0  0  0  0  0  0
  -48.7965   51.9944   52.9678 H   0  0  0  0  0  0  0  0  0  0  0  0
  -48.0932   49.7436   52.7565 H   0  0  0  0  0  0  0  0  0  0  0  0
  -46.7483   50.2675   51.7102 H   0  0  0  0  0  0  0  0  0  0  0  0
  -48.3043   50.9661   50.0076 H   0  0  0  0  0  0  0  0  0  0  0  0
  -49.6567   50.4919   51.0328 H   0  0  0  0  0  0  0  0  0  0  0  0
  -48.9191   48.1874   50.9687 H   0  0  0  0  0  0  0  0  0  0  0  0
  -47.5577   48.7131   49.9057 H   0  0  0  0  0  0  0  0  0  0  0  0
  -50.4381   48.6663   49.1533 H   0  0  0  0  0  0  0  0  0  0  0  0
  -49.2071   47.5476   48.6183 H   0  0  0  0  0  0  0  0  0  0  0  0
  -49.1152   49.2317   48.1616 H   0  0  0  0  0  0  0  0  0  0  0  0
  -36.7702   55.2099   57.2741 H   0  0  0  0  0  0  0  0  0  0  0  0
  -35.6826   56.0104   58.3971 H   0  0  0  0  0  0  0  0  0  0  0  0
  -35.3107   55.4466   55.6106 H   0  0  0  0  0  0  0  0  0  0  0  0
  -34.1641   56.0804   56.8312 H   0  0  0  0  0  0  0  0  0  0  0  0
  -36.0334   57.7815   55.2806 H   0  0  0  0  0  0  0  0  0  0  0  0
  -34.3480   57.4536   54.8372 H   0  0  0  0  0  0  0  0  0  0  0  0
  -34.7453   59.5941   56.0200 H   0  0  0  0  0  0  0  0  0  0  0  0
  -33.5539   58.4302   56.7516 H   0  0  0  0  0  0  0  0  0  0  0  0
  -35.0959   59.8515   58.2418 H   0  0  0  0  0  0  0  0  0  0  0  0
  -38.9389   63.6378   65.7386 H   0  0  0  0  0  0  0  0  0  0  0  0
  -39.5243   62.0337   65.9599 H   0  0  0  0  0  0  0  0  0  0  0  0
  -37.2199   62.8303   64.4728 H   0  0  0  0  0  0  0  0  0  0  0  0
  -36.1200   62.5647   72.0291 H   0  0  0  0  0  0  0  0  0  0  0  0
  -33.8303   61.7817   71.8221 H   0  0  0  0  0  0  0  0  0  0  0  0
  -32.9292   61.1920   69.6417 H   0  0  0  0  0  0  0  0  0  0  0  0
  -34.3361   61.4051   67.6702 H   0  0  0  0  0  0  0  0  0  0  0  0
  1  2  1  0  0  0  0
  1  5  1  0  0  0  0
  1  7  1  0  0  0  0
  2 18  2  0  0  0  0
  2 29  1  0  0  0  0
  3 21  2  0  0  0  0
  4  6  1  0  0  0  0
  4 59  1  0  0  0  0
  4 60  1  0  0  0  0
  4 61  1  0  0  0  0
  5 62  1  0  0  0  0
  6 14  1  0  0  0  0
  7 10  1  0  0  0  0
  7 63  1  0  0  0  0
  7 64  1  0  0  0  0
  8 27  1  0  0  0  0
  8 48  1  0  0  0  0
  8 65  1  0  0  0  0
  9 21  1  0  0  0  0
  9 23  1  0  0  0  0
 10 13  1  0  0  0  0
 10 66  1  0  0  0  0
 10 67  1  0  0  0  0
 11 19  1  0  0  0  0
 11 28  1  0  0  0  0
 11 68  1  0  0  0  0
 12 27  2  0  0  0  0
 13 16  2  0  0  0  0
 13 69  1  0  0  0  0
 14 44  1  0  0  0  0
 14 49  1  0  0  0  0
 15 28  2  0  0  0  0
 16 19  1  0  0  0  0
 16 70  1  0  0  0  0
 17 51  2  0  0  0  0
 17 52  1  0  0  0  0
 19 21  1  0  0  0  0
 19 71  1  1  0  0  0
 20 49  2  0  0  0  0
 22 50  1  0  0  0  0
 22 51  1  0  0  0  0
 23 25  1  0  0  0  0
 23 26  1  0  0  0  0
 23 72  1  1  0  0  0
 24 53  1  0  0  0  0
 24 73  1  0  0  0  0
 25 27  1  0  0  0  0
 25 74  1  0  0  0  0
 25 75  1  0  0  0  0
 26 76  1  0  0  0  0
 26 77  1  0  0  0  0
 26 78  1  0  0  0  0
 28 52  1  0  0  0  0
 29 30  1  0  0  0  0
 29 79  1  0  0  0  0
 29 80  1  0  0  0  0
 30 31  1  0  0  0  0
 30 81  1  0  0  0  0
 30 82  1  0  0  0  0
 31 32  1  0  0  0  0
 31 83  1  0  0  0  0
 31 84  1  0  0  0  0
 32 33  1  0  0  0  0
 32 85  1  0  0  0  0
 32 86  1  0  0  0  0
 33 34  1  0  0  0  0
 33 87  1  0  0  0  0
 33 88  1  0  0  0  0
 34 35  1  0  0  0  0
 34 89  1  0  0  0  0
 34 90  1  0  0  0  0
 35 36  1  0  0  0  0
 35 91  1  0  0  0  0
 35 92  1  0  0  0  0
 36 37  1  0  0  0  0
 36 93  1  0  0  0  0
 36 94  1  0  0  0  0
 37 38  1  0  0  0  0
 37 95  1  0  0  0  0
 37 96  1  0  0  0  0
 38 39  1  0  0  0  0
 38 97  1  0  0  0  0
 38 98  1  0  0  0  0
 39 40  1  0  0  0  0
 39 99  1  0  0  0  0
 39100  1  0  0  0  0
 40 41  1  0  0  0  0
 40101  1  0  0  0  0
 40102  1  0  0  0  0
 41 42  1  0  0  0  0
 41103  1  0  0  0  0
 41104  1  0  0  0  0
 42 43  1  0  0  0  0
 42105  1  0  0  0  0
 42106  1  0  0  0  0
 43107  1  0  0  0  0
 43108  1  0  0  0  0
 43109  1  0  0  0  0
 44 45  1  0  0  0  0
 44110  1  0  0  0  0
 44111  1  0  0  0  0
 45 46  1  0  0  0  0
 45112  1  0  0  0  0
 45113  1  0  0  0  0
 46 47  1  0  0  0  0
 46114  1  0  0  0  0
 46115  1  0  0  0  0
 47 48  1  0  0  0  0
 47116  1  0  0  0  0
 47117  1  0  0  0  0
 48 49  1  0  0  0  0
 48118  1  1  0  0  0
 50 52  1  0  0  0  0
 50119  1  0  0  0  0
 50120  1  0  0  0  0
 51 58  1  0  0  0  0
 52121  1  6  0  0  0
 53 54  2  0  0  0  0
 53 58  1  0  0  0  0
 54 55  1  0  0  0  0
 54122  1  0  0  0  0
 55 56  2  0  0  0  0
 55123  1  0  0  0  0
 56 57  1  0  0  0  0
 56124  1  0  0  0  0
 57 58  2  0  0  0  0
 57125  1  0  0  0  0
M  END
$$$$