/media/chris/experiments/cd1a-new-docking/inputs/ligands/1xz0_ligand.pdb
 OpenBabel07022319323D

125127  0  0  1  0  0  0  0  0999 V2000
  -40.4583   57.9669   62.0097 N   0  0  0  0  0  0  0  0  0  0  0  0
  -40.7074   56.7470   62.5550 C   0  0  0  0  0  0  0  0  0  0  0  0
  -34.8470   57.1816   63.6074 O   0  0  0  0  0  0  0  0  0  0  0  0
  -26.0646   56.6632   60.8318 Si  0  0  0  0  0  0  0  0  0  0  0  0
  -40.7923   59.0897   62.7800 O   0  0  0  0  0  0  0  0  0  0  0  0
  -26.6401   58.0500   61.8022 O   0  0  0  0  0  0  0  0  0  0  0  0
  -39.8770   58.2933   60.7038 C   0  0  0  0  0  0  0  0  0  0  0  0
  -30.2848   58.6727   64.2883 N   0  0  0  0  0  0  0  0  0  0  0  0
  -34.3830   59.4453   63.6122 O   0  0  0  0  0  0  0  0  0  0  0  0
  -39.1167   59.6292   60.8329 C   0  0  0  0  0  0  0  0  0  0  0  0
  -36.8950   59.8150   64.6310 N   0  0  0  0  0  0  0  0  0  0  0  0
  -29.8497   60.1568   62.6380 O   0  0  0  0  0  0  0  0  0  0  0  0
  -37.9469   59.6864   61.8299 C   0  0  0  0  0  0  0  0  0  0  0  0
  -27.7702   57.9451   62.5557 N   0  0  0  0  0  0  0  0  0  0  0  0
  -36.8820   61.1456   66.4755 O   0  0  0  0  0  0  0  0  0  0  0  0
  -37.6390   58.4030   62.6110 C   0  0  0  0  0  0  0  0  0  0  0  0
  -35.5537   59.3463   68.0045 N   0  0  0  0  0  0  0  0  0  0  0  0
  -41.2044   56.6397   63.6759 O   0  0  0  0  0  0  0  0  0  0  0  0
  -36.7890   58.5530   63.8960 C   0  0  1  0  0  0  0  0  0  0  0  0
  -27.0489   59.6062   63.8921 O   0  0  0  0  0  0  0  0  0  0  0  0
  -35.3080   58.3090   63.6770 C   0  0  0  0  0  0  0  0  0  0  0  0
  -34.2666   57.7383   67.1386 O   0  0  0  0  0  0  0  0  0  0  0  0
  -33.0287   59.3371   64.0897 C   0  0  1  0  0  0  0  0  0  0  0  0
  -31.5891   58.3668   67.9750 O   0  0  0  0  0  0  0  0  0  0  0  0
  -32.0870   59.6220   62.9293 C   0  0  0  0  0  0  0  0  0  0  0  0
  -32.7078   60.2218   65.2880 C   0  0  0  0  0  0  0  0  0  0  0  0
  -30.6302   59.5205   63.3084 C   0  0  0  0  0  0  0  0  0  0  0  0
  -36.7626   60.0473   65.9485 C   0  0  0  0  0  0  0  0  0  0  0  0
  -40.3534   55.4899   61.7535 C   0  0  0  0  0  0  0  0  0  0  0  0
  -39.3380   54.5646   62.4379 C   0  0  0  0  0  0  0  0  0  0  0  0
  -39.8995   54.0672   63.7838 C   0  0  0  0  0  0  0  0  0  0  0  0
  -38.9338   53.1424   64.5490 C   0  0  0  0  0  0  0  0  0  0  0  0
  -37.5876   53.7899   64.9238 C   0  0  0  0  0  0  0  0  0  0  0  0
  -36.7958   54.2828   63.6945 C   0  0  0  0  0  0  0  0  0  0  0  0
  -35.4286   54.9246   64.0270 C   0  0  0  0  0  0  0  0  0  0  0  0
  -34.4618   53.9682   64.7347 C   0  0  0  0  0  0  0  0  0  0  0  0
  -34.0871   52.7108   63.9437 C   0  0  0  0  0  0  0  0  0  0  0  0
  -35.3321   51.8731   63.5991 C   0  0  0  0  0  0  0  0  0  0  0  0
  -35.0206   50.5869   62.8190 C   0  0  0  0  0  0  0  0  0  0  0  0
  -36.2319   49.7290   62.4391 C   0  0  0  0  0  0  0  0  0  0  0  0
  -37.0686   49.2394   63.6474 C   0  0  0  0  0  0  0  0  0  0  0  0
  -38.2588   48.3693   63.1951 C   0  0  0  0  0  0  0  0  0  0  0  0
  -39.2779   49.0151   62.2486 C   0  0  0  0  0  0  0  0  0  0  0  0
  -28.8098   57.0220   62.0771 C   0  0  0  0  0  0  0  0  0  0  0  0
  -28.9351   55.8078   63.0167 C   0  0  0  0  0  0  0  0  0  0  0  0
  -28.1259   55.8944   64.3002 C   0  0  0  0  0  0  0  0  0  0  0  0
  -28.6297   56.9815   65.2532 C   0  0  0  0  0  0  0  0  0  0  0  0
  -28.9043   58.3883   64.6963 C   0  0  1  0  0  0  0  0  0  0  0  0
  -27.8390   58.7005   63.6636 C   0  0  0  0  0  0  0  0  0  0  0  0
  -35.3893   57.7911   66.2593 C   0  0  0  0  0  0  0  0  0  0  0  0
  -34.4570   58.7375   68.1601 C   0  0  0  0  0  0  0  0  0  0  0  0
  -36.3268   58.8890   66.8341 C   0  0  1  0  0  0  0  0  0  0  0  0
  -32.1117   58.7873   69.1333 C   0  0  0  0  0  0  0  0  0  0  0  0
  -31.2666   59.0531   70.2187 C   0  0  0  0  0  0  0  0  0  0  0  0
  -31.7915   59.4864   71.4479 C   0  0  0  0  0  0  0  0  0  0  0  0
  -33.1669   59.6684   71.6027 C   0  0  0  0  0  0  0  0  0  0  0  0
  -34.0136   59.4107   70.5210 C   0  0  0  0  0  0  0  0  0  0  0  0
  -33.4913   58.9679   69.2906 C   0  0  0  0  0  0  0  0  0  0  0  0
  -24.8772   57.0274   60.1434 H   0  0  0  0  0  0  0  0  0  0  0  0
  -27.0634   56.2967   59.8913 H   0  0  0  0  0  0  0  0  0  0  0  0
  -25.7962   55.5640   61.6898 H   0  0  0  0  0  0  0  0  0  0  0  0
  -41.1693   58.8010   63.6258 H   0  0  0  0  0  0  0  0  0  0  0  0
  -40.6547   58.3884   59.9751 H   0  0  0  0  0  0  0  0  0  0  0  0
  -39.2091   57.5172   60.3930 H   0  0  0  0  0  0  0  0  0  0  0  0
  -31.0085   58.2084   64.7678 H   0  0  0  0  0  0  0  0  0  0  0  0
  -39.8257   60.3744   61.1275 H   0  0  0  0  0  0  0  0  0  0  0  0
  -38.6659   59.7803   59.8743 H   0  0  0  0  0  0  0  0  0  0  0  0
  -37.0915   60.6076   64.0811 H   0  0  0  0  0  0  0  0  0  0  0  0
  -37.3952   60.5477   61.9667 H   0  0  0  0  0  0  0  0  0  0  0  0
  -37.9824   57.4826   62.2948 H   0  0  0  0  0  0  0  0  0  0  0  0
  -37.2383   57.7881   64.4943 H   0  0  0  0  0  0  0  0  0  0  0  0
  -32.8974   58.3396   64.4539 H   0  0  0  0  0  0  0  0  0  0  0  0
  -30.6626   58.2530   67.8930 H   0  0  0  0  0  0  0  0  0  0  0  0
  -32.2774   60.6124   62.5720 H   0  0  0  0  0  0  0  0  0  0  0  0
  -32.2731   58.8819   62.1793 H   0  0  0  0  0  0  0  0  0  0  0  0
  -32.8148   61.2498   65.0111 H   0  0  0  0  0  0  0  0  0  0  0  0
  -31.7023   60.0408   65.6060 H   0  0  0  0  0  0  0  0  0  0  0  0
  -33.3811   59.9961   66.0884 H   0  0  0  0  0  0  0  0  0  0  0  0
  -39.9454   55.7968   60.8132 H   0  0  0  0  0  0  0  0  0  0  0  0
  -41.2583   54.9278   61.6530 H   0  0  0  0  0  0  0  0  0  0  0  0
  -38.4292   55.1023   62.6104 H   0  0  0  0  0  0  0  0  0  0  0  0
  -39.1482   53.7232   61.8047 H   0  0  0  0  0  0  0  0  0  0  0  0
  -40.8050   53.5294   63.5949 H   0  0  0  0  0  0  0  0  0  0  0  0
  -40.0598   54.9301   64.3959 H   0  0  0  0  0  0  0  0  0  0  0  0
  -38.7342   52.2882   63.9363 H   0  0  0  0  0  0  0  0  0  0  0  0
  -39.4179   52.8943   65.4704 H   0  0  0  0  0  0  0  0  0  0  0  0
  -36.9946   53.0676   65.4448 H   0  0  0  0  0  0  0  0  0  0  0  0
  -37.8003   54.6439   65.5324 H   0  0  0  0  0  0  0  0  0  0  0  0
  -37.3910   55.0103   63.1834 H   0  0  0  0  0  0  0  0  0  0  0  0
  -36.5890   53.4180   63.0992 H   0  0  0  0  0  0  0  0  0  0  0  0
  -35.5961   55.7689   64.6626 H   0  0  0  0  0  0  0  0  0  0  0  0
  -34.9755   55.2007   63.0979 H   0  0  0  0  0  0  0  0  0  0  0  0
  -34.9163   53.6581   65.6524 H   0  0  0  0  0  0  0  0  0  0  0  0
  -33.5517   54.5145   64.8697 H   0  0  0  0  0  0  0  0  0  0  0  0
  -33.4189   52.1162   64.5310 H   0  0  0  0  0  0  0  0  0  0  0  0
  -33.6213   53.0141   63.0295 H   0  0  0  0  0  0  0  0  0  0  0  0
  -35.9899   52.4750   63.0075 H   0  0  0  0  0  0  0  0  0  0  0  0
  -35.7720   51.5743   64.5276 H   0  0  0  0  0  0  0  0  0  0  0  0
  -34.3691   49.9877   63.4202 H   0  0  0  0  0  0  0  0  0  0  0  0
  -34.5876   50.9052   61.8937 H   0  0  0  0  0  0  0  0  0  0  0  0
  -35.8808   48.8711   61.9046 H   0  0  0  0  0  0  0  0  0  0  0  0
  -36.8754   50.3496   61.8513 H   0  0  0  0  0  0  0  0  0  0  0  0
  -37.4417   50.0895   64.1793 H   0  0  0  0  0  0  0  0  0  0  0  0
  -36.4372   48.6449   64.2742 H   0  0  0  0  0  0  0  0  0  0  0  0
  -38.7855   48.0619   64.0742 H   0  0  0  0  0  0  0  0  0  0  0  0
  -37.8205   47.5746   62.6283 H   0  0  0  0  0  0  0  0  0  0  0  0
  -39.7636   49.8273   62.7479 H   0  0  0  0  0  0  0  0  0  0  0  0
  -40.0069   48.2873   61.9591 H   0  0  0  0  0  0  0  0  0  0  0  0
  -38.7744   49.3813   61.3784 H   0  0  0  0  0  0  0  0  0  0  0  0
  -28.5525   56.6817   61.0959 H   0  0  0  0  0  0  0  0  0  0  0  0
  -29.7462   57.5394   62.0572 H   0  0  0  0  0  0  0  0  0  0  0  0
  -28.6126   54.9400   62.4803 H   0  0  0  0  0  0  0  0  0  0  0  0
  -29.9618   55.7696   63.3158 H   0  0  0  0  0  0  0  0  0  0  0  0
  -27.1081   56.1073   64.0478 H   0  0  0  0  0  0  0  0  0  0  0  0
  -28.2247   54.9559   64.8045 H   0  0  0  0  0  0  0  0  0  0  0  0
  -27.8964   57.0868   66.0253 H   0  0  0  0  0  0  0  0  0  0  0  0
  -29.5942   56.6315   65.5568 H   0  0  0  0  0  0  0  0  0  0  0  0
  -28.8236   59.0854   65.5041 H   0  0  0  0  0  0  0  0  0  0  0  0
  -35.8910   56.8463   66.2386 H   0  0  0  0  0  0  0  0  0  0  0  0
  -35.0928   58.0129   65.2554 H   0  0  0  0  0  0  0  0  0  0  0  0
  -37.2941   58.4696   67.0166 H   0  0  0  0  0  0  0  0  0  0  0  0
  -30.2474   58.9293   70.1142 H   0  0  0  0  0  0  0  0  0  0  0  0
  -31.1569   59.6710   72.2405 H   0  0  0  0  0  0  0  0  0  0  0  0
  -33.5534   59.9892   72.5042 H   0  0  0  0  0  0  0  0  0  0  0  0
  -35.0314   59.5461   70.6251 H   0  0  0  0  0  0  0  0  0  0  0  0
  1  2  1  0  0  0  0
  1  5  1  0  0  0  0
  1  7  1  0  0  0  0
  2 18  2  0  0  0  0
  2 29  1  0  0  0  0
  3 21  2  0  0  0  0
  4  6  1  0  0  0  0
  4 59  1  0  0  0  0
  4 60  1  0  0  0  0
  4 61  1  0  0  0  0
  5 62  1  0  0  0  0
  6 14  1  0  0  0  0
  7 10  1  0  0  0  0
  7 63  1  0  0  0  0
  7 64  1  0  0  0  0
  8 27  1  0  0  0  0
  8 48  1  0  0  0  0
  8 65  1  0  0  0  0
  9 21  1  0  0  0  0
  9 23  1  0  0  0  0
 10 13  1  0  0  0  0
 10 66  1  0  0  0  0
 10 67  1  0  0  0  0
 11 19  1  0  0  0  0
 11 28  1  0  0  0  0
 11 68  1  0  0  0  0
 12 27  2  0  0  0  0
 13 16  2  0  0  0  0
 13 69  1  0  0  0  0
 14 44  1  0  0  0  0
 14 49  1  0  0  0  0
 15 28  2  0  0  0  0
 16 19  1  0  0  0  0
 16 70  1  0  0  0  0
 17 51  2  0  0  0  0
 17 52  1  0  0  0  0
 19 21  1  0  0  0  0
 19 71  1  1  0  0  0
 20 49  2  0  0  0  0
 22 50  1  0  0  0  0
 22 51  1  0  0  0  0
 23 25  1  0  0  0  0
 23 26  1  0  0  0  0
 23 72  1  1  0  0  0
 24 53  1  0  0  0  0
 24 73  1  0  0  0  0
 25 27  1  0  0  0  0
 25 74  1  0  0  0  0
 25 75  1  0  0  0  0
 26 76  1  0  0  0  0
 26 77  1  0  0  0  0
 26 78  1  0  0  0  0
 28 52  1  0  0  0  0
 29 30  1  0  0  0  0
 29 79  1  0  0  0  0
 29 80  1  0  0  0  0
 30 31  1  0  0  0  0
 30 81  1  0  0  0  0
 30 82  1  0  0  0  0
 31 32  1  0  0  0  0
 31 83  1  0  0  0  0
 31 84  1  0  0  0  0
 32 33  1  0  0  0  0
 32 85  1  0  0  0  0
 32 86  1  0  0  0  0
 33 34  1  0  0  0  0
 33 87  1  0  0  0  0
 33 88  1  0  0  0  0
 34 35  1  0  0  0  0
 34 89  1  0  0  0  0
 34 90  1  0  0  0  0
 35 36  1  0  0  0  0
 35 91  1  0  0  0  0
 35 92  1  0  0  0  0
 36 37  1  0  0  0  0
 36 93  1  0  0  0  0
 36 94  1  0  0  0  0
 37 38  1  0  0  0  0
 37 95  1  0  0  0  0
 37 96  1  0  0  0  0
 38 39  1  0  0  0  0
 38 97  1  0  0  0  0
 38 98  1  0  0  0  0
 39 40  1  0  0  0  0
 39 99  1  0  0  0  0
 39100  1  0  0  0  0
 40 41  1  0  0  0  0
 40101  1  0  0  0  0
 40102  1  0  0  0  0
 41 42  1  0  0  0  0
 41103  1  0  0  0  0
 41104  1  0  0  0  0
 42 43  1  0  0  0  0
 42105  1  0  0  0  0
 42106  1  0  0  0  0
 43107  1  0  0  0  0
 43108  1  0  0  0  0
 43109  1  0  0  0  0
 44 45  1  0  0  0  0
 44110  1  0  0  0  0
 44111  1  0  0  0  0
 45 46  1  0  0  0  0
 45112  1  0  0  0  0
 45113  1  0  0  0  0
 46 47  1  0  0  0  0
 46114  1  0  0  0  0
 46115  1  0  0  0  0
 47 48  1  0  0  0  0
 47116  1  0  0  0  0
 47117  1  0  0  0  0
 48 49  1  0  0  0  0
 48118  1  1  0  0  0
 50 52  1  0  0  0  0
 50119  1  0  0  0  0
 50120  1  0  0  0  0
 51 58  1  0  0  0  0
 52121  1  1  0  0  0
 53 54  2  0  0  0  0
 53 58  1  0  0  0  0
 54 55  1  0  0  0  0
 54122  1  0  0  0  0
 55 56  2  0  0  0  0
 55123  1  0  0  0  0
 56 57  1  0  0  0  0
 56124  1  0  0  0  0
 57 58  2  0  0  0  0
 57125  1  0  0  0  0
M  END
$$$$