/media/chris/experiments/cd1a-new-docking/inputs/ligands/1xz0_ligand.pdb
 OpenBabel07022319323D

125127  0  0  1  0  0  0  0  0999 V2000
  -39.5416   57.5022   58.6965 N   0  0  0  0  0  0  0  0  0  0  0  0
  -38.8020   57.5143   57.5561 C   0  0  0  0  0  0  0  0  0  0  0  0
  -34.4677   58.7167   64.4620 O   0  0  0  0  0  0  0  0  0  0  0  0
  -32.5268   54.8638   68.6823 Si  0  0  0  0  0  0  0  0  0  0  0  0
  -40.8456   56.9954   58.6053 O   0  0  0  0  0  0  0  0  0  0  0  0
  -33.1471   53.2351   68.2842 O   0  0  0  0  0  0  0  0  0  0  0  0
  -39.1706   57.9501   60.0425 C   0  0  0  0  0  0  0  0  0  0  0  0
  -34.4399   53.2251   64.0202 N   0  0  0  0  0  0  0  0  0  0  0  0
  -34.8529   57.6257   62.4617 O   0  0  0  0  0  0  0  0  0  0  0  0
  -38.5576   56.7536   60.7988 C   0  0  0  0  0  0  0  0  0  0  0  0
  -36.8950   59.8150   64.6310 N   0  0  0  0  0  0  0  0  0  0  0  0
  -33.7482   53.5290   61.8884 O   0  0  0  0  0  0  0  0  0  0  0  0
  -38.1064   56.9875   62.2504 C   0  0  0  0  0  0  0  0  0  0  0  0
  -33.6735   52.9773   67.0543 N   0  0  0  0  0  0  0  0  0  0  0  0
  -38.5876   59.4141   66.0963 O   0  0  0  0  0  0  0  0  0  0  0  0
  -37.6390   58.4030   62.6110 C   0  0  0  0  0  0  0  0  0  0  0  0
  -38.6382   62.4583   65.3984 N   0  0  0  0  0  0  0  0  0  0  0  0
  -39.2627   57.0974   56.4937 O   0  0  0  0  0  0  0  0  0  0  0  0
  -36.7890   58.5530   63.8960 C   0  0  1  0  0  0  0  0  0  0  0  0
  -34.1629   55.1584   66.7924 O   0  0  0  0  0  0  0  0  0  0  0  0
  -35.3080   58.3090   63.6770 C   0  0  0  0  0  0  0  0  0  0  0  0
  -36.7170   63.5949   65.3031 O   0  0  0  0  0  0  0  0  0  0  0  0
  -34.0764   56.4147   62.5292 C   0  0  1  0  0  0  0  0  0  0  0  0
  -40.9376   63.4491   64.3086 O   0  0  0  0  0  0  0  0  0  0  0  0
  -35.0244   55.2504   62.7742 C   0  0  0  0  0  0  0  0  0  0  0  0
  -33.1953   56.1597   61.3125 C   0  0  0  0  0  0  0  0  0  0  0  0
  -34.3175   53.9218   62.8809 C   0  0  0  0  0  0  0  0  0  0  0  0
  -37.7336   60.1539   65.6256 C   0  0  0  0  0  0  0  0  0  0  0  0
  -37.3685   58.0532   57.6074 C   0  0  0  0  0  0  0  0  0  0  0  0
  -37.2444   59.5572   57.3281 C   0  0  0  0  0  0  0  0  0  0  0  0
  -35.7655   59.9856   57.3876 C   0  0  0  0  0  0  0  0  0  0  0  0
  -34.8766   59.2726   56.3509 C   0  0  0  0  0  0  0  0  0  0  0  0
  -33.3894   59.6700   56.3999 C   0  0  0  0  0  0  0  0  0  0  0  0
  -32.5394   58.9461   55.3347 C   0  0  0  0  0  0  0  0  0  0  0  0
  -32.5576   57.4033   55.4389 C   0  0  0  0  0  0  0  0  0  0  0  0
  -31.6920   56.7101   54.3803 C   0  0  0  0  0  0  0  0  0  0  0  0
  -31.6921   55.1791   54.4334 C   0  0  0  0  0  0  0  0  0  0  0  0
  -31.1868   54.6648   55.7938 C   0  0  0  0  0  0  0  0  0  0  0  0
  -31.1466   53.1332   55.9046 C   0  0  0  0  0  0  0  0  0  0  0  0
  -30.2356   52.4170   54.9022 C   0  0  0  0  0  0  0  0  0  0  0  0
  -30.2348   50.8735   55.0335 C   0  0  0  0  0  0  0  0  0  0  0  0
  -31.6411   50.2856   54.7993 C   0  0  0  0  0  0  0  0  0  0  0  0
  -32.7615   50.7578   55.7337 C   0  0  0  0  0  0  0  0  0  0  0  0
  -33.5305   51.6076   66.5394 C   0  0  0  0  0  0  0  0  0  0  0  0
  -34.8988   50.9027   66.4783 C   0  0  0  0  0  0  0  0  0  0  0  0
  -36.0986   51.7886   66.7707 C   0  0  0  0  0  0  0  0  0  0  0  0
  -36.3341   52.8517   65.6945 C   0  0  0  0  0  0  0  0  0  0  0  0
  -35.1444   53.7006   65.2163 C   0  0  1  0  0  0  0  0  0  0  0  0
  -34.2679   53.9988   66.4171 C   0  0  0  0  0  0  0  0  0  0  0  0
  -36.3795   62.4085   66.0208 C   0  0  0  0  0  0  0  0  0  0  0  0
  -38.1139   63.5197   64.9556 C   0  0  0  0  0  0  0  0  0  0  0  0
  -37.6957   61.5896   66.1290 C   0  0  1  0  0  0  0  0  0  0  0  0
  -40.2192   64.5186   63.9456 C   0  0  0  0  0  0  0  0  0  0  0  0
  -40.8456   65.5805   63.2802 C   0  0  0  0  0  0  0  0  0  0  0  0
  -40.1117   66.7100   62.8804 C   0  0  0  0  0  0  0  0  0  0  0  0
  -38.7447   66.7948   63.1503 C   0  0  0  0  0  0  0  0  0  0  0  0
  -38.1164   65.7408   63.8195 C   0  0  0  0  0  0  0  0  0  0  0  0
  -38.8475   64.6038   64.2137 C   0  0  0  0  0  0  0  0  0  0  0  0
  -32.0359   54.8706   70.0148 H   0  0  0  0  0  0  0  0  0  0  0  0
  -33.5759   55.8129   68.5596 H   0  0  0  0  0  0  0  0  0  0  0  0
  -31.4760   55.2015   67.7890 H   0  0  0  0  0  0  0  0  0  0  0  0
  -41.0221   56.7195   57.6923 H   0  0  0  0  0  0  0  0  0  0  0  0
  -40.0397   58.2987   60.5603 H   0  0  0  0  0  0  0  0  0  0  0  0
  -38.4630   58.7505   59.9829 H   0  0  0  0  0  0  0  0  0  0  0  0
  -34.0282   52.3315   64.0566 H   0  0  0  0  0  0  0  0  0  0  0  0
  -37.7013   56.4291   60.2452 H   0  0  0  0  0  0  0  0  0  0  0  0
  -39.3523   56.0407   60.8716 H   0  0  0  0  0  0  0  0  0  0  0  0
  -36.2607   60.5165   64.3574 H   0  0  0  0  0  0  0  0  0  0  0  0
  -38.1176   56.2279   62.9488 H   0  0  0  0  0  0  0  0  0  0  0  0
  -37.8799   59.2173   62.0245 H   0  0  0  0  0  0  0  0  0  0  0  0
  -37.2383   57.7881   64.4943 H   0  0  0  0  0  0  0  0  0  0  0  0
  -33.3853   56.5234   63.3388 H   0  0  0  0  0  0  0  0  0  0  0  0
  -41.8545   63.4142   64.1187 H   0  0  0  0  0  0  0  0  0  0  0  0
  -35.7199   55.2014   61.9626 H   0  0  0  0  0  0  0  0  0  0  0  0
  -35.5113   55.4280   63.7102 H   0  0  0  0  0  0  0  0  0  0  0  0
  -33.8108   56.0374   60.4458 H   0  0  0  0  0  0  0  0  0  0  0  0
  -32.6193   55.2717   61.4691 H   0  0  0  0  0  0  0  0  0  0  0  0
  -32.5372   56.9909   61.1682 H   0  0  0  0  0  0  0  0  0  0  0  0
  -36.7878   57.5286   56.8776 H   0  0  0  0  0  0  0  0  0  0  0  0
  -37.0208   57.8993   58.6075 H   0  0  0  0  0  0  0  0  0  0  0  0
  -37.8003   60.1008   58.0632 H   0  0  0  0  0  0  0  0  0  0  0  0
  -37.6309   59.7657   56.3524 H   0  0  0  0  0  0  0  0  0  0  0  0
  -35.3885   59.7664   58.3647 H   0  0  0  0  0  0  0  0  0  0  0  0
  -35.7319   61.0315   57.1644 H   0  0  0  0  0  0  0  0  0  0  0  0
  -35.2514   59.5025   55.3754 H   0  0  0  0  0  0  0  0  0  0  0  0
  -34.9192   58.2287   56.5818 H   0  0  0  0  0  0  0  0  0  0  0  0
  -33.0028   59.4276   57.3677 H   0  0  0  0  0  0  0  0  0  0  0  0
  -33.3305   60.7193   56.1991 H   0  0  0  0  0  0  0  0  0  0  0  0
  -31.5264   59.2759   55.4349 H   0  0  0  0  0  0  0  0  0  0  0  0
  -32.9676   59.1919   54.3854 H   0  0  0  0  0  0  0  0  0  0  0  0
  -33.5671   57.0677   55.3242 H   0  0  0  0  0  0  0  0  0  0  0  0
  -32.1518   57.1470   56.3953 H   0  0  0  0  0  0  0  0  0  0  0  0
  -30.6837   57.0451   54.5070 H   0  0  0  0  0  0  0  0  0  0  0  0
  -32.1159   56.9730   53.4337 H   0  0  0  0  0  0  0  0  0  0  0  0
  -31.0543   54.8038   53.6606 H   0  0  0  0  0  0  0  0  0  0  0  0
  -32.6965   54.8371   54.2958 H   0  0  0  0  0  0  0  0  0  0  0  0
  -31.8346   55.0410   56.5579 H   0  0  0  0  0  0  0  0  0  0  0  0
  -30.1799   55.0105   55.9020 H   0  0  0  0  0  0  0  0  0  0  0  0
  -32.1422   52.7674   55.7633 H   0  0  0  0  0  0  0  0  0  0  0  0
  -30.7390   52.9217   56.8710 H   0  0  0  0  0  0  0  0  0  0  0  0
  -29.2351   52.7666   55.0491 H   0  0  0  0  0  0  0  0  0  0  0  0
  -30.6151   52.6419   53.9273 H   0  0  0  0  0  0  0  0  0  0  0  0
  -29.9065   50.6084   56.0168 H   0  0  0  0  0  0  0  0  0  0  0  0
  -29.5759   50.4737   54.2913 H   0  0  0  0  0  0  0  0  0  0  0  0
  -31.5664   49.2227   54.8974 H   0  0  0  0  0  0  0  0  0  0  0  0
  -31.9271   50.6320   53.8281 H   0  0  0  0  0  0  0  0  0  0  0  0
  -32.5461   50.4466   56.7346 H   0  0  0  0  0  0  0  0  0  0  0  0
  -33.6912   50.3312   55.4199 H   0  0  0  0  0  0  0  0  0  0  0  0
  -32.8290   51.8251   55.6988 H   0  0  0  0  0  0  0  0  0  0  0  0
  -32.8798   51.0558   67.1852 H   0  0  0  0  0  0  0  0  0  0  0  0
  -33.1226   51.6526   65.5512 H   0  0  0  0  0  0  0  0  0  0  0  0
  -34.8931   50.1070   67.1936 H   0  0  0  0  0  0  0  0  0  0  0  0
  -35.0156   50.5698   65.4681 H   0  0  0  0  0  0  0  0  0  0  0  0
  -35.9387   52.2810   67.7071 H   0  0  0  0  0  0  0  0  0  0  0  0
  -36.9634   51.1588   66.7929 H   0  0  0  0  0  0  0  0  0  0  0  0
  -37.0693   53.5284   66.0771 H   0  0  0  0  0  0  0  0  0  0  0  0
  -36.6115   52.2861   64.8296 H   0  0  0  0  0  0  0  0  0  0  0  0
  -35.5293   54.6200   64.8271 H   0  0  0  0  0  0  0  0  0  0  0  0
  -36.0127   62.6543   66.9955 H   0  0  0  0  0  0  0  0  0  0  0  0
  -35.6105   61.8538   65.5250 H   0  0  0  0  0  0  0  0  0  0  0  0
  -37.9066   61.3912   67.1591 H   0  0  0  0  0  0  0  0  0  0  0  0
  -41.8572   65.5327   63.0816 H   0  0  0  0  0  0  0  0  0  0  0  0
  -40.5857   67.4810   62.3845 H   0  0  0  0  0  0  0  0  0  0  0  0
  -38.2050   67.6250   62.8595 H   0  0  0  0  0  0  0  0  0  0  0  0
  -37.1070   65.7964   64.0267 H   0  0  0  0  0  0  0  0  0  0  0  0
  1  2  1  0  0  0  0
  1  5  1  0  0  0  0
  1  7  1  0  0  0  0
  2 18  2  0  0  0  0
  2 29  1  0  0  0  0
  3 21  2  0  0  0  0
  4  6  1  0  0  0  0
  4 59  1  0  0  0  0
  4 60  1  0  0  0  0
  4 61  1  0  0  0  0
  5 62  1  0  0  0  0
  6 14  1  0  0  0  0
  7 10  1  0  0  0  0
  7 63  1  0  0  0  0
  7 64  1  0  0  0  0
  8 27  1  0  0  0  0
  8 48  1  0  0  0  0
  8 65  1  0  0  0  0
  9 21  1  0  0  0  0
  9 23  1  0  0  0  0
 10 13  1  0  0  0  0
 10 66  1  0  0  0  0
 10 67  1  0  0  0  0
 11 19  1  0  0  0  0
 11 28  1  0  0  0  0
 11 68  1  0  0  0  0
 12 27  2  0  0  0  0
 13 16  2  0  0  0  0
 13 69  1  0  0  0  0
 14 44  1  0  0  0  0
 14 49  1  0  0  0  0
 15 28  2  0  0  0  0
 16 19  1  0  0  0  0
 16 70  1  0  0  0  0
 17 51  2  0  0  0  0
 17 52  1  0  0  0  0
 19 21  1  0  0  0  0
 19 71  1  1  0  0  0
 20 49  2  0  0  0  0
 22 50  1  0  0  0  0
 22 51  1  0  0  0  0
 23 25  1  0  0  0  0
 23 26  1  0  0  0  0
 23 72  1  1  0  0  0
 24 53  1  0  0  0  0
 24 73  1  0  0  0  0
 25 27  1  0  0  0  0
 25 74  1  0  0  0  0
 25 75  1  0  0  0  0
 26 76  1  0  0  0  0
 26 77  1  0  0  0  0
 26 78  1  0  0  0  0
 28 52  1  0  0  0  0
 29 30  1  0  0  0  0
 29 79  1  0  0  0  0
 29 80  1  0  0  0  0
 30 31  1  0  0  0  0
 30 81  1  0  0  0  0
 30 82  1  0  0  0  0
 31 32  1  0  0  0  0
 31 83  1  0  0  0  0
 31 84  1  0  0  0  0
 32 33  1  0  0  0  0
 32 85  1  0  0  0  0
 32 86  1  0  0  0  0
 33 34  1  0  0  0  0
 33 87  1  0  0  0  0
 33 88  1  0  0  0  0
 34 35  1  0  0  0  0
 34 89  1  0  0  0  0
 34 90  1  0  0  0  0
 35 36  1  0  0  0  0
 35 91  1  0  0  0  0
 35 92  1  0  0  0  0
 36 37  1  0  0  0  0
 36 93  1  0  0  0  0
 36 94  1  0  0  0  0
 37 38  1  0  0  0  0
 37 95  1  0  0  0  0
 37 96  1  0  0  0  0
 38 39  1  0  0  0  0
 38 97  1  0  0  0  0
 38 98  1  0  0  0  0
 39 40  1  0  0  0  0
 39 99  1  0  0  0  0
 39100  1  0  0  0  0
 40 41  1  0  0  0  0
 40101  1  0  0  0  0
 40102  1  0  0  0  0
 41 42  1  0  0  0  0
 41103  1  0  0  0  0
 41104  1  0  0  0  0
 42 43  1  0  0  0  0
 42105  1  0  0  0  0
 42106  1  0  0  0  0
 43107  1  0  0  0  0
 43108  1  0  0  0  0
 43109  1  0  0  0  0
 44 45  1  0  0  0  0
 44110  1  0  0  0  0
 44111  1  0  0  0  0
 45 46  1  0  0  0  0
 45112  1  0  0  0  0
 45113  1  0  0  0  0
 46 47  1  0  0  0  0
 46114  1  0  0  0  0
 46115  1  0  0  0  0
 47 48  1  0  0  0  0
 47116  1  0  0  0  0
 47117  1  0  0  0  0
 48 49  1  0  0  0  0
 48118  1  6  0  0  0
 50 52  1  0  0  0  0
 50119  1  0  0  0  0
 50120  1  0  0  0  0
 51 58  1  0  0  0  0
 52121  1  1  0  0  0
 53 54  2  0  0  0  0
 53 58  1  0  0  0  0
 54 55  1  0  0  0  0
 54122  1  0  0  0  0
 55 56  2  0  0  0  0
 55123  1  0  0  0  0
 56 57  1  0  0  0  0
 56124  1  0  0  0  0
 57 58  2  0  0  0  0
 57125  1  0  0  0  0
M  END
$$$$