/media/chris/experiments/cd1a-new-docking/inputs/ligands/1xz0_ligand.pdb
 OpenBabel07022319323D

125127  0  0  1  0  0  0  0  0999 V2000
  -41.2793   56.3510   62.9529 N   0  0  0  0  0  0  0  0  0  0  0  0
  -41.4225   55.2667   63.7600 C   0  0  0  0  0  0  0  0  0  0  0  0
  -34.5332   58.1855   64.6113 O   0  0  0  0  0  0  0  0  0  0  0  0
  -36.6980   60.2253   55.5781 Si  0  0  0  0  0  0  0  0  0  0  0  0
  -41.9890   57.5072   63.3066 O   0  0  0  0  0  0  0  0  0  0  0  0
  -37.2648   60.0038   57.2591 O   0  0  0  0  0  0  0  0  0  0  0  0
  -40.4727   56.4971   61.7372 C   0  0  0  0  0  0  0  0  0  0  0  0
  -34.3438   57.6588   59.6717 N   0  0  0  0  0  0  0  0  0  0  0  0
  -34.7660   58.2851   62.3144 O   0  0  0  0  0  0  0  0  0  0  0  0
  -40.0251   57.9692   61.6276 C   0  0  0  0  0  0  0  0  0  0  0  0
  -36.8950   59.8150   64.6310 N   0  0  0  0  0  0  0  0  0  0  0  0
  -32.6100   56.2100   59.5679 O   0  0  0  0  0  0  0  0  0  0  0  0
  -39.1591   58.5341   62.7662 C   0  0  0  0  0  0  0  0  0  0  0  0
  -36.6142   59.1538   58.1018 N   0  0  0  0  0  0  0  0  0  0  0  0
  -35.2587   61.0902   63.6986 O   0  0  0  0  0  0  0  0  0  0  0  0
  -37.6390   58.4030   62.6110 C   0  0  0  0  0  0  0  0  0  0  0  0
  -35.2204   62.4137   66.2625 N   0  0  0  0  0  0  0  0  0  0  0  0
  -42.1448   55.3048   64.7558 O   0  0  0  0  0  0  0  0  0  0  0  0
  -36.7890   58.5530   63.8960 C   0  0  1  0  0  0  0  0  0  0  0  0
  -35.0029   58.8400   56.5621 O   0  0  0  0  0  0  0  0  0  0  0  0
  -35.3080   58.3090   63.6770 C   0  0  0  0  0  0  0  0  0  0  0  0
  -36.7793   62.1456   67.8405 O   0  0  0  0  0  0  0  0  0  0  0  0
  -33.4308   58.7440   62.0310 C   0  0  1  0  0  0  0  0  0  0  0  0
  -35.8680   62.5220   70.3720 O   0  0  0  0  0  0  0  0  0  0  0  0
  -32.6435   57.5881   61.4324 C   0  0  0  0  0  0  0  0  0  0  0  0
  -33.3619   59.9768   61.1381 C   0  0  0  0  0  0  0  0  0  0  0  0
  -33.2331   57.0731   60.1427 C   0  0  0  0  0  0  0  0  0  0  0  0
  -36.1713   60.9404   64.5004 C   0  0  0  0  0  0  0  0  0  0  0  0
  -40.6615   53.9815   63.4177 C   0  0  0  0  0  0  0  0  0  0  0  0
  -40.9111   52.8178   64.3866 C   0  0  0  0  0  0  0  0  0  0  0  0
  -40.0866   51.5882   63.9594 C   0  0  0  0  0  0  0  0  0  0  0  0
  -40.4150   51.0909   62.5388 C   0  0  0  0  0  0  0  0  0  0  0  0
  -40.1542   52.1198   61.4229 C   0  0  0  0  0  0  0  0  0  0  0  0
  -38.6765   52.5570   61.3430 C   0  0  0  0  0  0  0  0  0  0  0  0
  -38.3754   53.6037   60.2451 C   0  0  0  0  0  0  0  0  0  0  0  0
  -38.7280   53.1243   58.8323 C   0  0  0  0  0  0  0  0  0  0  0  0
  -40.2033   52.7788   58.6063 C   0  0  0  0  0  0  0  0  0  0  0  0
  -40.4516   52.2927   57.1668 C   0  0  0  0  0  0  0  0  0  0  0  0
  -41.9186   51.9458   56.8711 C   0  0  0  0  0  0  0  0  0  0  0  0
  -42.5331   50.8496   57.7477 C   0  0  0  0  0  0  0  0  0  0  0  0
  -44.0073   50.5158   57.4086 C   0  0  0  0  0  0  0  0  0  0  0  0
  -44.1530   50.0090   55.9594 C   0  0  0  0  0  0  0  0  0  0  0  0
  -45.5661   49.6554   55.4804 C   0  0  0  0  0  0  0  0  0  0  0  0
  -37.1545   59.0173   59.4624 C   0  0  0  0  0  0  0  0  0  0  0  0
  -37.7561   57.6149   59.6718 C   0  0  0  0  0  0  0  0  0  0  0  0
  -37.5126   56.6290   58.5411 C   0  0  0  0  0  0  0  0  0  0  0  0
  -36.0404   56.2338   58.3983 C   0  0  0  0  0  0  0  0  0  0  0  0
  -34.9724   57.3401   58.3847 C   0  0  1  0  0  0  0  0  0  0  0  0
  -35.5318   58.5230   57.6187 C   0  0  0  0  0  0  0  0  0  0  0  0
  -37.4727   61.8763   66.6226 C   0  0  0  0  0  0  0  0  0  0  0  0
  -35.4086   62.4475   67.5119 C   0  0  0  0  0  0  0  0  0  0  0  0
  -36.4281   62.0691   65.4884 C   0  0  1  0  0  0  0  0  0  0  0  0
  -34.6472   62.8134   69.9070 C   0  0  0  0  0  0  0  0  0  0  0  0
  -33.6206   63.1299   70.8064 C   0  0  0  0  0  0  0  0  0  0  0  0
  -32.3331   63.4486   70.3430 C   0  0  0  0  0  0  0  0  0  0  0  0
  -32.0548   63.4447   68.9750 C   0  0  0  0  0  0  0  0  0  0  0  0
  -33.0738   63.1235   68.0740 C   0  0  0  0  0  0  0  0  0  0  0  0
  -34.3674   62.8122   68.5350 C   0  0  0  0  0  0  0  0  0  0  0  0
  -37.5400   61.1557   54.9134 H   0  0  0  0  0  0  0  0  0  0  0  0
  -36.7380   58.9799   54.8971 H   0  0  0  0  0  0  0  0  0  0  0  0
  -35.3656   60.7163   55.5888 H   0  0  0  0  0  0  0  0  0  0  0  0
  -42.4977   57.3396   64.1153 H   0  0  0  0  0  0  0  0  0  0  0  0
  -41.0572   56.2319   60.8810 H   0  0  0  0  0  0  0  0  0  0  0  0
  -39.6186   55.8541   61.7817 H   0  0  0  0  0  0  0  0  0  0  0  0
  -34.7672   58.3513   60.2288 H   0  0  0  0  0  0  0  0  0  0  0  0
  -40.9088   58.5695   61.5687 H   0  0  0  0  0  0  0  0  0  0  0  0
  -39.3937   57.9988   60.7642 H   0  0  0  0  0  0  0  0  0  0  0  0
  -37.5975   59.8434   65.3202 H   0  0  0  0  0  0  0  0  0  0  0  0
  -39.5811   58.9804   63.5956 H   0  0  0  0  0  0  0  0  0  0  0  0
  -37.2032   58.2232   61.6930 H   0  0  0  0  0  0  0  0  0  0  0  0
  -37.2383   57.7881   64.4943 H   0  0  0  0  0  0  0  0  0  0  0  0
  -32.9996   59.0629   62.9569 H   0  0  0  0  0  0  0  0  0  0  0  0
  -36.0320   62.5291   71.2945 H   0  0  0  0  0  0  0  0  0  0  0  0
  -32.6236   56.7868   62.1413 H   0  0  0  0  0  0  0  0  0  0  0  0
  -31.6621   57.9524   61.2106 H   0  0  0  0  0  0  0  0  0  0  0  0
  -33.7770   59.7464   60.1792 H   0  0  0  0  0  0  0  0  0  0  0  0
  -32.3413   60.2766   61.0223 H   0  0  0  0  0  0  0  0  0  0  0  0
  -33.9189   60.7731   61.5859 H   0  0  0  0  0  0  0  0  0  0  0  0
  -39.6144   54.2017   63.4221 H   0  0  0  0  0  0  0  0  0  0  0  0
  -41.0175   53.6625   62.4604 H   0  0  0  0  0  0  0  0  0  0  0  0
  -41.9512   52.5670   64.3783 H   0  0  0  0  0  0  0  0  0  0  0  0
  -40.6160   53.1126   65.3720 H   0  0  0  0  0  0  0  0  0  0  0  0
  -40.2809   50.7939   64.6495 H   0  0  0  0  0  0  0  0  0  0  0  0
  -39.0582   51.8836   63.9593 H   0  0  0  0  0  0  0  0  0  0  0  0
  -41.4505   50.8228   62.5102 H   0  0  0  0  0  0  0  0  0  0  0  0
  -39.7621   50.2649   62.3483 H   0  0  0  0  0  0  0  0  0  0  0  0
  -40.7566   52.9845   61.6081 H   0  0  0  0  0  0  0  0  0  0  0  0
  -40.4021   51.6539   60.4921 H   0  0  0  0  0  0  0  0  0  0  0  0
  -38.0813   51.6891   61.1495 H   0  0  0  0  0  0  0  0  0  0  0  0
  -38.4461   53.0226   62.2785 H   0  0  0  0  0  0  0  0  0  0  0  0
  -37.3309   53.8343   60.2740 H   0  0  0  0  0  0  0  0  0  0  0  0
  -38.9848   54.4591   60.4492 H   0  0  0  0  0  0  0  0  0  0  0  0
  -38.1483   52.2489   58.6261 H   0  0  0  0  0  0  0  0  0  0  0  0
  -38.5134   53.9447   58.1797 H   0  0  0  0  0  0  0  0  0  0  0  0
  -40.7967   53.6507   58.7868 H   0  0  0  0  0  0  0  0  0  0  0  0
  -40.4718   51.9912   59.2790 H   0  0  0  0  0  0  0  0  0  0  0  0
  -39.8583   51.4181   56.9995 H   0  0  0  0  0  0  0  0  0  0  0  0
  -40.1862   53.0998   56.5163 H   0  0  0  0  0  0  0  0  0  0  0  0
  -41.9815   51.6253   55.8521 H   0  0  0  0  0  0  0  0  0  0  0  0
  -42.4762   52.8342   57.0824 H   0  0  0  0  0  0  0  0  0  0  0  0
  -42.4880   51.1710   58.7673 H   0  0  0  0  0  0  0  0  0  0  0  0
  -41.9675   49.9594   57.5676 H   0  0  0  0  0  0  0  0  0  0  0  0
  -44.6003   51.3981   57.5297 H   0  0  0  0  0  0  0  0  0  0  0  0
  -44.3369   49.7417   58.0697 H   0  0  0  0  0  0  0  0  0  0  0  0
  -43.5510   49.1296   55.8637 H   0  0  0  0  0  0  0  0  0  0  0  0
  -43.8519   50.8331   55.3470 H   0  0  0  0  0  0  0  0  0  0  0  0
  -45.9402   48.8311   56.0509 H   0  0  0  0  0  0  0  0  0  0  0  0
  -45.5352   49.3877   54.4449 H   0  0  0  0  0  0  0  0  0  0  0  0
  -46.2090   50.5007   55.6113 H   0  0  0  0  0  0  0  0  0  0  0  0
  -37.9171   59.7526   59.6128 H   0  0  0  0  0  0  0  0  0  0  0  0
  -36.3590   59.1584   60.1640 H   0  0  0  0  0  0  0  0  0  0  0  0
  -38.8136   57.7235   59.7937 H   0  0  0  0  0  0  0  0  0  0  0  0
  -37.2655   57.2074   60.5309 H   0  0  0  0  0  0  0  0  0  0  0  0
  -37.8362   57.0753   57.6240 H   0  0  0  0  0  0  0  0  0  0  0  0
  -38.0620   55.7394   58.7684 H   0  0  0  0  0  0  0  0  0  0  0  0
  -35.9474   55.6960   57.4780 H   0  0  0  0  0  0  0  0  0  0  0  0
  -35.8325   55.6857   59.2935 H   0  0  0  0  0  0  0  0  0  0  0  0
  -34.1133   56.9642   57.8695 H   0  0  0  0  0  0  0  0  0  0  0  0
  -38.2872   62.5590   66.4989 H   0  0  0  0  0  0  0  0  0  0  0  0
  -37.8848   60.8888   66.6144 H   0  0  0  0  0  0  0  0  0  0  0  0
  -36.7905   62.7963   64.7921 H   0  0  0  0  0  0  0  0  0  0  0  0
  -33.8123   63.1289   71.8205 H   0  0  0  0  0  0  0  0  0  0  0  0
  -31.5892   63.6869   71.0174 H   0  0  0  0  0  0  0  0  0  0  0  0
  -31.1088   63.6761   68.6335 H   0  0  0  0  0  0  0  0  0  0  0  0
  -32.8763   63.1143   67.0611 H   0  0  0  0  0  0  0  0  0  0  0  0
  1  2  1  0  0  0  0
  1  5  1  0  0  0  0
  1  7  1  0  0  0  0
  2 18  2  0  0  0  0
  2 29  1  0  0  0  0
  3 21  2  0  0  0  0
  4  6  1  0  0  0  0
  4 59  1  0  0  0  0
  4 60  1  0  0  0  0
  4 61  1  0  0  0  0
  5 62  1  0  0  0  0
  6 14  1  0  0  0  0
  7 10  1  0  0  0  0
  7 63  1  0  0  0  0
  7 64  1  0  0  0  0
  8 27  1  0  0  0  0
  8 48  1  0  0  0  0
  8 65  1  0  0  0  0
  9 21  1  0  0  0  0
  9 23  1  0  0  0  0
 10 13  1  0  0  0  0
 10 66  1  0  0  0  0
 10 67  1  0  0  0  0
 11 19  1  0  0  0  0
 11 28  1  0  0  0  0
 11 68  1  0  0  0  0
 12 27  2  0  0  0  0
 13 16  2  0  0  0  0
 13 69  1  0  0  0  0
 14 44  1  0  0  0  0
 14 49  1  0  0  0  0
 15 28  2  0  0  0  0
 16 19  1  0  0  0  0
 16 70  1  0  0  0  0
 17 51  2  0  0  0  0
 17 52  1  0  0  0  0
 19 21  1  0  0  0  0
 19 71  1  1  0  0  0
 20 49  2  0  0  0  0
 22 50  1  0  0  0  0
 22 51  1  0  0  0  0
 23 25  1  0  0  0  0
 23 26  1  0  0  0  0
 23 72  1  1  0  0  0
 24 53  1  0  0  0  0
 24 73  1  0  0  0  0
 25 27  1  0  0  0  0
 25 74  1  0  0  0  0
 25 75  1  0  0  0  0
 26 76  1  0  0  0  0
 26 77  1  0  0  0  0
 26 78  1  0  0  0  0
 28 52  1  0  0  0  0
 29 30  1  0  0  0  0
 29 79  1  0  0  0  0
 29 80  1  0  0  0  0
 30 31  1  0  0  0  0
 30 81  1  0  0  0  0
 30 82  1  0  0  0  0
 31 32  1  0  0  0  0
 31 83  1  0  0  0  0
 31 84  1  0  0  0  0
 32 33  1  0  0  0  0
 32 85  1  0  0  0  0
 32 86  1  0  0  0  0
 33 34  1  0  0  0  0
 33 87  1  0  0  0  0
 33 88  1  0  0  0  0
 34 35  1  0  0  0  0
 34 89  1  0  0  0  0
 34 90  1  0  0  0  0
 35 36  1  0  0  0  0
 35 91  1  0  0  0  0
 35 92  1  0  0  0  0
 36 37  1  0  0  0  0
 36 93  1  0  0  0  0
 36 94  1  0  0  0  0
 37 38  1  0  0  0  0
 37 95  1  0  0  0  0
 37 96  1  0  0  0  0
 38 39  1  0  0  0  0
 38 97  1  0  0  0  0
 38 98  1  0  0  0  0
 39 40  1  0  0  0  0
 39 99  1  0  0  0  0
 39100  1  0  0  0  0
 40 41  1  0  0  0  0
 40101  1  0  0  0  0
 40102  1  0  0  0  0
 41 42  1  0  0  0  0
 41103  1  0  0  0  0
 41104  1  0  0  0  0
 42 43  1  0  0  0  0
 42105  1  0  0  0  0
 42106  1  0  0  0  0
 43107  1  0  0  0  0
 43108  1  0  0  0  0
 43109  1  0  0  0  0
 44 45  1  0  0  0  0
 44110  1  0  0  0  0
 44111  1  0  0  0  0
 45 46  1  0  0  0  0
 45112  1  0  0  0  0
 45113  1  0  0  0  0
 46 47  1  0  0  0  0
 46114  1  0  0  0  0
 46115  1  0  0  0  0
 47 48  1  0  0  0  0
 47116  1  0  0  0  0
 47117  1  0  0  0  0
 48 49  1  0  0  0  0
 48118  1  6  0  0  0
 50 52  1  0  0  0  0
 50119  1  0  0  0  0
 50120  1  0  0  0  0
 51 58  1  0  0  0  0
 52121  1  6  0  0  0
 53 54  2  0  0  0  0
 53 58  1  0  0  0  0
 54 55  1  0  0  0  0
 54122  1  0  0  0  0
 55 56  2  0  0  0  0
 55123  1  0  0  0  0
 56 57  1  0  0  0  0
 56124  1  0  0  0  0
 57 58  2  0  0  0  0
 57125  1  0  0  0  0
M  END
$$$$