/media/chris/experiments/cd1a-new-docking/inputs/ligands/1xz0_ligand.pdb
 OpenBabel07022319323D

125127  0  0  1  0  0  0  0  0999 V2000
  -36.5317   56.7527   58.6170 N   0  0  0  0  0  0  0  0  0  0  0  0
  -35.4674   56.1616   58.0125 C   0  0  0  0  0  0  0  0  0  0  0  0
  -34.9015   57.3291   63.0745 O   0  0  0  0  0  0  0  0  0  0  0  0
  -29.4544   54.5989   58.3864 Si  0  0  0  0  0  0  0  0  0  0  0  0
  -37.4274   55.9133   59.2942 O   0  0  0  0  0  0  0  0  0  0  0  0
  -29.5503   56.2921   57.8210 O   0  0  0  0  0  0  0  0  0  0  0  0
  -36.8926   58.1729   58.6692 C   0  0  0  0  0  0  0  0  0  0  0  0
  -30.8739   59.0289   61.0784 N   0  0  0  0  0  0  0  0  0  0  0  0
  -34.3234   59.2293   64.2555 O   0  0  0  0  0  0  0  0  0  0  0  0
  -37.6379   58.4343   59.9942 C   0  0  0  0  0  0  0  0  0  0  0  0
  -36.8950   59.8150   64.6310 N   0  0  0  0  0  0  0  0  0  0  0  0
  -30.6442   60.6036   62.6856 O   0  0  0  0  0  0  0  0  0  0  0  0
  -36.8790   58.1542   61.3024 C   0  0  0  0  0  0  0  0  0  0  0  0
  -30.1193   57.2512   58.6035 N   0  0  0  0  0  0  0  0  0  0  0  0
  -38.5876   59.4141   66.0963 O   0  0  0  0  0  0  0  0  0  0  0  0
  -37.6390   58.4030   62.6110 C   0  0  0  0  0  0  0  0  0  0  0  0
  -38.0299   62.5582   65.0676 N   0  0  0  0  0  0  0  0  0  0  0  0
  -34.6272   56.8277   57.4080 O   0  0  0  0  0  0  0  0  0  0  0  0
  -36.7890   58.5530   63.8960 C   0  0  1  0  0  0  0  0  0  0  0  0
  -30.3047   55.7788   60.2956 O   0  0  0  0  0  0  0  0  0  0  0  0
  -35.3080   58.3090   63.6770 C   0  0  0  0  0  0  0  0  0  0  0  0
  -36.1262   63.3650   65.9144 O   0  0  0  0  0  0  0  0  0  0  0  0
  -33.3660   59.9184   63.4295 C   0  0  1  0  0  0  0  0  0  0  0  0
  -39.6916   64.5836   63.9705 O   0  0  0  0  0  0  0  0  0  0  0  0
  -32.2236   58.9625   63.1205 C   0  0  0  0  0  0  0  0  0  0  0  0
  -33.9453   60.5139   62.1522 C   0  0  0  0  0  0  0  0  0  0  0  0
  -31.1438   59.5836   62.2691 C   0  0  0  0  0  0  0  0  0  0  0  0
  -37.7336   60.1539   65.6256 C   0  0  0  0  0  0  0  0  0  0  0  0
  -35.3244   54.6378   58.0862 C   0  0  0  0  0  0  0  0  0  0  0  0
  -35.2309   54.0763   59.5115 C   0  0  0  0  0  0  0  0  0  0  0  0
  -35.0728   52.5442   59.4667 C   0  0  0  0  0  0  0  0  0  0  0  0
  -36.2369   51.8262   58.7580 C   0  0  0  0  0  0  0  0  0  0  0  0
  -36.4325   52.2234   57.2828 C   0  0  0  0  0  0  0  0  0  0  0  0
  -35.2004   51.9095   56.4084 C   0  0  0  0  0  0  0  0  0  0  0  0
  -35.3498   52.3094   54.9220 C   0  0  0  0  0  0  0  0  0  0  0  0
  -35.5818   53.8105   54.7145 C   0  0  0  0  0  0  0  0  0  0  0  0
  -36.8288   54.3815   55.3969 C   0  0  0  0  0  0  0  0  0  0  0  0
  -36.9826   55.8873   55.1154 C   0  0  0  0  0  0  0  0  0  0  0  0
  -38.2081   56.5245   55.7879 C   0  0  0  0  0  0  0  0  0  0  0  0
  -38.4112   58.0197   55.5217 C   0  0  0  0  0  0  0  0  0  0  0  0
  -39.6465   58.6298   56.2300 C   0  0  0  0  0  0  0  0  0  0  0  0
  -40.9499   57.9286   55.7966 C   0  0  0  0  0  0  0  0  0  0  0  0
  -42.2582   58.4433   56.4088 C   0  0  0  0  0  0  0  0  0  0  0  0
  -30.1724   58.6153   58.0574 C   0  0  0  0  0  0  0  0  0  0  0  0
  -31.6256   59.0230   57.7495 C   0  0  0  0  0  0  0  0  0  0  0  0
  -32.6883   58.0476   58.2280 C   0  0  0  0  0  0  0  0  0  0  0  0
  -32.7850   57.9687   59.7538 C   0  0  0  0  0  0  0  0  0  0  0  0
  -31.4940   57.7992   60.5720 C   0  0  1  0  0  0  0  0  0  0  0  0
  -30.5729   56.8683   59.8078 C   0  0  0  0  0  0  0  0  0  0  0  0
  -36.3649   62.1796   66.6724 C   0  0  0  0  0  0  0  0  0  0  0  0
  -37.1912   63.4967   64.9519 C   0  0  0  0  0  0  0  0  0  0  0  0
  -37.6957   61.5896   66.1290 C   0  0  1  0  0  0  0  0  0  0  0  0
  -38.5432   65.1351   63.5598 C   0  0  0  0  0  0  0  0  0  0  0  0
  -38.5738   66.2281   62.6839 C   0  0  0  0  0  0  0  0  0  0  0  0
  -37.3820   66.8186   62.2309 C   0  0  0  0  0  0  0  0  0  0  0  0
  -36.1460   66.3291   62.6566 C   0  0  0  0  0  0  0  0  0  0  0  0
  -36.1102   65.2429   63.5355 C   0  0  0  0  0  0  0  0  0  0  0  0
  -37.3027   64.6434   63.9843 C   0  0  0  0  0  0  0  0  0  0  0  0
  -28.8223   53.8036   57.3942 H   0  0  0  0  0  0  0  0  0  0  0  0
  -30.7641   54.1049   58.6255 H   0  0  0  0  0  0  0  0  0  0  0  0
  -28.7007   54.5433   59.5886 H   0  0  0  0  0  0  0  0  0  0  0  0
  -37.1286   54.9936   59.2188 H   0  0  0  0  0  0  0  0  0  0  0  0
  -37.5275   58.4156   57.8428 H   0  0  0  0  0  0  0  0  0  0  0  0
  -36.0126   58.7793   58.6151 H   0  0  0  0  0  0  0  0  0  0  0  0
  -30.2132   59.4785   60.5034 H   0  0  0  0  0  0  0  0  0  0  0  0
  -38.5151   57.8216   59.9949 H   0  0  0  0  0  0  0  0  0  0  0  0
  -37.8168   59.4892   60.0031 H   0  0  0  0  0  0  0  0  0  0  0  0
  -36.2607   60.5165   64.3574 H   0  0  0  0  0  0  0  0  0  0  0  0
  -35.9044   57.8148   61.2996 H   0  0  0  0  0  0  0  0  0  0  0  0
  -38.6687   58.4674   62.6338 H   0  0  0  0  0  0  0  0  0  0  0  0
  -37.2383   57.7881   64.4943 H   0  0  0  0  0  0  0  0  0  0  0  0
  -33.0182   60.7655   63.9829 H   0  0  0  0  0  0  0  0  0  0  0  0
  -40.5101   64.9296   63.6732 H   0  0  0  0  0  0  0  0  0  0  0  0
  -32.6201   58.1147   62.6020 H   0  0  0  0  0  0  0  0  0  0  0  0
  -31.7759   58.6895   64.0532 H   0  0  0  0  0  0  0  0  0  0  0  0
  -34.3213   59.7281   61.5309 H   0  0  0  0  0  0  0  0  0  0  0  0
  -33.1799   61.0474   61.6284 H   0  0  0  0  0  0  0  0  0  0  0  0
  -34.7414   61.1843   62.4004 H   0  0  0  0  0  0  0  0  0  0  0  0
  -34.4364   54.3593   57.5582 H   0  0  0  0  0  0  0  0  0  0  0  0
  -36.2133   54.2272   57.6547 H   0  0  0  0  0  0  0  0  0  0  0  0
  -36.1221   54.3247   60.0491 H   0  0  0  0  0  0  0  0  0  0  0  0
  -34.3802   54.5024   60.0010 H   0  0  0  0  0  0  0  0  0  0  0  0
  -35.0121   52.1806   60.4712 H   0  0  0  0  0  0  0  0  0  0  0  0
  -34.1862   52.3359   58.9051 H   0  0  0  0  0  0  0  0  0  0  0  0
  -37.1395   52.0517   59.2867 H   0  0  0  0  0  0  0  0  0  0  0  0
  -35.9974   50.7834   58.7620 H   0  0  0  0  0  0  0  0  0  0  0  0
  -36.6263   53.2746   57.2350 H   0  0  0  0  0  0  0  0  0  0  0  0
  -37.2514   51.6499   56.9016 H   0  0  0  0  0  0  0  0  0  0  0  0
  -35.0177   50.8562   56.4543 H   0  0  0  0  0  0  0  0  0  0  0  0
  -34.3929   52.4920   56.8003 H   0  0  0  0  0  0  0  0  0  0  0  0
  -36.1818   51.7776   54.5099 H   0  0  0  0  0  0  0  0  0  0  0  0
  -34.4297   52.0622   54.4348 H   0  0  0  0  0  0  0  0  0  0  0  0
  -35.6695   53.9891   53.6631 H   0  0  0  0  0  0  0  0  0  0  0  0
  -34.7462   54.3038   55.1654 H   0  0  0  0  0  0  0  0  0  0  0  0
  -36.7474   54.2313   56.4532 H   0  0  0  0  0  0  0  0  0  0  0  0
  -37.6877   53.8763   55.0070 H   0  0  0  0  0  0  0  0  0  0  0  0
  -37.0690   56.0252   54.0578 H   0  0  0  0  0  0  0  0  0  0  0  0
  -36.1189   56.3693   55.5234 H   0  0  0  0  0  0  0  0  0  0  0  0
  -38.1102   56.3893   56.8448 H   0  0  0  0  0  0  0  0  0  0  0  0
  -39.0600   56.0350   55.3642 H   0  0  0  0  0  0  0  0  0  0  0  0
  -38.5260   58.1600   54.4671 H   0  0  0  0  0  0  0  0  0  0  0  0
  -37.5523   58.5212   55.9161 H   0  0  0  0  0  0  0  0  0  0  0  0
  -39.7115   59.6686   55.9821 H   0  0  0  0  0  0  0  0  0  0  0  0
  -39.5283   58.4966   57.2850 H   0  0  0  0  0  0  0  0  0  0  0  0
  -40.8595   56.8937   56.0530 H   0  0  0  0  0  0  0  0  0  0  0  0
  -41.0369   58.1301   54.7493 H   0  0  0  0  0  0  0  0  0  0  0  0
  -42.2476   58.2759   57.4656 H   0  0  0  0  0  0  0  0  0  0  0  0
  -43.0850   57.9220   55.9734 H   0  0  0  0  0  0  0  0  0  0  0  0
  -42.3550   59.4910   56.2146 H   0  0  0  0  0  0  0  0  0  0  0  0
  -29.5980   58.6551   57.1555 H   0  0  0  0  0  0  0  0  0  0  0  0
  -29.7719   59.2920   58.7831 H   0  0  0  0  0  0  0  0  0  0  0  0
  -31.7230   59.1242   56.6888 H   0  0  0  0  0  0  0  0  0  0  0  0
  -31.7973   59.9338   58.2843 H   0  0  0  0  0  0  0  0  0  0  0  0
  -32.4525   57.0745   57.8506 H   0  0  0  0  0  0  0  0  0  0  0  0
  -33.6316   58.3991   57.8654 H   0  0  0  0  0  0  0  0  0  0  0  0
  -33.4157   57.1361   59.9860 H   0  0  0  0  0  0  0  0  0  0  0  0
  -33.1465   58.9344   60.0396 H   0  0  0  0  0  0  0  0  0  0  0  0
  -31.7518   57.3468   61.5068 H   0  0  0  0  0  0  0  0  0  0  0  0
  -36.4588   62.4149   67.7120 H   0  0  0  0  0  0  0  0  0  0  0  0
  -35.5581   61.4831   66.5783 H   0  0  0  0  0  0  0  0  0  0  0  0
  -38.3917   61.4827   66.9347 H   0  0  0  0  0  0  0  0  0  0  0  0
  -39.4817   66.6036   62.3679 H   0  0  0  0  0  0  0  0  0  0  0  0
  -37.4207   67.6185   61.5799 H   0  0  0  0  0  0  0  0  0  0  0  0
  -35.2700   66.7636   62.3267 H   0  0  0  0  0  0  0  0  0  0  0  0
  -35.2011   64.8766   63.8585 H   0  0  0  0  0  0  0  0  0  0  0  0
  1  2  1  0  0  0  0
  1  5  1  0  0  0  0
  1  7  1  0  0  0  0
  2 18  2  0  0  0  0
  2 29  1  0  0  0  0
  3 21  2  0  0  0  0
  4  6  1  0  0  0  0
  4 59  1  0  0  0  0
  4 60  1  0  0  0  0
  4 61  1  0  0  0  0
  5 62  1  0  0  0  0
  6 14  1  0  0  0  0
  7 10  1  0  0  0  0
  7 63  1  0  0  0  0
  7 64  1  0  0  0  0
  8 27  1  0  0  0  0
  8 48  1  0  0  0  0
  8 65  1  0  0  0  0
  9 21  1  0  0  0  0
  9 23  1  0  0  0  0
 10 13  1  0  0  0  0
 10 66  1  0  0  0  0
 10 67  1  0  0  0  0
 11 19  1  0  0  0  0
 11 28  1  0  0  0  0
 11 68  1  0  0  0  0
 12 27  2  0  0  0  0
 13 16  2  0  0  0  0
 13 69  1  0  0  0  0
 14 44  1  0  0  0  0
 14 49  1  0  0  0  0
 15 28  2  0  0  0  0
 16 19  1  0  0  0  0
 16 70  1  0  0  0  0
 17 51  2  0  0  0  0
 17 52  1  0  0  0  0
 19 21  1  0  0  0  0
 19 71  1  1  0  0  0
 20 49  2  0  0  0  0
 22 50  1  0  0  0  0
 22 51  1  0  0  0  0
 23 25  1  0  0  0  0
 23 26  1  0  0  0  0
 23 72  1  1  0  0  0
 24 53  1  0  0  0  0
 24 73  1  0  0  0  0
 25 27  1  0  0  0  0
 25 74  1  0  0  0  0
 25 75  1  0  0  0  0
 26 76  1  0  0  0  0
 26 77  1  0  0  0  0
 26 78  1  0  0  0  0
 28 52  1  0  0  0  0
 29 30  1  0  0  0  0
 29 79  1  0  0  0  0
 29 80  1  0  0  0  0
 30 31  1  0  0  0  0
 30 81  1  0  0  0  0
 30 82  1  0  0  0  0
 31 32  1  0  0  0  0
 31 83  1  0  0  0  0
 31 84  1  0  0  0  0
 32 33  1  0  0  0  0
 32 85  1  0  0  0  0
 32 86  1  0  0  0  0
 33 34  1  0  0  0  0
 33 87  1  0  0  0  0
 33 88  1  0  0  0  0
 34 35  1  0  0  0  0
 34 89  1  0  0  0  0
 34 90  1  0  0  0  0
 35 36  1  0  0  0  0
 35 91  1  0  0  0  0
 35 92  1  0  0  0  0
 36 37  1  0  0  0  0
 36 93  1  0  0  0  0
 36 94  1  0  0  0  0
 37 38  1  0  0  0  0
 37 95  1  0  0  0  0
 37 96  1  0  0  0  0
 38 39  1  0  0  0  0
 38 97  1  0  0  0  0
 38 98  1  0  0  0  0
 39 40  1  0  0  0  0
 39 99  1  0  0  0  0
 39100  1  0  0  0  0
 40 41  1  0  0  0  0
 40101  1  0  0  0  0
 40102  1  0  0  0  0
 41 42  1  0  0  0  0
 41103  1  0  0  0  0
 41104  1  0  0  0  0
 42 43  1  0  0  0  0
 42105  1  0  0  0  0
 42106  1  0  0  0  0
 43107  1  0  0  0  0
 43108  1  0  0  0  0
 43109  1  0  0  0  0
 44 45  1  0  0  0  0
 44110  1  0  0  0  0
 44111  1  0  0  0  0
 45 46  1  0  0  0  0
 45112  1  0  0  0  0
 45113  1  0  0  0  0
 46 47  1  0  0  0  0
 46114  1  0  0  0  0
 46115  1  0  0  0  0
 47 48  1  0  0  0  0
 47116  1  0  0  0  0
 47117  1  0  0  0  0
 48 49  1  0  0  0  0
 48118  1  1  0  0  0
 50 52  1  0  0  0  0
 50119  1  0  0  0  0
 50120  1  0  0  0  0
 51 58  1  0  0  0  0
 52121  1  1  0  0  0
 53 54  2  0  0  0  0
 53 58  1  0  0  0  0
 54 55  1  0  0  0  0
 54122  1  0  0  0  0
 55 56  2  0  0  0  0
 55123  1  0  0  0  0
 56 57  1  0  0  0  0
 56124  1  0  0  0  0
 57 58  2  0  0  0  0
 57125  1  0  0  0  0
M  END
$$$$