/media/chris/experiments/cd1a-new-docking/inputs/ligands/1xz0_ligand.pdb
 OpenBabel07022319323D

125127  0  0  1  0  0  0  0  0999 V2000
  -38.2472   61.2458   59.2272 N   0  0  0  0  0  0  0  0  0  0  0  0
  -37.8076   62.4674   58.8244 C   0  0  0  0  0  0  0  0  0  0  0  0
  -34.4624   59.0890   64.0833 O   0  0  0  0  0  0  0  0  0  0  0  0
  -28.3542   57.6835   61.5937 Si  0  0  0  0  0  0  0  0  0  0  0  0
  -37.4853   60.1346   58.8397 O   0  0  0  0  0  0  0  0  0  0  0  0
  -28.3779   58.4362   63.2150 O   0  0  0  0  0  0  0  0  0  0  0  0
  -39.4282   60.9072   60.0273 C   0  0  0  0  0  0  0  0  0  0  0  0
  -32.5437   59.1886   64.6053 N   0  0  0  0  0  0  0  0  0  0  0  0
  -34.8671   57.1453   62.9008 O   0  0  0  0  0  0  0  0  0  0  0  0
  -39.1167   59.6292   60.8329 C   0  0  0  0  0  0  0  0  0  0  0  0
  -36.8950   59.8150   64.6310 N   0  0  0  0  0  0  0  0  0  0  0  0
  -33.4557   57.5998   65.9318 O   0  0  0  0  0  0  0  0  0  0  0  0
  -37.9469   59.6864   61.8299 C   0  0  0  0  0  0  0  0  0  0  0  0
  -29.5394   58.9233   63.7343 N   0  0  0  0  0  0  0  0  0  0  0  0
  -37.7543   61.2478   66.1742 O   0  0  0  0  0  0  0  0  0  0  0  0
  -37.6390   58.4030   62.6110 C   0  0  0  0  0  0  0  0  0  0  0  0
  -37.8853   57.9472   66.7604 N   0  0  0  0  0  0  0  0  0  0  0  0
  -38.4110   63.4950   59.1326 O   0  0  0  0  0  0  0  0  0  0  0  0
  -36.7890   58.5530   63.8960 C   0  0  1  0  0  0  0  0  0  0  0  0
  -30.6880   58.0749   61.9946 O   0  0  0  0  0  0  0  0  0  0  0  0
  -35.3080   58.3090   63.6770 C   0  0  0  0  0  0  0  0  0  0  0  0
  -39.3379   56.9364   65.3966 O   0  0  0  0  0  0  0  0  0  0  0  0
  -33.9798   56.1611   63.4647 C   0  0  1  0  0  0  0  0  0  0  0  0
  -37.1193   56.3162   68.9560 O   0  0  0  0  0  0  0  0  0  0  0  0
  -32.6899   56.8565   63.8732 C   0  0  0  0  0  0  0  0  0  0  0  0
  -34.5691   55.3695   64.6256 C   0  0  0  0  0  0  0  0  0  0  0  0
  -32.8982   57.9319   64.9108 C   0  0  0  0  0  0  0  0  0  0  0  0
  -37.7336   60.1539   65.6256 C   0  0  0  0  0  0  0  0  0  0  0  0
  -36.5408   62.5542   57.9667 C   0  0  0  0  0  0  0  0  0  0  0  0
  -36.7489   63.1972   56.5888 C   0  0  0  0  0  0  0  0  0  0  0  0
  -35.4204   63.2168   55.8085 C   0  0  0  0  0  0  0  0  0  0  0  0
  -34.2993   63.9958   56.5223 C   0  0  0  0  0  0  0  0  0  0  0  0
  -33.9109   63.4385   57.9046 C   0  0  0  0  0  0  0  0  0  0  0  0
  -33.3884   61.9879   57.8417 C   0  0  0  0  0  0  0  0  0  0  0  0
  -33.0032   61.3846   59.2125 C   0  0  0  0  0  0  0  0  0  0  0  0
  -31.9083   62.1733   59.9401 C   0  0  0  0  0  0  0  0  0  0  0  0
  -30.5810   62.3008   59.1858 C   0  0  0  0  0  0  0  0  0  0  0  0
  -29.5444   63.0922   60.0040 C   0  0  0  0  0  0  0  0  0  0  0  0
  -29.1924   62.4473   61.3532 C   0  0  0  0  0  0  0  0  0  0  0  0
  -28.1762   63.2093   62.2102 C   0  0  0  0  0  0  0  0  0  0  0  0
  -27.8339   62.5198   63.5544 C   0  0  0  0  0  0  0  0  0  0  0  0
  -26.8214   63.3472   64.3721 C   0  0  0  0  0  0  0  0  0  0  0  0
  -26.3780   62.7735   65.7233 C   0  0  0  0  0  0  0  0  0  0  0  0
  -29.4692   59.5408   65.0668 C   0  0  0  0  0  0  0  0  0  0  0  0
  -29.7137   61.0590   64.9775 C   0  0  0  0  0  0  0  0  0  0  0  0
  -30.1484   61.5670   63.6127 C   0  0  0  0  0  0  0  0  0  0  0  0
  -31.5429   61.0807   63.2093 C   0  0  0  0  0  0  0  0  0  0  0  0
  -31.8808   59.5879   63.3586 C   0  0  1  0  0  0  0  0  0  0  0  0
  -30.6473   58.7881   62.9878 C   0  0  0  0  0  0  0  0  0  0  0  0
  -39.6251   58.3251   65.2368 C   0  0  0  0  0  0  0  0  0  0  0  0
  -38.2506   56.8144   66.3352 C   0  0  0  0  0  0  0  0  0  0  0  0
  -38.6466   59.0723   66.1849 C   0  0  1  0  0  0  0  0  0  0  0  0
  -37.1620   55.3133   68.0706 C   0  0  0  0  0  0  0  0  0  0  0  0
  -36.6778   54.0492   68.4318 C   0  0  0  0  0  0  0  0  0  0  0  0
  -36.7027   52.9827   67.5174 C   0  0  0  0  0  0  0  0  0  0  0  0
  -37.2216   53.1656   66.2344 C   0  0  0  0  0  0  0  0  0  0  0  0
  -37.7117   54.4231   65.8713 C   0  0  0  0  0  0  0  0  0  0  0  0
  -37.6800   55.4961   66.7826 C   0  0  0  0  0  0  0  0  0  0  0  0
  -27.0337   57.2608   61.2873 H   0  0  0  0  0  0  0  0  0  0  0  0
  -28.7847   58.6297   60.6263 H   0  0  0  0  0  0  0  0  0  0  0  0
  -29.2254   56.5623   61.5796 H   0  0  0  0  0  0  0  0  0  0  0  0
  -36.7241   60.4309   58.3165 H   0  0  0  0  0  0  0  0  0  0  0  0
  -40.2645   60.7338   59.3827 H   0  0  0  0  0  0  0  0  0  0  0  0
  -39.6677   61.7121   60.6905 H   0  0  0  0  0  0  0  0  0  0  0  0
  -32.7422   59.8929   65.2639 H   0  0  0  0  0  0  0  0  0  0  0  0
  -38.9012   58.8517   60.1300 H   0  0  0  0  0  0  0  0  0  0  0  0
  -39.9841   59.4704   61.4389 H   0  0  0  0  0  0  0  0  0  0  0  0
  -36.2607   60.5165   64.3574 H   0  0  0  0  0  0  0  0  0  0  0  0
  -37.3952   60.5477   61.9667 H   0  0  0  0  0  0  0  0  0  0  0  0
  -37.9824   57.4826   62.2948 H   0  0  0  0  0  0  0  0  0  0  0  0
  -37.2383   57.7881   64.4943 H   0  0  0  0  0  0  0  0  0  0  0  0
  -33.7965   55.4263   62.7088 H   0  0  0  0  0  0  0  0  0  0  0  0
  -36.7682   56.1704   69.8124 H   0  0  0  0  0  0  0  0  0  0  0  0
  -32.2538   57.3024   63.0038 H   0  0  0  0  0  0  0  0  0  0  0  0
  -32.0521   56.1149   64.3070 H   0  0  0  0  0  0  0  0  0  0  0  0
  -34.7857   56.0332   65.4364 H   0  0  0  0  0  0  0  0  0  0  0  0
  -33.8650   54.6310   64.9476 H   0  0  0  0  0  0  0  0  0  0  0  0
  -35.4705   54.8883   64.3080 H   0  0  0  0  0  0  0  0  0  0  0  0
  -36.1679   61.5621   57.8198 H   0  0  0  0  0  0  0  0  0  0  0  0
  -35.8567   63.1837   58.4965 H   0  0  0  0  0  0  0  0  0  0  0  0
  -37.0999   64.2001   56.7154 H   0  0  0  0  0  0  0  0  0  0  0  0
  -37.4691   62.6264   56.0407 H   0  0  0  0  0  0  0  0  0  0  0  0
  -35.5942   63.6708   54.8553 H   0  0  0  0  0  0  0  0  0  0  0  0
  -35.0920   62.2022   55.7212 H   0  0  0  0  0  0  0  0  0  0  0  0
  -34.6246   65.0072   56.6497 H   0  0  0  0  0  0  0  0  0  0  0  0
  -33.4295   63.9091   55.9052 H   0  0  0  0  0  0  0  0  0  0  0  0
  -34.7732   63.4637   58.5375 H   0  0  0  0  0  0  0  0  0  0  0  0
  -33.1191   64.0489   58.2860 H   0  0  0  0  0  0  0  0  0  0  0  0
  -32.5219   61.9718   57.2142 H   0  0  0  0  0  0  0  0  0  0  0  0
  -34.1915   61.3916   57.4618 H   0  0  0  0  0  0  0  0  0  0  0  0
  -32.6545   60.3850   59.0570 H   0  0  0  0  0  0  0  0  0  0  0  0
  -33.8776   61.4173   59.8284 H   0  0  0  0  0  0  0  0  0  0  0  0
  -31.7131   61.6850   60.8719 H   0  0  0  0  0  0  0  0  0  0  0  0
  -32.2838   63.1694   60.0479 H   0  0  0  0  0  0  0  0  0  0  0  0
  -30.7542   62.8078   58.2596 H   0  0  0  0  0  0  0  0  0  0  0  0
  -30.1953   61.3177   59.0137 H   0  0  0  0  0  0  0  0  0  0  0  0
  -29.9374   64.0698   60.1903 H   0  0  0  0  0  0  0  0  0  0  0  0
  -28.6441   63.1144   59.4262 H   0  0  0  0  0  0  0  0  0  0  0  0
  -28.7931   61.4740   61.1578 H   0  0  0  0  0  0  0  0  0  0  0  0
  -30.1012   62.4389   61.9178 H   0  0  0  0  0  0  0  0  0  0  0  0
  -28.5767   64.1785   62.4228 H   0  0  0  0  0  0  0  0  0  0  0  0
  -27.2680   63.2500   61.6459 H   0  0  0  0  0  0  0  0  0  0  0  0
  -27.4142   61.5562   63.3540 H   0  0  0  0  0  0  0  0  0  0  0  0
  -28.7344   62.4316   64.1255 H   0  0  0  0  0  0  0  0  0  0  0  0
  -27.2627   64.3041   64.5577 H   0  0  0  0  0  0  0  0  0  0  0  0
  -25.9336   63.3657   63.7751 H   0  0  0  0  0  0  0  0  0  0  0  0
  -27.2192   62.7229   66.3826 H   0  0  0  0  0  0  0  0  0  0  0  0
  -25.6277   63.4058   66.1502 H   0  0  0  0  0  0  0  0  0  0  0  0
  -25.9776   61.7917   65.5799 H   0  0  0  0  0  0  0  0  0  0  0  0
  -28.4999   59.3652   65.4846 H   0  0  0  0  0  0  0  0  0  0  0  0
  -30.2253   59.1068   65.6871 H   0  0  0  0  0  0  0  0  0  0  0  0
  -28.8038   61.5566   65.2411 H   0  0  0  0  0  0  0  0  0  0  0  0
  -30.5247   61.2681   65.6434 H   0  0  0  0  0  0  0  0  0  0  0  0
  -29.4442   61.2269   62.8822 H   0  0  0  0  0  0  0  0  0  0  0  0
  -30.1849   62.6350   63.6656 H   0  0  0  0  0  0  0  0  0  0  0  0
  -31.6768   61.3314   62.1778 H   0  0  0  0  0  0  0  0  0  0  0  0
  -32.1959   61.5639   63.9057 H   0  0  0  0  0  0  0  0  0  0  0  0
  -32.6676   59.3566   62.6714 H   0  0  0  0  0  0  0  0  0  0  0  0
  -40.6388   58.5299   65.5112 H   0  0  0  0  0  0  0  0  0  0  0  0
  -39.5041   58.6376   64.2206 H   0  0  0  0  0  0  0  0  0  0  0  0
  -39.2058   59.6850   66.8607 H   0  0  0  0  0  0  0  0  0  0  0  0
  -36.2985   53.8998   69.3799 H   0  0  0  0  0  0  0  0  0  0  0  0
  -36.3356   52.0592   67.7957 H   0  0  0  0  0  0  0  0  0  0  0  0
  -37.2430   52.3824   65.5627 H   0  0  0  0  0  0  0  0  0  0  0  0
  -38.1007   54.5666   64.9262 H   0  0  0  0  0  0  0  0  0  0  0  0
  1  2  1  0  0  0  0
  1  5  1  0  0  0  0
  1  7  1  0  0  0  0
  2 18  2  0  0  0  0
  2 29  1  0  0  0  0
  3 21  2  0  0  0  0
  4  6  1  0  0  0  0
  4 59  1  0  0  0  0
  4 60  1  0  0  0  0
  4 61  1  0  0  0  0
  5 62  1  0  0  0  0
  6 14  1  0  0  0  0
  7 10  1  0  0  0  0
  7 63  1  0  0  0  0
  7 64  1  0  0  0  0
  8 27  1  0  0  0  0
  8 48  1  0  0  0  0
  8 65  1  0  0  0  0
  9 21  1  0  0  0  0
  9 23  1  0  0  0  0
 10 13  1  0  0  0  0
 10 66  1  0  0  0  0
 10 67  1  0  0  0  0
 11 19  1  0  0  0  0
 11 28  1  0  0  0  0
 11 68  1  0  0  0  0
 12 27  2  0  0  0  0
 13 16  2  0  0  0  0
 13 69  1  0  0  0  0
 14 44  1  0  0  0  0
 14 49  1  0  0  0  0
 15 28  2  0  0  0  0
 16 19  1  0  0  0  0
 16 70  1  0  0  0  0
 17 51  2  0  0  0  0
 17 52  1  0  0  0  0
 19 21  1  0  0  0  0
 19 71  1  1  0  0  0
 20 49  2  0  0  0  0
 22 50  1  0  0  0  0
 22 51  1  0  0  0  0
 23 25  1  0  0  0  0
 23 26  1  0  0  0  0
 23 72  1  6  0  0  0
 24 53  1  0  0  0  0
 24 73  1  0  0  0  0
 25 27  1  0  0  0  0
 25 74  1  0  0  0  0
 25 75  1  0  0  0  0
 26 76  1  0  0  0  0
 26 77  1  0  0  0  0
 26 78  1  0  0  0  0
 28 52  1  0  0  0  0
 29 30  1  0  0  0  0
 29 79  1  0  0  0  0
 29 80  1  0  0  0  0
 30 31  1  0  0  0  0
 30 81  1  0  0  0  0
 30 82  1  0  0  0  0
 31 32  1  0  0  0  0
 31 83  1  0  0  0  0
 31 84  1  0  0  0  0
 32 33  1  0  0  0  0
 32 85  1  0  0  0  0
 32 86  1  0  0  0  0
 33 34  1  0  0  0  0
 33 87  1  0  0  0  0
 33 88  1  0  0  0  0
 34 35  1  0  0  0  0
 34 89  1  0  0  0  0
 34 90  1  0  0  0  0
 35 36  1  0  0  0  0
 35 91  1  0  0  0  0
 35 92  1  0  0  0  0
 36 37  1  0  0  0  0
 36 93  1  0  0  0  0
 36 94  1  0  0  0  0
 37 38  1  0  0  0  0
 37 95  1  0  0  0  0
 37 96  1  0  0  0  0
 38 39  1  0  0  0  0
 38 97  1  0  0  0  0
 38 98  1  0  0  0  0
 39 40  1  0  0  0  0
 39 99  1  0  0  0  0
 39100  1  0  0  0  0
 40 41  1  0  0  0  0
 40101  1  0  0  0  0
 40102  1  0  0  0  0
 41 42  1  0  0  0  0
 41103  1  0  0  0  0
 41104  1  0  0  0  0
 42 43  1  0  0  0  0
 42105  1  0  0  0  0
 42106  1  0  0  0  0
 43107  1  0  0  0  0
 43108  1  0  0  0  0
 43109  1  0  0  0  0
 44 45  1  0  0  0  0
 44110  1  0  0  0  0
 44111  1  0  0  0  0
 45 46  1  0  0  0  0
 45112  1  0  0  0  0
 45113  1  0  0  0  0
 46 47  1  0  0  0  0
 46114  1  0  0  0  0
 46115  1  0  0  0  0
 47 48  1  0  0  0  0
 47116  1  0  0  0  0
 47117  1  0  0  0  0
 48 49  1  0  0  0  0
 48118  1  6  0  0  0
 50 52  1  0  0  0  0
 50119  1  0  0  0  0
 50120  1  0  0  0  0
 51 58  1  0  0  0  0
 52121  1  1  0  0  0
 53 54  2  0  0  0  0
 53 58  1  0  0  0  0
 54 55  1  0  0  0  0
 54122  1  0  0  0  0
 55 56  2  0  0  0  0
 55123  1  0  0  0  0
 56 57  1  0  0  0  0
 56124  1  0  0  0  0
 57 58  2  0  0  0  0
 57125  1  0  0  0  0
M  END
$$$$