/media/chris/experiments/cd1a-new-docking/inputs/ligands/1xz0_ligand.pdb
 OpenBabel07022319323D

125127  0  0  1  0  0  0  0  0999 V2000
  -40.1291   59.9932   60.2710 N   0  0  0  0  0  0  0  0  0  0  0  0
  -39.1501   59.8679   59.3363 C   0  0  0  0  0  0  0  0  0  0  0  0
  -34.5332   58.1855   64.6113 O   0  0  0  0  0  0  0  0  0  0  0  0
  -36.5837   57.9161   59.0865 Si  0  0  0  0  0  0  0  0  0  0  0  0
  -40.4110   61.2879   60.7291 O   0  0  0  0  0  0  0  0  0  0  0  0
  -35.1443   56.9338   58.6876 O   0  0  0  0  0  0  0  0  0  0  0  0
  -40.9562   58.9512   60.8872 C   0  0  0  0  0  0  0  0  0  0  0  0
  -32.4778   55.1716   61.7919 N   0  0  0  0  0  0  0  0  0  0  0  0
  -34.7660   58.2851   62.3144 O   0  0  0  0  0  0  0  0  0  0  0  0
  -40.0251   57.9692   61.6276 C   0  0  0  0  0  0  0  0  0  0  0  0
  -36.8950   59.8150   64.6310 N   0  0  0  0  0  0  0  0  0  0  0  0
  -32.4902   56.6163   63.5321 O   0  0  0  0  0  0  0  0  0  0  0  0
  -39.1591   58.5341   62.7662 C   0  0  0  0  0  0  0  0  0  0  0  0
  -34.5336   56.1815   59.6451 N   0  0  0  0  0  0  0  0  0  0  0  0
  -38.5876   59.4141   66.0963 O   0  0  0  0  0  0  0  0  0  0  0  0
  -37.6390   58.4030   62.6110 C   0  0  0  0  0  0  0  0  0  0  0  0
  -36.7378   61.7633   67.2375 N   0  0  0  0  0  0  0  0  0  0  0  0
  -38.8496   58.7683   58.8722 O   0  0  0  0  0  0  0  0  0  0  0  0
  -36.7890   58.5530   63.8960 C   0  0  1  0  0  0  0  0  0  0  0  0
  -32.5265   56.6141   58.7233 O   0  0  0  0  0  0  0  0  0  0  0  0
  -35.3080   58.3090   63.6770 C   0  0  0  0  0  0  0  0  0  0  0  0
  -38.6104   62.6885   68.0309 O   0  0  0  0  0  0  0  0  0  0  0  0
  -33.4308   58.7440   62.0310 C   0  0  1  0  0  0  0  0  0  0  0  0
  -38.3764   63.6735   70.5519 O   0  0  0  0  0  0  0  0  0  0  0  0
  -32.6435   57.5881   61.4324 C   0  0  0  0  0  0  0  0  0  0  0  0
  -33.3619   59.9768   61.1381 C   0  0  0  0  0  0  0  0  0  0  0  0
  -32.5610   56.3901   62.3458 C   0  0  0  0  0  0  0  0  0  0  0  0
  -37.7336   60.1539   65.6256 C   0  0  0  0  0  0  0  0  0  0  0  0
  -38.4103   61.1239   58.8640 C   0  0  0  0  0  0  0  0  0  0  0  0
  -38.5336   61.4067   57.3606 C   0  0  0  0  0  0  0  0  0  0  0  0
  -37.7408   62.6763   56.9948 C   0  0  0  0  0  0  0  0  0  0  0  0
  -37.8248   63.0449   55.5014 C   0  0  0  0  0  0  0  0  0  0  0  0
  -37.0268   64.3011   55.1050 C   0  0  0  0  0  0  0  0  0  0  0  0
  -35.5147   64.1634   55.3806 C   0  0  0  0  0  0  0  0  0  0  0  0
  -34.6790   65.4113   55.0119 C   0  0  0  0  0  0  0  0  0  0  0  0
  -34.7826   65.7996   53.5325 C   0  0  0  0  0  0  0  0  0  0  0  0
  -33.9575   67.0213   53.1160 C   0  0  0  0  0  0  0  0  0  0  0  0
  -34.1417   67.3396   51.6209 C   0  0  0  0  0  0  0  0  0  0  0  0
  -35.5904   67.6662   51.2279 C   0  0  0  0  0  0  0  0  0  0  0  0
  -35.8248   67.9733   49.7452 C   0  0  0  0  0  0  0  0  0  0  0  0
  -37.2936   68.3145   49.3907 C   0  0  0  0  0  0  0  0  0  0  0  0
  -37.4607   68.5949   47.8834 C   0  0  0  0  0  0  0  0  0  0  0  0
  -38.8655   68.9637   47.3917 C   0  0  0  0  0  0  0  0  0  0  0  0
  -35.3797   55.6670   60.7320 C   0  0  0  0  0  0  0  0  0  0  0  0
  -35.5175   54.1358   60.6372 C   0  0  0  0  0  0  0  0  0  0  0  0
  -34.6350   53.4682   59.5955 C   0  0  0  0  0  0  0  0  0  0  0  0
  -33.1440   53.5490   59.9335 C   0  0  0  0  0  0  0  0  0  0  0  0
  -32.5496   54.9045   60.3509 C   0  0  1  0  0  0  0  0  0  0  0  0
  -33.2117   55.9840   59.5171 C   0  0  0  0  0  0  0  0  0  0  0  0
  -38.9781   62.2280   66.7311 C   0  0  0  0  0  0  0  0  0  0  0  0
  -37.2283   62.3418   68.2486 C   0  0  0  0  0  0  0  0  0  0  0  0
  -37.6957   61.5896   66.1290 C   0  0  1  0  0  0  0  0  0  0  0  0
  -37.0867   63.3172   70.5892 C   0  0  0  0  0  0  0  0  0  0  0  0
  -36.3288   63.5786   71.7382 C   0  0  0  0  0  0  0  0  0  0  0  0
  -34.9708   63.2229   71.7987 C   0  0  0  0  0  0  0  0  0  0  0  0
  -34.3577   62.5926   70.7145 C   0  0  0  0  0  0  0  0  0  0  0  0
  -35.1112   62.3240   69.5683 C   0  0  0  0  0  0  0  0  0  0  0  0
  -36.4700   62.6871   69.5014 C   0  0  0  0  0  0  0  0  0  0  0  0
  -37.0265   58.6009   57.9241 H   0  0  0  0  0  0  0  0  0  0  0  0
  -36.2485   58.8599   60.0931 H   0  0  0  0  0  0  0  0  0  0  0  0
  -37.6195   57.0676   59.5594 H   0  0  0  0  0  0  0  0  0  0  0  0
  -39.8301   61.9229   60.2817 H   0  0  0  0  0  0  0  0  0  0  0  0
  -41.5043   58.4296   60.1306 H   0  0  0  0  0  0  0  0  0  0  0  0
  -41.6508   59.3892   61.5733 H   0  0  0  0  0  0  0  0  0  0  0  0
  -32.3602   54.4021   62.3946 H   0  0  0  0  0  0  0  0  0  0  0  0
  -39.3632   57.5456   60.9013 H   0  0  0  0  0  0  0  0  0  0  0  0
  -40.6847   57.2751   62.1050 H   0  0  0  0  0  0  0  0  0  0  0  0
  -36.2607   60.5165   64.3574 H   0  0  0  0  0  0  0  0  0  0  0  0
  -39.5811   58.9804   63.5956 H   0  0  0  0  0  0  0  0  0  0  0  0
  -37.2032   58.2232   61.6930 H   0  0  0  0  0  0  0  0  0  0  0  0
  -37.2383   57.7881   64.4943 H   0  0  0  0  0  0  0  0  0  0  0  0
  -32.9996   59.0629   62.9569 H   0  0  0  0  0  0  0  0  0  0  0  0
  -38.7678   64.0941   71.2921 H   0  0  0  0  0  0  0  0  0  0  0  0
  -31.6498   57.9255   61.2232 H   0  0  0  0  0  0  0  0  0  0  0  0
  -33.1571   57.2781   60.5464 H   0  0  0  0  0  0  0  0  0  0  0  0
  -33.7770   59.7464   60.1792 H   0  0  0  0  0  0  0  0  0  0  0  0
  -32.3413   60.2766   61.0223 H   0  0  0  0  0  0  0  0  0  0  0  0
  -33.9189   60.7731   61.5859 H   0  0  0  0  0  0  0  0  0  0  0  0
  -37.3727   61.0087   59.0985 H   0  0  0  0  0  0  0  0  0  0  0  0
  -38.8633   61.9519   59.3680 H   0  0  0  0  0  0  0  0  0  0  0  0
  -39.5643   61.5485   57.1104 H   0  0  0  0  0  0  0  0  0  0  0  0
  -38.1377   60.5765   56.8140 H   0  0  0  0  0  0  0  0  0  0  0  0
  -36.7131   62.5182   57.2473 H   0  0  0  0  0  0  0  0  0  0  0  0
  -38.1738   63.4865   57.5435 H   0  0  0  0  0  0  0  0  0  0  0  0
  -38.8529   63.2114   55.2561 H   0  0  0  0  0  0  0  0  0  0  0  0
  -37.3916   62.2281   54.9628 H   0  0  0  0  0  0  0  0  0  0  0  0
  -37.4012   65.1337   55.6632 H   0  0  0  0  0  0  0  0  0  0  0  0
  -37.1499   64.4406   54.0513 H   0  0  0  0  0  0  0  0  0  0  0  0
  -35.1458   63.3347   54.8131 H   0  0  0  0  0  0  0  0  0  0  0  0
  -35.4092   64.0278   56.4367 H   0  0  0  0  0  0  0  0  0  0  0  0
  -33.6527   65.2111   55.2387 H   0  0  0  0  0  0  0  0  0  0  0  0
  -35.0672   66.2302   55.5808 H   0  0  0  0  0  0  0  0  0  0  0  0
  -35.8101   66.0054   53.3161 H   0  0  0  0  0  0  0  0  0  0  0  0
  -34.3853   64.9728   52.9815 H   0  0  0  0  0  0  0  0  0  0  0  0
  -32.9230   66.8237   53.3050 H   0  0  0  0  0  0  0  0  0  0  0  0
  -34.2927   67.8639   53.6838 H   0  0  0  0  0  0  0  0  0  0  0  0
  -33.8221   66.4904   51.0538 H   0  0  0  0  0  0  0  0  0  0  0  0
  -33.5597   68.2136   51.4155 H   0  0  0  0  0  0  0  0  0  0  0  0
  -35.8996   68.5205   51.7931 H   0  0  0  0  0  0  0  0  0  0  0  0
  -36.1548   66.7809   51.4345 H   0  0  0  0  0  0  0  0  0  0  0  0
  -35.5325   67.1164   49.1749 H   0  0  0  0  0  0  0  0  0  0  0  0
  -35.2439   68.8422   49.5161 H   0  0  0  0  0  0  0  0  0  0  0  0
  -37.5915   69.1824   49.9409 H   0  0  0  0  0  0  0  0  0  0  0  0
  -37.9045   67.4738   49.6455 H   0  0  0  0  0  0  0  0  0  0  0  0
  -37.1556   67.7151   47.3564 H   0  0  0  0  0  0  0  0  0  0  0  0
  -36.8655   69.4643   47.6966 H   0  0  0  0  0  0  0  0  0  0  0  0
  -39.5261   68.1362   47.5462 H   0  0  0  0  0  0  0  0  0  0  0  0
  -38.8277   69.2001   46.3489 H   0  0  0  0  0  0  0  0  0  0  0  0
  -39.2230   69.8121   47.9371 H   0  0  0  0  0  0  0  0  0  0  0  0
  -36.3503   56.1120   60.6621 H   0  0  0  0  0  0  0  0  0  0  0  0
  -34.9244   55.9139   61.6684 H   0  0  0  0  0  0  0  0  0  0  0  0
  -36.5364   53.9094   60.4016 H   0  0  0  0  0  0  0  0  0  0  0  0
  -35.2011   53.7508   61.5841 H   0  0  0  0  0  0  0  0  0  0  0  0
  -34.7974   53.9481   58.6530 H   0  0  0  0  0  0  0  0  0  0  0  0
  -34.9010   52.4321   59.5674 H   0  0  0  0  0  0  0  0  0  0  0  0
  -32.6074   53.2242   59.0666 H   0  0  0  0  0  0  0  0  0  0  0  0
  -33.0450   52.9431   60.8098 H   0  0  0  0  0  0  0  0  0  0  0  0
  -31.5021   54.8873   60.1334 H   0  0  0  0  0  0  0  0  0  0  0  0
  -39.3066   63.0464   66.1251 H   0  0  0  0  0  0  0  0  0  0  0  0
  -39.7838   61.5254   66.7758 H   0  0  0  0  0  0  0  0  0  0  0  0
  -37.4647   62.0666   65.1995 H   0  0  0  0  0  0  0  0  0  0  0  0
  -36.7728   64.0374   72.5490 H   0  0  0  0  0  0  0  0  0  0  0  0
  -34.4237   63.4287   72.6492 H   0  0  0  0  0  0  0  0  0  0  0  0
  -33.3611   62.3285   70.7586 H   0  0  0  0  0  0  0  0  0  0  0  0
  -34.6673   61.8549   68.7633 H   0  0  0  0  0  0  0  0  0  0  0  0
  1  2  1  0  0  0  0
  1  5  1  0  0  0  0
  1  7  1  0  0  0  0
  2 18  2  0  0  0  0
  2 29  1  0  0  0  0
  3 21  2  0  0  0  0
  4  6  1  0  0  0  0
  4 59  1  0  0  0  0
  4 60  1  0  0  0  0
  4 61  1  0  0  0  0
  5 62  1  0  0  0  0
  6 14  1  0  0  0  0
  7 10  1  0  0  0  0
  7 63  1  0  0  0  0
  7 64  1  0  0  0  0
  8 27  1  0  0  0  0
  8 48  1  0  0  0  0
  8 65  1  0  0  0  0
  9 21  1  0  0  0  0
  9 23  1  0  0  0  0
 10 13  1  0  0  0  0
 10 66  1  0  0  0  0
 10 67  1  0  0  0  0
 11 19  1  0  0  0  0
 11 28  1  0  0  0  0
 11 68  1  0  0  0  0
 12 27  2  0  0  0  0
 13 16  2  0  0  0  0
 13 69  1  0  0  0  0
 14 44  1  0  0  0  0
 14 49  1  0  0  0  0
 15 28  2  0  0  0  0
 16 19  1  0  0  0  0
 16 70  1  0  0  0  0
 17 51  2  0  0  0  0
 17 52  1  0  0  0  0
 19 21  1  0  0  0  0
 19 71  1  1  0  0  0
 20 49  2  0  0  0  0
 22 50  1  0  0  0  0
 22 51  1  0  0  0  0
 23 25  1  0  0  0  0
 23 26  1  0  0  0  0
 23 72  1  1  0  0  0
 24 53  1  0  0  0  0
 24 73  1  0  0  0  0
 25 27  1  0  0  0  0
 25 74  1  0  0  0  0
 25 75  1  0  0  0  0
 26 76  1  0  0  0  0
 26 77  1  0  0  0  0
 26 78  1  0  0  0  0
 28 52  1  0  0  0  0
 29 30  1  0  0  0  0
 29 79  1  0  0  0  0
 29 80  1  0  0  0  0
 30 31  1  0  0  0  0
 30 81  1  0  0  0  0
 30 82  1  0  0  0  0
 31 32  1  0  0  0  0
 31 83  1  0  0  0  0
 31 84  1  0  0  0  0
 32 33  1  0  0  0  0
 32 85  1  0  0  0  0
 32 86  1  0  0  0  0
 33 34  1  0  0  0  0
 33 87  1  0  0  0  0
 33 88  1  0  0  0  0
 34 35  1  0  0  0  0
 34 89  1  0  0  0  0
 34 90  1  0  0  0  0
 35 36  1  0  0  0  0
 35 91  1  0  0  0  0
 35 92  1  0  0  0  0
 36 37  1  0  0  0  0
 36 93  1  0  0  0  0
 36 94  1  0  0  0  0
 37 38  1  0  0  0  0
 37 95  1  0  0  0  0
 37 96  1  0  0  0  0
 38 39  1  0  0  0  0
 38 97  1  0  0  0  0
 38 98  1  0  0  0  0
 39 40  1  0  0  0  0
 39 99  1  0  0  0  0
 39100  1  0  0  0  0
 40 41  1  0  0  0  0
 40101  1  0  0  0  0
 40102  1  0  0  0  0
 41 42  1  0  0  0  0
 41103  1  0  0  0  0
 41104  1  0  0  0  0
 42 43  1  0  0  0  0
 42105  1  0  0  0  0
 42106  1  0  0  0  0
 43107  1  0  0  0  0
 43108  1  0  0  0  0
 43109  1  0  0  0  0
 44 45  1  0  0  0  0
 44110  1  0  0  0  0
 44111  1  0  0  0  0
 45 46  1  0  0  0  0
 45112  1  0  0  0  0
 45113  1  0  0  0  0
 46 47  1  0  0  0  0
 46114  1  0  0  0  0
 46115  1  0  0  0  0
 47 48  1  0  0  0  0
 47116  1  0  0  0  0
 47117  1  0  0  0  0
 48 49  1  0  0  0  0
 48118  1  6  0  0  0
 50 52  1  0  0  0  0
 50119  1  0  0  0  0
 50120  1  0  0  0  0
 51 58  1  0  0  0  0
 52121  1  6  0  0  0
 53 54  2  0  0  0  0
 53 58  1  0  0  0  0
 54 55  1  0  0  0  0
 54122  1  0  0  0  0
 55 56  2  0  0  0  0
 55123  1  0  0  0  0
 56 57  1  0  0  0  0
 56124  1  0  0  0  0
 57 58  2  0  0  0  0
 57125  1  0  0  0  0
M  END
$$$$