/media/chris/experiments/cd1a-new-docking/inputs/ligands/1xz0_ligand.pdb
 OpenBabel07022319323D

125127  0  0  1  0  0  0  0  0999 V2000
  -41.3459   57.8603   60.2293 N   0  0  0  0  0  0  0  0  0  0  0  0
  -41.7583   58.8374   59.3791 C   0  0  0  0  0  0  0  0  0  0  0  0
  -34.6358   57.6816   64.4788 O   0  0  0  0  0  0  0  0  0  0  0  0
  -39.5523   62.1846   61.4790 Si  0  0  0  0  0  0  0  0  0  0  0  0
  -41.9975   56.6221   60.1416 O   0  0  0  0  0  0  0  0  0  0  0  0
  -38.2131   62.8280   62.4731 O   0  0  0  0  0  0  0  0  0  0  0  0
  -40.2943   57.9078   61.2500 C   0  0  0  0  0  0  0  0  0  0  0  0
  -33.7957   62.2764   62.2843 N   0  0  0  0  0  0  0  0  0  0  0  0
  -34.6370   58.8922   62.5105 O   0  0  0  0  0  0  0  0  0  0  0  0
  -39.6678   59.3173   61.2339 C   0  0  0  0  0  0  0  0  0  0  0  0
  -36.8950   59.8150   64.6310 N   0  0  0  0  0  0  0  0  0  0  0  0
  -34.8515   61.7950   64.2257 O   0  0  0  0  0  0  0  0  0  0  0  0
  -38.5208   59.5953   62.2201 C   0  0  0  0  0  0  0  0  0  0  0  0
  -36.9179   62.5691   62.1392 N   0  0  0  0  0  0  0  0  0  0  0  0
  -35.4578   59.5184   66.3686 O   0  0  0  0  0  0  0  0  0  0  0  0
  -37.6390   58.4030   62.6110 C   0  0  0  0  0  0  0  0  0  0  0  0
  -36.4991   61.5471   67.8314 N   0  0  0  0  0  0  0  0  0  0  0  0
  -42.6643   58.6373   58.5703 O   0  0  0  0  0  0  0  0  0  0  0  0
  -36.7890   58.5530   63.8960 C   0  0  1  0  0  0  0  0  0  0  0  0
  -36.2497   64.4067   63.2538 O   0  0  0  0  0  0  0  0  0  0  0  0
  -35.3080   58.3090   63.6770 C   0  0  0  0  0  0  0  0  0  0  0  0
  -38.5816   62.3031   67.5420 O   0  0  0  0  0  0  0  0  0  0  0  0
  -33.2588   59.3059   62.5681 C   0  0  1  0  0  0  0  0  0  0  0  0
  -39.9743   61.6612   69.9735 O   0  0  0  0  0  0  0  0  0  0  0  0
  -33.1203   60.3623   63.6540 C   0  0  0  0  0  0  0  0  0  0  0  0
  -32.2655   58.1695   62.7768 C   0  0  0  0  0  0  0  0  0  0  0  0
  -33.9818   61.5773   63.4134 C   0  0  0  0  0  0  0  0  0  0  0  0
  -36.2648   60.2028   65.7534 C   0  0  0  0  0  0  0  0  0  0  0  0
  -41.0718   60.2062   59.4331 C   0  0  0  0  0  0  0  0  0  0  0  0
  -41.6291   61.2364   58.4414 C   0  0  0  0  0  0  0  0  0  0  0  0
  -40.8577   62.5642   58.5693 C   0  0  0  0  0  0  0  0  0  0  0  0
  -39.3531   62.4330   58.2656 C   0  0  0  0  0  0  0  0  0  0  0  0
  -39.0262   61.9485   56.8407 C   0  0  0  0  0  0  0  0  0  0  0  0
  -37.5103   61.8148   56.5852 C   0  0  0  0  0  0  0  0  0  0  0  0
  -37.1388   61.3466   55.1589 C   0  0  0  0  0  0  0  0  0  0  0  0
  -35.6284   61.2057   54.9373 C   0  0  0  0  0  0  0  0  0  0  0  0
  -34.9244   60.1917   55.8446 C   0  0  0  0  0  0  0  0  0  0  0  0
  -35.1006   60.5519   57.3311 C   0  0  0  0  0  0  0  0  0  0  0  0
  -34.4016   59.5804   58.2942 C   0  0  0  0  0  0  0  0  0  0  0  0
  -32.8810   59.4702   58.1411 C   0  0  0  0  0  0  0  0  0  0  0  0
  -32.2144   58.4689   59.1172 C   0  0  0  0  0  0  0  0  0  0  0  0
  -32.7501   57.0375   58.9114 C   0  0  0  0  0  0  0  0  0  0  0  0
  -34.2569   56.8209   59.0964 C   0  0  0  0  0  0  0  0  0  0  0  0
  -36.6475   61.3039   61.4407 C   0  0  0  0  0  0  0  0  0  0  0  0
  -36.2159   61.5661   59.9855 C   0  0  0  0  0  0  0  0  0  0  0  0
  -35.9819   63.0253   59.6311 C   0  0  0  0  0  0  0  0  0  0  0  0
  -34.7706   63.6285   60.3473 C   0  0  0  0  0  0  0  0  0  0  0  0
  -34.6212   63.4139   61.8627 C   0  0  1  0  0  0  0  0  0  0  0  0
  -36.0016   63.4875   62.4855 C   0  0  0  0  0  0  0  0  0  0  0  0
  -38.1193   62.0522   66.2154 C   0  0  0  0  0  0  0  0  0  0  0  0
  -37.5235   61.9475   68.4541 C   0  0  0  0  0  0  0  0  0  0  0  0
  -36.6602   61.5392   66.3649 C   0  0  1  0  0  0  0  0  0  0  0  0
  -38.8379   61.9310   70.6272 C   0  0  0  0  0  0  0  0  0  0  0  0
  -38.8536   62.0522   72.0229 C   0  0  0  0  0  0  0  0  0  0  0  0
  -37.6759   62.3443   72.7314 C   0  0  0  0  0  0  0  0  0  0  0  0
  -36.4670   62.5087   72.0530 C   0  0  0  0  0  0  0  0  0  0  0  0
  -36.4449   62.3825   70.6612 C   0  0  0  0  0  0  0  0  0  0  0  0
  -37.6251   62.0985   69.9477 C   0  0  0  0  0  0  0  0  0  0  0  0
  -40.7933   62.5933   62.0351 H   0  0  0  0  0  0  0  0  0  0  0  0
  -39.4872   60.7663   61.4581 H   0  0  0  0  0  0  0  0  0  0  0  0
  -39.4403   62.6832   60.1541 H   0  0  0  0  0  0  0  0  0  0  0  0
  -42.6768   56.6624   59.4503 H   0  0  0  0  0  0  0  0  0  0  0  0
  -39.5448   57.1761   61.0317 H   0  0  0  0  0  0  0  0  0  0  0  0
  -40.7070   57.6986   62.2148 H   0  0  0  0  0  0  0  0  0  0  0  0
  -33.0529   62.0075   61.6968 H   0  0  0  0  0  0  0  0  0  0  0  0
  -40.4488   60.0177   61.4448 H   0  0  0  0  0  0  0  0  0  0  0  0
  -39.2224   59.4069   60.2651 H   0  0  0  0  0  0  0  0  0  0  0  0
  -37.5175   60.4746   64.2480 H   0  0  0  0  0  0  0  0  0  0  0  0
  -38.3525   60.5396   62.6009 H   0  0  0  0  0  0  0  0  0  0  0  0
  -37.6135   57.5411   62.0440 H   0  0  0  0  0  0  0  0  0  0  0  0
  -37.2383   57.7881   64.4943 H   0  0  0  0  0  0  0  0  0  0  0  0
  -33.0055   59.7065   61.6088 H   0  0  0  0  0  0  0  0  0  0  0  0
  -40.7742   61.5532   70.4494 H   0  0  0  0  0  0  0  0  0  0  0  0
  -32.0975   60.6736   63.6973 H   0  0  0  0  0  0  0  0  0  0  0  0
  -33.4443   59.9191   64.5724 H   0  0  0  0  0  0  0  0  0  0  0  0
  -32.4477   57.7060   63.7239 H   0  0  0  0  0  0  0  0  0  0  0  0
  -31.2689   58.5585   62.7559 H   0  0  0  0  0  0  0  0  0  0  0  0
  -32.3824   57.4459   61.9972 H   0  0  0  0  0  0  0  0  0  0  0  0
  -40.0321   60.0673   59.2220 H   0  0  0  0  0  0  0  0  0  0  0  0
  -41.2507   60.5983   60.4125 H   0  0  0  0  0  0  0  0  0  0  0  0
  -42.6642   61.4067   58.6520 H   0  0  0  0  0  0  0  0  0  0  0  0
  -41.5176   60.8607   57.4458 H   0  0  0  0  0  0  0  0  0  0  0  0
  -40.9709   62.9265   59.5696 H   0  0  0  0  0  0  0  0  0  0  0  0
  -41.2672   63.2368   57.8449 H   0  0  0  0  0  0  0  0  0  0  0  0
  -38.9321   61.7361   58.9599 H   0  0  0  0  0  0  0  0  0  0  0  0
  -38.9392   63.4158   58.3541 H   0  0  0  0  0  0  0  0  0  0  0  0
  -39.4300   62.6497   56.1406 H   0  0  0  0  0  0  0  0  0  0  0  0
  -39.4584   60.9765   56.7249 H   0  0  0  0  0  0  0  0  0  0  0  0
  -37.1151   61.1064   57.2830 H   0  0  0  0  0  0  0  0  0  0  0  0
  -37.0947   62.7938   56.7019 H   0  0  0  0  0  0  0  0  0  0  0  0
  -37.5191   62.0601   54.4581 H   0  0  0  0  0  0  0  0  0  0  0  0
  -37.5693   60.3765   55.0232 H   0  0  0  0  0  0  0  0  0  0  0  0
  -35.1797   62.1631   55.1012 H   0  0  0  0  0  0  0  0  0  0  0  0
  -35.5090   60.8412   53.9384 H   0  0  0  0  0  0  0  0  0  0  0  0
  -33.8804   60.1807   55.6103 H   0  0  0  0  0  0  0  0  0  0  0  0
  -35.3610   59.2294   55.6769 H   0  0  0  0  0  0  0  0  0  0  0  0
  -36.1468   60.5541   57.5554 H   0  0  0  0  0  0  0  0  0  0  0  0
  -34.6476   61.5106   57.4741 H   0  0  0  0  0  0  0  0  0  0  0  0
  -34.8187   58.6073   58.1393 H   0  0  0  0  0  0  0  0  0  0  0  0
  -34.5677   59.9733   59.2754 H   0  0  0  0  0  0  0  0  0  0  0  0
  -32.4560   60.4374   58.3108 H   0  0  0  0  0  0  0  0  0  0  0  0
  -32.6977   59.1037   57.1527 H   0  0  0  0  0  0  0  0  0  0  0  0
  -32.4178   58.7751   60.1221 H   0  0  0  0  0  0  0  0  0  0  0  0
  -31.1616   58.4641   58.9261 H   0  0  0  0  0  0  0  0  0  0  0  0
  -32.2454   56.4014   59.6083 H   0  0  0  0  0  0  0  0  0  0  0  0
  -32.5640   56.8183   57.8808 H   0  0  0  0  0  0  0  0  0  0  0  0
  -34.5241   57.0224   60.1127 H   0  0  0  0  0  0  0  0  0  0  0  0
  -34.5036   55.8076   58.8569 H   0  0  0  0  0  0  0  0  0  0  0  0
  -34.7943   57.4814   58.4485 H   0  0  0  0  0  0  0  0  0  0  0  0
  -37.5347   60.7057   61.4415 H   0  0  0  0  0  0  0  0  0  0  0  0
  -35.8551   60.7939   61.9477 H   0  0  0  0  0  0  0  0  0  0  0  0
  -36.9811   61.1877   59.3403 H   0  0  0  0  0  0  0  0  0  0  0  0
  -35.2722   61.0767   59.8637 H   0  0  0  0  0  0  0  0  0  0  0  0
  -36.8521   63.5858   59.9022 H   0  0  0  0  0  0  0  0  0  0  0  0
  -35.7879   63.0721   58.5798 H   0  0  0  0  0  0  0  0  0  0  0  0
  -34.8015   64.6850   60.1811 H   0  0  0  0  0  0  0  0  0  0  0  0
  -33.9366   63.1046   59.9292 H   0  0  0  0  0  0  0  0  0  0  0  0
  -34.0191   64.2084   62.2514 H   0  0  0  0  0  0  0  0  0  0  0  0
  -38.1403   62.9522   65.6372 H   0  0  0  0  0  0  0  0  0  0  0  0
  -38.7376   61.3390   65.7114 H   0  0  0  0  0  0  0  0  0  0  0  0
  -36.0045   62.1632   65.7943 H   0  0  0  0  0  0  0  0  0  0  0  0
  -39.7399   61.9256   72.5362 H   0  0  0  0  0  0  0  0  0  0  0  0
  -37.7048   62.4379   73.7588 H   0  0  0  0  0  0  0  0  0  0  0  0
  -35.6008   62.7207   72.5725 H   0  0  0  0  0  0  0  0  0  0  0  0
  -35.5550   62.4986   70.1517 H   0  0  0  0  0  0  0  0  0  0  0  0
  1  2  1  0  0  0  0
  1  5  1  0  0  0  0
  1  7  1  0  0  0  0
  2 18  2  0  0  0  0
  2 29  1  0  0  0  0
  3 21  2  0  0  0  0
  4  6  1  0  0  0  0
  4 59  1  0  0  0  0
  4 60  1  0  0  0  0
  4 61  1  0  0  0  0
  5 62  1  0  0  0  0
  6 14  1  0  0  0  0
  7 10  1  0  0  0  0
  7 63  1  0  0  0  0
  7 64  1  0  0  0  0
  8 27  1  0  0  0  0
  8 48  1  0  0  0  0
  8 65  1  0  0  0  0
  9 21  1  0  0  0  0
  9 23  1  0  0  0  0
 10 13  1  0  0  0  0
 10 66  1  0  0  0  0
 10 67  1  0  0  0  0
 11 19  1  0  0  0  0
 11 28  1  0  0  0  0
 11 68  1  0  0  0  0
 12 27  2  0  0  0  0
 13 16  2  0  0  0  0
 13 69  1  0  0  0  0
 14 44  1  0  0  0  0
 14 49  1  0  0  0  0
 15 28  2  0  0  0  0
 16 19  1  0  0  0  0
 16 70  1  0  0  0  0
 17 51  2  0  0  0  0
 17 52  1  0  0  0  0
 19 21  1  0  0  0  0
 19 71  1  1  0  0  0
 20 49  2  0  0  0  0
 22 50  1  0  0  0  0
 22 51  1  0  0  0  0
 23 25  1  0  0  0  0
 23 26  1  0  0  0  0
 23 72  1  6  0  0  0
 24 53  1  0  0  0  0
 24 73  1  0  0  0  0
 25 27  1  0  0  0  0
 25 74  1  0  0  0  0
 25 75  1  0  0  0  0
 26 76  1  0  0  0  0
 26 77  1  0  0  0  0
 26 78  1  0  0  0  0
 28 52  1  0  0  0  0
 29 30  1  0  0  0  0
 29 79  1  0  0  0  0
 29 80  1  0  0  0  0
 30 31  1  0  0  0  0
 30 81  1  0  0  0  0
 30 82  1  0  0  0  0
 31 32  1  0  0  0  0
 31 83  1  0  0  0  0
 31 84  1  0  0  0  0
 32 33  1  0  0  0  0
 32 85  1  0  0  0  0
 32 86  1  0  0  0  0
 33 34  1  0  0  0  0
 33 87  1  0  0  0  0
 33 88  1  0  0  0  0
 34 35  1  0  0  0  0
 34 89  1  0  0  0  0
 34 90  1  0  0  0  0
 35 36  1  0  0  0  0
 35 91  1  0  0  0  0
 35 92  1  0  0  0  0
 36 37  1  0  0  0  0
 36 93  1  0  0  0  0
 36 94  1  0  0  0  0
 37 38  1  0  0  0  0
 37 95  1  0  0  0  0
 37 96  1  0  0  0  0
 38 39  1  0  0  0  0
 38 97  1  0  0  0  0
 38 98  1  0  0  0  0
 39 40  1  0  0  0  0
 39 99  1  0  0  0  0
 39100  1  0  0  0  0
 40 41  1  0  0  0  0
 40101  1  0  0  0  0
 40102  1  0  0  0  0
 41 42  1  0  0  0  0
 41103  1  0  0  0  0
 41104  1  0  0  0  0
 42 43  1  0  0  0  0
 42105  1  0  0  0  0
 42106  1  0  0  0  0
 43107  1  0  0  0  0
 43108  1  0  0  0  0
 43109  1  0  0  0  0
 44 45  1  0  0  0  0
 44110  1  0  0  0  0
 44111  1  0  0  0  0
 45 46  1  0  0  0  0
 45112  1  0  0  0  0
 45113  1  0  0  0  0
 46 47  1  0  0  0  0
 46114  1  0  0  0  0
 46115  1  0  0  0  0
 47 48  1  0  0  0  0
 47116  1  0  0  0  0
 47117  1  0  0  0  0
 48 49  1  0  0  0  0
 48118  1  1  0  0  0
 50 52  1  0  0  0  0
 50119  1  0  0  0  0
 50120  1  0  0  0  0
 51 58  1  0  0  0  0
 52121  1  6  0  0  0
 53 54  2  0  0  0  0
 53 58  1  0  0  0  0
 54 55  1  0  0  0  0
 54122  1  0  0  0  0
 55 56  2  0  0  0  0
 55123  1  0  0  0  0
 56 57  1  0  0  0  0
 56124  1  0  0  0  0
 57 58  2  0  0  0  0
 57125  1  0  0  0  0
M  END
$$$$