/media/chris/experiments/cd1a-new-docking/inputs/ligands/1xz0_ligand.pdb
 OpenBabel07022319323D

125127  0  0  1  0  0  0  0  0999 V2000
  -38.3697   55.6534   58.6303 N   0  0  0  0  0  0  0  0  0  0  0  0
  -39.3832   54.8781   58.1617 C   0  0  0  0  0  0  0  0  0  0  0  0
  -34.4624   59.0890   64.0833 O   0  0  0  0  0  0  0  0  0  0  0  0
  -35.7891   52.1534   70.6808 Si  0  0  0  0  0  0  0  0  0  0  0  0
  -37.7774   56.5445   57.7243 O   0  0  0  0  0  0  0  0  0  0  0  0
  -34.3603   53.2249   70.7599 O   0  0  0  0  0  0  0  0  0  0  0  0
  -37.7887   55.6996   59.9757 C   0  0  0  0  0  0  0  0  0  0  0  0
  -33.4778   54.6979   66.6484 N   0  0  0  0  0  0  0  0  0  0  0  0
  -34.8671   57.1453   62.9008 O   0  0  0  0  0  0  0  0  0  0  0  0
  -38.5576   56.7536   60.7988 C   0  0  0  0  0  0  0  0  0  0  0  0
  -36.8950   59.8150   64.6310 N   0  0  0  0  0  0  0  0  0  0  0  0
  -33.5554   53.5030   64.7297 O   0  0  0  0  0  0  0  0  0  0  0  0
  -38.1064   56.9875   62.2504 C   0  0  0  0  0  0  0  0  0  0  0  0
  -33.9150   53.8671   69.6440 N   0  0  0  0  0  0  0  0  0  0  0  0
  -37.7543   61.2478   66.1742 O   0  0  0  0  0  0  0  0  0  0  0  0
  -37.6390   58.4030   62.6110 C   0  0  0  0  0  0  0  0  0  0  0  0
  -37.8853   57.9472   66.7604 N   0  0  0  0  0  0  0  0  0  0  0  0
  -39.7593   54.9597   56.9926 O   0  0  0  0  0  0  0  0  0  0  0  0
  -36.7890   58.5530   63.8960 C   0  0  1  0  0  0  0  0  0  0  0  0
  -33.7984   51.9058   68.5461 O   0  0  0  0  0  0  0  0  0  0  0  0
  -35.3080   58.3090   63.6770 C   0  0  0  0  0  0  0  0  0  0  0  0
  -39.3379   56.9364   65.3966 O   0  0  0  0  0  0  0  0  0  0  0  0
  -33.9798   56.1611   63.4647 C   0  0  1  0  0  0  0  0  0  0  0  0
  -39.7409   54.3321   66.4532 O   0  0  0  0  0  0  0  0  0  0  0  0
  -34.6594   55.5413   64.6765 C   0  0  0  0  0  0  0  0  0  0  0  0
  -33.5194   55.0892   62.4846 C   0  0  0  0  0  0  0  0  0  0  0  0
  -33.8115   54.5003   65.3647 C   0  0  0  0  0  0  0  0  0  0  0  0
  -37.7336   60.1539   65.6256 C   0  0  0  0  0  0  0  0  0  0  0  0
  -40.0660   53.8931   59.1164 C   0  0  0  0  0  0  0  0  0  0  0  0
  -39.9745   52.4230   58.6853 C   0  0  0  0  0  0  0  0  0  0  0  0
  -38.4990   51.9861   58.6068 C   0  0  0  0  0  0  0  0  0  0  0  0
  -38.3137   50.5227   58.1628 C   0  0  0  0  0  0  0  0  0  0  0  0
  -36.8482   50.0545   58.0923 C   0  0  0  0  0  0  0  0  0  0  0  0
  -36.1261   50.1355   59.4536 C   0  0  0  0  0  0  0  0  0  0  0  0
  -34.6455   49.6899   59.4221 C   0  0  0  0  0  0  0  0  0  0  0  0
  -33.7738   50.5356   58.4866 C   0  0  0  0  0  0  0  0  0  0  0  0
  -32.3011   50.1206   58.4094 C   0  0  0  0  0  0  0  0  0  0  0  0
  -31.6257   50.1889   59.7913 C   0  0  0  0  0  0  0  0  0  0  0  0
  -30.1396   49.8001   59.7778 C   0  0  0  0  0  0  0  0  0  0  0  0
  -29.4296   49.8372   61.1351 C   0  0  0  0  0  0  0  0  0  0  0  0
  -27.9292   49.4559   61.0786 C   0  0  0  0  0  0  0  0  0  0  0  0
  -27.7286   48.0324   60.5204 C   0  0  0  0  0  0  0  0  0  0  0  0
  -28.3971   46.8814   61.2818 C   0  0  0  0  0  0  0  0  0  0  0  0
  -33.8887   55.3366   69.6837 C   0  0  0  0  0  0  0  0  0  0  0  0
  -32.4385   55.8559   69.6857 C   0  0  0  0  0  0  0  0  0  0  0  0
  -31.3702   54.7980   69.4641 C   0  0  0  0  0  0  0  0  0  0  0  0
  -31.4032   54.1999   68.0551 C   0  0  0  0  0  0  0  0  0  0  0  0
  -32.7497   53.7315   67.4786 C   0  0  1  0  0  0  0  0  0  0  0  0
  -33.5483   53.1020   68.6033 C   0  0  0  0  0  0  0  0  0  0  0  0
  -39.6251   58.3251   65.2368 C   0  0  0  0  0  0  0  0  0  0  0  0
  -38.2506   56.8144   66.3352 C   0  0  0  0  0  0  0  0  0  0  0  0
  -38.6466   59.0723   66.1849 C   0  0  1  0  0  0  0  0  0  0  0  0
  -38.4485   54.3258   66.8014 C   0  0  0  0  0  0  0  0  0  0  0  0
  -37.8435   53.1256   67.1969 C   0  0  0  0  0  0  0  0  0  0  0  0
  -36.4909   53.0943   67.5761 C   0  0  0  0  0  0  0  0  0  0  0  0
  -35.7252   54.2613   67.5546 C   0  0  0  0  0  0  0  0  0  0  0  0
  -36.3225   55.4600   67.1548 C   0  0  0  0  0  0  0  0  0  0  0  0
  -37.6800   55.4961   66.7826 C   0  0  0  0  0  0  0  0  0  0  0  0
  -36.0450   51.6099   71.9674 H   0  0  0  0  0  0  0  0  0  0  0  0
  -35.5399   51.0992   69.7626 H   0  0  0  0  0  0  0  0  0  0  0  0
  -36.9173   52.9001   70.2493 H   0  0  0  0  0  0  0  0  0  0  0  0
  -38.2087   56.4606   56.8595 H   0  0  0  0  0  0  0  0  0  0  0  0
  -36.7556   55.9713   59.9146 H   0  0  0  0  0  0  0  0  0  0  0  0
  -37.8638   54.7400   60.4430 H   0  0  0  0  0  0  0  0  0  0  0  0
  -33.7398   55.5515   67.0631 H   0  0  0  0  0  0  0  0  0  0  0  0
  -39.5839   56.4523   60.8266 H   0  0  0  0  0  0  0  0  0  0  0  0
  -38.3666   57.6812   60.3008 H   0  0  0  0  0  0  0  0  0  0  0  0
  -36.2607   60.5165   64.3574 H   0  0  0  0  0  0  0  0  0  0  0  0
  -38.1176   56.2279   62.9488 H   0  0  0  0  0  0  0  0  0  0  0  0
  -37.8799   59.2173   62.0245 H   0  0  0  0  0  0  0  0  0  0  0  0
  -37.2383   57.7881   64.4943 H   0  0  0  0  0  0  0  0  0  0  0  0
  -33.0800   56.6668   63.7465 H   0  0  0  0  0  0  0  0  0  0  0  0
  -40.2355   53.5365   66.4735 H   0  0  0  0  0  0  0  0  0  0  0  0
  -35.5708   55.0808   64.3570 H   0  0  0  0  0  0  0  0  0  0  0  0
  -34.8323   56.3276   65.3812 H   0  0  0  0  0  0  0  0  0  0  0  0
  -34.3652   54.5277   62.1468 H   0  0  0  0  0  0  0  0  0  0  0  0
  -32.8277   54.4340   62.9716 H   0  0  0  0  0  0  0  0  0  0  0  0
  -33.0418   55.5532   61.6470 H   0  0  0  0  0  0  0  0  0  0  0  0
  -41.1006   54.1575   59.1857 H   0  0  0  0  0  0  0  0  0  0  0  0
  -39.5516   53.9690   60.0515 H   0  0  0  0  0  0  0  0  0  0  0  0
  -40.4298   52.3069   57.7240 H   0  0  0  0  0  0  0  0  0  0  0  0
  -40.4825   51.8146   59.4041 H   0  0  0  0  0  0  0  0  0  0  0  0
  -38.0588   52.1045   59.5748 H   0  0  0  0  0  0  0  0  0  0  0  0
  -38.0279   52.6008   57.8685 H   0  0  0  0  0  0  0  0  0  0  0  0
  -38.7467   50.4115   57.1906 H   0  0  0  0  0  0  0  0  0  0  0  0
  -38.7898   49.9178   58.9060 H   0  0  0  0  0  0  0  0  0  0  0  0
  -36.3259   50.6717   57.3914 H   0  0  0  0  0  0  0  0  0  0  0  0
  -36.8531   49.0275   57.7919 H   0  0  0  0  0  0  0  0  0  0  0  0
  -36.6486   49.5099   60.1467 H   0  0  0  0  0  0  0  0  0  0  0  0
  -36.1273   51.1671   59.7376 H   0  0  0  0  0  0  0  0  0  0  0  0
  -34.6047   48.6719   59.0954 H   0  0  0  0  0  0  0  0  0  0  0  0
  -34.2579   49.8134   60.4118 H   0  0  0  0  0  0  0  0  0  0  0  0
  -33.8139   51.5499   58.8247 H   0  0  0  0  0  0  0  0  0  0  0  0
  -34.1724   50.3947   57.5036 H   0  0  0  0  0  0  0  0  0  0  0  0
  -31.7888   50.7780   57.7385 H   0  0  0  0  0  0  0  0  0  0  0  0
  -32.2536   49.1101   58.0606 H   0  0  0  0  0  0  0  0  0  0  0  0
  -32.1420   49.5239   60.4518 H   0  0  0  0  0  0  0  0  0  0  0  0
  -31.6771   51.2084   60.1119 H   0  0  0  0  0  0  0  0  0  0  0  0
  -29.6296   50.4741   59.1217 H   0  0  0  0  0  0  0  0  0  0  0  0
  -30.1088   48.7785   59.4611 H   0  0  0  0  0  0  0  0  0  0  0  0
  -29.9251   49.1529   61.7916 H   0  0  0  0  0  0  0  0  0  0  0  0
  -29.4764   50.8496   61.4784 H   0  0  0  0  0  0  0  0  0  0  0  0
  -27.5212   49.5026   62.0667 H   0  0  0  0  0  0  0  0  0  0  0  0
  -27.4319   50.1448   60.4283 H   0  0  0  0  0  0  0  0  0  0  0  0
  -26.6764   47.8387   60.5027 H   0  0  0  0  0  0  0  0  0  0  0  0
  -28.2037   48.0421   59.5617 H   0  0  0  0  0  0  0  0  0  0  0  0
  -27.9714   46.8065   62.2606 H   0  0  0  0  0  0  0  0  0  0  0  0
  -28.2391   45.9647   60.7530 H   0  0  0  0  0  0  0  0  0  0  0  0
  -29.4472   47.0699   61.3630 H   0  0  0  0  0  0  0  0  0  0  0  0
  -34.3833   55.6728   70.5710 H   0  0  0  0  0  0  0  0  0  0  0  0
  -34.3874   55.7130   68.8151 H   0  0  0  0  0  0  0  0  0  0  0  0
  -32.2543   56.3187   70.6327 H   0  0  0  0  0  0  0  0  0  0  0  0
  -32.3641   56.5299   68.8579 H   0  0  0  0  0  0  0  0  0  0  0  0
  -31.5187   54.0099   70.1725 H   0  0  0  0  0  0  0  0  0  0  0  0
  -30.4193   55.2727   69.5879 H   0  0  0  0  0  0  0  0  0  0  0  0
  -30.7509   53.3517   68.0585 H   0  0  0  0  0  0  0  0  0  0  0  0
  -31.1213   55.0152   67.4222 H   0  0  0  0  0  0  0  0  0  0  0  0
  -32.5505   52.9901   66.7333 H   0  0  0  0  0  0  0  0  0  0  0  0
  -40.6388   58.5299   65.5112 H   0  0  0  0  0  0  0  0  0  0  0  0
  -39.5041   58.6376   64.2206 H   0  0  0  0  0  0  0  0  0  0  0  0
  -39.2058   59.6850   66.8607 H   0  0  0  0  0  0  0  0  0  0  0  0
  -38.3974   52.2549   67.2098 H   0  0  0  0  0  0  0  0  0  0  0  0
  -36.0613   52.2039   67.8721 H   0  0  0  0  0  0  0  0  0  0  0  0
  -34.7310   54.2393   67.8303 H   0  0  0  0  0  0  0  0  0  0  0  0
  -35.7631   56.3270   67.1321 H   0  0  0  0  0  0  0  0  0  0  0  0
  1  2  1  0  0  0  0
  1  5  1  0  0  0  0
  1  7  1  0  0  0  0
  2 18  2  0  0  0  0
  2 29  1  0  0  0  0
  3 21  2  0  0  0  0
  4  6  1  0  0  0  0
  4 59  1  0  0  0  0
  4 60  1  0  0  0  0
  4 61  1  0  0  0  0
  5 62  1  0  0  0  0
  6 14  1  0  0  0  0
  7 10  1  0  0  0  0
  7 63  1  0  0  0  0
  7 64  1  0  0  0  0
  8 27  1  0  0  0  0
  8 48  1  0  0  0  0
  8 65  1  0  0  0  0
  9 21  1  0  0  0  0
  9 23  1  0  0  0  0
 10 13  1  0  0  0  0
 10 66  1  0  0  0  0
 10 67  1  0  0  0  0
 11 19  1  0  0  0  0
 11 28  1  0  0  0  0
 11 68  1  0  0  0  0
 12 27  2  0  0  0  0
 13 16  2  0  0  0  0
 13 69  1  0  0  0  0
 14 44  1  0  0  0  0
 14 49  1  0  0  0  0
 15 28  2  0  0  0  0
 16 19  1  0  0  0  0
 16 70  1  0  0  0  0
 17 51  2  0  0  0  0
 17 52  1  0  0  0  0
 19 21  1  0  0  0  0
 19 71  1  1  0  0  0
 20 49  2  0  0  0  0
 22 50  1  0  0  0  0
 22 51  1  0  0  0  0
 23 25  1  0  0  0  0
 23 26  1  0  0  0  0
 23 72  1  1  0  0  0
 24 53  1  0  0  0  0
 24 73  1  0  0  0  0
 25 27  1  0  0  0  0
 25 74  1  0  0  0  0
 25 75  1  0  0  0  0
 26 76  1  0  0  0  0
 26 77  1  0  0  0  0
 26 78  1  0  0  0  0
 28 52  1  0  0  0  0
 29 30  1  0  0  0  0
 29 79  1  0  0  0  0
 29 80  1  0  0  0  0
 30 31  1  0  0  0  0
 30 81  1  0  0  0  0
 30 82  1  0  0  0  0
 31 32  1  0  0  0  0
 31 83  1  0  0  0  0
 31 84  1  0  0  0  0
 32 33  1  0  0  0  0
 32 85  1  0  0  0  0
 32 86  1  0  0  0  0
 33 34  1  0  0  0  0
 33 87  1  0  0  0  0
 33 88  1  0  0  0  0
 34 35  1  0  0  0  0
 34 89  1  0  0  0  0
 34 90  1  0  0  0  0
 35 36  1  0  0  0  0
 35 91  1  0  0  0  0
 35 92  1  0  0  0  0
 36 37  1  0  0  0  0
 36 93  1  0  0  0  0
 36 94  1  0  0  0  0
 37 38  1  0  0  0  0
 37 95  1  0  0  0  0
 37 96  1  0  0  0  0
 38 39  1  0  0  0  0
 38 97  1  0  0  0  0
 38 98  1  0  0  0  0
 39 40  1  0  0  0  0
 39 99  1  0  0  0  0
 39100  1  0  0  0  0
 40 41  1  0  0  0  0
 40101  1  0  0  0  0
 40102  1  0  0  0  0
 41 42  1  0  0  0  0
 41103  1  0  0  0  0
 41104  1  0  0  0  0
 42 43  1  0  0  0  0
 42105  1  0  0  0  0
 42106  1  0  0  0  0
 43107  1  0  0  0  0
 43108  1  0  0  0  0
 43109  1  0  0  0  0
 44 45  1  0  0  0  0
 44110  1  0  0  0  0
 44111  1  0  0  0  0
 45 46  1  0  0  0  0
 45112  1  0  0  0  0
 45113  1  0  0  0  0
 46 47  1  0  0  0  0
 46114  1  0  0  0  0
 46115  1  0  0  0  0
 47 48  1  0  0  0  0
 47116  1  0  0  0  0
 47117  1  0  0  0  0
 48 49  1  0  0  0  0
 48118  1  6  0  0  0
 50 52  1  0  0  0  0
 50119  1  0  0  0  0
 50120  1  0  0  0  0
 51 58  1  0  0  0  0
 52121  1  1  0  0  0
 53 54  2  0  0  0  0
 53 58  1  0  0  0  0
 54 55  1  0  0  0  0
 54122  1  0  0  0  0
 55 56  2  0  0  0  0
 55123  1  0  0  0  0
 56 57  1  0  0  0  0
 56124  1  0  0  0  0
 57 58  2  0  0  0  0
 57125  1  0  0  0  0
M  END
$$$$