/media/chris/experiments/cd1a-new-docking/inputs/ligands/1xz0_ligand.pdb
 OpenBabel07022319323D

125127  0  0  1  0  0  0  0  0999 V2000
  -36.3713   58.4855   58.3441 N   0  0  0  0  0  0  0  0  0  0  0  0
  -35.5591   57.6339   57.6639 C   0  0  0  0  0  0  0  0  0  0  0  0
  -34.7303   58.7191   62.6838 O   0  0  0  0  0  0  0  0  0  0  0  0
  -37.8891   56.4440   70.4187 Si  0  0  0  0  0  0  0  0  0  0  0  0
  -35.8627   59.7605   58.6290 O   0  0  0  0  0  0  0  0  0  0  0  0
  -37.6825   56.7395   68.6677 O   0  0  0  0  0  0  0  0  0  0  0  0
  -37.7348   58.2656   58.8364 C   0  0  0  0  0  0  0  0  0  0  0  0
  -34.4785   59.6003   67.4832 N   0  0  0  0  0  0  0  0  0  0  0  0
  -34.5507   57.5039   64.6410 O   0  0  0  0  0  0  0  0  0  0  0  0
  -37.9322   59.1139   60.1095 C   0  0  0  0  0  0  0  0  0  0  0  0
  -36.8950   59.8150   64.6310 N   0  0  0  0  0  0  0  0  0  0  0  0
  -33.2054   57.7467   67.7259 O   0  0  0  0  0  0  0  0  0  0  0  0
  -36.9889   58.8455   61.2943 C   0  0  0  0  0  0  0  0  0  0  0  0
  -36.9303   57.7864   68.2273 N   0  0  0  0  0  0  0  0  0  0  0  0
  -37.9248   61.7067   65.3617 O   0  0  0  0  0  0  0  0  0  0  0  0
  -37.6390   58.4030   62.6110 C   0  0  0  0  0  0  0  0  0  0  0  0
  -39.7804   58.9936   64.6904 N   0  0  0  0  0  0  0  0  0  0  0  0
  -34.4282   57.9733   57.3164 O   0  0  0  0  0  0  0  0  0  0  0  0
  -36.7890   58.5530   63.8960 C   0  0  1  0  0  0  0  0  0  0  0  0
  -35.4959   57.4916   69.9364 O   0  0  0  0  0  0  0  0  0  0  0  0
  -35.3080   58.3090   63.6770 C   0  0  0  0  0  0  0  0  0  0  0  0
  -39.8549   58.5826   62.4955 O   0  0  0  0  0  0  0  0  0  0  0  0
  -33.1344   57.6899   64.8237 C   0  0  1  0  0  0  0  0  0  0  0  0
  -41.7566   57.5636   66.1454 O   0  0  0  0  0  0  0  0  0  0  0  0
  -32.9219   58.8929   65.7303 C   0  0  0  0  0  0  0  0  0  0  0  0
  -32.3987   56.4654   65.3536 C   0  0  0  0  0  0  0  0  0  0  0  0
  -33.5405   58.7236   67.0960 C   0  0  0  0  0  0  0  0  0  0  0  0
  -37.9361   60.6601   64.7271 C   0  0  0  0  0  0  0  0  0  0  0  0
  -36.0734   56.2311   57.3238 C   0  0  0  0  0  0  0  0  0  0  0  0
  -36.1212   55.9184   55.8220 C   0  0  0  0  0  0  0  0  0  0  0  0
  -36.6674   54.4955   55.5955 C   0  0  0  0  0  0  0  0  0  0  0  0
  -36.7332   54.0912   54.1104 C   0  0  0  0  0  0  0  0  0  0  0  0
  -35.3742   54.0877   53.3858 C   0  0  0  0  0  0  0  0  0  0  0  0
  -34.6802   55.4659   53.4052 C   0  0  0  0  0  0  0  0  0  0  0  0
  -33.3191   55.5093   52.6724 C   0  0  0  0  0  0  0  0  0  0  0  0
  -32.6436   56.8846   52.7214 C   0  0  0  0  0  0  0  0  0  0  0  0
  -31.2989   56.9808   51.9937 C   0  0  0  0  0  0  0  0  0  0  0  0
  -31.4493   56.6691   50.4935 C   0  0  0  0  0  0  0  0  0  0  0  0
  -32.3911   57.6281   49.7496 C   0  0  0  0  0  0  0  0  0  0  0  0
  -32.5847   57.3458   48.2561 C   0  0  0  0  0  0  0  0  0  0  0  0
  -33.1909   55.9546   47.9451 C   0  0  0  0  0  0  0  0  0  0  0  0
  -33.3418   55.7305   46.4268 C   0  0  0  0  0  0  0  0  0  0  0  0
  -33.9470   54.3967   45.9730 C   0  0  0  0  0  0  0  0  0  0  0  0
  -37.3139   58.3924   66.9437 C   0  0  0  0  0  0  0  0  0  0  0  0
  -37.8687   59.8136   67.1561 C   0  0  0  0  0  0  0  0  0  0  0  0
  -37.7385   60.3564   68.5697 C   0  0  0  0  0  0  0  0  0  0  0  0
  -36.2859   60.6074   68.9830 C   0  0  0  0  0  0  0  0  0  0  0  0
  -35.2418   59.5065   68.7329 C   0  0  1  0  0  0  0  0  0  0  0  0
  -35.8995   58.1666   68.9993 C   0  0  0  0  0  0  0  0  0  0  0  0
  -39.3094   59.8985   62.5807 C   0  0  0  0  0  0  0  0  0  0  0  0
  -40.0924   58.1141   63.8379 C   0  0  0  0  0  0  0  0  0  0  0  0
  -39.2550   60.2376   64.0962 C   0  0  1  0  0  0  0  0  0  0  0  0
  -41.5028   56.5728   65.2820 C   0  0  0  0  0  0  0  0  0  0  0  0
  -42.0558   55.3043   65.5011 C   0  0  0  0  0  0  0  0  0  0  0  0
  -41.7968   54.2453   64.6148 C   0  0  0  0  0  0  0  0  0  0  0  0
  -40.9896   54.4454   63.4935 C   0  0  0  0  0  0  0  0  0  0  0  0
  -40.4406   55.7106   63.2670 C   0  0  0  0  0  0  0  0  0  0  0  0
  -40.6914   56.7716   64.1583 C   0  0  0  0  0  0  0  0  0  0  0  0
  -38.7106   55.3020   70.6122 H   0  0  0  0  0  0  0  0  0  0  0  0
  -38.5013   57.5750   71.0206 H   0  0  0  0  0  0  0  0  0  0  0  0
  -36.6195   56.2201   71.0139 H   0  0  0  0  0  0  0  0  0  0  0  0
  -34.9622   59.8356   58.2764 H   0  0  0  0  0  0  0  0  0  0  0  0
  -37.8739   57.2299   59.0664 H   0  0  0  0  0  0  0  0  0  0  0  0
  -38.4468   58.5496   58.0899 H   0  0  0  0  0  0  0  0  0  0  0  0
  -34.6683   60.3604   66.8871 H   0  0  0  0  0  0  0  0  0  0  0  0
  -38.9324   58.9496   60.4524 H   0  0  0  0  0  0  0  0  0  0  0  0
  -37.7114   60.1161   59.8066 H   0  0  0  0  0  0  0  0  0  0  0  0
  -36.0875   60.0833   65.1262 H   0  0  0  0  0  0  0  0  0  0  0  0
  -35.9667   58.9578   61.2074 H   0  0  0  0  0  0  0  0  0  0  0  0
  -38.5981   58.0231   62.6390 H   0  0  0  0  0  0  0  0  0  0  0  0
  -37.2383   57.7881   64.4943 H   0  0  0  0  0  0  0  0  0  0  0  0
  -32.7073   57.8581   63.8571 H   0  0  0  0  0  0  0  0  0  0  0  0
  -42.3027   57.4073   66.8906 H   0  0  0  0  0  0  0  0  0  0  0  0
  -33.3573   59.7518   65.2637 H   0  0  0  0  0  0  0  0  0  0  0  0
  -31.8669   59.0036   65.8703 H   0  0  0  0  0  0  0  0  0  0  0  0
  -32.7667   56.2224   66.3285 H   0  0  0  0  0  0  0  0  0  0  0  0
  -31.3510   56.6754   65.4099 H   0  0  0  0  0  0  0  0  0  0  0  0
  -32.5618   55.6384   64.6945 H   0  0  0  0  0  0  0  0  0  0  0  0
  -37.0636   56.1335   57.7173 H   0  0  0  0  0  0  0  0  0  0  0  0
  -35.3813   55.5396   57.7571 H   0  0  0  0  0  0  0  0  0  0  0  0
  -35.1343   55.9878   55.4143 H   0  0  0  0  0  0  0  0  0  0  0  0
  -36.7651   56.6223   55.3376 H   0  0  0  0  0  0  0  0  0  0  0  0
  -37.6546   54.4427   56.0048 H   0  0  0  0  0  0  0  0  0  0  0  0
  -35.9918   53.8191   56.0760 H   0  0  0  0  0  0  0  0  0  0  0  0
  -37.3788   54.7790   53.6056 H   0  0  0  0  0  0  0  0  0  0  0  0
  -37.0922   53.0835   54.0863 H   0  0  0  0  0  0  0  0  0  0  0  0
  -35.5309   53.7986   52.3676 H   0  0  0  0  0  0  0  0  0  0  0  0
  -34.7370   53.3999   53.9014 H   0  0  0  0  0  0  0  0  0  0  0  0
  -34.5194   55.7446   54.4256 H   0  0  0  0  0  0  0  0  0  0  0  0
  -35.3278   56.1398   52.8842 H   0  0  0  0  0  0  0  0  0  0  0  0
  -33.4773   55.2457   51.6475 H   0  0  0  0  0  0  0  0  0  0  0  0
  -32.6698   54.8210   53.1720 H   0  0  0  0  0  0  0  0  0  0  0  0
  -32.4821   57.1370   53.7486 H   0  0  0  0  0  0  0  0  0  0  0  0
  -33.3034   57.5562   52.2131 H   0  0  0  0  0  0  0  0  0  0  0  0
  -30.6168   56.2803   52.4283 H   0  0  0  0  0  0  0  0  0  0  0  0
  -30.9317   57.9807   52.0950 H   0  0  0  0  0  0  0  0  0  0  0  0
  -31.8324   55.6751   50.3927 H   0  0  0  0  0  0  0  0  0  0  0  0
  -30.4803   56.7825   50.0541 H   0  0  0  0  0  0  0  0  0  0  0  0
  -31.9971   58.6179   49.8485 H   0  0  0  0  0  0  0  0  0  0  0  0
  -33.3538   57.4967   50.1979 H   0  0  0  0  0  0  0  0  0  0  0  0
  -31.6306   57.4107   47.7761 H   0  0  0  0  0  0  0  0  0  0  0  0
  -33.2818   58.0723   47.8942 H   0  0  0  0  0  0  0  0  0  0  0  0
  -34.1549   55.8848   48.4044 H   0  0  0  0  0  0  0  0  0  0  0  0
  -32.5302   55.2065   48.3309 H   0  0  0  0  0  0  0  0  0  0  0  0
  -32.3672   55.8067   45.9916 H   0  0  0  0  0  0  0  0  0  0  0  0
  -34.0407   56.4744   46.1059 H   0  0  0  0  0  0  0  0  0  0  0  0
  -33.2992   53.5950   46.2604 H   0  0  0  0  0  0  0  0  0  0  0  0
  -34.0600   54.4000   44.9090 H   0  0  0  0  0  0  0  0  0  0  0  0
  -34.9040   54.2644   46.4329 H   0  0  0  0  0  0  0  0  0  0  0  0
  -38.0654   57.7877   66.4806 H   0  0  0  0  0  0  0  0  0  0  0  0
  -36.4473   58.4515   66.3188 H   0  0  0  0  0  0  0  0  0  0  0  0
  -38.9075   59.8048   66.8996 H   0  0  0  0  0  0  0  0  0  0  0  0
  -37.2799   60.4571   66.5364 H   0  0  0  0  0  0  0  0  0  0  0  0
  -38.1684   59.6488   69.2475 H   0  0  0  0  0  0  0  0  0  0  0  0
  -38.2467   61.2975   68.5991 H   0  0  0  0  0  0  0  0  0  0  0  0
  -36.2883   60.8050   70.0346 H   0  0  0  0  0  0  0  0  0  0  0  0
  -35.9721   61.4095   68.3482 H   0  0  0  0  0  0  0  0  0  0  0  0
  -34.4401   59.6470   69.4275 H   0  0  0  0  0  0  0  0  0  0  0  0
  -39.9364   60.5958   62.0653 H   0  0  0  0  0  0  0  0  0  0  0  0
  -38.3404   59.9528   62.1302 H   0  0  0  0  0  0  0  0  0  0  0  0
  -39.8019   61.1391   64.2779 H   0  0  0  0  0  0  0  0  0  0  0  0
  -42.6601   55.1461   66.3226 H   0  0  0  0  0  0  0  0  0  0  0  0
  -42.2053   53.3147   64.7936 H   0  0  0  0  0  0  0  0  0  0  0  0
  -40.8007   53.6691   62.8403 H   0  0  0  0  0  0  0  0  0  0  0  0
  -39.8458   55.8688   62.4387 H   0  0  0  0  0  0  0  0  0  0  0  0
  1  2  1  0  0  0  0
  1  5  1  0  0  0  0
  1  7  1  0  0  0  0
  2 18  2  0  0  0  0
  2 29  1  0  0  0  0
  3 21  2  0  0  0  0
  4  6  1  0  0  0  0
  4 59  1  0  0  0  0
  4 60  1  0  0  0  0
  4 61  1  0  0  0  0
  5 62  1  0  0  0  0
  6 14  1  0  0  0  0
  7 10  1  0  0  0  0
  7 63  1  0  0  0  0
  7 64  1  0  0  0  0
  8 27  1  0  0  0  0
  8 48  1  0  0  0  0
  8 65  1  0  0  0  0
  9 21  1  0  0  0  0
  9 23  1  0  0  0  0
 10 13  1  0  0  0  0
 10 66  1  0  0  0  0
 10 67  1  0  0  0  0
 11 19  1  0  0  0  0
 11 28  1  0  0  0  0
 11 68  1  0  0  0  0
 12 27  2  0  0  0  0
 13 16  2  0  0  0  0
 13 69  1  0  0  0  0
 14 44  1  0  0  0  0
 14 49  1  0  0  0  0
 15 28  2  0  0  0  0
 16 19  1  0  0  0  0
 16 70  1  0  0  0  0
 17 51  2  0  0  0  0
 17 52  1  0  0  0  0
 19 21  1  0  0  0  0
 19 71  1  1  0  0  0
 20 49  2  0  0  0  0
 22 50  1  0  0  0  0
 22 51  1  0  0  0  0
 23 25  1  0  0  0  0
 23 26  1  0  0  0  0
 23 72  1  6  0  0  0
 24 53  1  0  0  0  0
 24 73  1  0  0  0  0
 25 27  1  0  0  0  0
 25 74  1  0  0  0  0
 25 75  1  0  0  0  0
 26 76  1  0  0  0  0
 26 77  1  0  0  0  0
 26 78  1  0  0  0  0
 28 52  1  0  0  0  0
 29 30  1  0  0  0  0
 29 79  1  0  0  0  0
 29 80  1  0  0  0  0
 30 31  1  0  0  0  0
 30 81  1  0  0  0  0
 30 82  1  0  0  0  0
 31 32  1  0  0  0  0
 31 83  1  0  0  0  0
 31 84  1  0  0  0  0
 32 33  1  0  0  0  0
 32 85  1  0  0  0  0
 32 86  1  0  0  0  0
 33 34  1  0  0  0  0
 33 87  1  0  0  0  0
 33 88  1  0  0  0  0
 34 35  1  0  0  0  0
 34 89  1  0  0  0  0
 34 90  1  0  0  0  0
 35 36  1  0  0  0  0
 35 91  1  0  0  0  0
 35 92  1  0  0  0  0
 36 37  1  0  0  0  0
 36 93  1  0  0  0  0
 36 94  1  0  0  0  0
 37 38  1  0  0  0  0
 37 95  1  0  0  0  0
 37 96  1  0  0  0  0
 38 39  1  0  0  0  0
 38 97  1  0  0  0  0
 38 98  1  0  0  0  0
 39 40  1  0  0  0  0
 39 99  1  0  0  0  0
 39100  1  0  0  0  0
 40 41  1  0  0  0  0
 40101  1  0  0  0  0
 40102  1  0  0  0  0
 41 42  1  0  0  0  0
 41103  1  0  0  0  0
 41104  1  0  0  0  0
 42 43  1  0  0  0  0
 42105  1  0  0  0  0
 42106  1  0  0  0  0
 43107  1  0  0  0  0
 43108  1  0  0  0  0
 43109  1  0  0  0  0
 44 45  1  0  0  0  0
 44110  1  0  0  0  0
 44111  1  0  0  0  0
 45 46  1  0  0  0  0
 45112  1  0  0  0  0
 45113  1  0  0  0  0
 46 47  1  0  0  0  0
 46114  1  0  0  0  0
 46115  1  0  0  0  0
 47 48  1  0  0  0  0
 47116  1  0  0  0  0
 47117  1  0  0  0  0
 48 49  1  0  0  0  0
 48118  1  1  0  0  0
 50 52  1  0  0  0  0
 50119  1  0  0  0  0
 50120  1  0  0  0  0
 51 58  1  0  0  0  0
 52121  1  1  0  0  0
 53 54  2  0  0  0  0
 53 58  1  0  0  0  0
 54 55  1  0  0  0  0
 54122  1  0  0  0  0
 55 56  2  0  0  0  0
 55123  1  0  0  0  0
 56 57  1  0  0  0  0
 56124  1  0  0  0  0
 57 58  2  0  0  0  0
 57125  1  0  0  0  0
M  END
$$$$