/media/chris/experiments/cd1a-new-docking/inputs/ligands/1xz0_ligand.pdb
 OpenBabel07022319323D

125127  0  0  1  0  0  0  0  0999 V2000
  -40.4884   60.5770   59.5198 N   0  0  0  0  0  0  0  0  0  0  0  0
  -40.4745   59.7734   58.4236 C   0  0  0  0  0  0  0  0  0  0  0  0
  -34.9015   57.3291   63.0745 O   0  0  0  0  0  0  0  0  0  0  0  0
  -26.3164   59.9723   58.1198 Si  0  0  0  0  0  0  0  0  0  0  0  0
  -41.5344   61.5055   59.6163 O   0  0  0  0  0  0  0  0  0  0  0  0
  -28.0993   59.9524   58.2496 O   0  0  0  0  0  0  0  0  0  0  0  0
  -39.5502   60.6191   60.6457 C   0  0  0  0  0  0  0  0  0  0  0  0
  -30.2607   60.6022   62.0914 N   0  0  0  0  0  0  0  0  0  0  0  0
  -34.3234   59.2293   64.2555 O   0  0  0  0  0  0  0  0  0  0  0  0
  -38.4615   59.5524   60.4085 C   0  0  0  0  0  0  0  0  0  0  0  0
  -36.8950   59.8150   64.6310 N   0  0  0  0  0  0  0  0  0  0  0  0
  -30.1836   59.4754   64.0509 O   0  0  0  0  0  0  0  0  0  0  0  0
  -37.3686   59.4033   61.4804 C   0  0  0  0  0  0  0  0  0  0  0  0
  -28.7028   59.8641   59.4678 N   0  0  0  0  0  0  0  0  0  0  0  0
  -38.3860   61.0055   63.3930 O   0  0  0  0  0  0  0  0  0  0  0  0
  -37.6390   58.4030   62.6110 C   0  0  0  0  0  0  0  0  0  0  0  0
  -37.7121   63.3810   64.5077 N   0  0  0  0  0  0  0  0  0  0  0  0
  -39.5985   58.9228   58.2684 O   0  0  0  0  0  0  0  0  0  0  0  0
  -36.7890   58.5530   63.8960 C   0  0  1  0  0  0  0  0  0  0  0  0
  -27.8976   61.8898   60.0280 O   0  0  0  0  0  0  0  0  0  0  0  0
  -35.3080   58.3090   63.6770 C   0  0  0  0  0  0  0  0  0  0  0  0
  -35.7326   63.7445   65.4780 O   0  0  0  0  0  0  0  0  0  0  0  0
  -32.9090   58.9936   64.1228 C   0  0  1  0  0  0  0  0  0  0  0  0
  -39.1855   65.7720   64.0841 O   0  0  0  0  0  0  0  0  0  0  0  0
  -32.2928   60.1754   63.3893 C   0  0  0  0  0  0  0  0  0  0  0  0
  -32.1864   58.7248   65.4370 C   0  0  0  0  0  0  0  0  0  0  0  0
  -30.8062   60.0316   63.1755 C   0  0  0  0  0  0  0  0  0  0  0  0
  -37.6390   60.9007   64.3569 C   0  0  0  0  0  0  0  0  0  0  0  0
  -41.5703   59.9425   57.3659 C   0  0  0  0  0  0  0  0  0  0  0  0
  -41.9349   58.6536   56.6167 C   0  0  0  0  0  0  0  0  0  0  0  0
  -40.6935   58.0909   55.8980 C   0  0  0  0  0  0  0  0  0  0  0  0
  -40.9746   56.8013   55.1035 C   0  0  0  0  0  0  0  0  0  0  0  0
  -39.7463   56.2076   54.3889 C   0  0  0  0  0  0  0  0  0  0  0  0
  -38.6153   55.8175   55.3634 C   0  0  0  0  0  0  0  0  0  0  0  0
  -38.0709   56.9874   56.2159 C   0  0  0  0  0  0  0  0  0  0  0  0
  -36.9372   56.5763   57.1626 C   0  0  0  0  0  0  0  0  0  0  0  0
  -36.3766   57.6995   58.0407 C   0  0  0  0  0  0  0  0  0  0  0  0
  -35.8163   58.8521   57.1875 C   0  0  0  0  0  0  0  0  0  0  0  0
  -35.2224   60.0048   58.0112 C   0  0  0  0  0  0  0  0  0  0  0  0
  -34.0422   59.6369   58.9165 C   0  0  0  0  0  0  0  0  0  0  0  0
  -33.4818   60.8208   59.7435 C   0  0  0  0  0  0  0  0  0  0  0  0
  -34.5517   61.4080   60.6863 C   0  0  0  0  0  0  0  0  0  0  0  0
  -34.1388   62.6012   61.5564 C   0  0  0  0  0  0  0  0  0  0  0  0
  -29.5792   58.7061   59.6976 C   0  0  0  0  0  0  0  0  0  0  0  0
  -28.9607   57.7523   60.7370 C   0  0  0  0  0  0  0  0  0  0  0  0
  -27.7108   58.2698   61.4296 C   0  0  0  0  0  0  0  0  0  0  0  0
  -27.9852   59.4668   62.3437 C   0  0  0  0  0  0  0  0  0  0  0  0
  -28.8224   60.6378   61.8028 C   0  0  1  0  0  0  0  0  0  0  0  0
  -28.4518   60.8469   60.3475 C   0  0  0  0  0  0  0  0  0  0  0  0
  -36.0749   62.4189   65.8807 C   0  0  0  0  0  0  0  0  0  0  0  0
  -36.7896   64.2363   64.6302 C   0  0  0  0  0  0  0  0  0  0  0  0
  -37.4607   62.1261   65.2416 C   0  0  1  0  0  0  0  0  0  0  0  0
  -37.9941   66.3139   63.8039 C   0  0  0  0  0  0  0  0  0  0  0  0
  -37.9298   67.6084   63.2718 C   0  0  0  0  0  0  0  0  0  0  0  0
  -36.6920   68.1959   62.9603 C   0  0  0  0  0  0  0  0  0  0  0  0
  -35.5037   67.4992   63.1867 C   0  0  0  0  0  0  0  0  0  0  0  0
  -35.5622   66.2099   63.7232 C   0  0  0  0  0  0  0  0  0  0  0  0
  -36.8016   65.6152   64.0282 C   0  0  0  0  0  0  0  0  0  0  0  0
  -25.9423   60.0694   56.7534 H   0  0  0  0  0  0  0  0  0  0  0  0
  -25.7883   58.7749   58.6711 H   0  0  0  0  0  0  0  0  0  0  0  0
  -25.8024   61.0882   58.8318 H   0  0  0  0  0  0  0  0  0  0  0  0
  -42.1131   61.4222   58.8423 H   0  0  0  0  0  0  0  0  0  0  0  0
  -40.0695   60.4097   61.5575 H   0  0  0  0  0  0  0  0  0  0  0  0
  -39.1057   61.5897   60.7194 H   0  0  0  0  0  0  0  0  0  0  0  0
  -30.8681   61.0270   61.4434 H   0  0  0  0  0  0  0  0  0  0  0  0
  -37.9751   59.7904   59.4856 H   0  0  0  0  0  0  0  0  0  0  0  0
  -38.9859   58.6198   60.4219 H   0  0  0  0  0  0  0  0  0  0  0  0
  -36.3417   59.8774   65.4429 H   0  0  0  0  0  0  0  0  0  0  0  0
  -36.4946   59.9506   61.4407 H   0  0  0  0  0  0  0  0  0  0  0  0
  -38.3541   57.6645   62.5194 H   0  0  0  0  0  0  0  0  0  0  0  0
  -37.2383   57.7881   64.4943 H   0  0  0  0  0  0  0  0  0  0  0  0
  -32.7872   58.0895   63.5636 H   0  0  0  0  0  0  0  0  0  0  0  0
  -39.9705   66.2586   63.9256 H   0  0  0  0  0  0  0  0  0  0  0  0
  -32.4700   61.0614   63.9624 H   0  0  0  0  0  0  0  0  0  0  0  0
  -32.7501   60.2240   62.4232 H   0  0  0  0  0  0  0  0  0  0  0  0
  -32.2581   59.5872   66.0663 H   0  0  0  0  0  0  0  0  0  0  0  0
  -31.1565   58.5112   65.2406 H   0  0  0  0  0  0  0  0  0  0  0  0
  -32.6372   57.8872   65.9271 H   0  0  0  0  0  0  0  0  0  0  0  0
  -41.2348   60.6625   56.6490 H   0  0  0  0  0  0  0  0  0  0  0  0
  -42.4520   60.2515   57.8874 H   0  0  0  0  0  0  0  0  0  0  0  0
  -42.6955   58.8667   55.8950 H   0  0  0  0  0  0  0  0  0  0  0  0
  -42.2921   57.9292   57.3185 H   0  0  0  0  0  0  0  0  0  0  0  0
  -39.9440   57.8798   56.6319 H   0  0  0  0  0  0  0  0  0  0  0  0
  -40.3752   58.8310   55.1938 H   0  0  0  0  0  0  0  0  0  0  0  0
  -41.7173   57.0197   54.3648 H   0  0  0  0  0  0  0  0  0  0  0  0
  -41.2937   56.0697   55.8162 H   0  0  0  0  0  0  0  0  0  0  0  0
  -39.3681   56.9337   53.6999 H   0  0  0  0  0  0  0  0  0  0  0  0
  -40.0641   55.3150   53.8918 H   0  0  0  0  0  0  0  0  0  0  0  0
  -37.8052   55.4157   54.7915 H   0  0  0  0  0  0  0  0  0  0  0  0
  -39.0347   55.1111   56.0490 H   0  0  0  0  0  0  0  0  0  0  0  0
  -38.8745   57.3830   56.8012 H   0  0  0  0  0  0  0  0  0  0  0  0
  -37.6689   57.7112   55.5382 H   0  0  0  0  0  0  0  0  0  0  0  0
  -36.1353   56.1893   56.5693 H   0  0  0  0  0  0  0  0  0  0  0  0
  -37.3591   55.8585   57.8346 H   0  0  0  0  0  0  0  0  0  0  0  0
  -35.5918   57.3051   58.6517 H   0  0  0  0  0  0  0  0  0  0  0  0
  -37.1717   58.0833   58.6453 H   0  0  0  0  0  0  0  0  0  0  0  0
  -36.6102   59.2424   56.5855 H   0  0  0  0  0  0  0  0  0  0  0  0
  -35.0184   58.4456   56.6020 H   0  0  0  0  0  0  0  0  0  0  0  0
  -36.0001   60.4010   58.6302 H   0  0  0  0  0  0  0  0  0  0  0  0
  -34.8360   60.7031   57.2985 H   0  0  0  0  0  0  0  0  0  0  0  0
  -33.2543   59.2548   58.3016 H   0  0  0  0  0  0  0  0  0  0  0  0
  -34.4069   58.9170   59.6190 H   0  0  0  0  0  0  0  0  0  0  0  0
  -33.1503   61.5867   59.0739 H   0  0  0  0  0  0  0  0  0  0  0  0
  -32.6705   60.4593   60.3402 H   0  0  0  0  0  0  0  0  0  0  0  0
  -34.8674   60.6244   61.3430 H   0  0  0  0  0  0  0  0  0  0  0  0
  -35.3123   61.7894   60.0374 H   0  0  0  0  0  0  0  0  0  0  0  0
  -33.3731   62.2968   62.2391 H   0  0  0  0  0  0  0  0  0  0  0  0
  -34.9872   62.9526   62.1057 H   0  0  0  0  0  0  0  0  0  0  0  0
  -33.7680   63.3868   60.9318 H   0  0  0  0  0  0  0  0  0  0  0  0
  -29.7153   58.1803   58.7757 H   0  0  0  0  0  0  0  0  0  0  0  0
  -30.5202   59.0553   60.0685 H   0  0  0  0  0  0  0  0  0  0  0  0
  -28.7090   56.8391   60.2393 H   0  0  0  0  0  0  0  0  0  0  0  0
  -29.6967   57.6330   61.5044 H   0  0  0  0  0  0  0  0  0  0  0  0
  -27.0049   58.5663   60.6822 H   0  0  0  0  0  0  0  0  0  0  0  0
  -27.3342   57.4783   62.0433 H   0  0  0  0  0  0  0  0  0  0  0  0
  -27.0353   59.8665   62.6316 H   0  0  0  0  0  0  0  0  0  0  0  0
  -28.5882   59.0594   63.1282 H   0  0  0  0  0  0  0  0  0  0  0  0
  -28.5637   61.5143   62.3593 H   0  0  0  0  0  0  0  0  0  0  0  0
  -36.1361   62.3576   66.9472 H   0  0  0  0  0  0  0  0  0  0  0  0
  -35.3385   61.7094   65.5657 H   0  0  0  0  0  0  0  0  0  0  0  0
  -38.1558   61.8573   66.0093 H   0  0  0  0  0  0  0  0  0  0  0  0
  -38.8011   68.1363   63.1069 H   0  0  0  0  0  0  0  0  0  0  0  0
  -36.6611   69.1474   62.5621 H   0  0  0  0  0  0  0  0  0  0  0  0
  -34.5937   67.9305   62.9609 H   0  0  0  0  0  0  0  0  0  0  0  0
  -34.6887   65.6887   63.8975 H   0  0  0  0  0  0  0  0  0  0  0  0
  1  2  1  0  0  0  0
  1  5  1  0  0  0  0
  1  7  1  0  0  0  0
  2 18  2  0  0  0  0
  2 29  1  0  0  0  0
  3 21  2  0  0  0  0
  4  6  1  0  0  0  0
  4 59  1  0  0  0  0
  4 60  1  0  0  0  0
  4 61  1  0  0  0  0
  5 62  1  0  0  0  0
  6 14  1  0  0  0  0
  7 10  1  0  0  0  0
  7 63  1  0  0  0  0
  7 64  1  0  0  0  0
  8 27  1  0  0  0  0
  8 48  1  0  0  0  0
  8 65  1  0  0  0  0
  9 21  1  0  0  0  0
  9 23  1  0  0  0  0
 10 13  1  0  0  0  0
 10 66  1  0  0  0  0
 10 67  1  0  0  0  0
 11 19  1  0  0  0  0
 11 28  1  0  0  0  0
 11 68  1  0  0  0  0
 12 27  2  0  0  0  0
 13 16  2  0  0  0  0
 13 69  1  0  0  0  0
 14 44  1  0  0  0  0
 14 49  1  0  0  0  0
 15 28  2  0  0  0  0
 16 19  1  0  0  0  0
 16 70  1  0  0  0  0
 17 51  2  0  0  0  0
 17 52  1  0  0  0  0
 19 21  1  0  0  0  0
 19 71  1  1  0  0  0
 20 49  2  0  0  0  0
 22 50  1  0  0  0  0
 22 51  1  0  0  0  0
 23 25  1  0  0  0  0
 23 26  1  0  0  0  0
 23 72  1  6  0  0  0
 24 53  1  0  0  0  0
 24 73  1  0  0  0  0
 25 27  1  0  0  0  0
 25 74  1  0  0  0  0
 25 75  1  0  0  0  0
 26 76  1  0  0  0  0
 26 77  1  0  0  0  0
 26 78  1  0  0  0  0
 28 52  1  0  0  0  0
 29 30  1  0  0  0  0
 29 79  1  0  0  0  0
 29 80  1  0  0  0  0
 30 31  1  0  0  0  0
 30 81  1  0  0  0  0
 30 82  1  0  0  0  0
 31 32  1  0  0  0  0
 31 83  1  0  0  0  0
 31 84  1  0  0  0  0
 32 33  1  0  0  0  0
 32 85  1  0  0  0  0
 32 86  1  0  0  0  0
 33 34  1  0  0  0  0
 33 87  1  0  0  0  0
 33 88  1  0  0  0  0
 34 35  1  0  0  0  0
 34 89  1  0  0  0  0
 34 90  1  0  0  0  0
 35 36  1  0  0  0  0
 35 91  1  0  0  0  0
 35 92  1  0  0  0  0
 36 37  1  0  0  0  0
 36 93  1  0  0  0  0
 36 94  1  0  0  0  0
 37 38  1  0  0  0  0
 37 95  1  0  0  0  0
 37 96  1  0  0  0  0
 38 39  1  0  0  0  0
 38 97  1  0  0  0  0
 38 98  1  0  0  0  0
 39 40  1  0  0  0  0
 39 99  1  0  0  0  0
 39100  1  0  0  0  0
 40 41  1  0  0  0  0
 40101  1  0  0  0  0
 40102  1  0  0  0  0
 41 42  1  0  0  0  0
 41103  1  0  0  0  0
 41104  1  0  0  0  0
 42 43  1  0  0  0  0
 42105  1  0  0  0  0
 42106  1  0  0  0  0
 43107  1  0  0  0  0
 43108  1  0  0  0  0
 43109  1  0  0  0  0
 44 45  1  0  0  0  0
 44110  1  0  0  0  0
 44111  1  0  0  0  0
 45 46  1  0  0  0  0
 45112  1  0  0  0  0
 45113  1  0  0  0  0
 46 47  1  0  0  0  0
 46114  1  0  0  0  0
 46115  1  0  0  0  0
 47 48  1  0  0  0  0
 47116  1  0  0  0  0
 47117  1  0  0  0  0
 48 49  1  0  0  0  0
 48118  1  1  0  0  0
 50 52  1  0  0  0  0
 50119  1  0  0  0  0
 50120  1  0  0  0  0
 51 58  1  0  0  0  0
 52121  1  1  0  0  0
 53 54  2  0  0  0  0
 53 58  1  0  0  0  0
 54 55  1  0  0  0  0
 54122  1  0  0  0  0
 55 56  2  0  0  0  0
 55123  1  0  0  0  0
 56 57  1  0  0  0  0
 56124  1  0  0  0  0
 57 58  2  0  0  0  0
 57125  1  0  0  0  0
M  END
$$$$