/media/chris/experiments/cd1a-new-docking/inputs/ligands/1xz0_ligand.pdb
 OpenBabel07022319323D

125127  0  0  1  0  0  0  0  0999 V2000
  -40.2129   55.0214   61.2541 N   0  0  0  0  0  0  0  0  0  0  0  0
  -40.6375   53.8120   61.7067 C   0  0  0  0  0  0  0  0  0  0  0  0
  -34.7303   58.7191   62.6838 O   0  0  0  0  0  0  0  0  0  0  0  0
  -27.9289   55.1711   67.4548 Si  0  0  0  0  0  0  0  0  0  0  0  0
  -40.9759   56.1408   61.6149 O   0  0  0  0  0  0  0  0  0  0  0  0
  -28.9061   54.6654   68.8638 O   0  0  0  0  0  0  0  0  0  0  0  0
  -39.0463   55.3391   60.4247 C   0  0  0  0  0  0  0  0  0  0  0  0
  -33.0728   56.1348   68.2869 N   0  0  0  0  0  0  0  0  0  0  0  0
  -34.5507   57.5039   64.6410 O   0  0  0  0  0  0  0  0  0  0  0  0
  -38.5576   56.7536   60.7988 C   0  0  0  0  0  0  0  0  0  0  0  0
  -36.8950   59.8150   64.6310 N   0  0  0  0  0  0  0  0  0  0  0  0
  -34.8871   56.0368   66.9400 O   0  0  0  0  0  0  0  0  0  0  0  0
  -38.1064   56.9875   62.2504 C   0  0  0  0  0  0  0  0  0  0  0  0
  -30.2095   55.0464   68.9737 N   0  0  0  0  0  0  0  0  0  0  0  0
  -37.7543   61.2478   66.1742 O   0  0  0  0  0  0  0  0  0  0  0  0
  -37.6390   58.4030   62.6110 C   0  0  0  0  0  0  0  0  0  0  0  0
  -37.8853   57.9472   66.7604 N   0  0  0  0  0  0  0  0  0  0  0  0
  -41.6480   53.7111   62.4022 O   0  0  0  0  0  0  0  0  0  0  0  0
  -36.7890   58.5530   63.8960 C   0  0  1  0  0  0  0  0  0  0  0  0
  -29.8137   56.8272   67.6556 O   0  0  0  0  0  0  0  0  0  0  0  0
  -35.3080   58.3090   63.6770 C   0  0  0  0  0  0  0  0  0  0  0  0
  -39.3379   56.9364   65.3966 O   0  0  0  0  0  0  0  0  0  0  0  0
  -33.3968   58.0359   65.3187 C   0  0  1  0  0  0  0  0  0  0  0  0
  -37.1193   56.3162   68.9560 O   0  0  0  0  0  0  0  0  0  0  0  0
  -33.6623   58.0018   66.8163 C   0  0  0  0  0  0  0  0  0  0  0  0
  -32.0855   57.3393   64.9770 C   0  0  0  0  0  0  0  0  0  0  0  0
  -33.9013   56.6091   67.3452 C   0  0  0  0  0  0  0  0  0  0  0  0
  -37.7336   60.1539   65.6256 C   0  0  0  0  0  0  0  0  0  0  0  0
  -39.8326   52.5597   61.3436 C   0  0  0  0  0  0  0  0  0  0  0  0
  -39.8898   51.4410   62.3927 C   0  0  0  0  0  0  0  0  0  0  0  0
  -39.0354   50.2431   61.9352 C   0  0  0  0  0  0  0  0  0  0  0  0
  -39.0502   49.0632   62.9255 C   0  0  0  0  0  0  0  0  0  0  0  0
  -38.5369   49.4040   64.3370 C   0  0  0  0  0  0  0  0  0  0  0  0
  -38.5526   48.1909   65.2905 C   0  0  0  0  0  0  0  0  0  0  0  0
  -38.0602   48.4955   66.7245 C   0  0  0  0  0  0  0  0  0  0  0  0
  -38.0698   47.2701   67.6458 C   0  0  0  0  0  0  0  0  0  0  0  0
  -39.4364   46.6051   67.8380 C   0  0  0  0  0  0  0  0  0  0  0  0
  -39.3445   45.3989   68.7903 C   0  0  0  0  0  0  0  0  0  0  0  0
  -40.6822   44.6766   69.0113 C   0  0  0  0  0  0  0  0  0  0  0  0
  -41.3321   44.0812   67.7580 C   0  0  0  0  0  0  0  0  0  0  0  0
  -42.6870   43.3765   68.0178 C   0  0  0  0  0  0  0  0  0  0  0  0
  -43.7312   44.3543   68.5938 C   0  0  0  0  0  0  0  0  0  0  0  0
  -45.1187   43.7864   68.9160 C   0  0  0  0  0  0  0  0  0  0  0  0
  -31.1162   54.1312   69.6824 C   0  0  0  0  0  0  0  0  0  0  0  0
  -31.5739   54.7442   71.0193 C   0  0  0  0  0  0  0  0  0  0  0  0
  -31.1657   56.1909   71.2432 C   0  0  0  0  0  0  0  0  0  0  0  0
  -31.8621   57.1641   70.2883 C   0  0  0  0  0  0  0  0  0  0  0  0
  -31.8864   56.8401   68.7853 C   0  0  1  0  0  0  0  0  0  0  0  0
  -30.5530   56.2191   68.4174 C   0  0  0  0  0  0  0  0  0  0  0  0
  -39.6251   58.3251   65.2368 C   0  0  0  0  0  0  0  0  0  0  0  0
  -38.2506   56.8144   66.3352 C   0  0  0  0  0  0  0  0  0  0  0  0
  -38.6466   59.0723   66.1849 C   0  0  1  0  0  0  0  0  0  0  0  0
  -37.1620   55.3133   68.0706 C   0  0  0  0  0  0  0  0  0  0  0  0
  -36.6778   54.0492   68.4318 C   0  0  0  0  0  0  0  0  0  0  0  0
  -36.7027   52.9827   67.5174 C   0  0  0  0  0  0  0  0  0  0  0  0
  -37.2216   53.1656   66.2344 C   0  0  0  0  0  0  0  0  0  0  0  0
  -37.7117   54.4231   65.8713 C   0  0  0  0  0  0  0  0  0  0  0  0
  -37.6800   55.4961   66.7826 C   0  0  0  0  0  0  0  0  0  0  0  0
  -26.6147   54.6475   67.5778 H   0  0  0  0  0  0  0  0  0  0  0  0
  -27.8706   56.5889   67.4035 H   0  0  0  0  0  0  0  0  0  0  0  0
  -28.5251   54.6785   66.2639 H   0  0  0  0  0  0  0  0  0  0  0  0
  -41.7271   55.8582   62.1596 H   0  0  0  0  0  0  0  0  0  0  0  0
  -39.3195   55.3124   59.3905 H   0  0  0  0  0  0  0  0  0  0  0  0
  -38.2686   54.6237   60.5924 H   0  0  0  0  0  0  0  0  0  0  0  0
  -33.2747   55.2511   68.6710 H   0  0  0  0  0  0  0  0  0  0  0  0
  -39.3595   57.4332   60.5988 H   0  0  0  0  0  0  0  0  0  0  0  0
  -37.6754   56.9016   60.2116 H   0  0  0  0  0  0  0  0  0  0  0  0
  -36.2607   60.5165   64.3574 H   0  0  0  0  0  0  0  0  0  0  0  0
  -38.1176   56.2279   62.9488 H   0  0  0  0  0  0  0  0  0  0  0  0
  -37.8799   59.2173   62.0245 H   0  0  0  0  0  0  0  0  0  0  0  0
  -37.2383   57.7881   64.4943 H   0  0  0  0  0  0  0  0  0  0  0  0
  -33.2605   59.0404   64.9763 H   0  0  0  0  0  0  0  0  0  0  0  0
  -36.7682   56.1704   69.8124 H   0  0  0  0  0  0  0  0  0  0  0  0
  -34.5274   58.5970   67.0221 H   0  0  0  0  0  0  0  0  0  0  0  0
  -32.7886   58.3817   67.3032 H   0  0  0  0  0  0  0  0  0  0  0  0
  -32.1332   56.3167   65.2881 H   0  0  0  0  0  0  0  0  0  0  0  0
  -31.2793   57.8287   65.4825 H   0  0  0  0  0  0  0  0  0  0  0  0
  -31.9230   57.3835   63.9203 H   0  0  0  0  0  0  0  0  0  0  0  0
  -38.8096   52.8455   61.2150 H   0  0  0  0  0  0  0  0  0  0  0  0
  -40.2713   52.1636   60.4517 H   0  0  0  0  0  0  0  0  0  0  0  0
  -40.9043   51.1249   62.5183 H   0  0  0  0  0  0  0  0  0  0  0  0
  -39.5066   51.8108   63.3208 H   0  0  0  0  0  0  0  0  0  0  0  0
  -38.0245   50.5736   61.8173 H   0  0  0  0  0  0  0  0  0  0  0  0
  -39.4564   49.8888   61.0175 H   0  0  0  0  0  0  0  0  0  0  0  0
  -38.4350   48.2843   62.5257 H   0  0  0  0  0  0  0  0  0  0  0  0
  -40.0743   48.7738   63.0370 H   0  0  0  0  0  0  0  0  0  0  0  0
  -39.1579   50.1712   64.7501 H   0  0  0  0  0  0  0  0  0  0  0  0
  -37.5203   49.7237   64.2406 H   0  0  0  0  0  0  0  0  0  0  0  0
  -37.9234   47.4315   64.8754 H   0  0  0  0  0  0  0  0  0  0  0  0
  -39.5745   47.8862   65.3781 H   0  0  0  0  0  0  0  0  0  0  0  0
  -38.6959   49.2440   67.1494 H   0  0  0  0  0  0  0  0  0  0  0  0
  -37.0447   48.8234   66.6464 H   0  0  0  0  0  0  0  0  0  0  0  0
  -37.7134   47.5767   68.6070 H   0  0  0  0  0  0  0  0  0  0  0  0
  -37.4494   46.5388   67.1712 H   0  0  0  0  0  0  0  0  0  0  0  0
  -39.7983   46.2719   66.8878 H   0  0  0  0  0  0  0  0  0  0  0  0
  -40.1033   47.3234   68.2673 H   0  0  0  0  0  0  0  0  0  0  0  0
  -38.9876   45.7443   69.7381 H   0  0  0  0  0  0  0  0  0  0  0  0
  -38.6821   44.6930   68.3343 H   0  0  0  0  0  0  0  0  0  0  0  0
  -41.3688   45.3793   69.4351 H   0  0  0  0  0  0  0  0  0  0  0  0
  -40.4625   43.8454   69.6482 H   0  0  0  0  0  0  0  0  0  0  0  0
  -40.6569   43.3654   67.3379 H   0  0  0  0  0  0  0  0  0  0  0  0
  -41.5331   44.8993   67.0982 H   0  0  0  0  0  0  0  0  0  0  0  0
  -42.5359   42.5788   68.7147 H   0  0  0  0  0  0  0  0  0  0  0  0
  -43.0553   43.0029   67.0853 H   0  0  0  0  0  0  0  0  0  0  0  0
  -43.8629   45.1414   67.8811 H   0  0  0  0  0  0  0  0  0  0  0  0
  -43.3318   44.6602   69.5381 H   0  0  0  0  0  0  0  0  0  0  0  0
  -45.5872   43.4556   68.0127 H   0  0  0  0  0  0  0  0  0  0  0  0
  -45.7184   44.5468   69.3711 H   0  0  0  0  0  0  0  0  0  0  0  0
  -45.0186   42.9606   69.5890 H   0  0  0  0  0  0  0  0  0  0  0  0
  -30.6061   53.2105   69.8746 H   0  0  0  0  0  0  0  0  0  0  0  0
  -31.9771   53.9583   69.0708 H   0  0  0  0  0  0  0  0  0  0  0  0
  -31.1588   54.1570   71.8116 H   0  0  0  0  0  0  0  0  0  0  0  0
  -32.6437   54.7384   70.9970 H   0  0  0  0  0  0  0  0  0  0  0  0
  -30.1082   56.2725   71.1017 H   0  0  0  0  0  0  0  0  0  0  0  0
  -31.4573   56.4553   72.2382 H   0  0  0  0  0  0  0  0  0  0  0  0
  -31.3779   58.1120   70.3976 H   0  0  0  0  0  0  0  0  0  0  0  0
  -32.8910   57.1184   70.5787 H   0  0  0  0  0  0  0  0  0  0  0  0
  -32.0037   57.7595   68.2506 H   0  0  0  0  0  0  0  0  0  0  0  0
  -40.6388   58.5299   65.5112 H   0  0  0  0  0  0  0  0  0  0  0  0
  -39.5041   58.6376   64.2206 H   0  0  0  0  0  0  0  0  0  0  0  0
  -39.2058   59.6850   66.8607 H   0  0  0  0  0  0  0  0  0  0  0  0
  -36.2985   53.8998   69.3799 H   0  0  0  0  0  0  0  0  0  0  0  0
  -36.3356   52.0592   67.7957 H   0  0  0  0  0  0  0  0  0  0  0  0
  -37.2430   52.3824   65.5627 H   0  0  0  0  0  0  0  0  0  0  0  0
  -38.1007   54.5666   64.9262 H   0  0  0  0  0  0  0  0  0  0  0  0
  1  2  1  0  0  0  0
  1  5  1  0  0  0  0
  1  7  1  0  0  0  0
  2 18  2  0  0  0  0
  2 29  1  0  0  0  0
  3 21  2  0  0  0  0
  4  6  1  0  0  0  0
  4 59  1  0  0  0  0
  4 60  1  0  0  0  0
  4 61  1  0  0  0  0
  5 62  1  0  0  0  0
  6 14  1  0  0  0  0
  7 10  1  0  0  0  0
  7 63  1  0  0  0  0
  7 64  1  0  0  0  0
  8 27  1  0  0  0  0
  8 48  1  0  0  0  0
  8 65  1  0  0  0  0
  9 21  1  0  0  0  0
  9 23  1  0  0  0  0
 10 13  1  0  0  0  0
 10 66  1  0  0  0  0
 10 67  1  0  0  0  0
 11 19  1  0  0  0  0
 11 28  1  0  0  0  0
 11 68  1  0  0  0  0
 12 27  2  0  0  0  0
 13 16  2  0  0  0  0
 13 69  1  0  0  0  0
 14 44  1  0  0  0  0
 14 49  1  0  0  0  0
 15 28  2  0  0  0  0
 16 19  1  0  0  0  0
 16 70  1  0  0  0  0
 17 51  2  0  0  0  0
 17 52  1  0  0  0  0
 19 21  1  0  0  0  0
 19 71  1  1  0  0  0
 20 49  2  0  0  0  0
 22 50  1  0  0  0  0
 22 51  1  0  0  0  0
 23 25  1  0  0  0  0
 23 26  1  0  0  0  0
 23 72  1  6  0  0  0
 24 53  1  0  0  0  0
 24 73  1  0  0  0  0
 25 27  1  0  0  0  0
 25 74  1  0  0  0  0
 25 75  1  0  0  0  0
 26 76  1  0  0  0  0
 26 77  1  0  0  0  0
 26 78  1  0  0  0  0
 28 52  1  0  0  0  0
 29 30  1  0  0  0  0
 29 79  1  0  0  0  0
 29 80  1  0  0  0  0
 30 31  1  0  0  0  0
 30 81  1  0  0  0  0
 30 82  1  0  0  0  0
 31 32  1  0  0  0  0
 31 83  1  0  0  0  0
 31 84  1  0  0  0  0
 32 33  1  0  0  0  0
 32 85  1  0  0  0  0
 32 86  1  0  0  0  0
 33 34  1  0  0  0  0
 33 87  1  0  0  0  0
 33 88  1  0  0  0  0
 34 35  1  0  0  0  0
 34 89  1  0  0  0  0
 34 90  1  0  0  0  0
 35 36  1  0  0  0  0
 35 91  1  0  0  0  0
 35 92  1  0  0  0  0
 36 37  1  0  0  0  0
 36 93  1  0  0  0  0
 36 94  1  0  0  0  0
 37 38  1  0  0  0  0
 37 95  1  0  0  0  0
 37 96  1  0  0  0  0
 38 39  1  0  0  0  0
 38 97  1  0  0  0  0
 38 98  1  0  0  0  0
 39 40  1  0  0  0  0
 39 99  1  0  0  0  0
 39100  1  0  0  0  0
 40 41  1  0  0  0  0
 40101  1  0  0  0  0
 40102  1  0  0  0  0
 41 42  1  0  0  0  0
 41103  1  0  0  0  0
 41104  1  0  0  0  0
 42 43  1  0  0  0  0
 42105  1  0  0  0  0
 42106  1  0  0  0  0
 43107  1  0  0  0  0
 43108  1  0  0  0  0
 43109  1  0  0  0  0
 44 45  1  0  0  0  0
 44110  1  0  0  0  0
 44111  1  0  0  0  0
 45 46  1  0  0  0  0
 45112  1  0  0  0  0
 45113  1  0  0  0  0
 46 47  1  0  0  0  0
 46114  1  0  0  0  0
 46115  1  0  0  0  0
 47 48  1  0  0  0  0
 47116  1  0  0  0  0
 47117  1  0  0  0  0
 48 49  1  0  0  0  0
 48118  1  6  0  0  0
 50 52  1  0  0  0  0
 50119  1  0  0  0  0
 50120  1  0  0  0  0
 51 58  1  0  0  0  0
 52121  1  1  0  0  0
 53 54  2  0  0  0  0
 53 58  1  0  0  0  0
 54 55  1  0  0  0  0
 54122  1  0  0  0  0
 55 56  2  0  0  0  0
 55123  1  0  0  0  0
 56 57  1  0  0  0  0
 56124  1  0  0  0  0
 57 58  2  0  0  0  0
 57125  1  0  0  0  0
M  END
$$$$