/media/chris/experiments/cd1a-new-docking/inputs/ligands/5j1a_ligand.pdb
 OpenBabel07022311203D

 55 55  0  0  0  0  0  0  0  0999 V2000
  -44.4225   54.1116   55.6169 C   0  0  0  0  0  0  0  0  0  0  0  0
  -41.4945   52.7445   58.1106 C   0  0  0  0  0  0  0  0  0  0  0  0
  -41.5737   54.9940   59.1336 C   0  0  0  0  0  0  0  0  0  0  0  0
  -42.1381   52.6301   56.7080 C   0  0  0  0  0  0  0  0  0  0  0  0
  -41.1044   55.9720   60.2283 C   0  0  0  0  0  0  0  0  0  0  0  0
  -45.6256   52.3659   63.6023 C   0  0  0  0  0  0  0  0  0  0  0  0
  -44.3894   51.7063   63.6113 C   0  0  0  0  0  0  0  0  0  0  0  0
  -45.7411   53.6445   63.0440 C   0  0  0  0  0  0  0  0  0  0  0  0
  -43.0380   54.7444   55.7763 C   0  0  0  0  0  0  0  0  0  0  0  0
  -40.6325   53.9499   58.5133 C   0  0  0  0  0  0  0  0  0  0  0  0
  -41.9201   53.7038   55.6240 C   0  0  0  0  0  0  0  0  0  0  0  0
  -39.6997   55.8424   60.8202 C   0  0  0  0  0  0  0  0  0  0  0  0
  -39.5380   56.9300   61.8820 C   0  0  0  0  0  0  0  0  0  0  0  0
  -40.5750   56.7430   62.9900 C   0  0  0  0  0  0  0  0  0  0  0  0
  -41.9730   56.8130   62.3910 C   0  0  0  0  0  0  0  0  0  0  0  0
  -43.0346   56.6452   63.4882 C   0  0  0  0  0  0  0  0  0  0  0  0
  -44.4877   56.6885   62.9483 C   0  0  0  0  0  0  0  0  0  0  0  0
  -44.7906   55.5673   61.9262 C   0  0  0  0  0  0  0  0  0  0  0  0
  -43.2836   52.3462   63.0517 C   0  0  0  0  0  0  0  0  0  0  0  0
  -43.4074   53.6161   62.4905 C   0  0  0  0  0  0  0  0  0  0  0  0
  -44.6421   54.2764   62.4512 C   0  0  0  0  0  0  0  0  0  0  0  0
  -42.0534   51.7776   63.0231 O   0  0  0  0  0  0  0  0  0  0  0  0
  -42.3000   54.1999   61.9476 O   0  0  0  0  0  0  0  0  0  0  0  0
  -45.1740   54.8650   55.7291 H   0  0  0  0  0  0  0  0  0  0  0  0
  -44.5585   53.3581   56.3643 H   0  0  0  0  0  0  0  0  0  0  0  0
  -44.5029   53.6694   54.6459 H   0  0  0  0  0  0  0  0  0  0  0  0
  -41.6491   51.9883   58.7957 H   0  0  0  0  0  0  0  0  0  0  0  0
  -42.5514   55.0418   58.8067 H   0  0  0  0  0  0  0  0  0  0  0  0
  -42.7297   51.8123   56.4925 H   0  0  0  0  0  0  0  0  0  0  0  0
  -41.7381   56.7149   60.5623 H   0  0  0  0  0  0  0  0  0  0  0  0
  -46.4553   51.9067   64.0094 H   0  0  0  0  0  0  0  0  0  0  0  0
  -44.2988   50.7649   64.0241 H   0  0  0  0  0  0  0  0  0  0  0  0
  -46.6519   54.1292   63.0701 H   0  0  0  0  0  0  0  0  0  0  0  0
  -42.9689   55.1885   56.7473 H   0  0  0  0  0  0  0  0  0  0  0  0
  -42.9163   55.4808   55.0097 H   0  0  0  0  0  0  0  0  0  0  0  0
  -40.1484   54.3589   57.6512 H   0  0  0  0  0  0  0  0  0  0  0  0
  -39.8749   53.6593   59.2109 H   0  0  0  0  0  0  0  0  0  0  0  0
  -41.9661   53.2573   54.6527 H   0  0  0  0  0  0  0  0  0  0  0  0
  -40.9597   54.1624   55.7346 H   0  0  0  0  0  0  0  0  0  0  0  0
  -38.9673   55.9727   60.0511 H   0  0  0  0  0  0  0  0  0  0  0  0
  -39.5648   54.8736   61.2538 H   0  0  0  0  0  0  0  0  0  0  0  0
  -39.6739   57.8897   61.4288 H   0  0  0  0  0  0  0  0  0  0  0  0
  -38.5577   56.8621   62.3055 H   0  0  0  0  0  0  0  0  0  0  0  0
  -40.4604   57.5164   63.7205 H   0  0  0  0  0  0  0  0  0  0  0  0
  -40.4329   55.7901   63.4556 H   0  0  0  0  0  0  0  0  0  0  0  0
  -42.0864   56.0321   61.6683 H   0  0  0  0  0  0  0  0  0  0  0  0
  -42.1035   57.7672   61.9248 H   0  0  0  0  0  0  0  0  0  0  0  0
  -42.9137   57.4339   64.2011 H   0  0  0  0  0  0  0  0  0  0  0  0
  -42.8880   55.6799   63.9258 H   0  0  0  0  0  0  0  0  0  0  0  0
  -44.6460   57.6340   62.4730 H   0  0  0  0  0  0  0  0  0  0  0  0
  -45.1418   56.5440   63.7826 H   0  0  0  0  0  0  0  0  0  0  0  0
  -44.1221   55.6748   61.0977 H   0  0  0  0  0  0  0  0  0  0  0  0
  -45.8154   55.6734   61.6376 H   0  0  0  0  0  0  0  0  0  0  0  0
  -41.9228   50.9248   63.3887 H   0  0  0  0  0  0  0  0  0  0  0  0
  -41.4753   53.7561   61.9752 H   0  0  0  0  0  0  0  0  0  0  0  0
  1  9  1  0  0  0  0
  1 24  1  0  0  0  0
  1 25  1  0  0  0  0
  1 26  1  0  0  0  0
  2  4  2  0  0  0  0
  2 10  1  0  0  0  0
  2 27  1  0  0  0  0
  3  5  2  0  0  0  0
  3 10  1  0  0  0  0
  3 28  1  0  0  0  0
  4 11  1  0  0  0  0
  4 29  1  0  0  0  0
  5 12  1  0  0  0  0
  5 30  1  0  0  0  0
  6  7  2  0  0  0  0
  6  8  1  0  0  0  0
  6 31  1  0  0  0  0
  7 19  1  0  0  0  0
  7 32  1  0  0  0  0
  8 21  2  0  0  0  0
  8 33  1  0  0  0  0
  9 11  1  0  0  0  0
  9 34  1  0  0  0  0
  9 35  1  0  0  0  0
 10 36  1  0  0  0  0
 10 37  1  0  0  0  0
 11 38  1  0  0  0  0
 11 39  1  0  0  0  0
 12 13  1  0  0  0  0
 12 40  1  0  0  0  0
 12 41  1  0  0  0  0
 13 14  1  0  0  0  0
 13 42  1  0  0  0  0
 13 43  1  0  0  0  0
 14 15  1  0  0  0  0
 14 44  1  0  0  0  0
 14 45  1  0  0  0  0
 15 16  1  0  0  0  0
 15 46  1  0  0  0  0
 15 47  1  0  0  0  0
 16 17  1  0  0  0  0
 16 48  1  0  0  0  0
 16 49  1  0  0  0  0
 17 18  1  0  0  0  0
 17 50  1  0  0  0  0
 17 51  1  0  0  0  0
 18 21  1  0  0  0  0
 18 52  1  0  0  0  0
 18 53  1  0  0  0  0
 19 20  2  0  0  0  0
 19 22  1  0  0  0  0
 20 21  1  0  0  0  0
 20 23  1  0  0  0  0
 22 54  1  0  0  0  0
 23 55  1  0  0  0  0
M  END
$$$$