/media/chris/experiments/cd1a-new-docking/inputs/ligands/5j1a_ligand.pdb
 OpenBabel07022311203D

 55 55  0  0  0  0  0  0  0  0999 V2000
  -36.7919   59.2796   64.4426 C   0  0  0  0  0  0  0  0  0  0  0  0
  -37.4686   60.7356   61.1845 C   0  0  0  0  0  0  0  0  0  0  0  0
  -37.1475   58.3761   60.5191 C   0  0  0  0  0  0  0  0  0  0  0  0
  -36.1268   60.6818   61.9536 C   0  0  0  0  0  0  0  0  0  0  0  0
  -37.1362   57.0564   61.3152 C   0  0  0  0  0  0  0  0  0  0  0  0
  -44.0334   52.0197   62.5504 C   0  0  0  0  0  0  0  0  0  0  0  0
  -44.6000   51.9081   63.8271 C   0  0  0  0  0  0  0  0  0  0  0  0
  -44.0860   53.2347   61.8568 C   0  0  0  0  0  0  0  0  0  0  0  0
  -36.4197   58.5346   63.1584 C   0  0  0  0  0  0  0  0  0  0  0  0
  -38.2095   59.4616   60.7529 C   0  0  0  0  0  0  0  0  0  0  0  0
  -35.4408   59.3454   62.2982 C   0  0  0  0  0  0  0  0  0  0  0  0
  -38.1263   56.8452   62.4620 C   0  0  0  0  0  0  0  0  0  0  0  0
  -39.5380   56.9300   61.8820 C   0  0  0  0  0  0  0  0  0  0  0  0
  -40.5750   56.7430   62.9900 C   0  0  0  0  0  0  0  0  0  0  0  0
  -41.9730   56.8130   62.3910 C   0  0  0  0  0  0  0  0  0  0  0  0
  -42.1661   55.6996   61.3507 C   0  0  0  0  0  0  0  0  0  0  0  0
  -43.5658   55.7191   60.6834 C   0  0  0  0  0  0  0  0  0  0  0  0
  -44.7248   55.5619   61.6959 C   0  0  0  0  0  0  0  0  0  0  0  0
  -45.2107   53.0285   64.3901 C   0  0  0  0  0  0  0  0  0  0  0  0
  -45.2526   54.2373   63.6973 C   0  0  0  0  0  0  0  0  0  0  0  0
  -44.6677   54.3704   62.4315 C   0  0  0  0  0  0  0  0  0  0  0  0
  -45.7839   53.0025   65.6183 O   0  0  0  0  0  0  0  0  0  0  0  0
  -45.8537   55.3087   64.2910 O   0  0  0  0  0  0  0  0  0  0  0  0
  -37.4736   58.6856   65.0148 H   0  0  0  0  0  0  0  0  0  0  0  0
  -37.2540   60.2119   64.1930 H   0  0  0  0  0  0  0  0  0  0  0  0
  -35.9083   59.4622   65.0179 H   0  0  0  0  0  0  0  0  0  0  0  0
  -37.8776   61.6548   60.9548 H   0  0  0  0  0  0  0  0  0  0  0  0
  -36.4186   58.5357   59.8063 H   0  0  0  0  0  0  0  0  0  0  0  0
  -35.6790   61.5652   62.2438 H   0  0  0  0  0  0  0  0  0  0  0  0
  -36.4602   56.3147   61.0744 H   0  0  0  0  0  0  0  0  0  0  0  0
  -43.5749   51.2020   62.1191 H   0  0  0  0  0  0  0  0  0  0  0  0
  -44.5661   51.0138   64.3410 H   0  0  0  0  0  0  0  0  0  0  0  0
  -43.6893   53.2938   60.9060 H   0  0  0  0  0  0  0  0  0  0  0  0
  -37.3095   58.3516   62.5929 H   0  0  0  0  0  0  0  0  0  0  0  0
  -35.9441   57.6156   63.4306 H   0  0  0  0  0  0  0  0  0  0  0  0
  -38.7541   59.6423   59.8498 H   0  0  0  0  0  0  0  0  0  0  0  0
  -38.9073   59.1550   61.5039 H   0  0  0  0  0  0  0  0  0  0  0  0
  -34.5387   59.5275   62.8441 H   0  0  0  0  0  0  0  0  0  0  0  0
  -35.1884   58.8097   61.4070 H   0  0  0  0  0  0  0  0  0  0  0  0
  -37.9914   57.6045   63.2038 H   0  0  0  0  0  0  0  0  0  0  0  0
  -37.9678   55.8923   62.9220 H   0  0  0  0  0  0  0  0  0  0  0  0
  -39.6646   56.1636   61.1461 H   0  0  0  0  0  0  0  0  0  0  0  0
  -39.6747   57.8920   61.4340 H   0  0  0  0  0  0  0  0  0  0  0  0
  -40.4604   57.5164   63.7205 H   0  0  0  0  0  0  0  0  0  0  0  0
  -40.4329   55.7901   63.4556 H   0  0  0  0  0  0  0  0  0  0  0  0
  -42.1071   57.7638   61.9188 H   0  0  0  0  0  0  0  0  0  0  0  0
  -42.6924   56.6861   63.1729 H   0  0  0  0  0  0  0  0  0  0  0  0
  -42.0344   54.7551   61.8359 H   0  0  0  0  0  0  0  0  0  0  0  0
  -41.4442   55.8600   60.5774 H   0  0  0  0  0  0  0  0  0  0  0  0
  -43.6181   54.9154   59.9789 H   0  0  0  0  0  0  0  0  0  0  0  0
  -43.6810   56.6732   60.2131 H   0  0  0  0  0  0  0  0  0  0  0  0
  -45.6496   55.5837   61.1580 H   0  0  0  0  0  0  0  0  0  0  0  0
  -44.6428   56.3675   62.3953 H   0  0  0  0  0  0  0  0  0  0  0  0
  -45.7797   52.2116   66.1207 H   0  0  0  0  0  0  0  0  0  0  0  0
  -46.2443   55.2170   65.1378 H   0  0  0  0  0  0  0  0  0  0  0  0
  1  9  1  0  0  0  0
  1 24  1  0  0  0  0
  1 25  1  0  0  0  0
  1 26  1  0  0  0  0
  2  4  2  0  0  0  0
  2 10  1  0  0  0  0
  2 27  1  0  0  0  0
  3  5  2  0  0  0  0
  3 10  1  0  0  0  0
  3 28  1  0  0  0  0
  4 11  1  0  0  0  0
  4 29  1  0  0  0  0
  5 12  1  0  0  0  0
  5 30  1  0  0  0  0
  6  7  2  0  0  0  0
  6  8  1  0  0  0  0
  6 31  1  0  0  0  0
  7 19  1  0  0  0  0
  7 32  1  0  0  0  0
  8 21  2  0  0  0  0
  8 33  1  0  0  0  0
  9 11  1  0  0  0  0
  9 34  1  0  0  0  0
  9 35  1  0  0  0  0
 10 36  1  0  0  0  0
 10 37  1  0  0  0  0
 11 38  1  0  0  0  0
 11 39  1  0  0  0  0
 12 13  1  0  0  0  0
 12 40  1  0  0  0  0
 12 41  1  0  0  0  0
 13 14  1  0  0  0  0
 13 42  1  0  0  0  0
 13 43  1  0  0  0  0
 14 15  1  0  0  0  0
 14 44  1  0  0  0  0
 14 45  1  0  0  0  0
 15 16  1  0  0  0  0
 15 46  1  0  0  0  0
 15 47  1  0  0  0  0
 16 17  1  0  0  0  0
 16 48  1  0  0  0  0
 16 49  1  0  0  0  0
 17 18  1  0  0  0  0
 17 50  1  0  0  0  0
 17 51  1  0  0  0  0
 18 21  1  0  0  0  0
 18 52  1  0  0  0  0
 18 53  1  0  0  0  0
 19 20  2  0  0  0  0
 19 22  1  0  0  0  0
 20 21  1  0  0  0  0
 20 23  1  0  0  0  0
 22 54  1  0  0  0  0
 23 55  1  0  0  0  0
M  END
$$$$