/media/chris/experiments/cd1a-new-docking/inputs/ligands/5j1a_ligand.pdb
 OpenBabel07022311203D

 55 55  0  0  0  0  0  0  0  0999 V2000
  -39.2673   58.7557   67.0347 C   0  0  0  0  0  0  0  0  0  0  0  0
  -40.2487   60.6011   62.2543 C   0  0  0  0  0  0  0  0  0  0  0  0
  -42.1174   59.4370   61.1292 C   0  0  0  0  0  0  0  0  0  0  0  0
  -39.3590   60.2303   63.4649 C   0  0  0  0  0  0  0  0  0  0  0  0
  -41.1327   58.3550   60.6442 C   0  0  0  0  0  0  0  0  0  0  0  0
  -42.8500   50.1680   62.9829 C   0  0  0  0  0  0  0  0  0  0  0  0
  -41.8227   49.2997   62.5904 C   0  0  0  0  0  0  0  0  0  0  0  0
  -42.9561   51.4420   62.4124 C   0  0  0  0  0  0  0  0  0  0  0  0
  -38.7883   59.3917   65.7274 C   0  0  0  0  0  0  0  0  0  0  0  0
  -41.7713   60.4021   62.2735 C   0  0  0  0  0  0  0  0  0  0  0  0
  -39.9480   59.6065   64.7453 C   0  0  0  0  0  0  0  0  0  0  0  0
  -39.7162   58.2956   61.2187 C   0  0  0  0  0  0  0  0  0  0  0  0
  -39.5380   56.9300   61.8820 C   0  0  0  0  0  0  0  0  0  0  0  0
  -40.5750   56.7430   62.9900 C   0  0  0  0  0  0  0  0  0  0  0  0
  -41.9730   56.8130   62.3910 C   0  0  0  0  0  0  0  0  0  0  0  0
  -42.1661   55.6996   61.3507 C   0  0  0  0  0  0  0  0  0  0  0  0
  -42.0124   54.2741   61.9416 C   0  0  0  0  0  0  0  0  0  0  0  0
  -42.1905   53.1560   60.8873 C   0  0  0  0  0  0  0  0  0  0  0  0
  -40.9155   49.7285   61.6217 C   0  0  0  0  0  0  0  0  0  0  0  0
  -41.0316   50.9953   61.0521 C   0  0  0  0  0  0  0  0  0  0  0  0
  -42.0687   51.8638   61.4159 C   0  0  0  0  0  0  0  0  0  0  0  0
  -39.8929   48.9504   61.1898 O   0  0  0  0  0  0  0  0  0  0  0  0
  -40.1258   51.3688   60.1025 O   0  0  0  0  0  0  0  0  0  0  0  0
  -38.4340   58.6217   67.6924 H   0  0  0  0  0  0  0  0  0  0  0  0
  -39.7138   57.8059   66.8266 H   0  0  0  0  0  0  0  0  0  0  0  0
  -39.9888   59.3950   67.4989 H   0  0  0  0  0  0  0  0  0  0  0  0
  -39.8057   60.9938   61.4090 H   0  0  0  0  0  0  0  0  0  0  0  0
  -43.0386   59.5157   60.6707 H   0  0  0  0  0  0  0  0  0  0  0  0
  -38.3433   60.4055   63.4135 H   0  0  0  0  0  0  0  0  0  0  0  0
  -41.4292   57.6701   59.9314 H   0  0  0  0  0  0  0  0  0  0  0  0
  -43.5321   49.8667   63.6964 H   0  0  0  0  0  0  0  0  0  0  0  0
  -41.7390   48.3606   63.0102 H   0  0  0  0  0  0  0  0  0  0  0  0
  -43.7010   52.0807   62.7319 H   0  0  0  0  0  0  0  0  0  0  0  0
  -38.0635   58.7486   65.2735 H   0  0  0  0  0  0  0  0  0  0  0  0
  -38.3623   60.3463   65.9561 H   0  0  0  0  0  0  0  0  0  0  0  0
  -42.2656   61.3393   62.1248 H   0  0  0  0  0  0  0  0  0  0  0  0
  -42.0909   60.0057   63.2146 H   0  0  0  0  0  0  0  0  0  0  0  0
  -40.4112   58.6696   64.5159 H   0  0  0  0  0  0  0  0  0  0  0  0
  -40.6897   60.2492   65.1717 H   0  0  0  0  0  0  0  0  0  0  0  0
  -39.5844   59.0720   61.9431 H   0  0  0  0  0  0  0  0  0  0  0  0
  -38.9922   58.4316   60.4428 H   0  0  0  0  0  0  0  0  0  0  0  0
  -38.5560   56.8665   62.3023 H   0  0  0  0  0  0  0  0  0  0  0  0
  -39.6703   56.1642   61.1465 H   0  0  0  0  0  0  0  0  0  0  0  0
  -40.4604   57.5164   63.7205 H   0  0  0  0  0  0  0  0  0  0  0  0
  -40.4329   55.7901   63.4556 H   0  0  0  0  0  0  0  0  0  0  0  0
  -42.1071   57.7638   61.9188 H   0  0  0  0  0  0  0  0  0  0  0  0
  -42.6924   56.6861   63.1729 H   0  0  0  0  0  0  0  0  0  0  0  0
  -41.4374   55.8271   60.5777 H   0  0  0  0  0  0  0  0  0  0  0  0
  -43.1664   55.7826   60.9800 H   0  0  0  0  0  0  0  0  0  0  0  0
  -42.7492   54.1414   62.7060 H   0  0  0  0  0  0  0  0  0  0  0  0
  -41.0169   54.1941   62.3254 H   0  0  0  0  0  0  0  0  0  0  0  0
  -41.4458   53.2835   60.1296 H   0  0  0  0  0  0  0  0  0  0  0  0
  -43.1838   53.2448   60.4995 H   0  0  0  0  0  0  0  0  0  0  0  0
  -39.7758   48.0911   61.5446 H   0  0  0  0  0  0  0  0  0  0  0  0
  -39.4330   50.7860   59.8609 H   0  0  0  0  0  0  0  0  0  0  0  0
  1  9  1  0  0  0  0
  1 24  1  0  0  0  0
  1 25  1  0  0  0  0
  1 26  1  0  0  0  0
  2  4  2  0  0  0  0
  2 10  1  0  0  0  0
  2 27  1  0  0  0  0
  3  5  2  0  0  0  0
  3 10  1  0  0  0  0
  3 28  1  0  0  0  0
  4 11  1  0  0  0  0
  4 29  1  0  0  0  0
  5 12  1  0  0  0  0
  5 30  1  0  0  0  0
  6  7  2  0  0  0  0
  6  8  1  0  0  0  0
  6 31  1  0  0  0  0
  7 19  1  0  0  0  0
  7 32  1  0  0  0  0
  8 21  2  0  0  0  0
  8 33  1  0  0  0  0
  9 11  1  0  0  0  0
  9 34  1  0  0  0  0
  9 35  1  0  0  0  0
 10 36  1  0  0  0  0
 10 37  1  0  0  0  0
 11 38  1  0  0  0  0
 11 39  1  0  0  0  0
 12 13  1  0  0  0  0
 12 40  1  0  0  0  0
 12 41  1  0  0  0  0
 13 14  1  0  0  0  0
 13 42  1  0  0  0  0
 13 43  1  0  0  0  0
 14 15  1  0  0  0  0
 14 44  1  0  0  0  0
 14 45  1  0  0  0  0
 15 16  1  0  0  0  0
 15 46  1  0  0  0  0
 15 47  1  0  0  0  0
 16 17  1  0  0  0  0
 16 48  1  0  0  0  0
 16 49  1  0  0  0  0
 17 18  1  0  0  0  0
 17 50  1  0  0  0  0
 17 51  1  0  0  0  0
 18 21  1  0  0  0  0
 18 52  1  0  0  0  0
 18 53  1  0  0  0  0
 19 20  2  0  0  0  0
 19 22  1  0  0  0  0
 20 21  1  0  0  0  0
 20 23  1  0  0  0  0
 22 54  1  0  0  0  0
 23 55  1  0  0  0  0
M  END
$$$$