/media/chris/experiments/cd1a-new-docking/inputs/ligands/5j1a_ligand.pdb
 OpenBabel07022311203D

 55 55  0  0  0  0  0  0  0  0999 V2000
  -40.1362   57.9433   68.3119 C   0  0  0  0  0  0  0  0  0  0  0  0
  -36.8021   55.8978   66.3593 C   0  0  0  0  0  0  0  0  0  0  0  0
  -37.0549   57.7379   64.7273 C   0  0  0  0  0  0  0  0  0  0  0  0
  -38.2058   56.2280   66.9209 C   0  0  0  0  0  0  0  0  0  0  0  0
  -37.9880   57.9434   63.5180 C   0  0  0  0  0  0  0  0  0  0  0  0
  -45.7443   59.9132   61.4321 C   0  0  0  0  0  0  0  0  0  0  0  0
  -46.9402   59.7926   62.1524 C   0  0  0  0  0  0  0  0  0  0  0  0
  -44.5130   59.7074   62.0658 C   0  0  0  0  0  0  0  0  0  0  0  0
  -39.5569   58.3069   66.9426 C   0  0  0  0  0  0  0  0  0  0  0  0
  -36.3361   56.4050   64.9868 C   0  0  0  0  0  0  0  0  0  0  0  0
  -39.2284   57.0552   66.1175 C   0  0  0  0  0  0  0  0  0  0  0  0
  -38.1263   56.8452   62.4620 C   0  0  0  0  0  0  0  0  0  0  0  0
  -39.5380   56.9300   61.8820 C   0  0  0  0  0  0  0  0  0  0  0  0
  -40.5750   56.7430   62.9900 C   0  0  0  0  0  0  0  0  0  0  0  0
  -41.9730   56.8130   62.3910 C   0  0  0  0  0  0  0  0  0  0  0  0
  -43.0346   56.6452   63.4882 C   0  0  0  0  0  0  0  0  0  0  0  0
  -42.9688   57.7452   64.5794 C   0  0  0  0  0  0  0  0  0  0  0  0
  -43.1948   59.1702   64.0212 C   0  0  0  0  0  0  0  0  0  0  0  0
  -46.8775   59.4613   63.5057 C   0  0  0  0  0  0  0  0  0  0  0  0
  -45.6485   59.2501   64.1285 C   0  0  0  0  0  0  0  0  0  0  0  0
  -44.4467   59.3418   63.4149 C   0  0  0  0  0  0  0  0  0  0  0  0
  -47.9874   59.3282   64.2726 O   0  0  0  0  0  0  0  0  0  0  0  0
  -45.6365   58.9203   65.4525 O   0  0  0  0  0  0  0  0  0  0  0  0
  -40.3522   58.8384   68.8569 H   0  0  0  0  0  0  0  0  0  0  0  0
  -39.4251   57.3573   68.8559 H   0  0  0  0  0  0  0  0  0  0  0  0
  -41.0363   57.3799   68.1802 H   0  0  0  0  0  0  0  0  0  0  0  0
  -36.1601   55.3198   66.9239 H   0  0  0  0  0  0  0  0  0  0  0  0
  -36.9083   58.5205   65.3838 H   0  0  0  0  0  0  0  0  0  0  0  0
  -38.4642   55.8848   67.8593 H   0  0  0  0  0  0  0  0  0  0  0  0
  -38.5198   58.8224   63.4205 H   0  0  0  0  0  0  0  0  0  0  0  0
  -45.7714   60.1549   60.4292 H   0  0  0  0  0  0  0  0  0  0  0  0
  -47.8500   59.9460   61.6902 H   0  0  0  0  0  0  0  0  0  0  0  0
  -43.6398   59.8274   61.5290 H   0  0  0  0  0  0  0  0  0  0  0  0
  -38.6609   58.8744   67.0843 H   0  0  0  0  0  0  0  0  0  0  0  0
  -40.2896   58.8761   66.4098 H   0  0  0  0  0  0  0  0  0  0  0  0
  -36.5927   55.6961   64.2275 H   0  0  0  0  0  0  0  0  0  0  0  0
  -35.2743   56.5364   64.9707 H   0  0  0  0  0  0  0  0  0  0  0  0
  -40.1165   56.4808   65.9552 H   0  0  0  0  0  0  0  0  0  0  0  0
  -38.8281   57.3265   65.1630 H   0  0  0  0  0  0  0  0  0  0  0  0
  -37.9746   55.8864   62.9120 H   0  0  0  0  0  0  0  0  0  0  0  0
  -37.3967   56.9749   61.6902 H   0  0  0  0  0  0  0  0  0  0  0  0
  -39.6646   56.1636   61.1461 H   0  0  0  0  0  0  0  0  0  0  0  0
  -39.6747   57.8920   61.4340 H   0  0  0  0  0  0  0  0  0  0  0  0
  -40.4604   57.5164   63.7205 H   0  0  0  0  0  0  0  0  0  0  0  0
  -40.4329   55.7901   63.4556 H   0  0  0  0  0  0  0  0  0  0  0  0
  -42.0864   56.0321   61.6683 H   0  0  0  0  0  0  0  0  0  0  0  0
  -42.1035   57.7672   61.9248 H   0  0  0  0  0  0  0  0  0  0  0  0
  -42.8917   55.6937   63.9563 H   0  0  0  0  0  0  0  0  0  0  0  0
  -43.9921   56.7233   63.0171 H   0  0  0  0  0  0  0  0  0  0  0  0
  -42.0041   57.7095   65.0408 H   0  0  0  0  0  0  0  0  0  0  0  0
  -43.7553   57.5483   65.2777 H   0  0  0  0  0  0  0  0  0  0  0  0
  -42.4361   59.3734   63.2946 H   0  0  0  0  0  0  0  0  0  0  0  0
  -43.1526   59.8436   64.8516 H   0  0  0  0  0  0  0  0  0  0  0  0
  -48.8354   59.4608   63.8966 H   0  0  0  0  0  0  0  0  0  0  0  0
  -46.4418   58.8597   65.9275 H   0  0  0  0  0  0  0  0  0  0  0  0
  1  9  1  0  0  0  0
  1 24  1  0  0  0  0
  1 25  1  0  0  0  0
  1 26  1  0  0  0  0
  2  4  2  0  0  0  0
  2 10  1  0  0  0  0
  2 27  1  0  0  0  0
  3  5  2  0  0  0  0
  3 10  1  0  0  0  0
  3 28  1  0  0  0  0
  4 11  1  0  0  0  0
  4 29  1  0  0  0  0
  5 12  1  0  0  0  0
  5 30  1  0  0  0  0
  6  7  2  0  0  0  0
  6  8  1  0  0  0  0
  6 31  1  0  0  0  0
  7 19  1  0  0  0  0
  7 32  1  0  0  0  0
  8 21  2  0  0  0  0
  8 33  1  0  0  0  0
  9 11  1  0  0  0  0
  9 34  1  0  0  0  0
  9 35  1  0  0  0  0
 10 36  1  0  0  0  0
 10 37  1  0  0  0  0
 11 38  1  0  0  0  0
 11 39  1  0  0  0  0
 12 13  1  0  0  0  0
 12 40  1  0  0  0  0
 12 41  1  0  0  0  0
 13 14  1  0  0  0  0
 13 42  1  0  0  0  0
 13 43  1  0  0  0  0
 14 15  1  0  0  0  0
 14 44  1  0  0  0  0
 14 45  1  0  0  0  0
 15 16  1  0  0  0  0
 15 46  1  0  0  0  0
 15 47  1  0  0  0  0
 16 17  1  0  0  0  0
 16 48  1  0  0  0  0
 16 49  1  0  0  0  0
 17 18  1  0  0  0  0
 17 50  1  0  0  0  0
 17 51  1  0  0  0  0
 18 21  1  0  0  0  0
 18 52  1  0  0  0  0
 18 53  1  0  0  0  0
 19 20  2  0  0  0  0
 19 22  1  0  0  0  0
 20 21  1  0  0  0  0
 20 23  1  0  0  0  0
 22 54  1  0  0  0  0
 23 55  1  0  0  0  0
M  END
$$$$