/media/chris/experiments/cd1a-new-docking/inputs/ligands/5j1a_ligand.pdb
 OpenBabel07022311203D

 55 55  0  0  0  0  0  0  0  0999 V2000
  -34.2663   62.4516   62.3449 C   0  0  0  0  0  0  0  0  0  0  0  0
  -37.1324   60.8796   60.6537 C   0  0  0  0  0  0  0  0  0  0  0  0
  -36.6457   58.4764   60.9709 C   0  0  0  0  0  0  0  0  0  0  0  0
  -36.9375   62.3481   61.1010 C   0  0  0  0  0  0  0  0  0  0  0  0
  -37.1362   57.0564   61.3152 C   0  0  0  0  0  0  0  0  0  0  0  0
  -43.2604   60.5588   64.4182 C   0  0  0  0  0  0  0  0  0  0  0  0
  -44.3519   61.3700   64.7558 C   0  0  0  0  0  0  0  0  0  0  0  0
  -43.4352   59.4495   63.5822 C   0  0  0  0  0  0  0  0  0  0  0  0
  -35.5201   62.0184   63.1086 C   0  0  0  0  0  0  0  0  0  0  0  0
  -37.2105   59.7258   61.6641 C   0  0  0  0  0  0  0  0  0  0  0  0
  -36.7749   62.7306   62.5852 C   0  0  0  0  0  0  0  0  0  0  0  0
  -38.1263   56.8452   62.4620 C   0  0  0  0  0  0  0  0  0  0  0  0
  -39.5380   56.9300   61.8820 C   0  0  0  0  0  0  0  0  0  0  0  0
  -40.5750   56.7430   62.9900 C   0  0  0  0  0  0  0  0  0  0  0  0
  -41.9730   56.8130   62.3910 C   0  0  0  0  0  0  0  0  0  0  0  0
  -43.0346   56.6452   63.4882 C   0  0  0  0  0  0  0  0  0  0  0  0
  -44.4877   56.6885   62.9483 C   0  0  0  0  0  0  0  0  0  0  0  0
  -44.8286   58.0126   62.2244 C   0  0  0  0  0  0  0  0  0  0  0  0
  -45.6085   61.0521   64.2408 C   0  0  0  0  0  0  0  0  0  0  0  0
  -45.7740   59.9508   63.4026 C   0  0  0  0  0  0  0  0  0  0  0  0
  -44.6875   59.1464   63.0359 C   0  0  0  0  0  0  0  0  0  0  0  0
  -46.7144   61.7842   64.5213 O   0  0  0  0  0  0  0  0  0  0  0  0
  -47.0204   59.6829   62.9162 O   0  0  0  0  0  0  0  0  0  0  0  0
  -33.4144   61.9359   62.7363 H   0  0  0  0  0  0  0  0  0  0  0  0
  -34.1272   63.5066   62.4569 H   0  0  0  0  0  0  0  0  0  0  0  0
  -34.3809   62.2151   61.3077 H   0  0  0  0  0  0  0  0  0  0  0  0
  -37.2122   60.6693   59.6465 H   0  0  0  0  0  0  0  0  0  0  0  0
  -35.9145   58.5916   60.2518 H   0  0  0  0  0  0  0  0  0  0  0  0
  -36.9158   63.0918   60.3858 H   0  0  0  0  0  0  0  0  0  0  0  0
  -36.7965   56.2476   60.7717 H   0  0  0  0  0  0  0  0  0  0  0  0
  -42.3227   60.7803   64.7878 H   0  0  0  0  0  0  0  0  0  0  0  0
  -44.2284   62.1871   65.3739 H   0  0  0  0  0  0  0  0  0  0  0  0
  -42.6272   58.8453   63.3653 H   0  0  0  0  0  0  0  0  0  0  0  0
  -35.3941   62.2536   64.1448 H   0  0  0  0  0  0  0  0  0  0  0  0
  -35.6501   60.9656   62.9686 H   0  0  0  0  0  0  0  0  0  0  0  0
  -38.2275   59.5578   61.9509 H   0  0  0  0  0  0  0  0  0  0  0  0
  -36.6518   59.9557   62.5473 H   0  0  0  0  0  0  0  0  0  0  0  0
  -37.6332   62.4144   63.1404 H   0  0  0  0  0  0  0  0  0  0  0  0
  -36.6801   63.7909   62.6936 H   0  0  0  0  0  0  0  0  0  0  0  0
  -37.9914   57.6045   63.2038 H   0  0  0  0  0  0  0  0  0  0  0  0
  -37.9678   55.8923   62.9220 H   0  0  0  0  0  0  0  0  0  0  0  0
  -39.6646   56.1636   61.1461 H   0  0  0  0  0  0  0  0  0  0  0  0
  -39.6747   57.8920   61.4340 H   0  0  0  0  0  0  0  0  0  0  0  0
  -40.4604   57.5164   63.7205 H   0  0  0  0  0  0  0  0  0  0  0  0
  -40.4329   55.7901   63.4556 H   0  0  0  0  0  0  0  0  0  0  0  0
  -42.0864   56.0321   61.6683 H   0  0  0  0  0  0  0  0  0  0  0  0
  -42.1035   57.7672   61.9248 H   0  0  0  0  0  0  0  0  0  0  0  0
  -42.9137   57.4339   64.2011 H   0  0  0  0  0  0  0  0  0  0  0  0
  -42.8880   55.6799   63.9258 H   0  0  0  0  0  0  0  0  0  0  0  0
  -45.1603   56.5679   63.7716 H   0  0  0  0  0  0  0  0  0  0  0  0
  -44.5847   55.8998   62.2317 H   0  0  0  0  0  0  0  0  0  0  0  0
  -45.8425   57.9623   61.8863 H   0  0  0  0  0  0  0  0  0  0  0  0
  -44.1355   58.1163   61.4158 H   0  0  0  0  0  0  0  0  0  0  0  0
  -46.6509   62.5335   65.0803 H   0  0  0  0  0  0  0  0  0  0  0  0
  -47.7456   60.2225   63.1631 H   0  0  0  0  0  0  0  0  0  0  0  0
  1  9  1  0  0  0  0
  1 24  1  0  0  0  0
  1 25  1  0  0  0  0
  1 26  1  0  0  0  0
  2  4  2  0  0  0  0
  2 10  1  0  0  0  0
  2 27  1  0  0  0  0
  3  5  2  0  0  0  0
  3 10  1  0  0  0  0
  3 28  1  0  0  0  0
  4 11  1  0  0  0  0
  4 29  1  0  0  0  0
  5 12  1  0  0  0  0
  5 30  1  0  0  0  0
  6  7  2  0  0  0  0
  6  8  1  0  0  0  0
  6 31  1  0  0  0  0
  7 19  1  0  0  0  0
  7 32  1  0  0  0  0
  8 21  2  0  0  0  0
  8 33  1  0  0  0  0
  9 11  1  0  0  0  0
  9 34  1  0  0  0  0
  9 35  1  0  0  0  0
 10 36  1  0  0  0  0
 10 37  1  0  0  0  0
 11 38  1  0  0  0  0
 11 39  1  0  0  0  0
 12 13  1  0  0  0  0
 12 40  1  0  0  0  0
 12 41  1  0  0  0  0
 13 14  1  0  0  0  0
 13 42  1  0  0  0  0
 13 43  1  0  0  0  0
 14 15  1  0  0  0  0
 14 44  1  0  0  0  0
 14 45  1  0  0  0  0
 15 16  1  0  0  0  0
 15 46  1  0  0  0  0
 15 47  1  0  0  0  0
 16 17  1  0  0  0  0
 16 48  1  0  0  0  0
 16 49  1  0  0  0  0
 17 18  1  0  0  0  0
 17 50  1  0  0  0  0
 17 51  1  0  0  0  0
 18 21  1  0  0  0  0
 18 52  1  0  0  0  0
 18 53  1  0  0  0  0
 19 20  2  0  0  0  0
 19 22  1  0  0  0  0
 20 21  1  0  0  0  0
 20 23  1  0  0  0  0
 22 54  1  0  0  0  0
 23 55  1  0  0  0  0
M  END
$$$$