/media/chris/experiments/cd1a-new-docking/inputs/ligands/5j1a_ligand.pdb
 OpenBabel07022311203D

 55 55  0  0  0  0  0  0  0  0999 V2000
  -38.1698   53.3969   62.7003 C   0  0  0  0  0  0  0  0  0  0  0  0
  -37.7997   55.3732   65.7830 C   0  0  0  0  0  0  0  0  0  0  0  0
  -38.3458   57.6497   64.9881 C   0  0  0  0  0  0  0  0  0  0  0  0
  -37.9017   53.8396   65.6029 C   0  0  0  0  0  0  0  0  0  0  0  0
  -37.9880   57.9434   63.5180 C   0  0  0  0  0  0  0  0  0  0  0  0
  -45.2361   58.1883   67.3641 C   0  0  0  0  0  0  0  0  0  0  0  0
  -45.4735   59.5322   67.0465 C   0  0  0  0  0  0  0  0  0  0  0  0
  -45.2697   57.2086   66.3646 C   0  0  0  0  0  0  0  0  0  0  0  0
  -39.3625   53.7216   63.6029 C   0  0  0  0  0  0  0  0  0  0  0  0
  -38.9615   56.3122   65.4271 C   0  0  0  0  0  0  0  0  0  0  0  0
  -39.1635   53.1718   65.0220 C   0  0  0  0  0  0  0  0  0  0  0  0
  -38.1263   56.8452   62.4620 C   0  0  0  0  0  0  0  0  0  0  0  0
  -39.5380   56.9300   61.8820 C   0  0  0  0  0  0  0  0  0  0  0  0
  -40.5750   56.7430   62.9900 C   0  0  0  0  0  0  0  0  0  0  0  0
  -41.9730   56.8130   62.3910 C   0  0  0  0  0  0  0  0  0  0  0  0
  -43.0346   56.6452   63.4882 C   0  0  0  0  0  0  0  0  0  0  0  0
  -44.4877   56.6885   62.9483 C   0  0  0  0  0  0  0  0  0  0  0  0
  -45.5541   56.5365   64.0586 C   0  0  0  0  0  0  0  0  0  0  0  0
  -45.7388   59.8711   65.7198 C   0  0  0  0  0  0  0  0  0  0  0  0
  -45.7629   58.8917   64.7283 C   0  0  0  0  0  0  0  0  0  0  0  0
  -45.5019   57.5483   65.0270 C   0  0  0  0  0  0  0  0  0  0  0  0
  -45.9812   61.1470   65.3310 O   0  0  0  0  0  0  0  0  0  0  0  0
  -46.0191   59.2711   63.4429 O   0  0  0  0  0  0  0  0  0  0  0  0
  -38.3439   53.7946   61.7224 H   0  0  0  0  0  0  0  0  0  0  0  0
  -38.0487   52.3356   62.6373 H   0  0  0  0  0  0  0  0  0  0  0  0
  -37.2830   53.8334   63.1102 H   0  0  0  0  0  0  0  0  0  0  0  0
  -36.9251   55.7768   66.1533 H   0  0  0  0  0  0  0  0  0  0  0  0
  -38.1661   58.3746   65.7003 H   0  0  0  0  0  0  0  0  0  0  0  0
  -37.1029   53.2476   65.8794 H   0  0  0  0  0  0  0  0  0  0  0  0
  -37.6549   58.8815   63.2458 H   0  0  0  0  0  0  0  0  0  0  0  0
  -45.0354   57.9193   68.3399 H   0  0  0  0  0  0  0  0  0  0  0  0
  -45.4524   60.2575   67.7803 H   0  0  0  0  0  0  0  0  0  0  0  0
  -45.1207   56.2194   66.6184 H   0  0  0  0  0  0  0  0  0  0  0  0
  -40.2449   53.2862   63.1825 H   0  0  0  0  0  0  0  0  0  0  0  0
  -39.4543   54.7858   63.6662 H   0  0  0  0  0  0  0  0  0  0  0  0
  -39.5884   56.4601   66.2814 H   0  0  0  0  0  0  0  0  0  0  0  0
  -39.5613   55.8952   64.6453 H   0  0  0  0  0  0  0  0  0  0  0  0
  -40.0136   53.4072   65.6278 H   0  0  0  0  0  0  0  0  0  0  0  0
  -39.0527   52.1078   65.0026 H   0  0  0  0  0  0  0  0  0  0  0  0
  -37.9746   55.8864   62.9120 H   0  0  0  0  0  0  0  0  0  0  0  0
  -37.3967   56.9749   61.6902 H   0  0  0  0  0  0  0  0  0  0  0  0
  -39.6646   56.1636   61.1461 H   0  0  0  0  0  0  0  0  0  0  0  0
  -39.6747   57.8920   61.4340 H   0  0  0  0  0  0  0  0  0  0  0  0
  -40.4604   57.5164   63.7205 H   0  0  0  0  0  0  0  0  0  0  0  0
  -40.4329   55.7901   63.4556 H   0  0  0  0  0  0  0  0  0  0  0  0
  -42.0864   56.0321   61.6683 H   0  0  0  0  0  0  0  0  0  0  0  0
  -42.1035   57.7672   61.9248 H   0  0  0  0  0  0  0  0  0  0  0  0
  -42.9137   57.4339   64.2011 H   0  0  0  0  0  0  0  0  0  0  0  0
  -42.8880   55.6799   63.9258 H   0  0  0  0  0  0  0  0  0  0  0  0
  -44.6131   55.8921   62.2447 H   0  0  0  0  0  0  0  0  0  0  0  0
  -44.6315   57.6484   62.4978 H   0  0  0  0  0  0  0  0  0  0  0  0
  -45.4053   55.5949   64.5444 H   0  0  0  0  0  0  0  0  0  0  0  0
  -46.5118   56.6028   63.5860 H   0  0  0  0  0  0  0  0  0  0  0  0
  -45.9752   61.8385   65.9632 H   0  0  0  0  0  0  0  0  0  0  0  0
  -46.1934   60.1704   63.2458 H   0  0  0  0  0  0  0  0  0  0  0  0
  1  9  1  0  0  0  0
  1 24  1  0  0  0  0
  1 25  1  0  0  0  0
  1 26  1  0  0  0  0
  2  4  2  0  0  0  0
  2 10  1  0  0  0  0
  2 27  1  0  0  0  0
  3  5  2  0  0  0  0
  3 10  1  0  0  0  0
  3 28  1  0  0  0  0
  4 11  1  0  0  0  0
  4 29  1  0  0  0  0
  5 12  1  0  0  0  0
  5 30  1  0  0  0  0
  6  7  2  0  0  0  0
  6  8  1  0  0  0  0
  6 31  1  0  0  0  0
  7 19  1  0  0  0  0
  7 32  1  0  0  0  0
  8 21  2  0  0  0  0
  8 33  1  0  0  0  0
  9 11  1  0  0  0  0
  9 34  1  0  0  0  0
  9 35  1  0  0  0  0
 10 36  1  0  0  0  0
 10 37  1  0  0  0  0
 11 38  1  0  0  0  0
 11 39  1  0  0  0  0
 12 13  1  0  0  0  0
 12 40  1  0  0  0  0
 12 41  1  0  0  0  0
 13 14  1  0  0  0  0
 13 42  1  0  0  0  0
 13 43  1  0  0  0  0
 14 15  1  0  0  0  0
 14 44  1  0  0  0  0
 14 45  1  0  0  0  0
 15 16  1  0  0  0  0
 15 46  1  0  0  0  0
 15 47  1  0  0  0  0
 16 17  1  0  0  0  0
 16 48  1  0  0  0  0
 16 49  1  0  0  0  0
 17 18  1  0  0  0  0
 17 50  1  0  0  0  0
 17 51  1  0  0  0  0
 18 21  1  0  0  0  0
 18 52  1  0  0  0  0
 18 53  1  0  0  0  0
 19 20  2  0  0  0  0
 19 22  1  0  0  0  0
 20 21  1  0  0  0  0
 20 23  1  0  0  0  0
 22 54  1  0  0  0  0
 23 55  1  0  0  0  0
M  END
$$$$