/media/chris/experiments/cd1a-new-docking/inputs/ligands/5j1a_ligand.pdb
 OpenBabel07022311203D

 55 55  0  0  0  0  0  0  0  0999 V2000
  -37.6178   53.5807   64.6754 C   0  0  0  0  0  0  0  0  0  0  0  0
  -35.8430   54.5738   61.6660 C   0  0  0  0  0  0  0  0  0  0  0  0
  -37.1363   56.0183   60.1318 C   0  0  0  0  0  0  0  0  0  0  0  0
  -36.4898   53.2067   61.9937 C   0  0  0  0  0  0  0  0  0  0  0  0
  -38.6290   56.0694   59.7515 C   0  0  0  0  0  0  0  0  0  0  0  0
  -49.0797   57.5884   63.5903 C   0  0  0  0  0  0  0  0  0  0  0  0
  -49.5663   56.6082   62.7153 C   0  0  0  0  0  0  0  0  0  0  0  0
  -47.7506   57.5488   64.0283 C   0  0  0  0  0  0  0  0  0  0  0  0
  -38.3814   53.9655   63.4059 C   0  0  0  0  0  0  0  0  0  0  0  0
  -36.6693   55.8658   61.5876 C   0  0  0  0  0  0  0  0  0  0  0  0
  -38.0066   53.0600   62.2247 C   0  0  0  0  0  0  0  0  0  0  0  0
  -39.6997   55.8424   60.8202 C   0  0  0  0  0  0  0  0  0  0  0  0
  -39.5380   56.9300   61.8820 C   0  0  0  0  0  0  0  0  0  0  0  0
  -40.5750   56.7430   62.9900 C   0  0  0  0  0  0  0  0  0  0  0  0
  -41.9730   56.8130   62.3910 C   0  0  0  0  0  0  0  0  0  0  0  0
  -43.0346   56.6452   63.4882 C   0  0  0  0  0  0  0  0  0  0  0  0
  -44.4877   56.6885   62.9483 C   0  0  0  0  0  0  0  0  0  0  0  0
  -45.5541   56.5365   64.0586 C   0  0  0  0  0  0  0  0  0  0  0  0
  -48.7016   55.6000   62.2896 C   0  0  0  0  0  0  0  0  0  0  0  0
  -47.3773   55.5711   62.7234 C   0  0  0  0  0  0  0  0  0  0  0  0
  -46.8702   56.5588   63.5774 C   0  0  0  0  0  0  0  0  0  0  0  0
  -49.0951   54.6143   61.4463 O   0  0  0  0  0  0  0  0  0  0  0  0
  -46.5658   54.5702   62.2745 O   0  0  0  0  0  0  0  0  0  0  0  0
  -37.9041   54.2316   65.4749 H   0  0  0  0  0  0  0  0  0  0  0  0
  -36.5661   53.6717   64.5005 H   0  0  0  0  0  0  0  0  0  0  0  0
  -37.8494   52.5696   64.9383 H   0  0  0  0  0  0  0  0  0  0  0  0
  -34.8262   54.6185   61.4950 H   0  0  0  0  0  0  0  0  0  0  0  0
  -36.4278   56.0887   59.3847 H   0  0  0  0  0  0  0  0  0  0  0  0
  -35.8890   52.3702   62.0594 H   0  0  0  0  0  0  0  0  0  0  0  0
  -38.9063   56.2569   58.7753 H   0  0  0  0  0  0  0  0  0  0  0  0
  -49.7044   58.3435   63.9136 H   0  0  0  0  0  0  0  0  0  0  0  0
  -50.5461   56.6317   62.3919 H   0  0  0  0  0  0  0  0  0  0  0  0
  -47.4145   58.2614   64.6948 H   0  0  0  0  0  0  0  0  0  0  0  0
  -38.1480   54.9789   63.1541 H   0  0  0  0  0  0  0  0  0  0  0  0
  -39.4278   53.8503   63.5969 H   0  0  0  0  0  0  0  0  0  0  0  0
  -36.0668   56.7040   61.8691 H   0  0  0  0  0  0  0  0  0  0  0  0
  -37.5064   55.8224   62.2526 H   0  0  0  0  0  0  0  0  0  0  0  0
  -38.2448   52.0424   62.4541 H   0  0  0  0  0  0  0  0  0  0  0  0
  -38.5510   53.3397   61.3470 H   0  0  0  0  0  0  0  0  0  0  0  0
  -39.5715   54.8777   61.2648 H   0  0  0  0  0  0  0  0  0  0  0  0
  -40.6766   55.8865   60.3858 H   0  0  0  0  0  0  0  0  0  0  0  0
  -39.6739   57.8897   61.4288 H   0  0  0  0  0  0  0  0  0  0  0  0
  -38.5577   56.8621   62.3055 H   0  0  0  0  0  0  0  0  0  0  0  0
  -40.4604   57.5164   63.7205 H   0  0  0  0  0  0  0  0  0  0  0  0
  -40.4329   55.7901   63.4556 H   0  0  0  0  0  0  0  0  0  0  0  0
  -42.0864   56.0321   61.6683 H   0  0  0  0  0  0  0  0  0  0  0  0
  -42.1035   57.7672   61.9248 H   0  0  0  0  0  0  0  0  0  0  0  0
  -42.9137   57.4339   64.2011 H   0  0  0  0  0  0  0  0  0  0  0  0
  -42.8880   55.6799   63.9258 H   0  0  0  0  0  0  0  0  0  0  0  0
  -44.6131   55.8921   62.2447 H   0  0  0  0  0  0  0  0  0  0  0  0
  -44.6315   57.6484   62.4978 H   0  0  0  0  0  0  0  0  0  0  0  0
  -45.4347   57.3400   64.7550 H   0  0  0  0  0  0  0  0  0  0  0  0
  -45.4014   55.5796   64.5124 H   0  0  0  0  0  0  0  0  0  0  0  0
  -49.9764   54.5934   61.1287 H   0  0  0  0  0  0  0  0  0  0  0  0
  -46.9074   53.9106   61.7033 H   0  0  0  0  0  0  0  0  0  0  0  0
  1  9  1  0  0  0  0
  1 24  1  0  0  0  0
  1 25  1  0  0  0  0
  1 26  1  0  0  0  0
  2  4  2  0  0  0  0
  2 10  1  0  0  0  0
  2 27  1  0  0  0  0
  3  5  2  0  0  0  0
  3 10  1  0  0  0  0
  3 28  1  0  0  0  0
  4 11  1  0  0  0  0
  4 29  1  0  0  0  0
  5 12  1  0  0  0  0
  5 30  1  0  0  0  0
  6  7  2  0  0  0  0
  6  8  1  0  0  0  0
  6 31  1  0  0  0  0
  7 19  1  0  0  0  0
  7 32  1  0  0  0  0
  8 21  2  0  0  0  0
  8 33  1  0  0  0  0
  9 11  1  0  0  0  0
  9 34  1  0  0  0  0
  9 35  1  0  0  0  0
 10 36  1  0  0  0  0
 10 37  1  0  0  0  0
 11 38  1  0  0  0  0
 11 39  1  0  0  0  0
 12 13  1  0  0  0  0
 12 40  1  0  0  0  0
 12 41  1  0  0  0  0
 13 14  1  0  0  0  0
 13 42  1  0  0  0  0
 13 43  1  0  0  0  0
 14 15  1  0  0  0  0
 14 44  1  0  0  0  0
 14 45  1  0  0  0  0
 15 16  1  0  0  0  0
 15 46  1  0  0  0  0
 15 47  1  0  0  0  0
 16 17  1  0  0  0  0
 16 48  1  0  0  0  0
 16 49  1  0  0  0  0
 17 18  1  0  0  0  0
 17 50  1  0  0  0  0
 17 51  1  0  0  0  0
 18 21  1  0  0  0  0
 18 52  1  0  0  0  0
 18 53  1  0  0  0  0
 19 20  2  0  0  0  0
 19 22  1  0  0  0  0
 20 21  1  0  0  0  0
 20 23  1  0  0  0  0
 22 54  1  0  0  0  0
 23 55  1  0  0  0  0
M  END
$$$$