/media/chris/experiments/cd1a-new-docking/inputs/ligands/5j1a_ligand.pdb
 OpenBabel07022311203D

 55 55  0  0  0  0  0  0  0  0999 V2000
  -40.1307   54.8880   65.1594 C   0  0  0  0  0  0  0  0  0  0  0  0
  -36.8021   55.8978   66.3593 C   0  0  0  0  0  0  0  0  0  0  0  0
  -37.0549   57.7379   64.7273 C   0  0  0  0  0  0  0  0  0  0  0  0
  -38.2058   56.2280   66.9209 C   0  0  0  0  0  0  0  0  0  0  0  0
  -37.9880   57.9434   63.5180 C   0  0  0  0  0  0  0  0  0  0  0  0
  -40.9346   49.7061   61.4124 C   0  0  0  0  0  0  0  0  0  0  0  0
  -41.8243   49.2114   62.3751 C   0  0  0  0  0  0  0  0  0  0  0  0
  -41.0712   51.0123   60.9276 C   0  0  0  0  0  0  0  0  0  0  0  0
  -40.4702   56.1768   65.9121 C   0  0  0  0  0  0  0  0  0  0  0  0
  -36.3361   56.4050   64.9868 C   0  0  0  0  0  0  0  0  0  0  0  0
  -39.2284   57.0552   66.1175 C   0  0  0  0  0  0  0  0  0  0  0  0
  -38.1263   56.8452   62.4620 C   0  0  0  0  0  0  0  0  0  0  0  0
  -39.5380   56.9300   61.8820 C   0  0  0  0  0  0  0  0  0  0  0  0
  -40.5750   56.7430   62.9900 C   0  0  0  0  0  0  0  0  0  0  0  0
  -41.9730   56.8130   62.3910 C   0  0  0  0  0  0  0  0  0  0  0  0
  -42.1661   55.6996   61.3507 C   0  0  0  0  0  0  0  0  0  0  0  0
  -42.0124   54.2741   61.9416 C   0  0  0  0  0  0  0  0  0  0  0  0
  -42.1905   53.1560   60.8873 C   0  0  0  0  0  0  0  0  0  0  0  0
  -42.8410   50.0454   62.8401 C   0  0  0  0  0  0  0  0  0  0  0  0
  -42.9665   51.3476   62.3590 C   0  0  0  0  0  0  0  0  0  0  0  0
  -42.0687   51.8638   61.4159 C   0  0  0  0  0  0  0  0  0  0  0  0
  -43.7432   49.6422   63.7682 O   0  0  0  0  0  0  0  0  0  0  0  0
  -43.9716   52.1297   62.8487 O   0  0  0  0  0  0  0  0  0  0  0  0
  -41.0181   54.3032   65.0353 H   0  0  0  0  0  0  0  0  0  0  0  0
  -39.4098   54.3282   65.7178 H   0  0  0  0  0  0  0  0  0  0  0  0
  -39.7269   55.1317   64.1990 H   0  0  0  0  0  0  0  0  0  0  0  0
  -36.1601   55.3198   66.9239 H   0  0  0  0  0  0  0  0  0  0  0  0
  -36.9083   58.5205   65.3838 H   0  0  0  0  0  0  0  0  0  0  0  0
  -38.4642   55.8848   67.8593 H   0  0  0  0  0  0  0  0  0  0  0  0
  -38.5198   58.8224   63.4205 H   0  0  0  0  0  0  0  0  0  0  0  0
  -40.1745   49.1042   61.0587 H   0  0  0  0  0  0  0  0  0  0  0  0
  -41.7292   48.2483   62.7334 H   0  0  0  0  0  0  0  0  0  0  0  0
  -40.4255   51.3530   60.1981 H   0  0  0  0  0  0  0  0  0  0  0  0
  -40.8781   55.9233   66.8682 H   0  0  0  0  0  0  0  0  0  0  0  0
  -41.1775   56.7286   65.3289 H   0  0  0  0  0  0  0  0  0  0  0  0
  -36.5927   55.6961   64.2275 H   0  0  0  0  0  0  0  0  0  0  0  0
  -35.2743   56.5364   64.9707 H   0  0  0  0  0  0  0  0  0  0  0  0
  -38.8135   57.3290   65.1700 H   0  0  0  0  0  0  0  0  0  0  0  0
  -39.4832   57.9526   66.6415 H   0  0  0  0  0  0  0  0  0  0  0  0
  -37.9746   55.8864   62.9120 H   0  0  0  0  0  0  0  0  0  0  0  0
  -37.3967   56.9749   61.6902 H   0  0  0  0  0  0  0  0  0  0  0  0
  -39.6646   56.1636   61.1461 H   0  0  0  0  0  0  0  0  0  0  0  0
  -39.6747   57.8920   61.4340 H   0  0  0  0  0  0  0  0  0  0  0  0
  -40.4604   57.5164   63.7205 H   0  0  0  0  0  0  0  0  0  0  0  0
  -40.4329   55.7901   63.4556 H   0  0  0  0  0  0  0  0  0  0  0  0
  -42.1071   57.7638   61.9188 H   0  0  0  0  0  0  0  0  0  0  0  0
  -42.6924   56.6861   63.1729 H   0  0  0  0  0  0  0  0  0  0  0  0
  -41.4374   55.8271   60.5777 H   0  0  0  0  0  0  0  0  0  0  0  0
  -43.1664   55.7826   60.9800 H   0  0  0  0  0  0  0  0  0  0  0  0
  -42.7492   54.1414   62.7060 H   0  0  0  0  0  0  0  0  0  0  0  0
  -41.0169   54.1941   62.3254 H   0  0  0  0  0  0  0  0  0  0  0  0
  -41.4458   53.2835   60.1296 H   0  0  0  0  0  0  0  0  0  0  0  0
  -43.1838   53.2448   60.4995 H   0  0  0  0  0  0  0  0  0  0  0  0
  -43.6976   48.7750   64.1200 H   0  0  0  0  0  0  0  0  0  0  0  0
  -44.5709   51.7820   63.4795 H   0  0  0  0  0  0  0  0  0  0  0  0
  1  9  1  0  0  0  0
  1 24  1  0  0  0  0
  1 25  1  0  0  0  0
  1 26  1  0  0  0  0
  2  4  2  0  0  0  0
  2 10  1  0  0  0  0
  2 27  1  0  0  0  0
  3  5  2  0  0  0  0
  3 10  1  0  0  0  0
  3 28  1  0  0  0  0
  4 11  1  0  0  0  0
  4 29  1  0  0  0  0
  5 12  1  0  0  0  0
  5 30  1  0  0  0  0
  6  7  2  0  0  0  0
  6  8  1  0  0  0  0
  6 31  1  0  0  0  0
  7 19  1  0  0  0  0
  7 32  1  0  0  0  0
  8 21  2  0  0  0  0
  8 33  1  0  0  0  0
  9 11  1  0  0  0  0
  9 34  1  0  0  0  0
  9 35  1  0  0  0  0
 10 36  1  0  0  0  0
 10 37  1  0  0  0  0
 11 38  1  0  0  0  0
 11 39  1  0  0  0  0
 12 13  1  0  0  0  0
 12 40  1  0  0  0  0
 12 41  1  0  0  0  0
 13 14  1  0  0  0  0
 13 42  1  0  0  0  0
 13 43  1  0  0  0  0
 14 15  1  0  0  0  0
 14 44  1  0  0  0  0
 14 45  1  0  0  0  0
 15 16  1  0  0  0  0
 15 46  1  0  0  0  0
 15 47  1  0  0  0  0
 16 17  1  0  0  0  0
 16 48  1  0  0  0  0
 16 49  1  0  0  0  0
 17 18  1  0  0  0  0
 17 50  1  0  0  0  0
 17 51  1  0  0  0  0
 18 21  1  0  0  0  0
 18 52  1  0  0  0  0
 18 53  1  0  0  0  0
 19 20  2  0  0  0  0
 19 22  1  0  0  0  0
 20 21  1  0  0  0  0
 20 23  1  0  0  0  0
 22 54  1  0  0  0  0
 23 55  1  0  0  0  0
M  END
$$$$