/media/chris/experiments/cd1a-new-docking/inputs/ligands/5j1a_ligand.pdb
 OpenBabel07022311203D

 55 55  0  0  0  0  0  0  0  0999 V2000
  -39.1922   57.2519   65.0828 C   0  0  0  0  0  0  0  0  0  0  0  0
  -35.8637   54.7955   61.9981 C   0  0  0  0  0  0  0  0  0  0  0  0
  -38.1129   53.8522   61.5930 C   0  0  0  0  0  0  0  0  0  0  0  0
  -36.1892   55.7526   63.1697 C   0  0  0  0  0  0  0  0  0  0  0  0
  -39.5143   54.4878   61.5063 C   0  0  0  0  0  0  0  0  0  0  0  0
  -42.9401   58.1523   67.2114 C   0  0  0  0  0  0  0  0  0  0  0  0
  -43.7993   58.1329   68.3181 C   0  0  0  0  0  0  0  0  0  0  0  0
  -43.0174   57.1489   66.2381 C   0  0  0  0  0  0  0  0  0  0  0  0
  -37.8247   56.6163   64.8212 C   0  0  0  0  0  0  0  0  0  0  0  0
  -36.8899   54.4745   60.9018 C   0  0  0  0  0  0  0  0  0  0  0  0
  -37.5752   56.4096   63.3210 C   0  0  0  0  0  0  0  0  0  0  0  0
  -39.6997   55.8424   60.8202 C   0  0  0  0  0  0  0  0  0  0  0  0
  -39.5380   56.9300   61.8820 C   0  0  0  0  0  0  0  0  0  0  0  0
  -40.5750   56.7430   62.9900 C   0  0  0  0  0  0  0  0  0  0  0  0
  -41.9730   56.8130   62.3910 C   0  0  0  0  0  0  0  0  0  0  0  0
  -43.0346   56.6452   63.4882 C   0  0  0  0  0  0  0  0  0  0  0  0
  -42.9202   55.3008   64.2526 C   0  0  0  0  0  0  0  0  0  0  0  0
  -44.0019   55.1282   65.3452 C   0  0  0  0  0  0  0  0  0  0  0  0
  -44.7304   57.1001   68.4263 C   0  0  0  0  0  0  0  0  0  0  0  0
  -44.8072   56.1087   67.4496 C   0  0  0  0  0  0  0  0  0  0  0  0
  -43.9724   56.1298   66.3250 C   0  0  0  0  0  0  0  0  0  0  0  0
  -45.5947   57.0081   69.4666 O   0  0  0  0  0  0  0  0  0  0  0  0
  -45.7390   55.1223   67.5935 O   0  0  0  0  0  0  0  0  0  0  0  0
  -39.3303   57.3802   66.1361 H   0  0  0  0  0  0  0  0  0  0  0  0
  -39.9611   56.6154   64.6973 H   0  0  0  0  0  0  0  0  0  0  0  0
  -39.2414   58.2045   64.5980 H   0  0  0  0  0  0  0  0  0  0  0  0
  -34.9292   54.3600   61.9522 H   0  0  0  0  0  0  0  0  0  0  0  0
  -37.9922   52.9809   62.1327 H   0  0  0  0  0  0  0  0  0  0  0  0
  -35.4582   55.9566   63.8690 H   0  0  0  0  0  0  0  0  0  0  0  0
  -40.3281   53.9993   61.9113 H   0  0  0  0  0  0  0  0  0  0  0  0
  -42.2467   58.9103   67.1132 H   0  0  0  0  0  0  0  0  0  0  0  0
  -43.7441   58.8689   69.0394 H   0  0  0  0  0  0  0  0  0  0  0  0
  -42.3592   57.1611   65.4434 H   0  0  0  0  0  0  0  0  0  0  0  0
  -37.7828   55.6675   65.3140 H   0  0  0  0  0  0  0  0  0  0  0  0
  -37.0714   57.2763   65.1978 H   0  0  0  0  0  0  0  0  0  0  0  0
  -36.4731   53.7818   60.2008 H   0  0  0  0  0  0  0  0  0  0  0  0
  -37.1649   55.3599   60.3677 H   0  0  0  0  0  0  0  0  0  0  0  0
  -38.3292   55.7716   62.9094 H   0  0  0  0  0  0  0  0  0  0  0  0
  -37.6090   57.3439   62.8004 H   0  0  0  0  0  0  0  0  0  0  0  0
  -40.6760   55.8999   60.3860 H   0  0  0  0  0  0  0  0  0  0  0  0
  -38.9765   55.9694   60.0419 H   0  0  0  0  0  0  0  0  0  0  0  0
  -39.6739   57.8897   61.4288 H   0  0  0  0  0  0  0  0  0  0  0  0
  -38.5577   56.8621   62.3055 H   0  0  0  0  0  0  0  0  0  0  0  0
  -40.4604   57.5164   63.7205 H   0  0  0  0  0  0  0  0  0  0  0  0
  -40.4329   55.7901   63.4556 H   0  0  0  0  0  0  0  0  0  0  0  0
  -42.0864   56.0321   61.6683 H   0  0  0  0  0  0  0  0  0  0  0  0
  -42.1035   57.7672   61.9248 H   0  0  0  0  0  0  0  0  0  0  0  0
  -44.0025   56.6968   63.0349 H   0  0  0  0  0  0  0  0  0  0  0  0
  -42.8805   57.4287   64.2005 H   0  0  0  0  0  0  0  0  0  0  0  0
  -41.9573   55.2542   64.7168 H   0  0  0  0  0  0  0  0  0  0  0  0
  -43.0603   54.5159   63.5391 H   0  0  0  0  0  0  0  0  0  0  0  0
  -43.8525   54.1825   65.8230 H   0  0  0  0  0  0  0  0  0  0  0  0
  -44.9529   55.1918   64.8589 H   0  0  0  0  0  0  0  0  0  0  0  0
  -45.5794   57.6523   70.1469 H   0  0  0  0  0  0  0  0  0  0  0  0
  -46.2962   55.1105   68.3468 H   0  0  0  0  0  0  0  0  0  0  0  0
  1  9  1  0  0  0  0
  1 24  1  0  0  0  0
  1 25  1  0  0  0  0
  1 26  1  0  0  0  0
  2  4  2  0  0  0  0
  2 10  1  0  0  0  0
  2 27  1  0  0  0  0
  3  5  2  0  0  0  0
  3 10  1  0  0  0  0
  3 28  1  0  0  0  0
  4 11  1  0  0  0  0
  4 29  1  0  0  0  0
  5 12  1  0  0  0  0
  5 30  1  0  0  0  0
  6  7  2  0  0  0  0
  6  8  1  0  0  0  0
  6 31  1  0  0  0  0
  7 19  1  0  0  0  0
  7 32  1  0  0  0  0
  8 21  2  0  0  0  0
  8 33  1  0  0  0  0
  9 11  1  0  0  0  0
  9 34  1  0  0  0  0
  9 35  1  0  0  0  0
 10 36  1  0  0  0  0
 10 37  1  0  0  0  0
 11 38  1  0  0  0  0
 11 39  1  0  0  0  0
 12 13  1  0  0  0  0
 12 40  1  0  0  0  0
 12 41  1  0  0  0  0
 13 14  1  0  0  0  0
 13 42  1  0  0  0  0
 13 43  1  0  0  0  0
 14 15  1  0  0  0  0
 14 44  1  0  0  0  0
 14 45  1  0  0  0  0
 15 16  1  0  0  0  0
 15 46  1  0  0  0  0
 15 47  1  0  0  0  0
 16 17  1  0  0  0  0
 16 48  1  0  0  0  0
 16 49  1  0  0  0  0
 17 18  1  0  0  0  0
 17 50  1  0  0  0  0
 17 51  1  0  0  0  0
 18 21  1  0  0  0  0
 18 52  1  0  0  0  0
 18 53  1  0  0  0  0
 19 20  2  0  0  0  0
 19 22  1  0  0  0  0
 20 21  1  0  0  0  0
 20 23  1  0  0  0  0
 22 54  1  0  0  0  0
 23 55  1  0  0  0  0
M  END
$$$$