/media/chris/experiments/cd1a-new-docking/inputs/ligands/5j1a_ligand.pdb
 OpenBabel07022311203D

 55 55  0  0  0  0  0  0  0  0999 V2000
  -40.2348   53.4077   61.0659 C   0  0  0  0  0  0  0  0  0  0  0  0
  -35.8430   54.5738   61.6660 C   0  0  0  0  0  0  0  0  0  0  0  0
  -37.1363   56.0183   60.1318 C   0  0  0  0  0  0  0  0  0  0  0  0
  -36.4898   53.2067   61.9937 C   0  0  0  0  0  0  0  0  0  0  0  0
  -38.6290   56.0694   59.7515 C   0  0  0  0  0  0  0  0  0  0  0  0
  -43.5558   52.0964   62.3543 C   0  0  0  0  0  0  0  0  0  0  0  0
  -44.3555   51.6261   63.4043 C   0  0  0  0  0  0  0  0  0  0  0  0
  -43.7144   53.4019   61.8742 C   0  0  0  0  0  0  0  0  0  0  0  0
  -38.7126   53.4997   60.9348 C   0  0  0  0  0  0  0  0  0  0  0  0
  -36.6693   55.8658   61.5876 C   0  0  0  0  0  0  0  0  0  0  0  0
  -38.0066   53.0600   62.2247 C   0  0  0  0  0  0  0  0  0  0  0  0
  -39.6997   55.8424   60.8202 C   0  0  0  0  0  0  0  0  0  0  0  0
  -39.5380   56.9300   61.8820 C   0  0  0  0  0  0  0  0  0  0  0  0
  -40.5750   56.7430   62.9900 C   0  0  0  0  0  0  0  0  0  0  0  0
  -41.9730   56.8130   62.3910 C   0  0  0  0  0  0  0  0  0  0  0  0
  -43.0346   56.6452   63.4882 C   0  0  0  0  0  0  0  0  0  0  0  0
  -44.4877   56.6885   62.9483 C   0  0  0  0  0  0  0  0  0  0  0  0
  -44.7906   55.5673   61.9262 C   0  0  0  0  0  0  0  0  0  0  0  0
  -45.3049   52.4833   63.9602 C   0  0  0  0  0  0  0  0  0  0  0  0
  -45.4521   53.7845   63.4827 C   0  0  0  0  0  0  0  0  0  0  0  0
  -44.6421   54.2764   62.4512 C   0  0  0  0  0  0  0  0  0  0  0  0
  -46.1186   52.1044   64.9761 O   0  0  0  0  0  0  0  0  0  0  0  0
  -46.3887   54.5898   64.0625 O   0  0  0  0  0  0  0  0  0  0  0  0
  -40.6912   53.7212   60.1503 H   0  0  0  0  0  0  0  0  0  0  0  0
  -40.5630   54.0413   61.8633 H   0  0  0  0  0  0  0  0  0  0  0  0
  -40.5142   52.3964   61.2758 H   0  0  0  0  0  0  0  0  0  0  0  0
  -34.8262   54.6185   61.4950 H   0  0  0  0  0  0  0  0  0  0  0  0
  -36.4278   56.0887   59.3847 H   0  0  0  0  0  0  0  0  0  0  0  0
  -35.8890   52.3702   62.0594 H   0  0  0  0  0  0  0  0  0  0  0  0
  -38.9063   56.2569   58.7753 H   0  0  0  0  0  0  0  0  0  0  0  0
  -42.8462   51.4771   61.9325 H   0  0  0  0  0  0  0  0  0  0  0  0
  -44.2441   50.6636   63.7597 H   0  0  0  0  0  0  0  0  0  0  0  0
  -43.1376   53.7247   61.0817 H   0  0  0  0  0  0  0  0  0  0  0  0
  -38.4432   54.5126   60.7195 H   0  0  0  0  0  0  0  0  0  0  0  0
  -38.4047   52.8463   60.1454 H   0  0  0  0  0  0  0  0  0  0  0  0
  -36.0668   56.7040   61.8691 H   0  0  0  0  0  0  0  0  0  0  0  0
  -37.5064   55.8224   62.2526 H   0  0  0  0  0  0  0  0  0  0  0  0
  -38.3141   53.6812   63.0398 H   0  0  0  0  0  0  0  0  0  0  0  0
  -38.2557   52.0475   62.4651 H   0  0  0  0  0  0  0  0  0  0  0  0
  -39.5715   54.8777   61.2648 H   0  0  0  0  0  0  0  0  0  0  0  0
  -40.6766   55.8865   60.3858 H   0  0  0  0  0  0  0  0  0  0  0  0
  -39.6739   57.8897   61.4288 H   0  0  0  0  0  0  0  0  0  0  0  0
  -38.5577   56.8621   62.3055 H   0  0  0  0  0  0  0  0  0  0  0  0
  -40.4604   57.5164   63.7205 H   0  0  0  0  0  0  0  0  0  0  0  0
  -40.4329   55.7901   63.4556 H   0  0  0  0  0  0  0  0  0  0  0  0
  -42.0864   56.0321   61.6683 H   0  0  0  0  0  0  0  0  0  0  0  0
  -42.1035   57.7672   61.9248 H   0  0  0  0  0  0  0  0  0  0  0  0
  -42.9137   57.4339   64.2011 H   0  0  0  0  0  0  0  0  0  0  0  0
  -42.8880   55.6799   63.9258 H   0  0  0  0  0  0  0  0  0  0  0  0
  -44.6460   57.6340   62.4730 H   0  0  0  0  0  0  0  0  0  0  0  0
  -45.1418   56.5440   63.7826 H   0  0  0  0  0  0  0  0  0  0  0  0
  -44.1221   55.6748   61.0977 H   0  0  0  0  0  0  0  0  0  0  0  0
  -45.8154   55.6734   61.6376 H   0  0  0  0  0  0  0  0  0  0  0  0
  -46.0552   51.2388   65.3292 H   0  0  0  0  0  0  0  0  0  0  0  0
  -46.9293   54.2584   64.7523 H   0  0  0  0  0  0  0  0  0  0  0  0
  1  9  1  0  0  0  0
  1 24  1  0  0  0  0
  1 25  1  0  0  0  0
  1 26  1  0  0  0  0
  2  4  2  0  0  0  0
  2 10  1  0  0  0  0
  2 27  1  0  0  0  0
  3  5  2  0  0  0  0
  3 10  1  0  0  0  0
  3 28  1  0  0  0  0
  4 11  1  0  0  0  0
  4 29  1  0  0  0  0
  5 12  1  0  0  0  0
  5 30  1  0  0  0  0
  6  7  2  0  0  0  0
  6  8  1  0  0  0  0
  6 31  1  0  0  0  0
  7 19  1  0  0  0  0
  7 32  1  0  0  0  0
  8 21  2  0  0  0  0
  8 33  1  0  0  0  0
  9 11  1  0  0  0  0
  9 34  1  0  0  0  0
  9 35  1  0  0  0  0
 10 36  1  0  0  0  0
 10 37  1  0  0  0  0
 11 38  1  0  0  0  0
 11 39  1  0  0  0  0
 12 13  1  0  0  0  0
 12 40  1  0  0  0  0
 12 41  1  0  0  0  0
 13 14  1  0  0  0  0
 13 42  1  0  0  0  0
 13 43  1  0  0  0  0
 14 15  1  0  0  0  0
 14 44  1  0  0  0  0
 14 45  1  0  0  0  0
 15 16  1  0  0  0  0
 15 46  1  0  0  0  0
 15 47  1  0  0  0  0
 16 17  1  0  0  0  0
 16 48  1  0  0  0  0
 16 49  1  0  0  0  0
 17 18  1  0  0  0  0
 17 50  1  0  0  0  0
 17 51  1  0  0  0  0
 18 21  1  0  0  0  0
 18 52  1  0  0  0  0
 18 53  1  0  0  0  0
 19 20  2  0  0  0  0
 19 22  1  0  0  0  0
 20 21  1  0  0  0  0
 20 23  1  0  0  0  0
 22 54  1  0  0  0  0
 23 55  1  0  0  0  0
M  END
$$$$