/media/chris/experiments/cd1a-new-docking/inputs/ligands/5j1a_ligand.pdb
 OpenBabel07022311203D

 55 55  0  0  0  0  0  0  0  0999 V2000
  -32.2827   57.7035   63.4470 C   0  0  0  0  0  0  0  0  0  0  0  0
  -35.5015   60.1402   61.7210 C   0  0  0  0  0  0  0  0  0  0  0  0
  -37.2843   59.0225   60.4228 C   0  0  0  0  0  0  0  0  0  0  0  0
  -34.3954   59.6040   62.6610 C   0  0  0  0  0  0  0  0  0  0  0  0
  -38.6676   58.4181   60.1118 C   0  0  0  0  0  0  0  0  0  0  0  0
  -46.6573   55.7926   57.6696 C   0  0  0  0  0  0  0  0  0  0  0  0
  -47.5784   54.7485   57.8270 C   0  0  0  0  0  0  0  0  0  0  0  0
  -45.4001   55.7252   58.2817 C   0  0  0  0  0  0  0  0  0  0  0  0
  -33.7608   57.3139   63.3685 C   0  0  0  0  0  0  0  0  0  0  0  0
  -36.9479   59.6293   61.7936 C   0  0  0  0  0  0  0  0  0  0  0  0
  -34.6764   58.5003   63.6995 C   0  0  0  0  0  0  0  0  0  0  0  0
  -39.7162   58.2956   61.2187 C   0  0  0  0  0  0  0  0  0  0  0  0
  -39.5380   56.9300   61.8820 C   0  0  0  0  0  0  0  0  0  0  0  0
  -40.5750   56.7430   62.9900 C   0  0  0  0  0  0  0  0  0  0  0  0
  -41.9730   56.8130   62.3910 C   0  0  0  0  0  0  0  0  0  0  0  0
  -42.1661   55.6996   61.3507 C   0  0  0  0  0  0  0  0  0  0  0  0
  -43.5658   55.7191   60.6834 C   0  0  0  0  0  0  0  0  0  0  0  0
  -43.7624   54.5857   59.6489 C   0  0  0  0  0  0  0  0  0  0  0  0
  -47.2159   53.6451   58.5993 C   0  0  0  0  0  0  0  0  0  0  0  0
  -45.9595   53.5809   59.1995 C   0  0  0  0  0  0  0  0  0  0  0  0
  -45.0194   54.6053   59.0294 C   0  0  0  0  0  0  0  0  0  0  0  0
  -48.0497   52.5957   58.8024 O   0  0  0  0  0  0  0  0  0  0  0  0
  -45.6460   52.4784   59.9397 O   0  0  0  0  0  0  0  0  0  0  0  0
  -31.6768   56.8539   63.2107 H   0  0  0  0  0  0  0  0  0  0  0  0
  -32.0546   58.0401   64.4368 H   0  0  0  0  0  0  0  0  0  0  0  0
  -32.0833   58.4891   62.7484 H   0  0  0  0  0  0  0  0  0  0  0  0
  -35.2600   60.8626   61.0246 H   0  0  0  0  0  0  0  0  0  0  0  0
  -36.5610   59.0195   59.6867 H   0  0  0  0  0  0  0  0  0  0  0  0
  -33.4434   59.9962   62.5906 H   0  0  0  0  0  0  0  0  0  0  0  0
  -38.8865   58.0960   59.1561 H   0  0  0  0  0  0  0  0  0  0  0  0
  -46.9071   56.6157   57.0993 H   0  0  0  0  0  0  0  0  0  0  0  0
  -48.5073   54.7950   57.3799 H   0  0  0  0  0  0  0  0  0  0  0  0
  -44.7431   56.5146   58.1798 H   0  0  0  0  0  0  0  0  0  0  0  0
  -33.9493   56.5246   64.0659 H   0  0  0  0  0  0  0  0  0  0  0  0
  -33.9708   56.9981   62.3679 H   0  0  0  0  0  0  0  0  0  0  0  0
  -37.6126   60.4397   62.0090 H   0  0  0  0  0  0  0  0  0  0  0  0
  -37.0546   58.8995   62.5688 H   0  0  0  0  0  0  0  0  0  0  0  0
  -35.7012   58.1980   63.6436 H   0  0  0  0  0  0  0  0  0  0  0  0
  -34.4881   58.8575   64.6904 H   0  0  0  0  0  0  0  0  0  0  0  0
  -40.6980   58.3716   60.8001 H   0  0  0  0  0  0  0  0  0  0  0  0
  -39.5944   59.0789   61.9374 H   0  0  0  0  0  0  0  0  0  0  0  0
  -38.5560   56.8665   62.3023 H   0  0  0  0  0  0  0  0  0  0  0  0
  -39.6703   56.1642   61.1465 H   0  0  0  0  0  0  0  0  0  0  0  0
  -40.4604   57.5164   63.7205 H   0  0  0  0  0  0  0  0  0  0  0  0
  -40.4329   55.7901   63.4556 H   0  0  0  0  0  0  0  0  0  0  0  0
  -42.1071   57.7638   61.9188 H   0  0  0  0  0  0  0  0  0  0  0  0
  -42.6924   56.6861   63.1729 H   0  0  0  0  0  0  0  0  0  0  0  0
  -42.0344   54.7551   61.8359 H   0  0  0  0  0  0  0  0  0  0  0  0
  -41.4442   55.8600   60.5774 H   0  0  0  0  0  0  0  0  0  0  0  0
  -43.6931   56.6585   60.1872 H   0  0  0  0  0  0  0  0  0  0  0  0
  -44.2897   55.5727   61.4576 H   0  0  0  0  0  0  0  0  0  0  0  0
  -43.6461   53.6469   60.1491 H   0  0  0  0  0  0  0  0  0  0  0  0
  -43.0312   54.7302   58.8813 H   0  0  0  0  0  0  0  0  0  0  0  0
  -48.9044   52.5953   58.4184 H   0  0  0  0  0  0  0  0  0  0  0  0
  -46.2766   51.7945   60.0519 H   0  0  0  0  0  0  0  0  0  0  0  0
  1  9  1  0  0  0  0
  1 24  1  0  0  0  0
  1 25  1  0  0  0  0
  1 26  1  0  0  0  0
  2  4  2  0  0  0  0
  2 10  1  0  0  0  0
  2 27  1  0  0  0  0
  3  5  2  0  0  0  0
  3 10  1  0  0  0  0
  3 28  1  0  0  0  0
  4 11  1  0  0  0  0
  4 29  1  0  0  0  0
  5 12  1  0  0  0  0
  5 30  1  0  0  0  0
  6  7  2  0  0  0  0
  6  8  1  0  0  0  0
  6 31  1  0  0  0  0
  7 19  1  0  0  0  0
  7 32  1  0  0  0  0
  8 21  2  0  0  0  0
  8 33  1  0  0  0  0
  9 11  1  0  0  0  0
  9 34  1  0  0  0  0
  9 35  1  0  0  0  0
 10 36  1  0  0  0  0
 10 37  1  0  0  0  0
 11 38  1  0  0  0  0
 11 39  1  0  0  0  0
 12 13  1  0  0  0  0
 12 40  1  0  0  0  0
 12 41  1  0  0  0  0
 13 14  1  0  0  0  0
 13 42  1  0  0  0  0
 13 43  1  0  0  0  0
 14 15  1  0  0  0  0
 14 44  1  0  0  0  0
 14 45  1  0  0  0  0
 15 16  1  0  0  0  0
 15 46  1  0  0  0  0
 15 47  1  0  0  0  0
 16 17  1  0  0  0  0
 16 48  1  0  0  0  0
 16 49  1  0  0  0  0
 17 18  1  0  0  0  0
 17 50  1  0  0  0  0
 17 51  1  0  0  0  0
 18 21  1  0  0  0  0
 18 52  1  0  0  0  0
 18 53  1  0  0  0  0
 19 20  2  0  0  0  0
 19 22  1  0  0  0  0
 20 21  1  0  0  0  0
 20 23  1  0  0  0  0
 22 54  1  0  0  0  0
 23 55  1  0  0  0  0
M  END
$$$$