/media/chris/experiments/cd1a-new-docking/inputs/ligands/5j1a_ligand.pdb
 OpenBabel07022311203D

 55 55  0  0  0  0  0  0  0  0999 V2000
  -37.3514   59.6777   65.6778 C   0  0  0  0  0  0  0  0  0  0  0  0
  -40.5351   61.2007   61.8352 C   0  0  0  0  0  0  0  0  0  0  0  0
  -42.1174   59.4370   61.1292 C   0  0  0  0  0  0  0  0  0  0  0  0
  -39.2100   61.1625   62.6337 C   0  0  0  0  0  0  0  0  0  0  0  0
  -41.1327   58.3550   60.6442 C   0  0  0  0  0  0  0  0  0  0  0  0
  -45.0752   54.3732   58.8993 C   0  0  0  0  0  0  0  0  0  0  0  0
  -45.9898   53.3198   59.0310 C   0  0  0  0  0  0  0  0  0  0  0  0
  -43.8235   54.3053   59.5225 C   0  0  0  0  0  0  0  0  0  0  0  0
  -37.6242   60.5164   64.4268 C   0  0  0  0  0  0  0  0  0  0  0  0
  -41.7713   60.4021   62.2735 C   0  0  0  0  0  0  0  0  0  0  0  0
  -39.0461   60.2917   63.8947 C   0  0  0  0  0  0  0  0  0  0  0  0
  -39.7162   58.2956   61.2187 C   0  0  0  0  0  0  0  0  0  0  0  0
  -39.5380   56.9300   61.8820 C   0  0  0  0  0  0  0  0  0  0  0  0
  -40.5750   56.7430   62.9900 C   0  0  0  0  0  0  0  0  0  0  0  0
  -41.9730   56.8130   62.3910 C   0  0  0  0  0  0  0  0  0  0  0  0
  -42.1661   55.6996   61.3507 C   0  0  0  0  0  0  0  0  0  0  0  0
  -42.0124   54.2741   61.9416 C   0  0  0  0  0  0  0  0  0  0  0  0
  -42.1905   53.1560   60.8873 C   0  0  0  0  0  0  0  0  0  0  0  0
  -45.6265   52.2069   59.7890 C   0  0  0  0  0  0  0  0  0  0  0  0
  -44.3755   52.1424   60.4003 C   0  0  0  0  0  0  0  0  0  0  0  0
  -43.4415   53.1763   60.2559 C   0  0  0  0  0  0  0  0  0  0  0  0
  -46.4542   51.1482   59.9671 O   0  0  0  0  0  0  0  0  0  0  0  0
  -44.0607   51.0304   61.1258 O   0  0  0  0  0  0  0  0  0  0  0  0
  -36.3538   59.8600   66.0189 H   0  0  0  0  0  0  0  0  0  0  0  0
  -37.4639   58.6399   65.4428 H   0  0  0  0  0  0  0  0  0  0  0  0
  -38.0458   59.9467   66.4460 H   0  0  0  0  0  0  0  0  0  0  0  0
  -40.5896   61.7801   60.9829 H   0  0  0  0  0  0  0  0  0  0  0  0
  -43.0386   59.5157   60.6707 H   0  0  0  0  0  0  0  0  0  0  0  0
  -38.4142   61.7360   62.3129 H   0  0  0  0  0  0  0  0  0  0  0  0
  -41.4292   57.6701   59.9314 H   0  0  0  0  0  0  0  0  0  0  0  0
  -45.3257   55.2035   58.3399 H   0  0  0  0  0  0  0  0  0  0  0  0
  -46.9147   53.3666   58.5756 H   0  0  0  0  0  0  0  0  0  0  0  0
  -43.1715   55.1010   59.4397 H   0  0  0  0  0  0  0  0  0  0  0  0
  -36.9220   60.2446   63.6666 H   0  0  0  0  0  0  0  0  0  0  0  0
  -37.5240   61.5492   64.6881 H   0  0  0  0  0  0  0  0  0  0  0  0
  -42.5912   61.0654   62.4544 H   0  0  0  0  0  0  0  0  0  0  0  0
  -41.5755   59.8646   63.1778 H   0  0  0  0  0  0  0  0  0  0  0  0
  -39.1851   59.2600   63.6472 H   0  0  0  0  0  0  0  0  0  0  0  0
  -39.7724   60.5576   64.6342 H   0  0  0  0  0  0  0  0  0  0  0  0
  -39.5844   59.0720   61.9431 H   0  0  0  0  0  0  0  0  0  0  0  0
  -38.9922   58.4316   60.4428 H   0  0  0  0  0  0  0  0  0  0  0  0
  -38.5560   56.8665   62.3023 H   0  0  0  0  0  0  0  0  0  0  0  0
  -39.6703   56.1642   61.1465 H   0  0  0  0  0  0  0  0  0  0  0  0
  -40.4604   57.5164   63.7205 H   0  0  0  0  0  0  0  0  0  0  0  0
  -40.4329   55.7901   63.4556 H   0  0  0  0  0  0  0  0  0  0  0  0
  -42.1071   57.7638   61.9188 H   0  0  0  0  0  0  0  0  0  0  0  0
  -42.6924   56.6861   63.1729 H   0  0  0  0  0  0  0  0  0  0  0  0
  -41.4374   55.8271   60.5777 H   0  0  0  0  0  0  0  0  0  0  0  0
  -43.1664   55.7826   60.9800 H   0  0  0  0  0  0  0  0  0  0  0  0
  -42.7492   54.1414   62.7060 H   0  0  0  0  0  0  0  0  0  0  0  0
  -41.0169   54.1941   62.3254 H   0  0  0  0  0  0  0  0  0  0  0  0
  -42.0718   52.2102   61.3734 H   0  0  0  0  0  0  0  0  0  0  0  0
  -41.4530   53.3184   60.1292 H   0  0  0  0  0  0  0  0  0  0  0  0
  -47.3052   51.1477   59.5748 H   0  0  0  0  0  0  0  0  0  0  0  0
  -44.6873   50.3402   61.2209 H   0  0  0  0  0  0  0  0  0  0  0  0
  1  9  1  0  0  0  0
  1 24  1  0  0  0  0
  1 25  1  0  0  0  0
  1 26  1  0  0  0  0
  2  4  2  0  0  0  0
  2 10  1  0  0  0  0
  2 27  1  0  0  0  0
  3  5  2  0  0  0  0
  3 10  1  0  0  0  0
  3 28  1  0  0  0  0
  4 11  1  0  0  0  0
  4 29  1  0  0  0  0
  5 12  1  0  0  0  0
  5 30  1  0  0  0  0
  6  7  2  0  0  0  0
  6  8  1  0  0  0  0
  6 31  1  0  0  0  0
  7 19  1  0  0  0  0
  7 32  1  0  0  0  0
  8 21  2  0  0  0  0
  8 33  1  0  0  0  0
  9 11  1  0  0  0  0
  9 34  1  0  0  0  0
  9 35  1  0  0  0  0
 10 36  1  0  0  0  0
 10 37  1  0  0  0  0
 11 38  1  0  0  0  0
 11 39  1  0  0  0  0
 12 13  1  0  0  0  0
 12 40  1  0  0  0  0
 12 41  1  0  0  0  0
 13 14  1  0  0  0  0
 13 42  1  0  0  0  0
 13 43  1  0  0  0  0
 14 15  1  0  0  0  0
 14 44  1  0  0  0  0
 14 45  1  0  0  0  0
 15 16  1  0  0  0  0
 15 46  1  0  0  0  0
 15 47  1  0  0  0  0
 16 17  1  0  0  0  0
 16 48  1  0  0  0  0
 16 49  1  0  0  0  0
 17 18  1  0  0  0  0
 17 50  1  0  0  0  0
 17 51  1  0  0  0  0
 18 21  1  0  0  0  0
 18 52  1  0  0  0  0
 18 53  1  0  0  0  0
 19 20  2  0  0  0  0
 19 22  1  0  0  0  0
 20 21  1  0  0  0  0
 20 23  1  0  0  0  0
 22 54  1  0  0  0  0
 23 55  1  0  0  0  0
M  END
$$$$