/media/chris/experiments/cd1a-new-docking/inputs/ligands/5j1a_ligand.pdb
 OpenBabel07022311203D

 55 55  0  0  0  0  0  0  0  0999 V2000
  -36.7482   58.3002   67.8271 C   0  0  0  0  0  0  0  0  0  0  0  0
  -38.6175   57.4222   65.4480 C   0  0  0  0  0  0  0  0  0  0  0  0
  -37.6416   55.3201   64.5869 C   0  0  0  0  0  0  0  0  0  0  0  0
  -38.5424   58.9601   65.6024 C   0  0  0  0  0  0  0  0  0  0  0  0
  -37.9593   55.4582   63.0851 C   0  0  0  0  0  0  0  0  0  0  0  0
  -39.0761   52.5737   58.9594 C   0  0  0  0  0  0  0  0  0  0  0  0
  -39.2824   53.3627   57.8200 C   0  0  0  0  0  0  0  0  0  0  0  0
  -40.0465   52.5186   59.9670 C   0  0  0  0  0  0  0  0  0  0  0  0
  -36.2253   58.7343   66.4557 C   0  0  0  0  0  0  0  0  0  0  0  0
  -37.3608   56.5401   65.4777 C   0  0  0  0  0  0  0  0  0  0  0  0
  -37.1973   59.6962   65.7588 C   0  0  0  0  0  0  0  0  0  0  0  0
  -38.1263   56.8452   62.4620 C   0  0  0  0  0  0  0  0  0  0  0  0
  -39.5380   56.9300   61.8820 C   0  0  0  0  0  0  0  0  0  0  0  0
  -40.5750   56.7430   62.9900 C   0  0  0  0  0  0  0  0  0  0  0  0
  -41.9730   56.8130   62.3910 C   0  0  0  0  0  0  0  0  0  0  0  0
  -42.1661   55.6996   61.3507 C   0  0  0  0  0  0  0  0  0  0  0  0
  -42.0124   54.2741   61.9416 C   0  0  0  0  0  0  0  0  0  0  0  0
  -42.1905   53.1560   60.8873 C   0  0  0  0  0  0  0  0  0  0  0  0
  -40.4705   54.0849   57.7105 C   0  0  0  0  0  0  0  0  0  0  0  0
  -41.4359   54.0194   58.7138 C   0  0  0  0  0  0  0  0  0  0  0  0
  -41.2545   53.2147   59.8458 C   0  0  0  0  0  0  0  0  0  0  0  0
  -40.7452   54.8730   56.6422 O   0  0  0  0  0  0  0  0  0  0  0  0
  -42.5862   54.7370   58.5598 O   0  0  0  0  0  0  0  0  0  0  0  0
  -36.0464   57.6323   68.2814 H   0  0  0  0  0  0  0  0  0  0  0  0
  -37.6885   57.8034   67.7094 H   0  0  0  0  0  0  0  0  0  0  0  0
  -36.8752   59.1613   68.4493 H   0  0  0  0  0  0  0  0  0  0  0  0
  -39.5395   56.9761   65.3214 H   0  0  0  0  0  0  0  0  0  0  0  0
  -37.6165   54.3780   65.0076 H   0  0  0  0  0  0  0  0  0  0  0  0
  -39.4169   59.5079   65.6006 H   0  0  0  0  0  0  0  0  0  0  0  0
  -38.0595   54.6144   62.4995 H   0  0  0  0  0  0  0  0  0  0  0  0
  -38.2041   52.0303   59.0563 H   0  0  0  0  0  0  0  0  0  0  0  0
  -38.5688   53.4085   57.0759 H   0  0  0  0  0  0  0  0  0  0  0  0
  -39.8680   51.9553   60.8131 H   0  0  0  0  0  0  0  0  0  0  0  0
  -36.0961   57.8668   65.8428 H   0  0  0  0  0  0  0  0  0  0  0  0
  -35.2951   59.2436   66.5981 H   0  0  0  0  0  0  0  0  0  0  0  0
  -37.1584   56.2237   66.4796 H   0  0  0  0  0  0  0  0  0  0  0  0
  -36.5084   57.0811   65.1234 H   0  0  0  0  0  0  0  0  0  0  0  0
  -37.3291   60.5765   66.3526 H   0  0  0  0  0  0  0  0  0  0  0  0
  -36.8158   59.9924   64.8040 H   0  0  0  0  0  0  0  0  0  0  0  0
  -37.4044   56.9844   61.6846 H   0  0  0  0  0  0  0  0  0  0  0  0
  -37.9789   57.6065   63.1994 H   0  0  0  0  0  0  0  0  0  0  0  0
  -39.6646   56.1636   61.1461 H   0  0  0  0  0  0  0  0  0  0  0  0
  -39.6747   57.8920   61.4340 H   0  0  0  0  0  0  0  0  0  0  0  0
  -40.4604   57.5164   63.7205 H   0  0  0  0  0  0  0  0  0  0  0  0
  -40.4329   55.7901   63.4556 H   0  0  0  0  0  0  0  0  0  0  0  0
  -42.1071   57.7638   61.9188 H   0  0  0  0  0  0  0  0  0  0  0  0
  -42.6924   56.6861   63.1729 H   0  0  0  0  0  0  0  0  0  0  0  0
  -41.4374   55.8271   60.5777 H   0  0  0  0  0  0  0  0  0  0  0  0
  -43.1664   55.7826   60.9800 H   0  0  0  0  0  0  0  0  0  0  0  0
  -42.7492   54.1414   62.7060 H   0  0  0  0  0  0  0  0  0  0  0  0
  -41.0169   54.1941   62.3254 H   0  0  0  0  0  0  0  0  0  0  0  0
  -43.1707   53.2403   60.4666 H   0  0  0  0  0  0  0  0  0  0  0  0
  -42.0432   52.2232   61.3902 H   0  0  0  0  0  0  0  0  0  0  0  0
  -40.1254   54.9476   55.9434 H   0  0  0  0  0  0  0  0  0  0  0  0
  -42.7052   55.2745   57.8016 H   0  0  0  0  0  0  0  0  0  0  0  0
  1  9  1  0  0  0  0
  1 24  1  0  0  0  0
  1 25  1  0  0  0  0
  1 26  1  0  0  0  0
  2  4  2  0  0  0  0
  2 10  1  0  0  0  0
  2 27  1  0  0  0  0
  3  5  2  0  0  0  0
  3 10  1  0  0  0  0
  3 28  1  0  0  0  0
  4 11  1  0  0  0  0
  4 29  1  0  0  0  0
  5 12  1  0  0  0  0
  5 30  1  0  0  0  0
  6  7  2  0  0  0  0
  6  8  1  0  0  0  0
  6 31  1  0  0  0  0
  7 19  1  0  0  0  0
  7 32  1  0  0  0  0
  8 21  2  0  0  0  0
  8 33  1  0  0  0  0
  9 11  1  0  0  0  0
  9 34  1  0  0  0  0
  9 35  1  0  0  0  0
 10 36  1  0  0  0  0
 10 37  1  0  0  0  0
 11 38  1  0  0  0  0
 11 39  1  0  0  0  0
 12 13  1  0  0  0  0
 12 40  1  0  0  0  0
 12 41  1  0  0  0  0
 13 14  1  0  0  0  0
 13 42  1  0  0  0  0
 13 43  1  0  0  0  0
 14 15  1  0  0  0  0
 14 44  1  0  0  0  0
 14 45  1  0  0  0  0
 15 16  1  0  0  0  0
 15 46  1  0  0  0  0
 15 47  1  0  0  0  0
 16 17  1  0  0  0  0
 16 48  1  0  0  0  0
 16 49  1  0  0  0  0
 17 18  1  0  0  0  0
 17 50  1  0  0  0  0
 17 51  1  0  0  0  0
 18 21  1  0  0  0  0
 18 52  1  0  0  0  0
 18 53  1  0  0  0  0
 19 20  2  0  0  0  0
 19 22  1  0  0  0  0
 20 21  1  0  0  0  0
 20 23  1  0  0  0  0
 22 54  1  0  0  0  0
 23 55  1  0  0  0  0
M  END
$$$$