/media/chris/experiments/cd1a-new-docking/inputs/ligands/5j1a_ligand.pdb
 OpenBabel07022311203D

 55 55  0  0  0  0  0  0  0  0999 V2000
  -38.7137   62.6897   58.1729 C   0  0  0  0  0  0  0  0  0  0  0  0
  -40.9176   59.2540   58.1673 C   0  0  0  0  0  0  0  0  0  0  0  0
  -41.5245   57.2724   59.5157 C   0  0  0  0  0  0  0  0  0  0  0  0
  -39.8390   60.0844   57.4312 C   0  0  0  0  0  0  0  0  0  0  0  0
  -41.1044   55.9720   60.2283 C   0  0  0  0  0  0  0  0  0  0  0  0
  -46.2153   59.7537   65.7814 C   0  0  0  0  0  0  0  0  0  0  0  0
  -45.3738   59.6686   66.8985 C   0  0  0  0  0  0  0  0  0  0  0  0
  -46.2610   58.7103   64.8491 C   0  0  0  0  0  0  0  0  0  0  0  0
  -38.3265   61.3962   58.8939 C   0  0  0  0  0  0  0  0  0  0  0  0
  -40.6180   58.5125   59.4782 C   0  0  0  0  0  0  0  0  0  0  0  0
  -38.3928   60.1841   57.9547 C   0  0  0  0  0  0  0  0  0  0  0  0
  -39.6997   55.8424   60.8202 C   0  0  0  0  0  0  0  0  0  0  0  0
  -39.5380   56.9300   61.8820 C   0  0  0  0  0  0  0  0  0  0  0  0
  -40.5750   56.7430   62.9900 C   0  0  0  0  0  0  0  0  0  0  0  0
  -41.9730   56.8130   62.3910 C   0  0  0  0  0  0  0  0  0  0  0  0
  -43.0346   56.6452   63.4882 C   0  0  0  0  0  0  0  0  0  0  0  0
  -44.4877   56.6885   62.9483 C   0  0  0  0  0  0  0  0  0  0  0  0
  -45.5541   56.5365   64.0586 C   0  0  0  0  0  0  0  0  0  0  0  0
  -44.5900   58.5267   67.0624 C   0  0  0  0  0  0  0  0  0  0  0  0
  -44.6462   57.4882   66.1344 C   0  0  0  0  0  0  0  0  0  0  0  0
  -45.5019   57.5483   65.0270 C   0  0  0  0  0  0  0  0  0  0  0  0
  -43.7488   58.3683   68.1136 O   0  0  0  0  0  0  0  0  0  0  0  0
  -43.8671   56.3870   66.3400 O   0  0  0  0  0  0  0  0  0  0  0  0
  -38.6559   63.5104   58.8570 H   0  0  0  0  0  0  0  0  0  0  0  0
  -39.7133   62.6051   57.8008 H   0  0  0  0  0  0  0  0  0  0  0  0
  -38.0424   62.8578   57.3567 H   0  0  0  0  0  0  0  0  0  0  0  0
  -41.8664   59.1969   57.7653 H   0  0  0  0  0  0  0  0  0  0  0  0
  -42.4439   57.3115   59.0487 H   0  0  0  0  0  0  0  0  0  0  0  0
  -40.0951   60.5853   56.5660 H   0  0  0  0  0  0  0  0  0  0  0  0
  -41.7712   55.1882   60.3063 H   0  0  0  0  0  0  0  0  0  0  0  0
  -46.8046   60.5899   65.6453 H   0  0  0  0  0  0  0  0  0  0  0  0
  -45.3347   60.4364   67.5870 H   0  0  0  0  0  0  0  0  0  0  0  0
  -46.8646   58.7997   64.0168 H   0  0  0  0  0  0  0  0  0  0  0  0
  -38.9992   61.2395   59.7111 H   0  0  0  0  0  0  0  0  0  0  0  0
  -37.3194   61.4955   59.2415 H   0  0  0  0  0  0  0  0  0  0  0  0
  -40.8288   59.1461   60.3143 H   0  0  0  0  0  0  0  0  0  0  0  0
  -39.5869   58.2311   59.5286 H   0  0  0  0  0  0  0  0  0  0  0  0
  -37.7163   60.3180   57.1366 H   0  0  0  0  0  0  0  0  0  0  0  0
  -38.1163   59.2896   58.4727 H   0  0  0  0  0  0  0  0  0  0  0  0
  -38.9673   55.9727   60.0511 H   0  0  0  0  0  0  0  0  0  0  0  0
  -39.5648   54.8736   61.2538 H   0  0  0  0  0  0  0  0  0  0  0  0
  -39.6739   57.8897   61.4288 H   0  0  0  0  0  0  0  0  0  0  0  0
  -38.5577   56.8621   62.3055 H   0  0  0  0  0  0  0  0  0  0  0  0
  -40.4604   57.5164   63.7205 H   0  0  0  0  0  0  0  0  0  0  0  0
  -40.4329   55.7901   63.4556 H   0  0  0  0  0  0  0  0  0  0  0  0
  -42.0864   56.0321   61.6683 H   0  0  0  0  0  0  0  0  0  0  0  0
  -42.1035   57.7672   61.9248 H   0  0  0  0  0  0  0  0  0  0  0  0
  -42.9137   57.4339   64.2011 H   0  0  0  0  0  0  0  0  0  0  0  0
  -42.8880   55.6799   63.9258 H   0  0  0  0  0  0  0  0  0  0  0  0
  -44.6131   55.8921   62.2447 H   0  0  0  0  0  0  0  0  0  0  0  0
  -44.6315   57.6484   62.4978 H   0  0  0  0  0  0  0  0  0  0  0  0
  -45.4053   55.5949   64.5444 H   0  0  0  0  0  0  0  0  0  0  0  0
  -46.5118   56.6028   63.5860 H   0  0  0  0  0  0  0  0  0  0  0  0
  -43.6780   59.0406   68.7625 H   0  0  0  0  0  0  0  0  0  0  0  0
  -43.2956   56.3493   67.0815 H   0  0  0  0  0  0  0  0  0  0  0  0
  1  9  1  0  0  0  0
  1 24  1  0  0  0  0
  1 25  1  0  0  0  0
  1 26  1  0  0  0  0
  2  4  2  0  0  0  0
  2 10  1  0  0  0  0
  2 27  1  0  0  0  0
  3  5  2  0  0  0  0
  3 10  1  0  0  0  0
  3 28  1  0  0  0  0
  4 11  1  0  0  0  0
  4 29  1  0  0  0  0
  5 12  1  0  0  0  0
  5 30  1  0  0  0  0
  6  7  2  0  0  0  0
  6  8  1  0  0  0  0
  6 31  1  0  0  0  0
  7 19  1  0  0  0  0
  7 32  1  0  0  0  0
  8 21  2  0  0  0  0
  8 33  1  0  0  0  0
  9 11  1  0  0  0  0
  9 34  1  0  0  0  0
  9 35  1  0  0  0  0
 10 36  1  0  0  0  0
 10 37  1  0  0  0  0
 11 38  1  0  0  0  0
 11 39  1  0  0  0  0
 12 13  1  0  0  0  0
 12 40  1  0  0  0  0
 12 41  1  0  0  0  0
 13 14  1  0  0  0  0
 13 42  1  0  0  0  0
 13 43  1  0  0  0  0
 14 15  1  0  0  0  0
 14 44  1  0  0  0  0
 14 45  1  0  0  0  0
 15 16  1  0  0  0  0
 15 46  1  0  0  0  0
 15 47  1  0  0  0  0
 16 17  1  0  0  0  0
 16 48  1  0  0  0  0
 16 49  1  0  0  0  0
 17 18  1  0  0  0  0
 17 50  1  0  0  0  0
 17 51  1  0  0  0  0
 18 21  1  0  0  0  0
 18 52  1  0  0  0  0
 18 53  1  0  0  0  0
 19 20  2  0  0  0  0
 19 22  1  0  0  0  0
 20 21  1  0  0  0  0
 20 23  1  0  0  0  0
 22 54  1  0  0  0  0
 23 55  1  0  0  0  0
M  END
$$$$