/media/chris/experiments/cd1a-new-docking/inputs/ligands/5j1a_ligand.pdb
 OpenBabel07022311203D

 55 55  0  0  0  0  0  0  0  0999 V2000
  -36.6409   60.7327   62.4292 C   0  0  0  0  0  0  0  0  0  0  0  0
  -35.8468   56.7935   65.4359 C   0  0  0  0  0  0  0  0  0  0  0  0
  -37.6416   55.3201   64.5869 C   0  0  0  0  0  0  0  0  0  0  0  0
  -35.2536   58.1271   64.9216 C   0  0  0  0  0  0  0  0  0  0  0  0
  -37.9593   55.4582   63.0851 C   0  0  0  0  0  0  0  0  0  0  0  0
  -46.4036   55.3397   62.3106 C   0  0  0  0  0  0  0  0  0  0  0  0
  -47.0891   54.2097   61.8455 C   0  0  0  0  0  0  0  0  0  0  0  0
  -45.0655   55.2407   62.7100 C   0  0  0  0  0  0  0  0  0  0  0  0
  -35.8101   59.5745   62.9869 C   0  0  0  0  0  0  0  0  0  0  0  0
  -37.3608   56.5401   65.4777 C   0  0  0  0  0  0  0  0  0  0  0  0
  -36.1518   59.2898   64.4558 C   0  0  0  0  0  0  0  0  0  0  0  0
  -38.1263   56.8452   62.4620 C   0  0  0  0  0  0  0  0  0  0  0  0
  -39.5380   56.9300   61.8820 C   0  0  0  0  0  0  0  0  0  0  0  0
  -40.5750   56.7430   62.9900 C   0  0  0  0  0  0  0  0  0  0  0  0
  -41.9730   56.8130   62.3910 C   0  0  0  0  0  0  0  0  0  0  0  0
  -42.1661   55.6996   61.3507 C   0  0  0  0  0  0  0  0  0  0  0  0
  -42.0124   54.2741   61.9416 C   0  0  0  0  0  0  0  0  0  0  0  0
  -43.0412   53.9624   63.0542 C   0  0  0  0  0  0  0  0  0  0  0  0
  -46.4121   52.9918   61.7860 C   0  0  0  0  0  0  0  0  0  0  0  0
  -45.0774   52.9019   62.1778 C   0  0  0  0  0  0  0  0  0  0  0  0
  -44.3722   54.0284   62.6201 C   0  0  0  0  0  0  0  0  0  0  0  0
  -47.0041   51.8526   61.3508 O   0  0  0  0  0  0  0  0  0  0  0  0
  -44.4535   51.6913   62.0949 O   0  0  0  0  0  0  0  0  0  0  0  0
  -36.3761   60.9016   61.4064 H   0  0  0  0  0  0  0  0  0  0  0  0
  -36.4467   61.6176   62.9987 H   0  0  0  0  0  0  0  0  0  0  0  0
  -37.6808   60.4888   62.4928 H   0  0  0  0  0  0  0  0  0  0  0  0
  -35.2060   56.0525   65.7604 H   0  0  0  0  0  0  0  0  0  0  0  0
  -37.6165   54.3780   65.0076 H   0  0  0  0  0  0  0  0  0  0  0  0
  -34.2285   58.2411   64.8897 H   0  0  0  0  0  0  0  0  0  0  0  0
  -38.0595   54.6144   62.4995 H   0  0  0  0  0  0  0  0  0  0  0  0
  -46.8877   56.2499   62.3590 H   0  0  0  0  0  0  0  0  0  0  0  0
  -48.0764   54.2773   61.5526 H   0  0  0  0  0  0  0  0  0  0  0  0
  -44.5823   56.0756   63.0768 H   0  0  0  0  0  0  0  0  0  0  0  0
  -34.7724   59.8249   62.9140 H   0  0  0  0  0  0  0  0  0  0  0  0
  -36.0327   58.6976   62.4155 H   0  0  0  0  0  0  0  0  0  0  0  0
  -37.8861   57.3946   65.1052 H   0  0  0  0  0  0  0  0  0  0  0  0
  -37.6888   56.3619   66.4805 H   0  0  0  0  0  0  0  0  0  0  0  0
  -35.9623   60.1590   65.0504 H   0  0  0  0  0  0  0  0  0  0  0  0
  -37.1854   59.0336   64.5602 H   0  0  0  0  0  0  0  0  0  0  0  0
  -37.4044   56.9844   61.6846 H   0  0  0  0  0  0  0  0  0  0  0  0
  -37.9789   57.6065   63.1994 H   0  0  0  0  0  0  0  0  0  0  0  0
  -39.6646   56.1636   61.1461 H   0  0  0  0  0  0  0  0  0  0  0  0
  -39.6747   57.8920   61.4340 H   0  0  0  0  0  0  0  0  0  0  0  0
  -40.4604   57.5164   63.7205 H   0  0  0  0  0  0  0  0  0  0  0  0
  -40.4329   55.7901   63.4556 H   0  0  0  0  0  0  0  0  0  0  0  0
  -42.1071   57.7638   61.9188 H   0  0  0  0  0  0  0  0  0  0  0  0
  -42.6924   56.6861   63.1729 H   0  0  0  0  0  0  0  0  0  0  0  0
  -41.4374   55.8271   60.5777 H   0  0  0  0  0  0  0  0  0  0  0  0
  -43.1664   55.7826   60.9800 H   0  0  0  0  0  0  0  0  0  0  0  0
  -41.0287   54.1800   62.3518 H   0  0  0  0  0  0  0  0  0  0  0  0
  -42.1837   53.5795   61.1459 H   0  0  0  0  0  0  0  0  0  0  0  0
  -42.9080   54.6694   63.8462 H   0  0  0  0  0  0  0  0  0  0  0  0
  -42.8641   52.9567   63.3735 H   0  0  0  0  0  0  0  0  0  0  0  0
  -47.9002   51.8653   61.0771 H   0  0  0  0  0  0  0  0  0  0  0  0
  -44.9275   50.9392   61.7987 H   0  0  0  0  0  0  0  0  0  0  0  0
  1  9  1  0  0  0  0
  1 24  1  0  0  0  0
  1 25  1  0  0  0  0
  1 26  1  0  0  0  0
  2  4  2  0  0  0  0
  2 10  1  0  0  0  0
  2 27  1  0  0  0  0
  3  5  2  0  0  0  0
  3 10  1  0  0  0  0
  3 28  1  0  0  0  0
  4 11  1  0  0  0  0
  4 29  1  0  0  0  0
  5 12  1  0  0  0  0
  5 30  1  0  0  0  0
  6  7  2  0  0  0  0
  6  8  1  0  0  0  0
  6 31  1  0  0  0  0
  7 19  1  0  0  0  0
  7 32  1  0  0  0  0
  8 21  2  0  0  0  0
  8 33  1  0  0  0  0
  9 11  1  0  0  0  0
  9 34  1  0  0  0  0
  9 35  1  0  0  0  0
 10 36  1  0  0  0  0
 10 37  1  0  0  0  0
 11 38  1  0  0  0  0
 11 39  1  0  0  0  0
 12 13  1  0  0  0  0
 12 40  1  0  0  0  0
 12 41  1  0  0  0  0
 13 14  1  0  0  0  0
 13 42  1  0  0  0  0
 13 43  1  0  0  0  0
 14 15  1  0  0  0  0
 14 44  1  0  0  0  0
 14 45  1  0  0  0  0
 15 16  1  0  0  0  0
 15 46  1  0  0  0  0
 15 47  1  0  0  0  0
 16 17  1  0  0  0  0
 16 48  1  0  0  0  0
 16 49  1  0  0  0  0
 17 18  1  0  0  0  0
 17 50  1  0  0  0  0
 17 51  1  0  0  0  0
 18 21  1  0  0  0  0
 18 52  1  0  0  0  0
 18 53  1  0  0  0  0
 19 20  2  0  0  0  0
 19 22  1  0  0  0  0
 20 21  1  0  0  0  0
 20 23  1  0  0  0  0
 22 54  1  0  0  0  0
 23 55  1  0  0  0  0
M  END
$$$$