/media/chris/experiments/cd1a-new-docking/inputs/ligands/5j1a_ligand.pdb
 OpenBabel07022311203D

 55 55  0  0  0  0  0  0  0  0999 V2000
  -37.4026   56.3103   66.1463 C   0  0  0  0  0  0  0  0  0  0  0  0
  -35.9016   58.8959   62.9299 C   0  0  0  0  0  0  0  0  0  0  0  0
  -38.1066   59.9462   62.5456 C   0  0  0  0  0  0  0  0  0  0  0  0
  -36.4180   58.3502   64.2827 C   0  0  0  0  0  0  0  0  0  0  0  0
  -39.5120   59.3667   62.2916 C   0  0  0  0  0  0  0  0  0  0  0  0
  -39.4328   52.1612   58.6156 C   0  0  0  0  0  0  0  0  0  0  0  0
  -39.2808   53.3032   57.8181 C   0  0  0  0  0  0  0  0  0  0  0  0
  -40.3978   52.1295   59.6292 C   0  0  0  0  0  0  0  0  0  0  0  0
  -38.0601   57.6865   66.0180 C   0  0  0  0  0  0  0  0  0  0  0  0
  -36.8575   59.3987   61.8382 C   0  0  0  0  0  0  0  0  0  0  0  0
  -37.9236   58.2475   64.5959 C   0  0  0  0  0  0  0  0  0  0  0  0
  -39.7162   58.2956   61.2187 C   0  0  0  0  0  0  0  0  0  0  0  0
  -39.5380   56.9300   61.8820 C   0  0  0  0  0  0  0  0  0  0  0  0
  -40.5750   56.7430   62.9900 C   0  0  0  0  0  0  0  0  0  0  0  0
  -41.9730   56.8130   62.3910 C   0  0  0  0  0  0  0  0  0  0  0  0
  -42.1661   55.6996   61.3507 C   0  0  0  0  0  0  0  0  0  0  0  0
  -42.0124   54.2741   61.9416 C   0  0  0  0  0  0  0  0  0  0  0  0
  -42.1905   53.1560   60.8873 C   0  0  0  0  0  0  0  0  0  0  0  0
  -40.1098   54.4001   58.0524 C   0  0  0  0  0  0  0  0  0  0  0  0
  -41.0739   54.3589   59.0582 C   0  0  0  0  0  0  0  0  0  0  0  0
  -41.2545   53.2147   59.8458 C   0  0  0  0  0  0  0  0  0  0  0  0
  -40.0247   55.5424   57.3274 O   0  0  0  0  0  0  0  0  0  0  0  0
  -41.8676   55.4528   59.2460 O   0  0  0  0  0  0  0  0  0  0  0  0
  -37.5174   55.9521   67.1481 H   0  0  0  0  0  0  0  0  0  0  0  0
  -36.3613   56.3893   65.9130 H   0  0  0  0  0  0  0  0  0  0  0  0
  -37.8693   55.6273   65.4677 H   0  0  0  0  0  0  0  0  0  0  0  0
  -34.8847   58.9228   62.7561 H   0  0  0  0  0  0  0  0  0  0  0  0
  -38.0013   60.7270   63.2122 H   0  0  0  0  0  0  0  0  0  0  0  0
  -35.7355   58.0466   64.9948 H   0  0  0  0  0  0  0  0  0  0  0  0
  -40.3157   59.7014   62.8457 H   0  0  0  0  0  0  0  0  0  0  0  0
  -38.8301   51.3390   58.4548 H   0  0  0  0  0  0  0  0  0  0  0  0
  -38.5689   53.3322   57.0715 H   0  0  0  0  0  0  0  0  0  0  0  0
  -40.4789   51.2919   60.2267 H   0  0  0  0  0  0  0  0  0  0  0  0
  -37.5910   58.3607   66.7037 H   0  0  0  0  0  0  0  0  0  0  0  0
  -39.1020   57.5813   66.2377 H   0  0  0  0  0  0  0  0  0  0  0  0
  -37.1278   58.5930   61.1881 H   0  0  0  0  0  0  0  0  0  0  0  0
  -36.3921   60.1589   61.2462 H   0  0  0  0  0  0  0  0  0  0  0  0
  -38.3986   57.5913   63.8968 H   0  0  0  0  0  0  0  0  0  0  0  0
  -38.3909   59.2073   64.5223 H   0  0  0  0  0  0  0  0  0  0  0  0
  -38.9937   58.4187   60.4392 H   0  0  0  0  0  0  0  0  0  0  0  0
  -40.6929   58.3780   60.7895 H   0  0  0  0  0  0  0  0  0  0  0  0
  -38.5560   56.8665   62.3023 H   0  0  0  0  0  0  0  0  0  0  0  0
  -39.6703   56.1642   61.1465 H   0  0  0  0  0  0  0  0  0  0  0  0
  -40.4604   57.5164   63.7205 H   0  0  0  0  0  0  0  0  0  0  0  0
  -40.4329   55.7901   63.4556 H   0  0  0  0  0  0  0  0  0  0  0  0
  -42.1071   57.7638   61.9188 H   0  0  0  0  0  0  0  0  0  0  0  0
  -42.6924   56.6861   63.1729 H   0  0  0  0  0  0  0  0  0  0  0  0
  -41.4374   55.8271   60.5777 H   0  0  0  0  0  0  0  0  0  0  0  0
  -43.1664   55.7826   60.9800 H   0  0  0  0  0  0  0  0  0  0  0  0
  -42.7492   54.1414   62.7060 H   0  0  0  0  0  0  0  0  0  0  0  0
  -41.0169   54.1941   62.3254 H   0  0  0  0  0  0  0  0  0  0  0  0
  -43.1707   53.2403   60.4666 H   0  0  0  0  0  0  0  0  0  0  0  0
  -42.0432   52.2232   61.3902 H   0  0  0  0  0  0  0  0  0  0  0  0
  -39.3912   55.6154   56.6409 H   0  0  0  0  0  0  0  0  0  0  0  0
  -41.7448   56.2169   58.7179 H   0  0  0  0  0  0  0  0  0  0  0  0
  1  9  1  0  0  0  0
  1 24  1  0  0  0  0
  1 25  1  0  0  0  0
  1 26  1  0  0  0  0
  2  4  2  0  0  0  0
  2 10  1  0  0  0  0
  2 27  1  0  0  0  0
  3  5  2  0  0  0  0
  3 10  1  0  0  0  0
  3 28  1  0  0  0  0
  4 11  1  0  0  0  0
  4 29  1  0  0  0  0
  5 12  1  0  0  0  0
  5 30  1  0  0  0  0
  6  7  2  0  0  0  0
  6  8  1  0  0  0  0
  6 31  1  0  0  0  0
  7 19  1  0  0  0  0
  7 32  1  0  0  0  0
  8 21  2  0  0  0  0
  8 33  1  0  0  0  0
  9 11  1  0  0  0  0
  9 34  1  0  0  0  0
  9 35  1  0  0  0  0
 10 36  1  0  0  0  0
 10 37  1  0  0  0  0
 11 38  1  0  0  0  0
 11 39  1  0  0  0  0
 12 13  1  0  0  0  0
 12 40  1  0  0  0  0
 12 41  1  0  0  0  0
 13 14  1  0  0  0  0
 13 42  1  0  0  0  0
 13 43  1  0  0  0  0
 14 15  1  0  0  0  0
 14 44  1  0  0  0  0
 14 45  1  0  0  0  0
 15 16  1  0  0  0  0
 15 46  1  0  0  0  0
 15 47  1  0  0  0  0
 16 17  1  0  0  0  0
 16 48  1  0  0  0  0
 16 49  1  0  0  0  0
 17 18  1  0  0  0  0
 17 50  1  0  0  0  0
 17 51  1  0  0  0  0
 18 21  1  0  0  0  0
 18 52  1  0  0  0  0
 18 53  1  0  0  0  0
 19 20  2  0  0  0  0
 19 22  1  0  0  0  0
 20 21  1  0  0  0  0
 20 23  1  0  0  0  0
 22 54  1  0  0  0  0
 23 55  1  0  0  0  0
M  END
$$$$