/media/chris/experiments/cd1a-new-docking/inputs/ligands/5j1a_ligand.pdb
 OpenBabel07022311203D

 55 55  0  0  0  0  0  0  0  0999 V2000
  -34.4649   52.4797   61.3522 C   0  0  0  0  0  0  0  0  0  0  0  0
  -35.4737   56.8137   62.4502 C   0  0  0  0  0  0  0  0  0  0  0  0
  -36.6334   55.0749   63.7710 C   0  0  0  0  0  0  0  0  0  0  0  0
  -34.8122   56.3216   61.1406 C   0  0  0  0  0  0  0  0  0  0  0  0
  -37.9593   55.4582   63.0851 C   0  0  0  0  0  0  0  0  0  0  0  0
  -44.0691   52.8445   64.3389 C   0  0  0  0  0  0  0  0  0  0  0  0
  -44.2364   51.6989   63.5497 C   0  0  0  0  0  0  0  0  0  0  0  0
  -44.2527   54.1175   63.7860 C   0  0  0  0  0  0  0  0  0  0  0  0
  -35.1007   53.8715   61.3887 C   0  0  0  0  0  0  0  0  0  0  0  0
  -35.4064   55.9994   63.7504 C   0  0  0  0  0  0  0  0  0  0  0  0
  -34.0790   54.9684   61.0594 C   0  0  0  0  0  0  0  0  0  0  0  0
  -38.1263   56.8452   62.4620 C   0  0  0  0  0  0  0  0  0  0  0  0
  -39.5380   56.9300   61.8820 C   0  0  0  0  0  0  0  0  0  0  0  0
  -40.5750   56.7430   62.9900 C   0  0  0  0  0  0  0  0  0  0  0  0
  -41.9730   56.8130   62.3910 C   0  0  0  0  0  0  0  0  0  0  0  0
  -43.0346   56.6452   63.4882 C   0  0  0  0  0  0  0  0  0  0  0  0
  -44.4877   56.6885   62.9483 C   0  0  0  0  0  0  0  0  0  0  0  0
  -44.7906   55.5673   61.9262 C   0  0  0  0  0  0  0  0  0  0  0  0
  -44.5916   51.8534   62.2098 C   0  0  0  0  0  0  0  0  0  0  0  0
  -44.7806   53.1236   61.6677 C   0  0  0  0  0  0  0  0  0  0  0  0
  -44.6421   54.2764   62.4512 C   0  0  0  0  0  0  0  0  0  0  0  0
  -44.7700   50.7967   61.3796 O   0  0  0  0  0  0  0  0  0  0  0  0
  -45.1352   53.2258   60.3541 O   0  0  0  0  0  0  0  0  0  0  0  0
  -35.2051   51.7432   61.5860 H   0  0  0  0  0  0  0  0  0  0  0  0
  -33.6733   52.4302   62.0703 H   0  0  0  0  0  0  0  0  0  0  0  0
  -34.0719   52.2926   60.3747 H   0  0  0  0  0  0  0  0  0  0  0  0
  -35.9749   57.7159   62.4497 H   0  0  0  0  0  0  0  0  0  0  0  0
  -36.5676   54.1683   64.2597 H   0  0  0  0  0  0  0  0  0  0  0  0
  -34.8635   56.9159   60.2984 H   0  0  0  0  0  0  0  0  0  0  0  0
  -38.7350   54.7786   63.0462 H   0  0  0  0  0  0  0  0  0  0  0  0
  -43.8091   52.7494   65.3331 H   0  0  0  0  0  0  0  0  0  0  0  0
  -44.0995   50.7585   63.9522 H   0  0  0  0  0  0  0  0  0  0  0  0
  -44.0984   54.9525   64.3724 H   0  0  0  0  0  0  0  0  0  0  0  0
  -35.4956   54.0473   62.3675 H   0  0  0  0  0  0  0  0  0  0  0  0
  -35.8762   53.9045   60.6521 H   0  0  0  0  0  0  0  0  0  0  0  0
  -35.4275   56.6555   64.5954 H   0  0  0  0  0  0  0  0  0  0  0  0
  -34.5013   55.4307   63.7962 H   0  0  0  0  0  0  0  0  0  0  0  0
  -33.2763   54.9445   61.7665 H   0  0  0  0  0  0  0  0  0  0  0  0
  -33.6673   54.8201   60.0830 H   0  0  0  0  0  0  0  0  0  0  0  0
  -37.4044   56.9844   61.6846 H   0  0  0  0  0  0  0  0  0  0  0  0
  -37.9789   57.6065   63.1994 H   0  0  0  0  0  0  0  0  0  0  0  0
  -39.6646   56.1636   61.1461 H   0  0  0  0  0  0  0  0  0  0  0  0
  -39.6747   57.8920   61.4340 H   0  0  0  0  0  0  0  0  0  0  0  0
  -40.4604   57.5164   63.7205 H   0  0  0  0  0  0  0  0  0  0  0  0
  -40.4329   55.7901   63.4556 H   0  0  0  0  0  0  0  0  0  0  0  0
  -42.0864   56.0321   61.6683 H   0  0  0  0  0  0  0  0  0  0  0  0
  -42.1035   57.7672   61.9248 H   0  0  0  0  0  0  0  0  0  0  0  0
  -42.9137   57.4339   64.2011 H   0  0  0  0  0  0  0  0  0  0  0  0
  -42.8880   55.6799   63.9258 H   0  0  0  0  0  0  0  0  0  0  0  0
  -44.6460   57.6340   62.4730 H   0  0  0  0  0  0  0  0  0  0  0  0
  -45.1418   56.5440   63.7826 H   0  0  0  0  0  0  0  0  0  0  0  0
  -44.1221   55.6748   61.0977 H   0  0  0  0  0  0  0  0  0  0  0  0
  -45.8154   55.6734   61.6376 H   0  0  0  0  0  0  0  0  0  0  0  0
  -44.6538   49.9241   61.7003 H   0  0  0  0  0  0  0  0  0  0  0  0
  -45.2272   52.4531   59.8321 H   0  0  0  0  0  0  0  0  0  0  0  0
  1  9  1  0  0  0  0
  1 24  1  0  0  0  0
  1 25  1  0  0  0  0
  1 26  1  0  0  0  0
  2  4  2  0  0  0  0
  2 10  1  0  0  0  0
  2 27  1  0  0  0  0
  3  5  2  0  0  0  0
  3 10  1  0  0  0  0
  3 28  1  0  0  0  0
  4 11  1  0  0  0  0
  4 29  1  0  0  0  0
  5 12  1  0  0  0  0
  5 30  1  0  0  0  0
  6  7  2  0  0  0  0
  6  8  1  0  0  0  0
  6 31  1  0  0  0  0
  7 19  1  0  0  0  0
  7 32  1  0  0  0  0
  8 21  2  0  0  0  0
  8 33  1  0  0  0  0
  9 11  1  0  0  0  0
  9 34  1  0  0  0  0
  9 35  1  0  0  0  0
 10 36  1  0  0  0  0
 10 37  1  0  0  0  0
 11 38  1  0  0  0  0
 11 39  1  0  0  0  0
 12 13  1  0  0  0  0
 12 40  1  0  0  0  0
 12 41  1  0  0  0  0
 13 14  1  0  0  0  0
 13 42  1  0  0  0  0
 13 43  1  0  0  0  0
 14 15  1  0  0  0  0
 14 44  1  0  0  0  0
 14 45  1  0  0  0  0
 15 16  1  0  0  0  0
 15 46  1  0  0  0  0
 15 47  1  0  0  0  0
 16 17  1  0  0  0  0
 16 48  1  0  0  0  0
 16 49  1  0  0  0  0
 17 18  1  0  0  0  0
 17 50  1  0  0  0  0
 17 51  1  0  0  0  0
 18 21  1  0  0  0  0
 18 52  1  0  0  0  0
 18 53  1  0  0  0  0
 19 20  2  0  0  0  0
 19 22  1  0  0  0  0
 20 21  1  0  0  0  0
 20 23  1  0  0  0  0
 22 54  1  0  0  0  0
 23 55  1  0  0  0  0
M  END
$$$$