/media/chris/experiments/cd1a-new-docking/inputs/ligands/5j1a_ligand.pdb
 OpenBabel07022311203D

 55 55  0  0  0  0  0  0  0  0999 V2000
  -45.2025   60.9426   60.1616 C   0  0  0  0  0  0  0  0  0  0  0  0
  -40.9176   59.2540   58.1673 C   0  0  0  0  0  0  0  0  0  0  0  0
  -41.5245   57.2724   59.5157 C   0  0  0  0  0  0  0  0  0  0  0  0
  -42.0027   60.3538   58.0781 C   0  0  0  0  0  0  0  0  0  0  0  0
  -41.1044   55.9720   60.2283 C   0  0  0  0  0  0  0  0  0  0  0  0
  -46.5942   53.2540   62.5595 C   0  0  0  0  0  0  0  0  0  0  0  0
  -46.7454   53.7903   61.2739 C   0  0  0  0  0  0  0  0  0  0  0  0
  -45.3669   53.3499   63.2262 C   0  0  0  0  0  0  0  0  0  0  0  0
  -44.2982   60.5235   58.9999 C   0  0  0  0  0  0  0  0  0  0  0  0
  -40.6180   58.5125   59.4782 C   0  0  0  0  0  0  0  0  0  0  0  0
  -42.8191   60.7915   59.3100 C   0  0  0  0  0  0  0  0  0  0  0  0
  -39.6997   55.8424   60.8202 C   0  0  0  0  0  0  0  0  0  0  0  0
  -39.5380   56.9300   61.8820 C   0  0  0  0  0  0  0  0  0  0  0  0
  -40.5750   56.7430   62.9900 C   0  0  0  0  0  0  0  0  0  0  0  0
  -41.9730   56.8130   62.3910 C   0  0  0  0  0  0  0  0  0  0  0  0
  -43.0346   56.6452   63.4882 C   0  0  0  0  0  0  0  0  0  0  0  0
  -42.9202   55.3008   64.2526 C   0  0  0  0  0  0  0  0  0  0  0  0
  -43.0586   54.0644   63.3331 C   0  0  0  0  0  0  0  0  0  0  0  0
  -45.6538   54.4214   60.6778 C   0  0  0  0  0  0  0  0  0  0  0  0
  -44.4369   54.5203   61.3504 C   0  0  0  0  0  0  0  0  0  0  0  0
  -44.2789   54.0118   62.6460 C   0  0  0  0  0  0  0  0  0  0  0  0
  -45.7172   54.9633   59.4368 O   0  0  0  0  0  0  0  0  0  0  0  0
  -43.3989   55.1533   60.7309 O   0  0  0  0  0  0  0  0  0  0  0  0
  -46.2228   60.7414   59.9098 H   0  0  0  0  0  0  0  0  0  0  0  0
  -45.0809   61.9891   60.3485 H   0  0  0  0  0  0  0  0  0  0  0  0
  -44.9359   60.3904   61.0384 H   0  0  0  0  0  0  0  0  0  0  0  0
  -40.3795   59.0118   57.3207 H   0  0  0  0  0  0  0  0  0  0  0  0
  -42.4439   57.3115   59.0487 H   0  0  0  0  0  0  0  0  0  0  0  0
  -42.1846   60.8067   57.1688 H   0  0  0  0  0  0  0  0  0  0  0  0
  -41.7712   55.1882   60.3063 H   0  0  0  0  0  0  0  0  0  0  0  0
  -47.3918   52.7859   63.0174 H   0  0  0  0  0  0  0  0  0  0  0  0
  -47.6474   53.7196   60.7775 H   0  0  0  0  0  0  0  0  0  0  0  0
  -45.2627   52.9254   64.1611 H   0  0  0  0  0  0  0  0  0  0  0  0
  -44.5757   61.0764   58.1269 H   0  0  0  0  0  0  0  0  0  0  0  0
  -44.4219   59.4724   58.8420 H   0  0  0  0  0  0  0  0  0  0  0  0
  -40.8288   59.1461   60.3143 H   0  0  0  0  0  0  0  0  0  0  0  0
  -39.5869   58.2311   59.5286 H   0  0  0  0  0  0  0  0  0  0  0  0
  -42.6679   61.8340   59.4973 H   0  0  0  0  0  0  0  0  0  0  0  0
  -42.5112   60.2488   60.1792 H   0  0  0  0  0  0  0  0  0  0  0  0
  -38.9673   55.9727   60.0511 H   0  0  0  0  0  0  0  0  0  0  0  0
  -39.5648   54.8736   61.2538 H   0  0  0  0  0  0  0  0  0  0  0  0
  -39.6739   57.8897   61.4288 H   0  0  0  0  0  0  0  0  0  0  0  0
  -38.5577   56.8621   62.3055 H   0  0  0  0  0  0  0  0  0  0  0  0
  -40.4604   57.5164   63.7205 H   0  0  0  0  0  0  0  0  0  0  0  0
  -40.4329   55.7901   63.4556 H   0  0  0  0  0  0  0  0  0  0  0  0
  -42.0864   56.0321   61.6683 H   0  0  0  0  0  0  0  0  0  0  0  0
  -42.1035   57.7672   61.9248 H   0  0  0  0  0  0  0  0  0  0  0  0
  -44.0025   56.6968   63.0349 H   0  0  0  0  0  0  0  0  0  0  0  0
  -42.8805   57.4287   64.2005 H   0  0  0  0  0  0  0  0  0  0  0  0
  -43.6926   55.2631   64.9921 H   0  0  0  0  0  0  0  0  0  0  0  0
  -41.9441   55.2650   64.6895 H   0  0  0  0  0  0  0  0  0  0  0  0
  -42.9704   53.1837   63.9344 H   0  0  0  0  0  0  0  0  0  0  0  0
  -42.2856   54.1323   62.5964 H   0  0  0  0  0  0  0  0  0  0  0  0
  -46.5150   54.9206   58.9471 H   0  0  0  0  0  0  0  0  0  0  0  0
  -43.5072   55.4926   59.8642 H   0  0  0  0  0  0  0  0  0  0  0  0
  1  9  1  0  0  0  0
  1 24  1  0  0  0  0
  1 25  1  0  0  0  0
  1 26  1  0  0  0  0
  2  4  2  0  0  0  0
  2 10  1  0  0  0  0
  2 27  1  0  0  0  0
  3  5  2  0  0  0  0
  3 10  1  0  0  0  0
  3 28  1  0  0  0  0
  4 11  1  0  0  0  0
  4 29  1  0  0  0  0
  5 12  1  0  0  0  0
  5 30  1  0  0  0  0
  6  7  2  0  0  0  0
  6  8  1  0  0  0  0
  6 31  1  0  0  0  0
  7 19  1  0  0  0  0
  7 32  1  0  0  0  0
  8 21  2  0  0  0  0
  8 33  1  0  0  0  0
  9 11  1  0  0  0  0
  9 34  1  0  0  0  0
  9 35  1  0  0  0  0
 10 36  1  0  0  0  0
 10 37  1  0  0  0  0
 11 38  1  0  0  0  0
 11 39  1  0  0  0  0
 12 13  1  0  0  0  0
 12 40  1  0  0  0  0
 12 41  1  0  0  0  0
 13 14  1  0  0  0  0
 13 42  1  0  0  0  0
 13 43  1  0  0  0  0
 14 15  1  0  0  0  0
 14 44  1  0  0  0  0
 14 45  1  0  0  0  0
 15 16  1  0  0  0  0
 15 46  1  0  0  0  0
 15 47  1  0  0  0  0
 16 17  1  0  0  0  0
 16 48  1  0  0  0  0
 16 49  1  0  0  0  0
 17 18  1  0  0  0  0
 17 50  1  0  0  0  0
 17 51  1  0  0  0  0
 18 21  1  0  0  0  0
 18 52  1  0  0  0  0
 18 53  1  0  0  0  0
 19 20  2  0  0  0  0
 19 22  1  0  0  0  0
 20 21  1  0  0  0  0
 20 23  1  0  0  0  0
 22 54  1  0  0  0  0
 23 55  1  0  0  0  0
M  END
$$$$