/media/chris/experiments/cd1a-new-docking/inputs/ligands/5j1a_ligand.pdb
 OpenBabel07022311203D

 55 55  0  0  0  0  0  0  0  0999 V2000
  -37.5108   62.8991   64.0064 C   0  0  0  0  0  0  0  0  0  0  0  0
  -41.8382   61.8259   61.7021 C   0  0  0  0  0  0  0  0  0  0  0  0
  -42.1174   59.4370   61.1292 C   0  0  0  0  0  0  0  0  0  0  0  0
  -40.6101   62.7674   61.7036 C   0  0  0  0  0  0  0  0  0  0  0  0
  -41.1327   58.3550   60.6442 C   0  0  0  0  0  0  0  0  0  0  0  0
  -38.9248   53.1769   59.1293 C   0  0  0  0  0  0  0  0  0  0  0  0
  -39.3057   53.4144   57.8019 C   0  0  0  0  0  0  0  0  0  0  0  0
  -39.8911   53.0975   60.1392 C   0  0  0  0  0  0  0  0  0  0  0  0
  -38.8723   63.2542   63.4038 C   0  0  0  0  0  0  0  0  0  0  0  0
  -41.7713   60.4021   62.2735 C   0  0  0  0  0  0  0  0  0  0  0  0
  -39.2404   62.3154   62.2468 C   0  0  0  0  0  0  0  0  0  0  0  0
  -39.7162   58.2956   61.2187 C   0  0  0  0  0  0  0  0  0  0  0  0
  -39.5380   56.9300   61.8820 C   0  0  0  0  0  0  0  0  0  0  0  0
  -40.5750   56.7430   62.9900 C   0  0  0  0  0  0  0  0  0  0  0  0
  -41.9730   56.8130   62.3910 C   0  0  0  0  0  0  0  0  0  0  0  0
  -42.1661   55.6996   61.3507 C   0  0  0  0  0  0  0  0  0  0  0  0
  -42.0124   54.2741   61.9416 C   0  0  0  0  0  0  0  0  0  0  0  0
  -42.1905   53.1560   60.8873 C   0  0  0  0  0  0  0  0  0  0  0  0
  -40.6611   53.5654   57.5099 C   0  0  0  0  0  0  0  0  0  0  0  0
  -41.6186   53.4774   58.5190 C   0  0  0  0  0  0  0  0  0  0  0  0
  -41.2545   53.2147   59.8458 C   0  0  0  0  0  0  0  0  0  0  0  0
  -41.1111   53.8000   56.2528 O   0  0  0  0  0  0  0  0  0  0  0  0
  -42.9335   53.6240   58.1851 O   0  0  0  0  0  0  0  0  0  0  0  0
  -37.2887   63.5728   64.8075 H   0  0  0  0  0  0  0  0  0  0  0  0
  -36.7554   62.9796   63.2529 H   0  0  0  0  0  0  0  0  0  0  0  0
  -37.5366   61.8968   64.3800 H   0  0  0  0  0  0  0  0  0  0  0  0
  -42.7286   62.1648   61.3053 H   0  0  0  0  0  0  0  0  0  0  0  0
  -43.0386   59.5157   60.6707 H   0  0  0  0  0  0  0  0  0  0  0  0
  -40.7111   63.7244   61.3306 H   0  0  0  0  0  0  0  0  0  0  0  0
  -41.4292   57.6701   59.9314 H   0  0  0  0  0  0  0  0  0  0  0  0
  -37.9266   53.0598   59.3637 H   0  0  0  0  0  0  0  0  0  0  0  0
  -38.5968   53.4764   57.0546 H   0  0  0  0  0  0  0  0  0  0  0  0
  -39.5931   52.9502   61.1162 H   0  0  0  0  0  0  0  0  0  0  0  0
  -38.8387   64.2593   63.0382 H   0  0  0  0  0  0  0  0  0  0  0  0
  -39.6139   63.1501   64.1681 H   0  0  0  0  0  0  0  0  0  0  0  0
  -42.4766   60.2934   63.0708 H   0  0  0  0  0  0  0  0  0  0  0  0
  -40.7969   60.1947   62.6639 H   0  0  0  0  0  0  0  0  0  0  0  0
  -38.5020   62.3792   61.4751 H   0  0  0  0  0  0  0  0  0  0  0  0
  -39.2839   61.3006   62.5832 H   0  0  0  0  0  0  0  0  0  0  0  0
  -39.5844   59.0720   61.9431 H   0  0  0  0  0  0  0  0  0  0  0  0
  -38.9922   58.4316   60.4428 H   0  0  0  0  0  0  0  0  0  0  0  0
  -38.5560   56.8665   62.3023 H   0  0  0  0  0  0  0  0  0  0  0  0
  -39.6703   56.1642   61.1465 H   0  0  0  0  0  0  0  0  0  0  0  0
  -40.4604   57.5164   63.7205 H   0  0  0  0  0  0  0  0  0  0  0  0
  -40.4329   55.7901   63.4556 H   0  0  0  0  0  0  0  0  0  0  0  0
  -42.1071   57.7638   61.9188 H   0  0  0  0  0  0  0  0  0  0  0  0
  -42.6924   56.6861   63.1729 H   0  0  0  0  0  0  0  0  0  0  0  0
  -41.4374   55.8271   60.5777 H   0  0  0  0  0  0  0  0  0  0  0  0
  -43.1664   55.7826   60.9800 H   0  0  0  0  0  0  0  0  0  0  0  0
  -42.7492   54.1414   62.7060 H   0  0  0  0  0  0  0  0  0  0  0  0
  -41.0169   54.1941   62.3254 H   0  0  0  0  0  0  0  0  0  0  0  0
  -43.1707   53.2403   60.4666 H   0  0  0  0  0  0  0  0  0  0  0  0
  -42.0432   52.2232   61.3902 H   0  0  0  0  0  0  0  0  0  0  0  0
  -40.5036   53.8669   55.5426 H   0  0  0  0  0  0  0  0  0  0  0  0
  -43.1744   53.7998   57.2968 H   0  0  0  0  0  0  0  0  0  0  0  0
  1  9  1  0  0  0  0
  1 24  1  0  0  0  0
  1 25  1  0  0  0  0
  1 26  1  0  0  0  0
  2  4  2  0  0  0  0
  2 10  1  0  0  0  0
  2 27  1  0  0  0  0
  3  5  2  0  0  0  0
  3 10  1  0  0  0  0
  3 28  1  0  0  0  0
  4 11  1  0  0  0  0
  4 29  1  0  0  0  0
  5 12  1  0  0  0  0
  5 30  1  0  0  0  0
  6  7  2  0  0  0  0
  6  8  1  0  0  0  0
  6 31  1  0  0  0  0
  7 19  1  0  0  0  0
  7 32  1  0  0  0  0
  8 21  2  0  0  0  0
  8 33  1  0  0  0  0
  9 11  1  0  0  0  0
  9 34  1  0  0  0  0
  9 35  1  0  0  0  0
 10 36  1  0  0  0  0
 10 37  1  0  0  0  0
 11 38  1  0  0  0  0
 11 39  1  0  0  0  0
 12 13  1  0  0  0  0
 12 40  1  0  0  0  0
 12 41  1  0  0  0  0
 13 14  1  0  0  0  0
 13 42  1  0  0  0  0
 13 43  1  0  0  0  0
 14 15  1  0  0  0  0
 14 44  1  0  0  0  0
 14 45  1  0  0  0  0
 15 16  1  0  0  0  0
 15 46  1  0  0  0  0
 15 47  1  0  0  0  0
 16 17  1  0  0  0  0
 16 48  1  0  0  0  0
 16 49  1  0  0  0  0
 17 18  1  0  0  0  0
 17 50  1  0  0  0  0
 17 51  1  0  0  0  0
 18 21  1  0  0  0  0
 18 52  1  0  0  0  0
 18 53  1  0  0  0  0
 19 20  2  0  0  0  0
 19 22  1  0  0  0  0
 20 21  1  0  0  0  0
 20 23  1  0  0  0  0
 22 54  1  0  0  0  0
 23 55  1  0  0  0  0
M  END
$$$$