/media/chris/experiments/cd1a-new-docking/inputs/ligands/5j1a_ligand.pdb
 OpenBabel07022311203D

 55 55  0  0  0  0  0  0  0  0999 V2000
  -34.4036   56.5676   61.9202 C   0  0  0  0  0  0  0  0  0  0  0  0
  -36.8269   60.1725   62.4153 C   0  0  0  0  0  0  0  0  0  0  0  0
  -37.6248   59.5521   60.1588 C   0  0  0  0  0  0  0  0  0  0  0  0
  -35.6237   59.2166   62.2323 C   0  0  0  0  0  0  0  0  0  0  0  0
  -38.6676   58.4181   60.1118 C   0  0  0  0  0  0  0  0  0  0  0  0
  -40.8881   58.3134   58.1039 C   0  0  0  0  0  0  0  0  0  0  0  0
  -41.1463   57.9030   56.7894 C   0  0  0  0  0  0  0  0  0  0  0  0
  -41.7968   58.0206   59.1279 C   0  0  0  0  0  0  0  0  0  0  0  0
  -35.2852   57.1948   60.8376 C   0  0  0  0  0  0  0  0  0  0  0  0
  -37.6679   60.6573   61.2253 C   0  0  0  0  0  0  0  0  0  0  0  0
  -35.1802   58.7260   60.8402 C   0  0  0  0  0  0  0  0  0  0  0  0
  -39.7162   58.2956   61.2187 C   0  0  0  0  0  0  0  0  0  0  0  0
  -39.5380   56.9300   61.8820 C   0  0  0  0  0  0  0  0  0  0  0  0
  -40.5750   56.7430   62.9900 C   0  0  0  0  0  0  0  0  0  0  0  0
  -41.9730   56.8130   62.3910 C   0  0  0  0  0  0  0  0  0  0  0  0
  -42.1661   55.6996   61.3507 C   0  0  0  0  0  0  0  0  0  0  0  0
  -43.5658   55.7191   60.6834 C   0  0  0  0  0  0  0  0  0  0  0  0
  -43.8575   57.0325   59.9198 C   0  0  0  0  0  0  0  0  0  0  0  0
  -42.3199   57.1970   56.5254 C   0  0  0  0  0  0  0  0  0  0  0  0
  -43.2165   56.9020   57.5511 C   0  0  0  0  0  0  0  0  0  0  0  0
  -42.9588   57.2833   58.8740 C   0  0  0  0  0  0  0  0  0  0  0  0
  -42.6442   56.7671   55.2814 O   0  0  0  0  0  0  0  0  0  0  0  0
  -44.3478   56.2023   57.2471 O   0  0  0  0  0  0  0  0  0  0  0  0
  -34.5025   55.5026   61.8881 H   0  0  0  0  0  0  0  0  0  0  0  0
  -34.7098   56.9253   62.8810 H   0  0  0  0  0  0  0  0  0  0  0  0
  -33.3822   56.8362   61.7484 H   0  0  0  0  0  0  0  0  0  0  0  0
  -37.0713   60.4937   63.3651 H   0  0  0  0  0  0  0  0  0  0  0  0
  -36.8736   59.5696   59.4514 H   0  0  0  0  0  0  0  0  0  0  0  0
  -35.1040   58.8990   63.0654 H   0  0  0  0  0  0  0  0  0  0  0  0
  -38.6584   57.7411   59.3329 H   0  0  0  0  0  0  0  0  0  0  0  0
  -40.0235   58.8344   58.3185 H   0  0  0  0  0  0  0  0  0  0  0  0
  -40.4808   58.1189   56.0308 H   0  0  0  0  0  0  0  0  0  0  0  0
  -41.6065   58.3540   60.0859 H   0  0  0  0  0  0  0  0  0  0  0  0
  -36.3031   56.9162   61.0142 H   0  0  0  0  0  0  0  0  0  0  0  0
  -34.9510   56.8381   59.8857 H   0  0  0  0  0  0  0  0  0  0  0  0
  -37.2575   61.5634   60.8312 H   0  0  0  0  0  0  0  0  0  0  0  0
  -38.6752   60.8548   61.5273 H   0  0  0  0  0  0  0  0  0  0  0  0
  -34.1697   59.0235   60.6525 H   0  0  0  0  0  0  0  0  0  0  0  0
  -35.7991   59.1481   60.0762 H   0  0  0  0  0  0  0  0  0  0  0  0
  -40.6980   58.3716   60.8001 H   0  0  0  0  0  0  0  0  0  0  0  0
  -39.5944   59.0789   61.9374 H   0  0  0  0  0  0  0  0  0  0  0  0
  -38.5560   56.8665   62.3023 H   0  0  0  0  0  0  0  0  0  0  0  0
  -39.6703   56.1642   61.1465 H   0  0  0  0  0  0  0  0  0  0  0  0
  -40.4604   57.5164   63.7205 H   0  0  0  0  0  0  0  0  0  0  0  0
  -40.4329   55.7901   63.4556 H   0  0  0  0  0  0  0  0  0  0  0  0
  -42.1071   57.7638   61.9188 H   0  0  0  0  0  0  0  0  0  0  0  0
  -42.6924   56.6861   63.1729 H   0  0  0  0  0  0  0  0  0  0  0  0
  -42.0344   54.7551   61.8359 H   0  0  0  0  0  0  0  0  0  0  0  0
  -41.4442   55.8600   60.5774 H   0  0  0  0  0  0  0  0  0  0  0  0
  -44.3075   55.5962   61.4447 H   0  0  0  0  0  0  0  0  0  0  0  0
  -43.5887   54.9233   59.9684 H   0  0  0  0  0  0  0  0  0  0  0  0
  -43.8057   57.8459   60.6131 H   0  0  0  0  0  0  0  0  0  0  0  0
  -44.8290   56.9329   59.4825 H   0  0  0  0  0  0  0  0  0  0  0  0
  -42.0714   56.9426   54.5609 H   0  0  0  0  0  0  0  0  0  0  0  0
  -44.5179   55.9484   56.3613 H   0  0  0  0  0  0  0  0  0  0  0  0
  1  9  1  0  0  0  0
  1 24  1  0  0  0  0
  1 25  1  0  0  0  0
  1 26  1  0  0  0  0
  2  4  2  0  0  0  0
  2 10  1  0  0  0  0
  2 27  1  0  0  0  0
  3  5  2  0  0  0  0
  3 10  1  0  0  0  0
  3 28  1  0  0  0  0
  4 11  1  0  0  0  0
  4 29  1  0  0  0  0
  5 12  1  0  0  0  0
  5 30  1  0  0  0  0
  6  7  2  0  0  0  0
  6  8  1  0  0  0  0
  6 31  1  0  0  0  0
  7 19  1  0  0  0  0
  7 32  1  0  0  0  0
  8 21  2  0  0  0  0
  8 33  1  0  0  0  0
  9 11  1  0  0  0  0
  9 34  1  0  0  0  0
  9 35  1  0  0  0  0
 10 36  1  0  0  0  0
 10 37  1  0  0  0  0
 11 38  1  0  0  0  0
 11 39  1  0  0  0  0
 12 13  1  0  0  0  0
 12 40  1  0  0  0  0
 12 41  1  0  0  0  0
 13 14  1  0  0  0  0
 13 42  1  0  0  0  0
 13 43  1  0  0  0  0
 14 15  1  0  0  0  0
 14 44  1  0  0  0  0
 14 45  1  0  0  0  0
 15 16  1  0  0  0  0
 15 46  1  0  0  0  0
 15 47  1  0  0  0  0
 16 17  1  0  0  0  0
 16 48  1  0  0  0  0
 16 49  1  0  0  0  0
 17 18  1  0  0  0  0
 17 50  1  0  0  0  0
 17 51  1  0  0  0  0
 18 21  1  0  0  0  0
 18 52  1  0  0  0  0
 18 53  1  0  0  0  0
 19 20  2  0  0  0  0
 19 22  1  0  0  0  0
 20 21  1  0  0  0  0
 20 23  1  0  0  0  0
 22 54  1  0  0  0  0
 23 55  1  0  0  0  0
M  END
$$$$