/media/chris/experiments/cd1a-new-docking/inputs/ligands/5j1a_ligand.pdb
 OpenBabel07022311203D

 55 55  0  0  0  0  0  0  0  0999 V2000
  -35.2842   55.3680   57.8354 C   0  0  0  0  0  0  0  0  0  0  0  0
  -39.2940   58.1356   59.5496 C   0  0  0  0  0  0  0  0  0  0  0  0
  -41.3432   56.8675   58.9968 C   0  0  0  0  0  0  0  0  0  0  0  0
  -37.7933   57.7576   59.5442 C   0  0  0  0  0  0  0  0  0  0  0  0
  -41.1044   55.9720   60.2283 C   0  0  0  0  0  0  0  0  0  0  0  0
  -41.8020   60.2265   60.7501 C   0  0  0  0  0  0  0  0  0  0  0  0
  -40.4233   60.2178   60.9998 C   0  0  0  0  0  0  0  0  0  0  0  0
  -42.7059   59.8739   61.7594 C   0  0  0  0  0  0  0  0  0  0  0  0
  -36.0048   56.1522   58.9348 C   0  0  0  0  0  0  0  0  0  0  0  0
  -40.2340   57.7468   58.3992 C   0  0  0  0  0  0  0  0  0  0  0  0
  -37.1504   57.0003   58.3658 C   0  0  0  0  0  0  0  0  0  0  0  0
  -39.6997   55.8424   60.8202 C   0  0  0  0  0  0  0  0  0  0  0  0
  -39.5380   56.9300   61.8820 C   0  0  0  0  0  0  0  0  0  0  0  0
  -40.5750   56.7430   62.9900 C   0  0  0  0  0  0  0  0  0  0  0  0
  -41.9730   56.8130   62.3910 C   0  0  0  0  0  0  0  0  0  0  0  0
  -43.0346   56.6452   63.4882 C   0  0  0  0  0  0  0  0  0  0  0  0
  -42.9688   57.7452   64.5794 C   0  0  0  0  0  0  0  0  0  0  0  0
  -43.1948   59.1702   64.0212 C   0  0  0  0  0  0  0  0  0  0  0  0
  -39.9738   59.8561   62.2696 C   0  0  0  0  0  0  0  0  0  0  0  0
  -40.8797   59.5139   63.2722 C   0  0  0  0  0  0  0  0  0  0  0  0
  -42.2615   59.5431   63.0444 C   0  0  0  0  0  0  0  0  0  0  0  0
  -38.6573   59.8202   62.5907 O   0  0  0  0  0  0  0  0  0  0  0  0
  -40.3944   59.1743   64.5014 O   0  0  0  0  0  0  0  0  0  0  0  0
  -34.4945   54.7904   58.2685 H   0  0  0  0  0  0  0  0  0  0  0  0
  -34.8758   56.0506   57.1198 H   0  0  0  0  0  0  0  0  0  0  0  0
  -35.9787   54.7149   57.3495 H   0  0  0  0  0  0  0  0  0  0  0  0
  -39.6743   58.6645   60.3500 H   0  0  0  0  0  0  0  0  0  0  0  0
  -42.2780   56.8767   58.5597 H   0  0  0  0  0  0  0  0  0  0  0  0
  -37.2069   58.0199   60.3519 H   0  0  0  0  0  0  0  0  0  0  0  0
  -41.8926   55.4596   60.6539 H   0  0  0  0  0  0  0  0  0  0  0  0
  -42.1530   60.4941   59.8173 H   0  0  0  0  0  0  0  0  0  0  0  0
  -39.7531   60.4743   60.2581 H   0  0  0  0  0  0  0  0  0  0  0  0
  -43.7168   59.8578   61.5522 H   0  0  0  0  0  0  0  0  0  0  0  0
  -35.3018   56.7978   59.4184 H   0  0  0  0  0  0  0  0  0  0  0  0
  -36.4200   55.4512   59.6285 H   0  0  0  0  0  0  0  0  0  0  0  0
  -39.6948   57.2006   57.6537 H   0  0  0  0  0  0  0  0  0  0  0  0
  -40.6479   58.6179   57.9358 H   0  0  0  0  0  0  0  0  0  0  0  0
  -36.7686   57.6965   57.6486 H   0  0  0  0  0  0  0  0  0  0  0  0
  -37.8723   56.3802   57.8767 H   0  0  0  0  0  0  0  0  0  0  0  0
  -38.9673   55.9727   60.0511 H   0  0  0  0  0  0  0  0  0  0  0  0
  -39.5648   54.8736   61.2538 H   0  0  0  0  0  0  0  0  0  0  0  0
  -39.6739   57.8897   61.4288 H   0  0  0  0  0  0  0  0  0  0  0  0
  -38.5577   56.8621   62.3055 H   0  0  0  0  0  0  0  0  0  0  0  0
  -40.4604   57.5164   63.7205 H   0  0  0  0  0  0  0  0  0  0  0  0
  -40.4329   55.7901   63.4556 H   0  0  0  0  0  0  0  0  0  0  0  0
  -42.0864   56.0321   61.6683 H   0  0  0  0  0  0  0  0  0  0  0  0
  -42.1035   57.7672   61.9248 H   0  0  0  0  0  0  0  0  0  0  0  0
  -42.8917   55.6937   63.9563 H   0  0  0  0  0  0  0  0  0  0  0  0
  -43.9921   56.7233   63.0171 H   0  0  0  0  0  0  0  0  0  0  0  0
  -42.0041   57.7095   65.0408 H   0  0  0  0  0  0  0  0  0  0  0  0
  -43.7553   57.5483   65.2777 H   0  0  0  0  0  0  0  0  0  0  0  0
  -43.1322   59.8654   64.8322 H   0  0  0  0  0  0  0  0  0  0  0  0
  -44.1577   59.1761   63.5545 H   0  0  0  0  0  0  0  0  0  0  0  0
  -38.0122   60.0424   61.9485 H   0  0  0  0  0  0  0  0  0  0  0  0
  -39.4696   59.1554   64.6511 H   0  0  0  0  0  0  0  0  0  0  0  0
  1  9  1  0  0  0  0
  1 24  1  0  0  0  0
  1 25  1  0  0  0  0
  1 26  1  0  0  0  0
  2  4  2  0  0  0  0
  2 10  1  0  0  0  0
  2 27  1  0  0  0  0
  3  5  2  0  0  0  0
  3 10  1  0  0  0  0
  3 28  1  0  0  0  0
  4 11  1  0  0  0  0
  4 29  1  0  0  0  0
  5 12  1  0  0  0  0
  5 30  1  0  0  0  0
  6  7  2  0  0  0  0
  6  8  1  0  0  0  0
  6 31  1  0  0  0  0
  7 19  1  0  0  0  0
  7 32  1  0  0  0  0
  8 21  2  0  0  0  0
  8 33  1  0  0  0  0
  9 11  1  0  0  0  0
  9 34  1  0  0  0  0
  9 35  1  0  0  0  0
 10 36  1  0  0  0  0
 10 37  1  0  0  0  0
 11 38  1  0  0  0  0
 11 39  1  0  0  0  0
 12 13  1  0  0  0  0
 12 40  1  0  0  0  0
 12 41  1  0  0  0  0
 13 14  1  0  0  0  0
 13 42  1  0  0  0  0
 13 43  1  0  0  0  0
 14 15  1  0  0  0  0
 14 44  1  0  0  0  0
 14 45  1  0  0  0  0
 15 16  1  0  0  0  0
 15 46  1  0  0  0  0
 15 47  1  0  0  0  0
 16 17  1  0  0  0  0
 16 48  1  0  0  0  0
 16 49  1  0  0  0  0
 17 18  1  0  0  0  0
 17 50  1  0  0  0  0
 17 51  1  0  0  0  0
 18 21  1  0  0  0  0
 18 52  1  0  0  0  0
 18 53  1  0  0  0  0
 19 20  2  0  0  0  0
 19 22  1  0  0  0  0
 20 21  1  0  0  0  0
 20 23  1  0  0  0  0
 22 54  1  0  0  0  0
 23 55  1  0  0  0  0
M  END
$$$$
/media/chris/experiments/cd1a-new-docking/inputs/ligands/5j1a_ligand.pdb
 OpenBabel07022311203D

 55 55  0  0  0  0  0  0  0  0999 V2000
  -32.8040   60.2659   60.1395 C   0  0  0  0  0  0  0  0  0  0  0  0
  -36.6450   58.5055   61.3362 C   0  0  0  0  0  0  0  0  0  0  0  0
  -38.1640   59.4703   63.0317 C   0  0  0  0  0  0  0  0  0  0  0  0
  -35.5412   59.4571   60.8157 C   0  0  0  0  0  0  0  0  0  0  0  0
  -39.5120   59.3667   62.2916 C   0  0  0  0  0  0  0  0  0  0  0  0
  -43.6400   58.0060   58.7112 C   0  0  0  0  0  0  0  0  0  0  0  0
  -42.4012   58.6518   58.8175 C   0  0  0  0  0  0  0  0  0  0  0  0
  -44.4299   57.7990   59.8484 C   0  0  0  0  0  0  0  0  0  0  0  0
  -33.7615   61.1812   60.9063 C   0  0  0  0  0  0  0  0  0  0  0  0
  -37.0358   58.4490   62.8202 C   0  0  0  0  0  0  0  0  0  0  0  0
  -34.7471   60.3762   61.7644 C   0  0  0  0  0  0  0  0  0  0  0  0
  -39.7162   58.2956   61.2187 C   0  0  0  0  0  0  0  0  0  0  0  0
  -39.5380   56.9300   61.8820 C   0  0  0  0  0  0  0  0  0  0  0  0
  -40.5750   56.7430   62.9900 C   0  0  0  0  0  0  0  0  0  0  0  0
  -41.9730   56.8130   62.3910 C   0  0  0  0  0  0  0  0  0  0  0  0
  -43.0346   56.6452   63.4882 C   0  0  0  0  0  0  0  0  0  0  0  0
  -44.4877   56.6885   62.9483 C   0  0  0  0  0  0  0  0  0  0  0  0
  -44.8286   58.0126   62.2244 C   0  0  0  0  0  0  0  0  0  0  0  0
  -41.9762   59.0849   60.0733 C   0  0  0  0  0  0  0  0  0  0  0  0
  -42.7711   58.8826   61.2003 C   0  0  0  0  0  0  0  0  0  0  0  0
  -44.0231   58.2618   61.1049 C   0  0  0  0  0  0  0  0  0  0  0  0
  -40.7906   59.7150   60.2611 O   0  0  0  0  0  0  0  0  0  0  0  0
  -42.3179   59.3303   62.4070 O   0  0  0  0  0  0  0  0  0  0  0  0
  -32.1340   60.8606   59.5543 H   0  0  0  0  0  0  0  0  0  0  0  0
  -33.3653   59.6222   59.4949 H   0  0  0  0  0  0  0  0  0  0  0  0
  -32.2432   59.6749   60.8331 H   0  0  0  0  0  0  0  0  0  0  0  0
  -37.1329   57.8907   60.6661 H   0  0  0  0  0  0  0  0  0  0  0  0
  -38.0145   60.2506   63.6903 H   0  0  0  0  0  0  0  0  0  0  0  0
  -35.3310   59.4768   59.8055 H   0  0  0  0  0  0  0  0  0  0  0  0
  -40.2772   60.0203   62.5200 H   0  0  0  0  0  0  0  0  0  0  0  0
  -43.9720   57.6811   57.7896 H   0  0  0  0  0  0  0  0  0  0  0  0
  -41.8142   58.8042   57.9825 H   0  0  0  0  0  0  0  0  0  0  0  0
  -45.3270   57.2968   59.7586 H   0  0  0  0  0  0  0  0  0  0  0  0
  -34.3135   61.7717   60.2053 H   0  0  0  0  0  0  0  0  0  0  0  0
  -33.1818   61.8025   61.5566 H   0  0  0  0  0  0  0  0  0  0  0  0
  -36.1940   58.7008   63.4309 H   0  0  0  0  0  0  0  0  0  0  0  0
  -37.3580   57.4653   63.0911 H   0  0  0  0  0  0  0  0  0  0  0  0
  -34.2124   59.7880   62.4807 H   0  0  0  0  0  0  0  0  0  0  0  0
  -35.4064   61.0302   62.2960 H   0  0  0  0  0  0  0  0  0  0  0  0
  -38.9937   58.4187   60.4392 H   0  0  0  0  0  0  0  0  0  0  0  0
  -40.6929   58.3780   60.7895 H   0  0  0  0  0  0  0  0  0  0  0  0
  -38.5560   56.8665   62.3023 H   0  0  0  0  0  0  0  0  0  0  0  0
  -39.6703   56.1642   61.1465 H   0  0  0  0  0  0  0  0  0  0  0  0
  -40.4604   57.5164   63.7205 H   0  0  0  0  0  0  0  0  0  0  0  0
  -40.4329   55.7901   63.4556 H   0  0  0  0  0  0  0  0  0  0  0  0
  -42.0864   56.0321   61.6683 H   0  0  0  0  0  0  0  0  0  0  0  0
  -42.1035   57.7672   61.9248 H   0  0  0  0  0  0  0  0  0  0  0  0
  -42.9137   57.4339   64.2011 H   0  0  0  0  0  0  0  0  0  0  0  0
  -42.8880   55.6799   63.9258 H   0  0  0  0  0  0  0  0  0  0  0  0
  -45.1603   56.5679   63.7716 H   0  0  0  0  0  0  0  0  0  0  0  0
  -44.5847   55.8998   62.2317 H   0  0  0  0  0  0  0  0  0  0  0  0
  -44.7045   58.8187   62.9169 H   0  0  0  0  0  0  0  0  0  0  0  0
  -45.8363   57.9292   61.8745 H   0  0  0  0  0  0  0  0  0  0  0  0
  -40.2233   59.8726   59.5323 H   0  0  0  0  0  0  0  0  0  0  0  0
  -41.4801   59.7453   62.4681 H   0  0  0  0  0  0  0  0  0  0  0  0
  1  9  1  0  0  0  0
  1 24  1  0  0  0  0
  1 25  1  0  0  0  0
  1 26  1  0  0  0  0
  2  4  2  0  0  0  0
  2 10  1  0  0  0  0
  2 27  1  0  0  0  0
  3  5  2  0  0  0  0
  3 10  1  0  0  0  0
  3 28  1  0  0  0  0
  4 11  1  0  0  0  0
  4 29  1  0  0  0  0
  5 12  1  0  0  0  0
  5 30  1  0  0  0  0
  6  7  2  0  0  0  0
  6  8  1  0  0  0  0
  6 31  1  0  0  0  0
  7 19  1  0  0  0  0
  7 32  1  0  0  0  0
  8 21  2  0  0  0  0
  8 33  1  0  0  0  0
  9 11  1  0  0  0  0
  9 34  1  0  0  0  0
  9 35  1  0  0  0  0
 10 36  1  0  0  0  0
 10 37  1  0  0  0  0
 11 38  1  0  0  0  0
 11 39  1  0  0  0  0
 12 13  1  0  0  0  0
 12 40  1  0  0  0  0
 12 41  1  0  0  0  0
 13 14  1  0  0  0  0
 13 42  1  0  0  0  0
 13 43  1  0  0  0  0
 14 15  1  0  0  0  0
 14 44  1  0  0  0  0
 14 45  1  0  0  0  0
 15 16  1  0  0  0  0
 15 46  1  0  0  0  0
 15 47  1  0  0  0  0
 16 17  1  0  0  0  0
 16 48  1  0  0  0  0
 16 49  1  0  0  0  0
 17 18  1  0  0  0  0
 17 50  1  0  0  0  0
 17 51  1  0  0  0  0
 18 21  1  0  0  0  0
 18 52  1  0  0  0  0
 18 53  1  0  0  0  0
 19 20  2  0  0  0  0
 19 22  1  0  0  0  0
 20 21  1  0  0  0  0
 20 23  1  0  0  0  0
 22 54  1  0  0  0  0
 23 55  1  0  0  0  0
M  END
$$$$
/media/chris/experiments/cd1a-new-docking/inputs/ligands/5j1a_ligand.pdb
 OpenBabel07022311203D

 55 55  0  0  0  0  0  0  0  0999 V2000
  -37.4026   56.3103   66.1463 C   0  0  0  0  0  0  0  0  0  0  0  0
  -35.9016   58.8959   62.9299 C   0  0  0  0  0  0  0  0  0  0  0  0
  -38.1066   59.9462   62.5456 C   0  0  0  0  0  0  0  0  0  0  0  0
  -36.4180   58.3502   64.2827 C   0  0  0  0  0  0  0  0  0  0  0  0
  -39.5120   59.3667   62.2916 C   0  0  0  0  0  0  0  0  0  0  0  0
  -39.4328   52.1612   58.6156 C   0  0  0  0  0  0  0  0  0  0  0  0
  -39.2808   53.3032   57.8181 C   0  0  0  0  0  0  0  0  0  0  0  0
  -40.3978   52.1295   59.6292 C   0  0  0  0  0  0  0  0  0  0  0  0
  -38.0601   57.6865   66.0180 C   0  0  0  0  0  0  0  0  0  0  0  0
  -36.8575   59.3987   61.8382 C   0  0  0  0  0  0  0  0  0  0  0  0
  -37.9236   58.2475   64.5959 C   0  0  0  0  0  0  0  0  0  0  0  0
  -39.7162   58.2956   61.2187 C   0  0  0  0  0  0  0  0  0  0  0  0
  -39.5380   56.9300   61.8820 C   0  0  0  0  0  0  0  0  0  0  0  0
  -40.5750   56.7430   62.9900 C   0  0  0  0  0  0  0  0  0  0  0  0
  -41.9730   56.8130   62.3910 C   0  0  0  0  0  0  0  0  0  0  0  0
  -42.1661   55.6996   61.3507 C   0  0  0  0  0  0  0  0  0  0  0  0
  -42.0124   54.2741   61.9416 C   0  0  0  0  0  0  0  0  0  0  0  0
  -42.1905   53.1560   60.8873 C   0  0  0  0  0  0  0  0  0  0  0  0
  -40.1098   54.4001   58.0524 C   0  0  0  0  0  0  0  0  0  0  0  0
  -41.0739   54.3589   59.0582 C   0  0  0  0  0  0  0  0  0  0  0  0
  -41.2545   53.2147   59.8458 C   0  0  0  0  0  0  0  0  0  0  0  0
  -40.0247   55.5424   57.3274 O   0  0  0  0  0  0  0  0  0  0  0  0
  -41.8676   55.4528   59.2460 O   0  0  0  0  0  0  0  0  0  0  0  0
  -37.5174   55.9521   67.1481 H   0  0  0  0  0  0  0  0  0  0  0  0
  -36.3613   56.3893   65.9130 H   0  0  0  0  0  0  0  0  0  0  0  0
  -37.8693   55.6273   65.4677 H   0  0  0  0  0  0  0  0  0  0  0  0
  -34.8847   58.9228   62.7561 H   0  0  0  0  0  0  0  0  0  0  0  0
  -38.0013   60.7270   63.2122 H   0  0  0  0  0  0  0  0  0  0  0  0
  -35.7355   58.0466   64.9948 H   0  0  0  0  0  0  0  0  0  0  0  0
  -40.3157   59.7014   62.8457 H   0  0  0  0  0  0  0  0  0  0  0  0
  -38.8301   51.3390   58.4548 H   0  0  0  0  0  0  0  0  0  0  0  0
  -38.5689   53.3322   57.0715 H   0  0  0  0  0  0  0  0  0  0  0  0
  -40.4789   51.2919   60.2267 H   0  0  0  0  0  0  0  0  0  0  0  0
  -37.5910   58.3607   66.7037 H   0  0  0  0  0  0  0  0  0  0  0  0
  -39.1020   57.5813   66.2377 H   0  0  0  0  0  0  0  0  0  0  0  0
  -37.1278   58.5930   61.1881 H   0  0  0  0  0  0  0  0  0  0  0  0
  -36.3921   60.1589   61.2462 H   0  0  0  0  0  0  0  0  0  0  0  0
  -38.3986   57.5913   63.8968 H   0  0  0  0  0  0  0  0  0  0  0  0
  -38.3909   59.2073   64.5223 H   0  0  0  0  0  0  0  0  0  0  0  0
  -38.9937   58.4187   60.4392 H   0  0  0  0  0  0  0  0  0  0  0  0
  -40.6929   58.3780   60.7895 H   0  0  0  0  0  0  0  0  0  0  0  0
  -38.5560   56.8665   62.3023 H   0  0  0  0  0  0  0  0  0  0  0  0
  -39.6703   56.1642   61.1465 H   0  0  0  0  0  0  0  0  0  0  0  0
  -40.4604   57.5164   63.7205 H   0  0  0  0  0  0  0  0  0  0  0  0
  -40.4329   55.7901   63.4556 H   0  0  0  0  0  0  0  0  0  0  0  0
  -42.1071   57.7638   61.9188 H   0  0  0  0  0  0  0  0  0  0  0  0
  -42.6924   56.6861   63.1729 H   0  0  0  0  0  0  0  0  0  0  0  0
  -41.4374   55.8271   60.5777 H   0  0  0  0  0  0  0  0  0  0  0  0
  -43.1664   55.7826   60.9800 H   0  0  0  0  0  0  0  0  0  0  0  0
  -42.7492   54.1414   62.7060 H   0  0  0  0  0  0  0  0  0  0  0  0
  -41.0169   54.1941   62.3254 H   0  0  0  0  0  0  0  0  0  0  0  0
  -43.1707   53.2403   60.4666 H   0  0  0  0  0  0  0  0  0  0  0  0
  -42.0432   52.2232   61.3902 H   0  0  0  0  0  0  0  0  0  0  0  0
  -39.3912   55.6154   56.6409 H   0  0  0  0  0  0  0  0  0  0  0  0
  -41.7448   56.2169   58.7179 H   0  0  0  0  0  0  0  0  0  0  0  0
  1  9  1  0  0  0  0
  1 24  1  0  0  0  0
  1 25  1  0  0  0  0
  1 26  1  0  0  0  0
  2  4  2  0  0  0  0
  2 10  1  0  0  0  0
  2 27  1  0  0  0  0
  3  5  2  0  0  0  0
  3 10  1  0  0  0  0
  3 28  1  0  0  0  0
  4 11  1  0  0  0  0
  4 29  1  0  0  0  0
  5 12  1  0  0  0  0
  5 30  1  0  0  0  0
  6  7  2  0  0  0  0
  6  8  1  0  0  0  0
  6 31  1  0  0  0  0
  7 19  1  0  0  0  0
  7 32  1  0  0  0  0
  8 21  2  0  0  0  0
  8 33  1  0  0  0  0
  9 11  1  0  0  0  0
  9 34  1  0  0  0  0
  9 35  1  0  0  0  0
 10 36  1  0  0  0  0
 10 37  1  0  0  0  0
 11 38  1  0  0  0  0
 11 39  1  0  0  0  0
 12 13  1  0  0  0  0
 12 40  1  0  0  0  0
 12 41  1  0  0  0  0
 13 14  1  0  0  0  0
 13 42  1  0  0  0  0
 13 43  1  0  0  0  0
 14 15  1  0  0  0  0
 14 44  1  0  0  0  0
 14 45  1  0  0  0  0
 15 16  1  0  0  0  0
 15 46  1  0  0  0  0
 15 47  1  0  0  0  0
 16 17  1  0  0  0  0
 16 48  1  0  0  0  0
 16 49  1  0  0  0  0
 17 18  1  0  0  0  0
 17 50  1  0  0  0  0
 17 51  1  0  0  0  0
 18 21  1  0  0  0  0
 18 52  1  0  0  0  0
 18 53  1  0  0  0  0
 19 20  2  0  0  0  0
 19 22  1  0  0  0  0
 20 21  1  0  0  0  0
 20 23  1  0  0  0  0
 22 54  1  0  0  0  0
 23 55  1  0  0  0  0
M  END
$$$$
/media/chris/experiments/cd1a-new-docking/inputs/ligands/5j1a_ligand.pdb
 OpenBabel07022311203D

 55 55  0  0  0  0  0  0  0  0999 V2000
  -37.3514   59.6777   65.6778 C   0  0  0  0  0  0  0  0  0  0  0  0
  -40.5351   61.2007   61.8352 C   0  0  0  0  0  0  0  0  0  0  0  0
  -42.1174   59.4370   61.1292 C   0  0  0  0  0  0  0  0  0  0  0  0
  -39.2100   61.1625   62.6337 C   0  0  0  0  0  0  0  0  0  0  0  0
  -41.1327   58.3550   60.6442 C   0  0  0  0  0  0  0  0  0  0  0  0
  -45.0752   54.3732   58.8993 C   0  0  0  0  0  0  0  0  0  0  0  0
  -45.9898   53.3198   59.0310 C   0  0  0  0  0  0  0  0  0  0  0  0
  -43.8235   54.3053   59.5225 C   0  0  0  0  0  0  0  0  0  0  0  0
  -37.6242   60.5164   64.4268 C   0  0  0  0  0  0  0  0  0  0  0  0
  -41.7713   60.4021   62.2735 C   0  0  0  0  0  0  0  0  0  0  0  0
  -39.0461   60.2917   63.8947 C   0  0  0  0  0  0  0  0  0  0  0  0
  -39.7162   58.2956   61.2187 C   0  0  0  0  0  0  0  0  0  0  0  0
  -39.5380   56.9300   61.8820 C   0  0  0  0  0  0  0  0  0  0  0  0
  -40.5750   56.7430   62.9900 C   0  0  0  0  0  0  0  0  0  0  0  0
  -41.9730   56.8130   62.3910 C   0  0  0  0  0  0  0  0  0  0  0  0
  -42.1661   55.6996   61.3507 C   0  0  0  0  0  0  0  0  0  0  0  0
  -42.0124   54.2741   61.9416 C   0  0  0  0  0  0  0  0  0  0  0  0
  -42.1905   53.1560   60.8873 C   0  0  0  0  0  0  0  0  0  0  0  0
  -45.6265   52.2069   59.7890 C   0  0  0  0  0  0  0  0  0  0  0  0
  -44.3755   52.1424   60.4003 C   0  0  0  0  0  0  0  0  0  0  0  0
  -43.4415   53.1763   60.2559 C   0  0  0  0  0  0  0  0  0  0  0  0
  -46.4542   51.1482   59.9671 O   0  0  0  0  0  0  0  0  0  0  0  0
  -44.0607   51.0304   61.1258 O   0  0  0  0  0  0  0  0  0  0  0  0
  -36.3538   59.8600   66.0189 H   0  0  0  0  0  0  0  0  0  0  0  0
  -37.4639   58.6399   65.4428 H   0  0  0  0  0  0  0  0  0  0  0  0
  -38.0458   59.9467   66.4460 H   0  0  0  0  0  0  0  0  0  0  0  0
  -40.5896   61.7801   60.9829 H   0  0  0  0  0  0  0  0  0  0  0  0
  -43.0386   59.5157   60.6707 H   0  0  0  0  0  0  0  0  0  0  0  0
  -38.4142   61.7360   62.3129 H   0  0  0  0  0  0  0  0  0  0  0  0
  -41.4292   57.6701   59.9314 H   0  0  0  0  0  0  0  0  0  0  0  0
  -45.3257   55.2035   58.3399 H   0  0  0  0  0  0  0  0  0  0  0  0
  -46.9147   53.3666   58.5756 H   0  0  0  0  0  0  0  0  0  0  0  0
  -43.1715   55.1010   59.4397 H   0  0  0  0  0  0  0  0  0  0  0  0
  -36.9220   60.2446   63.6666 H   0  0  0  0  0  0  0  0  0  0  0  0
  -37.5240   61.5492   64.6881 H   0  0  0  0  0  0  0  0  0  0  0  0
  -42.5912   61.0654   62.4544 H   0  0  0  0  0  0  0  0  0  0  0  0
  -41.5755   59.8646   63.1778 H   0  0  0  0  0  0  0  0  0  0  0  0
  -39.1851   59.2600   63.6472 H   0  0  0  0  0  0  0  0  0  0  0  0
  -39.7724   60.5576   64.6342 H   0  0  0  0  0  0  0  0  0  0  0  0
  -39.5844   59.0720   61.9431 H   0  0  0  0  0  0  0  0  0  0  0  0
  -38.9922   58.4316   60.4428 H   0  0  0  0  0  0  0  0  0  0  0  0
  -38.5560   56.8665   62.3023 H   0  0  0  0  0  0  0  0  0  0  0  0
  -39.6703   56.1642   61.1465 H   0  0  0  0  0  0  0  0  0  0  0  0
  -40.4604   57.5164   63.7205 H   0  0  0  0  0  0  0  0  0  0  0  0
  -40.4329   55.7901   63.4556 H   0  0  0  0  0  0  0  0  0  0  0  0
  -42.1071   57.7638   61.9188 H   0  0  0  0  0  0  0  0  0  0  0  0
  -42.6924   56.6861   63.1729 H   0  0  0  0  0  0  0  0  0  0  0  0
  -41.4374   55.8271   60.5777 H   0  0  0  0  0  0  0  0  0  0  0  0
  -43.1664   55.7826   60.9800 H   0  0  0  0  0  0  0  0  0  0  0  0
  -42.7492   54.1414   62.7060 H   0  0  0  0  0  0  0  0  0  0  0  0
  -41.0169   54.1941   62.3254 H   0  0  0  0  0  0  0  0  0  0  0  0
  -42.0718   52.2102   61.3734 H   0  0  0  0  0  0  0  0  0  0  0  0
  -41.4530   53.3184   60.1292 H   0  0  0  0  0  0  0  0  0  0  0  0
  -47.3052   51.1477   59.5748 H   0  0  0  0  0  0  0  0  0  0  0  0
  -44.6873   50.3402   61.2209 H   0  0  0  0  0  0  0  0  0  0  0  0
  1  9  1  0  0  0  0
  1 24  1  0  0  0  0
  1 25  1  0  0  0  0
  1 26  1  0  0  0  0
  2  4  2  0  0  0  0
  2 10  1  0  0  0  0
  2 27  1  0  0  0  0
  3  5  2  0  0  0  0
  3 10  1  0  0  0  0
  3 28  1  0  0  0  0
  4 11  1  0  0  0  0
  4 29  1  0  0  0  0
  5 12  1  0  0  0  0
  5 30  1  0  0  0  0
  6  7  2  0  0  0  0
  6  8  1  0  0  0  0
  6 31  1  0  0  0  0
  7 19  1  0  0  0  0
  7 32  1  0  0  0  0
  8 21  2  0  0  0  0
  8 33  1  0  0  0  0
  9 11  1  0  0  0  0
  9 34  1  0  0  0  0
  9 35  1  0  0  0  0
 10 36  1  0  0  0  0
 10 37  1  0  0  0  0
 11 38  1  0  0  0  0
 11 39  1  0  0  0  0
 12 13  1  0  0  0  0
 12 40  1  0  0  0  0
 12 41  1  0  0  0  0
 13 14  1  0  0  0  0
 13 42  1  0  0  0  0
 13 43  1  0  0  0  0
 14 15  1  0  0  0  0
 14 44  1  0  0  0  0
 14 45  1  0  0  0  0
 15 16  1  0  0  0  0
 15 46  1  0  0  0  0
 15 47  1  0  0  0  0
 16 17  1  0  0  0  0
 16 48  1  0  0  0  0
 16 49  1  0  0  0  0
 17 18  1  0  0  0  0
 17 50  1  0  0  0  0
 17 51  1  0  0  0  0
 18 21  1  0  0  0  0
 18 52  1  0  0  0  0
 18 53  1  0  0  0  0
 19 20  2  0  0  0  0
 19 22  1  0  0  0  0
 20 21  1  0  0  0  0
 20 23  1  0  0  0  0
 22 54  1  0  0  0  0
 23 55  1  0  0  0  0
M  END
$$$$
/media/chris/experiments/cd1a-new-docking/inputs/ligands/5j1a_ligand.pdb
 OpenBabel07022311203D

 55 55  0  0  0  0  0  0  0  0999 V2000
  -40.9099   60.1417   61.7053 C   0  0  0  0  0  0  0  0  0  0  0  0
  -41.3492   56.5664   58.8727 C   0  0  0  0  0  0  0  0  0  0  0  0
  -38.9325   56.9623   58.5325 C   0  0  0  0  0  0  0  0  0  0  0  0
  -42.3334   56.9856   59.9910 C   0  0  0  0  0  0  0  0  0  0  0  0
  -38.6290   56.0694   59.7515 C   0  0  0  0  0  0  0  0  0  0  0  0
  -42.0390   62.1850   65.8460 C   0  0  0  0  0  0  0  0  0  0  0  0
  -42.8592   62.1750   66.9820 C   0  0  0  0  0  0  0  0  0  0  0  0
  -42.1600   61.1818   64.8771 C   0  0  0  0  0  0  0  0  0  0  0  0
  -40.9764   58.7329   61.1106 C   0  0  0  0  0  0  0  0  0  0  0  0
  -40.3297   57.5484   58.2773 C   0  0  0  0  0  0  0  0  0  0  0  0
  -42.3692   58.4235   60.5449 C   0  0  0  0  0  0  0  0  0  0  0  0
  -39.6997   55.8424   60.8202 C   0  0  0  0  0  0  0  0  0  0  0  0
  -39.5380   56.9300   61.8820 C   0  0  0  0  0  0  0  0  0  0  0  0
  -40.5750   56.7430   62.9900 C   0  0  0  0  0  0  0  0  0  0  0  0
  -41.9730   56.8130   62.3910 C   0  0  0  0  0  0  0  0  0  0  0  0
  -43.0346   56.6452   63.4882 C   0  0  0  0  0  0  0  0  0  0  0  0
  -42.9688   57.7452   64.5794 C   0  0  0  0  0  0  0  0  0  0  0  0
  -43.1948   59.1702   64.0212 C   0  0  0  0  0  0  0  0  0  0  0  0
  -43.7961   61.1515   67.1237 C   0  0  0  0  0  0  0  0  0  0  0  0
  -43.9167   60.1601   66.1513 C   0  0  0  0  0  0  0  0  0  0  0  0
  -43.1214   60.1722   64.9983 C   0  0  0  0  0  0  0  0  0  0  0  0
  -44.6246   61.0688   68.1935 O   0  0  0  0  0  0  0  0  0  0  0  0
  -44.8526   59.1832   66.3286 O   0  0  0  0  0  0  0  0  0  0  0  0
  -39.9271   60.3209   62.0886 H   0  0  0  0  0  0  0  0  0  0  0  0
  -41.6232   60.2282   62.4982 H   0  0  0  0  0  0  0  0  0  0  0  0
  -41.1328   60.8607   60.9449 H   0  0  0  0  0  0  0  0  0  0  0  0
  -41.3790   55.5983   58.5166 H   0  0  0  0  0  0  0  0  0  0  0  0
  -38.1731   57.1732   57.8663 H   0  0  0  0  0  0  0  0  0  0  0  0
  -42.9836   56.2831   60.3765 H   0  0  0  0  0  0  0  0  0  0  0  0
  -37.7028   55.6244   59.8469 H   0  0  0  0  0  0  0  0  0  0  0  0
  -41.3419   62.9360   65.7230 H   0  0  0  0  0  0  0  0  0  0  0  0
  -42.7718   62.9109   67.7002 H   0  0  0  0  0  0  0  0  0  0  0  0
  -41.5297   61.1869   64.0600 H   0  0  0  0  0  0  0  0  0  0  0  0
  -40.7468   58.0216   61.8763 H   0  0  0  0  0  0  0  0  0  0  0  0
  -40.2693   58.6740   60.3097 H   0  0  0  0  0  0  0  0  0  0  0  0
  -40.4193   58.5029   58.7525 H   0  0  0  0  0  0  0  0  0  0  0  0
  -40.4995   57.6837   57.2296 H   0  0  0  0  0  0  0  0  0  0  0  0
  -43.1034   58.4987   61.3195 H   0  0  0  0  0  0  0  0  0  0  0  0
  -42.6264   59.1189   59.7734 H   0  0  0  0  0  0  0  0  0  0  0  0
  -39.5715   54.8777   61.2648 H   0  0  0  0  0  0  0  0  0  0  0  0
  -40.6766   55.8865   60.3858 H   0  0  0  0  0  0  0  0  0  0  0  0
  -39.6739   57.8897   61.4288 H   0  0  0  0  0  0  0  0  0  0  0  0
  -38.5577   56.8621   62.3055 H   0  0  0  0  0  0  0  0  0  0  0  0
  -40.4604   57.5164   63.7205 H   0  0  0  0  0  0  0  0  0  0  0  0
  -40.4329   55.7901   63.4556 H   0  0  0  0  0  0  0  0  0  0  0  0
  -42.0864   56.0321   61.6683 H   0  0  0  0  0  0  0  0  0  0  0  0
  -42.1035   57.7672   61.9248 H   0  0  0  0  0  0  0  0  0  0  0  0
  -42.8917   55.6937   63.9563 H   0  0  0  0  0  0  0  0  0  0  0  0
  -43.9921   56.7233   63.0171 H   0  0  0  0  0  0  0  0  0  0  0  0
  -42.0041   57.7095   65.0408 H   0  0  0  0  0  0  0  0  0  0  0  0
  -43.7553   57.5483   65.2777 H   0  0  0  0  0  0  0  0  0  0  0  0
  -44.1644   59.2074   63.5703 H   0  0  0  0  0  0  0  0  0  0  0  0
  -42.4118   59.3599   63.3169 H   0  0  0  0  0  0  0  0  0  0  0  0
  -44.5793   61.7133   68.8721 H   0  0  0  0  0  0  0  0  0  0  0  0
  -45.3833   59.1774   67.1008 H   0  0  0  0  0  0  0  0  0  0  0  0
  1  9  1  0  0  0  0
  1 24  1  0  0  0  0
  1 25  1  0  0  0  0
  1 26  1  0  0  0  0
  2  4  2  0  0  0  0
  2 10  1  0  0  0  0
  2 27  1  0  0  0  0
  3  5  2  0  0  0  0
  3 10  1  0  0  0  0
  3 28  1  0  0  0  0
  4 11  1  0  0  0  0
  4 29  1  0  0  0  0
  5 12  1  0  0  0  0
  5 30  1  0  0  0  0
  6  7  2  0  0  0  0
  6  8  1  0  0  0  0
  6 31  1  0  0  0  0
  7 19  1  0  0  0  0
  7 32  1  0  0  0  0
  8 21  2  0  0  0  0
  8 33  1  0  0  0  0
  9 11  1  0  0  0  0
  9 34  1  0  0  0  0
  9 35  1  0  0  0  0
 10 36  1  0  0  0  0
 10 37  1  0  0  0  0
 11 38  1  0  0  0  0
 11 39  1  0  0  0  0
 12 13  1  0  0  0  0
 12 40  1  0  0  0  0
 12 41  1  0  0  0  0
 13 14  1  0  0  0  0
 13 42  1  0  0  0  0
 13 43  1  0  0  0  0
 14 15  1  0  0  0  0
 14 44  1  0  0  0  0
 14 45  1  0  0  0  0
 15 16  1  0  0  0  0
 15 46  1  0  0  0  0
 15 47  1  0  0  0  0
 16 17  1  0  0  0  0
 16 48  1  0  0  0  0
 16 49  1  0  0  0  0
 17 18  1  0  0  0  0
 17 50  1  0  0  0  0
 17 51  1  0  0  0  0
 18 21  1  0  0  0  0
 18 52  1  0  0  0  0
 18 53  1  0  0  0  0
 19 20  2  0  0  0  0
 19 22  1  0  0  0  0
 20 21  1  0  0  0  0
 20 23  1  0  0  0  0
 22 54  1  0  0  0  0
 23 55  1  0  0  0  0
M  END
$$$$
/media/chris/experiments/cd1a-new-docking/inputs/ligands/5j1a_ligand.pdb
 OpenBabel07022311203D

 55 55  0  0  0  0  0  0  0  0999 V2000
  -38.1172   51.6789   61.9190 C   0  0  0  0  0  0  0  0  0  0  0  0
  -39.8466   53.4391   59.8853 C   0  0  0  0  0  0  0  0  0  0  0  0
  -38.0506   54.8721   58.9722 C   0  0  0  0  0  0  0  0  0  0  0  0
  -40.5560   52.1476   60.3581 C   0  0  0  0  0  0  0  0  0  0  0  0
  -38.6290   56.0694   59.7515 C   0  0  0  0  0  0  0  0  0  0  0  0
  -42.9399   53.6894   60.4239 C   0  0  0  0  0  0  0  0  0  0  0  0
  -43.8283   53.2500   61.4143 C   0  0  0  0  0  0  0  0  0  0  0  0
  -42.9854   55.0127   59.9693 C   0  0  0  0  0  0  0  0  0  0  0  0
  -39.1459   50.5761   61.6581 C   0  0  0  0  0  0  0  0  0  0  0  0
  -38.4222   53.4205   59.3118 C   0  0  0  0  0  0  0  0  0  0  0  0
  -39.8580   50.7742   60.3130 C   0  0  0  0  0  0  0  0  0  0  0  0
  -39.6997   55.8424   60.8202 C   0  0  0  0  0  0  0  0  0  0  0  0
  -39.5380   56.9300   61.8820 C   0  0  0  0  0  0  0  0  0  0  0  0
  -40.5750   56.7430   62.9900 C   0  0  0  0  0  0  0  0  0  0  0  0
  -41.9730   56.8130   62.3910 C   0  0  0  0  0  0  0  0  0  0  0  0
  -42.1931   58.1680   61.7021 C   0  0  0  0  0  0  0  0  0  0  0  0
  -43.6063   58.3189   61.0817 C   0  0  0  0  0  0  0  0  0  0  0  0
  -43.9207   57.2428   60.0156 C   0  0  0  0  0  0  0  0  0  0  0  0
  -44.7512   54.1556   61.9371 C   0  0  0  0  0  0  0  0  0  0  0  0
  -44.7859   55.4739   61.4856 C   0  0  0  0  0  0  0  0  0  0  0  0
  -43.8869   55.9337   60.5148 C   0  0  0  0  0  0  0  0  0  0  0  0
  -45.6456   53.8090   62.8950 O   0  0  0  0  0  0  0  0  0  0  0  0
  -45.7007   56.3263   62.0316 O   0  0  0  0  0  0  0  0  0  0  0  0
  -37.6426   51.5080   62.8626 H   0  0  0  0  0  0  0  0  0  0  0  0
  -38.6089   52.6291   61.9340 H   0  0  0  0  0  0  0  0  0  0  0  0
  -37.3808   51.6707   61.1427 H   0  0  0  0  0  0  0  0  0  0  0  0
  -40.3456   54.3396   59.9574 H   0  0  0  0  0  0  0  0  0  0  0  0
  -37.3927   55.0512   58.1975 H   0  0  0  0  0  0  0  0  0  0  0  0
  -41.5230   52.2076   60.7135 H   0  0  0  0  0  0  0  0  0  0  0  0
  -38.2937   57.0249   59.5523 H   0  0  0  0  0  0  0  0  0  0  0  0
  -42.2483   53.0340   60.0274 H   0  0  0  0  0  0  0  0  0  0  0  0
  -43.8002   52.2747   61.7506 H   0  0  0  0  0  0  0  0  0  0  0  0
  -42.3436   55.3141   59.2194 H   0  0  0  0  0  0  0  0  0  0  0  0
  -39.8744   50.5883   62.4417 H   0  0  0  0  0  0  0  0  0  0  0  0
  -38.6313   49.6384   61.6293 H   0  0  0  0  0  0  0  0  0  0  0  0
  -38.3904   52.8176   58.4284 H   0  0  0  0  0  0  0  0  0  0  0  0
  -37.7333   53.0073   60.0187 H   0  0  0  0  0  0  0  0  0  0  0  0
  -39.1452   50.7523   59.5152 H   0  0  0  0  0  0  0  0  0  0  0  0
  -40.5706   49.9940   60.1445 H   0  0  0  0  0  0  0  0  0  0  0  0
  -39.5715   54.8777   61.2648 H   0  0  0  0  0  0  0  0  0  0  0  0
  -40.6766   55.8865   60.3858 H   0  0  0  0  0  0  0  0  0  0  0  0
  -39.6739   57.8897   61.4288 H   0  0  0  0  0  0  0  0  0  0  0  0
  -38.5577   56.8621   62.3055 H   0  0  0  0  0  0  0  0  0  0  0  0
  -40.4604   57.5164   63.7205 H   0  0  0  0  0  0  0  0  0  0  0  0
  -40.4329   55.7901   63.4556 H   0  0  0  0  0  0  0  0  0  0  0  0
  -42.6967   56.6917   63.1697 H   0  0  0  0  0  0  0  0  0  0  0  0
  -42.0793   56.0336   61.6657 H   0  0  0  0  0  0  0  0  0  0  0  0
  -41.4671   58.2749   60.9233 H   0  0  0  0  0  0  0  0  0  0  0  0
  -42.0942   58.9245   62.4524 H   0  0  0  0  0  0  0  0  0  0  0  0
  -43.6752   59.2830   60.6226 H   0  0  0  0  0  0  0  0  0  0  0  0
  -44.3160   58.1996   61.8734 H   0  0  0  0  0  0  0  0  0  0  0  0
  -43.1993   57.3241   59.2295 H   0  0  0  0  0  0  0  0  0  0  0  0
  -44.9179   57.4226   59.6719 H   0  0  0  0  0  0  0  0  0  0  0  0
  -45.6591   52.9336   63.2288 H   0  0  0  0  0  0  0  0  0  0  0  0
  -46.3010   56.0162   62.6808 H   0  0  0  0  0  0  0  0  0  0  0  0
  1  9  1  0  0  0  0
  1 24  1  0  0  0  0
  1 25  1  0  0  0  0
  1 26  1  0  0  0  0
  2  4  2  0  0  0  0
  2 10  1  0  0  0  0
  2 27  1  0  0  0  0
  3  5  2  0  0  0  0
  3 10  1  0  0  0  0
  3 28  1  0  0  0  0
  4 11  1  0  0  0  0
  4 29  1  0  0  0  0
  5 12  1  0  0  0  0
  5 30  1  0  0  0  0
  6  7  2  0  0  0  0
  6  8  1  0  0  0  0
  6 31  1  0  0  0  0
  7 19  1  0  0  0  0
  7 32  1  0  0  0  0
  8 21  2  0  0  0  0
  8 33  1  0  0  0  0
  9 11  1  0  0  0  0
  9 34  1  0  0  0  0
  9 35  1  0  0  0  0
 10 36  1  0  0  0  0
 10 37  1  0  0  0  0
 11 38  1  0  0  0  0
 11 39  1  0  0  0  0
 12 13  1  0  0  0  0
 12 40  1  0  0  0  0
 12 41  1  0  0  0  0
 13 14  1  0  0  0  0
 13 42  1  0  0  0  0
 13 43  1  0  0  0  0
 14 15  1  0  0  0  0
 14 44  1  0  0  0  0
 14 45  1  0  0  0  0
 15 16  1  0  0  0  0
 15 46  1  0  0  0  0
 15 47  1  0  0  0  0
 16 17  1  0  0  0  0
 16 48  1  0  0  0  0
 16 49  1  0  0  0  0
 17 18  1  0  0  0  0
 17 50  1  0  0  0  0
 17 51  1  0  0  0  0
 18 21  1  0  0  0  0
 18 52  1  0  0  0  0
 18 53  1  0  0  0  0
 19 20  2  0  0  0  0
 19 22  1  0  0  0  0
 20 21  1  0  0  0  0
 20 23  1  0  0  0  0
 22 54  1  0  0  0  0
 23 55  1  0  0  0  0
M  END
$$$$
/media/chris/experiments/cd1a-new-docking/inputs/ligands/5j1a_ligand.pdb
 OpenBabel07022311203D

 55 55  0  0  0  0  0  0  0  0999 V2000
  -40.4834   55.1623   54.3515 C   0  0  0  0  0  0  0  0  0  0  0  0
  -41.4945   52.7445   58.1106 C   0  0  0  0  0  0  0  0  0  0  0  0
  -41.5737   54.9940   59.1336 C   0  0  0  0  0  0  0  0  0  0  0  0
  -41.5843   52.2550   56.6453 C   0  0  0  0  0  0  0  0  0  0  0  0
  -41.1044   55.9720   60.2283 C   0  0  0  0  0  0  0  0  0  0  0  0
  -41.8020   60.2265   60.7501 C   0  0  0  0  0  0  0  0  0  0  0  0
  -40.4233   60.2178   60.9998 C   0  0  0  0  0  0  0  0  0  0  0  0
  -42.7059   59.8739   61.7594 C   0  0  0  0  0  0  0  0  0  0  0  0
  -41.2120   54.4020   55.4624 C   0  0  0  0  0  0  0  0  0  0  0  0
  -40.6325   53.9499   58.5133 C   0  0  0  0  0  0  0  0  0  0  0  0
  -40.7845   52.9288   55.5131 C   0  0  0  0  0  0  0  0  0  0  0  0
  -39.6997   55.8424   60.8202 C   0  0  0  0  0  0  0  0  0  0  0  0
  -39.5380   56.9300   61.8820 C   0  0  0  0  0  0  0  0  0  0  0  0
  -40.5750   56.7430   62.9900 C   0  0  0  0  0  0  0  0  0  0  0  0
  -41.9730   56.8130   62.3910 C   0  0  0  0  0  0  0  0  0  0  0  0
  -43.0346   56.6452   63.4882 C   0  0  0  0  0  0  0  0  0  0  0  0
  -42.9688   57.7452   64.5794 C   0  0  0  0  0  0  0  0  0  0  0  0
  -43.1948   59.1702   64.0212 C   0  0  0  0  0  0  0  0  0  0  0  0
  -39.9738   59.8561   62.2696 C   0  0  0  0  0  0  0  0  0  0  0  0
  -40.8797   59.5139   63.2722 C   0  0  0  0  0  0  0  0  0  0  0  0
  -42.2615   59.5431   63.0444 C   0  0  0  0  0  0  0  0  0  0  0  0
  -38.6573   59.8202   62.5907 O   0  0  0  0  0  0  0  0  0  0  0  0
  -40.3944   59.1743   64.5014 O   0  0  0  0  0  0  0  0  0  0  0  0
  -40.8060   56.1825   54.3468 H   0  0  0  0  0  0  0  0  0  0  0  0
  -40.7066   54.7132   53.4063 H   0  0  0  0  0  0  0  0  0  0  0  0
  -39.4283   55.1227   54.5250 H   0  0  0  0  0  0  0  0  0  0  0  0
  -42.0297   52.2461   58.8387 H   0  0  0  0  0  0  0  0  0  0  0  0
  -42.5514   55.0418   58.8067 H   0  0  0  0  0  0  0  0  0  0  0  0
  -42.1965   51.4553   56.4200 H   0  0  0  0  0  0  0  0  0  0  0  0
  -41.7381   56.7149   60.5623 H   0  0  0  0  0  0  0  0  0  0  0  0
  -42.1530   60.4941   59.8173 H   0  0  0  0  0  0  0  0  0  0  0  0
  -39.7531   60.4743   60.2581 H   0  0  0  0  0  0  0  0  0  0  0  0
  -43.7168   59.8578   61.5522 H   0  0  0  0  0  0  0  0  0  0  0  0
  -42.2658   54.4518   55.2837 H   0  0  0  0  0  0  0  0  0  0  0  0
  -40.9611   54.8557   56.3984 H   0  0  0  0  0  0  0  0  0  0  0  0
  -40.1484   54.3589   57.6512 H   0  0  0  0  0  0  0  0  0  0  0  0
  -39.8749   53.6593   59.2109 H   0  0  0  0  0  0  0  0  0  0  0  0
  -41.0008   52.4530   54.5795 H   0  0  0  0  0  0  0  0  0  0  0  0
  -39.7330   52.8468   55.6931 H   0  0  0  0  0  0  0  0  0  0  0  0
  -38.9673   55.9727   60.0511 H   0  0  0  0  0  0  0  0  0  0  0  0
  -39.5648   54.8736   61.2538 H   0  0  0  0  0  0  0  0  0  0  0  0
  -39.6739   57.8897   61.4288 H   0  0  0  0  0  0  0  0  0  0  0  0
  -38.5577   56.8621   62.3055 H   0  0  0  0  0  0  0  0  0  0  0  0
  -40.4604   57.5164   63.7205 H   0  0  0  0  0  0  0  0  0  0  0  0
  -40.4329   55.7901   63.4556 H   0  0  0  0  0  0  0  0  0  0  0  0
  -42.0864   56.0321   61.6683 H   0  0  0  0  0  0  0  0  0  0  0  0
  -42.1035   57.7672   61.9248 H   0  0  0  0  0  0  0  0  0  0  0  0
  -42.8917   55.6937   63.9563 H   0  0  0  0  0  0  0  0  0  0  0  0
  -43.9921   56.7233   63.0171 H   0  0  0  0  0  0  0  0  0  0  0  0
  -42.0041   57.7095   65.0408 H   0  0  0  0  0  0  0  0  0  0  0  0
  -43.7553   57.5483   65.2777 H   0  0  0  0  0  0  0  0  0  0  0  0
  -43.1322   59.8654   64.8322 H   0  0  0  0  0  0  0  0  0  0  0  0
  -44.1577   59.1761   63.5545 H   0  0  0  0  0  0  0  0  0  0  0  0
  -38.0122   60.0424   61.9485 H   0  0  0  0  0  0  0  0  0  0  0  0
  -39.4696   59.1554   64.6511 H   0  0  0  0  0  0  0  0  0  0  0  0
  1  9  1  0  0  0  0
  1 24  1  0  0  0  0
  1 25  1  0  0  0  0
  1 26  1  0  0  0  0
  2  4  2  0  0  0  0
  2 10  1  0  0  0  0
  2 27  1  0  0  0  0
  3  5  2  0  0  0  0
  3 10  1  0  0  0  0
  3 28  1  0  0  0  0
  4 11  1  0  0  0  0
  4 29  1  0  0  0  0
  5 12  1  0  0  0  0
  5 30  1  0  0  0  0
  6  7  2  0  0  0  0
  6  8  1  0  0  0  0
  6 31  1  0  0  0  0
  7 19  1  0  0  0  0
  7 32  1  0  0  0  0
  8 21  2  0  0  0  0
  8 33  1  0  0  0  0
  9 11  1  0  0  0  0
  9 34  1  0  0  0  0
  9 35  1  0  0  0  0
 10 36  1  0  0  0  0
 10 37  1  0  0  0  0
 11 38  1  0  0  0  0
 11 39  1  0  0  0  0
 12 13  1  0  0  0  0
 12 40  1  0  0  0  0
 12 41  1  0  0  0  0
 13 14  1  0  0  0  0
 13 42  1  0  0  0  0
 13 43  1  0  0  0  0
 14 15  1  0  0  0  0
 14 44  1  0  0  0  0
 14 45  1  0  0  0  0
 15 16  1  0  0  0  0
 15 46  1  0  0  0  0
 15 47  1  0  0  0  0
 16 17  1  0  0  0  0
 16 48  1  0  0  0  0
 16 49  1  0  0  0  0
 17 18  1  0  0  0  0
 17 50  1  0  0  0  0
 17 51  1  0  0  0  0
 18 21  1  0  0  0  0
 18 52  1  0  0  0  0
 18 53  1  0  0  0  0
 19 20  2  0  0  0  0
 19 22  1  0  0  0  0
 20 21  1  0  0  0  0
 20 23  1  0  0  0  0
 22 54  1  0  0  0  0
 23 55  1  0  0  0  0
M  END
$$$$
/media/chris/experiments/cd1a-new-docking/inputs/ligands/5j1a_ligand.pdb
 OpenBabel07022311203D

 55 55  0  0  0  0  0  0  0  0999 V2000
  -40.1307   54.8880   65.1594 C   0  0  0  0  0  0  0  0  0  0  0  0
  -36.8021   55.8978   66.3593 C   0  0  0  0  0  0  0  0  0  0  0  0
  -37.0549   57.7379   64.7273 C   0  0  0  0  0  0  0  0  0  0  0  0
  -38.2058   56.2280   66.9209 C   0  0  0  0  0  0  0  0  0  0  0  0
  -37.9880   57.9434   63.5180 C   0  0  0  0  0  0  0  0  0  0  0  0
  -40.9346   49.7061   61.4124 C   0  0  0  0  0  0  0  0  0  0  0  0
  -41.8243   49.2114   62.3751 C   0  0  0  0  0  0  0  0  0  0  0  0
  -41.0712   51.0123   60.9276 C   0  0  0  0  0  0  0  0  0  0  0  0
  -40.4702   56.1768   65.9121 C   0  0  0  0  0  0  0  0  0  0  0  0
  -36.3361   56.4050   64.9868 C   0  0  0  0  0  0  0  0  0  0  0  0
  -39.2284   57.0552   66.1175 C   0  0  0  0  0  0  0  0  0  0  0  0
  -38.1263   56.8452   62.4620 C   0  0  0  0  0  0  0  0  0  0  0  0
  -39.5380   56.9300   61.8820 C   0  0  0  0  0  0  0  0  0  0  0  0
  -40.5750   56.7430   62.9900 C   0  0  0  0  0  0  0  0  0  0  0  0
  -41.9730   56.8130   62.3910 C   0  0  0  0  0  0  0  0  0  0  0  0
  -42.1661   55.6996   61.3507 C   0  0  0  0  0  0  0  0  0  0  0  0
  -42.0124   54.2741   61.9416 C   0  0  0  0  0  0  0  0  0  0  0  0
  -42.1905   53.1560   60.8873 C   0  0  0  0  0  0  0  0  0  0  0  0
  -42.8410   50.0454   62.8401 C   0  0  0  0  0  0  0  0  0  0  0  0
  -42.9665   51.3476   62.3590 C   0  0  0  0  0  0  0  0  0  0  0  0
  -42.0687   51.8638   61.4159 C   0  0  0  0  0  0  0  0  0  0  0  0
  -43.7432   49.6422   63.7682 O   0  0  0  0  0  0  0  0  0  0  0  0
  -43.9716   52.1297   62.8487 O   0  0  0  0  0  0  0  0  0  0  0  0
  -41.0181   54.3032   65.0353 H   0  0  0  0  0  0  0  0  0  0  0  0
  -39.4098   54.3282   65.7178 H   0  0  0  0  0  0  0  0  0  0  0  0
  -39.7269   55.1317   64.1990 H   0  0  0  0  0  0  0  0  0  0  0  0
  -36.1601   55.3198   66.9239 H   0  0  0  0  0  0  0  0  0  0  0  0
  -36.9083   58.5205   65.3838 H   0  0  0  0  0  0  0  0  0  0  0  0
  -38.4642   55.8848   67.8593 H   0  0  0  0  0  0  0  0  0  0  0  0
  -38.5198   58.8224   63.4205 H   0  0  0  0  0  0  0  0  0  0  0  0
  -40.1745   49.1042   61.0587 H   0  0  0  0  0  0  0  0  0  0  0  0
  -41.7292   48.2483   62.7334 H   0  0  0  0  0  0  0  0  0  0  0  0
  -40.4255   51.3530   60.1981 H   0  0  0  0  0  0  0  0  0  0  0  0
  -40.8781   55.9233   66.8682 H   0  0  0  0  0  0  0  0  0  0  0  0
  -41.1775   56.7286   65.3289 H   0  0  0  0  0  0  0  0  0  0  0  0
  -36.5927   55.6961   64.2275 H   0  0  0  0  0  0  0  0  0  0  0  0
  -35.2743   56.5364   64.9707 H   0  0  0  0  0  0  0  0  0  0  0  0
  -38.8135   57.3290   65.1700 H   0  0  0  0  0  0  0  0  0  0  0  0
  -39.4832   57.9526   66.6415 H   0  0  0  0  0  0  0  0  0  0  0  0
  -37.9746   55.8864   62.9120 H   0  0  0  0  0  0  0  0  0  0  0  0
  -37.3967   56.9749   61.6902 H   0  0  0  0  0  0  0  0  0  0  0  0
  -39.6646   56.1636   61.1461 H   0  0  0  0  0  0  0  0  0  0  0  0
  -39.6747   57.8920   61.4340 H   0  0  0  0  0  0  0  0  0  0  0  0
  -40.4604   57.5164   63.7205 H   0  0  0  0  0  0  0  0  0  0  0  0
  -40.4329   55.7901   63.4556 H   0  0  0  0  0  0  0  0  0  0  0  0
  -42.1071   57.7638   61.9188 H   0  0  0  0  0  0  0  0  0  0  0  0
  -42.6924   56.6861   63.1729 H   0  0  0  0  0  0  0  0  0  0  0  0
  -41.4374   55.8271   60.5777 H   0  0  0  0  0  0  0  0  0  0  0  0
  -43.1664   55.7826   60.9800 H   0  0  0  0  0  0  0  0  0  0  0  0
  -42.7492   54.1414   62.7060 H   0  0  0  0  0  0  0  0  0  0  0  0
  -41.0169   54.1941   62.3254 H   0  0  0  0  0  0  0  0  0  0  0  0
  -41.4458   53.2835   60.1296 H   0  0  0  0  0  0  0  0  0  0  0  0
  -43.1838   53.2448   60.4995 H   0  0  0  0  0  0  0  0  0  0  0  0
  -43.6976   48.7750   64.1200 H   0  0  0  0  0  0  0  0  0  0  0  0
  -44.5709   51.7820   63.4795 H   0  0  0  0  0  0  0  0  0  0  0  0
  1  9  1  0  0  0  0
  1 24  1  0  0  0  0
  1 25  1  0  0  0  0
  1 26  1  0  0  0  0
  2  4  2  0  0  0  0
  2 10  1  0  0  0  0
  2 27  1  0  0  0  0
  3  5  2  0  0  0  0
  3 10  1  0  0  0  0
  3 28  1  0  0  0  0
  4 11  1  0  0  0  0
  4 29  1  0  0  0  0
  5 12  1  0  0  0  0
  5 30  1  0  0  0  0
  6  7  2  0  0  0  0
  6  8  1  0  0  0  0
  6 31  1  0  0  0  0
  7 19  1  0  0  0  0
  7 32  1  0  0  0  0
  8 21  2  0  0  0  0
  8 33  1  0  0  0  0
  9 11  1  0  0  0  0
  9 34  1  0  0  0  0
  9 35  1  0  0  0  0
 10 36  1  0  0  0  0
 10 37  1  0  0  0  0
 11 38  1  0  0  0  0
 11 39  1  0  0  0  0
 12 13  1  0  0  0  0
 12 40  1  0  0  0  0
 12 41  1  0  0  0  0
 13 14  1  0  0  0  0
 13 42  1  0  0  0  0
 13 43  1  0  0  0  0
 14 15  1  0  0  0  0
 14 44  1  0  0  0  0
 14 45  1  0  0  0  0
 15 16  1  0  0  0  0
 15 46  1  0  0  0  0
 15 47  1  0  0  0  0
 16 17  1  0  0  0  0
 16 48  1  0  0  0  0
 16 49  1  0  0  0  0
 17 18  1  0  0  0  0
 17 50  1  0  0  0  0
 17 51  1  0  0  0  0
 18 21  1  0  0  0  0
 18 52  1  0  0  0  0
 18 53  1  0  0  0  0
 19 20  2  0  0  0  0
 19 22  1  0  0  0  0
 20 21  1  0  0  0  0
 20 23  1  0  0  0  0
 22 54  1  0  0  0  0
 23 55  1  0  0  0  0
M  END
$$$$
/media/chris/experiments/cd1a-new-docking/inputs/ligands/5j1a_ligand.pdb
 OpenBabel07022311203D

 55 55  0  0  0  0  0  0  0  0999 V2000
  -34.2663   62.4516   62.3449 C   0  0  0  0  0  0  0  0  0  0  0  0
  -37.1324   60.8796   60.6537 C   0  0  0  0  0  0  0  0  0  0  0  0
  -36.6457   58.4764   60.9709 C   0  0  0  0  0  0  0  0  0  0  0  0
  -36.9375   62.3481   61.1010 C   0  0  0  0  0  0  0  0  0  0  0  0
  -37.1362   57.0564   61.3152 C   0  0  0  0  0  0  0  0  0  0  0  0
  -43.2604   60.5588   64.4182 C   0  0  0  0  0  0  0  0  0  0  0  0
  -44.3519   61.3700   64.7558 C   0  0  0  0  0  0  0  0  0  0  0  0
  -43.4352   59.4495   63.5822 C   0  0  0  0  0  0  0  0  0  0  0  0
  -35.5201   62.0184   63.1086 C   0  0  0  0  0  0  0  0  0  0  0  0
  -37.2105   59.7258   61.6641 C   0  0  0  0  0  0  0  0  0  0  0  0
  -36.7749   62.7306   62.5852 C   0  0  0  0  0  0  0  0  0  0  0  0
  -38.1263   56.8452   62.4620 C   0  0  0  0  0  0  0  0  0  0  0  0
  -39.5380   56.9300   61.8820 C   0  0  0  0  0  0  0  0  0  0  0  0
  -40.5750   56.7430   62.9900 C   0  0  0  0  0  0  0  0  0  0  0  0
  -41.9730   56.8130   62.3910 C   0  0  0  0  0  0  0  0  0  0  0  0
  -43.0346   56.6452   63.4882 C   0  0  0  0  0  0  0  0  0  0  0  0
  -44.4877   56.6885   62.9483 C   0  0  0  0  0  0  0  0  0  0  0  0
  -44.8286   58.0126   62.2244 C   0  0  0  0  0  0  0  0  0  0  0  0
  -45.6085   61.0521   64.2408 C   0  0  0  0  0  0  0  0  0  0  0  0
  -45.7740   59.9508   63.4026 C   0  0  0  0  0  0  0  0  0  0  0  0
  -44.6875   59.1464   63.0359 C   0  0  0  0  0  0  0  0  0  0  0  0
  -46.7144   61.7842   64.5213 O   0  0  0  0  0  0  0  0  0  0  0  0
  -47.0204   59.6829   62.9162 O   0  0  0  0  0  0  0  0  0  0  0  0
  -33.4144   61.9359   62.7363 H   0  0  0  0  0  0  0  0  0  0  0  0
  -34.1272   63.5066   62.4569 H   0  0  0  0  0  0  0  0  0  0  0  0
  -34.3809   62.2151   61.3077 H   0  0  0  0  0  0  0  0  0  0  0  0
  -37.2122   60.6693   59.6465 H   0  0  0  0  0  0  0  0  0  0  0  0
  -35.9145   58.5916   60.2518 H   0  0  0  0  0  0  0  0  0  0  0  0
  -36.9158   63.0918   60.3858 H   0  0  0  0  0  0  0  0  0  0  0  0
  -36.7965   56.2476   60.7717 H   0  0  0  0  0  0  0  0  0  0  0  0
  -42.3227   60.7803   64.7878 H   0  0  0  0  0  0  0  0  0  0  0  0
  -44.2284   62.1871   65.3739 H   0  0  0  0  0  0  0  0  0  0  0  0
  -42.6272   58.8453   63.3653 H   0  0  0  0  0  0  0  0  0  0  0  0
  -35.3941   62.2536   64.1448 H   0  0  0  0  0  0  0  0  0  0  0  0
  -35.6501   60.9656   62.9686 H   0  0  0  0  0  0  0  0  0  0  0  0
  -38.2275   59.5578   61.9509 H   0  0  0  0  0  0  0  0  0  0  0  0
  -36.6518   59.9557   62.5473 H   0  0  0  0  0  0  0  0  0  0  0  0
  -37.6332   62.4144   63.1404 H   0  0  0  0  0  0  0  0  0  0  0  0
  -36.6801   63.7909   62.6936 H   0  0  0  0  0  0  0  0  0  0  0  0
  -37.9914   57.6045   63.2038 H   0  0  0  0  0  0  0  0  0  0  0  0
  -37.9678   55.8923   62.9220 H   0  0  0  0  0  0  0  0  0  0  0  0
  -39.6646   56.1636   61.1461 H   0  0  0  0  0  0  0  0  0  0  0  0
  -39.6747   57.8920   61.4340 H   0  0  0  0  0  0  0  0  0  0  0  0
  -40.4604   57.5164   63.7205 H   0  0  0  0  0  0  0  0  0  0  0  0
  -40.4329   55.7901   63.4556 H   0  0  0  0  0  0  0  0  0  0  0  0
  -42.0864   56.0321   61.6683 H   0  0  0  0  0  0  0  0  0  0  0  0
  -42.1035   57.7672   61.9248 H   0  0  0  0  0  0  0  0  0  0  0  0
  -42.9137   57.4339   64.2011 H   0  0  0  0  0  0  0  0  0  0  0  0
  -42.8880   55.6799   63.9258 H   0  0  0  0  0  0  0  0  0  0  0  0
  -45.1603   56.5679   63.7716 H   0  0  0  0  0  0  0  0  0  0  0  0
  -44.5847   55.8998   62.2317 H   0  0  0  0  0  0  0  0  0  0  0  0
  -45.8425   57.9623   61.8863 H   0  0  0  0  0  0  0  0  0  0  0  0
  -44.1355   58.1163   61.4158 H   0  0  0  0  0  0  0  0  0  0  0  0
  -46.6509   62.5335   65.0803 H   0  0  0  0  0  0  0  0  0  0  0  0
  -47.7456   60.2225   63.1631 H   0  0  0  0  0  0  0  0  0  0  0  0
  1  9  1  0  0  0  0
  1 24  1  0  0  0  0
  1 25  1  0  0  0  0
  1 26  1  0  0  0  0
  2  4  2  0  0  0  0
  2 10  1  0  0  0  0
  2 27  1  0  0  0  0
  3  5  2  0  0  0  0
  3 10  1  0  0  0  0
  3 28  1  0  0  0  0
  4 11  1  0  0  0  0
  4 29  1  0  0  0  0
  5 12  1  0  0  0  0
  5 30  1  0  0  0  0
  6  7  2  0  0  0  0
  6  8  1  0  0  0  0
  6 31  1  0  0  0  0
  7 19  1  0  0  0  0
  7 32  1  0  0  0  0
  8 21  2  0  0  0  0
  8 33  1  0  0  0  0
  9 11  1  0  0  0  0
  9 34  1  0  0  0  0
  9 35  1  0  0  0  0
 10 36  1  0  0  0  0
 10 37  1  0  0  0  0
 11 38  1  0  0  0  0
 11 39  1  0  0  0  0
 12 13  1  0  0  0  0
 12 40  1  0  0  0  0
 12 41  1  0  0  0  0
 13 14  1  0  0  0  0
 13 42  1  0  0  0  0
 13 43  1  0  0  0  0
 14 15  1  0  0  0  0
 14 44  1  0  0  0  0
 14 45  1  0  0  0  0
 15 16  1  0  0  0  0
 15 46  1  0  0  0  0
 15 47  1  0  0  0  0
 16 17  1  0  0  0  0
 16 48  1  0  0  0  0
 16 49  1  0  0  0  0
 17 18  1  0  0  0  0
 17 50  1  0  0  0  0
 17 51  1  0  0  0  0
 18 21  1  0  0  0  0
 18 52  1  0  0  0  0
 18 53  1  0  0  0  0
 19 20  2  0  0  0  0
 19 22  1  0  0  0  0
 20 21  1  0  0  0  0
 20 23  1  0  0  0  0
 22 54  1  0  0  0  0
 23 55  1  0  0  0  0
M  END
$$$$
/media/chris/experiments/cd1a-new-docking/inputs/ligands/5j1a_ligand.pdb
 OpenBabel07022311203D

 55 55  0  0  0  0  0  0  0  0999 V2000
  -36.6409   60.7327   62.4292 C   0  0  0  0  0  0  0  0  0  0  0  0
  -35.8468   56.7935   65.4359 C   0  0  0  0  0  0  0  0  0  0  0  0
  -37.6416   55.3201   64.5869 C   0  0  0  0  0  0  0  0  0  0  0  0
  -35.2536   58.1271   64.9216 C   0  0  0  0  0  0  0  0  0  0  0  0
  -37.9593   55.4582   63.0851 C   0  0  0  0  0  0  0  0  0  0  0  0
  -46.4036   55.3397   62.3106 C   0  0  0  0  0  0  0  0  0  0  0  0
  -47.0891   54.2097   61.8455 C   0  0  0  0  0  0  0  0  0  0  0  0
  -45.0655   55.2407   62.7100 C   0  0  0  0  0  0  0  0  0  0  0  0
  -35.8101   59.5745   62.9869 C   0  0  0  0  0  0  0  0  0  0  0  0
  -37.3608   56.5401   65.4777 C   0  0  0  0  0  0  0  0  0  0  0  0
  -36.1518   59.2898   64.4558 C   0  0  0  0  0  0  0  0  0  0  0  0
  -38.1263   56.8452   62.4620 C   0  0  0  0  0  0  0  0  0  0  0  0
  -39.5380   56.9300   61.8820 C   0  0  0  0  0  0  0  0  0  0  0  0
  -40.5750   56.7430   62.9900 C   0  0  0  0  0  0  0  0  0  0  0  0
  -41.9730   56.8130   62.3910 C   0  0  0  0  0  0  0  0  0  0  0  0
  -42.1661   55.6996   61.3507 C   0  0  0  0  0  0  0  0  0  0  0  0
  -42.0124   54.2741   61.9416 C   0  0  0  0  0  0  0  0  0  0  0  0
  -43.0412   53.9624   63.0542 C   0  0  0  0  0  0  0  0  0  0  0  0
  -46.4121   52.9918   61.7860 C   0  0  0  0  0  0  0  0  0  0  0  0
  -45.0774   52.9019   62.1778 C   0  0  0  0  0  0  0  0  0  0  0  0
  -44.3722   54.0284   62.6201 C   0  0  0  0  0  0  0  0  0  0  0  0
  -47.0041   51.8526   61.3508 O   0  0  0  0  0  0  0  0  0  0  0  0
  -44.4535   51.6913   62.0949 O   0  0  0  0  0  0  0  0  0  0  0  0
  -36.3761   60.9016   61.4064 H   0  0  0  0  0  0  0  0  0  0  0  0
  -36.4467   61.6176   62.9987 H   0  0  0  0  0  0  0  0  0  0  0  0
  -37.6808   60.4888   62.4928 H   0  0  0  0  0  0  0  0  0  0  0  0
  -35.2060   56.0525   65.7604 H   0  0  0  0  0  0  0  0  0  0  0  0
  -37.6165   54.3780   65.0076 H   0  0  0  0  0  0  0  0  0  0  0  0
  -34.2285   58.2411   64.8897 H   0  0  0  0  0  0  0  0  0  0  0  0
  -38.0595   54.6144   62.4995 H   0  0  0  0  0  0  0  0  0  0  0  0
  -46.8877   56.2499   62.3590 H   0  0  0  0  0  0  0  0  0  0  0  0
  -48.0764   54.2773   61.5526 H   0  0  0  0  0  0  0  0  0  0  0  0
  -44.5823   56.0756   63.0768 H   0  0  0  0  0  0  0  0  0  0  0  0
  -34.7724   59.8249   62.9140 H   0  0  0  0  0  0  0  0  0  0  0  0
  -36.0327   58.6976   62.4155 H   0  0  0  0  0  0  0  0  0  0  0  0
  -37.8861   57.3946   65.1052 H   0  0  0  0  0  0  0  0  0  0  0  0
  -37.6888   56.3619   66.4805 H   0  0  0  0  0  0  0  0  0  0  0  0
  -35.9623   60.1590   65.0504 H   0  0  0  0  0  0  0  0  0  0  0  0
  -37.1854   59.0336   64.5602 H   0  0  0  0  0  0  0  0  0  0  0  0
  -37.4044   56.9844   61.6846 H   0  0  0  0  0  0  0  0  0  0  0  0
  -37.9789   57.6065   63.1994 H   0  0  0  0  0  0  0  0  0  0  0  0
  -39.6646   56.1636   61.1461 H   0  0  0  0  0  0  0  0  0  0  0  0
  -39.6747   57.8920   61.4340 H   0  0  0  0  0  0  0  0  0  0  0  0
  -40.4604   57.5164   63.7205 H   0  0  0  0  0  0  0  0  0  0  0  0
  -40.4329   55.7901   63.4556 H   0  0  0  0  0  0  0  0  0  0  0  0
  -42.1071   57.7638   61.9188 H   0  0  0  0  0  0  0  0  0  0  0  0
  -42.6924   56.6861   63.1729 H   0  0  0  0  0  0  0  0  0  0  0  0
  -41.4374   55.8271   60.5777 H   0  0  0  0  0  0  0  0  0  0  0  0
  -43.1664   55.7826   60.9800 H   0  0  0  0  0  0  0  0  0  0  0  0
  -41.0287   54.1800   62.3518 H   0  0  0  0  0  0  0  0  0  0  0  0
  -42.1837   53.5795   61.1459 H   0  0  0  0  0  0  0  0  0  0  0  0
  -42.9080   54.6694   63.8462 H   0  0  0  0  0  0  0  0  0  0  0  0
  -42.8641   52.9567   63.3735 H   0  0  0  0  0  0  0  0  0  0  0  0
  -47.9002   51.8653   61.0771 H   0  0  0  0  0  0  0  0  0  0  0  0
  -44.9275   50.9392   61.7987 H   0  0  0  0  0  0  0  0  0  0  0  0
  1  9  1  0  0  0  0
  1 24  1  0  0  0  0
  1 25  1  0  0  0  0
  1 26  1  0  0  0  0
  2  4  2  0  0  0  0
  2 10  1  0  0  0  0
  2 27  1  0  0  0  0
  3  5  2  0  0  0  0
  3 10  1  0  0  0  0
  3 28  1  0  0  0  0
  4 11  1  0  0  0  0
  4 29  1  0  0  0  0
  5 12  1  0  0  0  0
  5 30  1  0  0  0  0
  6  7  2  0  0  0  0
  6  8  1  0  0  0  0
  6 31  1  0  0  0  0
  7 19  1  0  0  0  0
  7 32  1  0  0  0  0
  8 21  2  0  0  0  0
  8 33  1  0  0  0  0
  9 11  1  0  0  0  0
  9 34  1  0  0  0  0
  9 35  1  0  0  0  0
 10 36  1  0  0  0  0
 10 37  1  0  0  0  0
 11 38  1  0  0  0  0
 11 39  1  0  0  0  0
 12 13  1  0  0  0  0
 12 40  1  0  0  0  0
 12 41  1  0  0  0  0
 13 14  1  0  0  0  0
 13 42  1  0  0  0  0
 13 43  1  0  0  0  0
 14 15  1  0  0  0  0
 14 44  1  0  0  0  0
 14 45  1  0  0  0  0
 15 16  1  0  0  0  0
 15 46  1  0  0  0  0
 15 47  1  0  0  0  0
 16 17  1  0  0  0  0
 16 48  1  0  0  0  0
 16 49  1  0  0  0  0
 17 18  1  0  0  0  0
 17 50  1  0  0  0  0
 17 51  1  0  0  0  0
 18 21  1  0  0  0  0
 18 52  1  0  0  0  0
 18 53  1  0  0  0  0
 19 20  2  0  0  0  0
 19 22  1  0  0  0  0
 20 21  1  0  0  0  0
 20 23  1  0  0  0  0
 22 54  1  0  0  0  0
 23 55  1  0  0  0  0
M  END
$$$$
/media/chris/experiments/cd1a-new-docking/inputs/ligands/5j1a_ligand.pdb
 OpenBabel07022311203D

 55 55  0  0  0  0  0  0  0  0999 V2000
  -45.2025   60.9426   60.1616 C   0  0  0  0  0  0  0  0  0  0  0  0
  -40.9176   59.2540   58.1673 C   0  0  0  0  0  0  0  0  0  0  0  0
  -41.5245   57.2724   59.5157 C   0  0  0  0  0  0  0  0  0  0  0  0
  -42.0027   60.3538   58.0781 C   0  0  0  0  0  0  0  0  0  0  0  0
  -41.1044   55.9720   60.2283 C   0  0  0  0  0  0  0  0  0  0  0  0
  -46.5942   53.2540   62.5595 C   0  0  0  0  0  0  0  0  0  0  0  0
  -46.7454   53.7903   61.2739 C   0  0  0  0  0  0  0  0  0  0  0  0
  -45.3669   53.3499   63.2262 C   0  0  0  0  0  0  0  0  0  0  0  0
  -44.2982   60.5235   58.9999 C   0  0  0  0  0  0  0  0  0  0  0  0
  -40.6180   58.5125   59.4782 C   0  0  0  0  0  0  0  0  0  0  0  0
  -42.8191   60.7915   59.3100 C   0  0  0  0  0  0  0  0  0  0  0  0
  -39.6997   55.8424   60.8202 C   0  0  0  0  0  0  0  0  0  0  0  0
  -39.5380   56.9300   61.8820 C   0  0  0  0  0  0  0  0  0  0  0  0
  -40.5750   56.7430   62.9900 C   0  0  0  0  0  0  0  0  0  0  0  0
  -41.9730   56.8130   62.3910 C   0  0  0  0  0  0  0  0  0  0  0  0
  -43.0346   56.6452   63.4882 C   0  0  0  0  0  0  0  0  0  0  0  0
  -42.9202   55.3008   64.2526 C   0  0  0  0  0  0  0  0  0  0  0  0
  -43.0586   54.0644   63.3331 C   0  0  0  0  0  0  0  0  0  0  0  0
  -45.6538   54.4214   60.6778 C   0  0  0  0  0  0  0  0  0  0  0  0
  -44.4369   54.5203   61.3504 C   0  0  0  0  0  0  0  0  0  0  0  0
  -44.2789   54.0118   62.6460 C   0  0  0  0  0  0  0  0  0  0  0  0
  -45.7172   54.9633   59.4368 O   0  0  0  0  0  0  0  0  0  0  0  0
  -43.3989   55.1533   60.7309 O   0  0  0  0  0  0  0  0  0  0  0  0
  -46.2228   60.7414   59.9098 H   0  0  0  0  0  0  0  0  0  0  0  0
  -45.0809   61.9891   60.3485 H   0  0  0  0  0  0  0  0  0  0  0  0
  -44.9359   60.3904   61.0384 H   0  0  0  0  0  0  0  0  0  0  0  0
  -40.3795   59.0118   57.3207 H   0  0  0  0  0  0  0  0  0  0  0  0
  -42.4439   57.3115   59.0487 H   0  0  0  0  0  0  0  0  0  0  0  0
  -42.1846   60.8067   57.1688 H   0  0  0  0  0  0  0  0  0  0  0  0
  -41.7712   55.1882   60.3063 H   0  0  0  0  0  0  0  0  0  0  0  0
  -47.3918   52.7859   63.0174 H   0  0  0  0  0  0  0  0  0  0  0  0
  -47.6474   53.7196   60.7775 H   0  0  0  0  0  0  0  0  0  0  0  0
  -45.2627   52.9254   64.1611 H   0  0  0  0  0  0  0  0  0  0  0  0
  -44.5757   61.0764   58.1269 H   0  0  0  0  0  0  0  0  0  0  0  0
  -44.4219   59.4724   58.8420 H   0  0  0  0  0  0  0  0  0  0  0  0
  -40.8288   59.1461   60.3143 H   0  0  0  0  0  0  0  0  0  0  0  0
  -39.5869   58.2311   59.5286 H   0  0  0  0  0  0  0  0  0  0  0  0
  -42.6679   61.8340   59.4973 H   0  0  0  0  0  0  0  0  0  0  0  0
  -42.5112   60.2488   60.1792 H   0  0  0  0  0  0  0  0  0  0  0  0
  -38.9673   55.9727   60.0511 H   0  0  0  0  0  0  0  0  0  0  0  0
  -39.5648   54.8736   61.2538 H   0  0  0  0  0  0  0  0  0  0  0  0
  -39.6739   57.8897   61.4288 H   0  0  0  0  0  0  0  0  0  0  0  0
  -38.5577   56.8621   62.3055 H   0  0  0  0  0  0  0  0  0  0  0  0
  -40.4604   57.5164   63.7205 H   0  0  0  0  0  0  0  0  0  0  0  0
  -40.4329   55.7901   63.4556 H   0  0  0  0  0  0  0  0  0  0  0  0
  -42.0864   56.0321   61.6683 H   0  0  0  0  0  0  0  0  0  0  0  0
  -42.1035   57.7672   61.9248 H   0  0  0  0  0  0  0  0  0  0  0  0
  -44.0025   56.6968   63.0349 H   0  0  0  0  0  0  0  0  0  0  0  0
  -42.8805   57.4287   64.2005 H   0  0  0  0  0  0  0  0  0  0  0  0
  -43.6926   55.2631   64.9921 H   0  0  0  0  0  0  0  0  0  0  0  0
  -41.9441   55.2650   64.6895 H   0  0  0  0  0  0  0  0  0  0  0  0
  -42.9704   53.1837   63.9344 H   0  0  0  0  0  0  0  0  0  0  0  0
  -42.2856   54.1323   62.5964 H   0  0  0  0  0  0  0  0  0  0  0  0
  -46.5150   54.9206   58.9471 H   0  0  0  0  0  0  0  0  0  0  0  0
  -43.5072   55.4926   59.8642 H   0  0  0  0  0  0  0  0  0  0  0  0
  1  9  1  0  0  0  0
  1 24  1  0  0  0  0
  1 25  1  0  0  0  0
  1 26  1  0  0  0  0
  2  4  2  0  0  0  0
  2 10  1  0  0  0  0
  2 27  1  0  0  0  0
  3  5  2  0  0  0  0
  3 10  1  0  0  0  0
  3 28  1  0  0  0  0
  4 11  1  0  0  0  0
  4 29  1  0  0  0  0
  5 12  1  0  0  0  0
  5 30  1  0  0  0  0
  6  7  2  0  0  0  0
  6  8  1  0  0  0  0
  6 31  1  0  0  0  0
  7 19  1  0  0  0  0
  7 32  1  0  0  0  0
  8 21  2  0  0  0  0
  8 33  1  0  0  0  0
  9 11  1  0  0  0  0
  9 34  1  0  0  0  0
  9 35  1  0  0  0  0
 10 36  1  0  0  0  0
 10 37  1  0  0  0  0
 11 38  1  0  0  0  0
 11 39  1  0  0  0  0
 12 13  1  0  0  0  0
 12 40  1  0  0  0  0
 12 41  1  0  0  0  0
 13 14  1  0  0  0  0
 13 42  1  0  0  0  0
 13 43  1  0  0  0  0
 14 15  1  0  0  0  0
 14 44  1  0  0  0  0
 14 45  1  0  0  0  0
 15 16  1  0  0  0  0
 15 46  1  0  0  0  0
 15 47  1  0  0  0  0
 16 17  1  0  0  0  0
 16 48  1  0  0  0  0
 16 49  1  0  0  0  0
 17 18  1  0  0  0  0
 17 50  1  0  0  0  0
 17 51  1  0  0  0  0
 18 21  1  0  0  0  0
 18 52  1  0  0  0  0
 18 53  1  0  0  0  0
 19 20  2  0  0  0  0
 19 22  1  0  0  0  0
 20 21  1  0  0  0  0
 20 23  1  0  0  0  0
 22 54  1  0  0  0  0
 23 55  1  0  0  0  0
M  END
$$$$
/media/chris/experiments/cd1a-new-docking/inputs/ligands/5j1a_ligand.pdb
 OpenBabel07022311203D

 55 55  0  0  0  0  0  0  0  0999 V2000
  -38.4111   51.6237   64.5696 C   0  0  0  0  0  0  0  0  0  0  0  0
  -38.3395   54.4289   61.5747 C   0  0  0  0  0  0  0  0  0  0  0  0
  -36.6153   55.8478   60.5131 C   0  0  0  0  0  0  0  0  0  0  0  0
  -39.0119   53.1447   62.1163 C   0  0  0  0  0  0  0  0  0  0  0  0
  -37.1362   57.0564   61.3152 C   0  0  0  0  0  0  0  0  0  0  0  0
  -42.4539   61.2907   66.9580 C   0  0  0  0  0  0  0  0  0  0  0  0
  -42.7083   62.6015   66.5334 C   0  0  0  0  0  0  0  0  0  0  0  0
  -42.5638   60.2223   66.0600 C   0  0  0  0  0  0  0  0  0  0  0  0
  -37.5103   51.5911   63.3325 C   0  0  0  0  0  0  0  0  0  0  0  0
  -36.9605   54.4014   60.8995 C   0  0  0  0  0  0  0  0  0  0  0  0
  -38.3184   51.7704   62.0401 C   0  0  0  0  0  0  0  0  0  0  0  0
  -38.1263   56.8452   62.4620 C   0  0  0  0  0  0  0  0  0  0  0  0
  -39.5380   56.9300   61.8820 C   0  0  0  0  0  0  0  0  0  0  0  0
  -40.5750   56.7430   62.9900 C   0  0  0  0  0  0  0  0  0  0  0  0
  -41.9730   56.8130   62.3910 C   0  0  0  0  0  0  0  0  0  0  0  0
  -42.1931   58.1680   61.7021 C   0  0  0  0  0  0  0  0  0  0  0  0
  -42.0339   59.3769   62.6604 C   0  0  0  0  0  0  0  0  0  0  0  0
  -43.0176   59.3408   63.8539 C   0  0  0  0  0  0  0  0  0  0  0  0
  -43.0678   62.8178   65.2033 C   0  0  0  0  0  0  0  0  0  0  0  0
  -43.1678   61.7504   64.3126 C   0  0  0  0  0  0  0  0  0  0  0  0
  -42.8911   60.4380   64.7166 C   0  0  0  0  0  0  0  0  0  0  0  0
  -43.3327   64.0543   64.7148 O   0  0  0  0  0  0  0  0  0  0  0  0
  -43.5150   62.0107   63.0190 O   0  0  0  0  0  0  0  0  0  0  0  0
  -37.8145   51.4961   65.4486 H   0  0  0  0  0  0  0  0  0  0  0  0
  -39.1298   50.8334   64.5084 H   0  0  0  0  0  0  0  0  0  0  0  0
  -38.9186   52.5645   64.6165 H   0  0  0  0  0  0  0  0  0  0  0  0
  -38.8324   55.3306   61.6701 H   0  0  0  0  0  0  0  0  0  0  0  0
  -36.0156   56.0155   59.6901 H   0  0  0  0  0  0  0  0  0  0  0  0
  -39.9506   53.2102   62.5401 H   0  0  0  0  0  0  0  0  0  0  0  0
  -36.8168   58.0088   61.0785 H   0  0  0  0  0  0  0  0  0  0  0  0
  -42.1839   61.1119   67.9379 H   0  0  0  0  0  0  0  0  0  0  0  0
  -42.6312   63.3919   67.1924 H   0  0  0  0  0  0  0  0  0  0  0  0
  -42.4008   59.2596   66.3943 H   0  0  0  0  0  0  0  0  0  0  0  0
  -37.0030   50.6496   63.2971 H   0  0  0  0  0  0  0  0  0  0  0  0
  -36.8123   52.3988   63.4055 H   0  0  0  0  0  0  0  0  0  0  0  0
  -36.9927   53.7859   60.0248 H   0  0  0  0  0  0  0  0  0  0  0  0
  -36.2218   53.9980   61.5603 H   0  0  0  0  0  0  0  0  0  0  0  0
  -37.6655   51.7368   61.1930 H   0  0  0  0  0  0  0  0  0  0  0  0
  -39.0409   50.9882   61.9350 H   0  0  0  0  0  0  0  0  0  0  0  0
  -37.9914   57.6045   63.2038 H   0  0  0  0  0  0  0  0  0  0  0  0
  -37.9678   55.8923   62.9220 H   0  0  0  0  0  0  0  0  0  0  0  0
  -39.6646   56.1636   61.1461 H   0  0  0  0  0  0  0  0  0  0  0  0
  -39.6747   57.8920   61.4340 H   0  0  0  0  0  0  0  0  0  0  0  0
  -40.4604   57.5164   63.7205 H   0  0  0  0  0  0  0  0  0  0  0  0
  -40.4329   55.7901   63.4556 H   0  0  0  0  0  0  0  0  0  0  0  0
  -42.6967   56.6917   63.1697 H   0  0  0  0  0  0  0  0  0  0  0  0
  -42.0793   56.0336   61.6657 H   0  0  0  0  0  0  0  0  0  0  0  0
  -43.1825   58.1853   61.2952 H   0  0  0  0  0  0  0  0  0  0  0  0
  -41.4436   58.2636   60.9445 H   0  0  0  0  0  0  0  0  0  0  0  0
  -42.2048   60.2757   62.1056 H   0  0  0  0  0  0  0  0  0  0  0  0
  -41.0433   59.3358   63.0628 H   0  0  0  0  0  0  0  0  0  0  0  0
  -42.8376   58.4471   64.4141 H   0  0  0  0  0  0  0  0  0  0  0  0
  -44.0067   59.3730   63.4472 H   0  0  0  0  0  0  0  0  0  0  0  0
  -43.2781   64.8018   65.2771 H   0  0  0  0  0  0  0  0  0  0  0  0
  -43.6996   62.8895   62.7512 H   0  0  0  0  0  0  0  0  0  0  0  0
  1  9  1  0  0  0  0
  1 24  1  0  0  0  0
  1 25  1  0  0  0  0
  1 26  1  0  0  0  0
  2  4  2  0  0  0  0
  2 10  1  0  0  0  0
  2 27  1  0  0  0  0
  3  5  2  0  0  0  0
  3 10  1  0  0  0  0
  3 28  1  0  0  0  0
  4 11  1  0  0  0  0
  4 29  1  0  0  0  0
  5 12  1  0  0  0  0
  5 30  1  0  0  0  0
  6  7  2  0  0  0  0
  6  8  1  0  0  0  0
  6 31  1  0  0  0  0
  7 19  1  0  0  0  0
  7 32  1  0  0  0  0
  8 21  2  0  0  0  0
  8 33  1  0  0  0  0
  9 11  1  0  0  0  0
  9 34  1  0  0  0  0
  9 35  1  0  0  0  0
 10 36  1  0  0  0  0
 10 37  1  0  0  0  0
 11 38  1  0  0  0  0
 11 39  1  0  0  0  0
 12 13  1  0  0  0  0
 12 40  1  0  0  0  0
 12 41  1  0  0  0  0
 13 14  1  0  0  0  0
 13 42  1  0  0  0  0
 13 43  1  0  0  0  0
 14 15  1  0  0  0  0
 14 44  1  0  0  0  0
 14 45  1  0  0  0  0
 15 16  1  0  0  0  0
 15 46  1  0  0  0  0
 15 47  1  0  0  0  0
 16 17  1  0  0  0  0
 16 48  1  0  0  0  0
 16 49  1  0  0  0  0
 17 18  1  0  0  0  0
 17 50  1  0  0  0  0
 17 51  1  0  0  0  0
 18 21  1  0  0  0  0
 18 52  1  0  0  0  0
 18 53  1  0  0  0  0
 19 20  2  0  0  0  0
 19 22  1  0  0  0  0
 20 21  1  0  0  0  0
 20 23  1  0  0  0  0
 22 54  1  0  0  0  0
 23 55  1  0  0  0  0
M  END
$$$$
/media/chris/experiments/cd1a-new-docking/inputs/ligands/5j1a_ligand.pdb
 OpenBabel07022311203D

 55 55  0  0  0  0  0  0  0  0999 V2000
  -37.6178   53.5807   64.6754 C   0  0  0  0  0  0  0  0  0  0  0  0
  -35.8430   54.5738   61.6660 C   0  0  0  0  0  0  0  0  0  0  0  0
  -37.1363   56.0183   60.1318 C   0  0  0  0  0  0  0  0  0  0  0  0
  -36.4898   53.2067   61.9937 C   0  0  0  0  0  0  0  0  0  0  0  0
  -38.6290   56.0694   59.7515 C   0  0  0  0  0  0  0  0  0  0  0  0
  -49.0797   57.5884   63.5903 C   0  0  0  0  0  0  0  0  0  0  0  0
  -49.5663   56.6082   62.7153 C   0  0  0  0  0  0  0  0  0  0  0  0
  -47.7506   57.5488   64.0283 C   0  0  0  0  0  0  0  0  0  0  0  0
  -38.3814   53.9655   63.4059 C   0  0  0  0  0  0  0  0  0  0  0  0
  -36.6693   55.8658   61.5876 C   0  0  0  0  0  0  0  0  0  0  0  0
  -38.0066   53.0600   62.2247 C   0  0  0  0  0  0  0  0  0  0  0  0
  -39.6997   55.8424   60.8202 C   0  0  0  0  0  0  0  0  0  0  0  0
  -39.5380   56.9300   61.8820 C   0  0  0  0  0  0  0  0  0  0  0  0
  -40.5750   56.7430   62.9900 C   0  0  0  0  0  0  0  0  0  0  0  0
  -41.9730   56.8130   62.3910 C   0  0  0  0  0  0  0  0  0  0  0  0
  -43.0346   56.6452   63.4882 C   0  0  0  0  0  0  0  0  0  0  0  0
  -44.4877   56.6885   62.9483 C   0  0  0  0  0  0  0  0  0  0  0  0
  -45.5541   56.5365   64.0586 C   0  0  0  0  0  0  0  0  0  0  0  0
  -48.7016   55.6000   62.2896 C   0  0  0  0  0  0  0  0  0  0  0  0
  -47.3773   55.5711   62.7234 C   0  0  0  0  0  0  0  0  0  0  0  0
  -46.8702   56.5588   63.5774 C   0  0  0  0  0  0  0  0  0  0  0  0
  -49.0951   54.6143   61.4463 O   0  0  0  0  0  0  0  0  0  0  0  0
  -46.5658   54.5702   62.2745 O   0  0  0  0  0  0  0  0  0  0  0  0
  -37.9041   54.2316   65.4749 H   0  0  0  0  0  0  0  0  0  0  0  0
  -36.5661   53.6717   64.5005 H   0  0  0  0  0  0  0  0  0  0  0  0
  -37.8494   52.5696   64.9383 H   0  0  0  0  0  0  0  0  0  0  0  0
  -34.8262   54.6185   61.4950 H   0  0  0  0  0  0  0  0  0  0  0  0
  -36.4278   56.0887   59.3847 H   0  0  0  0  0  0  0  0  0  0  0  0
  -35.8890   52.3702   62.0594 H   0  0  0  0  0  0  0  0  0  0  0  0
  -38.9063   56.2569   58.7753 H   0  0  0  0  0  0  0  0  0  0  0  0
  -49.7044   58.3435   63.9136 H   0  0  0  0  0  0  0  0  0  0  0  0
  -50.5461   56.6317   62.3919 H   0  0  0  0  0  0  0  0  0  0  0  0
  -47.4145   58.2614   64.6948 H   0  0  0  0  0  0  0  0  0  0  0  0
  -38.1480   54.9789   63.1541 H   0  0  0  0  0  0  0  0  0  0  0  0
  -39.4278   53.8503   63.5969 H   0  0  0  0  0  0  0  0  0  0  0  0
  -36.0668   56.7040   61.8691 H   0  0  0  0  0  0  0  0  0  0  0  0
  -37.5064   55.8224   62.2526 H   0  0  0  0  0  0  0  0  0  0  0  0
  -38.2448   52.0424   62.4541 H   0  0  0  0  0  0  0  0  0  0  0  0
  -38.5510   53.3397   61.3470 H   0  0  0  0  0  0  0  0  0  0  0  0
  -39.5715   54.8777   61.2648 H   0  0  0  0  0  0  0  0  0  0  0  0
  -40.6766   55.8865   60.3858 H   0  0  0  0  0  0  0  0  0  0  0  0
  -39.6739   57.8897   61.4288 H   0  0  0  0  0  0  0  0  0  0  0  0
  -38.5577   56.8621   62.3055 H   0  0  0  0  0  0  0  0  0  0  0  0
  -40.4604   57.5164   63.7205 H   0  0  0  0  0  0  0  0  0  0  0  0
  -40.4329   55.7901   63.4556 H   0  0  0  0  0  0  0  0  0  0  0  0
  -42.0864   56.0321   61.6683 H   0  0  0  0  0  0  0  0  0  0  0  0
  -42.1035   57.7672   61.9248 H   0  0  0  0  0  0  0  0  0  0  0  0
  -42.9137   57.4339   64.2011 H   0  0  0  0  0  0  0  0  0  0  0  0
  -42.8880   55.6799   63.9258 H   0  0  0  0  0  0  0  0  0  0  0  0
  -44.6131   55.8921   62.2447 H   0  0  0  0  0  0  0  0  0  0  0  0
  -44.6315   57.6484   62.4978 H   0  0  0  0  0  0  0  0  0  0  0  0
  -45.4347   57.3400   64.7550 H   0  0  0  0  0  0  0  0  0  0  0  0
  -45.4014   55.5796   64.5124 H   0  0  0  0  0  0  0  0  0  0  0  0
  -49.9764   54.5934   61.1287 H   0  0  0  0  0  0  0  0  0  0  0  0
  -46.9074   53.9106   61.7033 H   0  0  0  0  0  0  0  0  0  0  0  0
  1  9  1  0  0  0  0
  1 24  1  0  0  0  0
  1 25  1  0  0  0  0
  1 26  1  0  0  0  0
  2  4  2  0  0  0  0
  2 10  1  0  0  0  0
  2 27  1  0  0  0  0
  3  5  2  0  0  0  0
  3 10  1  0  0  0  0
  3 28  1  0  0  0  0
  4 11  1  0  0  0  0
  4 29  1  0  0  0  0
  5 12  1  0  0  0  0
  5 30  1  0  0  0  0
  6  7  2  0  0  0  0
  6  8  1  0  0  0  0
  6 31  1  0  0  0  0
  7 19  1  0  0  0  0
  7 32  1  0  0  0  0
  8 21  2  0  0  0  0
  8 33  1  0  0  0  0
  9 11  1  0  0  0  0
  9 34  1  0  0  0  0
  9 35  1  0  0  0  0
 10 36  1  0  0  0  0
 10 37  1  0  0  0  0
 11 38  1  0  0  0  0
 11 39  1  0  0  0  0
 12 13  1  0  0  0  0
 12 40  1  0  0  0  0
 12 41  1  0  0  0  0
 13 14  1  0  0  0  0
 13 42  1  0  0  0  0
 13 43  1  0  0  0  0
 14 15  1  0  0  0  0
 14 44  1  0  0  0  0
 14 45  1  0  0  0  0
 15 16  1  0  0  0  0
 15 46  1  0  0  0  0
 15 47  1  0  0  0  0
 16 17  1  0  0  0  0
 16 48  1  0  0  0  0
 16 49  1  0  0  0  0
 17 18  1  0  0  0  0
 17 50  1  0  0  0  0
 17 51  1  0  0  0  0
 18 21  1  0  0  0  0
 18 52  1  0  0  0  0
 18 53  1  0  0  0  0
 19 20  2  0  0  0  0
 19 22  1  0  0  0  0
 20 21  1  0  0  0  0
 20 23  1  0  0  0  0
 22 54  1  0  0  0  0
 23 55  1  0  0  0  0
M  END
$$$$
/media/chris/experiments/cd1a-new-docking/inputs/ligands/5j1a_ligand.pdb
 OpenBabel07022311203D

 55 55  0  0  0  0  0  0  0  0999 V2000
  -36.7482   58.3002   67.8271 C   0  0  0  0  0  0  0  0  0  0  0  0
  -38.6175   57.4222   65.4480 C   0  0  0  0  0  0  0  0  0  0  0  0
  -37.6416   55.3201   64.5869 C   0  0  0  0  0  0  0  0  0  0  0  0
  -38.5424   58.9601   65.6024 C   0  0  0  0  0  0  0  0  0  0  0  0
  -37.9593   55.4582   63.0851 C   0  0  0  0  0  0  0  0  0  0  0  0
  -39.0761   52.5737   58.9594 C   0  0  0  0  0  0  0  0  0  0  0  0
  -39.2824   53.3627   57.8200 C   0  0  0  0  0  0  0  0  0  0  0  0
  -40.0465   52.5186   59.9670 C   0  0  0  0  0  0  0  0  0  0  0  0
  -36.2253   58.7343   66.4557 C   0  0  0  0  0  0  0  0  0  0  0  0
  -37.3608   56.5401   65.4777 C   0  0  0  0  0  0  0  0  0  0  0  0
  -37.1973   59.6962   65.7588 C   0  0  0  0  0  0  0  0  0  0  0  0
  -38.1263   56.8452   62.4620 C   0  0  0  0  0  0  0  0  0  0  0  0
  -39.5380   56.9300   61.8820 C   0  0  0  0  0  0  0  0  0  0  0  0
  -40.5750   56.7430   62.9900 C   0  0  0  0  0  0  0  0  0  0  0  0
  -41.9730   56.8130   62.3910 C   0  0  0  0  0  0  0  0  0  0  0  0
  -42.1661   55.6996   61.3507 C   0  0  0  0  0  0  0  0  0  0  0  0
  -42.0124   54.2741   61.9416 C   0  0  0  0  0  0  0  0  0  0  0  0
  -42.1905   53.1560   60.8873 C   0  0  0  0  0  0  0  0  0  0  0  0
  -40.4705   54.0849   57.7105 C   0  0  0  0  0  0  0  0  0  0  0  0
  -41.4359   54.0194   58.7138 C   0  0  0  0  0  0  0  0  0  0  0  0
  -41.2545   53.2147   59.8458 C   0  0  0  0  0  0  0  0  0  0  0  0
  -40.7452   54.8730   56.6422 O   0  0  0  0  0  0  0  0  0  0  0  0
  -42.5862   54.7370   58.5598 O   0  0  0  0  0  0  0  0  0  0  0  0
  -36.0464   57.6323   68.2814 H   0  0  0  0  0  0  0  0  0  0  0  0
  -37.6885   57.8034   67.7094 H   0  0  0  0  0  0  0  0  0  0  0  0
  -36.8752   59.1613   68.4493 H   0  0  0  0  0  0  0  0  0  0  0  0
  -39.5395   56.9761   65.3214 H   0  0  0  0  0  0  0  0  0  0  0  0
  -37.6165   54.3780   65.0076 H   0  0  0  0  0  0  0  0  0  0  0  0
  -39.4169   59.5079   65.6006 H   0  0  0  0  0  0  0  0  0  0  0  0
  -38.0595   54.6144   62.4995 H   0  0  0  0  0  0  0  0  0  0  0  0
  -38.2041   52.0303   59.0563 H   0  0  0  0  0  0  0  0  0  0  0  0
  -38.5688   53.4085   57.0759 H   0  0  0  0  0  0  0  0  0  0  0  0
  -39.8680   51.9553   60.8131 H   0  0  0  0  0  0  0  0  0  0  0  0
  -36.0961   57.8668   65.8428 H   0  0  0  0  0  0  0  0  0  0  0  0
  -35.2951   59.2436   66.5981 H   0  0  0  0  0  0  0  0  0  0  0  0
  -37.1584   56.2237   66.4796 H   0  0  0  0  0  0  0  0  0  0  0  0
  -36.5084   57.0811   65.1234 H   0  0  0  0  0  0  0  0  0  0  0  0
  -37.3291   60.5765   66.3526 H   0  0  0  0  0  0  0  0  0  0  0  0
  -36.8158   59.9924   64.8040 H   0  0  0  0  0  0  0  0  0  0  0  0
  -37.4044   56.9844   61.6846 H   0  0  0  0  0  0  0  0  0  0  0  0
  -37.9789   57.6065   63.1994 H   0  0  0  0  0  0  0  0  0  0  0  0
  -39.6646   56.1636   61.1461 H   0  0  0  0  0  0  0  0  0  0  0  0
  -39.6747   57.8920   61.4340 H   0  0  0  0  0  0  0  0  0  0  0  0
  -40.4604   57.5164   63.7205 H   0  0  0  0  0  0  0  0  0  0  0  0
  -40.4329   55.7901   63.4556 H   0  0  0  0  0  0  0  0  0  0  0  0
  -42.1071   57.7638   61.9188 H   0  0  0  0  0  0  0  0  0  0  0  0
  -42.6924   56.6861   63.1729 H   0  0  0  0  0  0  0  0  0  0  0  0
  -41.4374   55.8271   60.5777 H   0  0  0  0  0  0  0  0  0  0  0  0
  -43.1664   55.7826   60.9800 H   0  0  0  0  0  0  0  0  0  0  0  0
  -42.7492   54.1414   62.7060 H   0  0  0  0  0  0  0  0  0  0  0  0
  -41.0169   54.1941   62.3254 H   0  0  0  0  0  0  0  0  0  0  0  0
  -43.1707   53.2403   60.4666 H   0  0  0  0  0  0  0  0  0  0  0  0
  -42.0432   52.2232   61.3902 H   0  0  0  0  0  0  0  0  0  0  0  0
  -40.1254   54.9476   55.9434 H   0  0  0  0  0  0  0  0  0  0  0  0
  -42.7052   55.2745   57.8016 H   0  0  0  0  0  0  0  0  0  0  0  0
  1  9  1  0  0  0  0
  1 24  1  0  0  0  0
  1 25  1  0  0  0  0
  1 26  1  0  0  0  0
  2  4  2  0  0  0  0
  2 10  1  0  0  0  0
  2 27  1  0  0  0  0
  3  5  2  0  0  0  0
  3 10  1  0  0  0  0
  3 28  1  0  0  0  0
  4 11  1  0  0  0  0
  4 29  1  0  0  0  0
  5 12  1  0  0  0  0
  5 30  1  0  0  0  0
  6  7  2  0  0  0  0
  6  8  1  0  0  0  0
  6 31  1  0  0  0  0
  7 19  1  0  0  0  0
  7 32  1  0  0  0  0
  8 21  2  0  0  0  0
  8 33  1  0  0  0  0
  9 11  1  0  0  0  0
  9 34  1  0  0  0  0
  9 35  1  0  0  0  0
 10 36  1  0  0  0  0
 10 37  1  0  0  0  0
 11 38  1  0  0  0  0
 11 39  1  0  0  0  0
 12 13  1  0  0  0  0
 12 40  1  0  0  0  0
 12 41  1  0  0  0  0
 13 14  1  0  0  0  0
 13 42  1  0  0  0  0
 13 43  1  0  0  0  0
 14 15  1  0  0  0  0
 14 44  1  0  0  0  0
 14 45  1  0  0  0  0
 15 16  1  0  0  0  0
 15 46  1  0  0  0  0
 15 47  1  0  0  0  0
 16 17  1  0  0  0  0
 16 48  1  0  0  0  0
 16 49  1  0  0  0  0
 17 18  1  0  0  0  0
 17 50  1  0  0  0  0
 17 51  1  0  0  0  0
 18 21  1  0  0  0  0
 18 52  1  0  0  0  0
 18 53  1  0  0  0  0
 19 20  2  0  0  0  0
 19 22  1  0  0  0  0
 20 21  1  0  0  0  0
 20 23  1  0  0  0  0
 22 54  1  0  0  0  0
 23 55  1  0  0  0  0
M  END
$$$$
/media/chris/experiments/cd1a-new-docking/inputs/ligands/5j1a_ligand.pdb
 OpenBabel07022311203D

 55 55  0  0  0  0  0  0  0  0999 V2000
  -37.5108   62.8991   64.0064 C   0  0  0  0  0  0  0  0  0  0  0  0
  -41.8382   61.8259   61.7021 C   0  0  0  0  0  0  0  0  0  0  0  0
  -42.1174   59.4370   61.1292 C   0  0  0  0  0  0  0  0  0  0  0  0
  -40.6101   62.7674   61.7036 C   0  0  0  0  0  0  0  0  0  0  0  0
  -41.1327   58.3550   60.6442 C   0  0  0  0  0  0  0  0  0  0  0  0
  -38.9248   53.1769   59.1293 C   0  0  0  0  0  0  0  0  0  0  0  0
  -39.3057   53.4144   57.8019 C   0  0  0  0  0  0  0  0  0  0  0  0
  -39.8911   53.0975   60.1392 C   0  0  0  0  0  0  0  0  0  0  0  0
  -38.8723   63.2542   63.4038 C   0  0  0  0  0  0  0  0  0  0  0  0
  -41.7713   60.4021   62.2735 C   0  0  0  0  0  0  0  0  0  0  0  0
  -39.2404   62.3154   62.2468 C   0  0  0  0  0  0  0  0  0  0  0  0
  -39.7162   58.2956   61.2187 C   0  0  0  0  0  0  0  0  0  0  0  0
  -39.5380   56.9300   61.8820 C   0  0  0  0  0  0  0  0  0  0  0  0
  -40.5750   56.7430   62.9900 C   0  0  0  0  0  0  0  0  0  0  0  0
  -41.9730   56.8130   62.3910 C   0  0  0  0  0  0  0  0  0  0  0  0
  -42.1661   55.6996   61.3507 C   0  0  0  0  0  0  0  0  0  0  0  0
  -42.0124   54.2741   61.9416 C   0  0  0  0  0  0  0  0  0  0  0  0
  -42.1905   53.1560   60.8873 C   0  0  0  0  0  0  0  0  0  0  0  0
  -40.6611   53.5654   57.5099 C   0  0  0  0  0  0  0  0  0  0  0  0
  -41.6186   53.4774   58.5190 C   0  0  0  0  0  0  0  0  0  0  0  0
  -41.2545   53.2147   59.8458 C   0  0  0  0  0  0  0  0  0  0  0  0
  -41.1111   53.8000   56.2528 O   0  0  0  0  0  0  0  0  0  0  0  0
  -42.9335   53.6240   58.1851 O   0  0  0  0  0  0  0  0  0  0  0  0
  -37.2887   63.5728   64.8075 H   0  0  0  0  0  0  0  0  0  0  0  0
  -36.7554   62.9796   63.2529 H   0  0  0  0  0  0  0  0  0  0  0  0
  -37.5366   61.8968   64.3800 H   0  0  0  0  0  0  0  0  0  0  0  0
  -42.7286   62.1648   61.3053 H   0  0  0  0  0  0  0  0  0  0  0  0
  -43.0386   59.5157   60.6707 H   0  0  0  0  0  0  0  0  0  0  0  0
  -40.7111   63.7244   61.3306 H   0  0  0  0  0  0  0  0  0  0  0  0
  -41.4292   57.6701   59.9314 H   0  0  0  0  0  0  0  0  0  0  0  0
  -37.9266   53.0598   59.3637 H   0  0  0  0  0  0  0  0  0  0  0  0
  -38.5968   53.4764   57.0546 H   0  0  0  0  0  0  0  0  0  0  0  0
  -39.5931   52.9502   61.1162 H   0  0  0  0  0  0  0  0  0  0  0  0
  -38.8387   64.2593   63.0382 H   0  0  0  0  0  0  0  0  0  0  0  0
  -39.6139   63.1501   64.1681 H   0  0  0  0  0  0  0  0  0  0  0  0
  -42.4766   60.2934   63.0708 H   0  0  0  0  0  0  0  0  0  0  0  0
  -40.7969   60.1947   62.6639 H   0  0  0  0  0  0  0  0  0  0  0  0
  -38.5020   62.3792   61.4751 H   0  0  0  0  0  0  0  0  0  0  0  0
  -39.2839   61.3006   62.5832 H   0  0  0  0  0  0  0  0  0  0  0  0
  -39.5844   59.0720   61.9431 H   0  0  0  0  0  0  0  0  0  0  0  0
  -38.9922   58.4316   60.4428 H   0  0  0  0  0  0  0  0  0  0  0  0
  -38.5560   56.8665   62.3023 H   0  0  0  0  0  0  0  0  0  0  0  0
  -39.6703   56.1642   61.1465 H   0  0  0  0  0  0  0  0  0  0  0  0
  -40.4604   57.5164   63.7205 H   0  0  0  0  0  0  0  0  0  0  0  0
  -40.4329   55.7901   63.4556 H   0  0  0  0  0  0  0  0  0  0  0  0
  -42.1071   57.7638   61.9188 H   0  0  0  0  0  0  0  0  0  0  0  0
  -42.6924   56.6861   63.1729 H   0  0  0  0  0  0  0  0  0  0  0  0
  -41.4374   55.8271   60.5777 H   0  0  0  0  0  0  0  0  0  0  0  0
  -43.1664   55.7826   60.9800 H   0  0  0  0  0  0  0  0  0  0  0  0
  -42.7492   54.1414   62.7060 H   0  0  0  0  0  0  0  0  0  0  0  0
  -41.0169   54.1941   62.3254 H   0  0  0  0  0  0  0  0  0  0  0  0
  -43.1707   53.2403   60.4666 H   0  0  0  0  0  0  0  0  0  0  0  0
  -42.0432   52.2232   61.3902 H   0  0  0  0  0  0  0  0  0  0  0  0
  -40.5036   53.8669   55.5426 H   0  0  0  0  0  0  0  0  0  0  0  0
  -43.1744   53.7998   57.2968 H   0  0  0  0  0  0  0  0  0  0  0  0
  1  9  1  0  0  0  0
  1 24  1  0  0  0  0
  1 25  1  0  0  0  0
  1 26  1  0  0  0  0
  2  4  2  0  0  0  0
  2 10  1  0  0  0  0
  2 27  1  0  0  0  0
  3  5  2  0  0  0  0
  3 10  1  0  0  0  0
  3 28  1  0  0  0  0
  4 11  1  0  0  0  0
  4 29  1  0  0  0  0
  5 12  1  0  0  0  0
  5 30  1  0  0  0  0
  6  7  2  0  0  0  0
  6  8  1  0  0  0  0
  6 31  1  0  0  0  0
  7 19  1  0  0  0  0
  7 32  1  0  0  0  0
  8 21  2  0  0  0  0
  8 33  1  0  0  0  0
  9 11  1  0  0  0  0
  9 34  1  0  0  0  0
  9 35  1  0  0  0  0
 10 36  1  0  0  0  0
 10 37  1  0  0  0  0
 11 38  1  0  0  0  0
 11 39  1  0  0  0  0
 12 13  1  0  0  0  0
 12 40  1  0  0  0  0
 12 41  1  0  0  0  0
 13 14  1  0  0  0  0
 13 42  1  0  0  0  0
 13 43  1  0  0  0  0
 14 15  1  0  0  0  0
 14 44  1  0  0  0  0
 14 45  1  0  0  0  0
 15 16  1  0  0  0  0
 15 46  1  0  0  0  0
 15 47  1  0  0  0  0
 16 17  1  0  0  0  0
 16 48  1  0  0  0  0
 16 49  1  0  0  0  0
 17 18  1  0  0  0  0
 17 50  1  0  0  0  0
 17 51  1  0  0  0  0
 18 21  1  0  0  0  0
 18 52  1  0  0  0  0
 18 53  1  0  0  0  0
 19 20  2  0  0  0  0
 19 22  1  0  0  0  0
 20 21  1  0  0  0  0
 20 23  1  0  0  0  0
 22 54  1  0  0  0  0
 23 55  1  0  0  0  0
M  END
$$$$
/media/chris/experiments/cd1a-new-docking/inputs/ligands/5j1a_ligand.pdb
 OpenBabel07022311203D

 55 55  0  0  0  0  0  0  0  0999 V2000
  -42.9407   61.9093   66.7811 C   0  0  0  0  0  0  0  0  0  0  0  0
  -43.0996   60.0915   62.8083 C   0  0  0  0  0  0  0  0  0  0  0  0
  -40.6482   60.3540   62.6225 C   0  0  0  0  0  0  0  0  0  0  0  0
  -43.3845   61.0007   64.0277 C   0  0  0  0  0  0  0  0  0  0  0  0
  -39.5120   59.3667   62.2916 C   0  0  0  0  0  0  0  0  0  0  0  0
  -44.1184   57.4121   64.8526 C   0  0  0  0  0  0  0  0  0  0  0  0
  -44.8966   58.5636   64.6739 C   0  0  0  0  0  0  0  0  0  0  0  0
  -44.0749   56.4265   63.8593 C   0  0  0  0  0  0  0  0  0  0  0  0
  -41.9005   62.1090   65.6762 C   0  0  0  0  0  0  0  0  0  0  0  0
  -41.9597   60.3872   61.8228 C   0  0  0  0  0  0  0  0  0  0  0  0
  -42.5616   62.2749   64.3010 C   0  0  0  0  0  0  0  0  0  0  0  0
  -39.7162   58.2956   61.2187 C   0  0  0  0  0  0  0  0  0  0  0  0
  -39.5380   56.9300   61.8820 C   0  0  0  0  0  0  0  0  0  0  0  0
  -40.5750   56.7430   62.9900 C   0  0  0  0  0  0  0  0  0  0  0  0
  -41.9730   56.8130   62.3910 C   0  0  0  0  0  0  0  0  0  0  0  0
  -42.1661   55.6996   61.3507 C   0  0  0  0  0  0  0  0  0  0  0  0
  -43.5658   55.7191   60.6834 C   0  0  0  0  0  0  0  0  0  0  0  0
  -44.7248   55.5619   61.6959 C   0  0  0  0  0  0  0  0  0  0  0  0
  -45.6196   58.7074   63.4900 C   0  0  0  0  0  0  0  0  0  0  0  0
  -45.5655   57.7259   62.5017 C   0  0  0  0  0  0  0  0  0  0  0  0
  -44.7717   56.5821   62.6557 C   0  0  0  0  0  0  0  0  0  0  0  0
  -46.3976   59.7894   63.2413 O   0  0  0  0  0  0  0  0  0  0  0  0
  -46.2835   57.9132   61.3566 O   0  0  0  0  0  0  0  0  0  0  0  0
  -42.4442   61.7976   67.7224 H   0  0  0  0  0  0  0  0  0  0  0  0
  -43.5160   61.0311   66.5749 H   0  0  0  0  0  0  0  0  0  0  0  0
  -43.5890   62.7597   66.8185 H   0  0  0  0  0  0  0  0  0  0  0  0
  -43.6933   59.2618   62.6529 H   0  0  0  0  0  0  0  0  0  0  0  0
  -40.5242   61.0139   63.4062 H   0  0  0  0  0  0  0  0  0  0  0  0
  -44.1465   60.7468   64.6758 H   0  0  0  0  0  0  0  0  0  0  0  0
  -38.6127   59.4282   62.7942 H   0  0  0  0  0  0  0  0  0  0  0  0
  -43.5746   57.2898   65.7211 H   0  0  0  0  0  0  0  0  0  0  0  0
  -44.9339   59.2915   65.4045 H   0  0  0  0  0  0  0  0  0  0  0  0
  -43.5197   55.5711   64.0172 H   0  0  0  0  0  0  0  0  0  0  0  0
  -41.2538   61.2569   65.6500 H   0  0  0  0  0  0  0  0  0  0  0  0
  -41.3496   63.0004   65.8924 H   0  0  0  0  0  0  0  0  0  0  0  0
  -42.0966   61.3530   61.3830 H   0  0  0  0  0  0  0  0  0  0  0  0
  -41.9422   59.6645   61.0340 H   0  0  0  0  0  0  0  0  0  0  0  0
  -43.2035   63.1309   64.3048 H   0  0  0  0  0  0  0  0  0  0  0  0
  -41.8217   62.4167   63.5411 H   0  0  0  0  0  0  0  0  0  0  0  0
  -38.9937   58.4187   60.4392 H   0  0  0  0  0  0  0  0  0  0  0  0
  -40.6929   58.3780   60.7895 H   0  0  0  0  0  0  0  0  0  0  0  0
  -38.5560   56.8665   62.3023 H   0  0  0  0  0  0  0  0  0  0  0  0
  -39.6703   56.1642   61.1465 H   0  0  0  0  0  0  0  0  0  0  0  0
  -40.4604   57.5164   63.7205 H   0  0  0  0  0  0  0  0  0  0  0  0
  -40.4329   55.7901   63.4556 H   0  0  0  0  0  0  0  0  0  0  0  0
  -42.1071   57.7638   61.9188 H   0  0  0  0  0  0  0  0  0  0  0  0
  -42.6924   56.6861   63.1729 H   0  0  0  0  0  0  0  0  0  0  0  0
  -42.0344   54.7551   61.8359 H   0  0  0  0  0  0  0  0  0  0  0  0
  -41.4442   55.8600   60.5774 H   0  0  0  0  0  0  0  0  0  0  0  0
  -43.6181   54.9154   59.9789 H   0  0  0  0  0  0  0  0  0  0  0  0
  -43.6810   56.6732   60.2131 H   0  0  0  0  0  0  0  0  0  0  0  0
  -44.6080   54.6263   62.2018 H   0  0  0  0  0  0  0  0  0  0  0  0
  -45.6374   55.6116   61.1394 H   0  0  0  0  0  0  0  0  0  0  0  0
  -46.4644   60.4744   63.8771 H   0  0  0  0  0  0  0  0  0  0  0  0
  -46.8138   58.6792   61.2561 H   0  0  0  0  0  0  0  0  0  0  0  0
  1  9  1  0  0  0  0
  1 24  1  0  0  0  0
  1 25  1  0  0  0  0
  1 26  1  0  0  0  0
  2  4  2  0  0  0  0
  2 10  1  0  0  0  0
  2 27  1  0  0  0  0
  3  5  2  0  0  0  0
  3 10  1  0  0  0  0
  3 28  1  0  0  0  0
  4 11  1  0  0  0  0
  4 29  1  0  0  0  0
  5 12  1  0  0  0  0
  5 30  1  0  0  0  0
  6  7  2  0  0  0  0
  6  8  1  0  0  0  0
  6 31  1  0  0  0  0
  7 19  1  0  0  0  0
  7 32  1  0  0  0  0
  8 21  2  0  0  0  0
  8 33  1  0  0  0  0
  9 11  1  0  0  0  0
  9 34  1  0  0  0  0
  9 35  1  0  0  0  0
 10 36  1  0  0  0  0
 10 37  1  0  0  0  0
 11 38  1  0  0  0  0
 11 39  1  0  0  0  0
 12 13  1  0  0  0  0
 12 40  1  0  0  0  0
 12 41  1  0  0  0  0
 13 14  1  0  0  0  0
 13 42  1  0  0  0  0
 13 43  1  0  0  0  0
 14 15  1  0  0  0  0
 14 44  1  0  0  0  0
 14 45  1  0  0  0  0
 15 16  1  0  0  0  0
 15 46  1  0  0  0  0
 15 47  1  0  0  0  0
 16 17  1  0  0  0  0
 16 48  1  0  0  0  0
 16 49  1  0  0  0  0
 17 18  1  0  0  0  0
 17 50  1  0  0  0  0
 17 51  1  0  0  0  0
 18 21  1  0  0  0  0
 18 52  1  0  0  0  0
 18 53  1  0  0  0  0
 19 20  2  0  0  0  0
 19 22  1  0  0  0  0
 20 21  1  0  0  0  0
 20 23  1  0  0  0  0
 22 54  1  0  0  0  0
 23 55  1  0  0  0  0
M  END
$$$$
/media/chris/experiments/cd1a-new-docking/inputs/ligands/5j1a_ligand.pdb
 OpenBabel07022311203D

 55 55  0  0  0  0  0  0  0  0999 V2000
  -40.2348   53.4077   61.0659 C   0  0  0  0  0  0  0  0  0  0  0  0
  -35.8430   54.5738   61.6660 C   0  0  0  0  0  0  0  0  0  0  0  0
  -37.1363   56.0183   60.1318 C   0  0  0  0  0  0  0  0  0  0  0  0
  -36.4898   53.2067   61.9937 C   0  0  0  0  0  0  0  0  0  0  0  0
  -38.6290   56.0694   59.7515 C   0  0  0  0  0  0  0  0  0  0  0  0
  -43.5558   52.0964   62.3543 C   0  0  0  0  0  0  0  0  0  0  0  0
  -44.3555   51.6261   63.4043 C   0  0  0  0  0  0  0  0  0  0  0  0
  -43.7144   53.4019   61.8742 C   0  0  0  0  0  0  0  0  0  0  0  0
  -38.7126   53.4997   60.9348 C   0  0  0  0  0  0  0  0  0  0  0  0
  -36.6693   55.8658   61.5876 C   0  0  0  0  0  0  0  0  0  0  0  0
  -38.0066   53.0600   62.2247 C   0  0  0  0  0  0  0  0  0  0  0  0
  -39.6997   55.8424   60.8202 C   0  0  0  0  0  0  0  0  0  0  0  0
  -39.5380   56.9300   61.8820 C   0  0  0  0  0  0  0  0  0  0  0  0
  -40.5750   56.7430   62.9900 C   0  0  0  0  0  0  0  0  0  0  0  0
  -41.9730   56.8130   62.3910 C   0  0  0  0  0  0  0  0  0  0  0  0
  -43.0346   56.6452   63.4882 C   0  0  0  0  0  0  0  0  0  0  0  0
  -44.4877   56.6885   62.9483 C   0  0  0  0  0  0  0  0  0  0  0  0
  -44.7906   55.5673   61.9262 C   0  0  0  0  0  0  0  0  0  0  0  0
  -45.3049   52.4833   63.9602 C   0  0  0  0  0  0  0  0  0  0  0  0
  -45.4521   53.7845   63.4827 C   0  0  0  0  0  0  0  0  0  0  0  0
  -44.6421   54.2764   62.4512 C   0  0  0  0  0  0  0  0  0  0  0  0
  -46.1186   52.1044   64.9761 O   0  0  0  0  0  0  0  0  0  0  0  0
  -46.3887   54.5898   64.0625 O   0  0  0  0  0  0  0  0  0  0  0  0
  -40.6912   53.7212   60.1503 H   0  0  0  0  0  0  0  0  0  0  0  0
  -40.5630   54.0413   61.8633 H   0  0  0  0  0  0  0  0  0  0  0  0
  -40.5142   52.3964   61.2758 H   0  0  0  0  0  0  0  0  0  0  0  0
  -34.8262   54.6185   61.4950 H   0  0  0  0  0  0  0  0  0  0  0  0
  -36.4278   56.0887   59.3847 H   0  0  0  0  0  0  0  0  0  0  0  0
  -35.8890   52.3702   62.0594 H   0  0  0  0  0  0  0  0  0  0  0  0
  -38.9063   56.2569   58.7753 H   0  0  0  0  0  0  0  0  0  0  0  0
  -42.8462   51.4771   61.9325 H   0  0  0  0  0  0  0  0  0  0  0  0
  -44.2441   50.6636   63.7597 H   0  0  0  0  0  0  0  0  0  0  0  0
  -43.1376   53.7247   61.0817 H   0  0  0  0  0  0  0  0  0  0  0  0
  -38.4432   54.5126   60.7195 H   0  0  0  0  0  0  0  0  0  0  0  0
  -38.4047   52.8463   60.1454 H   0  0  0  0  0  0  0  0  0  0  0  0
  -36.0668   56.7040   61.8691 H   0  0  0  0  0  0  0  0  0  0  0  0
  -37.5064   55.8224   62.2526 H   0  0  0  0  0  0  0  0  0  0  0  0
  -38.3141   53.6812   63.0398 H   0  0  0  0  0  0  0  0  0  0  0  0
  -38.2557   52.0475   62.4651 H   0  0  0  0  0  0  0  0  0  0  0  0
  -39.5715   54.8777   61.2648 H   0  0  0  0  0  0  0  0  0  0  0  0
  -40.6766   55.8865   60.3858 H   0  0  0  0  0  0  0  0  0  0  0  0
  -39.6739   57.8897   61.4288 H   0  0  0  0  0  0  0  0  0  0  0  0
  -38.5577   56.8621   62.3055 H   0  0  0  0  0  0  0  0  0  0  0  0
  -40.4604   57.5164   63.7205 H   0  0  0  0  0  0  0  0  0  0  0  0
  -40.4329   55.7901   63.4556 H   0  0  0  0  0  0  0  0  0  0  0  0
  -42.0864   56.0321   61.6683 H   0  0  0  0  0  0  0  0  0  0  0  0
  -42.1035   57.7672   61.9248 H   0  0  0  0  0  0  0  0  0  0  0  0
  -42.9137   57.4339   64.2011 H   0  0  0  0  0  0  0  0  0  0  0  0
  -42.8880   55.6799   63.9258 H   0  0  0  0  0  0  0  0  0  0  0  0
  -44.6460   57.6340   62.4730 H   0  0  0  0  0  0  0  0  0  0  0  0
  -45.1418   56.5440   63.7826 H   0  0  0  0  0  0  0  0  0  0  0  0
  -44.1221   55.6748   61.0977 H   0  0  0  0  0  0  0  0  0  0  0  0
  -45.8154   55.6734   61.6376 H   0  0  0  0  0  0  0  0  0  0  0  0
  -46.0552   51.2388   65.3292 H   0  0  0  0  0  0  0  0  0  0  0  0
  -46.9293   54.2584   64.7523 H   0  0  0  0  0  0  0  0  0  0  0  0
  1  9  1  0  0  0  0
  1 24  1  0  0  0  0
  1 25  1  0  0  0  0
  1 26  1  0  0  0  0
  2  4  2  0  0  0  0
  2 10  1  0  0  0  0
  2 27  1  0  0  0  0
  3  5  2  0  0  0  0
  3 10  1  0  0  0  0
  3 28  1  0  0  0  0
  4 11  1  0  0  0  0
  4 29  1  0  0  0  0
  5 12  1  0  0  0  0
  5 30  1  0  0  0  0
  6  7  2  0  0  0  0
  6  8  1  0  0  0  0
  6 31  1  0  0  0  0
  7 19  1  0  0  0  0
  7 32  1  0  0  0  0
  8 21  2  0  0  0  0
  8 33  1  0  0  0  0
  9 11  1  0  0  0  0
  9 34  1  0  0  0  0
  9 35  1  0  0  0  0
 10 36  1  0  0  0  0
 10 37  1  0  0  0  0
 11 38  1  0  0  0  0
 11 39  1  0  0  0  0
 12 13  1  0  0  0  0
 12 40  1  0  0  0  0
 12 41  1  0  0  0  0
 13 14  1  0  0  0  0
 13 42  1  0  0  0  0
 13 43  1  0  0  0  0
 14 15  1  0  0  0  0
 14 44  1  0  0  0  0
 14 45  1  0  0  0  0
 15 16  1  0  0  0  0
 15 46  1  0  0  0  0
 15 47  1  0  0  0  0
 16 17  1  0  0  0  0
 16 48  1  0  0  0  0
 16 49  1  0  0  0  0
 17 18  1  0  0  0  0
 17 50  1  0  0  0  0
 17 51  1  0  0  0  0
 18 21  1  0  0  0  0
 18 52  1  0  0  0  0
 18 53  1  0  0  0  0
 19 20  2  0  0  0  0
 19 22  1  0  0  0  0
 20 21  1  0  0  0  0
 20 23  1  0  0  0  0
 22 54  1  0  0  0  0
 23 55  1  0  0  0  0
M  END
$$$$
/media/chris/experiments/cd1a-new-docking/inputs/ligands/5j1a_ligand.pdb
 OpenBabel07022311203D

 55 55  0  0  0  0  0  0  0  0999 V2000
  -38.1698   53.3969   62.7003 C   0  0  0  0  0  0  0  0  0  0  0  0
  -37.7997   55.3732   65.7830 C   0  0  0  0  0  0  0  0  0  0  0  0
  -38.3458   57.6497   64.9881 C   0  0  0  0  0  0  0  0  0  0  0  0
  -37.9017   53.8396   65.6029 C   0  0  0  0  0  0  0  0  0  0  0  0
  -37.9880   57.9434   63.5180 C   0  0  0  0  0  0  0  0  0  0  0  0
  -45.2361   58.1883   67.3641 C   0  0  0  0  0  0  0  0  0  0  0  0
  -45.4735   59.5322   67.0465 C   0  0  0  0  0  0  0  0  0  0  0  0
  -45.2697   57.2086   66.3646 C   0  0  0  0  0  0  0  0  0  0  0  0
  -39.3625   53.7216   63.6029 C   0  0  0  0  0  0  0  0  0  0  0  0
  -38.9615   56.3122   65.4271 C   0  0  0  0  0  0  0  0  0  0  0  0
  -39.1635   53.1718   65.0220 C   0  0  0  0  0  0  0  0  0  0  0  0
  -38.1263   56.8452   62.4620 C   0  0  0  0  0  0  0  0  0  0  0  0
  -39.5380   56.9300   61.8820 C   0  0  0  0  0  0  0  0  0  0  0  0
  -40.5750   56.7430   62.9900 C   0  0  0  0  0  0  0  0  0  0  0  0
  -41.9730   56.8130   62.3910 C   0  0  0  0  0  0  0  0  0  0  0  0
  -43.0346   56.6452   63.4882 C   0  0  0  0  0  0  0  0  0  0  0  0
  -44.4877   56.6885   62.9483 C   0  0  0  0  0  0  0  0  0  0  0  0
  -45.5541   56.5365   64.0586 C   0  0  0  0  0  0  0  0  0  0  0  0
  -45.7388   59.8711   65.7198 C   0  0  0  0  0  0  0  0  0  0  0  0
  -45.7629   58.8917   64.7283 C   0  0  0  0  0  0  0  0  0  0  0  0
  -45.5019   57.5483   65.0270 C   0  0  0  0  0  0  0  0  0  0  0  0
  -45.9812   61.1470   65.3310 O   0  0  0  0  0  0  0  0  0  0  0  0
  -46.0191   59.2711   63.4429 O   0  0  0  0  0  0  0  0  0  0  0  0
  -38.3439   53.7946   61.7224 H   0  0  0  0  0  0  0  0  0  0  0  0
  -38.0487   52.3356   62.6373 H   0  0  0  0  0  0  0  0  0  0  0  0
  -37.2830   53.8334   63.1102 H   0  0  0  0  0  0  0  0  0  0  0  0
  -36.9251   55.7768   66.1533 H   0  0  0  0  0  0  0  0  0  0  0  0
  -38.1661   58.3746   65.7003 H   0  0  0  0  0  0  0  0  0  0  0  0
  -37.1029   53.2476   65.8794 H   0  0  0  0  0  0  0  0  0  0  0  0
  -37.6549   58.8815   63.2458 H   0  0  0  0  0  0  0  0  0  0  0  0
  -45.0354   57.9193   68.3399 H   0  0  0  0  0  0  0  0  0  0  0  0
  -45.4524   60.2575   67.7803 H   0  0  0  0  0  0  0  0  0  0  0  0
  -45.1207   56.2194   66.6184 H   0  0  0  0  0  0  0  0  0  0  0  0
  -40.2449   53.2862   63.1825 H   0  0  0  0  0  0  0  0  0  0  0  0
  -39.4543   54.7858   63.6662 H   0  0  0  0  0  0  0  0  0  0  0  0
  -39.5884   56.4601   66.2814 H   0  0  0  0  0  0  0  0  0  0  0  0
  -39.5613   55.8952   64.6453 H   0  0  0  0  0  0  0  0  0  0  0  0
  -40.0136   53.4072   65.6278 H   0  0  0  0  0  0  0  0  0  0  0  0
  -39.0527   52.1078   65.0026 H   0  0  0  0  0  0  0  0  0  0  0  0
  -37.9746   55.8864   62.9120 H   0  0  0  0  0  0  0  0  0  0  0  0
  -37.3967   56.9749   61.6902 H   0  0  0  0  0  0  0  0  0  0  0  0
  -39.6646   56.1636   61.1461 H   0  0  0  0  0  0  0  0  0  0  0  0
  -39.6747   57.8920   61.4340 H   0  0  0  0  0  0  0  0  0  0  0  0
  -40.4604   57.5164   63.7205 H   0  0  0  0  0  0  0  0  0  0  0  0
  -40.4329   55.7901   63.4556 H   0  0  0  0  0  0  0  0  0  0  0  0
  -42.0864   56.0321   61.6683 H   0  0  0  0  0  0  0  0  0  0  0  0
  -42.1035   57.7672   61.9248 H   0  0  0  0  0  0  0  0  0  0  0  0
  -42.9137   57.4339   64.2011 H   0  0  0  0  0  0  0  0  0  0  0  0
  -42.8880   55.6799   63.9258 H   0  0  0  0  0  0  0  0  0  0  0  0
  -44.6131   55.8921   62.2447 H   0  0  0  0  0  0  0  0  0  0  0  0
  -44.6315   57.6484   62.4978 H   0  0  0  0  0  0  0  0  0  0  0  0
  -45.4053   55.5949   64.5444 H   0  0  0  0  0  0  0  0  0  0  0  0
  -46.5118   56.6028   63.5860 H   0  0  0  0  0  0  0  0  0  0  0  0
  -45.9752   61.8385   65.9632 H   0  0  0  0  0  0  0  0  0  0  0  0
  -46.1934   60.1704   63.2458 H   0  0  0  0  0  0  0  0  0  0  0  0
  1  9  1  0  0  0  0
  1 24  1  0  0  0  0
  1 25  1  0  0  0  0
  1 26  1  0  0  0  0
  2  4  2  0  0  0  0
  2 10  1  0  0  0  0
  2 27  1  0  0  0  0
  3  5  2  0  0  0  0
  3 10  1  0  0  0  0
  3 28  1  0  0  0  0
  4 11  1  0  0  0  0
  4 29  1  0  0  0  0
  5 12  1  0  0  0  0
  5 30  1  0  0  0  0
  6  7  2  0  0  0  0
  6  8  1  0  0  0  0
  6 31  1  0  0  0  0
  7 19  1  0  0  0  0
  7 32  1  0  0  0  0
  8 21  2  0  0  0  0
  8 33  1  0  0  0  0
  9 11  1  0  0  0  0
  9 34  1  0  0  0  0
  9 35  1  0  0  0  0
 10 36  1  0  0  0  0
 10 37  1  0  0  0  0
 11 38  1  0  0  0  0
 11 39  1  0  0  0  0
 12 13  1  0  0  0  0
 12 40  1  0  0  0  0
 12 41  1  0  0  0  0
 13 14  1  0  0  0  0
 13 42  1  0  0  0  0
 13 43  1  0  0  0  0
 14 15  1  0  0  0  0
 14 44  1  0  0  0  0
 14 45  1  0  0  0  0
 15 16  1  0  0  0  0
 15 46  1  0  0  0  0
 15 47  1  0  0  0  0
 16 17  1  0  0  0  0
 16 48  1  0  0  0  0
 16 49  1  0  0  0  0
 17 18  1  0  0  0  0
 17 50  1  0  0  0  0
 17 51  1  0  0  0  0
 18 21  1  0  0  0  0
 18 52  1  0  0  0  0
 18 53  1  0  0  0  0
 19 20  2  0  0  0  0
 19 22  1  0  0  0  0
 20 21  1  0  0  0  0
 20 23  1  0  0  0  0
 22 54  1  0  0  0  0
 23 55  1  0  0  0  0
M  END
$$$$
/media/chris/experiments/cd1a-new-docking/inputs/ligands/5j1a_ligand.pdb
 OpenBabel07022311203D

 55 55  0  0  0  0  0  0  0  0999 V2000
  -33.8341   58.3933   63.0720 C   0  0  0  0  0  0  0  0  0  0  0  0
  -38.3029   60.0485   62.4841 C   0  0  0  0  0  0  0  0  0  0  0  0
  -37.6248   59.5521   60.1588 C   0  0  0  0  0  0  0  0  0  0  0  0
  -37.6681   58.8449   63.2212 C   0  0  0  0  0  0  0  0  0  0  0  0
  -38.6676   58.4181   60.1118 C   0  0  0  0  0  0  0  0  0  0  0  0
  -43.9219   50.7465   64.6783 C   0  0  0  0  0  0  0  0  0  0  0  0
  -42.6704   50.1305   64.8110 C   0  0  0  0  0  0  0  0  0  0  0  0
  -44.0275   52.0162   64.0979 C   0  0  0  0  0  0  0  0  0  0  0  0
  -35.2042   58.9384   63.4825 C   0  0  0  0  0  0  0  0  0  0  0  0
  -37.6679   60.6573   61.2253 C   0  0  0  0  0  0  0  0  0  0  0  0
  -36.3429   58.2124   62.7531 C   0  0  0  0  0  0  0  0  0  0  0  0
  -39.7162   58.2956   61.2187 C   0  0  0  0  0  0  0  0  0  0  0  0
  -39.5380   56.9300   61.8820 C   0  0  0  0  0  0  0  0  0  0  0  0
  -40.5750   56.7430   62.9900 C   0  0  0  0  0  0  0  0  0  0  0  0
  -41.9730   56.8130   62.3910 C   0  0  0  0  0  0  0  0  0  0  0  0
  -42.1661   55.6996   61.3507 C   0  0  0  0  0  0  0  0  0  0  0  0
  -42.0124   54.2741   61.9416 C   0  0  0  0  0  0  0  0  0  0  0  0
  -43.0412   53.9624   63.0542 C   0  0  0  0  0  0  0  0  0  0  0  0
  -41.5390   50.8043   64.3515 C   0  0  0  0  0  0  0  0  0  0  0  0
  -41.6522   52.0649   63.7674 C   0  0  0  0  0  0  0  0  0  0  0  0
  -42.8994   52.6814   63.6047 C   0  0  0  0  0  0  0  0  0  0  0  0
  -40.2930   50.2787   64.4452 O   0  0  0  0  0  0  0  0  0  0  0  0
  -40.5189   52.6829   63.3253 O   0  0  0  0  0  0  0  0  0  0  0  0
  -33.0675   58.9218   63.5992 H   0  0  0  0  0  0  0  0  0  0  0  0
  -33.6986   58.5253   62.0189 H   0  0  0  0  0  0  0  0  0  0  0  0
  -33.7783   57.3518   63.3110 H   0  0  0  0  0  0  0  0  0  0  0  0
  -39.1788   60.4540   62.8493 H   0  0  0  0  0  0  0  0  0  0  0  0
  -36.8736   59.5696   59.4514 H   0  0  0  0  0  0  0  0  0  0  0  0
  -38.1453   58.4551   64.0491 H   0  0  0  0  0  0  0  0  0  0  0  0
  -38.6584   57.7411   59.3329 H   0  0  0  0  0  0  0  0  0  0  0  0
  -44.7704   50.2618   65.0101 H   0  0  0  0  0  0  0  0  0  0  0  0
  -42.5874   49.1959   65.2407 H   0  0  0  0  0  0  0  0  0  0  0  0
  -44.9525   52.4689   64.0326 H   0  0  0  0  0  0  0  0  0  0  0  0
  -35.2486   59.9807   63.2450 H   0  0  0  0  0  0  0  0  0  0  0  0
  -35.3259   58.7803   64.5338 H   0  0  0  0  0  0  0  0  0  0  0  0
  -36.6766   60.9965   61.4421 H   0  0  0  0  0  0  0  0  0  0  0  0
  -38.2361   61.4959   60.8807 H   0  0  0  0  0  0  0  0  0  0  0  0
  -36.2343   58.3320   61.6953 H   0  0  0  0  0  0  0  0  0  0  0  0
  -36.3255   57.1655   62.9735 H   0  0  0  0  0  0  0  0  0  0  0  0
  -40.6980   58.3716   60.8001 H   0  0  0  0  0  0  0  0  0  0  0  0
  -39.5944   59.0789   61.9374 H   0  0  0  0  0  0  0  0  0  0  0  0
  -38.5560   56.8665   62.3023 H   0  0  0  0  0  0  0  0  0  0  0  0
  -39.6703   56.1642   61.1465 H   0  0  0  0  0  0  0  0  0  0  0  0
  -40.4604   57.5164   63.7205 H   0  0  0  0  0  0  0  0  0  0  0  0
  -40.4329   55.7901   63.4556 H   0  0  0  0  0  0  0  0  0  0  0  0
  -42.1071   57.7638   61.9188 H   0  0  0  0  0  0  0  0  0  0  0  0
  -42.6924   56.6861   63.1729 H   0  0  0  0  0  0  0  0  0  0  0  0
  -41.4374   55.8271   60.5777 H   0  0  0  0  0  0  0  0  0  0  0  0
  -43.1664   55.7826   60.9800 H   0  0  0  0  0  0  0  0  0  0  0  0
  -41.0287   54.1800   62.3518 H   0  0  0  0  0  0  0  0  0  0  0  0
  -42.1837   53.5795   61.1459 H   0  0  0  0  0  0  0  0  0  0  0  0
  -44.0241   54.0458   62.6395 H   0  0  0  0  0  0  0  0  0  0  0  0
  -42.8727   54.6645   63.8439 H   0  0  0  0  0  0  0  0  0  0  0  0
  -40.1687   49.4337   64.8306 H   0  0  0  0  0  0  0  0  0  0  0  0
  -39.6858   52.2683   63.4353 H   0  0  0  0  0  0  0  0  0  0  0  0
  1  9  1  0  0  0  0
  1 24  1  0  0  0  0
  1 25  1  0  0  0  0
  1 26  1  0  0  0  0
  2  4  2  0  0  0  0
  2 10  1  0  0  0  0
  2 27  1  0  0  0  0
  3  5  2  0  0  0  0
  3 10  1  0  0  0  0
  3 28  1  0  0  0  0
  4 11  1  0  0  0  0
  4 29  1  0  0  0  0
  5 12  1  0  0  0  0
  5 30  1  0  0  0  0
  6  7  2  0  0  0  0
  6  8  1  0  0  0  0
  6 31  1  0  0  0  0
  7 19  1  0  0  0  0
  7 32  1  0  0  0  0
  8 21  2  0  0  0  0
  8 33  1  0  0  0  0
  9 11  1  0  0  0  0
  9 34  1  0  0  0  0
  9 35  1  0  0  0  0
 10 36  1  0  0  0  0
 10 37  1  0  0  0  0
 11 38  1  0  0  0  0
 11 39  1  0  0  0  0
 12 13  1  0  0  0  0
 12 40  1  0  0  0  0
 12 41  1  0  0  0  0
 13 14  1  0  0  0  0
 13 42  1  0  0  0  0
 13 43  1  0  0  0  0
 14 15  1  0  0  0  0
 14 44  1  0  0  0  0
 14 45  1  0  0  0  0
 15 16  1  0  0  0  0
 15 46  1  0  0  0  0
 15 47  1  0  0  0  0
 16 17  1  0  0  0  0
 16 48  1  0  0  0  0
 16 49  1  0  0  0  0
 17 18  1  0  0  0  0
 17 50  1  0  0  0  0
 17 51  1  0  0  0  0
 18 21  1  0  0  0  0
 18 52  1  0  0  0  0
 18 53  1  0  0  0  0
 19 20  2  0  0  0  0
 19 22  1  0  0  0  0
 20 21  1  0  0  0  0
 20 23  1  0  0  0  0
 22 54  1  0  0  0  0
 23 55  1  0  0  0  0
M  END
$$$$
/media/chris/experiments/cd1a-new-docking/inputs/ligands/5j1a_ligand.pdb
 OpenBabel07022311203D

 55 55  0  0  0  0  0  0  0  0999 V2000
  -35.3788   49.5068   60.9519 C   0  0  0  0  0  0  0  0  0  0  0  0
  -34.8513   53.8412   61.1700 C   0  0  0  0  0  0  0  0  0  0  0  0
  -36.1152   55.9563   60.9649 C   0  0  0  0  0  0  0  0  0  0  0  0
  -35.1076   52.4106   60.6386 C   0  0  0  0  0  0  0  0  0  0  0  0
  -37.1362   57.0564   61.3152 C   0  0  0  0  0  0  0  0  0  0  0  0
  -46.5326   56.6394   57.3811 C   0  0  0  0  0  0  0  0  0  0  0  0
  -47.6442   57.1849   58.0368 C   0  0  0  0  0  0  0  0  0  0  0  0
  -45.2857   56.5995   58.0164 C   0  0  0  0  0  0  0  0  0  0  0  0
  -36.3916   50.4913   61.5415 C   0  0  0  0  0  0  0  0  0  0  0  0
  -35.9655   54.6821   61.8102 C   0  0  0  0  0  0  0  0  0  0  0  0
  -36.5053   51.7631   60.6899 C   0  0  0  0  0  0  0  0  0  0  0  0
  -38.1263   56.8452   62.4620 C   0  0  0  0  0  0  0  0  0  0  0  0
  -39.5380   56.9300   61.8820 C   0  0  0  0  0  0  0  0  0  0  0  0
  -40.5750   56.7430   62.9900 C   0  0  0  0  0  0  0  0  0  0  0  0
  -41.9730   56.8130   62.3910 C   0  0  0  0  0  0  0  0  0  0  0  0
  -42.1661   55.6996   61.3507 C   0  0  0  0  0  0  0  0  0  0  0  0
  -43.5658   55.7191   60.6834 C   0  0  0  0  0  0  0  0  0  0  0  0
  -43.8575   57.0325   59.9198 C   0  0  0  0  0  0  0  0  0  0  0  0
  -47.4832   57.6809   59.3304 C   0  0  0  0  0  0  0  0  0  0  0  0
  -46.2406   57.6308   59.9601 C   0  0  0  0  0  0  0  0  0  0  0  0
  -45.1269   57.0649   59.3266 C   0  0  0  0  0  0  0  0  0  0  0  0
  -48.5072   58.2264   60.0314 O   0  0  0  0  0  0  0  0  0  0  0  0
  -46.1323   58.1209   61.2289 O   0  0  0  0  0  0  0  0  0  0  0  0
  -35.3268   48.6353   61.5704 H   0  0  0  0  0  0  0  0  0  0  0  0
  -34.4154   49.9703   60.9070 H   0  0  0  0  0  0  0  0  0  0  0  0
  -35.6860   49.2266   59.9660 H   0  0  0  0  0  0  0  0  0  0  0  0
  -33.9036   54.2421   61.0919 H   0  0  0  0  0  0  0  0  0  0  0  0
  -35.5128   56.0795   60.1360 H   0  0  0  0  0  0  0  0  0  0  0  0
  -34.3210   51.8754   60.2388 H   0  0  0  0  0  0  0  0  0  0  0  0
  -37.1519   57.9361   60.7758 H   0  0  0  0  0  0  0  0  0  0  0  0
  -46.6335   56.2652   56.4246 H   0  0  0  0  0  0  0  0  0  0  0  0
  -48.5647   57.2190   57.5715 H   0  0  0  0  0  0  0  0  0  0  0  0
  -44.4701   56.2205   57.5102 H   0  0  0  0  0  0  0  0  0  0  0  0
  -36.0793   50.7612   62.5287 H   0  0  0  0  0  0  0  0  0  0  0  0
  -37.3494   50.0146   61.5606 H   0  0  0  0  0  0  0  0  0  0  0  0
  -35.7008   54.9376   62.8149 H   0  0  0  0  0  0  0  0  0  0  0  0
  -36.8849   54.1354   61.8396 H   0  0  0  0  0  0  0  0  0  0  0  0
  -36.8291   51.5133   59.7012 H   0  0  0  0  0  0  0  0  0  0  0  0
  -37.2190   52.4385   61.1135 H   0  0  0  0  0  0  0  0  0  0  0  0
  -37.9914   57.6045   63.2038 H   0  0  0  0  0  0  0  0  0  0  0  0
  -37.9678   55.8923   62.9220 H   0  0  0  0  0  0  0  0  0  0  0  0
  -39.6646   56.1636   61.1461 H   0  0  0  0  0  0  0  0  0  0  0  0
  -39.6747   57.8920   61.4340 H   0  0  0  0  0  0  0  0  0  0  0  0
  -40.4604   57.5164   63.7205 H   0  0  0  0  0  0  0  0  0  0  0  0
  -40.4329   55.7901   63.4556 H   0  0  0  0  0  0  0  0  0  0  0  0
  -42.1071   57.7638   61.9188 H   0  0  0  0  0  0  0  0  0  0  0  0
  -42.6924   56.6861   63.1729 H   0  0  0  0  0  0  0  0  0  0  0  0
  -42.0344   54.7551   61.8359 H   0  0  0  0  0  0  0  0  0  0  0  0
  -41.4442   55.8600   60.5774 H   0  0  0  0  0  0  0  0  0  0  0  0
  -44.3075   55.5962   61.4447 H   0  0  0  0  0  0  0  0  0  0  0  0
  -43.5887   54.9233   59.9684 H   0  0  0  0  0  0  0  0  0  0  0  0
  -43.1218   57.1481   59.1515 H   0  0  0  0  0  0  0  0  0  0  0  0
  -43.8249   57.8266   60.6362 H   0  0  0  0  0  0  0  0  0  0  0  0
  -49.3605   58.2811   59.6482 H   0  0  0  0  0  0  0  0  0  0  0  0
  -46.8789   58.4989   61.6504 H   0  0  0  0  0  0  0  0  0  0  0  0
  1  9  1  0  0  0  0
  1 24  1  0  0  0  0
  1 25  1  0  0  0  0
  1 26  1  0  0  0  0
  2  4  2  0  0  0  0
  2 10  1  0  0  0  0
  2 27  1  0  0  0  0
  3  5  2  0  0  0  0
  3 10  1  0  0  0  0
  3 28  1  0  0  0  0
  4 11  1  0  0  0  0
  4 29  1  0  0  0  0
  5 12  1  0  0  0  0
  5 30  1  0  0  0  0
  6  7  2  0  0  0  0
  6  8  1  0  0  0  0
  6 31  1  0  0  0  0
  7 19  1  0  0  0  0
  7 32  1  0  0  0  0
  8 21  2  0  0  0  0
  8 33  1  0  0  0  0
  9 11  1  0  0  0  0
  9 34  1  0  0  0  0
  9 35  1  0  0  0  0
 10 36  1  0  0  0  0
 10 37  1  0  0  0  0
 11 38  1  0  0  0  0
 11 39  1  0  0  0  0
 12 13  1  0  0  0  0
 12 40  1  0  0  0  0
 12 41  1  0  0  0  0
 13 14  1  0  0  0  0
 13 42  1  0  0  0  0
 13 43  1  0  0  0  0
 14 15  1  0  0  0  0
 14 44  1  0  0  0  0
 14 45  1  0  0  0  0
 15 16  1  0  0  0  0
 15 46  1  0  0  0  0
 15 47  1  0  0  0  0
 16 17  1  0  0  0  0
 16 48  1  0  0  0  0
 16 49  1  0  0  0  0
 17 18  1  0  0  0  0
 17 50  1  0  0  0  0
 17 51  1  0  0  0  0
 18 21  1  0  0  0  0
 18 52  1  0  0  0  0
 18 53  1  0  0  0  0
 19 20  2  0  0  0  0
 19 22  1  0  0  0  0
 20 21  1  0  0  0  0
 20 23  1  0  0  0  0
 22 54  1  0  0  0  0
 23 55  1  0  0  0  0
M  END
$$$$
/media/chris/experiments/cd1a-new-docking/inputs/ligands/5j1a_ligand.pdb
 OpenBabel07022311203D

 55 55  0  0  0  0  0  0  0  0999 V2000
  -39.1497   50.5722   56.7947 C   0  0  0  0  0  0  0  0  0  0  0  0
  -40.7535   52.6722   59.3566 C   0  0  0  0  0  0  0  0  0  0  0  0
  -41.5737   54.9940   59.1336 C   0  0  0  0  0  0  0  0  0  0  0  0
  -41.2250   51.3303   58.7470 C   0  0  0  0  0  0  0  0  0  0  0  0
  -41.1044   55.9720   60.2283 C   0  0  0  0  0  0  0  0  0  0  0  0
  -41.8296   61.3194   66.7180 C   0  0  0  0  0  0  0  0  0  0  0  0
  -42.9338   62.1166   67.0474 C   0  0  0  0  0  0  0  0  0  0  0  0
  -41.9331   60.3465   65.7166 C   0  0  0  0  0  0  0  0  0  0  0  0
  -40.2952   51.5296   56.4571 C   0  0  0  0  0  0  0  0  0  0  0  0
  -40.6325   53.9499   58.5133 C   0  0  0  0  0  0  0  0  0  0  0  0
  -41.5654   51.1930   57.2500 C   0  0  0  0  0  0  0  0  0  0  0  0
  -39.6997   55.8424   60.8202 C   0  0  0  0  0  0  0  0  0  0  0  0
  -39.5380   56.9300   61.8820 C   0  0  0  0  0  0  0  0  0  0  0  0
  -40.5750   56.7430   62.9900 C   0  0  0  0  0  0  0  0  0  0  0  0
  -41.9730   56.8130   62.3910 C   0  0  0  0  0  0  0  0  0  0  0  0
  -43.0346   56.6452   63.4882 C   0  0  0  0  0  0  0  0  0  0  0  0
  -42.9688   57.7452   64.5794 C   0  0  0  0  0  0  0  0  0  0  0  0
  -43.1948   59.1702   64.0212 C   0  0  0  0  0  0  0  0  0  0  0  0
  -44.1303   61.9235   66.3573 C   0  0  0  0  0  0  0  0  0  0  0  0
  -44.2242   60.9584   65.3559 C   0  0  0  0  0  0  0  0  0  0  0  0
  -43.1214   60.1722   64.9983 C   0  0  0  0  0  0  0  0  0  0  0  0
  -45.2441   62.6511   66.6175 O   0  0  0  0  0  0  0  0  0  0  0  0
  -45.4127   60.8102   64.7023 O   0  0  0  0  0  0  0  0  0  0  0  0
  -38.2838   50.8370   56.2246 H   0  0  0  0  0  0  0  0  0  0  0  0
  -39.4405   49.5703   56.5570 H   0  0  0  0  0  0  0  0  0  0  0  0
  -38.9241   50.6400   57.8384 H   0  0  0  0  0  0  0  0  0  0  0  0
  -40.5133   52.7096   60.3596 H   0  0  0  0  0  0  0  0  0  0  0  0
  -42.5514   55.0418   58.8067 H   0  0  0  0  0  0  0  0  0  0  0  0
  -41.3140   50.5045   59.3596 H   0  0  0  0  0  0  0  0  0  0  0  0
  -41.7381   56.7149   60.5623 H   0  0  0  0  0  0  0  0  0  0  0  0
  -40.9354   61.4500   67.2162 H   0  0  0  0  0  0  0  0  0  0  0  0
  -42.8630   62.8331   67.7867 H   0  0  0  0  0  0  0  0  0  0  0  0
  -41.1196   59.7479   65.5046 H   0  0  0  0  0  0  0  0  0  0  0  0
  -40.5099   51.4591   55.4112 H   0  0  0  0  0  0  0  0  0  0  0  0
  -39.9905   52.5214   56.7187 H   0  0  0  0  0  0  0  0  0  0  0  0
  -40.9211   53.7507   57.5024 H   0  0  0  0  0  0  0  0  0  0  0  0
  -39.6233   54.3055   58.5049 H   0  0  0  0  0  0  0  0  0  0  0  0
  -42.3499   51.8725   56.9897 H   0  0  0  0  0  0  0  0  0  0  0  0
  -41.8972   50.2003   57.0278 H   0  0  0  0  0  0  0  0  0  0  0  0
  -38.9673   55.9727   60.0511 H   0  0  0  0  0  0  0  0  0  0  0  0
  -39.5648   54.8736   61.2538 H   0  0  0  0  0  0  0  0  0  0  0  0
  -39.6739   57.8897   61.4288 H   0  0  0  0  0  0  0  0  0  0  0  0
  -38.5577   56.8621   62.3055 H   0  0  0  0  0  0  0  0  0  0  0  0
  -40.4604   57.5164   63.7205 H   0  0  0  0  0  0  0  0  0  0  0  0
  -40.4329   55.7901   63.4556 H   0  0  0  0  0  0  0  0  0  0  0  0
  -42.0864   56.0321   61.6683 H   0  0  0  0  0  0  0  0  0  0  0  0
  -42.1035   57.7672   61.9248 H   0  0  0  0  0  0  0  0  0  0  0  0
  -42.8917   55.6937   63.9563 H   0  0  0  0  0  0  0  0  0  0  0  0
  -43.9921   56.7233   63.0171 H   0  0  0  0  0  0  0  0  0  0  0  0
  -42.0041   57.7095   65.0408 H   0  0  0  0  0  0  0  0  0  0  0  0
  -43.7553   57.5483   65.2777 H   0  0  0  0  0  0  0  0  0  0  0  0
  -44.1644   59.2074   63.5703 H   0  0  0  0  0  0  0  0  0  0  0  0
  -42.4118   59.3599   63.3169 H   0  0  0  0  0  0  0  0  0  0  0  0
  -45.2277   63.3111   67.2824 H   0  0  0  0  0  0  0  0  0  0  0  0
  -46.1489   61.3374   64.9434 H   0  0  0  0  0  0  0  0  0  0  0  0
  1  9  1  0  0  0  0
  1 24  1  0  0  0  0
  1 25  1  0  0  0  0
  1 26  1  0  0  0  0
  2  4  2  0  0  0  0
  2 10  1  0  0  0  0
  2 27  1  0  0  0  0
  3  5  2  0  0  0  0
  3 10  1  0  0  0  0
  3 28  1  0  0  0  0
  4 11  1  0  0  0  0
  4 29  1  0  0  0  0
  5 12  1  0  0  0  0
  5 30  1  0  0  0  0
  6  7  2  0  0  0  0
  6  8  1  0  0  0  0
  6 31  1  0  0  0  0
  7 19  1  0  0  0  0
  7 32  1  0  0  0  0
  8 21  2  0  0  0  0
  8 33  1  0  0  0  0
  9 11  1  0  0  0  0
  9 34  1  0  0  0  0
  9 35  1  0  0  0  0
 10 36  1  0  0  0  0
 10 37  1  0  0  0  0
 11 38  1  0  0  0  0
 11 39  1  0  0  0  0
 12 13  1  0  0  0  0
 12 40  1  0  0  0  0
 12 41  1  0  0  0  0
 13 14  1  0  0  0  0
 13 42  1  0  0  0  0
 13 43  1  0  0  0  0
 14 15  1  0  0  0  0
 14 44  1  0  0  0  0
 14 45  1  0  0  0  0
 15 16  1  0  0  0  0
 15 46  1  0  0  0  0
 15 47  1  0  0  0  0
 16 17  1  0  0  0  0
 16 48  1  0  0  0  0
 16 49  1  0  0  0  0
 17 18  1  0  0  0  0
 17 50  1  0  0  0  0
 17 51  1  0  0  0  0
 18 21  1  0  0  0  0
 18 52  1  0  0  0  0
 18 53  1  0  0  0  0
 19 20  2  0  0  0  0
 19 22  1  0  0  0  0
 20 21  1  0  0  0  0
 20 23  1  0  0  0  0
 22 54  1  0  0  0  0
 23 55  1  0  0  0  0
M  END
$$$$
/media/chris/experiments/cd1a-new-docking/inputs/ligands/5j1a_ligand.pdb
 OpenBabel07022311203D

 55 55  0  0  0  0  0  0  0  0999 V2000
  -39.4690   53.5251   56.8741 C   0  0  0  0  0  0  0  0  0  0  0  0
  -37.3669   53.6699   59.9047 C   0  0  0  0  0  0  0  0  0  0  0  0
  -38.0926   54.1974   62.2087 C   0  0  0  0  0  0  0  0  0  0  0  0
  -37.0633   54.1430   58.4629 C   0  0  0  0  0  0  0  0  0  0  0  0
  -37.9593   55.4582   63.0851 C   0  0  0  0  0  0  0  0  0  0  0  0
  -42.7399   59.7216   68.4185 C   0  0  0  0  0  0  0  0  0  0  0  0
  -43.8616   60.5000   68.7336 C   0  0  0  0  0  0  0  0  0  0  0  0
  -42.8123   58.7515   67.4117 C   0  0  0  0  0  0  0  0  0  0  0  0
  -38.5229   54.6785   56.5314 C   0  0  0  0  0  0  0  0  0  0  0  0
  -38.5128   54.2699   60.7326 C   0  0  0  0  0  0  0  0  0  0  0  0
  -37.8725   55.2690   57.7900 C   0  0  0  0  0  0  0  0  0  0  0  0
  -38.1263   56.8452   62.4620 C   0  0  0  0  0  0  0  0  0  0  0  0
  -39.5380   56.9300   61.8820 C   0  0  0  0  0  0  0  0  0  0  0  0
  -40.5750   56.7430   62.9900 C   0  0  0  0  0  0  0  0  0  0  0  0
  -41.9730   56.8130   62.3910 C   0  0  0  0  0  0  0  0  0  0  0  0
  -43.0346   56.6452   63.4882 C   0  0  0  0  0  0  0  0  0  0  0  0
  -42.9688   57.7452   64.5794 C   0  0  0  0  0  0  0  0  0  0  0  0
  -44.0284   57.5628   65.6918 C   0  0  0  0  0  0  0  0  0  0  0  0
  -45.0439   60.2910   68.0239 C   0  0  0  0  0  0  0  0  0  0  0  0
  -45.1068   59.3289   67.0173 C   0  0  0  0  0  0  0  0  0  0  0  0
  -43.9862   58.5616   66.6740 C   0  0  0  0  0  0  0  0  0  0  0  0
  -46.1730   60.9999   68.2694 O   0  0  0  0  0  0  0  0  0  0  0  0
  -46.2824   59.1649   66.3444 O   0  0  0  0  0  0  0  0  0  0  0  0
  -39.9023   53.1400   55.9748 H   0  0  0  0  0  0  0  0  0  0  0  0
  -40.2446   53.8800   57.5202 H   0  0  0  0  0  0  0  0  0  0  0  0
  -38.9214   52.7491   57.3670 H   0  0  0  0  0  0  0  0  0  0  0  0
  -36.7820   52.9293   60.3223 H   0  0  0  0  0  0  0  0  0  0  0  0
  -37.8932   53.2752   62.6266 H   0  0  0  0  0  0  0  0  0  0  0  0
  -36.2980   53.6922   57.9375 H   0  0  0  0  0  0  0  0  0  0  0  0
  -37.7574   55.3665   64.0930 H   0  0  0  0  0  0  0  0  0  0  0  0
  -41.8558   59.8642   68.9312 H   0  0  0  0  0  0  0  0  0  0  0  0
  -43.8138   61.2144   69.4768 H   0  0  0  0  0  0  0  0  0  0  0  0
  -41.9862   58.1667   67.2102 H   0  0  0  0  0  0  0  0  0  0  0  0
  -39.0777   55.4467   56.0343 H   0  0  0  0  0  0  0  0  0  0  0  0
  -37.7467   54.2985   55.9006 H   0  0  0  0  0  0  0  0  0  0  0  0
  -39.4099   53.7073   60.5787 H   0  0  0  0  0  0  0  0  0  0  0  0
  -38.7031   55.2816   60.4408 H   0  0  0  0  0  0  0  0  0  0  0  0
  -37.2230   56.0759   57.5216 H   0  0  0  0  0  0  0  0  0  0  0  0
  -38.6177   55.6490   58.4572 H   0  0  0  0  0  0  0  0  0  0  0  0
  -37.4044   56.9844   61.6846 H   0  0  0  0  0  0  0  0  0  0  0  0
  -37.9789   57.6065   63.1994 H   0  0  0  0  0  0  0  0  0  0  0  0
  -39.6646   56.1636   61.1461 H   0  0  0  0  0  0  0  0  0  0  0  0
  -39.6747   57.8920   61.4340 H   0  0  0  0  0  0  0  0  0  0  0  0
  -40.4604   57.5164   63.7205 H   0  0  0  0  0  0  0  0  0  0  0  0
  -40.4329   55.7901   63.4556 H   0  0  0  0  0  0  0  0  0  0  0  0
  -42.0864   56.0321   61.6683 H   0  0  0  0  0  0  0  0  0  0  0  0
  -42.1035   57.7672   61.9248 H   0  0  0  0  0  0  0  0  0  0  0  0
  -42.8917   55.6937   63.9563 H   0  0  0  0  0  0  0  0  0  0  0  0
  -43.9921   56.7233   63.0171 H   0  0  0  0  0  0  0  0  0  0  0  0
  -43.1244   58.6960   64.1139 H   0  0  0  0  0  0  0  0  0  0  0  0
  -42.0065   57.6774   65.0421 H   0  0  0  0  0  0  0  0  0  0  0  0
  -43.8643   56.6167   66.1638 H   0  0  0  0  0  0  0  0  0  0  0  0
  -44.9889   57.6222   65.2240 H   0  0  0  0  0  0  0  0  0  0  0  0
  -46.1775   61.6573   68.9371 H   0  0  0  0  0  0  0  0  0  0  0  0
  -47.0305   59.6794   66.5760 H   0  0  0  0  0  0  0  0  0  0  0  0
  1  9  1  0  0  0  0
  1 24  1  0  0  0  0
  1 25  1  0  0  0  0
  1 26  1  0  0  0  0
  2  4  2  0  0  0  0
  2 10  1  0  0  0  0
  2 27  1  0  0  0  0
  3  5  2  0  0  0  0
  3 10  1  0  0  0  0
  3 28  1  0  0  0  0
  4 11  1  0  0  0  0
  4 29  1  0  0  0  0
  5 12  1  0  0  0  0
  5 30  1  0  0  0  0
  6  7  2  0  0  0  0
  6  8  1  0  0  0  0
  6 31  1  0  0  0  0
  7 19  1  0  0  0  0
  7 32  1  0  0  0  0
  8 21  2  0  0  0  0
  8 33  1  0  0  0  0
  9 11  1  0  0  0  0
  9 34  1  0  0  0  0
  9 35  1  0  0  0  0
 10 36  1  0  0  0  0
 10 37  1  0  0  0  0
 11 38  1  0  0  0  0
 11 39  1  0  0  0  0
 12 13  1  0  0  0  0
 12 40  1  0  0  0  0
 12 41  1  0  0  0  0
 13 14  1  0  0  0  0
 13 42  1  0  0  0  0
 13 43  1  0  0  0  0
 14 15  1  0  0  0  0
 14 44  1  0  0  0  0
 14 45  1  0  0  0  0
 15 16  1  0  0  0  0
 15 46  1  0  0  0  0
 15 47  1  0  0  0  0
 16 17  1  0  0  0  0
 16 48  1  0  0  0  0
 16 49  1  0  0  0  0
 17 18  1  0  0  0  0
 17 50  1  0  0  0  0
 17 51  1  0  0  0  0
 18 21  1  0  0  0  0
 18 52  1  0  0  0  0
 18 53  1  0  0  0  0
 19 20  2  0  0  0  0
 19 22  1  0  0  0  0
 20 21  1  0  0  0  0
 20 23  1  0  0  0  0
 22 54  1  0  0  0  0
 23 55  1  0  0  0  0
M  END
$$$$
/media/chris/experiments/cd1a-new-docking/inputs/ligands/5j1a_ligand.pdb
 OpenBabel07022311203D

 55 55  0  0  0  0  0  0  0  0999 V2000
  -40.7227   60.0584   64.2293 C   0  0  0  0  0  0  0  0  0  0  0  0
  -36.3372   59.9935   62.8987 C   0  0  0  0  0  0  0  0  0  0  0  0
  -36.6457   58.4764   60.9709 C   0  0  0  0  0  0  0  0  0  0  0  0
  -36.9062   60.6562   64.1761 C   0  0  0  0  0  0  0  0  0  0  0  0
  -37.1362   57.0564   61.3152 C   0  0  0  0  0  0  0  0  0  0  0  0
  -44.1201   53.8655   66.1951 C   0  0  0  0  0  0  0  0  0  0  0  0
  -45.1311   52.8957   66.1735 C   0  0  0  0  0  0  0  0  0  0  0  0
  -44.2738   55.0636   65.4873 C   0  0  0  0  0  0  0  0  0  0  0  0
  -39.2219   59.7704   64.1444 C   0  0  0  0  0  0  0  0  0  0  0  0
  -37.2105   59.7258   61.6641 C   0  0  0  0  0  0  0  0  0  0  0  0
  -38.3911   61.0523   64.2935 C   0  0  0  0  0  0  0  0  0  0  0  0
  -38.1263   56.8452   62.4620 C   0  0  0  0  0  0  0  0  0  0  0  0
  -39.5380   56.9300   61.8820 C   0  0  0  0  0  0  0  0  0  0  0  0
  -40.5750   56.7430   62.9900 C   0  0  0  0  0  0  0  0  0  0  0  0
  -41.9730   56.8130   62.3910 C   0  0  0  0  0  0  0  0  0  0  0  0
  -43.0346   56.6452   63.4882 C   0  0  0  0  0  0  0  0  0  0  0  0
  -44.4877   56.6885   62.9483 C   0  0  0  0  0  0  0  0  0  0  0  0
  -45.5541   56.5365   64.0586 C   0  0  0  0  0  0  0  0  0  0  0  0
  -46.2890   53.1501   65.4388 C   0  0  0  0  0  0  0  0  0  0  0  0
  -46.4389   54.3484   64.7428 C   0  0  0  0  0  0  0  0  0  0  0  0
  -45.4477   55.3376   64.7765 C   0  0  0  0  0  0  0  0  0  0  0  0
  -47.3115   52.2631   65.3650 O   0  0  0  0  0  0  0  0  0  0  0  0
  -47.5922   54.5568   64.0440 O   0  0  0  0  0  0  0  0  0  0  0  0
  -41.2680   59.1441   64.1215 H   0  0  0  0  0  0  0  0  0  0  0  0
  -41.0011   60.7339   63.4476 H   0  0  0  0  0  0  0  0  0  0  0  0
  -40.9484   60.4985   65.1781 H   0  0  0  0  0  0  0  0  0  0  0  0
  -35.3415   59.7234   62.8757 H   0  0  0  0  0  0  0  0  0  0  0  0
  -35.9145   58.5916   60.2518 H   0  0  0  0  0  0  0  0  0  0  0  0
  -36.2740   60.8380   64.9713 H   0  0  0  0  0  0  0  0  0  0  0  0
  -36.7965   56.2476   60.7717 H   0  0  0  0  0  0  0  0  0  0  0  0
  -43.2575   53.6958   66.7356 H   0  0  0  0  0  0  0  0  0  0  0  0
  -45.0211   52.0099   66.6915 H   0  0  0  0  0  0  0  0  0  0  0  0
  -43.5087   55.7562   65.4898 H   0  0  0  0  0  0  0  0  0  0  0  0
  -39.0068   59.3257   63.1953 H   0  0  0  0  0  0  0  0  0  0  0  0
  -38.9624   59.1086   64.9442 H   0  0  0  0  0  0  0  0  0  0  0  0
  -37.1718   60.5632   60.9991 H   0  0  0  0  0  0  0  0  0  0  0  0
  -38.2315   59.5750   61.9463 H   0  0  0  0  0  0  0  0  0  0  0  0
  -38.6468   61.7457   63.5198 H   0  0  0  0  0  0  0  0  0  0  0  0
  -38.5838   61.5195   65.2366 H   0  0  0  0  0  0  0  0  0  0  0  0
  -37.9914   57.6045   63.2038 H   0  0  0  0  0  0  0  0  0  0  0  0
  -37.9678   55.8923   62.9220 H   0  0  0  0  0  0  0  0  0  0  0  0
  -39.6646   56.1636   61.1461 H   0  0  0  0  0  0  0  0  0  0  0  0
  -39.6747   57.8920   61.4340 H   0  0  0  0  0  0  0  0  0  0  0  0
  -40.4604   57.5164   63.7205 H   0  0  0  0  0  0  0  0  0  0  0  0
  -40.4329   55.7901   63.4556 H   0  0  0  0  0  0  0  0  0  0  0  0
  -42.0864   56.0321   61.6683 H   0  0  0  0  0  0  0  0  0  0  0  0
  -42.1035   57.7672   61.9248 H   0  0  0  0  0  0  0  0  0  0  0  0
  -42.9137   57.4339   64.2011 H   0  0  0  0  0  0  0  0  0  0  0  0
  -42.8880   55.6799   63.9258 H   0  0  0  0  0  0  0  0  0  0  0  0
  -44.6131   55.8921   62.2447 H   0  0  0  0  0  0  0  0  0  0  0  0
  -44.6315   57.6484   62.4978 H   0  0  0  0  0  0  0  0  0  0  0  0
  -46.5226   56.5749   63.6054 H   0  0  0  0  0  0  0  0  0  0  0  0
  -45.3995   57.3345   64.7545 H   0  0  0  0  0  0  0  0  0  0  0  0
  -47.2548   51.4442   65.8169 H   0  0  0  0  0  0  0  0  0  0  0  0
  -48.2536   53.8935   64.0230 H   0  0  0  0  0  0  0  0  0  0  0  0
  1  9  1  0  0  0  0
  1 24  1  0  0  0  0
  1 25  1  0  0  0  0
  1 26  1  0  0  0  0
  2  4  2  0  0  0  0
  2 10  1  0  0  0  0
  2 27  1  0  0  0  0
  3  5  2  0  0  0  0
  3 10  1  0  0  0  0
  3 28  1  0  0  0  0
  4 11  1  0  0  0  0
  4 29  1  0  0  0  0
  5 12  1  0  0  0  0
  5 30  1  0  0  0  0
  6  7  2  0  0  0  0
  6  8  1  0  0  0  0
  6 31  1  0  0  0  0
  7 19  1  0  0  0  0
  7 32  1  0  0  0  0
  8 21  2  0  0  0  0
  8 33  1  0  0  0  0
  9 11  1  0  0  0  0
  9 34  1  0  0  0  0
  9 35  1  0  0  0  0
 10 36  1  0  0  0  0
 10 37  1  0  0  0  0
 11 38  1  0  0  0  0
 11 39  1  0  0  0  0
 12 13  1  0  0  0  0
 12 40  1  0  0  0  0
 12 41  1  0  0  0  0
 13 14  1  0  0  0  0
 13 42  1  0  0  0  0
 13 43  1  0  0  0  0
 14 15  1  0  0  0  0
 14 44  1  0  0  0  0
 14 45  1  0  0  0  0
 15 16  1  0  0  0  0
 15 46  1  0  0  0  0
 15 47  1  0  0  0  0
 16 17  1  0  0  0  0
 16 48  1  0  0  0  0
 16 49  1  0  0  0  0
 17 18  1  0  0  0  0
 17 50  1  0  0  0  0
 17 51  1  0  0  0  0
 18 21  1  0  0  0  0
 18 52  1  0  0  0  0
 18 53  1  0  0  0  0
 19 20  2  0  0  0  0
 19 22  1  0  0  0  0
 20 21  1  0  0  0  0
 20 23  1  0  0  0  0
 22 54  1  0  0  0  0
 23 55  1  0  0  0  0
M  END
$$$$
/media/chris/experiments/cd1a-new-docking/inputs/ligands/5j1a_ligand.pdb
 OpenBabel07022311203D

 55 55  0  0  0  0  0  0  0  0999 V2000
  -45.6839   54.2710   58.8795 C   0  0  0  0  0  0  0  0  0  0  0  0
  -43.0693   53.3666   62.8039 C   0  0  0  0  0  0  0  0  0  0  0  0
  -40.7311   53.7492   62.0973 C   0  0  0  0  0  0  0  0  0  0  0  0
  -44.5719   53.2798   62.4442 C   0  0  0  0  0  0  0  0  0  0  0  0
  -39.5143   54.4878   61.5063 C   0  0  0  0  0  0  0  0  0  0  0  0
  -40.5315   60.3087   58.7207 C   0  0  0  0  0  0  0  0  0  0  0  0
  -39.6085   61.3627   58.7392 C   0  0  0  0  0  0  0  0  0  0  0  0
  -41.4041   60.1135   59.7979 C   0  0  0  0  0  0  0  0  0  0  0  0
  -45.0968   53.4449   60.0265 C   0  0  0  0  0  0  0  0  0  0  0  0
  -42.1309   54.3816   62.1349 C   0  0  0  0  0  0  0  0  0  0  0  0
  -45.2031   54.1840   61.3674 C   0  0  0  0  0  0  0  0  0  0  0  0
  -39.6997   55.8424   60.8202 C   0  0  0  0  0  0  0  0  0  0  0  0
  -39.5380   56.9300   61.8820 C   0  0  0  0  0  0  0  0  0  0  0  0
  -40.5750   56.7430   62.9900 C   0  0  0  0  0  0  0  0  0  0  0  0
  -41.9730   56.8130   62.3910 C   0  0  0  0  0  0  0  0  0  0  0  0
  -42.1931   58.1680   61.7021 C   0  0  0  0  0  0  0  0  0  0  0  0
  -42.0339   59.3769   62.6604 C   0  0  0  0  0  0  0  0  0  0  0  0
  -42.2733   60.7388   61.9667 C   0  0  0  0  0  0  0  0  0  0  0  0
  -39.5808   62.2107   59.8462 C   0  0  0  0  0  0  0  0  0  0  0  0
  -40.4578   62.0155   60.9118 C   0  0  0  0  0  0  0  0  0  0  0  0
  -41.4031   60.9819   60.8954 C   0  0  0  0  0  0  0  0  0  0  0  0
  -38.7169   63.2510   59.9423 O   0  0  0  0  0  0  0  0  0  0  0  0
  -40.3997   62.8748   61.9701 O   0  0  0  0  0  0  0  0  0  0  0  0
  -45.5923   53.7253   57.9637 H   0  0  0  0  0  0  0  0  0  0  0  0
  -45.1528   55.1962   58.7980 H   0  0  0  0  0  0  0  0  0  0  0  0
  -46.7172   54.4689   59.0749 H   0  0  0  0  0  0  0  0  0  0  0  0
  -42.6866   52.7235   63.5144 H   0  0  0  0  0  0  0  0  0  0  0  0
  -40.6014   52.7997   62.4801 H   0  0  0  0  0  0  0  0  0  0  0  0
  -45.1677   52.5977   62.9389 H   0  0  0  0  0  0  0  0  0  0  0  0
  -38.5738   54.0683   61.5734 H   0  0  0  0  0  0  0  0  0  0  0  0
  -40.5682   59.6728   57.9087 H   0  0  0  0  0  0  0  0  0  0  0  0
  -38.9614   61.5088   57.9487 H   0  0  0  0  0  0  0  0  0  0  0  0
  -42.0590   59.3161   59.7824 H   0  0  0  0  0  0  0  0  0  0  0  0
  -44.0658   53.2473   59.8198 H   0  0  0  0  0  0  0  0  0  0  0  0
  -45.6530   52.5339   60.1016 H   0  0  0  0  0  0  0  0  0  0  0  0
  -42.1083   55.2889   62.7015 H   0  0  0  0  0  0  0  0  0  0  0  0
  -42.4680   54.6172   61.1471 H   0  0  0  0  0  0  0  0  0  0  0  0
  -44.6756   55.1135   61.3154 H   0  0  0  0  0  0  0  0  0  0  0  0
  -46.2256   54.3940   61.6027 H   0  0  0  0  0  0  0  0  0  0  0  0
  -40.6760   55.8999   60.3860 H   0  0  0  0  0  0  0  0  0  0  0  0
  -38.9765   55.9694   60.0419 H   0  0  0  0  0  0  0  0  0  0  0  0
  -39.6739   57.8897   61.4288 H   0  0  0  0  0  0  0  0  0  0  0  0
  -38.5577   56.8621   62.3055 H   0  0  0  0  0  0  0  0  0  0  0  0
  -40.4604   57.5164   63.7205 H   0  0  0  0  0  0  0  0  0  0  0  0
  -40.4329   55.7901   63.4556 H   0  0  0  0  0  0  0  0  0  0  0  0
  -42.6967   56.6917   63.1697 H   0  0  0  0  0  0  0  0  0  0  0  0
  -42.0793   56.0336   61.6657 H   0  0  0  0  0  0  0  0  0  0  0  0
  -43.1825   58.1853   61.2952 H   0  0  0  0  0  0  0  0  0  0  0  0
  -41.4436   58.2636   60.9445 H   0  0  0  0  0  0  0  0  0  0  0  0
  -41.0405   59.3675   63.0578 H   0  0  0  0  0  0  0  0  0  0  0  0
  -42.7738   59.2754   63.4266 H   0  0  0  0  0  0  0  0  0  0  0  0
  -42.1434   61.5153   62.6913 H   0  0  0  0  0  0  0  0  0  0  0  0
  -43.2657   60.7180   61.5671 H   0  0  0  0  0  0  0  0  0  0  0  0
  -38.1089   63.4206   59.2498 H   0  0  0  0  0  0  0  0  0  0  0  0
  -39.7665   63.5654   61.9786 H   0  0  0  0  0  0  0  0  0  0  0  0
  1  9  1  0  0  0  0
  1 24  1  0  0  0  0
  1 25  1  0  0  0  0
  1 26  1  0  0  0  0
  2  4  2  0  0  0  0
  2 10  1  0  0  0  0
  2 27  1  0  0  0  0
  3  5  2  0  0  0  0
  3 10  1  0  0  0  0
  3 28  1  0  0  0  0
  4 11  1  0  0  0  0
  4 29  1  0  0  0  0
  5 12  1  0  0  0  0
  5 30  1  0  0  0  0
  6  7  2  0  0  0  0
  6  8  1  0  0  0  0
  6 31  1  0  0  0  0
  7 19  1  0  0  0  0
  7 32  1  0  0  0  0
  8 21  2  0  0  0  0
  8 33  1  0  0  0  0
  9 11  1  0  0  0  0
  9 34  1  0  0  0  0
  9 35  1  0  0  0  0
 10 36  1  0  0  0  0
 10 37  1  0  0  0  0
 11 38  1  0  0  0  0
 11 39  1  0  0  0  0
 12 13  1  0  0  0  0
 12 40  1  0  0  0  0
 12 41  1  0  0  0  0
 13 14  1  0  0  0  0
 13 42  1  0  0  0  0
 13 43  1  0  0  0  0
 14 15  1  0  0  0  0
 14 44  1  0  0  0  0
 14 45  1  0  0  0  0
 15 16  1  0  0  0  0
 15 46  1  0  0  0  0
 15 47  1  0  0  0  0
 16 17  1  0  0  0  0
 16 48  1  0  0  0  0
 16 49  1  0  0  0  0
 17 18  1  0  0  0  0
 17 50  1  0  0  0  0
 17 51  1  0  0  0  0
 18 21  1  0  0  0  0
 18 52  1  0  0  0  0
 18 53  1  0  0  0  0
 19 20  2  0  0  0  0
 19 22  1  0  0  0  0
 20 21  1  0  0  0  0
 20 23  1  0  0  0  0
 22 54  1  0  0  0  0
 23 55  1  0  0  0  0
M  END
$$$$
/media/chris/experiments/cd1a-new-docking/inputs/ligands/5j1a_ligand.pdb
 OpenBabel07022311203D

 55 55  0  0  0  0  0  0  0  0999 V2000
  -38.7703   49.3926   61.3136 C   0  0  0  0  0  0  0  0  0  0  0  0
  -36.6350   53.0743   60.2317 C   0  0  0  0  0  0  0  0  0  0  0  0
  -37.4170   54.2914   62.2367 C   0  0  0  0  0  0  0  0  0  0  0  0
  -37.0678   51.7440   60.8933 C   0  0  0  0  0  0  0  0  0  0  0  0
  -37.9593   55.4582   63.0851 C   0  0  0  0  0  0  0  0  0  0  0  0
  -45.0752   54.3732   58.8993 C   0  0  0  0  0  0  0  0  0  0  0  0
  -45.9898   53.3198   59.0310 C   0  0  0  0  0  0  0  0  0  0  0  0
  -43.8235   54.3053   59.5225 C   0  0  0  0  0  0  0  0  0  0  0  0
  -38.2420   50.2382   62.4750 C   0  0  0  0  0  0  0  0  0  0  0  0
  -37.1449   54.4339   60.7313 C   0  0  0  0  0  0  0  0  0  0  0  0
  -38.0638   51.7075   62.0689 C   0  0  0  0  0  0  0  0  0  0  0  0
  -38.1263   56.8452   62.4620 C   0  0  0  0  0  0  0  0  0  0  0  0
  -39.5380   56.9300   61.8820 C   0  0  0  0  0  0  0  0  0  0  0  0
  -40.5750   56.7430   62.9900 C   0  0  0  0  0  0  0  0  0  0  0  0
  -41.9730   56.8130   62.3910 C   0  0  0  0  0  0  0  0  0  0  0  0
  -42.1661   55.6996   61.3507 C   0  0  0  0  0  0  0  0  0  0  0  0
  -42.0124   54.2741   61.9416 C   0  0  0  0  0  0  0  0  0  0  0  0
  -42.1905   53.1560   60.8873 C   0  0  0  0  0  0  0  0  0  0  0  0
  -45.6265   52.2069   59.7890 C   0  0  0  0  0  0  0  0  0  0  0  0
  -44.3755   52.1424   60.4003 C   0  0  0  0  0  0  0  0  0  0  0  0
  -43.4415   53.1763   60.2559 C   0  0  0  0  0  0  0  0  0  0  0  0
  -46.4542   51.1482   59.9671 O   0  0  0  0  0  0  0  0  0  0  0  0
  -44.0607   51.0304   61.1258 O   0  0  0  0  0  0  0  0  0  0  0  0
  -38.8815   48.3776   61.6332 H   0  0  0  0  0  0  0  0  0  0  0  0
  -38.0794   49.4360   60.4977 H   0  0  0  0  0  0  0  0  0  0  0  0
  -39.7192   49.7732   60.9981 H   0  0  0  0  0  0  0  0  0  0  0  0
  -35.9845   53.0469   59.4310 H   0  0  0  0  0  0  0  0  0  0  0  0
  -37.2306   53.3854   62.6944 H   0  0  0  0  0  0  0  0  0  0  0  0
  -36.6788   50.8568   60.5375 H   0  0  0  0  0  0  0  0  0  0  0  0
  -38.2100   55.3036   64.0742 H   0  0  0  0  0  0  0  0  0  0  0  0
  -45.3257   55.2035   58.3399 H   0  0  0  0  0  0  0  0  0  0  0  0
  -46.9147   53.3666   58.5756 H   0  0  0  0  0  0  0  0  0  0  0  0
  -43.1715   55.1010   59.4397 H   0  0  0  0  0  0  0  0  0  0  0  0
  -37.2962   49.8471   62.7871 H   0  0  0  0  0  0  0  0  0  0  0  0
  -38.9551   50.1953   63.2716 H   0  0  0  0  0  0  0  0  0  0  0  0
  -38.0464   54.6982   60.2191 H   0  0  0  0  0  0  0  0  0  0  0  0
  -36.4229   55.2017   60.5467 H   0  0  0  0  0  0  0  0  0  0  0  0
  -39.0034   52.1194   61.7650 H   0  0  0  0  0  0  0  0  0  0  0  0
  -37.6975   52.2849   62.8920 H   0  0  0  0  0  0  0  0  0  0  0  0
  -37.4044   56.9844   61.6846 H   0  0  0  0  0  0  0  0  0  0  0  0
  -37.9789   57.6065   63.1994 H   0  0  0  0  0  0  0  0  0  0  0  0
  -39.6646   56.1636   61.1461 H   0  0  0  0  0  0  0  0  0  0  0  0
  -39.6747   57.8920   61.4340 H   0  0  0  0  0  0  0  0  0  0  0  0
  -40.4604   57.5164   63.7205 H   0  0  0  0  0  0  0  0  0  0  0  0
  -40.4329   55.7901   63.4556 H   0  0  0  0  0  0  0  0  0  0  0  0
  -42.1071   57.7638   61.9188 H   0  0  0  0  0  0  0  0  0  0  0  0
  -42.6924   56.6861   63.1729 H   0  0  0  0  0  0  0  0  0  0  0  0
  -41.4374   55.8271   60.5777 H   0  0  0  0  0  0  0  0  0  0  0  0
  -43.1664   55.7826   60.9800 H   0  0  0  0  0  0  0  0  0  0  0  0
  -42.7492   54.1414   62.7060 H   0  0  0  0  0  0  0  0  0  0  0  0
  -41.0169   54.1941   62.3254 H   0  0  0  0  0  0  0  0  0  0  0  0
  -42.0718   52.2102   61.3734 H   0  0  0  0  0  0  0  0  0  0  0  0
  -41.4530   53.3184   60.1292 H   0  0  0  0  0  0  0  0  0  0  0  0
  -47.3052   51.1477   59.5748 H   0  0  0  0  0  0  0  0  0  0  0  0
  -44.6873   50.3402   61.2209 H   0  0  0  0  0  0  0  0  0  0  0  0
  1  9  1  0  0  0  0
  1 24  1  0  0  0  0
  1 25  1  0  0  0  0
  1 26  1  0  0  0  0
  2  4  2  0  0  0  0
  2 10  1  0  0  0  0
  2 27  1  0  0  0  0
  3  5  2  0  0  0  0
  3 10  1  0  0  0  0
  3 28  1  0  0  0  0
  4 11  1  0  0  0  0
  4 29  1  0  0  0  0
  5 12  1  0  0  0  0
  5 30  1  0  0  0  0
  6  7  2  0  0  0  0
  6  8  1  0  0  0  0
  6 31  1  0  0  0  0
  7 19  1  0  0  0  0
  7 32  1  0  0  0  0
  8 21  2  0  0  0  0
  8 33  1  0  0  0  0
  9 11  1  0  0  0  0
  9 34  1  0  0  0  0
  9 35  1  0  0  0  0
 10 36  1  0  0  0  0
 10 37  1  0  0  0  0
 11 38  1  0  0  0  0
 11 39  1  0  0  0  0
 12 13  1  0  0  0  0
 12 40  1  0  0  0  0
 12 41  1  0  0  0  0
 13 14  1  0  0  0  0
 13 42  1  0  0  0  0
 13 43  1  0  0  0  0
 14 15  1  0  0  0  0
 14 44  1  0  0  0  0
 14 45  1  0  0  0  0
 15 16  1  0  0  0  0
 15 46  1  0  0  0  0
 15 47  1  0  0  0  0
 16 17  1  0  0  0  0
 16 48  1  0  0  0  0
 16 49  1  0  0  0  0
 17 18  1  0  0  0  0
 17 50  1  0  0  0  0
 17 51  1  0  0  0  0
 18 21  1  0  0  0  0
 18 52  1  0  0  0  0
 18 53  1  0  0  0  0
 19 20  2  0  0  0  0
 19 22  1  0  0  0  0
 20 21  1  0  0  0  0
 20 23  1  0  0  0  0
 22 54  1  0  0  0  0
 23 55  1  0  0  0  0
M  END
$$$$
/media/chris/experiments/cd1a-new-docking/inputs/ligands/5j1a_ligand.pdb
 OpenBabel07022311203D

 55 55  0  0  0  0  0  0  0  0999 V2000
  -43.4508   62.7202   60.7667 C   0  0  0  0  0  0  0  0  0  0  0  0
  -40.9176   59.2540   58.1673 C   0  0  0  0  0  0  0  0  0  0  0  0
  -41.5245   57.2724   59.5157 C   0  0  0  0  0  0  0  0  0  0  0  0
  -41.4385   60.7112   58.1513 C   0  0  0  0  0  0  0  0  0  0  0  0
  -41.1044   55.9720   60.2283 C   0  0  0  0  0  0  0  0  0  0  0  0
  -45.6877   60.7438   64.5818 C   0  0  0  0  0  0  0  0  0  0  0  0
  -44.4974   61.4817   64.6250 C   0  0  0  0  0  0  0  0  0  0  0  0
  -45.7824   59.6002   63.7799 C   0  0  0  0  0  0  0  0  0  0  0  0
  -43.1351   61.9007   59.5132 C   0  0  0  0  0  0  0  0  0  0  0  0
  -40.6180   58.5125   59.4782 C   0  0  0  0  0  0  0  0  0  0  0  0
  -41.6516   61.5121   59.4508 C   0  0  0  0  0  0  0  0  0  0  0  0
  -39.6997   55.8424   60.8202 C   0  0  0  0  0  0  0  0  0  0  0  0
  -39.5380   56.9300   61.8820 C   0  0  0  0  0  0  0  0  0  0  0  0
  -40.5750   56.7430   62.9900 C   0  0  0  0  0  0  0  0  0  0  0  0
  -41.9730   56.8130   62.3910 C   0  0  0  0  0  0  0  0  0  0  0  0
  -43.0346   56.6452   63.4882 C   0  0  0  0  0  0  0  0  0  0  0  0
  -44.4877   56.6885   62.9483 C   0  0  0  0  0  0  0  0  0  0  0  0
  -44.8286   58.0126   62.2244 C   0  0  0  0  0  0  0  0  0  0  0  0
  -43.4139   61.0523   63.8589 C   0  0  0  0  0  0  0  0  0  0  0  0
  -43.5125   59.9083   63.0687 C   0  0  0  0  0  0  0  0  0  0  0  0
  -44.6875   59.1464   63.0359 C   0  0  0  0  0  0  0  0  0  0  0  0
  -42.2293   61.7113   63.8433 O   0  0  0  0  0  0  0  0  0  0  0  0
  -42.4242   59.5218   62.3421 O   0  0  0  0  0  0  0  0  0  0  0  0
  -44.4908   62.9719   60.7757 H   0  0  0  0  0  0  0  0  0  0  0  0
  -42.8669   63.6168   60.7632 H   0  0  0  0  0  0  0  0  0  0  0  0
  -43.2156   62.1448   61.6376 H   0  0  0  0  0  0  0  0  0  0  0  0
  -40.7672   58.7662   57.2704 H   0  0  0  0  0  0  0  0  0  0  0  0
  -42.4439   57.3115   59.0487 H   0  0  0  0  0  0  0  0  0  0  0  0
  -41.6489   61.1590   57.2457 H   0  0  0  0  0  0  0  0  0  0  0  0
  -41.7712   55.1882   60.3063 H   0  0  0  0  0  0  0  0  0  0  0  0
  -46.4990   61.0449   65.1442 H   0  0  0  0  0  0  0  0  0  0  0  0
  -44.4238   62.3269   65.2126 H   0  0  0  0  0  0  0  0  0  0  0  0
  -46.6746   59.0831   63.7367 H   0  0  0  0  0  0  0  0  0  0  0  0
  -43.3785   62.4815   58.6482 H   0  0  0  0  0  0  0  0  0  0  0  0
  -43.7152   61.0022   59.5459 H   0  0  0  0  0  0  0  0  0  0  0  0
  -40.8288   59.1461   60.3143 H   0  0  0  0  0  0  0  0  0  0  0  0
  -39.5869   58.2311   59.5286 H   0  0  0  0  0  0  0  0  0  0  0  0
  -41.0432   62.3923   59.4417 H   0  0  0  0  0  0  0  0  0  0  0  0
  -41.3783   60.9271   60.3040 H   0  0  0  0  0  0  0  0  0  0  0  0
  -38.9673   55.9727   60.0511 H   0  0  0  0  0  0  0  0  0  0  0  0
  -39.5648   54.8736   61.2538 H   0  0  0  0  0  0  0  0  0  0  0  0
  -39.6739   57.8897   61.4288 H   0  0  0  0  0  0  0  0  0  0  0  0
  -38.5577   56.8621   62.3055 H   0  0  0  0  0  0  0  0  0  0  0  0
  -40.4604   57.5164   63.7205 H   0  0  0  0  0  0  0  0  0  0  0  0
  -40.4329   55.7901   63.4556 H   0  0  0  0  0  0  0  0  0  0  0  0
  -42.0864   56.0321   61.6683 H   0  0  0  0  0  0  0  0  0  0  0  0
  -42.1035   57.7672   61.9248 H   0  0  0  0  0  0  0  0  0  0  0  0
  -42.9137   57.4339   64.2011 H   0  0  0  0  0  0  0  0  0  0  0  0
  -42.8880   55.6799   63.9258 H   0  0  0  0  0  0  0  0  0  0  0  0
  -45.1603   56.5679   63.7716 H   0  0  0  0  0  0  0  0  0  0  0  0
  -44.5847   55.8998   62.2317 H   0  0  0  0  0  0  0  0  0  0  0  0
  -45.8425   57.9623   61.8863 H   0  0  0  0  0  0  0  0  0  0  0  0
  -44.1355   58.1163   61.4158 H   0  0  0  0  0  0  0  0  0  0  0  0
  -42.1171   62.4855   64.3591 H   0  0  0  0  0  0  0  0  0  0  0  0
  -41.6394   60.0332   62.3658 H   0  0  0  0  0  0  0  0  0  0  0  0
  1  9  1  0  0  0  0
  1 24  1  0  0  0  0
  1 25  1  0  0  0  0
  1 26  1  0  0  0  0
  2  4  2  0  0  0  0
  2 10  1  0  0  0  0
  2 27  1  0  0  0  0
  3  5  2  0  0  0  0
  3 10  1  0  0  0  0
  3 28  1  0  0  0  0
  4 11  1  0  0  0  0
  4 29  1  0  0  0  0
  5 12  1  0  0  0  0
  5 30  1  0  0  0  0
  6  7  2  0  0  0  0
  6  8  1  0  0  0  0
  6 31  1  0  0  0  0
  7 19  1  0  0  0  0
  7 32  1  0  0  0  0
  8 21  2  0  0  0  0
  8 33  1  0  0  0  0
  9 11  1  0  0  0  0
  9 34  1  0  0  0  0
  9 35  1  0  0  0  0
 10 36  1  0  0  0  0
 10 37  1  0  0  0  0
 11 38  1  0  0  0  0
 11 39  1  0  0  0  0
 12 13  1  0  0  0  0
 12 40  1  0  0  0  0
 12 41  1  0  0  0  0
 13 14  1  0  0  0  0
 13 42  1  0  0  0  0
 13 43  1  0  0  0  0
 14 15  1  0  0  0  0
 14 44  1  0  0  0  0
 14 45  1  0  0  0  0
 15 16  1  0  0  0  0
 15 46  1  0  0  0  0
 15 47  1  0  0  0  0
 16 17  1  0  0  0  0
 16 48  1  0  0  0  0
 16 49  1  0  0  0  0
 17 18  1  0  0  0  0
 17 50  1  0  0  0  0
 17 51  1  0  0  0  0
 18 21  1  0  0  0  0
 18 52  1  0  0  0  0
 18 53  1  0  0  0  0
 19 20  2  0  0  0  0
 19 22  1  0  0  0  0
 20 21  1  0  0  0  0
 20 23  1  0  0  0  0
 22 54  1  0  0  0  0
 23 55  1  0  0  0  0
M  END
$$$$
/media/chris/experiments/cd1a-new-docking/inputs/ligands/5j1a_ligand.pdb
 OpenBabel07022311203D

 55 55  0  0  0  0  0  0  0  0999 V2000
  -33.1215   53.5089   59.8155 C   0  0  0  0  0  0  0  0  0  0  0  0
  -35.6963   54.1268   62.3717 C   0  0  0  0  0  0  0  0  0  0  0  0
  -35.7516   56.3807   61.3569 C   0  0  0  0  0  0  0  0  0  0  0  0
  -35.8385   53.5082   60.9604 C   0  0  0  0  0  0  0  0  0  0  0  0
  -37.1362   57.0564   61.3152 C   0  0  0  0  0  0  0  0  0  0  0  0
  -43.1316   59.3450   68.8183 C   0  0  0  0  0  0  0  0  0  0  0  0
  -43.9237   60.4980   68.7383 C   0  0  0  0  0  0  0  0  0  0  0  0
  -43.1802   58.3815   67.8037 C   0  0  0  0  0  0  0  0  0  0  0  0
  -34.0461   54.7272   59.7566 C   0  0  0  0  0  0  0  0  0  0  0  0
  -35.2671   55.5866   62.5797 C   0  0  0  0  0  0  0  0  0  0  0  0
  -35.5224   54.3134   59.6848 C   0  0  0  0  0  0  0  0  0  0  0  0
  -38.1263   56.8452   62.4620 C   0  0  0  0  0  0  0  0  0  0  0  0
  -39.5380   56.9300   61.8820 C   0  0  0  0  0  0  0  0  0  0  0  0
  -40.5750   56.7430   62.9900 C   0  0  0  0  0  0  0  0  0  0  0  0
  -41.9730   56.8130   62.3910 C   0  0  0  0  0  0  0  0  0  0  0  0
  -43.0346   56.6452   63.4882 C   0  0  0  0  0  0  0  0  0  0  0  0
  -42.9688   57.7452   64.5794 C   0  0  0  0  0  0  0  0  0  0  0  0
  -44.0284   57.5628   65.6918 C   0  0  0  0  0  0  0  0  0  0  0  0
  -44.7540   60.6658   67.6303 C   0  0  0  0  0  0  0  0  0  0  0  0
  -44.7917   59.7063   66.6199 C   0  0  0  0  0  0  0  0  0  0  0  0
  -43.9862   58.5616   66.6740 C   0  0  0  0  0  0  0  0  0  0  0  0
  -45.5524   61.7509   67.4792 O   0  0  0  0  0  0  0  0  0  0  0  0
  -45.6133   59.9168   65.5511 O   0  0  0  0  0  0  0  0  0  0  0  0
  -32.1038   53.8356   59.8646 H   0  0  0  0  0  0  0  0  0  0  0  0
  -33.2624   52.9114   58.9391 H   0  0  0  0  0  0  0  0  0  0  0  0
  -33.3519   52.9280   60.6841 H   0  0  0  0  0  0  0  0  0  0  0  0
  -35.8958   53.5410   63.1976 H   0  0  0  0  0  0  0  0  0  0  0  0
  -35.1300   56.4644   60.5374 H   0  0  0  0  0  0  0  0  0  0  0  0
  -36.1538   52.5297   60.8709 H   0  0  0  0  0  0  0  0  0  0  0  0
  -37.3955   57.6517   60.5131 H   0  0  0  0  0  0  0  0  0  0  0  0
  -42.5091   59.2052   69.6294 H   0  0  0  0  0  0  0  0  0  0  0  0
  -43.8932   61.2096   69.4851 H   0  0  0  0  0  0  0  0  0  0  0  0
  -42.6122   57.5243   67.8903 H   0  0  0  0  0  0  0  0  0  0  0  0
  -33.8048   55.3046   58.8886 H   0  0  0  0  0  0  0  0  0  0  0  0
  -33.9022   55.3000   60.6488 H   0  0  0  0  0  0  0  0  0  0  0  0
  -34.2018   55.6479   62.6582 H   0  0  0  0  0  0  0  0  0  0  0  0
  -35.6880   55.9817   63.4806 H   0  0  0  0  0  0  0  0  0  0  0  0
  -36.1440   55.1830   59.6378 H   0  0  0  0  0  0  0  0  0  0  0  0
  -35.7072   53.7242   58.8109 H   0  0  0  0  0  0  0  0  0  0  0  0
  -37.9914   57.6045   63.2038 H   0  0  0  0  0  0  0  0  0  0  0  0
  -37.9678   55.8923   62.9220 H   0  0  0  0  0  0  0  0  0  0  0  0
  -39.6646   56.1636   61.1461 H   0  0  0  0  0  0  0  0  0  0  0  0
  -39.6747   57.8920   61.4340 H   0  0  0  0  0  0  0  0  0  0  0  0
  -40.4604   57.5164   63.7205 H   0  0  0  0  0  0  0  0  0  0  0  0
  -40.4329   55.7901   63.4556 H   0  0  0  0  0  0  0  0  0  0  0  0
  -42.0864   56.0321   61.6683 H   0  0  0  0  0  0  0  0  0  0  0  0
  -42.1035   57.7672   61.9248 H   0  0  0  0  0  0  0  0  0  0  0  0
  -42.8917   55.6937   63.9563 H   0  0  0  0  0  0  0  0  0  0  0  0
  -43.9921   56.7233   63.0171 H   0  0  0  0  0  0  0  0  0  0  0  0
  -43.1244   58.6960   64.1139 H   0  0  0  0  0  0  0  0  0  0  0  0
  -42.0065   57.6774   65.0421 H   0  0  0  0  0  0  0  0  0  0  0  0
  -43.8643   56.6167   66.1638 H   0  0  0  0  0  0  0  0  0  0  0  0
  -44.9889   57.6222   65.2240 H   0  0  0  0  0  0  0  0  0  0  0  0
  -45.5601   62.4217   68.1333 H   0  0  0  0  0  0  0  0  0  0  0  0
  -46.1511   60.6833   65.5173 H   0  0  0  0  0  0  0  0  0  0  0  0
  1  9  1  0  0  0  0
  1 24  1  0  0  0  0
  1 25  1  0  0  0  0
  1 26  1  0  0  0  0
  2  4  2  0  0  0  0
  2 10  1  0  0  0  0
  2 27  1  0  0  0  0
  3  5  2  0  0  0  0
  3 10  1  0  0  0  0
  3 28  1  0  0  0  0
  4 11  1  0  0  0  0
  4 29  1  0  0  0  0
  5 12  1  0  0  0  0
  5 30  1  0  0  0  0
  6  7  2  0  0  0  0
  6  8  1  0  0  0  0
  6 31  1  0  0  0  0
  7 19  1  0  0  0  0
  7 32  1  0  0  0  0
  8 21  2  0  0  0  0
  8 33  1  0  0  0  0
  9 11  1  0  0  0  0
  9 34  1  0  0  0  0
  9 35  1  0  0  0  0
 10 36  1  0  0  0  0
 10 37  1  0  0  0  0
 11 38  1  0  0  0  0
 11 39  1  0  0  0  0
 12 13  1  0  0  0  0
 12 40  1  0  0  0  0
 12 41  1  0  0  0  0
 13 14  1  0  0  0  0
 13 42  1  0  0  0  0
 13 43  1  0  0  0  0
 14 15  1  0  0  0  0
 14 44  1  0  0  0  0
 14 45  1  0  0  0  0
 15 16  1  0  0  0  0
 15 46  1  0  0  0  0
 15 47  1  0  0  0  0
 16 17  1  0  0  0  0
 16 48  1  0  0  0  0
 16 49  1  0  0  0  0
 17 18  1  0  0  0  0
 17 50  1  0  0  0  0
 17 51  1  0  0  0  0
 18 21  1  0  0  0  0
 18 52  1  0  0  0  0
 18 53  1  0  0  0  0
 19 20  2  0  0  0  0
 19 22  1  0  0  0  0
 20 21  1  0  0  0  0
 20 23  1  0  0  0  0
 22 54  1  0  0  0  0
 23 55  1  0  0  0  0
M  END
$$$$
/media/chris/experiments/cd1a-new-docking/inputs/ligands/5j1a_ligand.pdb
 OpenBabel07022311203D

 55 55  0  0  0  0  0  0  0  0999 V2000
  -39.7854   63.7563   59.6747 C   0  0  0  0  0  0  0  0  0  0  0  0
  -39.2908   59.6421   58.2098 C   0  0  0  0  0  0  0  0  0  0  0  0
  -38.5831   57.4003   58.9756 C   0  0  0  0  0  0  0  0  0  0  0  0
  -39.0123   61.0684   58.7417 C   0  0  0  0  0  0  0  0  0  0  0  0
  -38.6290   56.0694   59.7515 C   0  0  0  0  0  0  0  0  0  0  0  0
  -40.6900   63.1312   64.3171 C   0  0  0  0  0  0  0  0  0  0  0  0
  -41.7552   63.9859   64.6304 C   0  0  0  0  0  0  0  0  0  0  0  0
  -40.8785   62.0593   63.4366 C   0  0  0  0  0  0  0  0  0  0  0  0
  -38.7498   62.8933   60.3997 C   0  0  0  0  0  0  0  0  0  0  0  0
  -39.6598   58.4829   59.1471 C   0  0  0  0  0  0  0  0  0  0  0  0
  -39.0547   61.3969   60.2470 C   0  0  0  0  0  0  0  0  0  0  0  0
  -39.6997   55.8424   60.8202 C   0  0  0  0  0  0  0  0  0  0  0  0
  -39.5380   56.9300   61.8820 C   0  0  0  0  0  0  0  0  0  0  0  0
  -40.5750   56.7430   62.9900 C   0  0  0  0  0  0  0  0  0  0  0  0
  -41.9730   56.8130   62.3910 C   0  0  0  0  0  0  0  0  0  0  0  0
  -42.1931   58.1680   61.7021 C   0  0  0  0  0  0  0  0  0  0  0  0
  -42.0339   59.3769   62.6604 C   0  0  0  0  0  0  0  0  0  0  0  0
  -42.2733   60.7388   61.9667 C   0  0  0  0  0  0  0  0  0  0  0  0
  -42.9994   63.7489   64.0463 C   0  0  0  0  0  0  0  0  0  0  0  0
  -43.1782   62.6845   63.1644 C   0  0  0  0  0  0  0  0  0  0  0  0
  -42.1161   61.8378   62.8220 C   0  0  0  0  0  0  0  0  0  0  0  0
  -44.0802   64.5272   64.2993 O   0  0  0  0  0  0  0  0  0  0  0  0
  -44.4111   62.4960   62.6111 O   0  0  0  0  0  0  0  0  0  0  0  0
  -39.5408   64.7901   59.8029 H   0  0  0  0  0  0  0  0  0  0  0  0
  -40.7563   63.5663   60.0823 H   0  0  0  0  0  0  0  0  0  0  0  0
  -39.7830   63.5159   58.6321 H   0  0  0  0  0  0  0  0  0  0  0  0
  -39.2267   59.4647   57.1952 H   0  0  0  0  0  0  0  0  0  0  0  0
  -37.8043   57.5697   58.3200 H   0  0  0  0  0  0  0  0  0  0  0  0
  -38.7921   61.8203   58.0701 H   0  0  0  0  0  0  0  0  0  0  0  0
  -37.9369   55.3309   59.5500 H   0  0  0  0  0  0  0  0  0  0  0  0
  -39.7615   63.2929   64.7377 H   0  0  0  0  0  0  0  0  0  0  0  0
  -41.6217   64.7757   65.2811 H   0  0  0  0  0  0  0  0  0  0  0  0
  -40.0917   61.4218   63.2374 H   0  0  0  0  0  0  0  0  0  0  0  0
  -38.7554   63.1445   61.4398 H   0  0  0  0  0  0  0  0  0  0  0  0
  -37.7910   63.0854   59.9653 H   0  0  0  0  0  0  0  0  0  0  0  0
  -40.6198   58.0902   58.8842 H   0  0  0  0  0  0  0  0  0  0  0  0
  -39.7058   58.8156   60.1630 H   0  0  0  0  0  0  0  0  0  0  0  0
  -38.3203   60.8191   60.7682 H   0  0  0  0  0  0  0  0  0  0  0  0
  -40.0149   61.1634   60.6574 H   0  0  0  0  0  0  0  0  0  0  0  0
  -39.5715   54.8777   61.2648 H   0  0  0  0  0  0  0  0  0  0  0  0
  -40.6766   55.8865   60.3858 H   0  0  0  0  0  0  0  0  0  0  0  0
  -39.6739   57.8897   61.4288 H   0  0  0  0  0  0  0  0  0  0  0  0
  -38.5577   56.8621   62.3055 H   0  0  0  0  0  0  0  0  0  0  0  0
  -40.4604   57.5164   63.7205 H   0  0  0  0  0  0  0  0  0  0  0  0
  -40.4329   55.7901   63.4556 H   0  0  0  0  0  0  0  0  0  0  0  0
  -42.6967   56.6917   63.1697 H   0  0  0  0  0  0  0  0  0  0  0  0
  -42.0793   56.0336   61.6657 H   0  0  0  0  0  0  0  0  0  0  0  0
  -43.1825   58.1853   61.2952 H   0  0  0  0  0  0  0  0  0  0  0  0
  -41.4436   58.2636   60.9445 H   0  0  0  0  0  0  0  0  0  0  0  0
  -41.0405   59.3675   63.0578 H   0  0  0  0  0  0  0  0  0  0  0  0
  -42.7738   59.2754   63.4266 H   0  0  0  0  0  0  0  0  0  0  0  0
  -43.2709   60.7509   61.5798 H   0  0  0  0  0  0  0  0  0  0  0  0
  -41.5375   60.8326   61.1956 H   0  0  0  0  0  0  0  0  0  0  0  0
  -44.0070   65.2542   64.8858 H   0  0  0  0  0  0  0  0  0  0  0  0
  -45.1199   63.0637   62.8418 H   0  0  0  0  0  0  0  0  0  0  0  0
  1  9  1  0  0  0  0
  1 24  1  0  0  0  0
  1 25  1  0  0  0  0
  1 26  1  0  0  0  0
  2  4  2  0  0  0  0
  2 10  1  0  0  0  0
  2 27  1  0  0  0  0
  3  5  2  0  0  0  0
  3 10  1  0  0  0  0
  3 28  1  0  0  0  0
  4 11  1  0  0  0  0
  4 29  1  0  0  0  0
  5 12  1  0  0  0  0
  5 30  1  0  0  0  0
  6  7  2  0  0  0  0
  6  8  1  0  0  0  0
  6 31  1  0  0  0  0
  7 19  1  0  0  0  0
  7 32  1  0  0  0  0
  8 21  2  0  0  0  0
  8 33  1  0  0  0  0
  9 11  1  0  0  0  0
  9 34  1  0  0  0  0
  9 35  1  0  0  0  0
 10 36  1  0  0  0  0
 10 37  1  0  0  0  0
 11 38  1  0  0  0  0
 11 39  1  0  0  0  0
 12 13  1  0  0  0  0
 12 40  1  0  0  0  0
 12 41  1  0  0  0  0
 13 14  1  0  0  0  0
 13 42  1  0  0  0  0
 13 43  1  0  0  0  0
 14 15  1  0  0  0  0
 14 44  1  0  0  0  0
 14 45  1  0  0  0  0
 15 16  1  0  0  0  0
 15 46  1  0  0  0  0
 15 47  1  0  0  0  0
 16 17  1  0  0  0  0
 16 48  1  0  0  0  0
 16 49  1  0  0  0  0
 17 18  1  0  0  0  0
 17 50  1  0  0  0  0
 17 51  1  0  0  0  0
 18 21  1  0  0  0  0
 18 52  1  0  0  0  0
 18 53  1  0  0  0  0
 19 20  2  0  0  0  0
 19 22  1  0  0  0  0
 20 21  1  0  0  0  0
 20 23  1  0  0  0  0
 22 54  1  0  0  0  0
 23 55  1  0  0  0  0
M  END
$$$$
/media/chris/experiments/cd1a-new-docking/inputs/ligands/5j1a_ligand.pdb
 OpenBabel07022311203D

 55 55  0  0  0  0  0  0  0  0999 V2000
  -35.8250   60.8720   66.7499 C   0  0  0  0  0  0  0  0  0  0  0  0
  -35.7075   59.1898   63.0327 C   0  0  0  0  0  0  0  0  0  0  0  0
  -38.1640   59.4703   63.0317 C   0  0  0  0  0  0  0  0  0  0  0  0
  -35.0303   59.2748   64.4216 C   0  0  0  0  0  0  0  0  0  0  0  0
  -39.5120   59.3667   62.2916 C   0  0  0  0  0  0  0  0  0  0  0  0
  -47.4984   57.6011   59.5003 C   0  0  0  0  0  0  0  0  0  0  0  0
  -47.7337   57.0768   58.2224 C   0  0  0  0  0  0  0  0  0  0  0  0
  -46.2108   57.5758   60.0493 C   0  0  0  0  0  0  0  0  0  0  0  0
  -36.5711   59.6010   66.3367 C   0  0  0  0  0  0  0  0  0  0  0  0
  -37.0358   58.4490   62.8202 C   0  0  0  0  0  0  0  0  0  0  0  0
  -35.6339   58.5893   65.6631 C   0  0  0  0  0  0  0  0  0  0  0  0
  -39.7162   58.2956   61.2187 C   0  0  0  0  0  0  0  0  0  0  0  0
  -39.5380   56.9300   61.8820 C   0  0  0  0  0  0  0  0  0  0  0  0
  -40.5750   56.7430   62.9900 C   0  0  0  0  0  0  0  0  0  0  0  0
  -41.9730   56.8130   62.3910 C   0  0  0  0  0  0  0  0  0  0  0  0
  -42.1661   55.6996   61.3507 C   0  0  0  0  0  0  0  0  0  0  0  0
  -43.5658   55.7191   60.6834 C   0  0  0  0  0  0  0  0  0  0  0  0
  -43.8575   57.0325   59.9198 C   0  0  0  0  0  0  0  0  0  0  0  0
  -46.6625   56.5358   57.5118 C   0  0  0  0  0  0  0  0  0  0  0  0
  -45.3815   56.5210   58.0611 C   0  0  0  0  0  0  0  0  0  0  0  0
  -45.1269   57.0649   59.3266 C   0  0  0  0  0  0  0  0  0  0  0  0
  -46.8069   56.0069   56.2720 O   0  0  0  0  0  0  0  0  0  0  0  0
  -44.3628   55.9885   57.3260 O   0  0  0  0  0  0  0  0  0  0  0  0
  -36.5084   61.5517   67.2146 H   0  0  0  0  0  0  0  0  0  0  0  0
  -35.3977   61.3324   65.8837 H   0  0  0  0  0  0  0  0  0  0  0  0
  -35.0473   60.6205   67.4405 H   0  0  0  0  0  0  0  0  0  0  0  0
  -35.2531   59.6445   62.2254 H   0  0  0  0  0  0  0  0  0  0  0  0
  -38.0145   60.2506   63.6903 H   0  0  0  0  0  0  0  0  0  0  0  0
  -34.1504   59.8050   64.5192 H   0  0  0  0  0  0  0  0  0  0  0  0
  -40.2772   60.0203   62.5200 H   0  0  0  0  0  0  0  0  0  0  0  0
  -48.2785   58.0080   60.0398 H   0  0  0  0  0  0  0  0  0  0  0  0
  -48.6816   57.0907   57.8148 H   0  0  0  0  0  0  0  0  0  0  0  0
  -46.0585   57.9401   61.0028 H   0  0  0  0  0  0  0  0  0  0  0  0
  -37.3497   59.8629   65.6511 H   0  0  0  0  0  0  0  0  0  0  0  0
  -36.9743   59.1482   67.2183 H   0  0  0  0  0  0  0  0  0  0  0  0
  -37.1272   57.6502   63.5263 H   0  0  0  0  0  0  0  0  0  0  0  0
  -37.0833   58.0284   61.8375 H   0  0  0  0  0  0  0  0  0  0  0  0
  -34.8547   58.3062   66.3395 H   0  0  0  0  0  0  0  0  0  0  0  0
  -36.1697   57.7062   65.3838 H   0  0  0  0  0  0  0  0  0  0  0  0
  -38.9937   58.4187   60.4392 H   0  0  0  0  0  0  0  0  0  0  0  0
  -40.6929   58.3780   60.7895 H   0  0  0  0  0  0  0  0  0  0  0  0
  -38.5560   56.8665   62.3023 H   0  0  0  0  0  0  0  0  0  0  0  0
  -39.6703   56.1642   61.1465 H   0  0  0  0  0  0  0  0  0  0  0  0
  -40.4604   57.5164   63.7205 H   0  0  0  0  0  0  0  0  0  0  0  0
  -40.4329   55.7901   63.4556 H   0  0  0  0  0  0  0  0  0  0  0  0
  -42.1071   57.7638   61.9188 H   0  0  0  0  0  0  0  0  0  0  0  0
  -42.6924   56.6861   63.1729 H   0  0  0  0  0  0  0  0  0  0  0  0
  -42.0344   54.7551   61.8359 H   0  0  0  0  0  0  0  0  0  0  0  0
  -41.4442   55.8600   60.5774 H   0  0  0  0  0  0  0  0  0  0  0  0
  -44.3075   55.5962   61.4447 H   0  0  0  0  0  0  0  0  0  0  0  0
  -43.5887   54.9233   59.9684 H   0  0  0  0  0  0  0  0  0  0  0  0
  -43.1218   57.1481   59.1515 H   0  0  0  0  0  0  0  0  0  0  0  0
  -43.8249   57.8266   60.6362 H   0  0  0  0  0  0  0  0  0  0  0  0
  -47.6498   55.9952   55.8629 H   0  0  0  0  0  0  0  0  0  0  0  0
  -44.5357   55.6253   56.4798 H   0  0  0  0  0  0  0  0  0  0  0  0
  1  9  1  0  0  0  0
  1 24  1  0  0  0  0
  1 25  1  0  0  0  0
  1 26  1  0  0  0  0
  2  4  2  0  0  0  0
  2 10  1  0  0  0  0
  2 27  1  0  0  0  0
  3  5  2  0  0  0  0
  3 10  1  0  0  0  0
  3 28  1  0  0  0  0
  4 11  1  0  0  0  0
  4 29  1  0  0  0  0
  5 12  1  0  0  0  0
  5 30  1  0  0  0  0
  6  7  2  0  0  0  0
  6  8  1  0  0  0  0
  6 31  1  0  0  0  0
  7 19  1  0  0  0  0
  7 32  1  0  0  0  0
  8 21  2  0  0  0  0
  8 33  1  0  0  0  0
  9 11  1  0  0  0  0
  9 34  1  0  0  0  0
  9 35  1  0  0  0  0
 10 36  1  0  0  0  0
 10 37  1  0  0  0  0
 11 38  1  0  0  0  0
 11 39  1  0  0  0  0
 12 13  1  0  0  0  0
 12 40  1  0  0  0  0
 12 41  1  0  0  0  0
 13 14  1  0  0  0  0
 13 42  1  0  0  0  0
 13 43  1  0  0  0  0
 14 15  1  0  0  0  0
 14 44  1  0  0  0  0
 14 45  1  0  0  0  0
 15 16  1  0  0  0  0
 15 46  1  0  0  0  0
 15 47  1  0  0  0  0
 16 17  1  0  0  0  0
 16 48  1  0  0  0  0
 16 49  1  0  0  0  0
 17 18  1  0  0  0  0
 17 50  1  0  0  0  0
 17 51  1  0  0  0  0
 18 21  1  0  0  0  0
 18 52  1  0  0  0  0
 18 53  1  0  0  0  0
 19 20  2  0  0  0  0
 19 22  1  0  0  0  0
 20 21  1  0  0  0  0
 20 23  1  0  0  0  0
 22 54  1  0  0  0  0
 23 55  1  0  0  0  0
M  END
$$$$
/media/chris/experiments/cd1a-new-docking/inputs/ligands/5j1a_ligand.pdb
 OpenBabel07022311203D

 55 55  0  0  0  0  0  0  0  0999 V2000
  -38.7137   62.6897   58.1729 C   0  0  0  0  0  0  0  0  0  0  0  0
  -40.9176   59.2540   58.1673 C   0  0  0  0  0  0  0  0  0  0  0  0
  -41.5245   57.2724   59.5157 C   0  0  0  0  0  0  0  0  0  0  0  0
  -39.8390   60.0844   57.4312 C   0  0  0  0  0  0  0  0  0  0  0  0
  -41.1044   55.9720   60.2283 C   0  0  0  0  0  0  0  0  0  0  0  0
  -46.2153   59.7537   65.7814 C   0  0  0  0  0  0  0  0  0  0  0  0
  -45.3738   59.6686   66.8985 C   0  0  0  0  0  0  0  0  0  0  0  0
  -46.2610   58.7103   64.8491 C   0  0  0  0  0  0  0  0  0  0  0  0
  -38.3265   61.3962   58.8939 C   0  0  0  0  0  0  0  0  0  0  0  0
  -40.6180   58.5125   59.4782 C   0  0  0  0  0  0  0  0  0  0  0  0
  -38.3928   60.1841   57.9547 C   0  0  0  0  0  0  0  0  0  0  0  0
  -39.6997   55.8424   60.8202 C   0  0  0  0  0  0  0  0  0  0  0  0
  -39.5380   56.9300   61.8820 C   0  0  0  0  0  0  0  0  0  0  0  0
  -40.5750   56.7430   62.9900 C   0  0  0  0  0  0  0  0  0  0  0  0
  -41.9730   56.8130   62.3910 C   0  0  0  0  0  0  0  0  0  0  0  0
  -43.0346   56.6452   63.4882 C   0  0  0  0  0  0  0  0  0  0  0  0
  -44.4877   56.6885   62.9483 C   0  0  0  0  0  0  0  0  0  0  0  0
  -45.5541   56.5365   64.0586 C   0  0  0  0  0  0  0  0  0  0  0  0
  -44.5900   58.5267   67.0624 C   0  0  0  0  0  0  0  0  0  0  0  0
  -44.6462   57.4882   66.1344 C   0  0  0  0  0  0  0  0  0  0  0  0
  -45.5019   57.5483   65.0270 C   0  0  0  0  0  0  0  0  0  0  0  0
  -43.7488   58.3683   68.1136 O   0  0  0  0  0  0  0  0  0  0  0  0
  -43.8671   56.3870   66.3400 O   0  0  0  0  0  0  0  0  0  0  0  0
  -38.6559   63.5104   58.8570 H   0  0  0  0  0  0  0  0  0  0  0  0
  -39.7133   62.6051   57.8008 H   0  0  0  0  0  0  0  0  0  0  0  0
  -38.0424   62.8578   57.3567 H   0  0  0  0  0  0  0  0  0  0  0  0
  -41.8664   59.1969   57.7653 H   0  0  0  0  0  0  0  0  0  0  0  0
  -42.4439   57.3115   59.0487 H   0  0  0  0  0  0  0  0  0  0  0  0
  -40.0951   60.5853   56.5660 H   0  0  0  0  0  0  0  0  0  0  0  0
  -41.7712   55.1882   60.3063 H   0  0  0  0  0  0  0  0  0  0  0  0
  -46.8046   60.5899   65.6453 H   0  0  0  0  0  0  0  0  0  0  0  0
  -45.3347   60.4364   67.5870 H   0  0  0  0  0  0  0  0  0  0  0  0
  -46.8646   58.7997   64.0168 H   0  0  0  0  0  0  0  0  0  0  0  0
  -38.9992   61.2395   59.7111 H   0  0  0  0  0  0  0  0  0  0  0  0
  -37.3194   61.4955   59.2415 H   0  0  0  0  0  0  0  0  0  0  0  0
  -40.8288   59.1461   60.3143 H   0  0  0  0  0  0  0  0  0  0  0  0
  -39.5869   58.2311   59.5286 H   0  0  0  0  0  0  0  0  0  0  0  0
  -37.7163   60.3180   57.1366 H   0  0  0  0  0  0  0  0  0  0  0  0
  -38.1163   59.2896   58.4727 H   0  0  0  0  0  0  0  0  0  0  0  0
  -38.9673   55.9727   60.0511 H   0  0  0  0  0  0  0  0  0  0  0  0
  -39.5648   54.8736   61.2538 H   0  0  0  0  0  0  0  0  0  0  0  0
  -39.6739   57.8897   61.4288 H   0  0  0  0  0  0  0  0  0  0  0  0
  -38.5577   56.8621   62.3055 H   0  0  0  0  0  0  0  0  0  0  0  0
  -40.4604   57.5164   63.7205 H   0  0  0  0  0  0  0  0  0  0  0  0
  -40.4329   55.7901   63.4556 H   0  0  0  0  0  0  0  0  0  0  0  0
  -42.0864   56.0321   61.6683 H   0  0  0  0  0  0  0  0  0  0  0  0
  -42.1035   57.7672   61.9248 H   0  0  0  0  0  0  0  0  0  0  0  0
  -42.9137   57.4339   64.2011 H   0  0  0  0  0  0  0  0  0  0  0  0
  -42.8880   55.6799   63.9258 H   0  0  0  0  0  0  0  0  0  0  0  0
  -44.6131   55.8921   62.2447 H   0  0  0  0  0  0  0  0  0  0  0  0
  -44.6315   57.6484   62.4978 H   0  0  0  0  0  0  0  0  0  0  0  0
  -45.4053   55.5949   64.5444 H   0  0  0  0  0  0  0  0  0  0  0  0
  -46.5118   56.6028   63.5860 H   0  0  0  0  0  0  0  0  0  0  0  0
  -43.6780   59.0406   68.7625 H   0  0  0  0  0  0  0  0  0  0  0  0
  -43.2956   56.3493   67.0815 H   0  0  0  0  0  0  0  0  0  0  0  0
  1  9  1  0  0  0  0
  1 24  1  0  0  0  0
  1 25  1  0  0  0  0
  1 26  1  0  0  0  0
  2  4  2  0  0  0  0
  2 10  1  0  0  0  0
  2 27  1  0  0  0  0
  3  5  2  0  0  0  0
  3 10  1  0  0  0  0
  3 28  1  0  0  0  0
  4 11  1  0  0  0  0
  4 29  1  0  0  0  0
  5 12  1  0  0  0  0
  5 30  1  0  0  0  0
  6  7  2  0  0  0  0
  6  8  1  0  0  0  0
  6 31  1  0  0  0  0
  7 19  1  0  0  0  0
  7 32  1  0  0  0  0
  8 21  2  0  0  0  0
  8 33  1  0  0  0  0
  9 11  1  0  0  0  0
  9 34  1  0  0  0  0
  9 35  1  0  0  0  0
 10 36  1  0  0  0  0
 10 37  1  0  0  0  0
 11 38  1  0  0  0  0
 11 39  1  0  0  0  0
 12 13  1  0  0  0  0
 12 40  1  0  0  0  0
 12 41  1  0  0  0  0
 13 14  1  0  0  0  0
 13 42  1  0  0  0  0
 13 43  1  0  0  0  0
 14 15  1  0  0  0  0
 14 44  1  0  0  0  0
 14 45  1  0  0  0  0
 15 16  1  0  0  0  0
 15 46  1  0  0  0  0
 15 47  1  0  0  0  0
 16 17  1  0  0  0  0
 16 48  1  0  0  0  0
 16 49  1  0  0  0  0
 17 18  1  0  0  0  0
 17 50  1  0  0  0  0
 17 51  1  0  0  0  0
 18 21  1  0  0  0  0
 18 52  1  0  0  0  0
 18 53  1  0  0  0  0
 19 20  2  0  0  0  0
 19 22  1  0  0  0  0
 20 21  1  0  0  0  0
 20 23  1  0  0  0  0
 22 54  1  0  0  0  0
 23 55  1  0  0  0  0
M  END
$$$$
/media/chris/experiments/cd1a-new-docking/inputs/ligands/5j1a_ligand.pdb
 OpenBabel07022311203D

 55 55  0  0  0  0  0  0  0  0999 V2000
  -39.6867   51.2952   61.0518 C   0  0  0  0  0  0  0  0  0  0  0  0
  -37.6145   55.1805   62.3205 C   0  0  0  0  0  0  0  0  0  0  0  0
  -37.2507   55.3925   59.8841 C   0  0  0  0  0  0  0  0  0  0  0  0
  -38.6069   54.3447   63.1638 C   0  0  0  0  0  0  0  0  0  0  0  0
  -38.6290   56.0694   59.7515 C   0  0  0  0  0  0  0  0  0  0  0  0
  -47.4728   56.4147   64.9344 C   0  0  0  0  0  0  0  0  0  0  0  0
  -47.9890   57.4926   64.2031 C   0  0  0  0  0  0  0  0  0  0  0  0
  -46.1592   56.4518   65.4173 C   0  0  0  0  0  0  0  0  0  0  0  0
  -39.3832   52.7456   61.4352 C   0  0  0  0  0  0  0  0  0  0  0  0
  -36.8560   54.5807   61.1275 C   0  0  0  0  0  0  0  0  0  0  0  0
  -38.8626   52.8524   62.8750 C   0  0  0  0  0  0  0  0  0  0  0  0
  -39.6997   55.8424   60.8202 C   0  0  0  0  0  0  0  0  0  0  0  0
  -39.5380   56.9300   61.8820 C   0  0  0  0  0  0  0  0  0  0  0  0
  -40.5750   56.7430   62.9900 C   0  0  0  0  0  0  0  0  0  0  0  0
  -41.9730   56.8130   62.3910 C   0  0  0  0  0  0  0  0  0  0  0  0
  -43.0346   56.6452   63.4882 C   0  0  0  0  0  0  0  0  0  0  0  0
  -42.9688   57.7452   64.5794 C   0  0  0  0  0  0  0  0  0  0  0  0
  -44.0284   57.5628   65.6918 C   0  0  0  0  0  0  0  0  0  0  0  0
  -47.1716   58.5986   63.9711 C   0  0  0  0  0  0  0  0  0  0  0  0
  -45.8672   58.6323   64.4615 C   0  0  0  0  0  0  0  0  0  0  0  0
  -45.3467   57.5733   65.2161 C   0  0  0  0  0  0  0  0  0  0  0  0
  -47.5944   59.6797   63.2711 O   0  0  0  0  0  0  0  0  0  0  0  0
  -45.1069   59.7385   64.2166 O   0  0  0  0  0  0  0  0  0  0  0  0
  -40.0462   51.2603   60.0446 H   0  0  0  0  0  0  0  0  0  0  0  0
  -40.4319   50.9006   61.7104 H   0  0  0  0  0  0  0  0  0  0  0  0
  -38.7940   50.7107   61.1323 H   0  0  0  0  0  0  0  0  0  0  0  0
  -37.4577   56.1702   62.5671 H   0  0  0  0  0  0  0  0  0  0  0  0
  -36.5713   55.4875   59.1132 H   0  0  0  0  0  0  0  0  0  0  0  0
  -39.1115   54.7990   63.9411 H   0  0  0  0  0  0  0  0  0  0  0  0
  -38.8296   56.6762   58.9412 H   0  0  0  0  0  0  0  0  0  0  0  0
  -48.0640   55.5890   65.1182 H   0  0  0  0  0  0  0  0  0  0  0  0
  -48.9558   57.4685   63.8428 H   0  0  0  0  0  0  0  0  0  0  0  0
  -45.7839   55.6386   65.9300 H   0  0  0  0  0  0  0  0  0  0  0  0
  -40.2796   53.3231   61.3463 H   0  0  0  0  0  0  0  0  0  0  0  0
  -38.6244   53.1139   60.7768 H   0  0  0  0  0  0  0  0  0  0  0  0
  -37.1297   53.5545   60.9974 H   0  0  0  0  0  0  0  0  0  0  0  0
  -35.7992   54.6228   61.2891 H   0  0  0  0  0  0  0  0  0  0  0  0
  -39.5918   52.4677   63.5570 H   0  0  0  0  0  0  0  0  0  0  0  0
  -37.9631   52.2853   62.9943 H   0  0  0  0  0  0  0  0  0  0  0  0
  -39.5715   54.8777   61.2648 H   0  0  0  0  0  0  0  0  0  0  0  0
  -40.6766   55.8865   60.3858 H   0  0  0  0  0  0  0  0  0  0  0  0
  -39.6739   57.8897   61.4288 H   0  0  0  0  0  0  0  0  0  0  0  0
  -38.5577   56.8621   62.3055 H   0  0  0  0  0  0  0  0  0  0  0  0
  -40.4604   57.5164   63.7205 H   0  0  0  0  0  0  0  0  0  0  0  0
  -40.4329   55.7901   63.4556 H   0  0  0  0  0  0  0  0  0  0  0  0
  -42.0864   56.0321   61.6683 H   0  0  0  0  0  0  0  0  0  0  0  0
  -42.1035   57.7672   61.9248 H   0  0  0  0  0  0  0  0  0  0  0  0
  -42.8917   55.6937   63.9563 H   0  0  0  0  0  0  0  0  0  0  0  0
  -43.9921   56.7233   63.0171 H   0  0  0  0  0  0  0  0  0  0  0  0
  -43.1244   58.6960   64.1139 H   0  0  0  0  0  0  0  0  0  0  0  0
  -42.0065   57.6774   65.0421 H   0  0  0  0  0  0  0  0  0  0  0  0
  -43.9173   58.3581   66.3989 H   0  0  0  0  0  0  0  0  0  0  0  0
  -43.8604   56.6019   66.1316 H   0  0  0  0  0  0  0  0  0  0  0  0
  -48.4638   59.7013   62.9223 H   0  0  0  0  0  0  0  0  0  0  0  0
  -45.4575   60.4456   63.7115 H   0  0  0  0  0  0  0  0  0  0  0  0
  1  9  1  0  0  0  0
  1 24  1  0  0  0  0
  1 25  1  0  0  0  0
  1 26  1  0  0  0  0
  2  4  2  0  0  0  0
  2 10  1  0  0  0  0
  2 27  1  0  0  0  0
  3  5  2  0  0  0  0
  3 10  1  0  0  0  0
  3 28  1  0  0  0  0
  4 11  1  0  0  0  0
  4 29  1  0  0  0  0
  5 12  1  0  0  0  0
  5 30  1  0  0  0  0
  6  7  2  0  0  0  0
  6  8  1  0  0  0  0
  6 31  1  0  0  0  0
  7 19  1  0  0  0  0
  7 32  1  0  0  0  0
  8 21  2  0  0  0  0
  8 33  1  0  0  0  0
  9 11  1  0  0  0  0
  9 34  1  0  0  0  0
  9 35  1  0  0  0  0
 10 36  1  0  0  0  0
 10 37  1  0  0  0  0
 11 38  1  0  0  0  0
 11 39  1  0  0  0  0
 12 13  1  0  0  0  0
 12 40  1  0  0  0  0
 12 41  1  0  0  0  0
 13 14  1  0  0  0  0
 13 42  1  0  0  0  0
 13 43  1  0  0  0  0
 14 15  1  0  0  0  0
 14 44  1  0  0  0  0
 14 45  1  0  0  0  0
 15 16  1  0  0  0  0
 15 46  1  0  0  0  0
 15 47  1  0  0  0  0
 16 17  1  0  0  0  0
 16 48  1  0  0  0  0
 16 49  1  0  0  0  0
 17 18  1  0  0  0  0
 17 50  1  0  0  0  0
 17 51  1  0  0  0  0
 18 21  1  0  0  0  0
 18 52  1  0  0  0  0
 18 53  1  0  0  0  0
 19 20  2  0  0  0  0
 19 22  1  0  0  0  0
 20 21  1  0  0  0  0
 20 23  1  0  0  0  0
 22 54  1  0  0  0  0
 23 55  1  0  0  0  0
M  END
$$$$
/media/chris/experiments/cd1a-new-docking/inputs/ligands/5j1a_ligand.pdb
 OpenBabel07022311203D

 55 55  0  0  0  0  0  0  0  0999 V2000
  -39.2673   58.7557   67.0347 C   0  0  0  0  0  0  0  0  0  0  0  0
  -40.2487   60.6011   62.2543 C   0  0  0  0  0  0  0  0  0  0  0  0
  -42.1174   59.4370   61.1292 C   0  0  0  0  0  0  0  0  0  0  0  0
  -39.3590   60.2303   63.4649 C   0  0  0  0  0  0  0  0  0  0  0  0
  -41.1327   58.3550   60.6442 C   0  0  0  0  0  0  0  0  0  0  0  0
  -42.8500   50.1680   62.9829 C   0  0  0  0  0  0  0  0  0  0  0  0
  -41.8227   49.2997   62.5904 C   0  0  0  0  0  0  0  0  0  0  0  0
  -42.9561   51.4420   62.4124 C   0  0  0  0  0  0  0  0  0  0  0  0
  -38.7883   59.3917   65.7274 C   0  0  0  0  0  0  0  0  0  0  0  0
  -41.7713   60.4021   62.2735 C   0  0  0  0  0  0  0  0  0  0  0  0
  -39.9480   59.6065   64.7453 C   0  0  0  0  0  0  0  0  0  0  0  0
  -39.7162   58.2956   61.2187 C   0  0  0  0  0  0  0  0  0  0  0  0
  -39.5380   56.9300   61.8820 C   0  0  0  0  0  0  0  0  0  0  0  0
  -40.5750   56.7430   62.9900 C   0  0  0  0  0  0  0  0  0  0  0  0
  -41.9730   56.8130   62.3910 C   0  0  0  0  0  0  0  0  0  0  0  0
  -42.1661   55.6996   61.3507 C   0  0  0  0  0  0  0  0  0  0  0  0
  -42.0124   54.2741   61.9416 C   0  0  0  0  0  0  0  0  0  0  0  0
  -42.1905   53.1560   60.8873 C   0  0  0  0  0  0  0  0  0  0  0  0
  -40.9155   49.7285   61.6217 C   0  0  0  0  0  0  0  0  0  0  0  0
  -41.0316   50.9953   61.0521 C   0  0  0  0  0  0  0  0  0  0  0  0
  -42.0687   51.8638   61.4159 C   0  0  0  0  0  0  0  0  0  0  0  0
  -39.8929   48.9504   61.1898 O   0  0  0  0  0  0  0  0  0  0  0  0
  -40.1258   51.3688   60.1025 O   0  0  0  0  0  0  0  0  0  0  0  0
  -38.4340   58.6217   67.6924 H   0  0  0  0  0  0  0  0  0  0  0  0
  -39.7138   57.8059   66.8266 H   0  0  0  0  0  0  0  0  0  0  0  0
  -39.9888   59.3950   67.4989 H   0  0  0  0  0  0  0  0  0  0  0  0
  -39.8057   60.9938   61.4090 H   0  0  0  0  0  0  0  0  0  0  0  0
  -43.0386   59.5157   60.6707 H   0  0  0  0  0  0  0  0  0  0  0  0
  -38.3433   60.4055   63.4135 H   0  0  0  0  0  0  0  0  0  0  0  0
  -41.4292   57.6701   59.9314 H   0  0  0  0  0  0  0  0  0  0  0  0
  -43.5321   49.8667   63.6964 H   0  0  0  0  0  0  0  0  0  0  0  0
  -41.7390   48.3606   63.0102 H   0  0  0  0  0  0  0  0  0  0  0  0
  -43.7010   52.0807   62.7319 H   0  0  0  0  0  0  0  0  0  0  0  0
  -38.0635   58.7486   65.2735 H   0  0  0  0  0  0  0  0  0  0  0  0
  -38.3623   60.3463   65.9561 H   0  0  0  0  0  0  0  0  0  0  0  0
  -42.2656   61.3393   62.1248 H   0  0  0  0  0  0  0  0  0  0  0  0
  -42.0909   60.0057   63.2146 H   0  0  0  0  0  0  0  0  0  0  0  0
  -40.4112   58.6696   64.5159 H   0  0  0  0  0  0  0  0  0  0  0  0
  -40.6897   60.2492   65.1717 H   0  0  0  0  0  0  0  0  0  0  0  0
  -39.5844   59.0720   61.9431 H   0  0  0  0  0  0  0  0  0  0  0  0
  -38.9922   58.4316   60.4428 H   0  0  0  0  0  0  0  0  0  0  0  0
  -38.5560   56.8665   62.3023 H   0  0  0  0  0  0  0  0  0  0  0  0
  -39.6703   56.1642   61.1465 H   0  0  0  0  0  0  0  0  0  0  0  0
  -40.4604   57.5164   63.7205 H   0  0  0  0  0  0  0  0  0  0  0  0
  -40.4329   55.7901   63.4556 H   0  0  0  0  0  0  0  0  0  0  0  0
  -42.1071   57.7638   61.9188 H   0  0  0  0  0  0  0  0  0  0  0  0
  -42.6924   56.6861   63.1729 H   0  0  0  0  0  0  0  0  0  0  0  0
  -41.4374   55.8271   60.5777 H   0  0  0  0  0  0  0  0  0  0  0  0
  -43.1664   55.7826   60.9800 H   0  0  0  0  0  0  0  0  0  0  0  0
  -42.7492   54.1414   62.7060 H   0  0  0  0  0  0  0  0  0  0  0  0
  -41.0169   54.1941   62.3254 H   0  0  0  0  0  0  0  0  0  0  0  0
  -41.4458   53.2835   60.1296 H   0  0  0  0  0  0  0  0  0  0  0  0
  -43.1838   53.2448   60.4995 H   0  0  0  0  0  0  0  0  0  0  0  0
  -39.7758   48.0911   61.5446 H   0  0  0  0  0  0  0  0  0  0  0  0
  -39.4330   50.7860   59.8609 H   0  0  0  0  0  0  0  0  0  0  0  0
  1  9  1  0  0  0  0
  1 24  1  0  0  0  0
  1 25  1  0  0  0  0
  1 26  1  0  0  0  0
  2  4  2  0  0  0  0
  2 10  1  0  0  0  0
  2 27  1  0  0  0  0
  3  5  2  0  0  0  0
  3 10  1  0  0  0  0
  3 28  1  0  0  0  0
  4 11  1  0  0  0  0
  4 29  1  0  0  0  0
  5 12  1  0  0  0  0
  5 30  1  0  0  0  0
  6  7  2  0  0  0  0
  6  8  1  0  0  0  0
  6 31  1  0  0  0  0
  7 19  1  0  0  0  0
  7 32  1  0  0  0  0
  8 21  2  0  0  0  0
  8 33  1  0  0  0  0
  9 11  1  0  0  0  0
  9 34  1  0  0  0  0
  9 35  1  0  0  0  0
 10 36  1  0  0  0  0
 10 37  1  0  0  0  0
 11 38  1  0  0  0  0
 11 39  1  0  0  0  0
 12 13  1  0  0  0  0
 12 40  1  0  0  0  0
 12 41  1  0  0  0  0
 13 14  1  0  0  0  0
 13 42  1  0  0  0  0
 13 43  1  0  0  0  0
 14 15  1  0  0  0  0
 14 44  1  0  0  0  0
 14 45  1  0  0  0  0
 15 16  1  0  0  0  0
 15 46  1  0  0  0  0
 15 47  1  0  0  0  0
 16 17  1  0  0  0  0
 16 48  1  0  0  0  0
 16 49  1  0  0  0  0
 17 18  1  0  0  0  0
 17 50  1  0  0  0  0
 17 51  1  0  0  0  0
 18 21  1  0  0  0  0
 18 52  1  0  0  0  0
 18 53  1  0  0  0  0
 19 20  2  0  0  0  0
 19 22  1  0  0  0  0
 20 21  1  0  0  0  0
 20 23  1  0  0  0  0
 22 54  1  0  0  0  0
 23 55  1  0  0  0  0
M  END
$$$$
/media/chris/experiments/cd1a-new-docking/inputs/ligands/5j1a_ligand.pdb
 OpenBabel07022311203D

 55 55  0  0  0  0  0  0  0  0999 V2000
  -34.4036   56.5676   61.9202 C   0  0  0  0  0  0  0  0  0  0  0  0
  -36.8269   60.1725   62.4153 C   0  0  0  0  0  0  0  0  0  0  0  0
  -37.6248   59.5521   60.1588 C   0  0  0  0  0  0  0  0  0  0  0  0
  -35.6237   59.2166   62.2323 C   0  0  0  0  0  0  0  0  0  0  0  0
  -38.6676   58.4181   60.1118 C   0  0  0  0  0  0  0  0  0  0  0  0
  -40.8881   58.3134   58.1039 C   0  0  0  0  0  0  0  0  0  0  0  0
  -41.1463   57.9030   56.7894 C   0  0  0  0  0  0  0  0  0  0  0  0
  -41.7968   58.0206   59.1279 C   0  0  0  0  0  0  0  0  0  0  0  0
  -35.2852   57.1948   60.8376 C   0  0  0  0  0  0  0  0  0  0  0  0
  -37.6679   60.6573   61.2253 C   0  0  0  0  0  0  0  0  0  0  0  0
  -35.1802   58.7260   60.8402 C   0  0  0  0  0  0  0  0  0  0  0  0
  -39.7162   58.2956   61.2187 C   0  0  0  0  0  0  0  0  0  0  0  0
  -39.5380   56.9300   61.8820 C   0  0  0  0  0  0  0  0  0  0  0  0
  -40.5750   56.7430   62.9900 C   0  0  0  0  0  0  0  0  0  0  0  0
  -41.9730   56.8130   62.3910 C   0  0  0  0  0  0  0  0  0  0  0  0
  -42.1661   55.6996   61.3507 C   0  0  0  0  0  0  0  0  0  0  0  0
  -43.5658   55.7191   60.6834 C   0  0  0  0  0  0  0  0  0  0  0  0
  -43.8575   57.0325   59.9198 C   0  0  0  0  0  0  0  0  0  0  0  0
  -42.3199   57.1970   56.5254 C   0  0  0  0  0  0  0  0  0  0  0  0
  -43.2165   56.9020   57.5511 C   0  0  0  0  0  0  0  0  0  0  0  0
  -42.9588   57.2833   58.8740 C   0  0  0  0  0  0  0  0  0  0  0  0
  -42.6442   56.7671   55.2814 O   0  0  0  0  0  0  0  0  0  0  0  0
  -44.3478   56.2023   57.2471 O   0  0  0  0  0  0  0  0  0  0  0  0
  -34.5025   55.5026   61.8881 H   0  0  0  0  0  0  0  0  0  0  0  0
  -34.7098   56.9253   62.8810 H   0  0  0  0  0  0  0  0  0  0  0  0
  -33.3822   56.8362   61.7484 H   0  0  0  0  0  0  0  0  0  0  0  0
  -37.0713   60.4937   63.3651 H   0  0  0  0  0  0  0  0  0  0  0  0
  -36.8736   59.5696   59.4514 H   0  0  0  0  0  0  0  0  0  0  0  0
  -35.1040   58.8990   63.0654 H   0  0  0  0  0  0  0  0  0  0  0  0
  -38.6584   57.7411   59.3329 H   0  0  0  0  0  0  0  0  0  0  0  0
  -40.0235   58.8344   58.3185 H   0  0  0  0  0  0  0  0  0  0  0  0
  -40.4808   58.1189   56.0308 H   0  0  0  0  0  0  0  0  0  0  0  0
  -41.6065   58.3540   60.0859 H   0  0  0  0  0  0  0  0  0  0  0  0
  -36.3031   56.9162   61.0142 H   0  0  0  0  0  0  0  0  0  0  0  0
  -34.9510   56.8381   59.8857 H   0  0  0  0  0  0  0  0  0  0  0  0
  -37.2575   61.5634   60.8312 H   0  0  0  0  0  0  0  0  0  0  0  0
  -38.6752   60.8548   61.5273 H   0  0  0  0  0  0  0  0  0  0  0  0
  -34.1697   59.0235   60.6525 H   0  0  0  0  0  0  0  0  0  0  0  0
  -35.7991   59.1481   60.0762 H   0  0  0  0  0  0  0  0  0  0  0  0
  -40.6980   58.3716   60.8001 H   0  0  0  0  0  0  0  0  0  0  0  0
  -39.5944   59.0789   61.9374 H   0  0  0  0  0  0  0  0  0  0  0  0
  -38.5560   56.8665   62.3023 H   0  0  0  0  0  0  0  0  0  0  0  0
  -39.6703   56.1642   61.1465 H   0  0  0  0  0  0  0  0  0  0  0  0
  -40.4604   57.5164   63.7205 H   0  0  0  0  0  0  0  0  0  0  0  0
  -40.4329   55.7901   63.4556 H   0  0  0  0  0  0  0  0  0  0  0  0
  -42.1071   57.7638   61.9188 H   0  0  0  0  0  0  0  0  0  0  0  0
  -42.6924   56.6861   63.1729 H   0  0  0  0  0  0  0  0  0  0  0  0
  -42.0344   54.7551   61.8359 H   0  0  0  0  0  0  0  0  0  0  0  0
  -41.4442   55.8600   60.5774 H   0  0  0  0  0  0  0  0  0  0  0  0
  -44.3075   55.5962   61.4447 H   0  0  0  0  0  0  0  0  0  0  0  0
  -43.5887   54.9233   59.9684 H   0  0  0  0  0  0  0  0  0  0  0  0
  -43.8057   57.8459   60.6131 H   0  0  0  0  0  0  0  0  0  0  0  0
  -44.8290   56.9329   59.4825 H   0  0  0  0  0  0  0  0  0  0  0  0
  -42.0714   56.9426   54.5609 H   0  0  0  0  0  0  0  0  0  0  0  0
  -44.5179   55.9484   56.3613 H   0  0  0  0  0  0  0  0  0  0  0  0
  1  9  1  0  0  0  0
  1 24  1  0  0  0  0
  1 25  1  0  0  0  0
  1 26  1  0  0  0  0
  2  4  2  0  0  0  0
  2 10  1  0  0  0  0
  2 27  1  0  0  0  0
  3  5  2  0  0  0  0
  3 10  1  0  0  0  0
  3 28  1  0  0  0  0
  4 11  1  0  0  0  0
  4 29  1  0  0  0  0
  5 12  1  0  0  0  0
  5 30  1  0  0  0  0
  6  7  2  0  0  0  0
  6  8  1  0  0  0  0
  6 31  1  0  0  0  0
  7 19  1  0  0  0  0
  7 32  1  0  0  0  0
  8 21  2  0  0  0  0
  8 33  1  0  0  0  0
  9 11  1  0  0  0  0
  9 34  1  0  0  0  0
  9 35  1  0  0  0  0
 10 36  1  0  0  0  0
 10 37  1  0  0  0  0
 11 38  1  0  0  0  0
 11 39  1  0  0  0  0
 12 13  1  0  0  0  0
 12 40  1  0  0  0  0
 12 41  1  0  0  0  0
 13 14  1  0  0  0  0
 13 42  1  0  0  0  0
 13 43  1  0  0  0  0
 14 15  1  0  0  0  0
 14 44  1  0  0  0  0
 14 45  1  0  0  0  0
 15 16  1  0  0  0  0
 15 46  1  0  0  0  0
 15 47  1  0  0  0  0
 16 17  1  0  0  0  0
 16 48  1  0  0  0  0
 16 49  1  0  0  0  0
 17 18  1  0  0  0  0
 17 50  1  0  0  0  0
 17 51  1  0  0  0  0
 18 21  1  0  0  0  0
 18 52  1  0  0  0  0
 18 53  1  0  0  0  0
 19 20  2  0  0  0  0
 19 22  1  0  0  0  0
 20 21  1  0  0  0  0
 20 23  1  0  0  0  0
 22 54  1  0  0  0  0
 23 55  1  0  0  0  0
M  END
$$$$
/media/chris/experiments/cd1a-new-docking/inputs/ligands/5j1a_ligand.pdb
 OpenBabel07022311203D

 55 55  0  0  0  0  0  0  0  0999 V2000
  -32.2827   57.7035   63.4470 C   0  0  0  0  0  0  0  0  0  0  0  0
  -35.5015   60.1402   61.7210 C   0  0  0  0  0  0  0  0  0  0  0  0
  -37.2843   59.0225   60.4228 C   0  0  0  0  0  0  0  0  0  0  0  0
  -34.3954   59.6040   62.6610 C   0  0  0  0  0  0  0  0  0  0  0  0
  -38.6676   58.4181   60.1118 C   0  0  0  0  0  0  0  0  0  0  0  0
  -46.6573   55.7926   57.6696 C   0  0  0  0  0  0  0  0  0  0  0  0
  -47.5784   54.7485   57.8270 C   0  0  0  0  0  0  0  0  0  0  0  0
  -45.4001   55.7252   58.2817 C   0  0  0  0  0  0  0  0  0  0  0  0
  -33.7608   57.3139   63.3685 C   0  0  0  0  0  0  0  0  0  0  0  0
  -36.9479   59.6293   61.7936 C   0  0  0  0  0  0  0  0  0  0  0  0
  -34.6764   58.5003   63.6995 C   0  0  0  0  0  0  0  0  0  0  0  0
  -39.7162   58.2956   61.2187 C   0  0  0  0  0  0  0  0  0  0  0  0
  -39.5380   56.9300   61.8820 C   0  0  0  0  0  0  0  0  0  0  0  0
  -40.5750   56.7430   62.9900 C   0  0  0  0  0  0  0  0  0  0  0  0
  -41.9730   56.8130   62.3910 C   0  0  0  0  0  0  0  0  0  0  0  0
  -42.1661   55.6996   61.3507 C   0  0  0  0  0  0  0  0  0  0  0  0
  -43.5658   55.7191   60.6834 C   0  0  0  0  0  0  0  0  0  0  0  0
  -43.7624   54.5857   59.6489 C   0  0  0  0  0  0  0  0  0  0  0  0
  -47.2159   53.6451   58.5993 C   0  0  0  0  0  0  0  0  0  0  0  0
  -45.9595   53.5809   59.1995 C   0  0  0  0  0  0  0  0  0  0  0  0
  -45.0194   54.6053   59.0294 C   0  0  0  0  0  0  0  0  0  0  0  0
  -48.0497   52.5957   58.8024 O   0  0  0  0  0  0  0  0  0  0  0  0
  -45.6460   52.4784   59.9397 O   0  0  0  0  0  0  0  0  0  0  0  0
  -31.6768   56.8539   63.2107 H   0  0  0  0  0  0  0  0  0  0  0  0
  -32.0546   58.0401   64.4368 H   0  0  0  0  0  0  0  0  0  0  0  0
  -32.0833   58.4891   62.7484 H   0  0  0  0  0  0  0  0  0  0  0  0
  -35.2600   60.8626   61.0246 H   0  0  0  0  0  0  0  0  0  0  0  0
  -36.5610   59.0195   59.6867 H   0  0  0  0  0  0  0  0  0  0  0  0
  -33.4434   59.9962   62.5906 H   0  0  0  0  0  0  0  0  0  0  0  0
  -38.8865   58.0960   59.1561 H   0  0  0  0  0  0  0  0  0  0  0  0
  -46.9071   56.6157   57.0993 H   0  0  0  0  0  0  0  0  0  0  0  0
  -48.5073   54.7950   57.3799 H   0  0  0  0  0  0  0  0  0  0  0  0
  -44.7431   56.5146   58.1798 H   0  0  0  0  0  0  0  0  0  0  0  0
  -33.9493   56.5246   64.0659 H   0  0  0  0  0  0  0  0  0  0  0  0
  -33.9708   56.9981   62.3679 H   0  0  0  0  0  0  0  0  0  0  0  0
  -37.6126   60.4397   62.0090 H   0  0  0  0  0  0  0  0  0  0  0  0
  -37.0546   58.8995   62.5688 H   0  0  0  0  0  0  0  0  0  0  0  0
  -35.7012   58.1980   63.6436 H   0  0  0  0  0  0  0  0  0  0  0  0
  -34.4881   58.8575   64.6904 H   0  0  0  0  0  0  0  0  0  0  0  0
  -40.6980   58.3716   60.8001 H   0  0  0  0  0  0  0  0  0  0  0  0
  -39.5944   59.0789   61.9374 H   0  0  0  0  0  0  0  0  0  0  0  0
  -38.5560   56.8665   62.3023 H   0  0  0  0  0  0  0  0  0  0  0  0
  -39.6703   56.1642   61.1465 H   0  0  0  0  0  0  0  0  0  0  0  0
  -40.4604   57.5164   63.7205 H   0  0  0  0  0  0  0  0  0  0  0  0
  -40.4329   55.7901   63.4556 H   0  0  0  0  0  0  0  0  0  0  0  0
  -42.1071   57.7638   61.9188 H   0  0  0  0  0  0  0  0  0  0  0  0
  -42.6924   56.6861   63.1729 H   0  0  0  0  0  0  0  0  0  0  0  0
  -42.0344   54.7551   61.8359 H   0  0  0  0  0  0  0  0  0  0  0  0
  -41.4442   55.8600   60.5774 H   0  0  0  0  0  0  0  0  0  0  0  0
  -43.6931   56.6585   60.1872 H   0  0  0  0  0  0  0  0  0  0  0  0
  -44.2897   55.5727   61.4576 H   0  0  0  0  0  0  0  0  0  0  0  0
  -43.6461   53.6469   60.1491 H   0  0  0  0  0  0  0  0  0  0  0  0
  -43.0312   54.7302   58.8813 H   0  0  0  0  0  0  0  0  0  0  0  0
  -48.9044   52.5953   58.4184 H   0  0  0  0  0  0  0  0  0  0  0  0
  -46.2766   51.7945   60.0519 H   0  0  0  0  0  0  0  0  0  0  0  0
  1  9  1  0  0  0  0
  1 24  1  0  0  0  0
  1 25  1  0  0  0  0
  1 26  1  0  0  0  0
  2  4  2  0  0  0  0
  2 10  1  0  0  0  0
  2 27  1  0  0  0  0
  3  5  2  0  0  0  0
  3 10  1  0  0  0  0
  3 28  1  0  0  0  0
  4 11  1  0  0  0  0
  4 29  1  0  0  0  0
  5 12  1  0  0  0  0
  5 30  1  0  0  0  0
  6  7  2  0  0  0  0
  6  8  1  0  0  0  0
  6 31  1  0  0  0  0
  7 19  1  0  0  0  0
  7 32  1  0  0  0  0
  8 21  2  0  0  0  0
  8 33  1  0  0  0  0
  9 11  1  0  0  0  0
  9 34  1  0  0  0  0
  9 35  1  0  0  0  0
 10 36  1  0  0  0  0
 10 37  1  0  0  0  0
 11 38  1  0  0  0  0
 11 39  1  0  0  0  0
 12 13  1  0  0  0  0
 12 40  1  0  0  0  0
 12 41  1  0  0  0  0
 13 14  1  0  0  0  0
 13 42  1  0  0  0  0
 13 43  1  0  0  0  0
 14 15  1  0  0  0  0
 14 44  1  0  0  0  0
 14 45  1  0  0  0  0
 15 16  1  0  0  0  0
 15 46  1  0  0  0  0
 15 47  1  0  0  0  0
 16 17  1  0  0  0  0
 16 48  1  0  0  0  0
 16 49  1  0  0  0  0
 17 18  1  0  0  0  0
 17 50  1  0  0  0  0
 17 51  1  0  0  0  0
 18 21  1  0  0  0  0
 18 52  1  0  0  0  0
 18 53  1  0  0  0  0
 19 20  2  0  0  0  0
 19 22  1  0  0  0  0
 20 21  1  0  0  0  0
 20 23  1  0  0  0  0
 22 54  1  0  0  0  0
 23 55  1  0  0  0  0
M  END
$$$$
/media/chris/experiments/cd1a-new-docking/inputs/ligands/5j1a_ligand.pdb
 OpenBabel07022311203D

 55 55  0  0  0  0  0  0  0  0999 V2000
  -44.4225   54.1116   55.6169 C   0  0  0  0  0  0  0  0  0  0  0  0
  -41.4945   52.7445   58.1106 C   0  0  0  0  0  0  0  0  0  0  0  0
  -41.5737   54.9940   59.1336 C   0  0  0  0  0  0  0  0  0  0  0  0
  -42.1381   52.6301   56.7080 C   0  0  0  0  0  0  0  0  0  0  0  0
  -41.1044   55.9720   60.2283 C   0  0  0  0  0  0  0  0  0  0  0  0
  -45.6256   52.3659   63.6023 C   0  0  0  0  0  0  0  0  0  0  0  0
  -44.3894   51.7063   63.6113 C   0  0  0  0  0  0  0  0  0  0  0  0
  -45.7411   53.6445   63.0440 C   0  0  0  0  0  0  0  0  0  0  0  0
  -43.0380   54.7444   55.7763 C   0  0  0  0  0  0  0  0  0  0  0  0
  -40.6325   53.9499   58.5133 C   0  0  0  0  0  0  0  0  0  0  0  0
  -41.9201   53.7038   55.6240 C   0  0  0  0  0  0  0  0  0  0  0  0
  -39.6997   55.8424   60.8202 C   0  0  0  0  0  0  0  0  0  0  0  0
  -39.5380   56.9300   61.8820 C   0  0  0  0  0  0  0  0  0  0  0  0
  -40.5750   56.7430   62.9900 C   0  0  0  0  0  0  0  0  0  0  0  0
  -41.9730   56.8130   62.3910 C   0  0  0  0  0  0  0  0  0  0  0  0
  -43.0346   56.6452   63.4882 C   0  0  0  0  0  0  0  0  0  0  0  0
  -44.4877   56.6885   62.9483 C   0  0  0  0  0  0  0  0  0  0  0  0
  -44.7906   55.5673   61.9262 C   0  0  0  0  0  0  0  0  0  0  0  0
  -43.2836   52.3462   63.0517 C   0  0  0  0  0  0  0  0  0  0  0  0
  -43.4074   53.6161   62.4905 C   0  0  0  0  0  0  0  0  0  0  0  0
  -44.6421   54.2764   62.4512 C   0  0  0  0  0  0  0  0  0  0  0  0
  -42.0534   51.7776   63.0231 O   0  0  0  0  0  0  0  0  0  0  0  0
  -42.3000   54.1999   61.9476 O   0  0  0  0  0  0  0  0  0  0  0  0
  -45.1740   54.8650   55.7291 H   0  0  0  0  0  0  0  0  0  0  0  0
  -44.5585   53.3581   56.3643 H   0  0  0  0  0  0  0  0  0  0  0  0
  -44.5029   53.6694   54.6459 H   0  0  0  0  0  0  0  0  0  0  0  0
  -41.6491   51.9883   58.7957 H   0  0  0  0  0  0  0  0  0  0  0  0
  -42.5514   55.0418   58.8067 H   0  0  0  0  0  0  0  0  0  0  0  0
  -42.7297   51.8123   56.4925 H   0  0  0  0  0  0  0  0  0  0  0  0
  -41.7381   56.7149   60.5623 H   0  0  0  0  0  0  0  0  0  0  0  0
  -46.4553   51.9067   64.0094 H   0  0  0  0  0  0  0  0  0  0  0  0
  -44.2988   50.7649   64.0241 H   0  0  0  0  0  0  0  0  0  0  0  0
  -46.6519   54.1292   63.0701 H   0  0  0  0  0  0  0  0  0  0  0  0
  -42.9689   55.1885   56.7473 H   0  0  0  0  0  0  0  0  0  0  0  0
  -42.9163   55.4808   55.0097 H   0  0  0  0  0  0  0  0  0  0  0  0
  -40.1484   54.3589   57.6512 H   0  0  0  0  0  0  0  0  0  0  0  0
  -39.8749   53.6593   59.2109 H   0  0  0  0  0  0  0  0  0  0  0  0
  -41.9661   53.2573   54.6527 H   0  0  0  0  0  0  0  0  0  0  0  0
  -40.9597   54.1624   55.7346 H   0  0  0  0  0  0  0  0  0  0  0  0
  -38.9673   55.9727   60.0511 H   0  0  0  0  0  0  0  0  0  0  0  0
  -39.5648   54.8736   61.2538 H   0  0  0  0  0  0  0  0  0  0  0  0
  -39.6739   57.8897   61.4288 H   0  0  0  0  0  0  0  0  0  0  0  0
  -38.5577   56.8621   62.3055 H   0  0  0  0  0  0  0  0  0  0  0  0
  -40.4604   57.5164   63.7205 H   0  0  0  0  0  0  0  0  0  0  0  0
  -40.4329   55.7901   63.4556 H   0  0  0  0  0  0  0  0  0  0  0  0
  -42.0864   56.0321   61.6683 H   0  0  0  0  0  0  0  0  0  0  0  0
  -42.1035   57.7672   61.9248 H   0  0  0  0  0  0  0  0  0  0  0  0
  -42.9137   57.4339   64.2011 H   0  0  0  0  0  0  0  0  0  0  0  0
  -42.8880   55.6799   63.9258 H   0  0  0  0  0  0  0  0  0  0  0  0
  -44.6460   57.6340   62.4730 H   0  0  0  0  0  0  0  0  0  0  0  0
  -45.1418   56.5440   63.7826 H   0  0  0  0  0  0  0  0  0  0  0  0
  -44.1221   55.6748   61.0977 H   0  0  0  0  0  0  0  0  0  0  0  0
  -45.8154   55.6734   61.6376 H   0  0  0  0  0  0  0  0  0  0  0  0
  -41.9228   50.9248   63.3887 H   0  0  0  0  0  0  0  0  0  0  0  0
  -41.4753   53.7561   61.9752 H   0  0  0  0  0  0  0  0  0  0  0  0
  1  9  1  0  0  0  0
  1 24  1  0  0  0  0
  1 25  1  0  0  0  0
  1 26  1  0  0  0  0
  2  4  2  0  0  0  0
  2 10  1  0  0  0  0
  2 27  1  0  0  0  0
  3  5  2  0  0  0  0
  3 10  1  0  0  0  0
  3 28  1  0  0  0  0
  4 11  1  0  0  0  0
  4 29  1  0  0  0  0
  5 12  1  0  0  0  0
  5 30  1  0  0  0  0
  6  7  2  0  0  0  0
  6  8  1  0  0  0  0
  6 31  1  0  0  0  0
  7 19  1  0  0  0  0
  7 32  1  0  0  0  0
  8 21  2  0  0  0  0
  8 33  1  0  0  0  0
  9 11  1  0  0  0  0
  9 34  1  0  0  0  0
  9 35  1  0  0  0  0
 10 36  1  0  0  0  0
 10 37  1  0  0  0  0
 11 38  1  0  0  0  0
 11 39  1  0  0  0  0
 12 13  1  0  0  0  0
 12 40  1  0  0  0  0
 12 41  1  0  0  0  0
 13 14  1  0  0  0  0
 13 42  1  0  0  0  0
 13 43  1  0  0  0  0
 14 15  1  0  0  0  0
 14 44  1  0  0  0  0
 14 45  1  0  0  0  0
 15 16  1  0  0  0  0
 15 46  1  0  0  0  0
 15 47  1  0  0  0  0
 16 17  1  0  0  0  0
 16 48  1  0  0  0  0
 16 49  1  0  0  0  0
 17 18  1  0  0  0  0
 17 50  1  0  0  0  0
 17 51  1  0  0  0  0
 18 21  1  0  0  0  0
 18 52  1  0  0  0  0
 18 53  1  0  0  0  0
 19 20  2  0  0  0  0
 19 22  1  0  0  0  0
 20 21  1  0  0  0  0
 20 23  1  0  0  0  0
 22 54  1  0  0  0  0
 23 55  1  0  0  0  0
M  END
$$$$
/media/chris/experiments/cd1a-new-docking/inputs/ligands/5j1a_ligand.pdb
 OpenBabel07022311203D

 55 55  0  0  0  0  0  0  0  0999 V2000
  -39.1922   57.2519   65.0828 C   0  0  0  0  0  0  0  0  0  0  0  0
  -35.8637   54.7955   61.9981 C   0  0  0  0  0  0  0  0  0  0  0  0
  -38.1129   53.8522   61.5930 C   0  0  0  0  0  0  0  0  0  0  0  0
  -36.1892   55.7526   63.1697 C   0  0  0  0  0  0  0  0  0  0  0  0
  -39.5143   54.4878   61.5063 C   0  0  0  0  0  0  0  0  0  0  0  0
  -42.9401   58.1523   67.2114 C   0  0  0  0  0  0  0  0  0  0  0  0
  -43.7993   58.1329   68.3181 C   0  0  0  0  0  0  0  0  0  0  0  0
  -43.0174   57.1489   66.2381 C   0  0  0  0  0  0  0  0  0  0  0  0
  -37.8247   56.6163   64.8212 C   0  0  0  0  0  0  0  0  0  0  0  0
  -36.8899   54.4745   60.9018 C   0  0  0  0  0  0  0  0  0  0  0  0
  -37.5752   56.4096   63.3210 C   0  0  0  0  0  0  0  0  0  0  0  0
  -39.6997   55.8424   60.8202 C   0  0  0  0  0  0  0  0  0  0  0  0
  -39.5380   56.9300   61.8820 C   0  0  0  0  0  0  0  0  0  0  0  0
  -40.5750   56.7430   62.9900 C   0  0  0  0  0  0  0  0  0  0  0  0
  -41.9730   56.8130   62.3910 C   0  0  0  0  0  0  0  0  0  0  0  0
  -43.0346   56.6452   63.4882 C   0  0  0  0  0  0  0  0  0  0  0  0
  -42.9202   55.3008   64.2526 C   0  0  0  0  0  0  0  0  0  0  0  0
  -44.0019   55.1282   65.3452 C   0  0  0  0  0  0  0  0  0  0  0  0
  -44.7304   57.1001   68.4263 C   0  0  0  0  0  0  0  0  0  0  0  0
  -44.8072   56.1087   67.4496 C   0  0  0  0  0  0  0  0  0  0  0  0
  -43.9724   56.1298   66.3250 C   0  0  0  0  0  0  0  0  0  0  0  0
  -45.5947   57.0081   69.4666 O   0  0  0  0  0  0  0  0  0  0  0  0
  -45.7390   55.1223   67.5935 O   0  0  0  0  0  0  0  0  0  0  0  0
  -39.3303   57.3802   66.1361 H   0  0  0  0  0  0  0  0  0  0  0  0
  -39.9611   56.6154   64.6973 H   0  0  0  0  0  0  0  0  0  0  0  0
  -39.2414   58.2045   64.5980 H   0  0  0  0  0  0  0  0  0  0  0  0
  -34.9292   54.3600   61.9522 H   0  0  0  0  0  0  0  0  0  0  0  0
  -37.9922   52.9809   62.1327 H   0  0  0  0  0  0  0  0  0  0  0  0
  -35.4582   55.9566   63.8690 H   0  0  0  0  0  0  0  0  0  0  0  0
  -40.3281   53.9993   61.9113 H   0  0  0  0  0  0  0  0  0  0  0  0
  -42.2467   58.9103   67.1132 H   0  0  0  0  0  0  0  0  0  0  0  0
  -43.7441   58.8689   69.0394 H   0  0  0  0  0  0  0  0  0  0  0  0
  -42.3592   57.1611   65.4434 H   0  0  0  0  0  0  0  0  0  0  0  0
  -37.7828   55.6675   65.3140 H   0  0  0  0  0  0  0  0  0  0  0  0
  -37.0714   57.2763   65.1978 H   0  0  0  0  0  0  0  0  0  0  0  0
  -36.4731   53.7818   60.2008 H   0  0  0  0  0  0  0  0  0  0  0  0
  -37.1649   55.3599   60.3677 H   0  0  0  0  0  0  0  0  0  0  0  0
  -38.3292   55.7716   62.9094 H   0  0  0  0  0  0  0  0  0  0  0  0
  -37.6090   57.3439   62.8004 H   0  0  0  0  0  0  0  0  0  0  0  0
  -40.6760   55.8999   60.3860 H   0  0  0  0  0  0  0  0  0  0  0  0
  -38.9765   55.9694   60.0419 H   0  0  0  0  0  0  0  0  0  0  0  0
  -39.6739   57.8897   61.4288 H   0  0  0  0  0  0  0  0  0  0  0  0
  -38.5577   56.8621   62.3055 H   0  0  0  0  0  0  0  0  0  0  0  0
  -40.4604   57.5164   63.7205 H   0  0  0  0  0  0  0  0  0  0  0  0
  -40.4329   55.7901   63.4556 H   0  0  0  0  0  0  0  0  0  0  0  0
  -42.0864   56.0321   61.6683 H   0  0  0  0  0  0  0  0  0  0  0  0
  -42.1035   57.7672   61.9248 H   0  0  0  0  0  0  0  0  0  0  0  0
  -44.0025   56.6968   63.0349 H   0  0  0  0  0  0  0  0  0  0  0  0
  -42.8805   57.4287   64.2005 H   0  0  0  0  0  0  0  0  0  0  0  0
  -41.9573   55.2542   64.7168 H   0  0  0  0  0  0  0  0  0  0  0  0
  -43.0603   54.5159   63.5391 H   0  0  0  0  0  0  0  0  0  0  0  0
  -43.8525   54.1825   65.8230 H   0  0  0  0  0  0  0  0  0  0  0  0
  -44.9529   55.1918   64.8589 H   0  0  0  0  0  0  0  0  0  0  0  0
  -45.5794   57.6523   70.1469 H   0  0  0  0  0  0  0  0  0  0  0  0
  -46.2962   55.1105   68.3468 H   0  0  0  0  0  0  0  0  0  0  0  0
  1  9  1  0  0  0  0
  1 24  1  0  0  0  0
  1 25  1  0  0  0  0
  1 26  1  0  0  0  0
  2  4  2  0  0  0  0
  2 10  1  0  0  0  0
  2 27  1  0  0  0  0
  3  5  2  0  0  0  0
  3 10  1  0  0  0  0
  3 28  1  0  0  0  0
  4 11  1  0  0  0  0
  4 29  1  0  0  0  0
  5 12  1  0  0  0  0
  5 30  1  0  0  0  0
  6  7  2  0  0  0  0
  6  8  1  0  0  0  0
  6 31  1  0  0  0  0
  7 19  1  0  0  0  0
  7 32  1  0  0  0  0
  8 21  2  0  0  0  0
  8 33  1  0  0  0  0
  9 11  1  0  0  0  0
  9 34  1  0  0  0  0
  9 35  1  0  0  0  0
 10 36  1  0  0  0  0
 10 37  1  0  0  0  0
 11 38  1  0  0  0  0
 11 39  1  0  0  0  0
 12 13  1  0  0  0  0
 12 40  1  0  0  0  0
 12 41  1  0  0  0  0
 13 14  1  0  0  0  0
 13 42  1  0  0  0  0
 13 43  1  0  0  0  0
 14 15  1  0  0  0  0
 14 44  1  0  0  0  0
 14 45  1  0  0  0  0
 15 16  1  0  0  0  0
 15 46  1  0  0  0  0
 15 47  1  0  0  0  0
 16 17  1  0  0  0  0
 16 48  1  0  0  0  0
 16 49  1  0  0  0  0
 17 18  1  0  0  0  0
 17 50  1  0  0  0  0
 17 51  1  0  0  0  0
 18 21  1  0  0  0  0
 18 52  1  0  0  0  0
 18 53  1  0  0  0  0
 19 20  2  0  0  0  0
 19 22  1  0  0  0  0
 20 21  1  0  0  0  0
 20 23  1  0  0  0  0
 22 54  1  0  0  0  0
 23 55  1  0  0  0  0
M  END
$$$$
/media/chris/experiments/cd1a-new-docking/inputs/ligands/5j1a_ligand.pdb
 OpenBabel07022311203D

 55 55  0  0  0  0  0  0  0  0999 V2000
  -34.4649   52.4797   61.3522 C   0  0  0  0  0  0  0  0  0  0  0  0
  -35.4737   56.8137   62.4502 C   0  0  0  0  0  0  0  0  0  0  0  0
  -36.6334   55.0749   63.7710 C   0  0  0  0  0  0  0  0  0  0  0  0
  -34.8122   56.3216   61.1406 C   0  0  0  0  0  0  0  0  0  0  0  0
  -37.9593   55.4582   63.0851 C   0  0  0  0  0  0  0  0  0  0  0  0
  -44.0691   52.8445   64.3389 C   0  0  0  0  0  0  0  0  0  0  0  0
  -44.2364   51.6989   63.5497 C   0  0  0  0  0  0  0  0  0  0  0  0
  -44.2527   54.1175   63.7860 C   0  0  0  0  0  0  0  0  0  0  0  0
  -35.1007   53.8715   61.3887 C   0  0  0  0  0  0  0  0  0  0  0  0
  -35.4064   55.9994   63.7504 C   0  0  0  0  0  0  0  0  0  0  0  0
  -34.0790   54.9684   61.0594 C   0  0  0  0  0  0  0  0  0  0  0  0
  -38.1263   56.8452   62.4620 C   0  0  0  0  0  0  0  0  0  0  0  0
  -39.5380   56.9300   61.8820 C   0  0  0  0  0  0  0  0  0  0  0  0
  -40.5750   56.7430   62.9900 C   0  0  0  0  0  0  0  0  0  0  0  0
  -41.9730   56.8130   62.3910 C   0  0  0  0  0  0  0  0  0  0  0  0
  -43.0346   56.6452   63.4882 C   0  0  0  0  0  0  0  0  0  0  0  0
  -44.4877   56.6885   62.9483 C   0  0  0  0  0  0  0  0  0  0  0  0
  -44.7906   55.5673   61.9262 C   0  0  0  0  0  0  0  0  0  0  0  0
  -44.5916   51.8534   62.2098 C   0  0  0  0  0  0  0  0  0  0  0  0
  -44.7806   53.1236   61.6677 C   0  0  0  0  0  0  0  0  0  0  0  0
  -44.6421   54.2764   62.4512 C   0  0  0  0  0  0  0  0  0  0  0  0
  -44.7700   50.7967   61.3796 O   0  0  0  0  0  0  0  0  0  0  0  0
  -45.1352   53.2258   60.3541 O   0  0  0  0  0  0  0  0  0  0  0  0
  -35.2051   51.7432   61.5860 H   0  0  0  0  0  0  0  0  0  0  0  0
  -33.6733   52.4302   62.0703 H   0  0  0  0  0  0  0  0  0  0  0  0
  -34.0719   52.2926   60.3747 H   0  0  0  0  0  0  0  0  0  0  0  0
  -35.9749   57.7159   62.4497 H   0  0  0  0  0  0  0  0  0  0  0  0
  -36.5676   54.1683   64.2597 H   0  0  0  0  0  0  0  0  0  0  0  0
  -34.8635   56.9159   60.2984 H   0  0  0  0  0  0  0  0  0  0  0  0
  -38.7350   54.7786   63.0462 H   0  0  0  0  0  0  0  0  0  0  0  0
  -43.8091   52.7494   65.3331 H   0  0  0  0  0  0  0  0  0  0  0  0
  -44.0995   50.7585   63.9522 H   0  0  0  0  0  0  0  0  0  0  0  0
  -44.0984   54.9525   64.3724 H   0  0  0  0  0  0  0  0  0  0  0  0
  -35.4956   54.0473   62.3675 H   0  0  0  0  0  0  0  0  0  0  0  0
  -35.8762   53.9045   60.6521 H   0  0  0  0  0  0  0  0  0  0  0  0
  -35.4275   56.6555   64.5954 H   0  0  0  0  0  0  0  0  0  0  0  0
  -34.5013   55.4307   63.7962 H   0  0  0  0  0  0  0  0  0  0  0  0
  -33.2763   54.9445   61.7665 H   0  0  0  0  0  0  0  0  0  0  0  0
  -33.6673   54.8201   60.0830 H   0  0  0  0  0  0  0  0  0  0  0  0
  -37.4044   56.9844   61.6846 H   0  0  0  0  0  0  0  0  0  0  0  0
  -37.9789   57.6065   63.1994 H   0  0  0  0  0  0  0  0  0  0  0  0
  -39.6646   56.1636   61.1461 H   0  0  0  0  0  0  0  0  0  0  0  0
  -39.6747   57.8920   61.4340 H   0  0  0  0  0  0  0  0  0  0  0  0
  -40.4604   57.5164   63.7205 H   0  0  0  0  0  0  0  0  0  0  0  0
  -40.4329   55.7901   63.4556 H   0  0  0  0  0  0  0  0  0  0  0  0
  -42.0864   56.0321   61.6683 H   0  0  0  0  0  0  0  0  0  0  0  0
  -42.1035   57.7672   61.9248 H   0  0  0  0  0  0  0  0  0  0  0  0
  -42.9137   57.4339   64.2011 H   0  0  0  0  0  0  0  0  0  0  0  0
  -42.8880   55.6799   63.9258 H   0  0  0  0  0  0  0  0  0  0  0  0
  -44.6460   57.6340   62.4730 H   0  0  0  0  0  0  0  0  0  0  0  0
  -45.1418   56.5440   63.7826 H   0  0  0  0  0  0  0  0  0  0  0  0
  -44.1221   55.6748   61.0977 H   0  0  0  0  0  0  0  0  0  0  0  0
  -45.8154   55.6734   61.6376 H   0  0  0  0  0  0  0  0  0  0  0  0
  -44.6538   49.9241   61.7003 H   0  0  0  0  0  0  0  0  0  0  0  0
  -45.2272   52.4531   59.8321 H   0  0  0  0  0  0  0  0  0  0  0  0
  1  9  1  0  0  0  0
  1 24  1  0  0  0  0
  1 25  1  0  0  0  0
  1 26  1  0  0  0  0
  2  4  2  0  0  0  0
  2 10  1  0  0  0  0
  2 27  1  0  0  0  0
  3  5  2  0  0  0  0
  3 10  1  0  0  0  0
  3 28  1  0  0  0  0
  4 11  1  0  0  0  0
  4 29  1  0  0  0  0
  5 12  1  0  0  0  0
  5 30  1  0  0  0  0
  6  7  2  0  0  0  0
  6  8  1  0  0  0  0
  6 31  1  0  0  0  0
  7 19  1  0  0  0  0
  7 32  1  0  0  0  0
  8 21  2  0  0  0  0
  8 33  1  0  0  0  0
  9 11  1  0  0  0  0
  9 34  1  0  0  0  0
  9 35  1  0  0  0  0
 10 36  1  0  0  0  0
 10 37  1  0  0  0  0
 11 38  1  0  0  0  0
 11 39  1  0  0  0  0
 12 13  1  0  0  0  0
 12 40  1  0  0  0  0
 12 41  1  0  0  0  0
 13 14  1  0  0  0  0
 13 42  1  0  0  0  0
 13 43  1  0  0  0  0
 14 15  1  0  0  0  0
 14 44  1  0  0  0  0
 14 45  1  0  0  0  0
 15 16  1  0  0  0  0
 15 46  1  0  0  0  0
 15 47  1  0  0  0  0
 16 17  1  0  0  0  0
 16 48  1  0  0  0  0
 16 49  1  0  0  0  0
 17 18  1  0  0  0  0
 17 50  1  0  0  0  0
 17 51  1  0  0  0  0
 18 21  1  0  0  0  0
 18 52  1  0  0  0  0
 18 53  1  0  0  0  0
 19 20  2  0  0  0  0
 19 22  1  0  0  0  0
 20 21  1  0  0  0  0
 20 23  1  0  0  0  0
 22 54  1  0  0  0  0
 23 55  1  0  0  0  0
M  END
$$$$
/media/chris/experiments/cd1a-new-docking/inputs/ligands/5j1a_ligand.pdb
 OpenBabel07022311203D

 55 55  0  0  0  0  0  0  0  0999 V2000
  -41.5191   52.0253   58.3772 C   0  0  0  0  0  0  0  0  0  0  0  0
  -38.1318   55.4779   60.1888 C   0  0  0  0  0  0  0  0  0  0  0  0
  -37.4170   54.2914   62.2367 C   0  0  0  0  0  0  0  0  0  0  0  0
  -39.5254   55.0823   59.6446 C   0  0  0  0  0  0  0  0  0  0  0  0
  -37.9593   55.4582   63.0851 C   0  0  0  0  0  0  0  0  0  0  0  0
  -43.5171   55.1980   68.5028 C   0  0  0  0  0  0  0  0  0  0  0  0
  -43.5479   53.9568   67.8535 C   0  0  0  0  0  0  0  0  0  0  0  0
  -43.6742   56.3823   67.7729 C   0  0  0  0  0  0  0  0  0  0  0  0
  -40.9599   53.4481   58.4531 C   0  0  0  0  0  0  0  0  0  0  0  0
  -37.1449   54.4339   60.7313 C   0  0  0  0  0  0  0  0  0  0  0  0
  -40.0148   53.6208   59.6501 C   0  0  0  0  0  0  0  0  0  0  0  0
  -38.1263   56.8452   62.4620 C   0  0  0  0  0  0  0  0  0  0  0  0
  -39.5380   56.9300   61.8820 C   0  0  0  0  0  0  0  0  0  0  0  0
  -40.5750   56.7430   62.9900 C   0  0  0  0  0  0  0  0  0  0  0  0
  -41.9730   56.8130   62.3910 C   0  0  0  0  0  0  0  0  0  0  0  0
  -43.0346   56.6452   63.4882 C   0  0  0  0  0  0  0  0  0  0  0  0
  -42.9688   57.7452   64.5794 C   0  0  0  0  0  0  0  0  0  0  0  0
  -44.0284   57.5628   65.6918 C   0  0  0  0  0  0  0  0  0  0  0  0
  -43.7413   53.9267   66.4726 C   0  0  0  0  0  0  0  0  0  0  0  0
  -43.9049   55.1093   65.7531 C   0  0  0  0  0  0  0  0  0  0  0  0
  -43.9022   56.3556   66.3924 C   0  0  0  0  0  0  0  0  0  0  0  0
  -43.7810   52.7680   65.7702 O   0  0  0  0  0  0  0  0  0  0  0  0
  -44.0991   55.0307   64.4048 O   0  0  0  0  0  0  0  0  0  0  0  0
  -42.1716   51.9431   57.5331 H   0  0  0  0  0  0  0  0  0  0  0  0
  -42.0643   51.8082   59.2719 H   0  0  0  0  0  0  0  0  0  0  0  0
  -40.7124   51.3301   58.2735 H   0  0  0  0  0  0  0  0  0  0  0  0
  -37.8576   56.4728   60.1870 H   0  0  0  0  0  0  0  0  0  0  0  0
  -37.2306   53.3854   62.6944 H   0  0  0  0  0  0  0  0  0  0  0  0
  -40.1441   55.8172   59.2677 H   0  0  0  0  0  0  0  0  0  0  0  0
  -38.2100   55.3036   64.0742 H   0  0  0  0  0  0  0  0  0  0  0  0
  -43.3778   55.2395   69.5245 H   0  0  0  0  0  0  0  0  0  0  0  0
  -43.4299   53.0813   68.3871 H   0  0  0  0  0  0  0  0  0  0  0  0
  -43.6210   57.2901   68.2609 H   0  0  0  0  0  0  0  0  0  0  0  0
  -41.7735   54.1362   58.5510 H   0  0  0  0  0  0  0  0  0  0  0  0
  -40.4046   53.6376   57.5583 H   0  0  0  0  0  0  0  0  0  0  0  0
  -36.1391   54.7615   60.5699 H   0  0  0  0  0  0  0  0  0  0  0  0
  -37.2711   53.4961   60.2318 H   0  0  0  0  0  0  0  0  0  0  0  0
  -40.5367   53.4134   60.5608 H   0  0  0  0  0  0  0  0  0  0  0  0
  -39.1879   52.9455   59.5787 H   0  0  0  0  0  0  0  0  0  0  0  0
  -37.4044   56.9844   61.6846 H   0  0  0  0  0  0  0  0  0  0  0  0
  -37.9789   57.6065   63.1994 H   0  0  0  0  0  0  0  0  0  0  0  0
  -39.6646   56.1636   61.1461 H   0  0  0  0  0  0  0  0  0  0  0  0
  -39.6747   57.8920   61.4340 H   0  0  0  0  0  0  0  0  0  0  0  0
  -40.4604   57.5164   63.7205 H   0  0  0  0  0  0  0  0  0  0  0  0
  -40.4329   55.7901   63.4556 H   0  0  0  0  0  0  0  0  0  0  0  0
  -42.0864   56.0321   61.6683 H   0  0  0  0  0  0  0  0  0  0  0  0
  -42.1035   57.7672   61.9248 H   0  0  0  0  0  0  0  0  0  0  0  0
  -42.8917   55.6937   63.9563 H   0  0  0  0  0  0  0  0  0  0  0  0
  -43.9921   56.7233   63.0171 H   0  0  0  0  0  0  0  0  0  0  0  0
  -43.1244   58.6960   64.1139 H   0  0  0  0  0  0  0  0  0  0  0  0
  -42.0065   57.6774   65.0421 H   0  0  0  0  0  0  0  0  0  0  0  0
  -44.9992   57.5939   65.2430 H   0  0  0  0  0  0  0  0  0  0  0  0
  -43.8820   58.3531   66.3981 H   0  0  0  0  0  0  0  0  0  0  0  0
  -43.6757   51.9484   66.2120 H   0  0  0  0  0  0  0  0  0  0  0  0
  -44.1004   54.1958   63.9795 H   0  0  0  0  0  0  0  0  0  0  0  0
  1  9  1  0  0  0  0
  1 24  1  0  0  0  0
  1 25  1  0  0  0  0
  1 26  1  0  0  0  0
  2  4  2  0  0  0  0
  2 10  1  0  0  0  0
  2 27  1  0  0  0  0
  3  5  2  0  0  0  0
  3 10  1  0  0  0  0
  3 28  1  0  0  0  0
  4 11  1  0  0  0  0
  4 29  1  0  0  0  0
  5 12  1  0  0  0  0
  5 30  1  0  0  0  0
  6  7  2  0  0  0  0
  6  8  1  0  0  0  0
  6 31  1  0  0  0  0
  7 19  1  0  0  0  0
  7 32  1  0  0  0  0
  8 21  2  0  0  0  0
  8 33  1  0  0  0  0
  9 11  1  0  0  0  0
  9 34  1  0  0  0  0
  9 35  1  0  0  0  0
 10 36  1  0  0  0  0
 10 37  1  0  0  0  0
 11 38  1  0  0  0  0
 11 39  1  0  0  0  0
 12 13  1  0  0  0  0
 12 40  1  0  0  0  0
 12 41  1  0  0  0  0
 13 14  1  0  0  0  0
 13 42  1  0  0  0  0
 13 43  1  0  0  0  0
 14 15  1  0  0  0  0
 14 44  1  0  0  0  0
 14 45  1  0  0  0  0
 15 16  1  0  0  0  0
 15 46  1  0  0  0  0
 15 47  1  0  0  0  0
 16 17  1  0  0  0  0
 16 48  1  0  0  0  0
 16 49  1  0  0  0  0
 17 18  1  0  0  0  0
 17 50  1  0  0  0  0
 17 51  1  0  0  0  0
 18 21  1  0  0  0  0
 18 52  1  0  0  0  0
 18 53  1  0  0  0  0
 19 20  2  0  0  0  0
 19 22  1  0  0  0  0
 20 21  1  0  0  0  0
 20 23  1  0  0  0  0
 22 54  1  0  0  0  0
 23 55  1  0  0  0  0
M  END
$$$$
/media/chris/experiments/cd1a-new-docking/inputs/ligands/5j1a_ligand.pdb
 OpenBabel07022311203D

 55 55  0  0  0  0  0  0  0  0999 V2000
  -38.8595   54.4923   57.3996 C   0  0  0  0  0  0  0  0  0  0  0  0
  -36.9215   53.6334   61.2231 C   0  0  0  0  0  0  0  0  0  0  0  0
  -36.1152   55.9563   60.9649 C   0  0  0  0  0  0  0  0  0  0  0  0
  -37.2962   53.6163   59.7218 C   0  0  0  0  0  0  0  0  0  0  0  0
  -37.1362   57.0564   61.3152 C   0  0  0  0  0  0  0  0  0  0  0  0
  -46.4036   55.3397   62.3106 C   0  0  0  0  0  0  0  0  0  0  0  0
  -47.0891   54.2097   61.8455 C   0  0  0  0  0  0  0  0  0  0  0  0
  -45.0655   55.2407   62.7100 C   0  0  0  0  0  0  0  0  0  0  0  0
  -37.8719   55.4161   58.1165 C   0  0  0  0  0  0  0  0  0  0  0  0
  -35.9655   54.6821   61.8102 C   0  0  0  0  0  0  0  0  0  0  0  0
  -36.7022   54.6302   58.7245 C   0  0  0  0  0  0  0  0  0  0  0  0
  -38.1263   56.8452   62.4620 C   0  0  0  0  0  0  0  0  0  0  0  0
  -39.5380   56.9300   61.8820 C   0  0  0  0  0  0  0  0  0  0  0  0
  -40.5750   56.7430   62.9900 C   0  0  0  0  0  0  0  0  0  0  0  0
  -41.9730   56.8130   62.3910 C   0  0  0  0  0  0  0  0  0  0  0  0
  -42.1661   55.6996   61.3507 C   0  0  0  0  0  0  0  0  0  0  0  0
  -42.0124   54.2741   61.9416 C   0  0  0  0  0  0  0  0  0  0  0  0
  -43.0412   53.9624   63.0542 C   0  0  0  0  0  0  0  0  0  0  0  0
  -46.4121   52.9918   61.7860 C   0  0  0  0  0  0  0  0  0  0  0  0
  -45.0774   52.9019   62.1778 C   0  0  0  0  0  0  0  0  0  0  0  0
  -44.3722   54.0284   62.6201 C   0  0  0  0  0  0  0  0  0  0  0  0
  -47.0041   51.8526   61.3508 O   0  0  0  0  0  0  0  0  0  0  0  0
  -44.4535   51.6913   62.0949 O   0  0  0  0  0  0  0  0  0  0  0  0
  -39.6588   55.0738   56.9898 H   0  0  0  0  0  0  0  0  0  0  0  0
  -39.2551   53.7834   58.0967 H   0  0  0  0  0  0  0  0  0  0  0  0
  -38.3550   53.9738   56.6112 H   0  0  0  0  0  0  0  0  0  0  0  0
  -37.3259   52.9188   61.8483 H   0  0  0  0  0  0  0  0  0  0  0  0
  -35.5128   56.0795   60.1360 H   0  0  0  0  0  0  0  0  0  0  0  0
  -37.9623   52.9064   59.3789 H   0  0  0  0  0  0  0  0  0  0  0  0
  -37.1519   57.9361   60.7758 H   0  0  0  0  0  0  0  0  0  0  0  0
  -46.8877   56.2499   62.3590 H   0  0  0  0  0  0  0  0  0  0  0  0
  -48.0764   54.2773   61.5526 H   0  0  0  0  0  0  0  0  0  0  0  0
  -44.5823   56.0756   63.0768 H   0  0  0  0  0  0  0  0  0  0  0  0
  -38.3862   55.9340   58.8989 H   0  0  0  0  0  0  0  0  0  0  0  0
  -37.4758   56.1039   57.3988 H   0  0  0  0  0  0  0  0  0  0  0  0
  -34.9574   54.3267   61.7625 H   0  0  0  0  0  0  0  0  0  0  0  0
  -36.1990   54.8770   62.8361 H   0  0  0  0  0  0  0  0  0  0  0  0
  -36.1680   54.1148   57.9537 H   0  0  0  0  0  0  0  0  0  0  0  0
  -36.0200   55.2902   59.2184 H   0  0  0  0  0  0  0  0  0  0  0  0
  -37.9914   57.6045   63.2038 H   0  0  0  0  0  0  0  0  0  0  0  0
  -37.9678   55.8923   62.9220 H   0  0  0  0  0  0  0  0  0  0  0  0
  -39.6646   56.1636   61.1461 H   0  0  0  0  0  0  0  0  0  0  0  0
  -39.6747   57.8920   61.4340 H   0  0  0  0  0  0  0  0  0  0  0  0
  -40.4604   57.5164   63.7205 H   0  0  0  0  0  0  0  0  0  0  0  0
  -40.4329   55.7901   63.4556 H   0  0  0  0  0  0  0  0  0  0  0  0
  -42.1071   57.7638   61.9188 H   0  0  0  0  0  0  0  0  0  0  0  0
  -42.6924   56.6861   63.1729 H   0  0  0  0  0  0  0  0  0  0  0  0
  -41.4374   55.8271   60.5777 H   0  0  0  0  0  0  0  0  0  0  0  0
  -43.1664   55.7826   60.9800 H   0  0  0  0  0  0  0  0  0  0  0  0
  -41.0287   54.1800   62.3518 H   0  0  0  0  0  0  0  0  0  0  0  0
  -42.1837   53.5795   61.1459 H   0  0  0  0  0  0  0  0  0  0  0  0
  -42.9080   54.6694   63.8462 H   0  0  0  0  0  0  0  0  0  0  0  0
  -42.8641   52.9567   63.3735 H   0  0  0  0  0  0  0  0  0  0  0  0
  -47.9002   51.8653   61.0771 H   0  0  0  0  0  0  0  0  0  0  0  0
  -44.9275   50.9392   61.7987 H   0  0  0  0  0  0  0  0  0  0  0  0
  1  9  1  0  0  0  0
  1 24  1  0  0  0  0
  1 25  1  0  0  0  0
  1 26  1  0  0  0  0
  2  4  2  0  0  0  0
  2 10  1  0  0  0  0
  2 27  1  0  0  0  0
  3  5  2  0  0  0  0
  3 10  1  0  0  0  0
  3 28  1  0  0  0  0
  4 11  1  0  0  0  0
  4 29  1  0  0  0  0
  5 12  1  0  0  0  0
  5 30  1  0  0  0  0
  6  7  2  0  0  0  0
  6  8  1  0  0  0  0
  6 31  1  0  0  0  0
  7 19  1  0  0  0  0
  7 32  1  0  0  0  0
  8 21  2  0  0  0  0
  8 33  1  0  0  0  0
  9 11  1  0  0  0  0
  9 34  1  0  0  0  0
  9 35  1  0  0  0  0
 10 36  1  0  0  0  0
 10 37  1  0  0  0  0
 11 38  1  0  0  0  0
 11 39  1  0  0  0  0
 12 13  1  0  0  0  0
 12 40  1  0  0  0  0
 12 41  1  0  0  0  0
 13 14  1  0  0  0  0
 13 42  1  0  0  0  0
 13 43  1  0  0  0  0
 14 15  1  0  0  0  0
 14 44  1  0  0  0  0
 14 45  1  0  0  0  0
 15 16  1  0  0  0  0
 15 46  1  0  0  0  0
 15 47  1  0  0  0  0
 16 17  1  0  0  0  0
 16 48  1  0  0  0  0
 16 49  1  0  0  0  0
 17 18  1  0  0  0  0
 17 50  1  0  0  0  0
 17 51  1  0  0  0  0
 18 21  1  0  0  0  0
 18 52  1  0  0  0  0
 18 53  1  0  0  0  0
 19 20  2  0  0  0  0
 19 22  1  0  0  0  0
 20 21  1  0  0  0  0
 20 23  1  0  0  0  0
 22 54  1  0  0  0  0
 23 55  1  0  0  0  0
M  END
$$$$
/media/chris/experiments/cd1a-new-docking/inputs/ligands/5j1a_ligand.pdb
 OpenBabel07022311203D

 55 55  0  0  0  0  0  0  0  0999 V2000
  -31.5697   60.2928   61.1014 C   0  0  0  0  0  0  0  0  0  0  0  0
  -33.7155   56.1237   62.8909 C   0  0  0  0  0  0  0  0  0  0  0  0
  -35.6198   57.0099   61.5866 C   0  0  0  0  0  0  0  0  0  0  0  0
  -32.3710   56.8627   62.6885 C   0  0  0  0  0  0  0  0  0  0  0  0
  -37.1362   57.0564   61.3152 C   0  0  0  0  0  0  0  0  0  0  0  0
  -43.2209   52.3365   62.8500 C   0  0  0  0  0  0  0  0  0  0  0  0
  -44.2969   51.6351   63.4100 C   0  0  0  0  0  0  0  0  0  0  0  0
  -43.4014   53.6356   62.3604 C   0  0  0  0  0  0  0  0  0  0  0  0
  -31.7082   58.7765   61.2580 C   0  0  0  0  0  0  0  0  0  0  0  0
  -35.0481   56.8780   63.0066 C   0  0  0  0  0  0  0  0  0  0  0  0
  -32.2904   58.4007   62.6275 C   0  0  0  0  0  0  0  0  0  0  0  0
  -38.1263   56.8452   62.4620 C   0  0  0  0  0  0  0  0  0  0  0  0
  -39.5380   56.9300   61.8820 C   0  0  0  0  0  0  0  0  0  0  0  0
  -40.5750   56.7430   62.9900 C   0  0  0  0  0  0  0  0  0  0  0  0
  -41.9730   56.8130   62.3910 C   0  0  0  0  0  0  0  0  0  0  0  0
  -43.0346   56.6452   63.4882 C   0  0  0  0  0  0  0  0  0  0  0  0
  -44.4877   56.6885   62.9483 C   0  0  0  0  0  0  0  0  0  0  0  0
  -44.7906   55.5673   61.9262 C   0  0  0  0  0  0  0  0  0  0  0  0
  -45.5436   52.2573   63.4720 C   0  0  0  0  0  0  0  0  0  0  0  0
  -45.7145   53.5539   62.9898 C   0  0  0  0  0  0  0  0  0  0  0  0
  -44.6421   54.2764   62.4512 C   0  0  0  0  0  0  0  0  0  0  0  0
  -46.6346   51.6464   63.9959 O   0  0  0  0  0  0  0  0  0  0  0  0
  -46.9505   54.1251   63.0785 O   0  0  0  0  0  0  0  0  0  0  0  0
  -31.1620   60.5160   60.1376 H   0  0  0  0  0  0  0  0  0  0  0  0
  -30.9181   60.6717   61.8608 H   0  0  0  0  0  0  0  0  0  0  0  0
  -32.5322   60.7505   61.1962 H   0  0  0  0  0  0  0  0  0  0  0  0
  -33.7166   55.0934   62.9499 H   0  0  0  0  0  0  0  0  0  0  0  0
  -34.9675   57.0693   60.7891 H   0  0  0  0  0  0  0  0  0  0  0  0
  -31.5045   56.3106   62.5916 H   0  0  0  0  0  0  0  0  0  0  0  0
  -37.4839   57.2301   60.3592 H   0  0  0  0  0  0  0  0  0  0  0  0
  -42.2905   51.8931   62.7982 H   0  0  0  0  0  0  0  0  0  0  0  0
  -44.1693   50.6763   63.7697 H   0  0  0  0  0  0  0  0  0  0  0  0
  -42.6061   54.1289   61.9252 H   0  0  0  0  0  0  0  0  0  0  0  0
  -30.7425   58.3272   61.1562 H   0  0  0  0  0  0  0  0  0  0  0  0
  -32.3765   58.4216   60.5015 H   0  0  0  0  0  0  0  0  0  0  0  0
  -34.8850   57.8480   63.4278 H   0  0  0  0  0  0  0  0  0  0  0  0
  -35.7286   56.3517   63.6429 H   0  0  0  0  0  0  0  0  0  0  0  0
  -31.6547   58.7647   63.4074 H   0  0  0  0  0  0  0  0  0  0  0  0
  -33.2596   58.8350   62.7577 H   0  0  0  0  0  0  0  0  0  0  0  0
  -37.9914   57.6045   63.2038 H   0  0  0  0  0  0  0  0  0  0  0  0
  -37.9678   55.8923   62.9220 H   0  0  0  0  0  0  0  0  0  0  0  0
  -39.6646   56.1636   61.1461 H   0  0  0  0  0  0  0  0  0  0  0  0
  -39.6747   57.8920   61.4340 H   0  0  0  0  0  0  0  0  0  0  0  0
  -40.4604   57.5164   63.7205 H   0  0  0  0  0  0  0  0  0  0  0  0
  -40.4329   55.7901   63.4556 H   0  0  0  0  0  0  0  0  0  0  0  0
  -42.0864   56.0321   61.6683 H   0  0  0  0  0  0  0  0  0  0  0  0
  -42.1035   57.7672   61.9248 H   0  0  0  0  0  0  0  0  0  0  0  0
  -42.9137   57.4339   64.2011 H   0  0  0  0  0  0  0  0  0  0  0  0
  -42.8880   55.6799   63.9258 H   0  0  0  0  0  0  0  0  0  0  0  0
  -44.6460   57.6340   62.4730 H   0  0  0  0  0  0  0  0  0  0  0  0
  -45.1418   56.5440   63.7826 H   0  0  0  0  0  0  0  0  0  0  0  0
  -44.1221   55.6748   61.0977 H   0  0  0  0  0  0  0  0  0  0  0  0
  -45.8154   55.6734   61.6376 H   0  0  0  0  0  0  0  0  0  0  0  0
  -46.5670   50.7744   64.3322 H   0  0  0  0  0  0  0  0  0  0  0  0
  -47.6661   53.6396   63.4392 H   0  0  0  0  0  0  0  0  0  0  0  0
  1  9  1  0  0  0  0
  1 24  1  0  0  0  0
  1 25  1  0  0  0  0
  1 26  1  0  0  0  0
  2  4  2  0  0  0  0
  2 10  1  0  0  0  0
  2 27  1  0  0  0  0
  3  5  2  0  0  0  0
  3 10  1  0  0  0  0
  3 28  1  0  0  0  0
  4 11  1  0  0  0  0
  4 29  1  0  0  0  0
  5 12  1  0  0  0  0
  5 30  1  0  0  0  0
  6  7  2  0  0  0  0
  6  8  1  0  0  0  0
  6 31  1  0  0  0  0
  7 19  1  0  0  0  0
  7 32  1  0  0  0  0
  8 21  2  0  0  0  0
  8 33  1  0  0  0  0
  9 11  1  0  0  0  0
  9 34  1  0  0  0  0
  9 35  1  0  0  0  0
 10 36  1  0  0  0  0
 10 37  1  0  0  0  0
 11 38  1  0  0  0  0
 11 39  1  0  0  0  0
 12 13  1  0  0  0  0
 12 40  1  0  0  0  0
 12 41  1  0  0  0  0
 13 14  1  0  0  0  0
 13 42  1  0  0  0  0
 13 43  1  0  0  0  0
 14 15  1  0  0  0  0
 14 44  1  0  0  0  0
 14 45  1  0  0  0  0
 15 16  1  0  0  0  0
 15 46  1  0  0  0  0
 15 47  1  0  0  0  0
 16 17  1  0  0  0  0
 16 48  1  0  0  0  0
 16 49  1  0  0  0  0
 17 18  1  0  0  0  0
 17 50  1  0  0  0  0
 17 51  1  0  0  0  0
 18 21  1  0  0  0  0
 18 52  1  0  0  0  0
 18 53  1  0  0  0  0
 19 20  2  0  0  0  0
 19 22  1  0  0  0  0
 20 21  1  0  0  0  0
 20 23  1  0  0  0  0
 22 54  1  0  0  0  0
 23 55  1  0  0  0  0
M  END
$$$$
/media/chris/experiments/cd1a-new-docking/inputs/ligands/5j1a_ligand.pdb
 OpenBabel07022311203D

 55 55  0  0  0  0  0  0  0  0999 V2000
  -36.7337   50.1148   60.6517 C   0  0  0  0  0  0  0  0  0  0  0  0
  -35.8617   54.4536   63.0018 C   0  0  0  0  0  0  0  0  0  0  0  0
  -38.1930   54.1643   62.2307 C   0  0  0  0  0  0  0  0  0  0  0  0
  -35.7280   52.9160   63.1149 C   0  0  0  0  0  0  0  0  0  0  0  0
  -39.5143   54.4878   61.5063 C   0  0  0  0  0  0  0  0  0  0  0  0
  -40.6900   63.1312   64.3171 C   0  0  0  0  0  0  0  0  0  0  0  0
  -41.7552   63.9859   64.6304 C   0  0  0  0  0  0  0  0  0  0  0  0
  -40.8785   62.0593   63.4366 C   0  0  0  0  0  0  0  0  0  0  0  0
  -35.8589   51.0935   61.4389 C   0  0  0  0  0  0  0  0  0  0  0  0
  -36.9859   55.1140   62.1903 C   0  0  0  0  0  0  0  0  0  0  0  0
  -36.6957   51.9607   62.3894 C   0  0  0  0  0  0  0  0  0  0  0  0
  -39.6997   55.8424   60.8202 C   0  0  0  0  0  0  0  0  0  0  0  0
  -39.5380   56.9300   61.8820 C   0  0  0  0  0  0  0  0  0  0  0  0
  -40.5750   56.7430   62.9900 C   0  0  0  0  0  0  0  0  0  0  0  0
  -41.9730   56.8130   62.3910 C   0  0  0  0  0  0  0  0  0  0  0  0
  -42.1931   58.1680   61.7021 C   0  0  0  0  0  0  0  0  0  0  0  0
  -42.0339   59.3769   62.6604 C   0  0  0  0  0  0  0  0  0  0  0  0
  -42.2733   60.7388   61.9667 C   0  0  0  0  0  0  0  0  0  0  0  0
  -42.9994   63.7489   64.0463 C   0  0  0  0  0  0  0  0  0  0  0  0
  -43.1782   62.6845   63.1644 C   0  0  0  0  0  0  0  0  0  0  0  0
  -42.1161   61.8378   62.8220 C   0  0  0  0  0  0  0  0  0  0  0  0
  -44.0802   64.5272   64.2993 O   0  0  0  0  0  0  0  0  0  0  0  0
  -44.4111   62.4960   62.6111 O   0  0  0  0  0  0  0  0  0  0  0  0
  -36.1176   49.5291   60.0018 H   0  0  0  0  0  0  0  0  0  0  0  0
  -37.4464   50.6617   60.0704 H   0  0  0  0  0  0  0  0  0  0  0  0
  -37.2485   49.4695   61.3324 H   0  0  0  0  0  0  0  0  0  0  0  0
  -35.1751   55.0529   63.4859 H   0  0  0  0  0  0  0  0  0  0  0  0
  -38.1166   53.2815   62.7597 H   0  0  0  0  0  0  0  0  0  0  0  0
  -34.9700   52.5194   63.6921 H   0  0  0  0  0  0  0  0  0  0  0  0
  -40.2745   53.7902   61.4841 H   0  0  0  0  0  0  0  0  0  0  0  0
  -39.7615   63.2929   64.7377 H   0  0  0  0  0  0  0  0  0  0  0  0
  -41.6217   64.7757   65.2811 H   0  0  0  0  0  0  0  0  0  0  0  0
  -40.0917   61.4218   63.2374 H   0  0  0  0  0  0  0  0  0  0  0  0
  -35.3442   51.7304   60.7503 H   0  0  0  0  0  0  0  0  0  0  0  0
  -35.1668   50.5262   62.0255 H   0  0  0  0  0  0  0  0  0  0  0  0
  -36.6696   55.2623   61.1790 H   0  0  0  0  0  0  0  0  0  0  0  0
  -37.2399   56.0691   62.6005 H   0  0  0  0  0  0  0  0  0  0  0  0
  -37.4158   52.5232   61.8326 H   0  0  0  0  0  0  0  0  0  0  0  0
  -37.2218   51.3501   63.0931 H   0  0  0  0  0  0  0  0  0  0  0  0
  -40.6760   55.8999   60.3860 H   0  0  0  0  0  0  0  0  0  0  0  0
  -38.9765   55.9694   60.0419 H   0  0  0  0  0  0  0  0  0  0  0  0
  -39.6739   57.8897   61.4288 H   0  0  0  0  0  0  0  0  0  0  0  0
  -38.5577   56.8621   62.3055 H   0  0  0  0  0  0  0  0  0  0  0  0
  -40.4604   57.5164   63.7205 H   0  0  0  0  0  0  0  0  0  0  0  0
  -40.4329   55.7901   63.4556 H   0  0  0  0  0  0  0  0  0  0  0  0
  -42.6967   56.6917   63.1697 H   0  0  0  0  0  0  0  0  0  0  0  0
  -42.0793   56.0336   61.6657 H   0  0  0  0  0  0  0  0  0  0  0  0
  -43.1825   58.1853   61.2952 H   0  0  0  0  0  0  0  0  0  0  0  0
  -41.4436   58.2636   60.9445 H   0  0  0  0  0  0  0  0  0  0  0  0
  -41.0405   59.3675   63.0578 H   0  0  0  0  0  0  0  0  0  0  0  0
  -42.7738   59.2754   63.4266 H   0  0  0  0  0  0  0  0  0  0  0  0
  -43.2709   60.7509   61.5798 H   0  0  0  0  0  0  0  0  0  0  0  0
  -41.5375   60.8326   61.1956 H   0  0  0  0  0  0  0  0  0  0  0  0
  -44.0070   65.2542   64.8858 H   0  0  0  0  0  0  0  0  0  0  0  0
  -45.1199   63.0637   62.8418 H   0  0  0  0  0  0  0  0  0  0  0  0
  1  9  1  0  0  0  0
  1 24  1  0  0  0  0
  1 25  1  0  0  0  0
  1 26  1  0  0  0  0
  2  4  2  0  0  0  0
  2 10  1  0  0  0  0
  2 27  1  0  0  0  0
  3  5  2  0  0  0  0
  3 10  1  0  0  0  0
  3 28  1  0  0  0  0
  4 11  1  0  0  0  0
  4 29  1  0  0  0  0
  5 12  1  0  0  0  0
  5 30  1  0  0  0  0
  6  7  2  0  0  0  0
  6  8  1  0  0  0  0
  6 31  1  0  0  0  0
  7 19  1  0  0  0  0
  7 32  1  0  0  0  0
  8 21  2  0  0  0  0
  8 33  1  0  0  0  0
  9 11  1  0  0  0  0
  9 34  1  0  0  0  0
  9 35  1  0  0  0  0
 10 36  1  0  0  0  0
 10 37  1  0  0  0  0
 11 38  1  0  0  0  0
 11 39  1  0  0  0  0
 12 13  1  0  0  0  0
 12 40  1  0  0  0  0
 12 41  1  0  0  0  0
 13 14  1  0  0  0  0
 13 42  1  0  0  0  0
 13 43  1  0  0  0  0
 14 15  1  0  0  0  0
 14 44  1  0  0  0  0
 14 45  1  0  0  0  0
 15 16  1  0  0  0  0
 15 46  1  0  0  0  0
 15 47  1  0  0  0  0
 16 17  1  0  0  0  0
 16 48  1  0  0  0  0
 16 49  1  0  0  0  0
 17 18  1  0  0  0  0
 17 50  1  0  0  0  0
 17 51  1  0  0  0  0
 18 21  1  0  0  0  0
 18 52  1  0  0  0  0
 18 53  1  0  0  0  0
 19 20  2  0  0  0  0
 19 22  1  0  0  0  0
 20 21  1  0  0  0  0
 20 23  1  0  0  0  0
 22 54  1  0  0  0  0
 23 55  1  0  0  0  0
M  END
$$$$
/media/chris/experiments/cd1a-new-docking/inputs/ligands/5j1a_ligand.pdb
 OpenBabel07022311203D

 55 55  0  0  0  0  0  0  0  0999 V2000
  -33.3667   58.3930   63.5671 C   0  0  0  0  0  0  0  0  0  0  0  0
  -34.5815   55.6309   62.5087 C   0  0  0  0  0  0  0  0  0  0  0  0
  -36.6334   55.0749   63.7710 C   0  0  0  0  0  0  0  0  0  0  0  0
  -34.2848   56.6567   61.3886 C   0  0  0  0  0  0  0  0  0  0  0  0
  -37.9593   55.4582   63.0851 C   0  0  0  0  0  0  0  0  0  0  0  0
  -45.0990   57.9645   67.4681 C   0  0  0  0  0  0  0  0  0  0  0  0
  -43.9494   58.2291   68.2242 C   0  0  0  0  0  0  0  0  0  0  0  0
  -45.0992   56.9372   66.5170 C   0  0  0  0  0  0  0  0  0  0  0  0
  -33.6672   58.9290   62.1653 C   0  0  0  0  0  0  0  0  0  0  0  0
  -35.4064   55.9994   63.7504 C   0  0  0  0  0  0  0  0  0  0  0  0
  -34.7711   58.1167   61.4744 C   0  0  0  0  0  0  0  0  0  0  0  0
  -38.1263   56.8452   62.4620 C   0  0  0  0  0  0  0  0  0  0  0  0
  -39.5380   56.9300   61.8820 C   0  0  0  0  0  0  0  0  0  0  0  0
  -40.5750   56.7430   62.9900 C   0  0  0  0  0  0  0  0  0  0  0  0
  -41.9730   56.8130   62.3910 C   0  0  0  0  0  0  0  0  0  0  0  0
  -43.0346   56.6452   63.4882 C   0  0  0  0  0  0  0  0  0  0  0  0
  -42.9202   55.3008   64.2526 C   0  0  0  0  0  0  0  0  0  0  0  0
  -44.0019   55.1282   65.3452 C   0  0  0  0  0  0  0  0  0  0  0  0
  -42.8129   57.4488   68.0124 C   0  0  0  0  0  0  0  0  0  0  0  0
  -42.8225   56.4224   67.0694 C   0  0  0  0  0  0  0  0  0  0  0  0
  -43.9724   56.1298   66.3250 C   0  0  0  0  0  0  0  0  0  0  0  0
  -41.6610   57.6423   68.7003 O   0  0  0  0  0  0  0  0  0  0  0  0
  -41.6900   55.6800   66.9020 O   0  0  0  0  0  0  0  0  0  0  0  0
  -32.5947   58.9823   64.0163 H   0  0  0  0  0  0  0  0  0  0  0  0
  -33.0440   57.3751   63.4982 H   0  0  0  0  0  0  0  0  0  0  0  0
  -34.2512   58.4470   64.1668 H   0  0  0  0  0  0  0  0  0  0  0  0
  -34.2141   54.6708   62.4185 H   0  0  0  0  0  0  0  0  0  0  0  0
  -36.5676   54.1683   64.2597 H   0  0  0  0  0  0  0  0  0  0  0  0
  -33.7465   56.3548   60.5615 H   0  0  0  0  0  0  0  0  0  0  0  0
  -38.7350   54.7786   63.0462 H   0  0  0  0  0  0  0  0  0  0  0  0
  -45.9501   58.5298   67.6132 H   0  0  0  0  0  0  0  0  0  0  0  0
  -43.9436   58.9871   68.9245 H   0  0  0  0  0  0  0  0  0  0  0  0
  -45.9444   56.7726   65.9481 H   0  0  0  0  0  0  0  0  0  0  0  0
  -32.7763   58.8763   61.5750 H   0  0  0  0  0  0  0  0  0  0  0  0
  -34.0046   59.9401   62.2588 H   0  0  0  0  0  0  0  0  0  0  0  0
  -35.7183   57.0214   63.6934 H   0  0  0  0  0  0  0  0  0  0  0  0
  -34.8259   55.8804   64.6414 H   0  0  0  0  0  0  0  0  0  0  0  0
  -35.6746   58.1682   62.0452 H   0  0  0  0  0  0  0  0  0  0  0  0
  -34.9713   58.5059   60.4980 H   0  0  0  0  0  0  0  0  0  0  0  0
  -37.4044   56.9844   61.6846 H   0  0  0  0  0  0  0  0  0  0  0  0
  -37.9789   57.6065   63.1994 H   0  0  0  0  0  0  0  0  0  0  0  0
  -39.6646   56.1636   61.1461 H   0  0  0  0  0  0  0  0  0  0  0  0
  -39.6747   57.8920   61.4340 H   0  0  0  0  0  0  0  0  0  0  0  0
  -40.4604   57.5164   63.7205 H   0  0  0  0  0  0  0  0  0  0  0  0
  -40.4329   55.7901   63.4556 H   0  0  0  0  0  0  0  0  0  0  0  0
  -42.0864   56.0321   61.6683 H   0  0  0  0  0  0  0  0  0  0  0  0
  -42.1035   57.7672   61.9248 H   0  0  0  0  0  0  0  0  0  0  0  0
  -44.0025   56.6968   63.0349 H   0  0  0  0  0  0  0  0  0  0  0  0
  -42.8805   57.4287   64.2005 H   0  0  0  0  0  0  0  0  0  0  0  0
  -41.9573   55.2542   64.7168 H   0  0  0  0  0  0  0  0  0  0  0  0
  -43.0603   54.5159   63.5391 H   0  0  0  0  0  0  0  0  0  0  0  0
  -43.8525   54.1825   65.8230 H   0  0  0  0  0  0  0  0  0  0  0  0
  -44.9529   55.1918   64.8589 H   0  0  0  0  0  0  0  0  0  0  0  0
  -41.6082   58.3208   69.3443 H   0  0  0  0  0  0  0  0  0  0  0  0
  -40.9221   55.8778   67.4012 H   0  0  0  0  0  0  0  0  0  0  0  0
  1  9  1  0  0  0  0
  1 24  1  0  0  0  0
  1 25  1  0  0  0  0
  1 26  1  0  0  0  0
  2  4  2  0  0  0  0
  2 10  1  0  0  0  0
  2 27  1  0  0  0  0
  3  5  2  0  0  0  0
  3 10  1  0  0  0  0
  3 28  1  0  0  0  0
  4 11  1  0  0  0  0
  4 29  1  0  0  0  0
  5 12  1  0  0  0  0
  5 30  1  0  0  0  0
  6  7  2  0  0  0  0
  6  8  1  0  0  0  0
  6 31  1  0  0  0  0
  7 19  1  0  0  0  0
  7 32  1  0  0  0  0
  8 21  2  0  0  0  0
  8 33  1  0  0  0  0
  9 11  1  0  0  0  0
  9 34  1  0  0  0  0
  9 35  1  0  0  0  0
 10 36  1  0  0  0  0
 10 37  1  0  0  0  0
 11 38  1  0  0  0  0
 11 39  1  0  0  0  0
 12 13  1  0  0  0  0
 12 40  1  0  0  0  0
 12 41  1  0  0  0  0
 13 14  1  0  0  0  0
 13 42  1  0  0  0  0
 13 43  1  0  0  0  0
 14 15  1  0  0  0  0
 14 44  1  0  0  0  0
 14 45  1  0  0  0  0
 15 16  1  0  0  0  0
 15 46  1  0  0  0  0
 15 47  1  0  0  0  0
 16 17  1  0  0  0  0
 16 48  1  0  0  0  0
 16 49  1  0  0  0  0
 17 18  1  0  0  0  0
 17 50  1  0  0  0  0
 17 51  1  0  0  0  0
 18 21  1  0  0  0  0
 18 52  1  0  0  0  0
 18 53  1  0  0  0  0
 19 20  2  0  0  0  0
 19 22  1  0  0  0  0
 20 21  1  0  0  0  0
 20 23  1  0  0  0  0
 22 54  1  0  0  0  0
 23 55  1  0  0  0  0
M  END
$$$$
/media/chris/experiments/cd1a-new-docking/inputs/ligands/5j1a_ligand.pdb
 OpenBabel07022311203D

 55 55  0  0  0  0  0  0  0  0999 V2000
  -39.4235   53.0909   59.2001 C   0  0  0  0  0  0  0  0  0  0  0  0
  -40.2821   56.9213   56.8358 C   0  0  0  0  0  0  0  0  0  0  0  0
  -38.9986   57.9525   58.6804 C   0  0  0  0  0  0  0  0  0  0  0  0
  -40.3795   55.4693   56.3096 C   0  0  0  0  0  0  0  0  0  0  0  0
  -38.6676   58.4181   60.1118 C   0  0  0  0  0  0  0  0  0  0  0  0
  -44.7406   53.3938   58.2047 C   0  0  0  0  0  0  0  0  0  0  0  0
  -45.9380   53.3165   58.9282 C   0  0  0  0  0  0  0  0  0  0  0  0
  -43.5087   53.3427   58.8680 C   0  0  0  0  0  0  0  0  0  0  0  0
  -39.3540   54.2622   58.2172 C   0  0  0  0  0  0  0  0  0  0  0  0
  -40.3189   57.2460   58.3363 C   0  0  0  0  0  0  0  0  0  0  0  0
  -40.5551   54.2701   57.2617 C   0  0  0  0  0  0  0  0  0  0  0  0
  -39.7162   58.2956   61.2187 C   0  0  0  0  0  0  0  0  0  0  0  0
  -39.5380   56.9300   61.8820 C   0  0  0  0  0  0  0  0  0  0  0  0
  -40.5750   56.7430   62.9900 C   0  0  0  0  0  0  0  0  0  0  0  0
  -41.9730   56.8130   62.3910 C   0  0  0  0  0  0  0  0  0  0  0  0
  -42.1661   55.6996   61.3507 C   0  0  0  0  0  0  0  0  0  0  0  0
  -42.0124   54.2741   61.9416 C   0  0  0  0  0  0  0  0  0  0  0  0
  -42.1905   53.1560   60.8873 C   0  0  0  0  0  0  0  0  0  0  0  0
  -45.8763   53.1845   60.3153 C   0  0  0  0  0  0  0  0  0  0  0  0
  -44.6463   53.1263   60.9686 C   0  0  0  0  0  0  0  0  0  0  0  0
  -43.4415   53.1763   60.2559 C   0  0  0  0  0  0  0  0  0  0  0  0
  -46.9879   53.1057   61.0872 O   0  0  0  0  0  0  0  0  0  0  0  0
  -44.6348   52.9890   62.3261 O   0  0  0  0  0  0  0  0  0  0  0  0
  -38.5725   53.1181   59.8481 H   0  0  0  0  0  0  0  0  0  0  0  0
  -39.4288   52.1692   58.6568 H   0  0  0  0  0  0  0  0  0  0  0  0
  -40.3179   53.1667   59.7826 H   0  0  0  0  0  0  0  0  0  0  0  0
  -40.1897   57.6943   56.1584 H   0  0  0  0  0  0  0  0  0  0  0  0
  -38.3114   58.1205   57.9290 H   0  0  0  0  0  0  0  0  0  0  0  0
  -40.3255   55.2993   55.2931 H   0  0  0  0  0  0  0  0  0  0  0  0
  -37.7379   58.8129   60.3236 H   0  0  0  0  0  0  0  0  0  0  0  0
  -44.7668   53.4889   57.1775 H   0  0  0  0  0  0  0  0  0  0  0  0
  -46.8484   53.3565   58.4439 H   0  0  0  0  0  0  0  0  0  0  0  0
  -42.6358   53.4292   58.3244 H   0  0  0  0  0  0  0  0  0  0  0  0
  -38.4545   54.1811   57.6435 H   0  0  0  0  0  0  0  0  0  0  0  0
  -39.3679   55.1723   58.7796 H   0  0  0  0  0  0  0  0  0  0  0  0
  -40.4111   56.3441   58.9045 H   0  0  0  0  0  0  0  0  0  0  0  0
  -41.1560   57.8704   58.5696 H   0  0  0  0  0  0  0  0  0  0  0  0
  -40.5823   53.3591   56.7011 H   0  0  0  0  0  0  0  0  0  0  0  0
  -41.4715   54.3526   57.8078 H   0  0  0  0  0  0  0  0  0  0  0  0
  -40.6980   58.3716   60.8001 H   0  0  0  0  0  0  0  0  0  0  0  0
  -39.5944   59.0789   61.9374 H   0  0  0  0  0  0  0  0  0  0  0  0
  -38.5560   56.8665   62.3023 H   0  0  0  0  0  0  0  0  0  0  0  0
  -39.6703   56.1642   61.1465 H   0  0  0  0  0  0  0  0  0  0  0  0
  -40.4604   57.5164   63.7205 H   0  0  0  0  0  0  0  0  0  0  0  0
  -40.4329   55.7901   63.4556 H   0  0  0  0  0  0  0  0  0  0  0  0
  -42.1071   57.7638   61.9188 H   0  0  0  0  0  0  0  0  0  0  0  0
  -42.6924   56.6861   63.1729 H   0  0  0  0  0  0  0  0  0  0  0  0
  -41.4374   55.8271   60.5777 H   0  0  0  0  0  0  0  0  0  0  0  0
  -43.1664   55.7826   60.9800 H   0  0  0  0  0  0  0  0  0  0  0  0
  -42.7492   54.1414   62.7060 H   0  0  0  0  0  0  0  0  0  0  0  0
  -41.0169   54.1941   62.3254 H   0  0  0  0  0  0  0  0  0  0  0  0
  -42.0718   52.2102   61.3734 H   0  0  0  0  0  0  0  0  0  0  0  0
  -41.4530   53.3184   60.1292 H   0  0  0  0  0  0  0  0  0  0  0  0
  -47.8365   53.1406   60.6915 H   0  0  0  0  0  0  0  0  0  0  0  0
  -45.4422   52.9558   62.8005 H   0  0  0  0  0  0  0  0  0  0  0  0
  1  9  1  0  0  0  0
  1 24  1  0  0  0  0
  1 25  1  0  0  0  0
  1 26  1  0  0  0  0
  2  4  2  0  0  0  0
  2 10  1  0  0  0  0
  2 27  1  0  0  0  0
  3  5  2  0  0  0  0
  3 10  1  0  0  0  0
  3 28  1  0  0  0  0
  4 11  1  0  0  0  0
  4 29  1  0  0  0  0
  5 12  1  0  0  0  0
  5 30  1  0  0  0  0
  6  7  2  0  0  0  0
  6  8  1  0  0  0  0
  6 31  1  0  0  0  0
  7 19  1  0  0  0  0
  7 32  1  0  0  0  0
  8 21  2  0  0  0  0
  8 33  1  0  0  0  0
  9 11  1  0  0  0  0
  9 34  1  0  0  0  0
  9 35  1  0  0  0  0
 10 36  1  0  0  0  0
 10 37  1  0  0  0  0
 11 38  1  0  0  0  0
 11 39  1  0  0  0  0
 12 13  1  0  0  0  0
 12 40  1  0  0  0  0
 12 41  1  0  0  0  0
 13 14  1  0  0  0  0
 13 42  1  0  0  0  0
 13 43  1  0  0  0  0
 14 15  1  0  0  0  0
 14 44  1  0  0  0  0
 14 45  1  0  0  0  0
 15 16  1  0  0  0  0
 15 46  1  0  0  0  0
 15 47  1  0  0  0  0
 16 17  1  0  0  0  0
 16 48  1  0  0  0  0
 16 49  1  0  0  0  0
 17 18  1  0  0  0  0
 17 50  1  0  0  0  0
 17 51  1  0  0  0  0
 18 21  1  0  0  0  0
 18 52  1  0  0  0  0
 18 53  1  0  0  0  0
 19 20  2  0  0  0  0
 19 22  1  0  0  0  0
 20 21  1  0  0  0  0
 20 23  1  0  0  0  0
 22 54  1  0  0  0  0
 23 55  1  0  0  0  0
M  END
$$$$
/media/chris/experiments/cd1a-new-docking/inputs/ligands/5j1a_ligand.pdb
 OpenBabel07022311203D

 55 55  0  0  0  0  0  0  0  0999 V2000
  -38.9415   49.6731   61.9431 C   0  0  0  0  0  0  0  0  0  0  0  0
  -37.8376   53.0947   60.0105 C   0  0  0  0  0  0  0  0  0  0  0  0
  -38.0926   54.1974   62.2087 C   0  0  0  0  0  0  0  0  0  0  0  0
  -38.5218   51.7131   59.8776 C   0  0  0  0  0  0  0  0  0  0  0  0
  -37.9593   55.4582   63.0851 C   0  0  0  0  0  0  0  0  0  0  0  0
  -45.6256   52.3659   63.6023 C   0  0  0  0  0  0  0  0  0  0  0  0
  -44.3894   51.7063   63.6113 C   0  0  0  0  0  0  0  0  0  0  0  0
  -45.7411   53.6445   63.0440 C   0  0  0  0  0  0  0  0  0  0  0  0
  -39.7780   50.9531   61.8757 C   0  0  0  0  0  0  0  0  0  0  0  0
  -38.5128   54.2699   60.7326 C   0  0  0  0  0  0  0  0  0  0  0  0
  -39.9356   51.4499   60.4321 C   0  0  0  0  0  0  0  0  0  0  0  0
  -38.1263   56.8452   62.4620 C   0  0  0  0  0  0  0  0  0  0  0  0
  -39.5380   56.9300   61.8820 C   0  0  0  0  0  0  0  0  0  0  0  0
  -40.5750   56.7430   62.9900 C   0  0  0  0  0  0  0  0  0  0  0  0
  -41.9730   56.8130   62.3910 C   0  0  0  0  0  0  0  0  0  0  0  0
  -43.0346   56.6452   63.4882 C   0  0  0  0  0  0  0  0  0  0  0  0
  -44.4877   56.6885   62.9483 C   0  0  0  0  0  0  0  0  0  0  0  0
  -44.7906   55.5673   61.9262 C   0  0  0  0  0  0  0  0  0  0  0  0
  -43.2836   52.3462   63.0517 C   0  0  0  0  0  0  0  0  0  0  0  0
  -43.4074   53.6161   62.4905 C   0  0  0  0  0  0  0  0  0  0  0  0
  -44.6421   54.2764   62.4512 C   0  0  0  0  0  0  0  0  0  0  0  0
  -42.0534   51.7776   63.0231 O   0  0  0  0  0  0  0  0  0  0  0  0
  -42.3000   54.1999   61.9476 O   0  0  0  0  0  0  0  0  0  0  0  0
  -38.8535   49.3577   62.9618 H   0  0  0  0  0  0  0  0  0  0  0  0
  -37.9673   49.8621   61.5429 H   0  0  0  0  0  0  0  0  0  0  0  0
  -39.4188   48.9045   61.3718 H   0  0  0  0  0  0  0  0  0  0  0  0
  -36.8997   53.2304   59.6017 H   0  0  0  0  0  0  0  0  0  0  0  0
  -37.8932   53.2752   62.6266 H   0  0  0  0  0  0  0  0  0  0  0  0
  -38.0176   50.9468   59.4048 H   0  0  0  0  0  0  0  0  0  0  0  0
  -37.7574   55.3665   64.0930 H   0  0  0  0  0  0  0  0  0  0  0  0
  -46.4553   51.9067   64.0094 H   0  0  0  0  0  0  0  0  0  0  0  0
  -44.2988   50.7649   64.0241 H   0  0  0  0  0  0  0  0  0  0  0  0
  -46.6519   54.1292   63.0701 H   0  0  0  0  0  0  0  0  0  0  0  0
  -39.2962   51.7136   62.4540 H   0  0  0  0  0  0  0  0  0  0  0  0
  -40.7516   50.7373   62.2635 H   0  0  0  0  0  0  0  0  0  0  0  0
  -39.5765   54.1887   60.6497 H   0  0  0  0  0  0  0  0  0  0  0  0
  -38.2178   55.2024   60.2988 H   0  0  0  0  0  0  0  0  0  0  0  0
  -40.4275   50.7058   59.8411 H   0  0  0  0  0  0  0  0  0  0  0  0
  -40.5251   52.3424   60.4022 H   0  0  0  0  0  0  0  0  0  0  0  0
  -37.4044   56.9844   61.6846 H   0  0  0  0  0  0  0  0  0  0  0  0
  -37.9789   57.6065   63.1994 H   0  0  0  0  0  0  0  0  0  0  0  0
  -39.6646   56.1636   61.1461 H   0  0  0  0  0  0  0  0  0  0  0  0
  -39.6747   57.8920   61.4340 H   0  0  0  0  0  0  0  0  0  0  0  0
  -40.4604   57.5164   63.7205 H   0  0  0  0  0  0  0  0  0  0  0  0
  -40.4329   55.7901   63.4556 H   0  0  0  0  0  0  0  0  0  0  0  0
  -42.0864   56.0321   61.6683 H   0  0  0  0  0  0  0  0  0  0  0  0
  -42.1035   57.7672   61.9248 H   0  0  0  0  0  0  0  0  0  0  0  0
  -42.9137   57.4339   64.2011 H   0  0  0  0  0  0  0  0  0  0  0  0
  -42.8880   55.6799   63.9258 H   0  0  0  0  0  0  0  0  0  0  0  0
  -44.6460   57.6340   62.4730 H   0  0  0  0  0  0  0  0  0  0  0  0
  -45.1418   56.5440   63.7826 H   0  0  0  0  0  0  0  0  0  0  0  0
  -44.1221   55.6748   61.0977 H   0  0  0  0  0  0  0  0  0  0  0  0
  -45.8154   55.6734   61.6376 H   0  0  0  0  0  0  0  0  0  0  0  0
  -41.9228   50.9248   63.3887 H   0  0  0  0  0  0  0  0  0  0  0  0
  -41.4753   53.7561   61.9752 H   0  0  0  0  0  0  0  0  0  0  0  0
  1  9  1  0  0  0  0
  1 24  1  0  0  0  0
  1 25  1  0  0  0  0
  1 26  1  0  0  0  0
  2  4  2  0  0  0  0
  2 10  1  0  0  0  0
  2 27  1  0  0  0  0
  3  5  2  0  0  0  0
  3 10  1  0  0  0  0
  3 28  1  0  0  0  0
  4 11  1  0  0  0  0
  4 29  1  0  0  0  0
  5 12  1  0  0  0  0
  5 30  1  0  0  0  0
  6  7  2  0  0  0  0
  6  8  1  0  0  0  0
  6 31  1  0  0  0  0
  7 19  1  0  0  0  0
  7 32  1  0  0  0  0
  8 21  2  0  0  0  0
  8 33  1  0  0  0  0
  9 11  1  0  0  0  0
  9 34  1  0  0  0  0
  9 35  1  0  0  0  0
 10 36  1  0  0  0  0
 10 37  1  0  0  0  0
 11 38  1  0  0  0  0
 11 39  1  0  0  0  0
 12 13  1  0  0  0  0
 12 40  1  0  0  0  0
 12 41  1  0  0  0  0
 13 14  1  0  0  0  0
 13 42  1  0  0  0  0
 13 43  1  0  0  0  0
 14 15  1  0  0  0  0
 14 44  1  0  0  0  0
 14 45  1  0  0  0  0
 15 16  1  0  0  0  0
 15 46  1  0  0  0  0
 15 47  1  0  0  0  0
 16 17  1  0  0  0  0
 16 48  1  0  0  0  0
 16 49  1  0  0  0  0
 17 18  1  0  0  0  0
 17 50  1  0  0  0  0
 17 51  1  0  0  0  0
 18 21  1  0  0  0  0
 18 52  1  0  0  0  0
 18 53  1  0  0  0  0
 19 20  2  0  0  0  0
 19 22  1  0  0  0  0
 20 21  1  0  0  0  0
 20 23  1  0  0  0  0
 22 54  1  0  0  0  0
 23 55  1  0  0  0  0
M  END
$$$$
/media/chris/experiments/cd1a-new-docking/inputs/ligands/5j1a_ligand.pdb
 OpenBabel07022311203D

 55 55  0  0  0  0  0  0  0  0999 V2000
  -38.8595   54.4923   57.3996 C   0  0  0  0  0  0  0  0  0  0  0  0
  -36.9215   53.6334   61.2231 C   0  0  0  0  0  0  0  0  0  0  0  0
  -36.1152   55.9563   60.9649 C   0  0  0  0  0  0  0  0  0  0  0  0
  -37.2962   53.6163   59.7218 C   0  0  0  0  0  0  0  0  0  0  0  0
  -37.1362   57.0564   61.3152 C   0  0  0  0  0  0  0  0  0  0  0  0
  -46.5326   56.6394   57.3811 C   0  0  0  0  0  0  0  0  0  0  0  0
  -47.6442   57.1849   58.0368 C   0  0  0  0  0  0  0  0  0  0  0  0
  -45.2857   56.5995   58.0164 C   0  0  0  0  0  0  0  0  0  0  0  0
  -37.8719   55.4161   58.1165 C   0  0  0  0  0  0  0  0  0  0  0  0
  -35.9655   54.6821   61.8102 C   0  0  0  0  0  0  0  0  0  0  0  0
  -36.7022   54.6302   58.7245 C   0  0  0  0  0  0  0  0  0  0  0  0
  -38.1263   56.8452   62.4620 C   0  0  0  0  0  0  0  0  0  0  0  0
  -39.5380   56.9300   61.8820 C   0  0  0  0  0  0  0  0  0  0  0  0
  -40.5750   56.7430   62.9900 C   0  0  0  0  0  0  0  0  0  0  0  0
  -41.9730   56.8130   62.3910 C   0  0  0  0  0  0  0  0  0  0  0  0
  -42.1661   55.6996   61.3507 C   0  0  0  0  0  0  0  0  0  0  0  0
  -43.5658   55.7191   60.6834 C   0  0  0  0  0  0  0  0  0  0  0  0
  -43.8575   57.0325   59.9198 C   0  0  0  0  0  0  0  0  0  0  0  0
  -47.4832   57.6809   59.3304 C   0  0  0  0  0  0  0  0  0  0  0  0
  -46.2406   57.6308   59.9601 C   0  0  0  0  0  0  0  0  0  0  0  0
  -45.1269   57.0649   59.3266 C   0  0  0  0  0  0  0  0  0  0  0  0
  -48.5072   58.2264   60.0314 O   0  0  0  0  0  0  0  0  0  0  0  0
  -46.1323   58.1209   61.2289 O   0  0  0  0  0  0  0  0  0  0  0  0
  -39.6588   55.0738   56.9898 H   0  0  0  0  0  0  0  0  0  0  0  0
  -39.2551   53.7834   58.0967 H   0  0  0  0  0  0  0  0  0  0  0  0
  -38.3550   53.9738   56.6112 H   0  0  0  0  0  0  0  0  0  0  0  0
  -37.3259   52.9188   61.8483 H   0  0  0  0  0  0  0  0  0  0  0  0
  -35.5128   56.0795   60.1360 H   0  0  0  0  0  0  0  0  0  0  0  0
  -37.9623   52.9064   59.3789 H   0  0  0  0  0  0  0  0  0  0  0  0
  -37.1519   57.9361   60.7758 H   0  0  0  0  0  0  0  0  0  0  0  0
  -46.6335   56.2652   56.4246 H   0  0  0  0  0  0  0  0  0  0  0  0
  -48.5647   57.2190   57.5715 H   0  0  0  0  0  0  0  0  0  0  0  0
  -44.4701   56.2205   57.5102 H   0  0  0  0  0  0  0  0  0  0  0  0
  -38.3862   55.9340   58.8989 H   0  0  0  0  0  0  0  0  0  0  0  0
  -37.4758   56.1039   57.3988 H   0  0  0  0  0  0  0  0  0  0  0  0
  -34.9574   54.3267   61.7625 H   0  0  0  0  0  0  0  0  0  0  0  0
  -36.1990   54.8770   62.8361 H   0  0  0  0  0  0  0  0  0  0  0  0
  -36.1680   54.1148   57.9537 H   0  0  0  0  0  0  0  0  0  0  0  0
  -36.0200   55.2902   59.2184 H   0  0  0  0  0  0  0  0  0  0  0  0
  -37.9914   57.6045   63.2038 H   0  0  0  0  0  0  0  0  0  0  0  0
  -37.9678   55.8923   62.9220 H   0  0  0  0  0  0  0  0  0  0  0  0
  -39.6646   56.1636   61.1461 H   0  0  0  0  0  0  0  0  0  0  0  0
  -39.6747   57.8920   61.4340 H   0  0  0  0  0  0  0  0  0  0  0  0
  -40.4604   57.5164   63.7205 H   0  0  0  0  0  0  0  0  0  0  0  0
  -40.4329   55.7901   63.4556 H   0  0  0  0  0  0  0  0  0  0  0  0
  -42.1071   57.7638   61.9188 H   0  0  0  0  0  0  0  0  0  0  0  0
  -42.6924   56.6861   63.1729 H   0  0  0  0  0  0  0  0  0  0  0  0
  -42.0344   54.7551   61.8359 H   0  0  0  0  0  0  0  0  0  0  0  0
  -41.4442   55.8600   60.5774 H   0  0  0  0  0  0  0  0  0  0  0  0
  -44.3075   55.5962   61.4447 H   0  0  0  0  0  0  0  0  0  0  0  0
  -43.5887   54.9233   59.9684 H   0  0  0  0  0  0  0  0  0  0  0  0
  -43.1218   57.1481   59.1515 H   0  0  0  0  0  0  0  0  0  0  0  0
  -43.8249   57.8266   60.6362 H   0  0  0  0  0  0  0  0  0  0  0  0
  -49.3605   58.2811   59.6482 H   0  0  0  0  0  0  0  0  0  0  0  0
  -46.8789   58.4989   61.6504 H   0  0  0  0  0  0  0  0  0  0  0  0
  1  9  1  0  0  0  0
  1 24  1  0  0  0  0
  1 25  1  0  0  0  0
  1 26  1  0  0  0  0
  2  4  2  0  0  0  0
  2 10  1  0  0  0  0
  2 27  1  0  0  0  0
  3  5  2  0  0  0  0
  3 10  1  0  0  0  0
  3 28  1  0  0  0  0
  4 11  1  0  0  0  0
  4 29  1  0  0  0  0
  5 12  1  0  0  0  0
  5 30  1  0  0  0  0
  6  7  2  0  0  0  0
  6  8  1  0  0  0  0
  6 31  1  0  0  0  0
  7 19  1  0  0  0  0
  7 32  1  0  0  0  0
  8 21  2  0  0  0  0
  8 33  1  0  0  0  0
  9 11  1  0  0  0  0
  9 34  1  0  0  0  0
  9 35  1  0  0  0  0
 10 36  1  0  0  0  0
 10 37  1  0  0  0  0
 11 38  1  0  0  0  0
 11 39  1  0  0  0  0
 12 13  1  0  0  0  0
 12 40  1  0  0  0  0
 12 41  1  0  0  0  0
 13 14  1  0  0  0  0
 13 42  1  0  0  0  0
 13 43  1  0  0  0  0
 14 15  1  0  0  0  0
 14 44  1  0  0  0  0
 14 45  1  0  0  0  0
 15 16  1  0  0  0  0
 15 46  1  0  0  0  0
 15 47  1  0  0  0  0
 16 17  1  0  0  0  0
 16 48  1  0  0  0  0
 16 49  1  0  0  0  0
 17 18  1  0  0  0  0
 17 50  1  0  0  0  0
 17 51  1  0  0  0  0
 18 21  1  0  0  0  0
 18 52  1  0  0  0  0
 18 53  1  0  0  0  0
 19 20  2  0  0  0  0
 19 22  1  0  0  0  0
 20 21  1  0  0  0  0
 20 23  1  0  0  0  0
 22 54  1  0  0  0  0
 23 55  1  0  0  0  0
M  END
$$$$
/media/chris/experiments/cd1a-new-docking/inputs/ligands/5j1a_ligand.pdb
 OpenBabel07022311203D

 55 55  0  0  0  0  0  0  0  0999 V2000
  -31.9764   57.9465   64.7529 C   0  0  0  0  0  0  0  0  0  0  0  0
  -35.4975   56.9018   64.9897 C   0  0  0  0  0  0  0  0  0  0  0  0
  -36.6334   55.0749   63.7710 C   0  0  0  0  0  0  0  0  0  0  0  0
  -34.3979   56.9111   66.0785 C   0  0  0  0  0  0  0  0  0  0  0  0
  -37.9593   55.4582   63.0851 C   0  0  0  0  0  0  0  0  0  0  0  0
  -44.2549   61.5735   66.6395 C   0  0  0  0  0  0  0  0  0  0  0  0
  -43.0608   62.2512   66.9189 C   0  0  0  0  0  0  0  0  0  0  0  0
  -44.2835   60.5587   65.6754 C   0  0  0  0  0  0  0  0  0  0  0  0
  -32.3911   56.4745   64.6893 C   0  0  0  0  0  0  0  0  0  0  0  0
  -35.4064   55.9994   63.7504 C   0  0  0  0  0  0  0  0  0  0  0  0
  -33.1315   56.0405   65.9617 C   0  0  0  0  0  0  0  0  0  0  0  0
  -38.1263   56.8452   62.4620 C   0  0  0  0  0  0  0  0  0  0  0  0
  -39.5380   56.9300   61.8820 C   0  0  0  0  0  0  0  0  0  0  0  0
  -40.5750   56.7430   62.9900 C   0  0  0  0  0  0  0  0  0  0  0  0
  -41.9730   56.8130   62.3910 C   0  0  0  0  0  0  0  0  0  0  0  0
  -43.0346   56.6452   63.4882 C   0  0  0  0  0  0  0  0  0  0  0  0
  -42.9688   57.7452   64.5794 C   0  0  0  0  0  0  0  0  0  0  0  0
  -43.1948   59.1702   64.0212 C   0  0  0  0  0  0  0  0  0  0  0  0
  -41.9071   61.8923   66.2223 C   0  0  0  0  0  0  0  0  0  0  0  0
  -41.9408   60.8756   65.2693 C   0  0  0  0  0  0  0  0  0  0  0  0
  -43.1214   60.1722   64.9983 C   0  0  0  0  0  0  0  0  0  0  0  0
  -40.7138   62.5004   66.4320 O   0  0  0  0  0  0  0  0  0  0  0  0
  -40.7858   60.5534   64.6183 O   0  0  0  0  0  0  0  0  0  0  0  0
  -31.4646   58.2121   63.8516 H   0  0  0  0  0  0  0  0  0  0  0  0
  -31.3271   58.0983   65.5897 H   0  0  0  0  0  0  0  0  0  0  0  0
  -32.8476   58.5581   64.8619 H   0  0  0  0  0  0  0  0  0  0  0  0
  -36.3163   57.5203   65.0996 H   0  0  0  0  0  0  0  0  0  0  0  0
  -36.5676   54.1683   64.2597 H   0  0  0  0  0  0  0  0  0  0  0  0
  -34.5158   57.5169   66.9056 H   0  0  0  0  0  0  0  0  0  0  0  0
  -38.7350   54.7786   63.0462 H   0  0  0  0  0  0  0  0  0  0  0  0
  -45.1180   61.8237   67.1471 H   0  0  0  0  0  0  0  0  0  0  0  0
  -43.0355   63.0017   67.6268 H   0  0  0  0  0  0  0  0  0  0  0  0
  -45.1764   60.0880   65.4606 H   0  0  0  0  0  0  0  0  0  0  0  0
  -31.5146   55.8715   64.5748 H   0  0  0  0  0  0  0  0  0  0  0  0
  -33.0527   56.3489   63.8578 H   0  0  0  0  0  0  0  0  0  0  0  0
  -34.5087   55.4182   63.7853 H   0  0  0  0  0  0  0  0  0  0  0  0
  -35.3866   56.5846   62.8549 H   0  0  0  0  0  0  0  0  0  0  0  0
  -33.4028   55.0078   65.8925 H   0  0  0  0  0  0  0  0  0  0  0  0
  -32.5077   56.1641   66.8222 H   0  0  0  0  0  0  0  0  0  0  0  0
  -37.4044   56.9844   61.6846 H   0  0  0  0  0  0  0  0  0  0  0  0
  -37.9789   57.6065   63.1994 H   0  0  0  0  0  0  0  0  0  0  0  0
  -39.6646   56.1636   61.1461 H   0  0  0  0  0  0  0  0  0  0  0  0
  -39.6747   57.8920   61.4340 H   0  0  0  0  0  0  0  0  0  0  0  0
  -40.4604   57.5164   63.7205 H   0  0  0  0  0  0  0  0  0  0  0  0
  -40.4329   55.7901   63.4556 H   0  0  0  0  0  0  0  0  0  0  0  0
  -42.0864   56.0321   61.6683 H   0  0  0  0  0  0  0  0  0  0  0  0
  -42.1035   57.7672   61.9248 H   0  0  0  0  0  0  0  0  0  0  0  0
  -42.8917   55.6937   63.9563 H   0  0  0  0  0  0  0  0  0  0  0  0
  -43.9921   56.7233   63.0171 H   0  0  0  0  0  0  0  0  0  0  0  0
  -42.0041   57.7095   65.0408 H   0  0  0  0  0  0  0  0  0  0  0  0
  -43.7553   57.5483   65.2777 H   0  0  0  0  0  0  0  0  0  0  0  0
  -44.1644   59.2074   63.5703 H   0  0  0  0  0  0  0  0  0  0  0  0
  -42.4118   59.3599   63.3169 H   0  0  0  0  0  0  0  0  0  0  0  0
  -40.6435   63.1893   67.0632 H   0  0  0  0  0  0  0  0  0  0  0  0
  -39.9975   61.0256   64.8014 H   0  0  0  0  0  0  0  0  0  0  0  0
  1  9  1  0  0  0  0
  1 24  1  0  0  0  0
  1 25  1  0  0  0  0
  1 26  1  0  0  0  0
  2  4  2  0  0  0  0
  2 10  1  0  0  0  0
  2 27  1  0  0  0  0
  3  5  2  0  0  0  0
  3 10  1  0  0  0  0
  3 28  1  0  0  0  0
  4 11  1  0  0  0  0
  4 29  1  0  0  0  0
  5 12  1  0  0  0  0
  5 30  1  0  0  0  0
  6  7  2  0  0  0  0
  6  8  1  0  0  0  0
  6 31  1  0  0  0  0
  7 19  1  0  0  0  0
  7 32  1  0  0  0  0
  8 21  2  0  0  0  0
  8 33  1  0  0  0  0
  9 11  1  0  0  0  0
  9 34  1  0  0  0  0
  9 35  1  0  0  0  0
 10 36  1  0  0  0  0
 10 37  1  0  0  0  0
 11 38  1  0  0  0  0
 11 39  1  0  0  0  0
 12 13  1  0  0  0  0
 12 40  1  0  0  0  0
 12 41  1  0  0  0  0
 13 14  1  0  0  0  0
 13 42  1  0  0  0  0
 13 43  1  0  0  0  0
 14 15  1  0  0  0  0
 14 44  1  0  0  0  0
 14 45  1  0  0  0  0
 15 16  1  0  0  0  0
 15 46  1  0  0  0  0
 15 47  1  0  0  0  0
 16 17  1  0  0  0  0
 16 48  1  0  0  0  0
 16 49  1  0  0  0  0
 17 18  1  0  0  0  0
 17 50  1  0  0  0  0
 17 51  1  0  0  0  0
 18 21  1  0  0  0  0
 18 52  1  0  0  0  0
 18 53  1  0  0  0  0
 19 20  2  0  0  0  0
 19 22  1  0  0  0  0
 20 21  1  0  0  0  0
 20 23  1  0  0  0  0
 22 54  1  0  0  0  0
 23 55  1  0  0  0  0
M  END
$$$$
/media/chris/experiments/cd1a-new-docking/inputs/ligands/5j1a_ligand.pdb
 OpenBabel07022311203D

 55 55  0  0  0  0  0  0  0  0999 V2000
  -39.5560   61.5619   66.2670 C   0  0  0  0  0  0  0  0  0  0  0  0
  -38.0201   57.6474   64.9884 C   0  0  0  0  0  0  0  0  0  0  0  0
  -38.3179   55.2295   64.5665 C   0  0  0  0  0  0  0  0  0  0  0  0
  -38.1849   59.0158   65.6920 C   0  0  0  0  0  0  0  0  0  0  0  0
  -37.9593   55.4582   63.0851 C   0  0  0  0  0  0  0  0  0  0  0  0
  -43.5558   52.0964   62.3543 C   0  0  0  0  0  0  0  0  0  0  0  0
  -44.3555   51.6261   63.4043 C   0  0  0  0  0  0  0  0  0  0  0  0
  -43.7144   53.4019   61.8742 C   0  0  0  0  0  0  0  0  0  0  0  0
  -38.9909   60.6583   67.3655 C   0  0  0  0  0  0  0  0  0  0  0  0
  -38.7294   56.3828   65.4944 C   0  0  0  0  0  0  0  0  0  0  0  0
  -39.0427   59.1783   66.9622 C   0  0  0  0  0  0  0  0  0  0  0  0
  -38.1263   56.8452   62.4620 C   0  0  0  0  0  0  0  0  0  0  0  0
  -39.5380   56.9300   61.8820 C   0  0  0  0  0  0  0  0  0  0  0  0
  -40.5750   56.7430   62.9900 C   0  0  0  0  0  0  0  0  0  0  0  0
  -41.9730   56.8130   62.3910 C   0  0  0  0  0  0  0  0  0  0  0  0
  -43.0346   56.6452   63.4882 C   0  0  0  0  0  0  0  0  0  0  0  0
  -44.4877   56.6885   62.9483 C   0  0  0  0  0  0  0  0  0  0  0  0
  -44.7906   55.5673   61.9262 C   0  0  0  0  0  0  0  0  0  0  0  0
  -45.3049   52.4833   63.9602 C   0  0  0  0  0  0  0  0  0  0  0  0
  -45.4521   53.7845   63.4827 C   0  0  0  0  0  0  0  0  0  0  0  0
  -44.6421   54.2764   62.4512 C   0  0  0  0  0  0  0  0  0  0  0  0
  -46.1186   52.1044   64.9761 O   0  0  0  0  0  0  0  0  0  0  0  0
  -46.3887   54.5898   64.0625 O   0  0  0  0  0  0  0  0  0  0  0  0
  -39.5036   62.5829   66.5829 H   0  0  0  0  0  0  0  0  0  0  0  0
  -40.5759   61.2989   66.0783 H   0  0  0  0  0  0  0  0  0  0  0  0
  -38.9836   61.4357   65.3718 H   0  0  0  0  0  0  0  0  0  0  0  0
  -37.4157   57.5827   64.1545 H   0  0  0  0  0  0  0  0  0  0  0  0
  -38.2803   54.2711   64.9473 H   0  0  0  0  0  0  0  0  0  0  0  0
  -37.7074   59.8424   65.2999 H   0  0  0  0  0  0  0  0  0  0  0  0
  -37.6064   54.6750   62.5131 H   0  0  0  0  0  0  0  0  0  0  0  0
  -42.8462   51.4771   61.9325 H   0  0  0  0  0  0  0  0  0  0  0  0
  -44.2441   50.6636   63.7597 H   0  0  0  0  0  0  0  0  0  0  0  0
  -43.1376   53.7247   61.0817 H   0  0  0  0  0  0  0  0  0  0  0  0
  -39.5656   60.7953   68.2576 H   0  0  0  0  0  0  0  0  0  0  0  0
  -37.9673   60.9259   67.5253 H   0  0  0  0  0  0  0  0  0  0  0  0
  -39.7902   56.5193   65.4614 H   0  0  0  0  0  0  0  0  0  0  0  0
  -38.4548   56.1725   66.5069 H   0  0  0  0  0  0  0  0  0  0  0  0
  -38.6485   58.5707   67.7497 H   0  0  0  0  0  0  0  0  0  0  0  0
  -40.0513   58.8722   66.7783 H   0  0  0  0  0  0  0  0  0  0  0  0
  -37.4044   56.9844   61.6846 H   0  0  0  0  0  0  0  0  0  0  0  0
  -37.9789   57.6065   63.1994 H   0  0  0  0  0  0  0  0  0  0  0  0
  -39.6646   56.1636   61.1461 H   0  0  0  0  0  0  0  0  0  0  0  0
  -39.6747   57.8920   61.4340 H   0  0  0  0  0  0  0  0  0  0  0  0
  -40.4604   57.5164   63.7205 H   0  0  0  0  0  0  0  0  0  0  0  0
  -40.4329   55.7901   63.4556 H   0  0  0  0  0  0  0  0  0  0  0  0
  -42.0864   56.0321   61.6683 H   0  0  0  0  0  0  0  0  0  0  0  0
  -42.1035   57.7672   61.9248 H   0  0  0  0  0  0  0  0  0  0  0  0
  -42.9137   57.4339   64.2011 H   0  0  0  0  0  0  0  0  0  0  0  0
  -42.8880   55.6799   63.9258 H   0  0  0  0  0  0  0  0  0  0  0  0
  -44.6460   57.6340   62.4730 H   0  0  0  0  0  0  0  0  0  0  0  0
  -45.1418   56.5440   63.7826 H   0  0  0  0  0  0  0  0  0  0  0  0
  -44.1221   55.6748   61.0977 H   0  0  0  0  0  0  0  0  0  0  0  0
  -45.8154   55.6734   61.6376 H   0  0  0  0  0  0  0  0  0  0  0  0
  -46.0552   51.2388   65.3292 H   0  0  0  0  0  0  0  0  0  0  0  0
  -46.9293   54.2584   64.7523 H   0  0  0  0  0  0  0  0  0  0  0  0
  1  9  1  0  0  0  0
  1 24  1  0  0  0  0
  1 25  1  0  0  0  0
  1 26  1  0  0  0  0
  2  4  2  0  0  0  0
  2 10  1  0  0  0  0
  2 27  1  0  0  0  0
  3  5  2  0  0  0  0
  3 10  1  0  0  0  0
  3 28  1  0  0  0  0
  4 11  1  0  0  0  0
  4 29  1  0  0  0  0
  5 12  1  0  0  0  0
  5 30  1  0  0  0  0
  6  7  2  0  0  0  0
  6  8  1  0  0  0  0
  6 31  1  0  0  0  0
  7 19  1  0  0  0  0
  7 32  1  0  0  0  0
  8 21  2  0  0  0  0
  8 33  1  0  0  0  0
  9 11  1  0  0  0  0
  9 34  1  0  0  0  0
  9 35  1  0  0  0  0
 10 36  1  0  0  0  0
 10 37  1  0  0  0  0
 11 38  1  0  0  0  0
 11 39  1  0  0  0  0
 12 13  1  0  0  0  0
 12 40  1  0  0  0  0
 12 41  1  0  0  0  0
 13 14  1  0  0  0  0
 13 42  1  0  0  0  0
 13 43  1  0  0  0  0
 14 15  1  0  0  0  0
 14 44  1  0  0  0  0
 14 45  1  0  0  0  0
 15 16  1  0  0  0  0
 15 46  1  0  0  0  0
 15 47  1  0  0  0  0
 16 17  1  0  0  0  0
 16 48  1  0  0  0  0
 16 49  1  0  0  0  0
 17 18  1  0  0  0  0
 17 50  1  0  0  0  0
 17 51  1  0  0  0  0
 18 21  1  0  0  0  0
 18 52  1  0  0  0  0
 18 53  1  0  0  0  0
 19 20  2  0  0  0  0
 19 22  1  0  0  0  0
 20 21  1  0  0  0  0
 20 23  1  0  0  0  0
 22 54  1  0  0  0  0
 23 55  1  0  0  0  0
M  END
$$$$
/media/chris/experiments/cd1a-new-docking/inputs/ligands/5j1a_ligand.pdb
 OpenBabel07022311203D

 55 55  0  0  0  0  0  0  0  0999 V2000
  -36.7919   59.2796   64.4426 C   0  0  0  0  0  0  0  0  0  0  0  0
  -37.4686   60.7356   61.1845 C   0  0  0  0  0  0  0  0  0  0  0  0
  -37.1475   58.3761   60.5191 C   0  0  0  0  0  0  0  0  0  0  0  0
  -36.1268   60.6818   61.9536 C   0  0  0  0  0  0  0  0  0  0  0  0
  -37.1362   57.0564   61.3152 C   0  0  0  0  0  0  0  0  0  0  0  0
  -44.0334   52.0197   62.5504 C   0  0  0  0  0  0  0  0  0  0  0  0
  -44.6000   51.9081   63.8271 C   0  0  0  0  0  0  0  0  0  0  0  0
  -44.0860   53.2347   61.8568 C   0  0  0  0  0  0  0  0  0  0  0  0
  -36.4197   58.5346   63.1584 C   0  0  0  0  0  0  0  0  0  0  0  0
  -38.2095   59.4616   60.7529 C   0  0  0  0  0  0  0  0  0  0  0  0
  -35.4408   59.3454   62.2982 C   0  0  0  0  0  0  0  0  0  0  0  0
  -38.1263   56.8452   62.4620 C   0  0  0  0  0  0  0  0  0  0  0  0
  -39.5380   56.9300   61.8820 C   0  0  0  0  0  0  0  0  0  0  0  0
  -40.5750   56.7430   62.9900 C   0  0  0  0  0  0  0  0  0  0  0  0
  -41.9730   56.8130   62.3910 C   0  0  0  0  0  0  0  0  0  0  0  0
  -42.1661   55.6996   61.3507 C   0  0  0  0  0  0  0  0  0  0  0  0
  -43.5658   55.7191   60.6834 C   0  0  0  0  0  0  0  0  0  0  0  0
  -44.7248   55.5619   61.6959 C   0  0  0  0  0  0  0  0  0  0  0  0
  -45.2107   53.0285   64.3901 C   0  0  0  0  0  0  0  0  0  0  0  0
  -45.2526   54.2373   63.6973 C   0  0  0  0  0  0  0  0  0  0  0  0
  -44.6677   54.3704   62.4315 C   0  0  0  0  0  0  0  0  0  0  0  0
  -45.7839   53.0025   65.6183 O   0  0  0  0  0  0  0  0  0  0  0  0
  -45.8537   55.3087   64.2910 O   0  0  0  0  0  0  0  0  0  0  0  0
  -37.4736   58.6856   65.0148 H   0  0  0  0  0  0  0  0  0  0  0  0
  -37.2540   60.2119   64.1930 H   0  0  0  0  0  0  0  0  0  0  0  0
  -35.9083   59.4622   65.0179 H   0  0  0  0  0  0  0  0  0  0  0  0
  -37.8776   61.6548   60.9548 H   0  0  0  0  0  0  0  0  0  0  0  0
  -36.4186   58.5357   59.8063 H   0  0  0  0  0  0  0  0  0  0  0  0
  -35.6790   61.5652   62.2438 H   0  0  0  0  0  0  0  0  0  0  0  0
  -36.4602   56.3147   61.0744 H   0  0  0  0  0  0  0  0  0  0  0  0
  -43.5749   51.2020   62.1191 H   0  0  0  0  0  0  0  0  0  0  0  0
  -44.5661   51.0138   64.3410 H   0  0  0  0  0  0  0  0  0  0  0  0
  -43.6893   53.2938   60.9060 H   0  0  0  0  0  0  0  0  0  0  0  0
  -37.3095   58.3516   62.5929 H   0  0  0  0  0  0  0  0  0  0  0  0
  -35.9441   57.6156   63.4306 H   0  0  0  0  0  0  0  0  0  0  0  0
  -38.7541   59.6423   59.8498 H   0  0  0  0  0  0  0  0  0  0  0  0
  -38.9073   59.1550   61.5039 H   0  0  0  0  0  0  0  0  0  0  0  0
  -34.5387   59.5275   62.8441 H   0  0  0  0  0  0  0  0  0  0  0  0
  -35.1884   58.8097   61.4070 H   0  0  0  0  0  0  0  0  0  0  0  0
  -37.9914   57.6045   63.2038 H   0  0  0  0  0  0  0  0  0  0  0  0
  -37.9678   55.8923   62.9220 H   0  0  0  0  0  0  0  0  0  0  0  0
  -39.6646   56.1636   61.1461 H   0  0  0  0  0  0  0  0  0  0  0  0
  -39.6747   57.8920   61.4340 H   0  0  0  0  0  0  0  0  0  0  0  0
  -40.4604   57.5164   63.7205 H   0  0  0  0  0  0  0  0  0  0  0  0
  -40.4329   55.7901   63.4556 H   0  0  0  0  0  0  0  0  0  0  0  0
  -42.1071   57.7638   61.9188 H   0  0  0  0  0  0  0  0  0  0  0  0
  -42.6924   56.6861   63.1729 H   0  0  0  0  0  0  0  0  0  0  0  0
  -42.0344   54.7551   61.8359 H   0  0  0  0  0  0  0  0  0  0  0  0
  -41.4442   55.8600   60.5774 H   0  0  0  0  0  0  0  0  0  0  0  0
  -43.6181   54.9154   59.9789 H   0  0  0  0  0  0  0  0  0  0  0  0
  -43.6810   56.6732   60.2131 H   0  0  0  0  0  0  0  0  0  0  0  0
  -45.6496   55.5837   61.1580 H   0  0  0  0  0  0  0  0  0  0  0  0
  -44.6428   56.3675   62.3953 H   0  0  0  0  0  0  0  0  0  0  0  0
  -45.7797   52.2116   66.1207 H   0  0  0  0  0  0  0  0  0  0  0  0
  -46.2443   55.2170   65.1378 H   0  0  0  0  0  0  0  0  0  0  0  0
  1  9  1  0  0  0  0
  1 24  1  0  0  0  0
  1 25  1  0  0  0  0
  1 26  1  0  0  0  0
  2  4  2  0  0  0  0
  2 10  1  0  0  0  0
  2 27  1  0  0  0  0
  3  5  2  0  0  0  0
  3 10  1  0  0  0  0
  3 28  1  0  0  0  0
  4 11  1  0  0  0  0
  4 29  1  0  0  0  0
  5 12  1  0  0  0  0
  5 30  1  0  0  0  0
  6  7  2  0  0  0  0
  6  8  1  0  0  0  0
  6 31  1  0  0  0  0
  7 19  1  0  0  0  0
  7 32  1  0  0  0  0
  8 21  2  0  0  0  0
  8 33  1  0  0  0  0
  9 11  1  0  0  0  0
  9 34  1  0  0  0  0
  9 35  1  0  0  0  0
 10 36  1  0  0  0  0
 10 37  1  0  0  0  0
 11 38  1  0  0  0  0
 11 39  1  0  0  0  0
 12 13  1  0  0  0  0
 12 40  1  0  0  0  0
 12 41  1  0  0  0  0
 13 14  1  0  0  0  0
 13 42  1  0  0  0  0
 13 43  1  0  0  0  0
 14 15  1  0  0  0  0
 14 44  1  0  0  0  0
 14 45  1  0  0  0  0
 15 16  1  0  0  0  0
 15 46  1  0  0  0  0
 15 47  1  0  0  0  0
 16 17  1  0  0  0  0
 16 48  1  0  0  0  0
 16 49  1  0  0  0  0
 17 18  1  0  0  0  0
 17 50  1  0  0  0  0
 17 51  1  0  0  0  0
 18 21  1  0  0  0  0
 18 52  1  0  0  0  0
 18 53  1  0  0  0  0
 19 20  2  0  0  0  0
 19 22  1  0  0  0  0
 20 21  1  0  0  0  0
 20 23  1  0  0  0  0
 22 54  1  0  0  0  0
 23 55  1  0  0  0  0
M  END
$$$$
/media/chris/experiments/cd1a-new-docking/inputs/ligands/5j1a_ligand.pdb
 OpenBabel07022311203D

 55 55  0  0  0  0  0  0  0  0999 V2000
  -36.1000   56.7262   63.9290 C   0  0  0  0  0  0  0  0  0  0  0  0
  -37.1990   58.8716   60.6111 C   0  0  0  0  0  0  0  0  0  0  0  0
  -38.3902   60.4119   62.1348 C   0  0  0  0  0  0  0  0  0  0  0  0
  -36.1247   57.9786   61.2767 C   0  0  0  0  0  0  0  0  0  0  0  0
  -39.5120   59.3667   62.2916 C   0  0  0  0  0  0  0  0  0  0  0  0
  -46.5977   60.4871   63.3568 C   0  0  0  0  0  0  0  0  0  0  0  0
  -47.0250   59.6785   62.2952 C   0  0  0  0  0  0  0  0  0  0  0  0
  -45.3288   60.3041   63.9192 C   0  0  0  0  0  0  0  0  0  0  0  0
  -34.8453   57.3386   63.3019 C   0  0  0  0  0  0  0  0  0  0  0  0
  -37.3721   60.3508   60.9857 C   0  0  0  0  0  0  0  0  0  0  0  0
  -35.1913   58.5154   62.3794 C   0  0  0  0  0  0  0  0  0  0  0  0
  -39.7162   58.2956   61.2187 C   0  0  0  0  0  0  0  0  0  0  0  0
  -39.5380   56.9300   61.8820 C   0  0  0  0  0  0  0  0  0  0  0  0
  -40.5750   56.7430   62.9900 C   0  0  0  0  0  0  0  0  0  0  0  0
  -41.9730   56.8130   62.3910 C   0  0  0  0  0  0  0  0  0  0  0  0
  -43.0346   56.6452   63.4882 C   0  0  0  0  0  0  0  0  0  0  0  0
  -42.9688   57.7452   64.5794 C   0  0  0  0  0  0  0  0  0  0  0  0
  -43.1948   59.1702   64.0212 C   0  0  0  0  0  0  0  0  0  0  0  0
  -46.1620   58.6955   61.8114 C   0  0  0  0  0  0  0  0  0  0  0  0
  -44.8969   58.5238   62.3708 C   0  0  0  0  0  0  0  0  0  0  0  0
  -44.4467   59.3418   63.4149 C   0  0  0  0  0  0  0  0  0  0  0  0
  -46.5006   57.8712   60.7898 O   0  0  0  0  0  0  0  0  0  0  0  0
  -44.0839   57.5545   61.8597 O   0  0  0  0  0  0  0  0  0  0  0  0
  -35.8203   55.9114   64.5636 H   0  0  0  0  0  0  0  0  0  0  0  0
  -36.7477   56.3698   63.1555 H   0  0  0  0  0  0  0  0  0  0  0  0
  -36.6093   57.4693   64.5063 H   0  0  0  0  0  0  0  0  0  0  0  0
  -37.8175   58.4609   59.8943 H   0  0  0  0  0  0  0  0  0  0  0  0
  -38.3207   61.1772   62.8236 H   0  0  0  0  0  0  0  0  0  0  0  0
  -36.0306   56.9965   60.9738 H   0  0  0  0  0  0  0  0  0  0  0  0
  -40.1257   59.3894   63.1210 H   0  0  0  0  0  0  0  0  0  0  0  0
  -47.2217   61.2215   63.7260 H   0  0  0  0  0  0  0  0  0  0  0  0
  -47.9605   59.8080   61.8792 H   0  0  0  0  0  0  0  0  0  0  0  0
  -45.0391   60.8886   64.7189 H   0  0  0  0  0  0  0  0  0  0  0  0
  -34.3401   56.5873   62.7316 H   0  0  0  0  0  0  0  0  0  0  0  0
  -34.2212   57.7039   64.0906 H   0  0  0  0  0  0  0  0  0  0  0  0
  -37.7358   60.9021   60.1438 H   0  0  0  0  0  0  0  0  0  0  0  0
  -36.4377   60.7794   61.2826 H   0  0  0  0  0  0  0  0  0  0  0  0
  -35.6869   59.2830   62.9362 H   0  0  0  0  0  0  0  0  0  0  0  0
  -34.3039   58.9339   61.9523 H   0  0  0  0  0  0  0  0  0  0  0  0
  -38.9937   58.4187   60.4392 H   0  0  0  0  0  0  0  0  0  0  0  0
  -40.6929   58.3780   60.7895 H   0  0  0  0  0  0  0  0  0  0  0  0
  -38.5560   56.8665   62.3023 H   0  0  0  0  0  0  0  0  0  0  0  0
  -39.6703   56.1642   61.1465 H   0  0  0  0  0  0  0  0  0  0  0  0
  -40.4604   57.5164   63.7205 H   0  0  0  0  0  0  0  0  0  0  0  0
  -40.4329   55.7901   63.4556 H   0  0  0  0  0  0  0  0  0  0  0  0
  -42.0864   56.0321   61.6683 H   0  0  0  0  0  0  0  0  0  0  0  0
  -42.1035   57.7672   61.9248 H   0  0  0  0  0  0  0  0  0  0  0  0
  -42.8917   55.6937   63.9563 H   0  0  0  0  0  0  0  0  0  0  0  0
  -43.9921   56.7233   63.0171 H   0  0  0  0  0  0  0  0  0  0  0  0
  -42.0041   57.7095   65.0408 H   0  0  0  0  0  0  0  0  0  0  0  0
  -43.7553   57.5483   65.2777 H   0  0  0  0  0  0  0  0  0  0  0  0
  -42.4361   59.3734   63.2946 H   0  0  0  0  0  0  0  0  0  0  0  0
  -43.1526   59.8436   64.8516 H   0  0  0  0  0  0  0  0  0  0  0  0
  -47.3410   57.9500   60.3830 H   0  0  0  0  0  0  0  0  0  0  0  0
  -44.3875   57.0086   61.1613 H   0  0  0  0  0  0  0  0  0  0  0  0
  1  9  1  0  0  0  0
  1 24  1  0  0  0  0
  1 25  1  0  0  0  0
  1 26  1  0  0  0  0
  2  4  2  0  0  0  0
  2 10  1  0  0  0  0
  2 27  1  0  0  0  0
  3  5  2  0  0  0  0
  3 10  1  0  0  0  0
  3 28  1  0  0  0  0
  4 11  1  0  0  0  0
  4 29  1  0  0  0  0
  5 12  1  0  0  0  0
  5 30  1  0  0  0  0
  6  7  2  0  0  0  0
  6  8  1  0  0  0  0
  6 31  1  0  0  0  0
  7 19  1  0  0  0  0
  7 32  1  0  0  0  0
  8 21  2  0  0  0  0
  8 33  1  0  0  0  0
  9 11  1  0  0  0  0
  9 34  1  0  0  0  0
  9 35  1  0  0  0  0
 10 36  1  0  0  0  0
 10 37  1  0  0  0  0
 11 38  1  0  0  0  0
 11 39  1  0  0  0  0
 12 13  1  0  0  0  0
 12 40  1  0  0  0  0
 12 41  1  0  0  0  0
 13 14  1  0  0  0  0
 13 42  1  0  0  0  0
 13 43  1  0  0  0  0
 14 15  1  0  0  0  0
 14 44  1  0  0  0  0
 14 45  1  0  0  0  0
 15 16  1  0  0  0  0
 15 46  1  0  0  0  0
 15 47  1  0  0  0  0
 16 17  1  0  0  0  0
 16 48  1  0  0  0  0
 16 49  1  0  0  0  0
 17 18  1  0  0  0  0
 17 50  1  0  0  0  0
 17 51  1  0  0  0  0
 18 21  1  0  0  0  0
 18 52  1  0  0  0  0
 18 53  1  0  0  0  0
 19 20  2  0  0  0  0
 19 22  1  0  0  0  0
 20 21  1  0  0  0  0
 20 23  1  0  0  0  0
 22 54  1  0  0  0  0
 23 55  1  0  0  0  0
M  END
$$$$
/media/chris/experiments/cd1a-new-docking/inputs/ligands/5j1a_ligand.pdb
 OpenBabel07022311203D

 55 55  0  0  0  0  0  0  0  0999 V2000
  -40.1362   57.9433   68.3119 C   0  0  0  0  0  0  0  0  0  0  0  0
  -36.8021   55.8978   66.3593 C   0  0  0  0  0  0  0  0  0  0  0  0
  -37.0549   57.7379   64.7273 C   0  0  0  0  0  0  0  0  0  0  0  0
  -38.2058   56.2280   66.9209 C   0  0  0  0  0  0  0  0  0  0  0  0
  -37.9880   57.9434   63.5180 C   0  0  0  0  0  0  0  0  0  0  0  0
  -45.7443   59.9132   61.4321 C   0  0  0  0  0  0  0  0  0  0  0  0
  -46.9402   59.7926   62.1524 C   0  0  0  0  0  0  0  0  0  0  0  0
  -44.5130   59.7074   62.0658 C   0  0  0  0  0  0  0  0  0  0  0  0
  -39.5569   58.3069   66.9426 C   0  0  0  0  0  0  0  0  0  0  0  0
  -36.3361   56.4050   64.9868 C   0  0  0  0  0  0  0  0  0  0  0  0
  -39.2284   57.0552   66.1175 C   0  0  0  0  0  0  0  0  0  0  0  0
  -38.1263   56.8452   62.4620 C   0  0  0  0  0  0  0  0  0  0  0  0
  -39.5380   56.9300   61.8820 C   0  0  0  0  0  0  0  0  0  0  0  0
  -40.5750   56.7430   62.9900 C   0  0  0  0  0  0  0  0  0  0  0  0
  -41.9730   56.8130   62.3910 C   0  0  0  0  0  0  0  0  0  0  0  0
  -43.0346   56.6452   63.4882 C   0  0  0  0  0  0  0  0  0  0  0  0
  -42.9688   57.7452   64.5794 C   0  0  0  0  0  0  0  0  0  0  0  0
  -43.1948   59.1702   64.0212 C   0  0  0  0  0  0  0  0  0  0  0  0
  -46.8775   59.4613   63.5057 C   0  0  0  0  0  0  0  0  0  0  0  0
  -45.6485   59.2501   64.1285 C   0  0  0  0  0  0  0  0  0  0  0  0
  -44.4467   59.3418   63.4149 C   0  0  0  0  0  0  0  0  0  0  0  0
  -47.9874   59.3282   64.2726 O   0  0  0  0  0  0  0  0  0  0  0  0
  -45.6365   58.9203   65.4525 O   0  0  0  0  0  0  0  0  0  0  0  0
  -40.3522   58.8384   68.8569 H   0  0  0  0  0  0  0  0  0  0  0  0
  -39.4251   57.3573   68.8559 H   0  0  0  0  0  0  0  0  0  0  0  0
  -41.0363   57.3799   68.1802 H   0  0  0  0  0  0  0  0  0  0  0  0
  -36.1601   55.3198   66.9239 H   0  0  0  0  0  0  0  0  0  0  0  0
  -36.9083   58.5205   65.3838 H   0  0  0  0  0  0  0  0  0  0  0  0
  -38.4642   55.8848   67.8593 H   0  0  0  0  0  0  0  0  0  0  0  0
  -38.5198   58.8224   63.4205 H   0  0  0  0  0  0  0  0  0  0  0  0
  -45.7714   60.1549   60.4292 H   0  0  0  0  0  0  0  0  0  0  0  0
  -47.8500   59.9460   61.6902 H   0  0  0  0  0  0  0  0  0  0  0  0
  -43.6398   59.8274   61.5290 H   0  0  0  0  0  0  0  0  0  0  0  0
  -38.6609   58.8744   67.0843 H   0  0  0  0  0  0  0  0  0  0  0  0
  -40.2896   58.8761   66.4098 H   0  0  0  0  0  0  0  0  0  0  0  0
  -36.5927   55.6961   64.2275 H   0  0  0  0  0  0  0  0  0  0  0  0
  -35.2743   56.5364   64.9707 H   0  0  0  0  0  0  0  0  0  0  0  0
  -40.1165   56.4808   65.9552 H   0  0  0  0  0  0  0  0  0  0  0  0
  -38.8281   57.3265   65.1630 H   0  0  0  0  0  0  0  0  0  0  0  0
  -37.9746   55.8864   62.9120 H   0  0  0  0  0  0  0  0  0  0  0  0
  -37.3967   56.9749   61.6902 H   0  0  0  0  0  0  0  0  0  0  0  0
  -39.6646   56.1636   61.1461 H   0  0  0  0  0  0  0  0  0  0  0  0
  -39.6747   57.8920   61.4340 H   0  0  0  0  0  0  0  0  0  0  0  0
  -40.4604   57.5164   63.7205 H   0  0  0  0  0  0  0  0  0  0  0  0
  -40.4329   55.7901   63.4556 H   0  0  0  0  0  0  0  0  0  0  0  0
  -42.0864   56.0321   61.6683 H   0  0  0  0  0  0  0  0  0  0  0  0
  -42.1035   57.7672   61.9248 H   0  0  0  0  0  0  0  0  0  0  0  0
  -42.8917   55.6937   63.9563 H   0  0  0  0  0  0  0  0  0  0  0  0
  -43.9921   56.7233   63.0171 H   0  0  0  0  0  0  0  0  0  0  0  0
  -42.0041   57.7095   65.0408 H   0  0  0  0  0  0  0  0  0  0  0  0
  -43.7553   57.5483   65.2777 H   0  0  0  0  0  0  0  0  0  0  0  0
  -42.4361   59.3734   63.2946 H   0  0  0  0  0  0  0  0  0  0  0  0
  -43.1526   59.8436   64.8516 H   0  0  0  0  0  0  0  0  0  0  0  0
  -48.8354   59.4608   63.8966 H   0  0  0  0  0  0  0  0  0  0  0  0
  -46.4418   58.8597   65.9275 H   0  0  0  0  0  0  0  0  0  0  0  0
  1  9  1  0  0  0  0
  1 24  1  0  0  0  0
  1 25  1  0  0  0  0
  1 26  1  0  0  0  0
  2  4  2  0  0  0  0
  2 10  1  0  0  0  0
  2 27  1  0  0  0  0
  3  5  2  0  0  0  0
  3 10  1  0  0  0  0
  3 28  1  0  0  0  0
  4 11  1  0  0  0  0
  4 29  1  0  0  0  0
  5 12  1  0  0  0  0
  5 30  1  0  0  0  0
  6  7  2  0  0  0  0
  6  8  1  0  0  0  0
  6 31  1  0  0  0  0
  7 19  1  0  0  0  0
  7 32  1  0  0  0  0
  8 21  2  0  0  0  0
  8 33  1  0  0  0  0
  9 11  1  0  0  0  0
  9 34  1  0  0  0  0
  9 35  1  0  0  0  0
 10 36  1  0  0  0  0
 10 37  1  0  0  0  0
 11 38  1  0  0  0  0
 11 39  1  0  0  0  0
 12 13  1  0  0  0  0
 12 40  1  0  0  0  0
 12 41  1  0  0  0  0
 13 14  1  0  0  0  0
 13 42  1  0  0  0  0
 13 43  1  0  0  0  0
 14 15  1  0  0  0  0
 14 44  1  0  0  0  0
 14 45  1  0  0  0  0
 15 16  1  0  0  0  0
 15 46  1  0  0  0  0
 15 47  1  0  0  0  0
 16 17  1  0  0  0  0
 16 48  1  0  0  0  0
 16 49  1  0  0  0  0
 17 18  1  0  0  0  0
 17 50  1  0  0  0  0
 17 51  1  0  0  0  0
 18 21  1  0  0  0  0
 18 52  1  0  0  0  0
 18 53  1  0  0  0  0
 19 20  2  0  0  0  0
 19 22  1  0  0  0  0
 20 21  1  0  0  0  0
 20 23  1  0  0  0  0
 22 54  1  0  0  0  0
 23 55  1  0  0  0  0
M  END
$$$$
