/media/chris/experiments/cd1a-new-docking/inputs/ligands/5j1a_ligand.pdb
 OpenBabel07022311203D

 55 55  0  0  0  0  0  0  0  0999 V2000
  -42.9407   61.9093   66.7811 C   0  0  0  0  0  0  0  0  0  0  0  0
  -43.0996   60.0915   62.8083 C   0  0  0  0  0  0  0  0  0  0  0  0
  -40.6482   60.3540   62.6225 C   0  0  0  0  0  0  0  0  0  0  0  0
  -43.3845   61.0007   64.0277 C   0  0  0  0  0  0  0  0  0  0  0  0
  -39.5120   59.3667   62.2916 C   0  0  0  0  0  0  0  0  0  0  0  0
  -44.1184   57.4121   64.8526 C   0  0  0  0  0  0  0  0  0  0  0  0
  -44.8966   58.5636   64.6739 C   0  0  0  0  0  0  0  0  0  0  0  0
  -44.0749   56.4265   63.8593 C   0  0  0  0  0  0  0  0  0  0  0  0
  -41.9005   62.1090   65.6762 C   0  0  0  0  0  0  0  0  0  0  0  0
  -41.9597   60.3872   61.8228 C   0  0  0  0  0  0  0  0  0  0  0  0
  -42.5616   62.2749   64.3010 C   0  0  0  0  0  0  0  0  0  0  0  0
  -39.7162   58.2956   61.2187 C   0  0  0  0  0  0  0  0  0  0  0  0
  -39.5380   56.9300   61.8820 C   0  0  0  0  0  0  0  0  0  0  0  0
  -40.5750   56.7430   62.9900 C   0  0  0  0  0  0  0  0  0  0  0  0
  -41.9730   56.8130   62.3910 C   0  0  0  0  0  0  0  0  0  0  0  0
  -42.1661   55.6996   61.3507 C   0  0  0  0  0  0  0  0  0  0  0  0
  -43.5658   55.7191   60.6834 C   0  0  0  0  0  0  0  0  0  0  0  0
  -44.7248   55.5619   61.6959 C   0  0  0  0  0  0  0  0  0  0  0  0
  -45.6196   58.7074   63.4900 C   0  0  0  0  0  0  0  0  0  0  0  0
  -45.5655   57.7259   62.5017 C   0  0  0  0  0  0  0  0  0  0  0  0
  -44.7717   56.5821   62.6557 C   0  0  0  0  0  0  0  0  0  0  0  0
  -46.3976   59.7894   63.2413 O   0  0  0  0  0  0  0  0  0  0  0  0
  -46.2835   57.9132   61.3566 O   0  0  0  0  0  0  0  0  0  0  0  0
  -42.4442   61.7976   67.7224 H   0  0  0  0  0  0  0  0  0  0  0  0
  -43.5160   61.0311   66.5749 H   0  0  0  0  0  0  0  0  0  0  0  0
  -43.5890   62.7597   66.8185 H   0  0  0  0  0  0  0  0  0  0  0  0
  -43.6933   59.2618   62.6529 H   0  0  0  0  0  0  0  0  0  0  0  0
  -40.5242   61.0139   63.4062 H   0  0  0  0  0  0  0  0  0  0  0  0
  -44.1465   60.7468   64.6758 H   0  0  0  0  0  0  0  0  0  0  0  0
  -38.6127   59.4282   62.7942 H   0  0  0  0  0  0  0  0  0  0  0  0
  -43.5746   57.2898   65.7211 H   0  0  0  0  0  0  0  0  0  0  0  0
  -44.9339   59.2915   65.4045 H   0  0  0  0  0  0  0  0  0  0  0  0
  -43.5197   55.5711   64.0172 H   0  0  0  0  0  0  0  0  0  0  0  0
  -41.2538   61.2569   65.6500 H   0  0  0  0  0  0  0  0  0  0  0  0
  -41.3496   63.0004   65.8924 H   0  0  0  0  0  0  0  0  0  0  0  0
  -42.0966   61.3530   61.3830 H   0  0  0  0  0  0  0  0  0  0  0  0
  -41.9422   59.6645   61.0340 H   0  0  0  0  0  0  0  0  0  0  0  0
  -43.2035   63.1309   64.3048 H   0  0  0  0  0  0  0  0  0  0  0  0
  -41.8217   62.4167   63.5411 H   0  0  0  0  0  0  0  0  0  0  0  0
  -38.9937   58.4187   60.4392 H   0  0  0  0  0  0  0  0  0  0  0  0
  -40.6929   58.3780   60.7895 H   0  0  0  0  0  0  0  0  0  0  0  0
  -38.5560   56.8665   62.3023 H   0  0  0  0  0  0  0  0  0  0  0  0
  -39.6703   56.1642   61.1465 H   0  0  0  0  0  0  0  0  0  0  0  0
  -40.4604   57.5164   63.7205 H   0  0  0  0  0  0  0  0  0  0  0  0
  -40.4329   55.7901   63.4556 H   0  0  0  0  0  0  0  0  0  0  0  0
  -42.1071   57.7638   61.9188 H   0  0  0  0  0  0  0  0  0  0  0  0
  -42.6924   56.6861   63.1729 H   0  0  0  0  0  0  0  0  0  0  0  0
  -42.0344   54.7551   61.8359 H   0  0  0  0  0  0  0  0  0  0  0  0
  -41.4442   55.8600   60.5774 H   0  0  0  0  0  0  0  0  0  0  0  0
  -43.6181   54.9154   59.9789 H   0  0  0  0  0  0  0  0  0  0  0  0
  -43.6810   56.6732   60.2131 H   0  0  0  0  0  0  0  0  0  0  0  0
  -44.6080   54.6263   62.2018 H   0  0  0  0  0  0  0  0  0  0  0  0
  -45.6374   55.6116   61.1394 H   0  0  0  0  0  0  0  0  0  0  0  0
  -46.4644   60.4744   63.8771 H   0  0  0  0  0  0  0  0  0  0  0  0
  -46.8138   58.6792   61.2561 H   0  0  0  0  0  0  0  0  0  0  0  0
  1  9  1  0  0  0  0
  1 24  1  0  0  0  0
  1 25  1  0  0  0  0
  1 26  1  0  0  0  0
  2  4  2  0  0  0  0
  2 10  1  0  0  0  0
  2 27  1  0  0  0  0
  3  5  2  0  0  0  0
  3 10  1  0  0  0  0
  3 28  1  0  0  0  0
  4 11  1  0  0  0  0
  4 29  1  0  0  0  0
  5 12  1  0  0  0  0
  5 30  1  0  0  0  0
  6  7  2  0  0  0  0
  6  8  1  0  0  0  0
  6 31  1  0  0  0  0
  7 19  1  0  0  0  0
  7 32  1  0  0  0  0
  8 21  2  0  0  0  0
  8 33  1  0  0  0  0
  9 11  1  0  0  0  0
  9 34  1  0  0  0  0
  9 35  1  0  0  0  0
 10 36  1  0  0  0  0
 10 37  1  0  0  0  0
 11 38  1  0  0  0  0
 11 39  1  0  0  0  0
 12 13  1  0  0  0  0
 12 40  1  0  0  0  0
 12 41  1  0  0  0  0
 13 14  1  0  0  0  0
 13 42  1  0  0  0  0
 13 43  1  0  0  0  0
 14 15  1  0  0  0  0
 14 44  1  0  0  0  0
 14 45  1  0  0  0  0
 15 16  1  0  0  0  0
 15 46  1  0  0  0  0
 15 47  1  0  0  0  0
 16 17  1  0  0  0  0
 16 48  1  0  0  0  0
 16 49  1  0  0  0  0
 17 18  1  0  0  0  0
 17 50  1  0  0  0  0
 17 51  1  0  0  0  0
 18 21  1  0  0  0  0
 18 52  1  0  0  0  0
 18 53  1  0  0  0  0
 19 20  2  0  0  0  0
 19 22  1  0  0  0  0
 20 21  1  0  0  0  0
 20 23  1  0  0  0  0
 22 54  1  0  0  0  0
 23 55  1  0  0  0  0
M  END
$$$$