/media/chris/experiments/cd1a-new-docking/inputs/ligands/5j1a_ligand.pdb
 OpenBabel07022311203D

 55 55  0  0  0  0  0  0  0  0999 V2000
  -39.4690   53.5251   56.8741 C   0  0  0  0  0  0  0  0  0  0  0  0
  -37.3669   53.6699   59.9047 C   0  0  0  0  0  0  0  0  0  0  0  0
  -38.0926   54.1974   62.2087 C   0  0  0  0  0  0  0  0  0  0  0  0
  -37.0633   54.1430   58.4629 C   0  0  0  0  0  0  0  0  0  0  0  0
  -37.9593   55.4582   63.0851 C   0  0  0  0  0  0  0  0  0  0  0  0
  -42.7399   59.7216   68.4185 C   0  0  0  0  0  0  0  0  0  0  0  0
  -43.8616   60.5000   68.7336 C   0  0  0  0  0  0  0  0  0  0  0  0
  -42.8123   58.7515   67.4117 C   0  0  0  0  0  0  0  0  0  0  0  0
  -38.5229   54.6785   56.5314 C   0  0  0  0  0  0  0  0  0  0  0  0
  -38.5128   54.2699   60.7326 C   0  0  0  0  0  0  0  0  0  0  0  0
  -37.8725   55.2690   57.7900 C   0  0  0  0  0  0  0  0  0  0  0  0
  -38.1263   56.8452   62.4620 C   0  0  0  0  0  0  0  0  0  0  0  0
  -39.5380   56.9300   61.8820 C   0  0  0  0  0  0  0  0  0  0  0  0
  -40.5750   56.7430   62.9900 C   0  0  0  0  0  0  0  0  0  0  0  0
  -41.9730   56.8130   62.3910 C   0  0  0  0  0  0  0  0  0  0  0  0
  -43.0346   56.6452   63.4882 C   0  0  0  0  0  0  0  0  0  0  0  0
  -42.9688   57.7452   64.5794 C   0  0  0  0  0  0  0  0  0  0  0  0
  -44.0284   57.5628   65.6918 C   0  0  0  0  0  0  0  0  0  0  0  0
  -45.0439   60.2910   68.0239 C   0  0  0  0  0  0  0  0  0  0  0  0
  -45.1068   59.3289   67.0173 C   0  0  0  0  0  0  0  0  0  0  0  0
  -43.9862   58.5616   66.6740 C   0  0  0  0  0  0  0  0  0  0  0  0
  -46.1730   60.9999   68.2694 O   0  0  0  0  0  0  0  0  0  0  0  0
  -46.2824   59.1649   66.3444 O   0  0  0  0  0  0  0  0  0  0  0  0
  -39.9023   53.1400   55.9748 H   0  0  0  0  0  0  0  0  0  0  0  0
  -40.2446   53.8800   57.5202 H   0  0  0  0  0  0  0  0  0  0  0  0
  -38.9214   52.7491   57.3670 H   0  0  0  0  0  0  0  0  0  0  0  0
  -36.7820   52.9293   60.3223 H   0  0  0  0  0  0  0  0  0  0  0  0
  -37.8932   53.2752   62.6266 H   0  0  0  0  0  0  0  0  0  0  0  0
  -36.2980   53.6922   57.9375 H   0  0  0  0  0  0  0  0  0  0  0  0
  -37.7574   55.3665   64.0930 H   0  0  0  0  0  0  0  0  0  0  0  0
  -41.8558   59.8642   68.9312 H   0  0  0  0  0  0  0  0  0  0  0  0
  -43.8138   61.2144   69.4768 H   0  0  0  0  0  0  0  0  0  0  0  0
  -41.9862   58.1667   67.2102 H   0  0  0  0  0  0  0  0  0  0  0  0
  -39.0777   55.4467   56.0343 H   0  0  0  0  0  0  0  0  0  0  0  0
  -37.7467   54.2985   55.9006 H   0  0  0  0  0  0  0  0  0  0  0  0
  -39.4099   53.7073   60.5787 H   0  0  0  0  0  0  0  0  0  0  0  0
  -38.7031   55.2816   60.4408 H   0  0  0  0  0  0  0  0  0  0  0  0
  -37.2230   56.0759   57.5216 H   0  0  0  0  0  0  0  0  0  0  0  0
  -38.6177   55.6490   58.4572 H   0  0  0  0  0  0  0  0  0  0  0  0
  -37.4044   56.9844   61.6846 H   0  0  0  0  0  0  0  0  0  0  0  0
  -37.9789   57.6065   63.1994 H   0  0  0  0  0  0  0  0  0  0  0  0
  -39.6646   56.1636   61.1461 H   0  0  0  0  0  0  0  0  0  0  0  0
  -39.6747   57.8920   61.4340 H   0  0  0  0  0  0  0  0  0  0  0  0
  -40.4604   57.5164   63.7205 H   0  0  0  0  0  0  0  0  0  0  0  0
  -40.4329   55.7901   63.4556 H   0  0  0  0  0  0  0  0  0  0  0  0
  -42.0864   56.0321   61.6683 H   0  0  0  0  0  0  0  0  0  0  0  0
  -42.1035   57.7672   61.9248 H   0  0  0  0  0  0  0  0  0  0  0  0
  -42.8917   55.6937   63.9563 H   0  0  0  0  0  0  0  0  0  0  0  0
  -43.9921   56.7233   63.0171 H   0  0  0  0  0  0  0  0  0  0  0  0
  -43.1244   58.6960   64.1139 H   0  0  0  0  0  0  0  0  0  0  0  0
  -42.0065   57.6774   65.0421 H   0  0  0  0  0  0  0  0  0  0  0  0
  -43.8643   56.6167   66.1638 H   0  0  0  0  0  0  0  0  0  0  0  0
  -44.9889   57.6222   65.2240 H   0  0  0  0  0  0  0  0  0  0  0  0
  -46.1775   61.6573   68.9371 H   0  0  0  0  0  0  0  0  0  0  0  0
  -47.0305   59.6794   66.5760 H   0  0  0  0  0  0  0  0  0  0  0  0
  1  9  1  0  0  0  0
  1 24  1  0  0  0  0
  1 25  1  0  0  0  0
  1 26  1  0  0  0  0
  2  4  2  0  0  0  0
  2 10  1  0  0  0  0
  2 27  1  0  0  0  0
  3  5  2  0  0  0  0
  3 10  1  0  0  0  0
  3 28  1  0  0  0  0
  4 11  1  0  0  0  0
  4 29  1  0  0  0  0
  5 12  1  0  0  0  0
  5 30  1  0  0  0  0
  6  7  2  0  0  0  0
  6  8  1  0  0  0  0
  6 31  1  0  0  0  0
  7 19  1  0  0  0  0
  7 32  1  0  0  0  0
  8 21  2  0  0  0  0
  8 33  1  0  0  0  0
  9 11  1  0  0  0  0
  9 34  1  0  0  0  0
  9 35  1  0  0  0  0
 10 36  1  0  0  0  0
 10 37  1  0  0  0  0
 11 38  1  0  0  0  0
 11 39  1  0  0  0  0
 12 13  1  0  0  0  0
 12 40  1  0  0  0  0
 12 41  1  0  0  0  0
 13 14  1  0  0  0  0
 13 42  1  0  0  0  0
 13 43  1  0  0  0  0
 14 15  1  0  0  0  0
 14 44  1  0  0  0  0
 14 45  1  0  0  0  0
 15 16  1  0  0  0  0
 15 46  1  0  0  0  0
 15 47  1  0  0  0  0
 16 17  1  0  0  0  0
 16 48  1  0  0  0  0
 16 49  1  0  0  0  0
 17 18  1  0  0  0  0
 17 50  1  0  0  0  0
 17 51  1  0  0  0  0
 18 21  1  0  0  0  0
 18 52  1  0  0  0  0
 18 53  1  0  0  0  0
 19 20  2  0  0  0  0
 19 22  1  0  0  0  0
 20 21  1  0  0  0  0
 20 23  1  0  0  0  0
 22 54  1  0  0  0  0
 23 55  1  0  0  0  0
M  END
$$$$