/media/chris/experiments/cd1a-new-docking/inputs/ligands/5j1a_ligand.pdb
 OpenBabel07022311203D

 55 55  0  0  0  0  0  0  0  0999 V2000
  -40.9099   60.1417   61.7053 C   0  0  0  0  0  0  0  0  0  0  0  0
  -41.3492   56.5664   58.8727 C   0  0  0  0  0  0  0  0  0  0  0  0
  -38.9325   56.9623   58.5325 C   0  0  0  0  0  0  0  0  0  0  0  0
  -42.3334   56.9856   59.9910 C   0  0  0  0  0  0  0  0  0  0  0  0
  -38.6290   56.0694   59.7515 C   0  0  0  0  0  0  0  0  0  0  0  0
  -42.0390   62.1850   65.8460 C   0  0  0  0  0  0  0  0  0  0  0  0
  -42.8592   62.1750   66.9820 C   0  0  0  0  0  0  0  0  0  0  0  0
  -42.1600   61.1818   64.8771 C   0  0  0  0  0  0  0  0  0  0  0  0
  -40.9764   58.7329   61.1106 C   0  0  0  0  0  0  0  0  0  0  0  0
  -40.3297   57.5484   58.2773 C   0  0  0  0  0  0  0  0  0  0  0  0
  -42.3692   58.4235   60.5449 C   0  0  0  0  0  0  0  0  0  0  0  0
  -39.6997   55.8424   60.8202 C   0  0  0  0  0  0  0  0  0  0  0  0
  -39.5380   56.9300   61.8820 C   0  0  0  0  0  0  0  0  0  0  0  0
  -40.5750   56.7430   62.9900 C   0  0  0  0  0  0  0  0  0  0  0  0
  -41.9730   56.8130   62.3910 C   0  0  0  0  0  0  0  0  0  0  0  0
  -43.0346   56.6452   63.4882 C   0  0  0  0  0  0  0  0  0  0  0  0
  -42.9688   57.7452   64.5794 C   0  0  0  0  0  0  0  0  0  0  0  0
  -43.1948   59.1702   64.0212 C   0  0  0  0  0  0  0  0  0  0  0  0
  -43.7961   61.1515   67.1237 C   0  0  0  0  0  0  0  0  0  0  0  0
  -43.9167   60.1601   66.1513 C   0  0  0  0  0  0  0  0  0  0  0  0
  -43.1214   60.1722   64.9983 C   0  0  0  0  0  0  0  0  0  0  0  0
  -44.6246   61.0688   68.1935 O   0  0  0  0  0  0  0  0  0  0  0  0
  -44.8526   59.1832   66.3286 O   0  0  0  0  0  0  0  0  0  0  0  0
  -39.9271   60.3209   62.0886 H   0  0  0  0  0  0  0  0  0  0  0  0
  -41.6232   60.2282   62.4982 H   0  0  0  0  0  0  0  0  0  0  0  0
  -41.1328   60.8607   60.9449 H   0  0  0  0  0  0  0  0  0  0  0  0
  -41.3790   55.5983   58.5166 H   0  0  0  0  0  0  0  0  0  0  0  0
  -38.1731   57.1732   57.8663 H   0  0  0  0  0  0  0  0  0  0  0  0
  -42.9836   56.2831   60.3765 H   0  0  0  0  0  0  0  0  0  0  0  0
  -37.7028   55.6244   59.8469 H   0  0  0  0  0  0  0  0  0  0  0  0
  -41.3419   62.9360   65.7230 H   0  0  0  0  0  0  0  0  0  0  0  0
  -42.7718   62.9109   67.7002 H   0  0  0  0  0  0  0  0  0  0  0  0
  -41.5297   61.1869   64.0600 H   0  0  0  0  0  0  0  0  0  0  0  0
  -40.7468   58.0216   61.8763 H   0  0  0  0  0  0  0  0  0  0  0  0
  -40.2693   58.6740   60.3097 H   0  0  0  0  0  0  0  0  0  0  0  0
  -40.4193   58.5029   58.7525 H   0  0  0  0  0  0  0  0  0  0  0  0
  -40.4995   57.6837   57.2296 H   0  0  0  0  0  0  0  0  0  0  0  0
  -43.1034   58.4987   61.3195 H   0  0  0  0  0  0  0  0  0  0  0  0
  -42.6264   59.1189   59.7734 H   0  0  0  0  0  0  0  0  0  0  0  0
  -39.5715   54.8777   61.2648 H   0  0  0  0  0  0  0  0  0  0  0  0
  -40.6766   55.8865   60.3858 H   0  0  0  0  0  0  0  0  0  0  0  0
  -39.6739   57.8897   61.4288 H   0  0  0  0  0  0  0  0  0  0  0  0
  -38.5577   56.8621   62.3055 H   0  0  0  0  0  0  0  0  0  0  0  0
  -40.4604   57.5164   63.7205 H   0  0  0  0  0  0  0  0  0  0  0  0
  -40.4329   55.7901   63.4556 H   0  0  0  0  0  0  0  0  0  0  0  0
  -42.0864   56.0321   61.6683 H   0  0  0  0  0  0  0  0  0  0  0  0
  -42.1035   57.7672   61.9248 H   0  0  0  0  0  0  0  0  0  0  0  0
  -42.8917   55.6937   63.9563 H   0  0  0  0  0  0  0  0  0  0  0  0
  -43.9921   56.7233   63.0171 H   0  0  0  0  0  0  0  0  0  0  0  0
  -42.0041   57.7095   65.0408 H   0  0  0  0  0  0  0  0  0  0  0  0
  -43.7553   57.5483   65.2777 H   0  0  0  0  0  0  0  0  0  0  0  0
  -44.1644   59.2074   63.5703 H   0  0  0  0  0  0  0  0  0  0  0  0
  -42.4118   59.3599   63.3169 H   0  0  0  0  0  0  0  0  0  0  0  0
  -44.5793   61.7133   68.8721 H   0  0  0  0  0  0  0  0  0  0  0  0
  -45.3833   59.1774   67.1008 H   0  0  0  0  0  0  0  0  0  0  0  0
  1  9  1  0  0  0  0
  1 24  1  0  0  0  0
  1 25  1  0  0  0  0
  1 26  1  0  0  0  0
  2  4  2  0  0  0  0
  2 10  1  0  0  0  0
  2 27  1  0  0  0  0
  3  5  2  0  0  0  0
  3 10  1  0  0  0  0
  3 28  1  0  0  0  0
  4 11  1  0  0  0  0
  4 29  1  0  0  0  0
  5 12  1  0  0  0  0
  5 30  1  0  0  0  0
  6  7  2  0  0  0  0
  6  8  1  0  0  0  0
  6 31  1  0  0  0  0
  7 19  1  0  0  0  0
  7 32  1  0  0  0  0
  8 21  2  0  0  0  0
  8 33  1  0  0  0  0
  9 11  1  0  0  0  0
  9 34  1  0  0  0  0
  9 35  1  0  0  0  0
 10 36  1  0  0  0  0
 10 37  1  0  0  0  0
 11 38  1  0  0  0  0
 11 39  1  0  0  0  0
 12 13  1  0  0  0  0
 12 40  1  0  0  0  0
 12 41  1  0  0  0  0
 13 14  1  0  0  0  0
 13 42  1  0  0  0  0
 13 43  1  0  0  0  0
 14 15  1  0  0  0  0
 14 44  1  0  0  0  0
 14 45  1  0  0  0  0
 15 16  1  0  0  0  0
 15 46  1  0  0  0  0
 15 47  1  0  0  0  0
 16 17  1  0  0  0  0
 16 48  1  0  0  0  0
 16 49  1  0  0  0  0
 17 18  1  0  0  0  0
 17 50  1  0  0  0  0
 17 51  1  0  0  0  0
 18 21  1  0  0  0  0
 18 52  1  0  0  0  0
 18 53  1  0  0  0  0
 19 20  2  0  0  0  0
 19 22  1  0  0  0  0
 20 21  1  0  0  0  0
 20 23  1  0  0  0  0
 22 54  1  0  0  0  0
 23 55  1  0  0  0  0
M  END
$$$$