/media/chris/experiments/cd1a-new-docking/inputs/ligands/5j1a_ligand.pdb
 OpenBabel07022311203D

 55 55  0  0  0  0  0  0  0  0999 V2000
  -33.8341   58.3933   63.0720 C   0  0  0  0  0  0  0  0  0  0  0  0
  -38.3029   60.0485   62.4841 C   0  0  0  0  0  0  0  0  0  0  0  0
  -37.6248   59.5521   60.1588 C   0  0  0  0  0  0  0  0  0  0  0  0
  -37.6681   58.8449   63.2212 C   0  0  0  0  0  0  0  0  0  0  0  0
  -38.6676   58.4181   60.1118 C   0  0  0  0  0  0  0  0  0  0  0  0
  -43.9219   50.7465   64.6783 C   0  0  0  0  0  0  0  0  0  0  0  0
  -42.6704   50.1305   64.8110 C   0  0  0  0  0  0  0  0  0  0  0  0
  -44.0275   52.0162   64.0979 C   0  0  0  0  0  0  0  0  0  0  0  0
  -35.2042   58.9384   63.4825 C   0  0  0  0  0  0  0  0  0  0  0  0
  -37.6679   60.6573   61.2253 C   0  0  0  0  0  0  0  0  0  0  0  0
  -36.3429   58.2124   62.7531 C   0  0  0  0  0  0  0  0  0  0  0  0
  -39.7162   58.2956   61.2187 C   0  0  0  0  0  0  0  0  0  0  0  0
  -39.5380   56.9300   61.8820 C   0  0  0  0  0  0  0  0  0  0  0  0
  -40.5750   56.7430   62.9900 C   0  0  0  0  0  0  0  0  0  0  0  0
  -41.9730   56.8130   62.3910 C   0  0  0  0  0  0  0  0  0  0  0  0
  -42.1661   55.6996   61.3507 C   0  0  0  0  0  0  0  0  0  0  0  0
  -42.0124   54.2741   61.9416 C   0  0  0  0  0  0  0  0  0  0  0  0
  -43.0412   53.9624   63.0542 C   0  0  0  0  0  0  0  0  0  0  0  0
  -41.5390   50.8043   64.3515 C   0  0  0  0  0  0  0  0  0  0  0  0
  -41.6522   52.0649   63.7674 C   0  0  0  0  0  0  0  0  0  0  0  0
  -42.8994   52.6814   63.6047 C   0  0  0  0  0  0  0  0  0  0  0  0
  -40.2930   50.2787   64.4452 O   0  0  0  0  0  0  0  0  0  0  0  0
  -40.5189   52.6829   63.3253 O   0  0  0  0  0  0  0  0  0  0  0  0
  -33.0675   58.9218   63.5992 H   0  0  0  0  0  0  0  0  0  0  0  0
  -33.6986   58.5253   62.0189 H   0  0  0  0  0  0  0  0  0  0  0  0
  -33.7783   57.3518   63.3110 H   0  0  0  0  0  0  0  0  0  0  0  0
  -39.1788   60.4540   62.8493 H   0  0  0  0  0  0  0  0  0  0  0  0
  -36.8736   59.5696   59.4514 H   0  0  0  0  0  0  0  0  0  0  0  0
  -38.1453   58.4551   64.0491 H   0  0  0  0  0  0  0  0  0  0  0  0
  -38.6584   57.7411   59.3329 H   0  0  0  0  0  0  0  0  0  0  0  0
  -44.7704   50.2618   65.0101 H   0  0  0  0  0  0  0  0  0  0  0  0
  -42.5874   49.1959   65.2407 H   0  0  0  0  0  0  0  0  0  0  0  0
  -44.9525   52.4689   64.0326 H   0  0  0  0  0  0  0  0  0  0  0  0
  -35.2486   59.9807   63.2450 H   0  0  0  0  0  0  0  0  0  0  0  0
  -35.3259   58.7803   64.5338 H   0  0  0  0  0  0  0  0  0  0  0  0
  -36.6766   60.9965   61.4421 H   0  0  0  0  0  0  0  0  0  0  0  0
  -38.2361   61.4959   60.8807 H   0  0  0  0  0  0  0  0  0  0  0  0
  -36.2343   58.3320   61.6953 H   0  0  0  0  0  0  0  0  0  0  0  0
  -36.3255   57.1655   62.9735 H   0  0  0  0  0  0  0  0  0  0  0  0
  -40.6980   58.3716   60.8001 H   0  0  0  0  0  0  0  0  0  0  0  0
  -39.5944   59.0789   61.9374 H   0  0  0  0  0  0  0  0  0  0  0  0
  -38.5560   56.8665   62.3023 H   0  0  0  0  0  0  0  0  0  0  0  0
  -39.6703   56.1642   61.1465 H   0  0  0  0  0  0  0  0  0  0  0  0
  -40.4604   57.5164   63.7205 H   0  0  0  0  0  0  0  0  0  0  0  0
  -40.4329   55.7901   63.4556 H   0  0  0  0  0  0  0  0  0  0  0  0
  -42.1071   57.7638   61.9188 H   0  0  0  0  0  0  0  0  0  0  0  0
  -42.6924   56.6861   63.1729 H   0  0  0  0  0  0  0  0  0  0  0  0
  -41.4374   55.8271   60.5777 H   0  0  0  0  0  0  0  0  0  0  0  0
  -43.1664   55.7826   60.9800 H   0  0  0  0  0  0  0  0  0  0  0  0
  -41.0287   54.1800   62.3518 H   0  0  0  0  0  0  0  0  0  0  0  0
  -42.1837   53.5795   61.1459 H   0  0  0  0  0  0  0  0  0  0  0  0
  -44.0241   54.0458   62.6395 H   0  0  0  0  0  0  0  0  0  0  0  0
  -42.8727   54.6645   63.8439 H   0  0  0  0  0  0  0  0  0  0  0  0
  -40.1687   49.4337   64.8306 H   0  0  0  0  0  0  0  0  0  0  0  0
  -39.6858   52.2683   63.4353 H   0  0  0  0  0  0  0  0  0  0  0  0
  1  9  1  0  0  0  0
  1 24  1  0  0  0  0
  1 25  1  0  0  0  0
  1 26  1  0  0  0  0
  2  4  2  0  0  0  0
  2 10  1  0  0  0  0
  2 27  1  0  0  0  0
  3  5  2  0  0  0  0
  3 10  1  0  0  0  0
  3 28  1  0  0  0  0
  4 11  1  0  0  0  0
  4 29  1  0  0  0  0
  5 12  1  0  0  0  0
  5 30  1  0  0  0  0
  6  7  2  0  0  0  0
  6  8  1  0  0  0  0
  6 31  1  0  0  0  0
  7 19  1  0  0  0  0
  7 32  1  0  0  0  0
  8 21  2  0  0  0  0
  8 33  1  0  0  0  0
  9 11  1  0  0  0  0
  9 34  1  0  0  0  0
  9 35  1  0  0  0  0
 10 36  1  0  0  0  0
 10 37  1  0  0  0  0
 11 38  1  0  0  0  0
 11 39  1  0  0  0  0
 12 13  1  0  0  0  0
 12 40  1  0  0  0  0
 12 41  1  0  0  0  0
 13 14  1  0  0  0  0
 13 42  1  0  0  0  0
 13 43  1  0  0  0  0
 14 15  1  0  0  0  0
 14 44  1  0  0  0  0
 14 45  1  0  0  0  0
 15 16  1  0  0  0  0
 15 46  1  0  0  0  0
 15 47  1  0  0  0  0
 16 17  1  0  0  0  0
 16 48  1  0  0  0  0
 16 49  1  0  0  0  0
 17 18  1  0  0  0  0
 17 50  1  0  0  0  0
 17 51  1  0  0  0  0
 18 21  1  0  0  0  0
 18 52  1  0  0  0  0
 18 53  1  0  0  0  0
 19 20  2  0  0  0  0
 19 22  1  0  0  0  0
 20 21  1  0  0  0  0
 20 23  1  0  0  0  0
 22 54  1  0  0  0  0
 23 55  1  0  0  0  0
M  END
$$$$