/media/chris/experiments/cd1a-new-docking/inputs/ligands/5j1a_ligand.pdb
 OpenBabel07022311203D

 55 55  0  0  0  0  0  0  0  0999 V2000
  -41.5191   52.0253   58.3772 C   0  0  0  0  0  0  0  0  0  0  0  0
  -38.1318   55.4779   60.1888 C   0  0  0  0  0  0  0  0  0  0  0  0
  -37.4170   54.2914   62.2367 C   0  0  0  0  0  0  0  0  0  0  0  0
  -39.5254   55.0823   59.6446 C   0  0  0  0  0  0  0  0  0  0  0  0
  -37.9593   55.4582   63.0851 C   0  0  0  0  0  0  0  0  0  0  0  0
  -43.5171   55.1980   68.5028 C   0  0  0  0  0  0  0  0  0  0  0  0
  -43.5479   53.9568   67.8535 C   0  0  0  0  0  0  0  0  0  0  0  0
  -43.6742   56.3823   67.7729 C   0  0  0  0  0  0  0  0  0  0  0  0
  -40.9599   53.4481   58.4531 C   0  0  0  0  0  0  0  0  0  0  0  0
  -37.1449   54.4339   60.7313 C   0  0  0  0  0  0  0  0  0  0  0  0
  -40.0148   53.6208   59.6501 C   0  0  0  0  0  0  0  0  0  0  0  0
  -38.1263   56.8452   62.4620 C   0  0  0  0  0  0  0  0  0  0  0  0
  -39.5380   56.9300   61.8820 C   0  0  0  0  0  0  0  0  0  0  0  0
  -40.5750   56.7430   62.9900 C   0  0  0  0  0  0  0  0  0  0  0  0
  -41.9730   56.8130   62.3910 C   0  0  0  0  0  0  0  0  0  0  0  0
  -43.0346   56.6452   63.4882 C   0  0  0  0  0  0  0  0  0  0  0  0
  -42.9688   57.7452   64.5794 C   0  0  0  0  0  0  0  0  0  0  0  0
  -44.0284   57.5628   65.6918 C   0  0  0  0  0  0  0  0  0  0  0  0
  -43.7413   53.9267   66.4726 C   0  0  0  0  0  0  0  0  0  0  0  0
  -43.9049   55.1093   65.7531 C   0  0  0  0  0  0  0  0  0  0  0  0
  -43.9022   56.3556   66.3924 C   0  0  0  0  0  0  0  0  0  0  0  0
  -43.7810   52.7680   65.7702 O   0  0  0  0  0  0  0  0  0  0  0  0
  -44.0991   55.0307   64.4048 O   0  0  0  0  0  0  0  0  0  0  0  0
  -42.1716   51.9431   57.5331 H   0  0  0  0  0  0  0  0  0  0  0  0
  -42.0643   51.8082   59.2719 H   0  0  0  0  0  0  0  0  0  0  0  0
  -40.7124   51.3301   58.2735 H   0  0  0  0  0  0  0  0  0  0  0  0
  -37.8576   56.4728   60.1870 H   0  0  0  0  0  0  0  0  0  0  0  0
  -37.2306   53.3854   62.6944 H   0  0  0  0  0  0  0  0  0  0  0  0
  -40.1441   55.8172   59.2677 H   0  0  0  0  0  0  0  0  0  0  0  0
  -38.2100   55.3036   64.0742 H   0  0  0  0  0  0  0  0  0  0  0  0
  -43.3778   55.2395   69.5245 H   0  0  0  0  0  0  0  0  0  0  0  0
  -43.4299   53.0813   68.3871 H   0  0  0  0  0  0  0  0  0  0  0  0
  -43.6210   57.2901   68.2609 H   0  0  0  0  0  0  0  0  0  0  0  0
  -41.7735   54.1362   58.5510 H   0  0  0  0  0  0  0  0  0  0  0  0
  -40.4046   53.6376   57.5583 H   0  0  0  0  0  0  0  0  0  0  0  0
  -36.1391   54.7615   60.5699 H   0  0  0  0  0  0  0  0  0  0  0  0
  -37.2711   53.4961   60.2318 H   0  0  0  0  0  0  0  0  0  0  0  0
  -40.5367   53.4134   60.5608 H   0  0  0  0  0  0  0  0  0  0  0  0
  -39.1879   52.9455   59.5787 H   0  0  0  0  0  0  0  0  0  0  0  0
  -37.4044   56.9844   61.6846 H   0  0  0  0  0  0  0  0  0  0  0  0
  -37.9789   57.6065   63.1994 H   0  0  0  0  0  0  0  0  0  0  0  0
  -39.6646   56.1636   61.1461 H   0  0  0  0  0  0  0  0  0  0  0  0
  -39.6747   57.8920   61.4340 H   0  0  0  0  0  0  0  0  0  0  0  0
  -40.4604   57.5164   63.7205 H   0  0  0  0  0  0  0  0  0  0  0  0
  -40.4329   55.7901   63.4556 H   0  0  0  0  0  0  0  0  0  0  0  0
  -42.0864   56.0321   61.6683 H   0  0  0  0  0  0  0  0  0  0  0  0
  -42.1035   57.7672   61.9248 H   0  0  0  0  0  0  0  0  0  0  0  0
  -42.8917   55.6937   63.9563 H   0  0  0  0  0  0  0  0  0  0  0  0
  -43.9921   56.7233   63.0171 H   0  0  0  0  0  0  0  0  0  0  0  0
  -43.1244   58.6960   64.1139 H   0  0  0  0  0  0  0  0  0  0  0  0
  -42.0065   57.6774   65.0421 H   0  0  0  0  0  0  0  0  0  0  0  0
  -44.9992   57.5939   65.2430 H   0  0  0  0  0  0  0  0  0  0  0  0
  -43.8820   58.3531   66.3981 H   0  0  0  0  0  0  0  0  0  0  0  0
  -43.6757   51.9484   66.2120 H   0  0  0  0  0  0  0  0  0  0  0  0
  -44.1004   54.1958   63.9795 H   0  0  0  0  0  0  0  0  0  0  0  0
  1  9  1  0  0  0  0
  1 24  1  0  0  0  0
  1 25  1  0  0  0  0
  1 26  1  0  0  0  0
  2  4  2  0  0  0  0
  2 10  1  0  0  0  0
  2 27  1  0  0  0  0
  3  5  2  0  0  0  0
  3 10  1  0  0  0  0
  3 28  1  0  0  0  0
  4 11  1  0  0  0  0
  4 29  1  0  0  0  0
  5 12  1  0  0  0  0
  5 30  1  0  0  0  0
  6  7  2  0  0  0  0
  6  8  1  0  0  0  0
  6 31  1  0  0  0  0
  7 19  1  0  0  0  0
  7 32  1  0  0  0  0
  8 21  2  0  0  0  0
  8 33  1  0  0  0  0
  9 11  1  0  0  0  0
  9 34  1  0  0  0  0
  9 35  1  0  0  0  0
 10 36  1  0  0  0  0
 10 37  1  0  0  0  0
 11 38  1  0  0  0  0
 11 39  1  0  0  0  0
 12 13  1  0  0  0  0
 12 40  1  0  0  0  0
 12 41  1  0  0  0  0
 13 14  1  0  0  0  0
 13 42  1  0  0  0  0
 13 43  1  0  0  0  0
 14 15  1  0  0  0  0
 14 44  1  0  0  0  0
 14 45  1  0  0  0  0
 15 16  1  0  0  0  0
 15 46  1  0  0  0  0
 15 47  1  0  0  0  0
 16 17  1  0  0  0  0
 16 48  1  0  0  0  0
 16 49  1  0  0  0  0
 17 18  1  0  0  0  0
 17 50  1  0  0  0  0
 17 51  1  0  0  0  0
 18 21  1  0  0  0  0
 18 52  1  0  0  0  0
 18 53  1  0  0  0  0
 19 20  2  0  0  0  0
 19 22  1  0  0  0  0
 20 21  1  0  0  0  0
 20 23  1  0  0  0  0
 22 54  1  0  0  0  0
 23 55  1  0  0  0  0
M  END
$$$$