/media/chris/experiments/cd1a-new-docking/inputs/ligands/5j1a_ligand.pdb
 OpenBabel07022311203D

 55 55  0  0  0  0  0  0  0  0999 V2000
  -39.1497   50.5722   56.7947 C   0  0  0  0  0  0  0  0  0  0  0  0
  -40.7535   52.6722   59.3566 C   0  0  0  0  0  0  0  0  0  0  0  0
  -41.5737   54.9940   59.1336 C   0  0  0  0  0  0  0  0  0  0  0  0
  -41.2250   51.3303   58.7470 C   0  0  0  0  0  0  0  0  0  0  0  0
  -41.1044   55.9720   60.2283 C   0  0  0  0  0  0  0  0  0  0  0  0
  -41.8296   61.3194   66.7180 C   0  0  0  0  0  0  0  0  0  0  0  0
  -42.9338   62.1166   67.0474 C   0  0  0  0  0  0  0  0  0  0  0  0
  -41.9331   60.3465   65.7166 C   0  0  0  0  0  0  0  0  0  0  0  0
  -40.2952   51.5296   56.4571 C   0  0  0  0  0  0  0  0  0  0  0  0
  -40.6325   53.9499   58.5133 C   0  0  0  0  0  0  0  0  0  0  0  0
  -41.5654   51.1930   57.2500 C   0  0  0  0  0  0  0  0  0  0  0  0
  -39.6997   55.8424   60.8202 C   0  0  0  0  0  0  0  0  0  0  0  0
  -39.5380   56.9300   61.8820 C   0  0  0  0  0  0  0  0  0  0  0  0
  -40.5750   56.7430   62.9900 C   0  0  0  0  0  0  0  0  0  0  0  0
  -41.9730   56.8130   62.3910 C   0  0  0  0  0  0  0  0  0  0  0  0
  -43.0346   56.6452   63.4882 C   0  0  0  0  0  0  0  0  0  0  0  0
  -42.9688   57.7452   64.5794 C   0  0  0  0  0  0  0  0  0  0  0  0
  -43.1948   59.1702   64.0212 C   0  0  0  0  0  0  0  0  0  0  0  0
  -44.1303   61.9235   66.3573 C   0  0  0  0  0  0  0  0  0  0  0  0
  -44.2242   60.9584   65.3559 C   0  0  0  0  0  0  0  0  0  0  0  0
  -43.1214   60.1722   64.9983 C   0  0  0  0  0  0  0  0  0  0  0  0
  -45.2441   62.6511   66.6175 O   0  0  0  0  0  0  0  0  0  0  0  0
  -45.4127   60.8102   64.7023 O   0  0  0  0  0  0  0  0  0  0  0  0
  -38.2838   50.8370   56.2246 H   0  0  0  0  0  0  0  0  0  0  0  0
  -39.4405   49.5703   56.5570 H   0  0  0  0  0  0  0  0  0  0  0  0
  -38.9241   50.6400   57.8384 H   0  0  0  0  0  0  0  0  0  0  0  0
  -40.5133   52.7096   60.3596 H   0  0  0  0  0  0  0  0  0  0  0  0
  -42.5514   55.0418   58.8067 H   0  0  0  0  0  0  0  0  0  0  0  0
  -41.3140   50.5045   59.3596 H   0  0  0  0  0  0  0  0  0  0  0  0
  -41.7381   56.7149   60.5623 H   0  0  0  0  0  0  0  0  0  0  0  0
  -40.9354   61.4500   67.2162 H   0  0  0  0  0  0  0  0  0  0  0  0
  -42.8630   62.8331   67.7867 H   0  0  0  0  0  0  0  0  0  0  0  0
  -41.1196   59.7479   65.5046 H   0  0  0  0  0  0  0  0  0  0  0  0
  -40.5099   51.4591   55.4112 H   0  0  0  0  0  0  0  0  0  0  0  0
  -39.9905   52.5214   56.7187 H   0  0  0  0  0  0  0  0  0  0  0  0
  -40.9211   53.7507   57.5024 H   0  0  0  0  0  0  0  0  0  0  0  0
  -39.6233   54.3055   58.5049 H   0  0  0  0  0  0  0  0  0  0  0  0
  -42.3499   51.8725   56.9897 H   0  0  0  0  0  0  0  0  0  0  0  0
  -41.8972   50.2003   57.0278 H   0  0  0  0  0  0  0  0  0  0  0  0
  -38.9673   55.9727   60.0511 H   0  0  0  0  0  0  0  0  0  0  0  0
  -39.5648   54.8736   61.2538 H   0  0  0  0  0  0  0  0  0  0  0  0
  -39.6739   57.8897   61.4288 H   0  0  0  0  0  0  0  0  0  0  0  0
  -38.5577   56.8621   62.3055 H   0  0  0  0  0  0  0  0  0  0  0  0
  -40.4604   57.5164   63.7205 H   0  0  0  0  0  0  0  0  0  0  0  0
  -40.4329   55.7901   63.4556 H   0  0  0  0  0  0  0  0  0  0  0  0
  -42.0864   56.0321   61.6683 H   0  0  0  0  0  0  0  0  0  0  0  0
  -42.1035   57.7672   61.9248 H   0  0  0  0  0  0  0  0  0  0  0  0
  -42.8917   55.6937   63.9563 H   0  0  0  0  0  0  0  0  0  0  0  0
  -43.9921   56.7233   63.0171 H   0  0  0  0  0  0  0  0  0  0  0  0
  -42.0041   57.7095   65.0408 H   0  0  0  0  0  0  0  0  0  0  0  0
  -43.7553   57.5483   65.2777 H   0  0  0  0  0  0  0  0  0  0  0  0
  -44.1644   59.2074   63.5703 H   0  0  0  0  0  0  0  0  0  0  0  0
  -42.4118   59.3599   63.3169 H   0  0  0  0  0  0  0  0  0  0  0  0
  -45.2277   63.3111   67.2824 H   0  0  0  0  0  0  0  0  0  0  0  0
  -46.1489   61.3374   64.9434 H   0  0  0  0  0  0  0  0  0  0  0  0
  1  9  1  0  0  0  0
  1 24  1  0  0  0  0
  1 25  1  0  0  0  0
  1 26  1  0  0  0  0
  2  4  2  0  0  0  0
  2 10  1  0  0  0  0
  2 27  1  0  0  0  0
  3  5  2  0  0  0  0
  3 10  1  0  0  0  0
  3 28  1  0  0  0  0
  4 11  1  0  0  0  0
  4 29  1  0  0  0  0
  5 12  1  0  0  0  0
  5 30  1  0  0  0  0
  6  7  2  0  0  0  0
  6  8  1  0  0  0  0
  6 31  1  0  0  0  0
  7 19  1  0  0  0  0
  7 32  1  0  0  0  0
  8 21  2  0  0  0  0
  8 33  1  0  0  0  0
  9 11  1  0  0  0  0
  9 34  1  0  0  0  0
  9 35  1  0  0  0  0
 10 36  1  0  0  0  0
 10 37  1  0  0  0  0
 11 38  1  0  0  0  0
 11 39  1  0  0  0  0
 12 13  1  0  0  0  0
 12 40  1  0  0  0  0
 12 41  1  0  0  0  0
 13 14  1  0  0  0  0
 13 42  1  0  0  0  0
 13 43  1  0  0  0  0
 14 15  1  0  0  0  0
 14 44  1  0  0  0  0
 14 45  1  0  0  0  0
 15 16  1  0  0  0  0
 15 46  1  0  0  0  0
 15 47  1  0  0  0  0
 16 17  1  0  0  0  0
 16 48  1  0  0  0  0
 16 49  1  0  0  0  0
 17 18  1  0  0  0  0
 17 50  1  0  0  0  0
 17 51  1  0  0  0  0
 18 21  1  0  0  0  0
 18 52  1  0  0  0  0
 18 53  1  0  0  0  0
 19 20  2  0  0  0  0
 19 22  1  0  0  0  0
 20 21  1  0  0  0  0
 20 23  1  0  0  0  0
 22 54  1  0  0  0  0
 23 55  1  0  0  0  0
M  END
$$$$