/media/chris/experiments/cd1a-new-docking/inputs/ligands/5j1a_ligand.pdb
 OpenBabel07022311203D

 55 55  0  0  0  0  0  0  0  0999 V2000
  -32.8040   60.2659   60.1395 C   0  0  0  0  0  0  0  0  0  0  0  0
  -36.6450   58.5055   61.3362 C   0  0  0  0  0  0  0  0  0  0  0  0
  -38.1640   59.4703   63.0317 C   0  0  0  0  0  0  0  0  0  0  0  0
  -35.5412   59.4571   60.8157 C   0  0  0  0  0  0  0  0  0  0  0  0
  -39.5120   59.3667   62.2916 C   0  0  0  0  0  0  0  0  0  0  0  0
  -43.6400   58.0060   58.7112 C   0  0  0  0  0  0  0  0  0  0  0  0
  -42.4012   58.6518   58.8175 C   0  0  0  0  0  0  0  0  0  0  0  0
  -44.4299   57.7990   59.8484 C   0  0  0  0  0  0  0  0  0  0  0  0
  -33.7615   61.1812   60.9063 C   0  0  0  0  0  0  0  0  0  0  0  0
  -37.0358   58.4490   62.8202 C   0  0  0  0  0  0  0  0  0  0  0  0
  -34.7471   60.3762   61.7644 C   0  0  0  0  0  0  0  0  0  0  0  0
  -39.7162   58.2956   61.2187 C   0  0  0  0  0  0  0  0  0  0  0  0
  -39.5380   56.9300   61.8820 C   0  0  0  0  0  0  0  0  0  0  0  0
  -40.5750   56.7430   62.9900 C   0  0  0  0  0  0  0  0  0  0  0  0
  -41.9730   56.8130   62.3910 C   0  0  0  0  0  0  0  0  0  0  0  0
  -43.0346   56.6452   63.4882 C   0  0  0  0  0  0  0  0  0  0  0  0
  -44.4877   56.6885   62.9483 C   0  0  0  0  0  0  0  0  0  0  0  0
  -44.8286   58.0126   62.2244 C   0  0  0  0  0  0  0  0  0  0  0  0
  -41.9762   59.0849   60.0733 C   0  0  0  0  0  0  0  0  0  0  0  0
  -42.7711   58.8826   61.2003 C   0  0  0  0  0  0  0  0  0  0  0  0
  -44.0231   58.2618   61.1049 C   0  0  0  0  0  0  0  0  0  0  0  0
  -40.7906   59.7150   60.2611 O   0  0  0  0  0  0  0  0  0  0  0  0
  -42.3179   59.3303   62.4070 O   0  0  0  0  0  0  0  0  0  0  0  0
  -32.1340   60.8606   59.5543 H   0  0  0  0  0  0  0  0  0  0  0  0
  -33.3653   59.6222   59.4949 H   0  0  0  0  0  0  0  0  0  0  0  0
  -32.2432   59.6749   60.8331 H   0  0  0  0  0  0  0  0  0  0  0  0
  -37.1329   57.8907   60.6661 H   0  0  0  0  0  0  0  0  0  0  0  0
  -38.0145   60.2506   63.6903 H   0  0  0  0  0  0  0  0  0  0  0  0
  -35.3310   59.4768   59.8055 H   0  0  0  0  0  0  0  0  0  0  0  0
  -40.2772   60.0203   62.5200 H   0  0  0  0  0  0  0  0  0  0  0  0
  -43.9720   57.6811   57.7896 H   0  0  0  0  0  0  0  0  0  0  0  0
  -41.8142   58.8042   57.9825 H   0  0  0  0  0  0  0  0  0  0  0  0
  -45.3270   57.2968   59.7586 H   0  0  0  0  0  0  0  0  0  0  0  0
  -34.3135   61.7717   60.2053 H   0  0  0  0  0  0  0  0  0  0  0  0
  -33.1818   61.8025   61.5566 H   0  0  0  0  0  0  0  0  0  0  0  0
  -36.1940   58.7008   63.4309 H   0  0  0  0  0  0  0  0  0  0  0  0
  -37.3580   57.4653   63.0911 H   0  0  0  0  0  0  0  0  0  0  0  0
  -34.2124   59.7880   62.4807 H   0  0  0  0  0  0  0  0  0  0  0  0
  -35.4064   61.0302   62.2960 H   0  0  0  0  0  0  0  0  0  0  0  0
  -38.9937   58.4187   60.4392 H   0  0  0  0  0  0  0  0  0  0  0  0
  -40.6929   58.3780   60.7895 H   0  0  0  0  0  0  0  0  0  0  0  0
  -38.5560   56.8665   62.3023 H   0  0  0  0  0  0  0  0  0  0  0  0
  -39.6703   56.1642   61.1465 H   0  0  0  0  0  0  0  0  0  0  0  0
  -40.4604   57.5164   63.7205 H   0  0  0  0  0  0  0  0  0  0  0  0
  -40.4329   55.7901   63.4556 H   0  0  0  0  0  0  0  0  0  0  0  0
  -42.0864   56.0321   61.6683 H   0  0  0  0  0  0  0  0  0  0  0  0
  -42.1035   57.7672   61.9248 H   0  0  0  0  0  0  0  0  0  0  0  0
  -42.9137   57.4339   64.2011 H   0  0  0  0  0  0  0  0  0  0  0  0
  -42.8880   55.6799   63.9258 H   0  0  0  0  0  0  0  0  0  0  0  0
  -45.1603   56.5679   63.7716 H   0  0  0  0  0  0  0  0  0  0  0  0
  -44.5847   55.8998   62.2317 H   0  0  0  0  0  0  0  0  0  0  0  0
  -44.7045   58.8187   62.9169 H   0  0  0  0  0  0  0  0  0  0  0  0
  -45.8363   57.9292   61.8745 H   0  0  0  0  0  0  0  0  0  0  0  0
  -40.2233   59.8726   59.5323 H   0  0  0  0  0  0  0  0  0  0  0  0
  -41.4801   59.7453   62.4681 H   0  0  0  0  0  0  0  0  0  0  0  0
  1  9  1  0  0  0  0
  1 24  1  0  0  0  0
  1 25  1  0  0  0  0
  1 26  1  0  0  0  0
  2  4  2  0  0  0  0
  2 10  1  0  0  0  0
  2 27  1  0  0  0  0
  3  5  2  0  0  0  0
  3 10  1  0  0  0  0
  3 28  1  0  0  0  0
  4 11  1  0  0  0  0
  4 29  1  0  0  0  0
  5 12  1  0  0  0  0
  5 30  1  0  0  0  0
  6  7  2  0  0  0  0
  6  8  1  0  0  0  0
  6 31  1  0  0  0  0
  7 19  1  0  0  0  0
  7 32  1  0  0  0  0
  8 21  2  0  0  0  0
  8 33  1  0  0  0  0
  9 11  1  0  0  0  0
  9 34  1  0  0  0  0
  9 35  1  0  0  0  0
 10 36  1  0  0  0  0
 10 37  1  0  0  0  0
 11 38  1  0  0  0  0
 11 39  1  0  0  0  0
 12 13  1  0  0  0  0
 12 40  1  0  0  0  0
 12 41  1  0  0  0  0
 13 14  1  0  0  0  0
 13 42  1  0  0  0  0
 13 43  1  0  0  0  0
 14 15  1  0  0  0  0
 14 44  1  0  0  0  0
 14 45  1  0  0  0  0
 15 16  1  0  0  0  0
 15 46  1  0  0  0  0
 15 47  1  0  0  0  0
 16 17  1  0  0  0  0
 16 48  1  0  0  0  0
 16 49  1  0  0  0  0
 17 18  1  0  0  0  0
 17 50  1  0  0  0  0
 17 51  1  0  0  0  0
 18 21  1  0  0  0  0
 18 52  1  0  0  0  0
 18 53  1  0  0  0  0
 19 20  2  0  0  0  0
 19 22  1  0  0  0  0
 20 21  1  0  0  0  0
 20 23  1  0  0  0  0
 22 54  1  0  0  0  0
 23 55  1  0  0  0  0
M  END
$$$$