/media/chris/experiments/cd1a-new-docking/inputs/ligands/5j1a_ligand.pdb
 OpenBabel07022311203D

 55 55  0  0  0  0  0  0  0  0999 V2000
  -39.4235   53.0909   59.2001 C   0  0  0  0  0  0  0  0  0  0  0  0
  -40.2821   56.9213   56.8358 C   0  0  0  0  0  0  0  0  0  0  0  0
  -38.9986   57.9525   58.6804 C   0  0  0  0  0  0  0  0  0  0  0  0
  -40.3795   55.4693   56.3096 C   0  0  0  0  0  0  0  0  0  0  0  0
  -38.6676   58.4181   60.1118 C   0  0  0  0  0  0  0  0  0  0  0  0
  -44.7406   53.3938   58.2047 C   0  0  0  0  0  0  0  0  0  0  0  0
  -45.9380   53.3165   58.9282 C   0  0  0  0  0  0  0  0  0  0  0  0
  -43.5087   53.3427   58.8680 C   0  0  0  0  0  0  0  0  0  0  0  0
  -39.3540   54.2622   58.2172 C   0  0  0  0  0  0  0  0  0  0  0  0
  -40.3189   57.2460   58.3363 C   0  0  0  0  0  0  0  0  0  0  0  0
  -40.5551   54.2701   57.2617 C   0  0  0  0  0  0  0  0  0  0  0  0
  -39.7162   58.2956   61.2187 C   0  0  0  0  0  0  0  0  0  0  0  0
  -39.5380   56.9300   61.8820 C   0  0  0  0  0  0  0  0  0  0  0  0
  -40.5750   56.7430   62.9900 C   0  0  0  0  0  0  0  0  0  0  0  0
  -41.9730   56.8130   62.3910 C   0  0  0  0  0  0  0  0  0  0  0  0
  -42.1661   55.6996   61.3507 C   0  0  0  0  0  0  0  0  0  0  0  0
  -42.0124   54.2741   61.9416 C   0  0  0  0  0  0  0  0  0  0  0  0
  -42.1905   53.1560   60.8873 C   0  0  0  0  0  0  0  0  0  0  0  0
  -45.8763   53.1845   60.3153 C   0  0  0  0  0  0  0  0  0  0  0  0
  -44.6463   53.1263   60.9686 C   0  0  0  0  0  0  0  0  0  0  0  0
  -43.4415   53.1763   60.2559 C   0  0  0  0  0  0  0  0  0  0  0  0
  -46.9879   53.1057   61.0872 O   0  0  0  0  0  0  0  0  0  0  0  0
  -44.6348   52.9890   62.3261 O   0  0  0  0  0  0  0  0  0  0  0  0
  -38.5725   53.1181   59.8481 H   0  0  0  0  0  0  0  0  0  0  0  0
  -39.4288   52.1692   58.6568 H   0  0  0  0  0  0  0  0  0  0  0  0
  -40.3179   53.1667   59.7826 H   0  0  0  0  0  0  0  0  0  0  0  0
  -40.1897   57.6943   56.1584 H   0  0  0  0  0  0  0  0  0  0  0  0
  -38.3114   58.1205   57.9290 H   0  0  0  0  0  0  0  0  0  0  0  0
  -40.3255   55.2993   55.2931 H   0  0  0  0  0  0  0  0  0  0  0  0
  -37.7379   58.8129   60.3236 H   0  0  0  0  0  0  0  0  0  0  0  0
  -44.7668   53.4889   57.1775 H   0  0  0  0  0  0  0  0  0  0  0  0
  -46.8484   53.3565   58.4439 H   0  0  0  0  0  0  0  0  0  0  0  0
  -42.6358   53.4292   58.3244 H   0  0  0  0  0  0  0  0  0  0  0  0
  -38.4545   54.1811   57.6435 H   0  0  0  0  0  0  0  0  0  0  0  0
  -39.3679   55.1723   58.7796 H   0  0  0  0  0  0  0  0  0  0  0  0
  -40.4111   56.3441   58.9045 H   0  0  0  0  0  0  0  0  0  0  0  0
  -41.1560   57.8704   58.5696 H   0  0  0  0  0  0  0  0  0  0  0  0
  -40.5823   53.3591   56.7011 H   0  0  0  0  0  0  0  0  0  0  0  0
  -41.4715   54.3526   57.8078 H   0  0  0  0  0  0  0  0  0  0  0  0
  -40.6980   58.3716   60.8001 H   0  0  0  0  0  0  0  0  0  0  0  0
  -39.5944   59.0789   61.9374 H   0  0  0  0  0  0  0  0  0  0  0  0
  -38.5560   56.8665   62.3023 H   0  0  0  0  0  0  0  0  0  0  0  0
  -39.6703   56.1642   61.1465 H   0  0  0  0  0  0  0  0  0  0  0  0
  -40.4604   57.5164   63.7205 H   0  0  0  0  0  0  0  0  0  0  0  0
  -40.4329   55.7901   63.4556 H   0  0  0  0  0  0  0  0  0  0  0  0
  -42.1071   57.7638   61.9188 H   0  0  0  0  0  0  0  0  0  0  0  0
  -42.6924   56.6861   63.1729 H   0  0  0  0  0  0  0  0  0  0  0  0
  -41.4374   55.8271   60.5777 H   0  0  0  0  0  0  0  0  0  0  0  0
  -43.1664   55.7826   60.9800 H   0  0  0  0  0  0  0  0  0  0  0  0
  -42.7492   54.1414   62.7060 H   0  0  0  0  0  0  0  0  0  0  0  0
  -41.0169   54.1941   62.3254 H   0  0  0  0  0  0  0  0  0  0  0  0
  -42.0718   52.2102   61.3734 H   0  0  0  0  0  0  0  0  0  0  0  0
  -41.4530   53.3184   60.1292 H   0  0  0  0  0  0  0  0  0  0  0  0
  -47.8365   53.1406   60.6915 H   0  0  0  0  0  0  0  0  0  0  0  0
  -45.4422   52.9558   62.8005 H   0  0  0  0  0  0  0  0  0  0  0  0
  1  9  1  0  0  0  0
  1 24  1  0  0  0  0
  1 25  1  0  0  0  0
  1 26  1  0  0  0  0
  2  4  2  0  0  0  0
  2 10  1  0  0  0  0
  2 27  1  0  0  0  0
  3  5  2  0  0  0  0
  3 10  1  0  0  0  0
  3 28  1  0  0  0  0
  4 11  1  0  0  0  0
  4 29  1  0  0  0  0
  5 12  1  0  0  0  0
  5 30  1  0  0  0  0
  6  7  2  0  0  0  0
  6  8  1  0  0  0  0
  6 31  1  0  0  0  0
  7 19  1  0  0  0  0
  7 32  1  0  0  0  0
  8 21  2  0  0  0  0
  8 33  1  0  0  0  0
  9 11  1  0  0  0  0
  9 34  1  0  0  0  0
  9 35  1  0  0  0  0
 10 36  1  0  0  0  0
 10 37  1  0  0  0  0
 11 38  1  0  0  0  0
 11 39  1  0  0  0  0
 12 13  1  0  0  0  0
 12 40  1  0  0  0  0
 12 41  1  0  0  0  0
 13 14  1  0  0  0  0
 13 42  1  0  0  0  0
 13 43  1  0  0  0  0
 14 15  1  0  0  0  0
 14 44  1  0  0  0  0
 14 45  1  0  0  0  0
 15 16  1  0  0  0  0
 15 46  1  0  0  0  0
 15 47  1  0  0  0  0
 16 17  1  0  0  0  0
 16 48  1  0  0  0  0
 16 49  1  0  0  0  0
 17 18  1  0  0  0  0
 17 50  1  0  0  0  0
 17 51  1  0  0  0  0
 18 21  1  0  0  0  0
 18 52  1  0  0  0  0
 18 53  1  0  0  0  0
 19 20  2  0  0  0  0
 19 22  1  0  0  0  0
 20 21  1  0  0  0  0
 20 23  1  0  0  0  0
 22 54  1  0  0  0  0
 23 55  1  0  0  0  0
M  END
$$$$