/media/chris/experiments/cd1a-new-docking/inputs/ligands/7sh4_ligand.pdb


 56 55  0  0  0  0  0  0  0  0999 V2000
  -40.4718   59.9890   65.5497 C   0  0  0  0  0  0  0  0  0  0  0  0
  -40.4169   58.5242   65.2196 C   0  0  0  0  0  0  0  0  0  0  0  0
  -41.6904   58.2592   64.5942 O   0  0  0  0  0  0  0  0  0  0  0  0
  -41.3560   56.9710   62.7974 O   0  0  0  0  0  0  0  0  0  0  0  0
  -41.6812   58.0212   63.2823 C   0  0  0  0  0  0  0  0  0  0  0  0
  -42.2445   59.1834   62.5160 C   0  0  0  0  0  0  0  0  0  0  0  0
  -41.2033   60.1964   62.0709 C   0  0  0  0  0  0  0  0  0  0  0  0
  -41.5759   60.8904   60.7778 C   0  0  0  0  0  0  0  0  0  0  0  0
  -40.7593   60.4536   59.5828 C   0  0  0  0  0  0  0  0  0  0  0  0
  -40.4839   58.9636   59.5648 C   0  0  0  0  0  0  0  0  0  0  0  0
  -39.1599   58.6120   58.9316 C   0  0  0  0  0  0  0  0  0  0  0  0
  -38.0186   58.6148   59.9140 C   0  0  0  0  0  0  0  0  0  0  0  0
  -38.3041   57.8185   61.1680 C   0  0  0  0  0  0  0  0  0  0  0  0
  -38.0236   58.6012   62.4349 C   0  0  0  0  0  0  0  0  0  0  0  0
  -37.2265   57.8361   63.4703 C   0  0  0  0  0  0  0  0  0  0  0  0
  -35.7252   57.8231   63.2059 C   0  0  0  0  0  0  0  0  0  0  0  0
  -34.8780   57.8094   64.4638 C   0  0  0  0  0  0  0  0  0  0  0  0
  -33.6427   58.6810   64.3671 C   0  0  0  0  0  0  0  0  0  0  0  0
  -33.0858   58.7959   62.9550 C   0  0  0  0  0  0  0  0  0  0  0  0
  -31.7550   59.5235   62.8840 C   0  0  0  0  0  0  0  0  0  0  0  0
  -32.4328   61.9236   62.5435 C   0  0  0  0  0  0  0  0  0  0  0  0
  -31.7347   60.7201   61.9519 C   0  0  0  0  0  0  0  0  0  0  0  0
  -39.1065   60.5536   65.8480 C   0  0  0  0  0  0  0  0  0  0  0  0
  -38.7254   61.4415   64.7734 O   0  0  0  0  0  0  0  0  0  0  0  0
  -37.2028   61.8268   64.4653 P   0  0  0  0  0  0  0  0  0  0  0  0
  -36.3338   60.9058   65.2290 O   0  0  0  0  0  0  0  0  0  0  0  0
  -37.0359   61.9080   62.9941 O   0  0  0  0  0  0  0  0  0  0  0  0
  -37.1495   61.0260   62.6066 H   0  0  0  0  0  0  0  0  0  0  0  0
  -37.0090   63.2928   65.0620 O   0  0  0  0  0  0  0  0  0  0  0  0
  -36.1541   63.4994   66.2049 C   0  0  0  0  0  0  0  0  0  0  0  0
  -34.8179   64.5386   64.5086 O   0  0  0  0  0  0  0  0  0  0  0  0
  -34.7534   63.7639   65.7098 C   0  0  0  0  0  0  0  0  0  0  0  0
  -35.3658   64.0766   63.8550 H   0  0  0  0  0  0  0  0  0  0  0  0
  -33.3607   63.5371   67.6661 O   0  0  0  0  0  0  0  0  0  0  0  0
  -33.9033   64.4689   66.7394 C   0  0  0  0  0  0  0  0  0  0  0  0
  -32.8188   64.0080   68.3184 H   0  0  0  0  0  0  0  0  0  0  0  0
  -41.3923   60.1741   66.6759 O   0  0  0  0  0  0  0  0  0  0  0  0
  -42.1605   62.2865   66.5875 O   0  0  0  0  0  0  0  0  0  0  0  0
  -42.3564   61.1033   66.5300 C   0  0  0  0  0  0  0  0  0  0  0  0
  -43.6953   60.4857   66.2696 C   0  0  0  0  0  0  0  0  0  0  0  0
  -44.2746   60.9487   64.9367 C   0  0  0  0  0  0  0  0  0  0  0  0
  -45.4024   60.0722   64.4171 C   0  0  0  0  0  0  0  0  0  0  0  0
  -45.5400   58.7497   65.1627 C   0  0  0  0  0  0  0  0  0  0  0  0
  -46.8990   58.5420   65.8049 C   0  0  0  0  0  0  0  0  0  0  0  0
  -47.5866   59.8287   66.2703 C   0  0  0  0  0  0  0  0  0  0  0  0
  -49.0093   60.0338   65.7453 C   0  0  0  0  0  0  0  0  0  0  0  0
  -49.0350   60.8474   64.4862 C   0  0  0  0  0  0  0  0  0  0  0  0
  -49.0484   60.3860   63.2507 C   0  0  0  0  0  0  0  0  0  0  0  0
  -49.0424   58.9457   62.8463 C   0  0  0  0  0  0  0  0  0  0  0  0
  -50.4420   58.3378   62.8363 C   0  0  0  0  0  0  0  0  0  0  0  0
  -50.9093   57.9062   61.4574 C   0  0  0  0  0  0  0  0  0  0  0  0
  -49.8194   57.9567   60.4005 C   0  0  0  0  0  0  0  0  0  0  0  0
  -49.1457   56.6224   60.1266 C   0  0  0  0  0  0  0  0  0  0  0  0
  -48.0803   56.6930   59.0432 C   0  0  0  0  0  0  0  0  0  0  0  0
  -47.8504   58.0841   58.4866 C   0  0  0  0  0  0  0  0  0  0  0  0
  -47.0756   58.0743   57.1984 C   0  0  0  0  0  0  0  0  0  0  0  0
 21 22  1  0  0  0
  4  5  2  0  0  0
 25 24  1  0  0  0
 25 26  2  0  0  0
 25 27  1  0  0  0
 25 29  1  0  0  0
 22 20  1  0  0  0
  3  5  1  0  0  0
  3  2  1  0  0  0
 20 19  1  0  0  0
 24 23  1  0  0  0
 19 18  1  0  0  0
 18 17  1  0  0  0
 27 28  1  0  0  0
 17 16  1  0  0  0
 29 30  1  0  0  0
 16 15  1  0  0  0
 34 35  1  0  0  0
 34 36  1  0  0  0
 15 14  1  0  0  0
 31 32  1  0  0  0
 31 33  1  0  0  0
 14 13  1  0  0  0
 37  1  1  0  0  0
 37 39  1  0  0  0
 13 12  1  0  0  0
 38 39  2  0  0  0
 12 11  1  0  0  0
 11 10  1  0  0  0
 10  9  1  0  0  0
  9  8  1  0  0  0
  8  7  1  0  0  0
  7  6  1  0  0  0
  6  5  1  0  0  0
  2  1  1  0  0  0
  1 23  1  0  0  0
 30 32  1  0  0  0
 32 35  1  0  0  0
 39 40  1  0  0  0
 40 41  1  0  0  0
 41 42  1  0  0  0
 42 43  1  0  0  0
 43 44  1  0  0  0
 44 45  1  0  0  0
 45 46  1  0  0  0
 46 47  1  0  0  0
 47 48  2  0  0  0
 48 49  1  0  0  0
 49 50  1  0  0  0
 50 51  1  0  0  0
 51 52  1  0  0  0
 52 53  1  0  0  0
 53 54  1  0  0  0
 54 55  1  0  0  0
 55 56  1  0  0  0
M  CHG 1  26  -1
M  END
> <minimizedAffinity>
-8.42709

> <CNNscore>
0.4116052985

> <CNNaffinity>
7.4177179337

> <CNN_VS>
3.0531721115

> <CNNaffinity_variance>
1.4686890841

$$$$
/media/chris/experiments/cd1a-new-docking/inputs/ligands/7sh4_ligand.pdb


 56 55  0  0  0  0  0  0  0  0999 V2000
  -41.5230   57.7812   64.1178 C   0  0  0  0  0  0  0  0  0  0  0  0
  -41.5628   56.8918   62.9075 C   0  0  0  0  0  0  0  0  0  0  0  0
  -42.1449   57.7238   61.8817 O   0  0  0  0  0  0  0  0  0  0  0  0
  -41.3394   59.6158   61.0036 O   0  0  0  0  0  0  0  0  0  0  0  0
  -41.3021   58.4203   61.1185 C   0  0  0  0  0  0  0  0  0  0  0  0
  -40.2402   57.5338   60.5341 C   0  0  0  0  0  0  0  0  0  0  0  0
  -39.2580   58.2567   59.6279 C   0  0  0  0  0  0  0  0  0  0  0  0
  -37.9615   58.6049   60.3281 C   0  0  0  0  0  0  0  0  0  0  0  0
  -37.7127   57.8210   61.5967 C   0  0  0  0  0  0  0  0  0  0  0  0
  -36.3725   58.1304   62.2324 C   0  0  0  0  0  0  0  0  0  0  0  0
  -36.3526   57.8919   63.7225 C   0  0  0  0  0  0  0  0  0  0  0  0
  -34.9592   57.8340   64.2906 C   0  0  0  0  0  0  0  0  0  0  0  0
  -33.8878   58.2130   63.2923 C   0  0  0  0  0  0  0  0  0  0  0  0
  -32.8751   59.1859   63.8618 C   0  0  0  0  0  0  0  0  0  0  0  0
  -31.7507   59.5354   62.9096 C   0  0  0  0  0  0  0  0  0  0  0  0
  -32.0194   60.7785   62.0689 C   0  0  0  0  0  0  0  0  0  0  0  0
  -31.8169   62.0829   62.8156 C   0  0  0  0  0  0  0  0  0  0  0  0
  -32.9098   63.0999   62.5581 C   0  0  0  0  0  0  0  0  0  0  0  0
  -32.6188   64.4717   63.1504 C   0  0  0  0  0  0  0  0  0  0  0  0
  -33.7364   65.0031   64.0303 C   0  0  0  0  0  0  0  0  0  0  0  0
  -31.9298   64.8118   65.7726 C   0  0  0  0  0  0  0  0  0  0  0  0
  -33.3846   65.1213   65.5011 C   0  0  0  0  0  0  0  0  0  0  0  0
  -40.1144   58.0246   64.5955 C   0  0  0  0  0  0  0  0  0  0  0  0
  -39.6375   59.2639   64.0253 O   0  0  0  0  0  0  0  0  0  0  0  0
  -39.9758   60.6957   64.6557 P   0  0  0  0  0  0  0  0  0  0  0  0
  -40.9460   61.3699   63.7664 O   0  0  0  0  0  0  0  0  0  0  0  0
  -40.3332   60.4994   66.0813 O   0  0  0  0  0  0  0  0  0  0  0  0
  -41.1640   60.0020   66.1409 H   0  0  0  0  0  0  0  0  0  0  0  0
  -38.6087   61.5147   64.6017 O   0  0  0  0  0  0  0  0  0  0  0  0
  -37.7711   61.4440   63.4298 C   0  0  0  0  0  0  0  0  0  0  0  0
  -36.9879   63.7056   63.3095 O   0  0  0  0  0  0  0  0  0  0  0  0
  -36.5946   62.3677   63.6294 C   0  0  0  0  0  0  0  0  0  0  0  0
  -37.3367   63.7326   62.4048 H   0  0  0  0  0  0  0  0  0  0  0  0
  -36.6786   63.2782   65.8614 O   0  0  0  0  0  0  0  0  0  0  0  0
  -36.0485   62.3073   65.0358 C   0  0  0  0  0  0  0  0  0  0  0  0
  -36.3151   63.2241   66.7592 H   0  0  0  0  0  0  0  0  0  0  0  0
  -42.3524   57.1746   65.1638 O   0  0  0  0  0  0  0  0  0  0  0  0
  -44.5844   56.9503   65.3322 O   0  0  0  0  0  0  0  0  0  0  0  0
  -43.6067   57.6465   65.2989 C   0  0  0  0  0  0  0  0  0  0  0  0
  -43.6339   59.1386   65.4208 C   0  0  0  0  0  0  0  0  0  0  0  0
  -44.4797   59.7737   64.3217 C   0  0  0  0  0  0  0  0  0  0  0  0
  -45.9766   59.5926   64.5135 C   0  0  0  0  0  0  0  0  0  0  0  0
  -46.5016   60.1905   65.8137 C   0  0  0  0  0  0  0  0  0  0  0  0
  -47.8846   59.7026   66.2030 C   0  0  0  0  0  0  0  0  0  0  0  0
  -48.3944   58.5137   65.3835 C   0  0  0  0  0  0  0  0  0  0  0  0
  -49.9160   58.4168   65.2533 C   0  0  0  0  0  0  0  0  0  0  0  0
  -50.5770   59.7598   65.3392 C   0  0  0  0  0  0  0  0  0  0  0  0
  -51.1069   60.4418   64.3423 C   0  0  0  0  0  0  0  0  0  0  0  0
  -51.1602   60.0135   62.9099 C   0  0  0  0  0  0  0  0  0  0  0  0
  -49.8058   60.1296   62.2165 C   0  0  0  0  0  0  0  0  0  0  0  0
  -49.3385   58.8368   61.5713 C   0  0  0  0  0  0  0  0  0  0  0  0
  -49.7431   58.7017   60.1135 C   0  0  0  0  0  0  0  0  0  0  0  0
  -48.5778   58.6143   59.1420 C   0  0  0  0  0  0  0  0  0  0  0  0
  -47.9587   57.2272   59.0621 C   0  0  0  0  0  0  0  0  0  0  0  0
  -47.0184   57.0322   57.8893 C   0  0  0  0  0  0  0  0  0  0  0  0
  -46.8443   58.2804   57.0698 C   0  0  0  0  0  0  0  0  0  0  0  0
 21 22  1  0  0  0
  4  5  2  0  0  0
 25 24  1  0  0  0
 25 26  2  0  0  0
 25 27  1  0  0  0
 25 29  1  0  0  0
 22 20  1  0  0  0
  3  5  1  0  0  0
  3  2  1  0  0  0
 20 19  1  0  0  0
 24 23  1  0  0  0
 19 18  1  0  0  0
 18 17  1  0  0  0
 27 28  1  0  0  0
 17 16  1  0  0  0
 29 30  1  0  0  0
 16 15  1  0  0  0
 34 35  1  0  0  0
 34 36  1  0  0  0
 15 14  1  0  0  0
 31 32  1  0  0  0
 31 33  1  0  0  0
 14 13  1  0  0  0
 37  1  1  0  0  0
 37 39  1  0  0  0
 13 12  1  0  0  0
 38 39  2  0  0  0
 12 11  1  0  0  0
 11 10  1  0  0  0
 10  9  1  0  0  0
  9  8  1  0  0  0
  8  7  1  0  0  0
  7  6  1  0  0  0
  6  5  1  0  0  0
  2  1  1  0  0  0
  1 23  1  0  0  0
 30 32  1  0  0  0
 32 35  1  0  0  0
 39 40  1  0  0  0
 40 41  1  0  0  0
 41 42  1  0  0  0
 42 43  1  0  0  0
 43 44  1  0  0  0
 44 45  1  0  0  0
 45 46  1  0  0  0
 46 47  1  0  0  0
 47 48  2  0  0  0
 48 49  1  0  0  0
 49 50  1  0  0  0
 50 51  1  0  0  0
 51 52  1  0  0  0
 52 53  1  0  0  0
 53 54  1  0  0  0
 54 55  1  0  0  0
 55 56  1  0  0  0
M  CHG 1  26  -1
M  END
> <minimizedAffinity>
-8.10477

> <CNNscore>
0.3934484124

> <CNNaffinity>
7.1369581223

> <CNN_VS>
2.8080248833

> <CNNaffinity_variance>
1.2443332672

$$$$
/media/chris/experiments/cd1a-new-docking/inputs/ligands/7sh4_ligand.pdb


 56 55  0  0  0  0  0  0  0  0999 V2000
  -39.0788   61.1847   63.6419 C   0  0  0  0  0  0  0  0  0  0  0  0
  -40.1797   60.9317   62.6511 C   0  0  0  0  0  0  0  0  0  0  0  0
  -41.2588   61.7759   63.1050 O   0  0  0  0  0  0  0  0  0  0  0  0
  -42.6847   62.1017   61.4138 O   0  0  0  0  0  0  0  0  0  0  0  0
  -42.4346   61.6349   62.4924 C   0  0  0  0  0  0  0  0  0  0  0  0
  -43.3430   60.7223   63.2649 C   0  0  0  0  0  0  0  0  0  0  0  0
  -43.8346   61.3036   64.5798 C   0  0  0  0  0  0  0  0  0  0  0  0
  -44.4970   60.2703   65.4664 C   0  0  0  0  0  0  0  0  0  0  0  0
  -45.6270   59.5170   64.8020 C   0  0  0  0  0  0  0  0  0  0  0  0
  -46.9041   60.3268   64.7056 C   0  0  0  0  0  0  0  0  0  0  0  0
  -47.9916   59.8330   65.6282 C   0  0  0  0  0  0  0  0  0  0  0  0
  -48.5688   58.5091   65.2017 C   0  0  0  0  0  0  0  0  0  0  0  0
  -50.0741   58.5302   65.0542 C   0  0  0  0  0  0  0  0  0  0  0  0
  -50.6181   59.9221   64.8029 C   0  0  0  0  0  0  0  0  0  0  0  0
  -51.1760   60.1254   63.4099 C   0  0  0  0  0  0  0  0  0  0  0  0
  -50.7303   59.0670   62.4073 C   0  0  0  0  0  0  0  0  0  0  0  0
  -49.6210   59.5250   61.4801 C   0  0  0  0  0  0  0  0  0  0  0  0
  -49.5933   58.7808   60.1608 C   0  0  0  0  0  0  0  0  0  0  0  0
  -48.8763   57.4398   60.2315 C   0  0  0  0  0  0  0  0  0  0  0  0
  -47.8140   57.2616   59.1614 C   0  0  0  0  0  0  0  0  0  0  0  0
  -47.2680   57.9790   56.8113 C   0  0  0  0  0  0  0  0  0  0  0  0
  -47.6854   58.4235   58.1948 C   0  0  0  0  0  0  0  0  0  0  0  0
  -37.8173   61.6699   62.9749 C   0  0  0  0  0  0  0  0  0  0  0  0
  -37.2572   62.7432   63.7640 O   0  0  0  0  0  0  0  0  0  0  0  0
  -36.2205   63.8077   63.1690 P   0  0  0  0  0  0  0  0  0  0  0  0
  -35.9098   63.4157   61.7774 O   0  0  0  0  0  0  0  0  0  0  0  0
  -36.7571   65.1664   63.4234 O   0  0  0  0  0  0  0  0  0  0  0  0
  -37.5672   65.2962   62.9058 H   0  0  0  0  0  0  0  0  0  0  0  0
  -34.8933   63.6349   64.0358 O   0  0  0  0  0  0  0  0  0  0  0  0
  -34.7367   62.4867   64.8943 C   0  0  0  0  0  0  0  0  0  0  0  0
  -33.3778   63.8793   66.2931 O   0  0  0  0  0  0  0  0  0  0  0  0
  -34.4860   62.9744   66.3001 C   0  0  0  0  0  0  0  0  0  0  0  0
  -32.6047   63.4408   65.9048 H   0  0  0  0  0  0  0  0  0  0  0  0
  -36.1014   62.9739   68.0914 O   0  0  0  0  0  0  0  0  0  0  0  0
  -35.6995   63.6414   66.9021 C   0  0  0  0  0  0  0  0  0  0  0  0
  -36.8809   63.4161   68.4627 H   0  0  0  0  0  0  0  0  0  0  0  0
  -38.8498   59.9520   64.4021 O   0  0  0  0  0  0  0  0  0  0  0  0
  -40.5696   59.9524   65.8520 O   0  0  0  0  0  0  0  0  0  0  0  0
  -39.9191   59.4003   65.0072 C   0  0  0  0  0  0  0  0  0  0  0  0
  -40.2099   58.0262   64.4882 C   0  0  0  0  0  0  0  0  0  0  0  0
  -41.6926   57.6873   64.6039 C   0  0  0  0  0  0  0  0  0  0  0  0
  -42.2698   57.0164   63.3682 C   0  0  0  0  0  0  0  0  0  0  0  0
  -41.3184   56.0211   62.7141 C   0  0  0  0  0  0  0  0  0  0  0  0
  -41.1234   56.2408   61.2255 C   0  0  0  0  0  0  0  0  0  0  0  0
  -41.9136   57.4180   60.6468 C   0  0  0  0  0  0  0  0  0  0  0  0
  -41.0791   58.6495   60.2882 C   0  0  0  0  0  0  0  0  0  0  0  0
  -40.0249   58.3400   59.2679 C   0  0  0  0  0  0  0  0  0  0  0  0
  -38.7189   58.3913   59.4447 C   0  0  0  0  0  0  0  0  0  0  0  0
  -38.0135   58.7699   60.7084 C   0  0  0  0  0  0  0  0  0  0  0  0
  -37.8187   57.5812   61.6452 C   0  0  0  0  0  0  0  0  0  0  0  0
  -36.8973   57.8728   62.8166 C   0  0  0  0  0  0  0  0  0  0  0  0
  -35.4898   58.2659   62.4022 C   0  0  0  0  0  0  0  0  0  0  0  0
  -34.3880   57.4681   63.0796 C   0  0  0  0  0  0  0  0  0  0  0  0
  -33.0409   58.1745   63.0793 C   0  0  0  0  0  0  0  0  0  0  0  0
  -33.0917   59.6106   62.5969 C   0  0  0  0  0  0  0  0  0  0  0  0
  -31.7263   60.1932   62.3601 C   0  0  0  0  0  0  0  0  0  0  0  0
 21 22  1  0  0  0
  4  5  2  0  0  0
 25 24  1  0  0  0
 25 26  2  0  0  0
 25 27  1  0  0  0
 25 29  1  0  0  0
 22 20  1  0  0  0
  3  5  1  0  0  0
  3  2  1  0  0  0
 20 19  1  0  0  0
 24 23  1  0  0  0
 19 18  1  0  0  0
 18 17  1  0  0  0
 27 28  1  0  0  0
 17 16  1  0  0  0
 29 30  1  0  0  0
 16 15  1  0  0  0
 34 35  1  0  0  0
 34 36  1  0  0  0
 15 14  1  0  0  0
 31 32  1  0  0  0
 31 33  1  0  0  0
 14 13  1  0  0  0
 37  1  1  0  0  0
 37 39  1  0  0  0
 13 12  1  0  0  0
 38 39  2  0  0  0
 12 11  1  0  0  0
 11 10  1  0  0  0
 10  9  1  0  0  0
  9  8  1  0  0  0
  8  7  1  0  0  0
  7  6  1  0  0  0
  6  5  1  0  0  0
  2  1  1  0  0  0
  1 23  1  0  0  0
 30 32  1  0  0  0
 32 35  1  0  0  0
 39 40  1  0  0  0
 40 41  1  0  0  0
 41 42  1  0  0  0
 42 43  1  0  0  0
 43 44  1  0  0  0
 44 45  1  0  0  0
 45 46  1  0  0  0
 46 47  1  0  0  0
 47 48  2  0  0  0
 48 49  1  0  0  0
 49 50  1  0  0  0
 50 51  1  0  0  0
 51 52  1  0  0  0
 52 53  1  0  0  0
 53 54  1  0  0  0
 54 55  1  0  0  0
 55 56  1  0  0  0
M  CHG 1  26  -1
M  END
> <minimizedAffinity>
-8.62370

> <CNNscore>
0.3786845505

> <CNNaffinity>
7.4439697266

> <CNN_VS>
2.8189163208

> <CNNaffinity_variance>
1.4458204508

$$$$
/media/chris/experiments/cd1a-new-docking/inputs/ligands/7sh4_ligand.pdb


 56 55  0  0  0  0  0  0  0  0999 V2000
  -40.4063   60.2871   63.7570 C   0  0  0  0  0  0  0  0  0  0  0  0
  -40.1446   59.6433   65.0892 C   0  0  0  0  0  0  0  0  0  0  0  0
  -40.5622   58.2742   64.9034 O   0  0  0  0  0  0  0  0  0  0  0  0
  -42.2394   58.2693   66.3821 O   0  0  0  0  0  0  0  0  0  0  0  0
  -41.7911   57.9568   65.3120 C   0  0  0  0  0  0  0  0  0  0  0  0
  -42.5673   57.2778   64.2205 C   0  0  0  0  0  0  0  0  0  0  0  0
  -41.9365   55.9896   63.7195 C   0  0  0  0  0  0  0  0  0  0  0  0
  -41.0941   56.1935   62.4781 C   0  0  0  0  0  0  0  0  0  0  0  0
  -41.6249   57.2499   61.5359 C   0  0  0  0  0  0  0  0  0  0  0  0
  -41.1811   57.0434   60.1019 C   0  0  0  0  0  0  0  0  0  0  0  0
  -40.9358   58.3367   59.3638 C   0  0  0  0  0  0  0  0  0  0  0  0
  -39.8186   59.1516   59.9600 C   0  0  0  0  0  0  0  0  0  0  0  0
  -38.4423   58.6513   59.5809 C   0  0  0  0  0  0  0  0  0  0  0  0
  -37.5045   58.5623   60.7679 C   0  0  0  0  0  0  0  0  0  0  0  0
  -37.9428   57.5750   61.8291 C   0  0  0  0  0  0  0  0  0  0  0  0
  -37.2372   57.7563   63.1683 C   0  0  0  0  0  0  0  0  0  0  0  0
  -35.7534   58.0463   63.0486 C   0  0  0  0  0  0  0  0  0  0  0  0
  -35.0174   57.9742   64.3708 C   0  0  0  0  0  0  0  0  0  0  0  0
  -33.5614   58.4099   64.2833 C   0  0  0  0  0  0  0  0  0  0  0  0
  -33.2481   59.2385   63.0502 C   0  0  0  0  0  0  0  0  0  0  0  0
  -31.5436   60.5025   61.6964 C   0  0  0  0  0  0  0  0  0  0  0  0
  -31.7814   59.5823   62.8722 C   0  0  0  0  0  0  0  0  0  0  0  0
  -39.1664   60.9224   63.1819 C   0  0  0  0  0  0  0  0  0  0  0  0
  -38.5680   61.7693   64.1885 O   0  0  0  0  0  0  0  0  0  0  0  0
  -37.0022   61.7498   64.5194 P   0  0  0  0  0  0  0  0  0  0  0  0
  -36.7579   60.6842   65.5152 O   0  0  0  0  0  0  0  0  0  0  0  0
  -36.2597   61.7096   63.2365 O   0  0  0  0  0  0  0  0  0  0  0  0
  -36.4277   60.8639   62.7921 H   0  0  0  0  0  0  0  0  0  0  0  0
  -36.7002   63.1519   65.2164 O   0  0  0  0  0  0  0  0  0  0  0  0
  -35.3680   63.7032   65.1810 C   0  0  0  0  0  0  0  0  0  0  0  0
  -36.0120   64.0319   67.4657 O   0  0  0  0  0  0  0  0  0  0  0  0
  -35.1608   64.5274   66.4279 C   0  0  0  0  0  0  0  0  0  0  0  0
  -36.9325   64.0391   67.1599 H   0  0  0  0  0  0  0  0  0  0  0  0
  -33.4804   63.4355   67.7702 O   0  0  0  0  0  0  0  0  0  0  0  0
  -33.7225   64.5232   66.8873 C   0  0  0  0  0  0  0  0  0  0  0  0
  -32.5528   63.4497   68.0540 H   0  0  0  0  0  0  0  0  0  0  0  0
  -41.4886   61.2627   63.9206 O   0  0  0  0  0  0  0  0  0  0  0  0
  -42.3387   60.9855   61.8564 O   0  0  0  0  0  0  0  0  0  0  0  0
  -42.4932   61.2161   63.0246 C   0  0  0  0  0  0  0  0  0  0  0  0
  -43.8246   61.4673   63.6619 C   0  0  0  0  0  0  0  0  0  0  0  0
  -43.8214   61.0759   65.1361 C   0  0  0  0  0  0  0  0  0  0  0  0
  -45.0365   60.2684   65.5621 C   0  0  0  0  0  0  0  0  0  0  0  0
  -45.9756   59.9265   64.4111 C   0  0  0  0  0  0  0  0  0  0  0  0
  -47.4460   60.1038   64.7410 C   0  0  0  0  0  0  0  0  0  0  0  0
  -48.0432   58.9905   65.6064 C   0  0  0  0  0  0  0  0  0  0  0  0
  -49.4506   58.5402   65.2089 C   0  0  0  0  0  0  0  0  0  0  0  0
  -50.4186   59.6844   65.1658 C   0  0  0  0  0  0  0  0  0  0  0  0
  -51.1205   60.0831   64.1229 C   0  0  0  0  0  0  0  0  0  0  0  0
  -51.0977   59.4717   62.7576 C   0  0  0  0  0  0  0  0  0  0  0  0
  -49.9927   60.0506   61.8788 C   0  0  0  0  0  0  0  0  0  0  0  0
  -49.3135   59.0191   60.9950 C   0  0  0  0  0  0  0  0  0  0  0  0
  -50.1276   58.6328   59.7722 C   0  0  0  0  0  0  0  0  0  0  0  0
  -49.4041   57.7189   58.7971 C   0  0  0  0  0  0  0  0  0  0  0  0
  -48.1005   57.1588   59.3454 C   0  0  0  0  0  0  0  0  0  0  0  0
  -46.9756   57.0947   58.3314 C   0  0  0  0  0  0  0  0  0  0  0  0
  -47.0707   58.1732   57.2885 C   0  0  0  0  0  0  0  0  0  0  0  0
 21 22  1  0  0  0
  4  5  2  0  0  0
 25 24  1  0  0  0
 25 26  2  0  0  0
 25 27  1  0  0  0
 25 29  1  0  0  0
 22 20  1  0  0  0
  3  5  1  0  0  0
  3  2  1  0  0  0
 20 19  1  0  0  0
 24 23  1  0  0  0
 19 18  1  0  0  0
 18 17  1  0  0  0
 27 28  1  0  0  0
 17 16  1  0  0  0
 29 30  1  0  0  0
 16 15  1  0  0  0
 34 35  1  0  0  0
 34 36  1  0  0  0
 15 14  1  0  0  0
 31 32  1  0  0  0
 31 33  1  0  0  0
 14 13  1  0  0  0
 37  1  1  0  0  0
 37 39  1  0  0  0
 13 12  1  0  0  0
 38 39  2  0  0  0
 12 11  1  0  0  0
 11 10  1  0  0  0
 10  9  1  0  0  0
  9  8  1  0  0  0
  8  7  1  0  0  0
  7  6  1  0  0  0
  6  5  1  0  0  0
  2  1  1  0  0  0
  1 23  1  0  0  0
 30 32  1  0  0  0
 32 35  1  0  0  0
 39 40  1  0  0  0
 40 41  1  0  0  0
 41 42  1  0  0  0
 42 43  1  0  0  0
 43 44  1  0  0  0
 44 45  1  0  0  0
 45 46  1  0  0  0
 46 47  1  0  0  0
 47 48  2  0  0  0
 48 49  1  0  0  0
 49 50  1  0  0  0
 50 51  1  0  0  0
 51 52  1  0  0  0
 52 53  1  0  0  0
 53 54  1  0  0  0
 54 55  1  0  0  0
 55 56  1  0  0  0
M  CHG 1  26  -1
M  END
> <minimizedAffinity>
-8.97101

> <CNNscore>
0.3747245967

> <CNNaffinity>
7.3724837303

> <CNN_VS>
2.7626509666

> <CNNaffinity_variance>
1.5961239338

$$$$
/media/chris/experiments/cd1a-new-docking/inputs/ligands/7sh4_ligand.pdb


 56 55  0  0  0  0  0  0  0  0999 V2000
  -41.1949   59.6841   65.1007 C   0  0  0  0  0  0  0  0  0  0  0  0
  -40.5807   58.7240   64.1215 C   0  0  0  0  0  0  0  0  0  0  0  0
  -41.2225   59.0443   62.8691 O   0  0  0  0  0  0  0  0  0  0  0  0
  -42.3416   57.1272   62.6010 O   0  0  0  0  0  0  0  0  0  0  0  0
  -41.6809   58.0218   62.1464 C   0  0  0  0  0  0  0  0  0  0  0  0
  -41.3708   58.2056   60.6886 C   0  0  0  0  0  0  0  0  0  0  0  0
  -41.0948   59.6455   60.2896 C   0  0  0  0  0  0  0  0  0  0  0  0
  -39.6440   59.8862   59.9296 C   0  0  0  0  0  0  0  0  0  0  0  0
  -38.8617   58.6265   59.6350 C   0  0  0  0  0  0  0  0  0  0  0  0
  -37.6622   58.4467   60.5433 C   0  0  0  0  0  0  0  0  0  0  0  0
  -37.9540   57.5879   61.7495 C   0  0  0  0  0  0  0  0  0  0  0  0
  -36.9202   57.7279   62.8355 C   0  0  0  0  0  0  0  0  0  0  0  0
  -35.7075   58.5259   62.4105 C   0  0  0  0  0  0  0  0  0  0  0  0
  -34.5379   58.3635   63.3602 C   0  0  0  0  0  0  0  0  0  0  0  0
  -33.5979   59.5503   63.3916 C   0  0  0  0  0  0  0  0  0  0  0  0
  -32.3972   59.4099   62.4628 C   0  0  0  0  0  0  0  0  0  0  0  0
  -31.6411   60.7044   62.2332 C   0  0  0  0  0  0  0  0  0  0  0  0
  -32.2906   61.9055   62.8893 C   0  0  0  0  0  0  0  0  0  0  0  0
  -32.7744   62.9550   61.8984 C   0  0  0  0  0  0  0  0  0  0  0  0
  -33.5750   64.0739   62.5408 C   0  0  0  0  0  0  0  0  0  0  0  0
  -35.9919   64.7760   62.5787 C   0  0  0  0  0  0  0  0  0  0  0  0
  -34.9920   63.6979   62.9302 C   0  0  0  0  0  0  0  0  0  0  0  0
  -40.1570   60.5369   65.7843 C   0  0  0  0  0  0  0  0  0  0  0  0
  -39.3593   61.1966   64.7758 O   0  0  0  0  0  0  0  0  0  0  0  0
  -37.7589   61.1739   64.7838 P   0  0  0  0  0  0  0  0  0  0  0  0
  -37.3217   59.9685   65.5204 O   0  0  0  0  0  0  0  0  0  0  0  0
  -37.2877   61.3677   63.3913 O   0  0  0  0  0  0  0  0  0  0  0  0
  -37.5418   60.6009   62.8542 H   0  0  0  0  0  0  0  0  0  0  0  0
  -37.3226   62.4524   65.6311 O   0  0  0  0  0  0  0  0  0  0  0  0
  -36.0562   62.4627   66.3211 C   0  0  0  0  0  0  0  0  0  0  0  0
  -36.2336   64.2750   67.8789 O   0  0  0  0  0  0  0  0  0  0  0  0
  -35.6851   63.8960   66.6130 C   0  0  0  0  0  0  0  0  0  0  0  0
  -37.1926   64.1297   67.8723 H   0  0  0  0  0  0  0  0  0  0  0  0
  -33.5975   63.5715   67.7769 O   0  0  0  0  0  0  0  0  0  0  0  0
  -34.1913   64.1159   66.6054 C   0  0  0  0  0  0  0  0  0  0  0  0
  -32.6395   63.7224   67.7539 H   0  0  0  0  0  0  0  0  0  0  0  0
  -41.9859   58.9153   66.0666 O   0  0  0  0  0  0  0  0  0  0  0  0
  -43.8317   57.6415   65.8914 O   0  0  0  0  0  0  0  0  0  0  0  0
  -43.2802   58.7002   65.7623 C   0  0  0  0  0  0  0  0  0  0  0  0
  -43.9521   59.9415   65.2624 C   0  0  0  0  0  0  0  0  0  0  0  0
  -45.3410   60.1087   65.8704 C   0  0  0  0  0  0  0  0  0  0  0  0
  -46.4393   60.3375   64.8450 C   0  0  0  0  0  0  0  0  0  0  0  0
  -47.0687   59.0491   64.3277 C   0  0  0  0  0  0  0  0  0  0  0  0
  -48.1055   58.4511   65.2604 C   0  0  0  0  0  0  0  0  0  0  0  0
  -48.9659   59.4800   65.9993 C   0  0  0  0  0  0  0  0  0  0  0  0
  -50.4336   59.5310   65.5694 C   0  0  0  0  0  0  0  0  0  0  0  0
  -50.6583   60.4909   64.4397 C   0  0  0  0  0  0  0  0  0  0  0  0
  -50.9746   60.1839   63.1967 C   0  0  0  0  0  0  0  0  0  0  0  0
  -51.1777   58.8052   62.6524 C   0  0  0  0  0  0  0  0  0  0  0  0
  -49.9024   58.2236   62.0492 C   0  0  0  0  0  0  0  0  0  0  0  0
  -50.1534   57.2825   60.8841 C   0  0  0  0  0  0  0  0  0  0  0  0
  -49.9939   57.9396   59.5239 C   0  0  0  0  0  0  0  0  0  0  0  0
  -48.5891   58.4365   59.2256 C   0  0  0  0  0  0  0  0  0  0  0  0
  -47.5628   57.3196   59.1126 C   0  0  0  0  0  0  0  0  0  0  0  0
  -47.5336   56.6361   57.7599 C   0  0  0  0  0  0  0  0  0  0  0  0
  -47.8201   57.5797   56.6253 C   0  0  0  0  0  0  0  0  0  0  0  0
 21 22  1  0  0  0
  4  5  2  0  0  0
 25 24  1  0  0  0
 25 26  2  0  0  0
 25 27  1  0  0  0
 25 29  1  0  0  0
 22 20  1  0  0  0
  3  5  1  0  0  0
  3  2  1  0  0  0
 20 19  1  0  0  0
 24 23  1  0  0  0
 19 18  1  0  0  0
 18 17  1  0  0  0
 27 28  1  0  0  0
 17 16  1  0  0  0
 29 30  1  0  0  0
 16 15  1  0  0  0
 34 35  1  0  0  0
 34 36  1  0  0  0
 15 14  1  0  0  0
 31 32  1  0  0  0
 31 33  1  0  0  0
 14 13  1  0  0  0
 37  1  1  0  0  0
 37 39  1  0  0  0
 13 12  1  0  0  0
 38 39  2  0  0  0
 12 11  1  0  0  0
 11 10  1  0  0  0
 10  9  1  0  0  0
  9  8  1  0  0  0
  8  7  1  0  0  0
  7  6  1  0  0  0
  6  5  1  0  0  0
  2  1  1  0  0  0
  1 23  1  0  0  0
 30 32  1  0  0  0
 32 35  1  0  0  0
 39 40  1  0  0  0
 40 41  1  0  0  0
 41 42  1  0  0  0
 42 43  1  0  0  0
 43 44  1  0  0  0
 44 45  1  0  0  0
 45 46  1  0  0  0
 46 47  1  0  0  0
 47 48  2  0  0  0
 48 49  1  0  0  0
 49 50  1  0  0  0
 50 51  1  0  0  0
 51 52  1  0  0  0
 52 53  1  0  0  0
 53 54  1  0  0  0
 54 55  1  0  0  0
 55 56  1  0  0  0
M  CHG 1  26  -1
M  END
> <minimizedAffinity>
-8.47562

> <CNNscore>
0.3699763417

> <CNNaffinity>
7.2316675186

> <CNN_VS>
2.6755459309

> <CNNaffinity_variance>
0.9682356715

$$$$
/media/chris/experiments/cd1a-new-docking/inputs/ligands/7sh4_ligand.pdb


 56 55  0  0  0  0  0  0  0  0999 V2000
  -40.2146   60.1370   65.1423 C   0  0  0  0  0  0  0  0  0  0  0  0
  -40.4068   58.9743   64.2102 C   0  0  0  0  0  0  0  0  0  0  0  0
  -41.0114   57.9588   65.0387 O   0  0  0  0  0  0  0  0  0  0  0  0
  -41.8403   55.8994   64.7718 O   0  0  0  0  0  0  0  0  0  0  0  0
  -41.7648   57.0469   64.4234 C   0  0  0  0  0  0  0  0  0  0  0  0
  -42.5888   57.6697   63.3335 C   0  0  0  0  0  0  0  0  0  0  0  0
  -43.9552   58.1541   63.7883 C   0  0  0  0  0  0  0  0  0  0  0  0
  -44.2935   57.7152   65.1974 C   0  0  0  0  0  0  0  0  0  0  0  0
  -45.7598   57.8309   65.5470 C   0  0  0  0  0  0  0  0  0  0  0  0
  -46.5058   58.8083   64.6612 C   0  0  0  0  0  0  0  0  0  0  0  0
  -47.1268   59.9501   65.4280 C   0  0  0  0  0  0  0  0  0  0  0  0
  -48.4246   59.5752   66.0934 C   0  0  0  0  0  0  0  0  0  0  0  0
  -49.4742   59.0777   65.1244 C   0  0  0  0  0  0  0  0  0  0  0  0
  -50.5044   60.1355   64.7837 C   0  0  0  0  0  0  0  0  0  0  0  0
  -51.1755   59.9349   63.4412 C   0  0  0  0  0  0  0  0  0  0  0  0
  -50.2051   59.6194   62.3085 C   0  0  0  0  0  0  0  0  0  0  0  0
  -50.4749   58.2972   61.6163 C   0  0  0  0  0  0  0  0  0  0  0  0
  -49.7529   58.1524   60.2924 C   0  0  0  0  0  0  0  0  0  0  0  0
  -49.0253   56.8244   60.1361 C   0  0  0  0  0  0  0  0  0  0  0  0
  -47.9922   56.8249   59.0233 C   0  0  0  0  0  0  0  0  0  0  0  0
  -46.8111   58.1007   57.2031 C   0  0  0  0  0  0  0  0  0  0  0  0
  -47.9531   58.0943   58.1939 C   0  0  0  0  0  0  0  0  0  0  0  0
  -38.8219   60.1777   65.7171 C   0  0  0  0  0  0  0  0  0  0  0  0
  -38.3058   61.5217   65.5911 O   0  0  0  0  0  0  0  0  0  0  0  0
  -37.2968   61.9579   64.4277 P   0  0  0  0  0  0  0  0  0  0  0  0
  -36.0799   61.1255   64.5410 O   0  0  0  0  0  0  0  0  0  0  0  0
  -38.0427   61.9585   63.1462 O   0  0  0  0  0  0  0  0  0  0  0  0
  -38.2996   61.0506   62.9212 H   0  0  0  0  0  0  0  0  0  0  0  0
  -36.8941   63.4645   64.7608 O   0  0  0  0  0  0  0  0  0  0  0  0
  -35.5038   63.8430   64.8213 C   0  0  0  0  0  0  0  0  0  0  0  0
  -36.4054   64.2993   66.9943 O   0  0  0  0  0  0  0  0  0  0  0  0
  -35.2079   64.3466   66.2127 C   0  0  0  0  0  0  0  0  0  0  0  0
  -37.1012   64.8092   66.5509 H   0  0  0  0  0  0  0  0  0  0  0  0
  -34.1509   62.1953   66.4824 O   0  0  0  0  0  0  0  0  0  0  0  0
  -34.1128   63.5572   66.8890 C   0  0  0  0  0  0  0  0  0  0  0  0
  -33.4413   61.7052   66.9267 H   0  0  0  0  0  0  0  0  0  0  0  0
  -41.2327   60.0581   66.1946 O   0  0  0  0  0  0  0  0  0  0  0  0
  -41.8520   62.1313   66.8099 O   0  0  0  0  0  0  0  0  0  0  0  0
  -42.1024   61.0830   66.2807 C   0  0  0  0  0  0  0  0  0  0  0  0
  -43.4095   60.7657   65.6228 C   0  0  0  0  0  0  0  0  0  0  0  0
  -43.9141   61.9383   64.7881 C   0  0  0  0  0  0  0  0  0  0  0  0
  -43.9494   61.6614   63.2940 C   0  0  0  0  0  0  0  0  0  0  0  0
  -42.5670   61.5631   62.6592 C   0  0  0  0  0  0  0  0  0  0  0  0
  -42.5098   62.0564   61.2255 C   0  0  0  0  0  0  0  0  0  0  0  0
  -41.4720   61.3489   60.3496 C   0  0  0  0  0  0  0  0  0  0  0  0
  -41.1471   59.9103   60.7576 C   0  0  0  0  0  0  0  0  0  0  0  0
  -40.6690   59.0885   59.5982 C   0  0  0  0  0  0  0  0  0  0  0  0
  -39.4961   58.4965   59.4832 C   0  0  0  0  0  0  0  0  0  0  0  0
  -38.3924   58.5207   60.4929 C   0  0  0  0  0  0  0  0  0  0  0  0
  -38.5766   57.4682   61.5823 C   0  0  0  0  0  0  0  0  0  0  0  0
  -37.4875   57.4890   62.6404 C   0  0  0  0  0  0  0  0  0  0  0  0
  -36.1398   57.9577   62.1194 C   0  0  0  0  0  0  0  0  0  0  0  0
  -35.0045   57.8502   63.1238 C   0  0  0  0  0  0  0  0  0  0  0  0
  -33.7446   58.5867   62.6948 C   0  0  0  0  0  0  0  0  0  0  0  0
  -32.9698   59.2118   63.8379 C   0  0  0  0  0  0  0  0  0  0  0  0
  -33.2795   58.5782   65.1654 C   0  0  0  0  0  0  0  0  0  0  0  0
 21 22  1  0  0  0
  4  5  2  0  0  0
 25 24  1  0  0  0
 25 26  2  0  0  0
 25 27  1  0  0  0
 25 29  1  0  0  0
 22 20  1  0  0  0
  3  5  1  0  0  0
  3  2  1  0  0  0
 20 19  1  0  0  0
 24 23  1  0  0  0
 19 18  1  0  0  0
 18 17  1  0  0  0
 27 28  1  0  0  0
 17 16  1  0  0  0
 29 30  1  0  0  0
 16 15  1  0  0  0
 34 35  1  0  0  0
 34 36  1  0  0  0
 15 14  1  0  0  0
 31 32  1  0  0  0
 31 33  1  0  0  0
 14 13  1  0  0  0
 37  1  1  0  0  0
 37 39  1  0  0  0
 13 12  1  0  0  0
 38 39  2  0  0  0
 12 11  1  0  0  0
 11 10  1  0  0  0
 10  9  1  0  0  0
  9  8  1  0  0  0
  8  7  1  0  0  0
  7  6  1  0  0  0
  6  5  1  0  0  0
  2  1  1  0  0  0
  1 23  1  0  0  0
 30 32  1  0  0  0
 32 35  1  0  0  0
 39 40  1  0  0  0
 40 41  1  0  0  0
 41 42  1  0  0  0
 42 43  1  0  0  0
 43 44  1  0  0  0
 44 45  1  0  0  0
 45 46  1  0  0  0
 46 47  1  0  0  0
 47 48  2  0  0  0
 48 49  1  0  0  0
 49 50  1  0  0  0
 50 51  1  0  0  0
 51 52  1  0  0  0
 52 53  1  0  0  0
 53 54  1  0  0  0
 54 55  1  0  0  0
 55 56  1  0  0  0
M  CHG 1  26  -1
M  END
> <minimizedAffinity>
-8.56683

> <CNNscore>
0.2984085381

> <CNNaffinity>
7.4224791527

> <CNN_VS>
2.2149312496

> <CNNaffinity_variance>
1.8575963974

$$$$
/media/chris/experiments/cd1a-new-docking/inputs/ligands/7sh4_ligand.pdb


 56 55  0  0  0  0  0  0  0  0999 V2000
  -40.1827   60.0423   64.2105 C   0  0  0  0  0  0  0  0  0  0  0  0
  -40.7965   60.1967   65.5732 C   0  0  0  0  0  0  0  0  0  0  0  0
  -41.6899   61.3210   65.4285 O   0  0  0  0  0  0  0  0  0  0  0  0
  -42.9039   61.4407   67.3024 O   0  0  0  0  0  0  0  0  0  0  0  0
  -42.8325   61.2767   66.1143 C   0  0  0  0  0  0  0  0  0  0  0  0
  -44.0108   61.1233   65.1960 C   0  0  0  0  0  0  0  0  0  0  0  0
  -45.0130   60.0723   65.6428 C   0  0  0  0  0  0  0  0  0  0  0  0
  -45.6719   59.3593   64.4809 C   0  0  0  0  0  0  0  0  0  0  0  0
  -47.1730   59.5286   64.4212 C   0  0  0  0  0  0  0  0  0  0  0  0
  -47.8707   59.0910   65.6932 C   0  0  0  0  0  0  0  0  0  0  0  0
  -49.1205   59.8839   65.9881 C   0  0  0  0  0  0  0  0  0  0  0  0
  -50.3534   59.2964   65.3535 C   0  0  0  0  0  0  0  0  0  0  0  0
  -51.0716   60.2588   64.4337 C   0  0  0  0  0  0  0  0  0  0  0  0
  -50.7308   60.0376   62.9738 C   0  0  0  0  0  0  0  0  0  0  0  0
  -50.9199   58.6104   62.5043 C   0  0  0  0  0  0  0  0  0  0  0  0
  -49.6396   57.9523   62.0025 C   0  0  0  0  0  0  0  0  0  0  0  0
  -49.8297   57.1018   60.7613 C   0  0  0  0  0  0  0  0  0  0  0  0
  -49.9736   57.9144   59.4909 C   0  0  0  0  0  0  0  0  0  0  0  0
  -48.8165   58.8724   59.2448 C   0  0  0  0  0  0  0  0  0  0  0  0
  -47.7906   58.3452   58.2573 C   0  0  0  0  0  0  0  0  0  0  0  0
  -47.6327   56.0163   57.3155 C   0  0  0  0  0  0  0  0  0  0  0  0
  -48.3341   57.3538   57.2459 C   0  0  0  0  0  0  0  0  0  0  0  0
  -38.7002   60.3137   64.2232 C   0  0  0  0  0  0  0  0  0  0  0  0
  -38.4751   61.6858   63.8294 O   0  0  0  0  0  0  0  0  0  0  0  0
  -37.0129   62.2901   63.5874 P   0  0  0  0  0  0  0  0  0  0  0  0
  -36.0229   61.2584   63.9644 O   0  0  0  0  0  0  0  0  0  0  0  0
  -36.9675   62.8537   62.2167 O   0  0  0  0  0  0  0  0  0  0  0  0
  -37.0472   62.1359   61.5691 H   0  0  0  0  0  0  0  0  0  0  0  0
  -36.8794   63.4989   64.6188 O   0  0  0  0  0  0  0  0  0  0  0  0
  -35.6346   64.2187   64.7295 C   0  0  0  0  0  0  0  0  0  0  0  0
  -36.4241   64.2795   66.9913 O   0  0  0  0  0  0  0  0  0  0  0  0
  -35.2418   64.2688   66.1856 C   0  0  0  0  0  0  0  0  0  0  0  0
  -36.9874   65.0242   66.7289 H   0  0  0  0  0  0  0  0  0  0  0  0
  -33.5198   63.4743   67.6762 O   0  0  0  0  0  0  0  0  0  0  0  0
  -34.3521   63.1147   66.5810 C   0  0  0  0  0  0  0  0  0  0  0  0
  -32.9567   62.7215   67.9152 H   0  0  0  0  0  0  0  0  0  0  0  0
  -40.8883   60.9322   63.2830 O   0  0  0  0  0  0  0  0  0  0  0  0
  -42.5244   59.5222   62.6540 O   0  0  0  0  0  0  0  0  0  0  0  0
  -41.7010   60.3518   62.3792 C   0  0  0  0  0  0  0  0  0  0  0  0
  -41.4677   60.8775   60.9967 C   0  0  0  0  0  0  0  0  0  0  0  0
  -40.0640   60.5442   60.5016 C   0  0  0  0  0  0  0  0  0  0  0  0
  -40.0269   59.4581   59.4390 C   0  0  0  0  0  0  0  0  0  0  0  0
  -41.0826   58.3762   59.6358 C   0  0  0  0  0  0  0  0  0  0  0  0
  -40.5598   57.1182   60.3041 C   0  0  0  0  0  0  0  0  0  0  0  0
  -39.8896   57.3498   61.6614 C   0  0  0  0  0  0  0  0  0  0  0  0
  -38.4281   56.9054   61.7506 C   0  0  0  0  0  0  0  0  0  0  0  0
  -37.4771   58.0438   61.5321 C   0  0  0  0  0  0  0  0  0  0  0  0
  -36.3785   58.2947   62.2174 C   0  0  0  0  0  0  0  0  0  0  0  0
  -35.8487   57.4895   63.3615 C   0  0  0  0  0  0  0  0  0  0  0  0
  -34.6029   58.1126   63.9846 C   0  0  0  0  0  0  0  0  0  0  0  0
  -33.4949   58.3906   62.9840 C   0  0  0  0  0  0  0  0  0  0  0  0
  -32.8184   59.7362   63.1813 C   0  0  0  0  0  0  0  0  0  0  0  0
  -31.8172   60.1024   62.0984 C   0  0  0  0  0  0  0  0  0  0  0  0
  -31.7599   61.5940   61.8058 C   0  0  0  0  0  0  0  0  0  0  0  0
  -32.7593   62.4206   62.5904 C   0  0  0  0  0  0  0  0  0  0  0  0
  -33.1941   63.6582   61.8562 C   0  0  0  0  0  0  0  0  0  0  0  0
 21 22  1  0  0  0
  4  5  2  0  0  0
 25 24  1  0  0  0
 25 26  2  0  0  0
 25 27  1  0  0  0
 25 29  1  0  0  0
 22 20  1  0  0  0
  3  5  1  0  0  0
  3  2  1  0  0  0
 20 19  1  0  0  0
 24 23  1  0  0  0
 19 18  1  0  0  0
 18 17  1  0  0  0
 27 28  1  0  0  0
 17 16  1  0  0  0
 29 30  1  0  0  0
 16 15  1  0  0  0
 34 35  1  0  0  0
 34 36  1  0  0  0
 15 14  1  0  0  0
 31 32  1  0  0  0
 31 33  1  0  0  0
 14 13  1  0  0  0
 37  1  1  0  0  0
 37 39  1  0  0  0
 13 12  1  0  0  0
 38 39  2  0  0  0
 12 11  1  0  0  0
 11 10  1  0  0  0
 10  9  1  0  0  0
  9  8  1  0  0  0
  8  7  1  0  0  0
  7  6  1  0  0  0
  6  5  1  0  0  0
  2  1  1  0  0  0
  1 23  1  0  0  0
 30 32  1  0  0  0
 32 35  1  0  0  0
 39 40  1  0  0  0
 40 41  1  0  0  0
 41 42  1  0  0  0
 42 43  1  0  0  0
 43 44  1  0  0  0
 44 45  1  0  0  0
 45 46  1  0  0  0
 46 47  1  0  0  0
 47 48  2  0  0  0
 48 49  1  0  0  0
 49 50  1  0  0  0
 50 51  1  0  0  0
 51 52  1  0  0  0
 52 53  1  0  0  0
 53 54  1  0  0  0
 54 55  1  0  0  0
 55 56  1  0  0  0
M  CHG 1  26  -1
M  END
> <minimizedAffinity>
-8.62318

> <CNNscore>
0.2981540561

> <CNNaffinity>
7.1257581711

> <CNN_VS>
2.1245737076

> <CNNaffinity_variance>
0.9703176618

$$$$
/media/chris/experiments/cd1a-new-docking/inputs/ligands/7sh4_ligand.pdb


 56 55  0  0  0  0  0  0  0  0999 V2000
  -40.1963   60.9493   63.2923 C   0  0  0  0  0  0  0  0  0  0  0  0
  -41.1862   60.5666   62.2287 C   0  0  0  0  0  0  0  0  0  0  0  0
  -41.6060   59.2377   62.6043 O   0  0  0  0  0  0  0  0  0  0  0  0
  -41.8229   57.1423   61.8545 O   0  0  0  0  0  0  0  0  0  0  0  0
  -41.5102   58.2882   61.6730 C   0  0  0  0  0  0  0  0  0  0  0  0
  -41.0857   58.8640   60.3527 C   0  0  0  0  0  0  0  0  0  0  0  0
  -40.0200   58.0525   59.6357 C   0  0  0  0  0  0  0  0  0  0  0  0
  -38.6151   58.4248   60.0601 C   0  0  0  0  0  0  0  0  0  0  0  0
  -38.1454   57.7346   61.3205 C   0  0  0  0  0  0  0  0  0  0  0  0
  -36.7964   58.2301   61.8011 C   0  0  0  0  0  0  0  0  0  0  0  0
  -36.5229   57.8988   63.2478 C   0  0  0  0  0  0  0  0  0  0  0  0
  -35.0718   57.6014   63.5192 C   0  0  0  0  0  0  0  0  0  0  0  0
  -34.5210   58.3427   64.7171 C   0  0  0  0  0  0  0  0  0  0  0  0
  -33.2064   59.0365   64.4224 C   0  0  0  0  0  0  0  0  0  0  0  0
  -32.6303   58.7155   63.0593 C   0  0  0  0  0  0  0  0  0  0  0  0
  -32.3841   59.9435   62.1899 C   0  0  0  0  0  0  0  0  0  0  0  0
  -31.0884   60.6680   62.4997 C   0  0  0  0  0  0  0  0  0  0  0  0
  -31.1917   62.1729   62.3595 C   0  0  0  0  0  0  0  0  0  0  0  0
  -32.6055   62.7072   62.5416 C   0  0  0  0  0  0  0  0  0  0  0  0
  -33.0453   63.6515   61.4369 C   0  0  0  0  0  0  0  0  0  0  0  0
  -33.3561   65.1835   63.4097 C   0  0  0  0  0  0  0  0  0  0  0  0
  -33.4393   65.0388   61.9071 C   0  0  0  0  0  0  0  0  0  0  0  0
  -38.8128   61.1547   62.7304 C   0  0  0  0  0  0  0  0  0  0  0  0
  -38.0875   62.0548   63.5978 O   0  0  0  0  0  0  0  0  0  0  0  0
  -36.5963   62.5459   63.2863 P   0  0  0  0  0  0  0  0  0  0  0  0
  -35.7274   61.3518   63.2102 O   0  0  0  0  0  0  0  0  0  0  0  0
  -36.6466   63.4656   62.1242 O   0  0  0  0  0  0  0  0  0  0  0  0
  -36.9133   62.9722   61.3328 H   0  0  0  0  0  0  0  0  0  0  0  0
  -36.1555   63.3935   64.5631 O   0  0  0  0  0  0  0  0  0  0  0  0
  -36.6827   63.0646   65.8645 C   0  0  0  0  0  0  0  0  0  0  0  0
  -36.0526   63.0157   68.1761 O   0  0  0  0  0  0  0  0  0  0  0  0
  -35.7389   63.6051   66.9107 C   0  0  0  0  0  0  0  0  0  0  0  0
  -36.9840   63.1831   68.3888 H   0  0  0  0  0  0  0  0  0  0  0  0
  -33.4795   63.4001   67.7299 O   0  0  0  0  0  0  0  0  0  0  0  0
  -34.2911   63.3539   66.5634 C   0  0  0  0  0  0  0  0  0  0  0  0
  -32.5546   63.2369   67.4869 H   0  0  0  0  0  0  0  0  0  0  0  0
  -40.2109   59.9140   64.3305 O   0  0  0  0  0  0  0  0  0  0  0  0
  -40.0625   61.2188   66.1569 O   0  0  0  0  0  0  0  0  0  0  0  0
  -40.5654   60.2989   65.5716 C   0  0  0  0  0  0  0  0  0  0  0  0
  -41.6720   59.4558   66.1252 C   0  0  0  0  0  0  0  0  0  0  0  0
  -43.0398   60.0574   65.8189 C   0  0  0  0  0  0  0  0  0  0  0  0
  -44.1576   59.0317   65.7262 C   0  0  0  0  0  0  0  0  0  0  0  0
  -45.0649   59.2260   64.5169 C   0  0  0  0  0  0  0  0  0  0  0  0
  -45.9527   60.4536   64.6025 C   0  0  0  0  0  0  0  0  0  0  0  0
  -47.4533   60.1615   64.5144 C   0  0  0  0  0  0  0  0  0  0  0  0
  -48.2127   60.2477   65.8401 C   0  0  0  0  0  0  0  0  0  0  0  0
  -49.3638   59.2886   65.8951 C   0  0  0  0  0  0  0  0  0  0  0  0
  -50.5202   59.4100   65.2727 C   0  0  0  0  0  0  0  0  0  0  0  0
  -50.9257   60.5363   64.3754 C   0  0  0  0  0  0  0  0  0  0  0  0
  -50.7728   60.1876   62.8977 C   0  0  0  0  0  0  0  0  0  0  0  0
  -51.1052   58.7414   62.5751 C   0  0  0  0  0  0  0  0  0  0  0  0
  -49.9323   57.9569   62.0128 C   0  0  0  0  0  0  0  0  0  0  0  0
  -50.1559   57.4060   60.6142 C   0  0  0  0  0  0  0  0  0  0  0  0
  -49.0343   56.4971   60.1348 C   0  0  0  0  0  0  0  0  0  0  0  0
  -47.8330   57.2334   59.5757 C   0  0  0  0  0  0  0  0  0  0  0  0
  -48.2017   58.2120   58.4958 C   0  0  0  0  0  0  0  0  0  0  0  0
 21 22  1  0  0  0
  4  5  2  0  0  0
 25 24  1  0  0  0
 25 26  2  0  0  0
 25 27  1  0  0  0
 25 29  1  0  0  0
 22 20  1  0  0  0
  3  5  1  0  0  0
  3  2  1  0  0  0
 20 19  1  0  0  0
 24 23  1  0  0  0
 19 18  1  0  0  0
 18 17  1  0  0  0
 27 28  1  0  0  0
 17 16  1  0  0  0
 29 30  1  0  0  0
 16 15  1  0  0  0
 34 35  1  0  0  0
 34 36  1  0  0  0
 15 14  1  0  0  0
 31 32  1  0  0  0
 31 33  1  0  0  0
 14 13  1  0  0  0
 37  1  1  0  0  0
 37 39  1  0  0  0
 13 12  1  0  0  0
 38 39  2  0  0  0
 12 11  1  0  0  0
 11 10  1  0  0  0
 10  9  1  0  0  0
  9  8  1  0  0  0
  8  7  1  0  0  0
  7  6  1  0  0  0
  6  5  1  0  0  0
  2  1  1  0  0  0
  1 23  1  0  0  0
 30 32  1  0  0  0
 32 35  1  0  0  0
 39 40  1  0  0  0
 40 41  1  0  0  0
 41 42  1  0  0  0
 42 43  1  0  0  0
 43 44  1  0  0  0
 44 45  1  0  0  0
 45 46  1  0  0  0
 46 47  1  0  0  0
 47 48  2  0  0  0
 48 49  1  0  0  0
 49 50  1  0  0  0
 50 51  1  0  0  0
 51 52  1  0  0  0
 52 53  1  0  0  0
 53 54  1  0  0  0
 54 55  1  0  0  0
 55 56  1  0  0  0
M  CHG 1  26  -1
M  END
> <minimizedAffinity>
-8.51485

> <CNNscore>
0.2842250764

> <CNNaffinity>
7.0252060890

> <CNN_VS>
1.9967397451

> <CNNaffinity_variance>
1.1129300594

$$$$
/media/chris/experiments/cd1a-new-docking/inputs/ligands/7sh4_ligand.pdb


 56 55  0  0  0  0  0  0  0  0999 V2000
  -39.0735   61.2719   63.5650 C   0  0  0  0  0  0  0  0  0  0  0  0
  -40.2035   60.9153   62.6411 C   0  0  0  0  0  0  0  0  0  0  0  0
  -41.2206   61.8950   62.9391 O   0  0  0  0  0  0  0  0  0  0  0  0
  -42.8196   62.1859   61.4034 O   0  0  0  0  0  0  0  0  0  0  0  0
  -42.4322   61.6837   62.4239 C   0  0  0  0  0  0  0  0  0  0  0  0
  -43.1848   60.6514   63.2131 C   0  0  0  0  0  0  0  0  0  0  0  0
  -43.9150   61.2069   64.4242 C   0  0  0  0  0  0  0  0  0  0  0  0
  -45.4135   61.0038   64.3493 C   0  0  0  0  0  0  0  0  0  0  0  0
  -45.9781   60.1435   65.4569 C   0  0  0  0  0  0  0  0  0  0  0  0
  -46.3619   58.7534   64.9917 C   0  0  0  0  0  0  0  0  0  0  0  0
  -47.7659   58.3624   65.3835 C   0  0  0  0  0  0  0  0  0  0  0  0
  -48.6417   59.5474   65.6941 C   0  0  0  0  0  0  0  0  0  0  0  0
  -50.1070   59.3016   65.4103 C   0  0  0  0  0  0  0  0  0  0  0  0
  -50.6809   60.2809   64.4064 C   0  0  0  0  0  0  0  0  0  0  0  0
  -51.1743   59.6371   63.1277 C   0  0  0  0  0  0  0  0  0  0  0  0
  -50.3340   58.4496   62.6718 C   0  0  0  0  0  0  0  0  0  0  0  0
  -50.8565   57.7689   61.4214 C   0  0  0  0  0  0  0  0  0  0  0  0
  -50.3576   58.4015   60.1384 C   0  0  0  0  0  0  0  0  0  0  0  0
  -49.5319   57.4589   59.2740 C   0  0  0  0  0  0  0  0  0  0  0  0
  -48.1889   58.0337   58.8599 C   0  0  0  0  0  0  0  0  0  0  0  0
  -47.5162   56.1461   57.3367 C   0  0  0  0  0  0  0  0  0  0  0  0
  -47.1317   56.9988   58.5244 C   0  0  0  0  0  0  0  0  0  0  0  0
  -37.7753   61.4642   62.8238 C   0  0  0  0  0  0  0  0  0  0  0  0
  -37.4099   62.8613   62.8804 O   0  0  0  0  0  0  0  0  0  0  0  0
  -35.9073   63.3557   63.1245 P   0  0  0  0  0  0  0  0  0  0  0  0
  -35.0439   62.1602   63.2337 O   0  0  0  0  0  0  0  0  0  0  0  0
  -35.5847   64.3759   62.0980 O   0  0  0  0  0  0  0  0  0  0  0  0
  -35.5672   63.9592   61.2222 H   0  0  0  0  0  0  0  0  0  0  0  0
  -35.9263   64.0792   64.5453 O   0  0  0  0  0  0  0  0  0  0  0  0
  -34.8166   63.9175   65.4522 C   0  0  0  0  0  0  0  0  0  0  0  0
  -36.1283   64.2952   67.4219 O   0  0  0  0  0  0  0  0  0  0  0  0
  -35.3355   63.3205   66.7373 C   0  0  0  0  0  0  0  0  0  0  0  0
  -35.6016   65.0967   67.5664 H   0  0  0  0  0  0  0  0  0  0  0  0
  -37.4651   62.3853   66.0983 O   0  0  0  0  0  0  0  0  0  0  0  0
  -36.1406   62.0647   66.5038 C   0  0  0  0  0  0  0  0  0  0  0  0
  -37.9658   61.5672   65.9535 H   0  0  0  0  0  0  0  0  0  0  0  0
  -38.9643   60.2252   64.5860 O   0  0  0  0  0  0  0  0  0  0  0  0
  -40.2542   61.0484   66.2347 O   0  0  0  0  0  0  0  0  0  0  0  0
  -39.9566   60.1518   65.4937 C   0  0  0  0  0  0  0  0  0  0  0  0
  -40.6545   58.8276   65.4553 C   0  0  0  0  0  0  0  0  0  0  0  0
  -41.8941   58.8232   66.3441 C   0  0  0  0  0  0  0  0  0  0  0  0
  -42.9089   57.7515   65.9812 C   0  0  0  0  0  0  0  0  0  0  0  0
  -42.8843   57.3622   64.5076 C   0  0  0  0  0  0  0  0  0  0  0  0
  -42.1625   56.0576   64.2261 C   0  0  0  0  0  0  0  0  0  0  0  0
  -41.3521   56.0459   62.9268 C   0  0  0  0  0  0  0  0  0  0  0  0
  -41.5580   57.2607   62.0195 C   0  0  0  0  0  0  0  0  0  0  0  0
  -41.4092   56.9138   60.5684 C   0  0  0  0  0  0  0  0  0  0  0  0
  -41.1679   57.7520   59.5792 C   0  0  0  0  0  0  0  0  0  0  0  0
  -40.9899   59.2325   59.7003 C   0  0  0  0  0  0  0  0  0  0  0  0
  -39.5349   59.6598   59.5307 C   0  0  0  0  0  0  0  0  0  0  0  0
  -38.5519   58.5027   59.5629 C   0  0  0  0  0  0  0  0  0  0  0  0
  -37.5642   58.5732   60.7147 C   0  0  0  0  0  0  0  0  0  0  0  0
  -37.9418   57.7289   61.9205 C   0  0  0  0  0  0  0  0  0  0  0  0
  -36.8385   57.6347   62.9634 C   0  0  0  0  0  0  0  0  0  0  0  0
  -35.5376   58.2966   62.5542 C   0  0  0  0  0  0  0  0  0  0  0  0
  -34.5301   58.3374   63.6690 C   0  0  0  0  0  0  0  0  0  0  0  0
 21 22  1  0  0  0
  4  5  2  0  0  0
 25 24  1  0  0  0
 25 26  2  0  0  0
 25 27  1  0  0  0
 25 29  1  0  0  0
 22 20  1  0  0  0
  3  5  1  0  0  0
  3  2  1  0  0  0
 20 19  1  0  0  0
 24 23  1  0  0  0
 19 18  1  0  0  0
 18 17  1  0  0  0
 27 28  1  0  0  0
 17 16  1  0  0  0
 29 30  1  0  0  0
 16 15  1  0  0  0
 34 35  1  0  0  0
 34 36  1  0  0  0
 15 14  1  0  0  0
 31 32  1  0  0  0
 31 33  1  0  0  0
 14 13  1  0  0  0
 37  1  1  0  0  0
 37 39  1  0  0  0
 13 12  1  0  0  0
 38 39  2  0  0  0
 12 11  1  0  0  0
 11 10  1  0  0  0
 10  9  1  0  0  0
  9  8  1  0  0  0
  8  7  1  0  0  0
  7  6  1  0  0  0
  6  5  1  0  0  0
  2  1  1  0  0  0
  1 23  1  0  0  0
 30 32  1  0  0  0
 32 35  1  0  0  0
 39 40  1  0  0  0
 40 41  1  0  0  0
 41 42  1  0  0  0
 42 43  1  0  0  0
 43 44  1  0  0  0
 44 45  1  0  0  0
 45 46  1  0  0  0
 46 47  1  0  0  0
 47 48  2  0  0  0
 48 49  1  0  0  0
 49 50  1  0  0  0
 50 51  1  0  0  0
 51 52  1  0  0  0
 52 53  1  0  0  0
 53 54  1  0  0  0
 54 55  1  0  0  0
 55 56  1  0  0  0
M  CHG 1  26  -1
M  END
> <minimizedAffinity>
-8.70783

> <CNNscore>
0.2757570744

> <CNNaffinity>
7.5124549866

> <CNN_VS>
2.0716125965

> <CNNaffinity_variance>
1.5838981867

$$$$
