/media/chris/experiments/cd1a-new-docking/inputs/ligands/7sh4_ligand.pdb


 56 55  0  0  0  0  0  0  0  0999 V2000
  -40.4397   60.1057   64.8296 C   0  0  0  0  0  0  0  0  0  0  0  0
  -41.0119   60.6663   63.5584 C   0  0  0  0  0  0  0  0  0  0  0  0
  -41.7888   61.8013   63.9958 O   0  0  0  0  0  0  0  0  0  0  0  0
  -42.7406   61.7809   66.0188 O   0  0  0  0  0  0  0  0  0  0  0  0
  -42.7922   61.5576   64.8394 C   0  0  0  0  0  0  0  0  0  0  0  0
  -44.0173   61.0932   64.1058 C   0  0  0  0  0  0  0  0  0  0  0  0
  -45.0688   60.4534   64.9965 C   0  0  0  0  0  0  0  0  0  0  0  0
  -45.6152   59.1624   64.4242 C   0  0  0  0  0  0  0  0  0  0  0  0
  -46.9030   58.6971   65.0650 C   0  0  0  0  0  0  0  0  0  0  0  0
  -47.3528   59.5862   66.2066 C   0  0  0  0  0  0  0  0  0  0  0  0
  -48.7026   60.2186   65.9707 C   0  0  0  0  0  0  0  0  0  0  0  0
  -49.6851   59.2823   65.3182 C   0  0  0  0  0  0  0  0  0  0  0  0
  -50.9032   59.9840   64.7596 C   0  0  0  0  0  0  0  0  0  0  0  0
  -51.1430   59.6658   63.2976 C   0  0  0  0  0  0  0  0  0  0  0  0
  -50.0784   58.7881   62.6735 C   0  0  0  0  0  0  0  0  0  0  0  0
  -49.1465   59.5314   61.7232 C   0  0  0  0  0  0  0  0  0  0  0  0
  -49.5468   59.4313   60.2638 C   0  0  0  0  0  0  0  0  0  0  0  0
  -49.6171   58.0059   59.7553 C   0  0  0  0  0  0  0  0  0  0  0  0
  -48.3361   57.2143   59.9786 C   0  0  0  0  0  0  0  0  0  0  0  0
  -47.7455   56.6414   58.7026 C   0  0  0  0  0  0  0  0  0  0  0  0
  -47.0016   58.4777   57.1502 C   0  0  0  0  0  0  0  0  0  0  0  0
  -48.0553   57.4351   57.4476 C   0  0  0  0  0  0  0  0  0  0  0  0
  -39.0294   60.5787   65.0726 C   0  0  0  0  0  0  0  0  0  0  0  0
  -38.7191   61.6233   64.1234 O   0  0  0  0  0  0  0  0  0  0  0  0
  -37.2324   62.1671   63.8873 P   0  0  0  0  0  0  0  0  0  0  0  0
  -36.3369   61.0003   63.7344 O   0  0  0  0  0  0  0  0  0  0  0  0
  -37.2773   63.1775   62.8030 O   0  0  0  0  0  0  0  0  0  0  0  0
  -37.5164   62.7455   61.9681 H   0  0  0  0  0  0  0  0  0  0  0  0
  -36.8370   62.9158   65.2385 O   0  0  0  0  0  0  0  0  0  0  0  0
  -35.4490   63.1416   65.5587 C   0  0  0  0  0  0  0  0  0  0  0  0
  -36.1471   64.0117   67.6795 O   0  0  0  0  0  0  0  0  0  0  0  0
  -35.3649   64.3036   66.5177 C   0  0  0  0  0  0  0  0  0  0  0  0
  -37.0579   63.8096   67.4138 H   0  0  0  0  0  0  0  0  0  0  0  0
  -33.4274   63.6193   67.7809 O   0  0  0  0  0  0  0  0  0  0  0  0
  -33.9427   64.6209   66.9131 C   0  0  0  0  0  0  0  0  0  0  0  0
  -32.5146   63.8402   68.0235 H   0  0  0  0  0  0  0  0  0  0  0  0
  -40.5168   58.6429   64.7647 O   0  0  0  0  0  0  0  0  0  0  0  0
  -42.3599   58.2071   65.9784 O   0  0  0  0  0  0  0  0  0  0  0  0
  -41.7264   58.0856   64.9657 C   0  0  0  0  0  0  0  0  0  0  0  0
  -42.1935   57.3138   63.7707 C   0  0  0  0  0  0  0  0  0  0  0  0
  -41.0843   56.4314   63.2068 C   0  0  0  0  0  0  0  0  0  0  0  0
  -41.0225   56.4141   61.6882 C   0  0  0  0  0  0  0  0  0  0  0  0
  -42.0544   57.3196   61.0257 C   0  0  0  0  0  0  0  0  0  0  0  0
  -41.4712   58.2693   59.9959 C   0  0  0  0  0  0  0  0  0  0  0  0
  -40.0528   57.9188   59.5376 C   0  0  0  0  0  0  0  0  0  0  0  0
  -39.0958   59.1065   59.4139 C   0  0  0  0  0  0  0  0  0  0  0  0
  -37.6874   58.7366   59.7709 C   0  0  0  0  0  0  0  0  0  0  0  0
  -37.2317   58.4391   60.9722 C   0  0  0  0  0  0  0  0  0  0  0  0
  -38.0312   58.4069   62.2364 C   0  0  0  0  0  0  0  0  0  0  0  0
  -37.2606   57.7847   63.3972 C   0  0  0  0  0  0  0  0  0  0  0  0
  -35.7548   57.7883   63.2005 C   0  0  0  0  0  0  0  0  0  0  0  0
  -34.9700   57.8235   64.5005 C   0  0  0  0  0  0  0  0  0  0  0  0
  -33.7523   58.7324   64.4766 C   0  0  0  0  0  0  0  0  0  0  0  0
  -32.6767   58.2785   63.5017 C   0  0  0  0  0  0  0  0  0  0  0  0
  -31.8196   59.4022   62.9536 C   0  0  0  0  0  0  0  0  0  0  0  0
  -32.5658   60.7025   62.8445 C   0  0  0  0  0  0  0  0  0  0  0  0
 21 22  1  0  0  0
  4  5  2  0  0  0
 25 24  1  0  0  0
 25 26  2  0  0  0
 25 27  1  0  0  0
 25 29  1  0  0  0
 22 20  1  0  0  0
  3  5  1  0  0  0
  3  2  1  0  0  0
 20 19  1  0  0  0
 24 23  1  0  0  0
 19 18  1  0  0  0
 18 17  1  0  0  0
 27 28  1  0  0  0
 17 16  1  0  0  0
 29 30  1  0  0  0
 16 15  1  0  0  0
 34 35  1  0  0  0
 34 36  1  0  0  0
 15 14  1  0  0  0
 31 32  1  0  0  0
 31 33  1  0  0  0
 14 13  1  0  0  0
 37  1  1  0  0  0
 37 39  1  0  0  0
 13 12  1  0  0  0
 38 39  2  0  0  0
 12 11  1  0  0  0
 11 10  1  0  0  0
 10  9  1  0  0  0
  9  8  1  0  0  0
  8  7  1  0  0  0
  7  6  1  0  0  0
  6  5  1  0  0  0
  2  1  1  0  0  0
  1 23  1  0  0  0
 30 32  1  0  0  0
 32 35  1  0  0  0
 39 40  1  0  0  0
 40 41  1  0  0  0
 41 42  1  0  0  0
 42 43  1  0  0  0
 43 44  1  0  0  0
 44 45  1  0  0  0
 45 46  1  0  0  0
 46 47  1  0  0  0
 47 48  2  0  0  0
 48 49  1  0  0  0
 49 50  1  0  0  0
 50 51  1  0  0  0
 51 52  1  0  0  0
 52 53  1  0  0  0
 53 54  1  0  0  0
 54 55  1  0  0  0
 55 56  1  0  0  0
M  CHG 1  26  -1
M  END
> <minimizedAffinity>
-8.67569

> <CNNscore>
0.4992726743

> <CNNaffinity>
7.5799779892

> <CNN_VS>
3.7844758034

> <CNNaffinity_variance>
1.2438209057

$$$$
/media/chris/experiments/cd1a-new-docking/inputs/ligands/7sh4_ligand.pdb


 56 55  0  0  0  0  0  0  0  0999 V2000
  -40.0636   60.3194   64.5876 C   0  0  0  0  0  0  0  0  0  0  0  0
  -41.0400   60.3895   65.7275 C   0  0  0  0  0  0  0  0  0  0  0  0
  -41.3116   59.0069   66.0402 O   0  0  0  0  0  0  0  0  0  0  0  0
  -41.8270   57.4663   64.5040 O   0  0  0  0  0  0  0  0  0  0  0  0
  -42.1561   58.3603   65.2361 C   0  0  0  0  0  0  0  0  0  0  0  0
  -43.5711   58.8096   65.4611 C   0  0  0  0  0  0  0  0  0  0  0  0
  -44.4781   57.7371   66.0405 C   0  0  0  0  0  0  0  0  0  0  0  0
  -45.9438   58.1113   65.9762 C   0  0  0  0  0  0  0  0  0  0  0  0
  -46.3079   58.9890   64.8003 C   0  0  0  0  0  0  0  0  0  0  0  0
  -47.3901   59.9985   65.1259 C   0  0  0  0  0  0  0  0  0  0  0  0
  -48.6558   59.3644   65.6488 C   0  0  0  0  0  0  0  0  0  0  0  0
  -49.4831   58.7226   64.5666 C   0  0  0  0  0  0  0  0  0  0  0  0
  -50.7105   59.5243   64.1940 C   0  0  0  0  0  0  0  0  0  0  0  0
  -50.6785   60.0110   62.7593 C   0  0  0  0  0  0  0  0  0  0  0  0
  -49.4211   59.6312   62.0058 C   0  0  0  0  0  0  0  0  0  0  0  0
  -49.5831   59.6461   60.4899 C   0  0  0  0  0  0  0  0  0  0  0  0
  -50.1814   58.3735   59.9217 C   0  0  0  0  0  0  0  0  0  0  0  0
  -49.7274   57.1208   60.6426 C   0  0  0  0  0  0  0  0  0  0  0  0
  -48.6932   56.3133   59.8707 C   0  0  0  0  0  0  0  0  0  0  0  0
  -48.4457   56.8290   58.4643 C   0  0  0  0  0  0  0  0  0  0  0  0
  -46.9456   58.3607   57.1455 C   0  0  0  0  0  0  0  0  0  0  0  0
  -47.0208   57.2726   58.1924 C   0  0  0  0  0  0  0  0  0  0  0  0
  -38.6768   60.7384   65.0035 C   0  0  0  0  0  0  0  0  0  0  0  0
  -38.3101   61.9273   64.2683 O   0  0  0  0  0  0  0  0  0  0  0  0
  -36.7893   62.3322   63.9766 P   0  0  0  0  0  0  0  0  0  0  0  0
  -36.1174   62.5539   65.2752 O   0  0  0  0  0  0  0  0  0  0  0  0
  -36.2177   61.3350   63.0400 O   0  0  0  0  0  0  0  0  0  0  0  0
  -36.1623   60.4724   63.4801 H   0  0  0  0  0  0  0  0  0  0  0  0
  -36.8632   63.7321   63.2167 O   0  0  0  0  0  0  0  0  0  0  0  0
  -35.9721   64.0031   62.1155 C   0  0  0  0  0  0  0  0  0  0  0  0
  -37.0277   66.1085   62.5576 O   0  0  0  0  0  0  0  0  0  0  0  0
  -35.9057   65.4971   61.9140 C   0  0  0  0  0  0  0  0  0  0  0  0
  -37.8480   65.7199   62.2157 H   0  0  0  0  0  0  0  0  0  0  0  0
  -33.5900   65.9952   61.4581 O   0  0  0  0  0  0  0  0  0  0  0  0
  -34.6189   66.0908   62.4349 C   0  0  0  0  0  0  0  0  0  0  0  0
  -32.7728   66.3810   61.8104 H   0  0  0  0  0  0  0  0  0  0  0  0
  -40.5740   61.1484   63.4912 O   0  0  0  0  0  0  0  0  0  0  0  0
  -42.0039   60.0135   62.1768 O   0  0  0  0  0  0  0  0  0  0  0  0
  -40.9266   60.5120   62.3577 C   0  0  0  0  0  0  0  0  0  0  0  0
  -39.8233   60.5169   61.3456 C   0  0  0  0  0  0  0  0  0  0  0  0
  -40.2829   59.9299   60.0148 C   0  0  0  0  0  0  0  0  0  0  0  0
  -39.7833   58.5174   59.7588 C   0  0  0  0  0  0  0  0  0  0  0  0
  -38.4463   58.2136   60.4248 C   0  0  0  0  0  0  0  0  0  0  0  0
  -38.5473   57.2716   61.6102 C   0  0  0  0  0  0  0  0  0  0  0  0
  -37.7814   57.7297   62.8546 C   0  0  0  0  0  0  0  0  0  0  0  0
  -36.2666   57.8552   62.6777 C   0  0  0  0  0  0  0  0  0  0  0  0
  -35.5638   58.0950   63.9802 C   0  0  0  0  0  0  0  0  0  0  0  0
  -34.2644   58.2311   64.1605 C   0  0  0  0  0  0  0  0  0  0  0  0
  -33.2151   58.1759   63.0956 C   0  0  0  0  0  0  0  0  0  0  0  0
  -32.2052   59.3138   63.2135 C   0  0  0  0  0  0  0  0  0  0  0  0
  -32.1104   60.1759   61.9669 C   0  0  0  0  0  0  0  0  0  0  0  0
  -31.8593   61.6451   62.2592 C   0  0  0  0  0  0  0  0  0  0  0  0
  -32.8294   62.2645   63.2515 C   0  0  0  0  0  0  0  0  0  0  0  0
  -32.3318   63.5715   63.8498 C   0  0  0  0  0  0  0  0  0  0  0  0
  -32.9600   63.9242   65.1834 C   0  0  0  0  0  0  0  0  0  0  0  0
  -32.2179   65.0138   65.9057 C   0  0  0  0  0  0  0  0  0  0  0  0
 21 22  1  0  0  0
  4  5  2  0  0  0
 25 24  1  0  0  0
 25 26  2  0  0  0
 25 27  1  0  0  0
 25 29  1  0  0  0
 22 20  1  0  0  0
  3  5  1  0  0  0
  3  2  1  0  0  0
 20 19  1  0  0  0
 24 23  1  0  0  0
 19 18  1  0  0  0
 18 17  1  0  0  0
 27 28  1  0  0  0
 17 16  1  0  0  0
 29 30  1  0  0  0
 16 15  1  0  0  0
 34 35  1  0  0  0
 34 36  1  0  0  0
 15 14  1  0  0  0
 31 32  1  0  0  0
 31 33  1  0  0  0
 14 13  1  0  0  0
 37  1  1  0  0  0
 37 39  1  0  0  0
 13 12  1  0  0  0
 38 39  2  0  0  0
 12 11  1  0  0  0
 11 10  1  0  0  0
 10  9  1  0  0  0
  9  8  1  0  0  0
  8  7  1  0  0  0
  7  6  1  0  0  0
  6  5  1  0  0  0
  2  1  1  0  0  0
  1 23  1  0  0  0
 30 32  1  0  0  0
 32 35  1  0  0  0
 39 40  1  0  0  0
 40 41  1  0  0  0
 41 42  1  0  0  0
 42 43  1  0  0  0
 43 44  1  0  0  0
 44 45  1  0  0  0
 45 46  1  0  0  0
 46 47  1  0  0  0
 47 48  2  0  0  0
 48 49  1  0  0  0
 49 50  1  0  0  0
 50 51  1  0  0  0
 51 52  1  0  0  0
 52 53  1  0  0  0
 53 54  1  0  0  0
 54 55  1  0  0  0
 55 56  1  0  0  0
M  CHG 1  26  -1
M  END
> <minimizedAffinity>
-7.86668

> <CNNscore>
0.4879643023

> <CNNaffinity>
7.3470687866

> <CNN_VS>
3.5851073265

> <CNNaffinity_variance>
0.5905894041

$$$$
/media/chris/experiments/cd1a-new-docking/inputs/ligands/7sh4_ligand.pdb


 56 55  0  0  0  0  0  0  0  0999 V2000
  -40.2262   60.0731   64.9562 C   0  0  0  0  0  0  0  0  0  0  0  0
  -41.2918   59.5663   65.8864 C   0  0  0  0  0  0  0  0  0  0  0  0
  -41.5951   58.2475   65.3846 O   0  0  0  0  0  0  0  0  0  0  0  0
  -43.2586   58.0508   63.9037 O   0  0  0  0  0  0  0  0  0  0  0  0
  -42.8600   58.0097   65.0363 C   0  0  0  0  0  0  0  0  0  0  0  0
  -43.6741   57.5670   66.2179 C   0  0  0  0  0  0  0  0  0  0  0  0
  -45.1207   58.0302   66.1835 C   0  0  0  0  0  0  0  0  0  0  0  0
  -45.2608   59.5284   66.3521 C   0  0  0  0  0  0  0  0  0  0  0  0
  -45.8919   60.2283   65.1700 C   0  0  0  0  0  0  0  0  0  0  0  0
  -47.3011   59.7518   64.8814 C   0  0  0  0  0  0  0  0  0  0  0  0
  -48.2189   59.8544   66.0750 C   0  0  0  0  0  0  0  0  0  0  0  0
  -49.6738   59.9295   65.6938 C   0  0  0  0  0  0  0  0  0  0  0  0
  -49.9033   60.4919   64.3084 C   0  0  0  0  0  0  0  0  0  0  0  0
  -51.1773   59.9757   63.6708 C   0  0  0  0  0  0  0  0  0  0  0  0
  -50.9562   58.8873   62.6415 C   0  0  0  0  0  0  0  0  0  0  0  0
  -49.5798   58.9284   61.9874 C   0  0  0  0  0  0  0  0  0  0  0  0
  -49.5601   59.6161   60.6358 C   0  0  0  0  0  0  0  0  0  0  0  0
  -48.9989   58.7493   59.5274 C   0  0  0  0  0  0  0  0  0  0  0  0
  -49.4221   57.2899   59.6203 C   0  0  0  0  0  0  0  0  0  0  0  0
  -48.2685   56.3126   59.4812 C   0  0  0  0  0  0  0  0  0  0  0  0
  -47.2378   56.3952   57.1864 C   0  0  0  0  0  0  0  0  0  0  0  0
  -47.1129   56.8111   58.6345 C   0  0  0  0  0  0  0  0  0  0  0  0
  -38.9155   60.2977   65.6655 C   0  0  0  0  0  0  0  0  0  0  0  0
  -38.5047   61.6680   65.4608 O   0  0  0  0  0  0  0  0  0  0  0  0
  -37.2211   62.0683   64.5925 P   0  0  0  0  0  0  0  0  0  0  0  0
  -37.1661   61.1727   63.4170 O   0  0  0  0  0  0  0  0  0  0  0  0
  -37.2528   63.5340   64.3704 O   0  0  0  0  0  0  0  0  0  0  0  0
  -38.0102   63.7595   63.8079 H   0  0  0  0  0  0  0  0  0  0  0  0
  -35.9654   61.7402   65.5189 O   0  0  0  0  0  0  0  0  0  0  0  0
  -34.7374   62.4792   65.3579 C   0  0  0  0  0  0  0  0  0  0  0  0
  -33.2653   63.9772   66.5117 O   0  0  0  0  0  0  0  0  0  0  0  0
  -34.3661   63.0810   66.6909 C   0  0  0  0  0  0  0  0  0  0  0  0
  -32.5279   63.5044   66.0950 H   0  0  0  0  0  0  0  0  0  0  0  0
  -36.2084   62.9414   68.2416 O   0  0  0  0  0  0  0  0  0  0  0  0
  -35.5241   63.8011   67.3391 C   0  0  0  0  0  0  0  0  0  0  0  0
  -36.9475   63.4209   68.6473 H   0  0  0  0  0  0  0  0  0  0  0  0
  -40.7148   61.3003   64.3196 O   0  0  0  0  0  0  0  0  0  0  0  0
  -42.8325   61.5280   63.5958 O   0  0  0  0  0  0  0  0  0  0  0  0
  -41.7021   61.1666   63.4132 C   0  0  0  0  0  0  0  0  0  0  0  0
  -41.2179   60.5316   62.1466 C   0  0  0  0  0  0  0  0  0  0  0  0
  -41.7631   61.2509   60.9169 C   0  0  0  0  0  0  0  0  0  0  0  0
  -41.0797   60.8556   59.6181 C   0  0  0  0  0  0  0  0  0  0  0  0
  -39.7904   60.0685   59.8226 C   0  0  0  0  0  0  0  0  0  0  0  0
  -39.8286   58.6629   59.2523 C   0  0  0  0  0  0  0  0  0  0  0  0
  -41.1501   57.9215   59.4739 C   0  0  0  0  0  0  0  0  0  0  0  0
  -41.0530   56.6600   60.3345 C   0  0  0  0  0  0  0  0  0  0  0  0
  -40.9277   56.9800   61.7939 C   0  0  0  0  0  0  0  0  0  0  0  0
  -39.8088   57.0780   62.4853 C   0  0  0  0  0  0  0  0  0  0  0  0
  -38.4232   56.8906   61.9531 C   0  0  0  0  0  0  0  0  0  0  0  0
  -37.4681   57.9866   62.4169 C   0  0  0  0  0  0  0  0  0  0  0  0
  -37.0523   57.8571   63.8717 C   0  0  0  0  0  0  0  0  0  0  0  0
  -35.5499   57.7536   64.0698 C   0  0  0  0  0  0  0  0  0  0  0  0
  -34.7750   57.3694   62.8202 C   0  0  0  0  0  0  0  0  0  0  0  0
  -33.6856   58.3654   62.4530 C   0  0  0  0  0  0  0  0  0  0  0  0
  -33.8336   59.7212   63.1145 C   0  0  0  0  0  0  0  0  0  0  0  0
  -32.5536   60.5095   63.1176 C   0  0  0  0  0  0  0  0  0  0  0  0
 21 22  1  0  0  0
  4  5  2  0  0  0
 25 24  1  0  0  0
 25 26  2  0  0  0
 25 27  1  0  0  0
 25 29  1  0  0  0
 22 20  1  0  0  0
  3  5  1  0  0  0
  3  2  1  0  0  0
 20 19  1  0  0  0
 24 23  1  0  0  0
 19 18  1  0  0  0
 18 17  1  0  0  0
 27 28  1  0  0  0
 17 16  1  0  0  0
 29 30  1  0  0  0
 16 15  1  0  0  0
 34 35  1  0  0  0
 34 36  1  0  0  0
 15 14  1  0  0  0
 31 32  1  0  0  0
 31 33  1  0  0  0
 14 13  1  0  0  0
 37  1  1  0  0  0
 37 39  1  0  0  0
 13 12  1  0  0  0
 38 39  2  0  0  0
 12 11  1  0  0  0
 11 10  1  0  0  0
 10  9  1  0  0  0
  9  8  1  0  0  0
  8  7  1  0  0  0
  7  6  1  0  0  0
  6  5  1  0  0  0
  2  1  1  0  0  0
  1 23  1  0  0  0
 30 32  1  0  0  0
 32 35  1  0  0  0
 39 40  1  0  0  0
 40 41  1  0  0  0
 41 42  1  0  0  0
 42 43  1  0  0  0
 43 44  1  0  0  0
 44 45  1  0  0  0
 45 46  1  0  0  0
 46 47  1  0  0  0
 47 48  2  0  0  0
 48 49  1  0  0  0
 49 50  1  0  0  0
 50 51  1  0  0  0
 51 52  1  0  0  0
 52 53  1  0  0  0
 53 54  1  0  0  0
 54 55  1  0  0  0
 55 56  1  0  0  0
M  CHG 1  26  -1
M  END
> <minimizedAffinity>
-8.40762

> <CNNscore>
0.4721861184

> <CNNaffinity>
7.6361856461

> <CNN_VS>
3.6057009697

> <CNNaffinity_variance>
1.4196069241

$$$$
/media/chris/experiments/cd1a-new-docking/inputs/ligands/7sh4_ligand.pdb


 56 55  0  0  0  0  0  0  0  0999 V2000
  -40.6184   59.0456   65.3746 C   0  0  0  0  0  0  0  0  0  0  0  0
  -41.9095   58.6160   66.0120 C   0  0  0  0  0  0  0  0  0  0  0  0
  -42.6809   59.8331   66.0930 O   0  0  0  0  0  0  0  0  0  0  0  0
  -44.6772   60.6258   65.4723 O   0  0  0  0  0  0  0  0  0  0  0  0
  -43.9949   59.7301   65.8912 C   0  0  0  0  0  0  0  0  0  0  0  0
  -44.4729   58.3276   66.1346 C   0  0  0  0  0  0  0  0  0  0  0  0
  -45.8055   58.2431   66.8595 C   0  0  0  0  0  0  0  0  0  0  0  0
  -46.8297   57.4180   66.1094 C   0  0  0  0  0  0  0  0  0  0  0  0
  -47.8788   58.2364   65.3916 C   0  0  0  0  0  0  0  0  0  0  0  0
  -48.2390   59.5132   66.1240 C   0  0  0  0  0  0  0  0  0  0  0  0
  -48.7731   60.5905   65.2121 C   0  0  0  0  0  0  0  0  0  0  0  0
  -48.1478   60.5654   63.8424 C   0  0  0  0  0  0  0  0  0  0  0  0
  -49.1614   60.5243   62.7203 C   0  0  0  0  0  0  0  0  0  0  0  0
  -50.5625   60.2156   63.2081 C   0  0  0  0  0  0  0  0  0  0  0  0
  -51.1261   58.9116   62.6836 C   0  0  0  0  0  0  0  0  0  0  0  0
  -50.0714   57.9687   62.1157 C   0  0  0  0  0  0  0  0  0  0  0  0
  -50.2814   57.6170   60.6555 C   0  0  0  0  0  0  0  0  0  0  0  0
  -49.2523   56.6447   60.1164 C   0  0  0  0  0  0  0  0  0  0  0  0
  -47.8979   57.2817   59.8379 C   0  0  0  0  0  0  0  0  0  0  0  0
  -47.1546   56.6460   58.6766 C   0  0  0  0  0  0  0  0  0  0  0  0
  -48.1191   57.6084   56.5602 C   0  0  0  0  0  0  0  0  0  0  0  0
  -46.9278   57.5632   57.4899 C   0  0  0  0  0  0  0  0  0  0  0  0
  -40.5430   60.5409   65.2006 C   0  0  0  0  0  0  0  0  0  0  0  0
  -39.4052   61.0384   65.9395 O   0  0  0  0  0  0  0  0  0  0  0  0
  -37.9441   61.1680   65.2989 P   0  0  0  0  0  0  0  0  0  0  0  0
  -37.1491   59.9986   65.7315 O   0  0  0  0  0  0  0  0  0  0  0  0
  -38.0980   61.4270   63.8471 O   0  0  0  0  0  0  0  0  0  0  0  0
  -38.4860   60.6478   63.4189 H   0  0  0  0  0  0  0  0  0  0  0  0
  -37.3054   62.4691   65.9635 O   0  0  0  0  0  0  0  0  0  0  0  0
  -36.4369   63.3221   65.1901 C   0  0  0  0  0  0  0  0  0  0  0  0
  -34.9162   62.6970   66.9334 O   0  0  0  0  0  0  0  0  0  0  0  0
  -35.0073   62.9833   65.5346 C   0  0  0  0  0  0  0  0  0  0  0  0
  -35.2559   63.4508   67.4406 H   0  0  0  0  0  0  0  0  0  0  0  0
  -34.8817   61.9288   63.3688 O   0  0  0  0  0  0  0  0  0  0  0  0
  -34.4823   61.8192   64.7290 C   0  0  0  0  0  0  0  0  0  0  0  0
  -34.5356   61.1735   62.8684 H   0  0  0  0  0  0  0  0  0  0  0  0
  -40.4795   58.3437   64.0948 O   0  0  0  0  0  0  0  0  0  0  0  0
  -42.4976   58.4023   63.1028 O   0  0  0  0  0  0  0  0  0  0  0  0
  -41.5908   57.7795   63.5841 C   0  0  0  0  0  0  0  0  0  0  0  0
  -41.5516   56.2853   63.6713 C   0  0  0  0  0  0  0  0  0  0  0  0
  -41.5153   55.6454   62.2871 C   0  0  0  0  0  0  0  0  0  0  0  0
  -40.6857   56.4162   61.2733 C   0  0  0  0  0  0  0  0  0  0  0  0
  -41.5053   56.9841   60.1204 C   0  0  0  0  0  0  0  0  0  0  0  0
  -40.8429   58.1481   59.4070 C   0  0  0  0  0  0  0  0  0  0  0  0
  -40.9188   59.4811   60.1568 C   0  0  0  0  0  0  0  0  0  0  0  0
  -39.6517   59.8722   60.9204 C   0  0  0  0  0  0  0  0  0  0  0  0
  -38.4055   59.4677   60.1915 C   0  0  0  0  0  0  0  0  0  0  0  0
  -37.5452   58.5378   60.5585 C   0  0  0  0  0  0  0  0  0  0  0  0
  -37.6357   57.6867   61.7856 C   0  0  0  0  0  0  0  0  0  0  0  0
  -36.7831   58.2241   62.9313 C   0  0  0  0  0  0  0  0  0  0  0  0
  -35.3156   57.8472   62.8278 C   0  0  0  0  0  0  0  0  0  0  0  0
  -34.4792   58.3237   64.0026 C   0  0  0  0  0  0  0  0  0  0  0  0
  -32.9889   58.4143   63.7190 C   0  0  0  0  0  0  0  0  0  0  0  0
  -32.6479   59.3391   62.5605 C   0  0  0  0  0  0  0  0  0  0  0  0
  -31.2465   59.9142   62.6153 C   0  0  0  0  0  0  0  0  0  0  0  0
  -31.1544   61.2810   61.9964 C   0  0  0  0  0  0  0  0  0  0  0  0
 21 22  1  0  0  0
  4  5  2  0  0  0
 25 24  1  0  0  0
 25 26  2  0  0  0
 25 27  1  0  0  0
 25 29  1  0  0  0
 22 20  1  0  0  0
  3  5  1  0  0  0
  3  2  1  0  0  0
 20 19  1  0  0  0
 24 23  1  0  0  0
 19 18  1  0  0  0
 18 17  1  0  0  0
 27 28  1  0  0  0
 17 16  1  0  0  0
 29 30  1  0  0  0
 16 15  1  0  0  0
 34 35  1  0  0  0
 34 36  1  0  0  0
 15 14  1  0  0  0
 31 32  1  0  0  0
 31 33  1  0  0  0
 14 13  1  0  0  0
 37  1  1  0  0  0
 37 39  1  0  0  0
 13 12  1  0  0  0
 38 39  2  0  0  0
 12 11  1  0  0  0
 11 10  1  0  0  0
 10  9  1  0  0  0
  9  8  1  0  0  0
  8  7  1  0  0  0
  7  6  1  0  0  0
  6  5  1  0  0  0
  2  1  1  0  0  0
  1 23  1  0  0  0
 30 32  1  0  0  0
 32 35  1  0  0  0
 39 40  1  0  0  0
 40 41  1  0  0  0
 41 42  1  0  0  0
 42 43  1  0  0  0
 43 44  1  0  0  0
 44 45  1  0  0  0
 45 46  1  0  0  0
 46 47  1  0  0  0
 47 48  2  0  0  0
 48 49  1  0  0  0
 49 50  1  0  0  0
 50 51  1  0  0  0
 51 52  1  0  0  0
 52 53  1  0  0  0
 53 54  1  0  0  0
 54 55  1  0  0  0
 55 56  1  0  0  0
M  CHG 1  26  -1
M  END
> <minimizedAffinity>
-8.21790

> <CNNscore>
0.4364453256

> <CNNaffinity>
7.4529852867

> <CNN_VS>
3.2528204918

> <CNNaffinity_variance>
1.0548326969

$$$$
/media/chris/experiments/cd1a-new-docking/inputs/ligands/7sh4_ligand.pdb


 56 55  0  0  0  0  0  0  0  0999 V2000
  -39.0197   59.9158   64.9003 C   0  0  0  0  0  0  0  0  0  0  0  0
  -40.2056   59.6274   65.7767 C   0  0  0  0  0  0  0  0  0  0  0  0
  -40.9204   60.8805   65.8205 O   0  0  0  0  0  0  0  0  0  0  0  0
  -42.5720   61.7531   67.0492 O   0  0  0  0  0  0  0  0  0  0  0  0
  -42.1355   60.8641   66.3691 C   0  0  0  0  0  0  0  0  0  0  0  0
  -42.9160   59.6613   65.9230 C   0  0  0  0  0  0  0  0  0  0  0  0
  -44.4195   59.8767   65.8835 C   0  0  0  0  0  0  0  0  0  0  0  0
  -45.0479   59.3897   64.5949 C   0  0  0  0  0  0  0  0  0  0  0  0
  -46.5597   59.3835   64.6068 C   0  0  0  0  0  0  0  0  0  0  0  0
  -47.1416   59.2696   66.0013 C   0  0  0  0  0  0  0  0  0  0  0  0
  -48.3163   60.1886   66.2316 C   0  0  0  0  0  0  0  0  0  0  0  0
  -49.0113   60.5861   64.9562 C   0  0  0  0  0  0  0  0  0  0  0  0
  -50.4093   60.0216   64.8333 C   0  0  0  0  0  0  0  0  0  0  0  0
  -50.4649   58.7791   63.9678 C   0  0  0  0  0  0  0  0  0  0  0  0
  -51.1451   58.9871   62.6309 C   0  0  0  0  0  0  0  0  0  0  0  0
  -50.9012   57.8600   61.6337 C   0  0  0  0  0  0  0  0  0  0  0  0
  -49.4412   57.6590   61.2760 C   0  0  0  0  0  0  0  0  0  0  0  0
  -49.1965   56.4430   60.4061 C   0  0  0  0  0  0  0  0  0  0  0  0
  -48.2464   56.7040   59.2456 C   0  0  0  0  0  0  0  0  0  0  0  0
  -48.8851   57.4635   58.0965 C   0  0  0  0  0  0  0  0  0  0  0  0
  -46.7275   58.2663   57.0787 C   0  0  0  0  0  0  0  0  0  0  0  0
  -48.0365   57.5479   56.8419 C   0  0  0  0  0  0  0  0  0  0  0  0
  -38.4892   61.3114   65.1066 C   0  0  0  0  0  0  0  0  0  0  0  0
  -37.0538   61.2455   65.2599 O   0  0  0  0  0  0  0  0  0  0  0  0
  -36.1036   62.5221   65.0886 P   0  0  0  0  0  0  0  0  0  0  0  0
  -36.7776   63.6815   65.7118 O   0  0  0  0  0  0  0  0  0  0  0  0
  -34.7455   62.1525   65.5550 O   0  0  0  0  0  0  0  0  0  0  0  0
  -34.7655   61.9874   66.5106 H   0  0  0  0  0  0  0  0  0  0  0  0
  -36.0276   62.7843   63.5176 O   0  0  0  0  0  0  0  0  0  0  0  0
  -36.3729   64.0793   62.9848 C   0  0  0  0  0  0  0  0  0  0  0  0
  -35.5350   63.7948   60.7579 O   0  0  0  0  0  0  0  0  0  0  0  0
  -35.3111   64.4836   61.9917 C   0  0  0  0  0  0  0  0  0  0  0  0
  -35.5527   62.8386   60.9198 H   0  0  0  0  0  0  0  0  0  0  0  0
  -33.9850   66.3925   61.3469 O   0  0  0  0  0  0  0  0  0  0  0  0
  -35.2805   65.9749   61.7580 C   0  0  0  0  0  0  0  0  0  0  0  0
  -33.9852   67.3515   61.2019 H   0  0  0  0  0  0  0  0  0  0  0  0
  -39.4095   59.6852   63.5057 O   0  0  0  0  0  0  0  0  0  0  0  0
  -38.5426   61.3347   62.2457 O   0  0  0  0  0  0  0  0  0  0  0  0
  -39.4943   60.7675   62.7085 C   0  0  0  0  0  0  0  0  0  0  0  0
  -40.9149   61.1663   62.4541 C   0  0  0  0  0  0  0  0  0  0  0  0
  -41.4429   60.5576   61.1589 C   0  0  0  0  0  0  0  0  0  0  0  0
  -41.3993   59.0386   61.1291 C   0  0  0  0  0  0  0  0  0  0  0  0
  -41.2944   58.4592   59.7231 C   0  0  0  0  0  0  0  0  0  0  0  0
  -39.9477   57.8326   59.4129 C   0  0  0  0  0  0  0  0  0  0  0  0
  -38.8007   58.8346   59.2535 C   0  0  0  0  0  0  0  0  0  0  0  0
  -37.6498   58.6712   60.2486 C   0  0  0  0  0  0  0  0  0  0  0  0
  -37.9461   57.6336   61.2895 C   0  0  0  0  0  0  0  0  0  0  0  0
  -37.3544   57.5017   62.4607 C   0  0  0  0  0  0  0  0  0  0  0  0
  -36.2586   58.3670   62.9984 C   0  0  0  0  0  0  0  0  0  0  0  0
  -34.9085   57.6561   63.0113 C   0  0  0  0  0  0  0  0  0  0  0  0
  -33.8258   58.3902   62.2400 C   0  0  0  0  0  0  0  0  0  0  0  0
  -33.1303   59.4733   63.0464 C   0  0  0  0  0  0  0  0  0  0  0  0
  -31.6144   59.4624   62.9399 C   0  0  0  0  0  0  0  0  0  0  0  0
  -31.0393   60.7415   62.3510 C   0  0  0  0  0  0  0  0  0  0  0  0
  -31.8258   61.9917   62.6916 C   0  0  0  0  0  0  0  0  0  0  0  0
  -32.0950   62.8545   61.4905 C   0  0  0  0  0  0  0  0  0  0  0  0
 21 22  1  0  0  0
  4  5  2  0  0  0
 25 24  1  0  0  0
 25 26  2  0  0  0
 25 27  1  0  0  0
 25 29  1  0  0  0
 22 20  1  0  0  0
  3  5  1  0  0  0
  3  2  1  0  0  0
 20 19  1  0  0  0
 24 23  1  0  0  0
 19 18  1  0  0  0
 18 17  1  0  0  0
 27 28  1  0  0  0
 17 16  1  0  0  0
 29 30  1  0  0  0
 16 15  1  0  0  0
 34 35  1  0  0  0
 34 36  1  0  0  0
 15 14  1  0  0  0
 31 32  1  0  0  0
 31 33  1  0  0  0
 14 13  1  0  0  0
 37  1  1  0  0  0
 37 39  1  0  0  0
 13 12  1  0  0  0
 38 39  2  0  0  0
 12 11  1  0  0  0
 11 10  1  0  0  0
 10  9  1  0  0  0
  9  8  1  0  0  0
  8  7  1  0  0  0
  7  6  1  0  0  0
  6  5  1  0  0  0
  2  1  1  0  0  0
  1 23  1  0  0  0
 30 32  1  0  0  0
 32 35  1  0  0  0
 39 40  1  0  0  0
 40 41  1  0  0  0
 41 42  1  0  0  0
 42 43  1  0  0  0
 43 44  1  0  0  0
 44 45  1  0  0  0
 45 46  1  0  0  0
 46 47  1  0  0  0
 47 48  2  0  0  0
 48 49  1  0  0  0
 49 50  1  0  0  0
 50 51  1  0  0  0
 51 52  1  0  0  0
 52 53  1  0  0  0
 53 54  1  0  0  0
 54 55  1  0  0  0
 55 56  1  0  0  0
M  CHG 1  26  -1
M  END
> <minimizedAffinity>
-8.17234

> <CNNscore>
0.4301994741

> <CNNaffinity>
7.2731666565

> <CNN_VS>
3.1289124489

> <CNNaffinity_variance>
0.8479217291

$$$$
/media/chris/experiments/cd1a-new-docking/inputs/ligands/7sh4_ligand.pdb


 56 55  0  0  0  0  0  0  0  0999 V2000
  -39.7398   60.4382   65.0818 C   0  0  0  0  0  0  0  0  0  0  0  0
  -40.0693   58.9806   64.9250 C   0  0  0  0  0  0  0  0  0  0  0  0
  -40.9720   58.9458   63.7994 O   0  0  0  0  0  0  0  0  0  0  0  0
  -40.9038   56.7797   63.2499 O   0  0  0  0  0  0  0  0  0  0  0  0
  -41.5314   57.7706   63.5097 C   0  0  0  0  0  0  0  0  0  0  0  0
  -43.0229   57.8243   63.6748 C   0  0  0  0  0  0  0  0  0  0  0  0
  -43.5175   57.3124   65.0172 C   0  0  0  0  0  0  0  0  0  0  0  0
  -44.9566   57.6922   65.2954 C   0  0  0  0  0  0  0  0  0  0  0  0
  -45.2666   57.9148   66.7582 C   0  0  0  0  0  0  0  0  0  0  0  0
  -46.4260   58.8647   66.9812 C   0  0  0  0  0  0  0  0  0  0  0  0
  -47.0954   59.2961   65.6993 C   0  0  0  0  0  0  0  0  0  0  0  0
  -48.3027   60.1660   65.9298 C   0  0  0  0  0  0  0  0  0  0  0  0
  -49.5997   59.3897   65.9884 C   0  0  0  0  0  0  0  0  0  0  0  0
  -50.6450   59.9231   65.0298 C   0  0  0  0  0  0  0  0  0  0  0  0
  -50.0707   60.5867   63.7958 C   0  0  0  0  0  0  0  0  0  0  0  0
  -50.5815   59.9980   62.4856 C   0  0  0  0  0  0  0  0  0  0  0  0
  -50.8857   58.5138   62.5541 C   0  0  0  0  0  0  0  0  0  0  0  0
  -50.3671   57.7373   61.3611 C   0  0  0  0  0  0  0  0  0  0  0  0
  -49.1703   58.3888   60.6822 C   0  0  0  0  0  0  0  0  0  0  0  0
  -49.2502   58.3756   59.1661 C   0  0  0  0  0  0  0  0  0  0  0  0
  -47.2914   56.9177   58.5551 C   0  0  0  0  0  0  0  0  0  0  0  0
  -47.9098   58.2940   58.4606 C   0  0  0  0  0  0  0  0  0  0  0  0
  -38.2529   60.6834   65.1044 C   0  0  0  0  0  0  0  0  0  0  0  0
  -38.0067   62.0770   64.8120 O   0  0  0  0  0  0  0  0  0  0  0  0
  -36.8068   62.5676   63.8732 P   0  0  0  0  0  0  0  0  0  0  0  0
  -36.8489   61.7757   62.6250 O   0  0  0  0  0  0  0  0  0  0  0  0
  -36.8677   64.0462   63.7810 O   0  0  0  0  0  0  0  0  0  0  0  0
  -37.6729   64.3078   63.3077 H   0  0  0  0  0  0  0  0  0  0  0  0
  -35.4726   62.1801   64.6557 O   0  0  0  0  0  0  0  0  0  0  0  0
  -34.6162   63.2160   65.1788 C   0  0  0  0  0  0  0  0  0  0  0  0
  -33.6461   64.0417   67.2084 O   0  0  0  0  0  0  0  0  0  0  0  0
  -34.5361   63.0556   66.6771 C   0  0  0  0  0  0  0  0  0  0  0  0
  -32.7814   63.9636   66.7759 H   0  0  0  0  0  0  0  0  0  0  0  0
  -36.6281   64.2502   66.7989 O   0  0  0  0  0  0  0  0  0  0  0  0
  -35.8885   63.1629   67.3398 C   0  0  0  0  0  0  0  0  0  0  0  0
  -37.4922   64.3029   67.2363 H   0  0  0  0  0  0  0  0  0  0  0  0
  -40.3883   60.9293   66.3018 O   0  0  0  0  0  0  0  0  0  0  0  0
  -42.1285   59.6963   67.0171 O   0  0  0  0  0  0  0  0  0  0  0  0
  -41.7005   60.6618   66.4459 C   0  0  0  0  0  0  0  0  0  0  0  0
  -42.5595   61.7199   65.8258 C   0  0  0  0  0  0  0  0  0  0  0  0
  -43.8114   61.1225   65.1912 C   0  0  0  0  0  0  0  0  0  0  0  0
  -43.9290   61.3812   63.6981 C   0  0  0  0  0  0  0  0  0  0  0  0
  -42.6927   62.0370   63.0937 C   0  0  0  0  0  0  0  0  0  0  0  0
  -42.4725   61.7065   61.6292 C   0  0  0  0  0  0  0  0  0  0  0  0
  -41.2136   60.8824   61.3448 C   0  0  0  0  0  0  0  0  0  0  0  0
  -41.0540   60.4154   59.8963 C   0  0  0  0  0  0  0  0  0  0  0  0
  -41.0596   58.9205   59.7810 C   0  0  0  0  0  0  0  0  0  0  0  0
  -40.0249   58.1475   59.5139 C   0  0  0  0  0  0  0  0  0  0  0  0
  -38.6212   58.6045   59.2709 C   0  0  0  0  0  0  0  0  0  0  0  0
  -37.8036   58.6835   60.5568 C   0  0  0  0  0  0  0  0  0  0  0  0
  -38.0646   57.5359   61.5165 C   0  0  0  0  0  0  0  0  0  0  0  0
  -37.4768   57.7523   62.9002 C   0  0  0  0  0  0  0  0  0  0  0  0
  -36.0675   58.3208   62.9039 C   0  0  0  0  0  0  0  0  0  0  0  0
  -35.2154   57.8201   64.0601 C   0  0  0  0  0  0  0  0  0  0  0  0
  -34.2740   58.8598   64.6350 C   0  0  0  0  0  0  0  0  0  0  0  0
  -32.8343   58.5912   64.2962 C   0  0  0  0  0  0  0  0  0  0  0  0
 21 22  1  0  0  0
  4  5  2  0  0  0
 25 24  1  0  0  0
 25 26  2  0  0  0
 25 27  1  0  0  0
 25 29  1  0  0  0
 22 20  1  0  0  0
  3  5  1  0  0  0
  3  2  1  0  0  0
 20 19  1  0  0  0
 24 23  1  0  0  0
 19 18  1  0  0  0
 18 17  1  0  0  0
 27 28  1  0  0  0
 17 16  1  0  0  0
 29 30  1  0  0  0
 16 15  1  0  0  0
 34 35  1  0  0  0
 34 36  1  0  0  0
 15 14  1  0  0  0
 31 32  1  0  0  0
 31 33  1  0  0  0
 14 13  1  0  0  0
 37  1  1  0  0  0
 37 39  1  0  0  0
 13 12  1  0  0  0
 38 39  2  0  0  0
 12 11  1  0  0  0
 11 10  1  0  0  0
 10  9  1  0  0  0
  9  8  1  0  0  0
  8  7  1  0  0  0
  7  6  1  0  0  0
  6  5  1  0  0  0
  2  1  1  0  0  0
  1 23  1  0  0  0
 30 32  1  0  0  0
 32 35  1  0  0  0
 39 40  1  0  0  0
 40 41  1  0  0  0
 41 42  1  0  0  0
 42 43  1  0  0  0
 43 44  1  0  0  0
 44 45  1  0  0  0
 45 46  1  0  0  0
 46 47  1  0  0  0
 47 48  2  0  0  0
 48 49  1  0  0  0
 49 50  1  0  0  0
 50 51  1  0  0  0
 51 52  1  0  0  0
 52 53  1  0  0  0
 53 54  1  0  0  0
 54 55  1  0  0  0
 55 56  1  0  0  0
M  CHG 1  26  -1
M  END
> <minimizedAffinity>
-8.73894

> <CNNscore>
0.4018540382

> <CNNaffinity>
7.5573701859

> <CNN_VS>
3.0369596481

> <CNNaffinity_variance>
2.1993174553

$$$$
/media/chris/experiments/cd1a-new-docking/inputs/ligands/7sh4_ligand.pdb


 56 55  0  0  0  0  0  0  0  0999 V2000
  -40.2451   59.9313   64.8716 C   0  0  0  0  0  0  0  0  0  0  0  0
  -41.1855   59.0366   65.6284 C   0  0  0  0  0  0  0  0  0  0  0  0
  -41.3529   57.8939   64.7627 O   0  0  0  0  0  0  0  0  0  0  0  0
  -43.4074   57.1585   65.2498 O   0  0  0  0  0  0  0  0  0  0  0  0
  -42.6028   57.5518   64.4488 C   0  0  0  0  0  0  0  0  0  0  0  0
  -42.8985   57.8415   63.0054 C   0  0  0  0  0  0  0  0  0  0  0  0
  -41.6620   57.9657   62.1314 C   0  0  0  0  0  0  0  0  0  0  0  0
  -41.2598   56.6522   61.4946 C   0  0  0  0  0  0  0  0  0  0  0  0
  -41.0674   56.7235   59.9968 C   0  0  0  0  0  0  0  0  0  0  0  0
  -40.8613   58.1371   59.4916 C   0  0  0  0  0  0  0  0  0  0  0  0
  -39.4184   58.4528   59.1819 C   0  0  0  0  0  0  0  0  0  0  0  0
  -38.9496   59.7387   59.8097 C   0  0  0  0  0  0  0  0  0  0  0  0
  -38.3024   59.5450   61.1632 C   0  0  0  0  0  0  0  0  0  0  0  0
  -37.7890   58.1344   61.3700 C   0  0  0  0  0  0  0  0  0  0  0  0
  -37.3960   57.8230   62.7989 C   0  0  0  0  0  0  0  0  0  0  0  0
  -35.9059   57.5599   62.9846 C   0  0  0  0  0  0  0  0  0  0  0  0
  -35.4386   57.6526   64.4244 C   0  0  0  0  0  0  0  0  0  0  0  0
  -34.1382   58.4126   64.5875 C   0  0  0  0  0  0  0  0  0  0  0  0
  -33.2199   58.3177   63.3770 C   0  0  0  0  0  0  0  0  0  0  0  0
  -32.1833   59.4252   63.3123 C   0  0  0  0  0  0  0  0  0  0  0  0
  -31.7107   61.5464   62.0424 C   0  0  0  0  0  0  0  0  0  0  0  0
  -32.0293   60.0715   61.9486 C   0  0  0  0  0  0  0  0  0  0  0  0
  -39.1493   60.4751   65.7520 C   0  0  0  0  0  0  0  0  0  0  0  0
  -37.8874   60.3416   65.0604 O   0  0  0  0  0  0  0  0  0  0  0  0
  -37.1314   61.5817   64.3879 P   0  0  0  0  0  0  0  0  0  0  0  0
  -36.0247   61.0508   63.5631 O   0  0  0  0  0  0  0  0  0  0  0  0
  -38.1479   62.4478   63.7435 O   0  0  0  0  0  0  0  0  0  0  0  0
  -38.5521   61.9737   63.0000 H   0  0  0  0  0  0  0  0  0  0  0  0
  -36.4928   62.3955   65.6013 O   0  0  0  0  0  0  0  0  0  0  0  0
  -35.3253   63.2144   65.3858 C   0  0  0  0  0  0  0  0  0  0  0  0
  -36.1744   63.9501   67.5024 O   0  0  0  0  0  0  0  0  0  0  0  0
  -35.3227   64.3192   66.4136 C   0  0  0  0  0  0  0  0  0  0  0  0
  -37.0624   63.7528   67.1658 H   0  0  0  0  0  0  0  0  0  0  0  0
  -33.4093   63.5306   67.6527 O   0  0  0  0  0  0  0  0  0  0  0  0
  -33.9347   64.6301   66.9200 C   0  0  0  0  0  0  0  0  0  0  0  0
  -32.5188   63.7489   67.9691 H   0  0  0  0  0  0  0  0  0  0  0  0
  -41.0276   61.0066   64.2542 O   0  0  0  0  0  0  0  0  0  0  0  0
  -42.3000   61.7026   65.9738 O   0  0  0  0  0  0  0  0  0  0  0  0
  -42.1989   61.3227   64.8392 C   0  0  0  0  0  0  0  0  0  0  0  0
  -43.3552   61.1617   63.9016 C   0  0  0  0  0  0  0  0  0  0  0  0
  -44.6880   61.2421   64.6390 C   0  0  0  0  0  0  0  0  0  0  0  0
  -45.5633   60.0115   64.4662 C   0  0  0  0  0  0  0  0  0  0  0  0
  -47.0550   60.3032   64.5819 C   0  0  0  0  0  0  0  0  0  0  0  0
  -47.8382   59.2308   65.3161 C   0  0  0  0  0  0  0  0  0  0  0  0
  -49.0000   59.7581   66.1630 C   0  0  0  0  0  0  0  0  0  0  0  0
  -50.3963   59.4272   65.6316 C   0  0  0  0  0  0  0  0  0  0  0  0
  -50.8622   60.4212   64.6104 C   0  0  0  0  0  0  0  0  0  0  0  0
  -51.1776   60.1709   63.3545 C   0  0  0  0  0  0  0  0  0  0  0  0
  -51.1373   58.8341   62.6839 C   0  0  0  0  0  0  0  0  0  0  0  0
  -49.9735   58.7083   61.7051 C   0  0  0  0  0  0  0  0  0  0  0  0
  -50.2368   57.7384   60.5666 C   0  0  0  0  0  0  0  0  0  0  0  0
  -49.4417   56.4483   60.6682 C   0  0  0  0  0  0  0  0  0  0  0  0
  -48.4041   56.2601   59.5739 C   0  0  0  0  0  0  0  0  0  0  0  0
  -47.9583   57.5646   58.9312 C   0  0  0  0  0  0  0  0  0  0  0  0
  -46.9778   57.3918   57.7882 C   0  0  0  0  0  0  0  0  0  0  0  0
  -46.8257   58.6365   56.9593 C   0  0  0  0  0  0  0  0  0  0  0  0
 21 22  1  0  0  0
  4  5  2  0  0  0
 25 24  1  0  0  0
 25 26  2  0  0  0
 25 27  1  0  0  0
 25 29  1  0  0  0
 22 20  1  0  0  0
  3  5  1  0  0  0
  3  2  1  0  0  0
 20 19  1  0  0  0
 24 23  1  0  0  0
 19 18  1  0  0  0
 18 17  1  0  0  0
 27 28  1  0  0  0
 17 16  1  0  0  0
 29 30  1  0  0  0
 16 15  1  0  0  0
 34 35  1  0  0  0
 34 36  1  0  0  0
 15 14  1  0  0  0
 31 32  1  0  0  0
 31 33  1  0  0  0
 14 13  1  0  0  0
 37  1  1  0  0  0
 37 39  1  0  0  0
 13 12  1  0  0  0
 38 39  2  0  0  0
 12 11  1  0  0  0
 11 10  1  0  0  0
 10  9  1  0  0  0
  9  8  1  0  0  0
  8  7  1  0  0  0
  7  6  1  0  0  0
  6  5  1  0  0  0
  2  1  1  0  0  0
  1 23  1  0  0  0
 30 32  1  0  0  0
 32 35  1  0  0  0
 39 40  1  0  0  0
 40 41  1  0  0  0
 41 42  1  0  0  0
 42 43  1  0  0  0
 43 44  1  0  0  0
 44 45  1  0  0  0
 45 46  1  0  0  0
 46 47  1  0  0  0
 47 48  2  0  0  0
 48 49  1  0  0  0
 49 50  1  0  0  0
 50 51  1  0  0  0
 51 52  1  0  0  0
 52 53  1  0  0  0
 53 54  1  0  0  0
 54 55  1  0  0  0
 55 56  1  0  0  0
M  CHG 1  26  -1
M  END
> <minimizedAffinity>
-8.92615

> <CNNscore>
0.3801696897

> <CNNaffinity>
7.3405866623

> <CNN_VS>
2.7906684875

> <CNNaffinity_variance>
1.3488559723

$$$$
/media/chris/experiments/cd1a-new-docking/inputs/ligands/7sh4_ligand.pdb


 56 55  0  0  0  0  0  0  0  0999 V2000
  -41.0440   60.9741   63.4965 C   0  0  0  0  0  0  0  0  0  0  0  0
  -41.6897   60.8509   62.1454 C   0  0  0  0  0  0  0  0  0  0  0  0
  -40.7577   60.0538   61.3844 O   0  0  0  0  0  0  0  0  0  0  0  0
  -40.9335   61.0011   59.3668 O   0  0  0  0  0  0  0  0  0  0  0  0
  -40.9291   60.0216   60.0625 C   0  0  0  0  0  0  0  0  0  0  0  0
  -40.9873   58.6087   59.5572 C   0  0  0  0  0  0  0  0  0  0  0  0
  -41.6871   57.6418   60.4973 C   0  0  0  0  0  0  0  0  0  0  0  0
  -40.7751   56.5368   60.9870 C   0  0  0  0  0  0  0  0  0  0  0  0
  -39.8541   56.9476   62.1134 C   0  0  0  0  0  0  0  0  0  0  0  0
  -38.4304   57.1932   61.6562 C   0  0  0  0  0  0  0  0  0  0  0  0
  -37.5313   57.6973   62.7584 C   0  0  0  0  0  0  0  0  0  0  0  0
  -36.2453   58.2886   62.2444 C   0  0  0  0  0  0  0  0  0  0  0  0
  -35.0392   57.9212   63.0803 C   0  0  0  0  0  0  0  0  0  0  0  0
  -34.2030   59.1257   63.4623 C   0  0  0  0  0  0  0  0  0  0  0  0
  -32.8403   58.7789   64.0245 C   0  0  0  0  0  0  0  0  0  0  0  0
  -31.6823   59.1464   63.1036 C   0  0  0  0  0  0  0  0  0  0  0  0
  -32.0515   60.1337   62.0133 C   0  0  0  0  0  0  0  0  0  0  0  0
  -30.9289   61.0876   61.6596 C   0  0  0  0  0  0  0  0  0  0  0  0
  -31.4099   62.4784   61.2700 C   0  0  0  0  0  0  0  0  0  0  0  0
  -32.7182   62.8760   61.9299 C   0  0  0  0  0  0  0  0  0  0  0  0
  -32.3378   65.2166   61.0859 C   0  0  0  0  0  0  0  0  0  0  0  0
  -33.3544   64.1345   61.3708 C   0  0  0  0  0  0  0  0  0  0  0  0
  -39.5833   60.6043   63.4618 C   0  0  0  0  0  0  0  0  0  0  0  0
  -38.8065   61.7344   63.9177 O   0  0  0  0  0  0  0  0  0  0  0  0
  -37.3237   61.5885   64.5025 P   0  0  0  0  0  0  0  0  0  0  0  0
  -37.2532   60.3207   65.2605 O   0  0  0  0  0  0  0  0  0  0  0  0
  -36.3659   61.8088   63.3923 O   0  0  0  0  0  0  0  0  0  0  0  0
  -36.4476   61.0892   62.7471 H   0  0  0  0  0  0  0  0  0  0  0  0
  -37.1580   62.7896   65.5381 O   0  0  0  0  0  0  0  0  0  0  0  0
  -36.2355   63.8621   65.2574 C   0  0  0  0  0  0  0  0  0  0  0  0
  -36.2517   64.0180   67.6486 O   0  0  0  0  0  0  0  0  0  0  0  0
  -35.4108   64.1164   66.4953 C   0  0  0  0  0  0  0  0  0  0  0  0
  -36.9955   64.6342   67.5601 H   0  0  0  0  0  0  0  0  0  0  0  0
  -33.4226   63.5136   67.7207 O   0  0  0  0  0  0  0  0  0  0  0  0
  -34.2465   63.1628   66.6163 C   0  0  0  0  0  0  0  0  0  0  0  0
  -32.6815   62.8908   67.7820 H   0  0  0  0  0  0  0  0  0  0  0  0
  -41.7915   60.1401   64.4429 O   0  0  0  0  0  0  0  0  0  0  0  0
  -41.3688   61.3250   66.3078 O   0  0  0  0  0  0  0  0  0  0  0  0
  -42.1308   60.7042   65.6180 C   0  0  0  0  0  0  0  0  0  0  0  0
  -43.5733   60.4806   65.9513 C   0  0  0  0  0  0  0  0  0  0  0  0
  -44.4865   60.9451   64.8213 C   0  0  0  0  0  0  0  0  0  0  0  0
  -45.6895   60.0451   64.5915 C   0  0  0  0  0  0  0  0  0  0  0  0
  -45.7729   58.8776   65.5680 C   0  0  0  0  0  0  0  0  0  0  0  0
  -47.0394   58.8612   66.4036 C   0  0  0  0  0  0  0  0  0  0  0  0
  -47.8589   60.1534   66.3431 C   0  0  0  0  0  0  0  0  0  0  0  0
  -49.2562   60.0110   65.7359 C   0  0  0  0  0  0  0  0  0  0  0  0
  -49.5557   58.5982   65.3331 C   0  0  0  0  0  0  0  0  0  0  0  0
  -50.2247   58.2088   64.2652 C   0  0  0  0  0  0  0  0  0  0  0  0
  -50.8260   59.1017   63.2263 C   0  0  0  0  0  0  0  0  0  0  0  0
  -51.0130   58.3938   61.8875 C   0  0  0  0  0  0  0  0  0  0  0  0
  -49.8478   57.4988   61.5034 C   0  0  0  0  0  0  0  0  0  0  0  0
  -48.6845   58.2475   60.8762 C   0  0  0  0  0  0  0  0  0  0  0  0
  -48.9796   58.8362   59.5067 C   0  0  0  0  0  0  0  0  0  0  0  0
  -49.0108   57.7984   58.3952 C   0  0  0  0  0  0  0  0  0  0  0  0
  -47.6434   57.3023   57.9687 C   0  0  0  0  0  0  0  0  0  0  0  0
  -46.8945   58.3054   57.1364 C   0  0  0  0  0  0  0  0  0  0  0  0
 21 22  1  0  0  0
  4  5  2  0  0  0
 25 24  1  0  0  0
 25 26  2  0  0  0
 25 27  1  0  0  0
 25 29  1  0  0  0
 22 20  1  0  0  0
  3  5  1  0  0  0
  3  2  1  0  0  0
 20 19  1  0  0  0
 24 23  1  0  0  0
 19 18  1  0  0  0
 18 17  1  0  0  0
 27 28  1  0  0  0
 17 16  1  0  0  0
 29 30  1  0  0  0
 16 15  1  0  0  0
 34 35  1  0  0  0
 34 36  1  0  0  0
 15 14  1  0  0  0
 31 32  1  0  0  0
 31 33  1  0  0  0
 14 13  1  0  0  0
 37  1  1  0  0  0
 37 39  1  0  0  0
 13 12  1  0  0  0
 38 39  2  0  0  0
 12 11  1  0  0  0
 11 10  1  0  0  0
 10  9  1  0  0  0
  9  8  1  0  0  0
  8  7  1  0  0  0
  7  6  1  0  0  0
  6  5  1  0  0  0
  2  1  1  0  0  0
  1 23  1  0  0  0
 30 32  1  0  0  0
 32 35  1  0  0  0
 39 40  1  0  0  0
 40 41  1  0  0  0
 41 42  1  0  0  0
 42 43  1  0  0  0
 43 44  1  0  0  0
 44 45  1  0  0  0
 45 46  1  0  0  0
 46 47  1  0  0  0
 47 48  2  0  0  0
 48 49  1  0  0  0
 49 50  1  0  0  0
 50 51  1  0  0  0
 51 52  1  0  0  0
 52 53  1  0  0  0
 53 54  1  0  0  0
 54 55  1  0  0  0
 55 56  1  0  0  0
M  CHG 1  26  -1
M  END
> <minimizedAffinity>
-8.72743

> <CNNscore>
0.3469040990

> <CNNaffinity>
7.1005806923

> <CNN_VS>
2.4632205963

> <CNNaffinity_variance>
1.0160871744

$$$$
/media/chris/experiments/cd1a-new-docking/inputs/ligands/7sh4_ligand.pdb


 56 55  0  0  0  0  0  0  0  0999 V2000
  -40.2792   60.2039   64.9514 C   0  0  0  0  0  0  0  0  0  0  0  0
  -41.1703   59.5515   65.9703 C   0  0  0  0  0  0  0  0  0  0  0  0
  -41.1989   58.1645   65.5721 O   0  0  0  0  0  0  0  0  0  0  0  0
  -43.1686   57.6546   66.4991 O   0  0  0  0  0  0  0  0  0  0  0  0
  -42.3840   57.5538   65.5948 C   0  0  0  0  0  0  0  0  0  0  0  0
  -42.6508   56.8387   64.3016 C   0  0  0  0  0  0  0  0  0  0  0  0
  -41.7852   57.3064   63.1438 C   0  0  0  0  0  0  0  0  0  0  0  0
  -41.1713   56.1590   62.3698 C   0  0  0  0  0  0  0  0  0  0  0  0
  -41.1377   56.3694   60.8731 C   0  0  0  0  0  0  0  0  0  0  0  0
  -41.6123   57.7470   60.4568 C   0  0  0  0  0  0  0  0  0  0  0  0
  -40.7996   58.3403   59.3320 C   0  0  0  0  0  0  0  0  0  0  0  0
  -40.2157   59.6856   59.6741 C   0  0  0  0  0  0  0  0  0  0  0  0
  -39.9079   59.8498   61.1460 C   0  0  0  0  0  0  0  0  0  0  0  0
  -38.4325   59.6979   61.4559 C   0  0  0  0  0  0  0  0  0  0  0  0
  -37.8456   58.3679   61.0320 C   0  0  0  0  0  0  0  0  0  0  0  0
  -37.5380   57.4315   62.1951 C   0  0  0  0  0  0  0  0  0  0  0  0
  -38.0463   57.9264   63.5355 C   0  0  0  0  0  0  0  0  0  0  0  0
  -36.9688   58.0006   64.5979 C   0  0  0  0  0  0  0  0  0  0  0  0
  -35.6258   57.4449   64.1449 C   0  0  0  0  0  0  0  0  0  0  0  0
  -34.5550   58.5075   63.9738 C   0  0  0  0  0  0  0  0  0  0  0  0
  -32.2241   58.9295   63.1225 C   0  0  0  0  0  0  0  0  0  0  0  0
  -33.5344   58.2117   62.8912 C   0  0  0  0  0  0  0  0  0  0  0  0
  -39.0949   60.8847   65.5882 C   0  0  0  0  0  0  0  0  0  0  0  0
  -38.3279   61.5450   64.5566 O   0  0  0  0  0  0  0  0  0  0  0  0
  -36.9553   62.3129   64.8536 P   0  0  0  0  0  0  0  0  0  0  0  0
  -37.2166   63.3330   65.8918 O   0  0  0  0  0  0  0  0  0  0  0  0
  -35.9029   61.2981   65.1010 O   0  0  0  0  0  0  0  0  0  0  0  0
  -36.1003   60.8211   65.9222 H   0  0  0  0  0  0  0  0  0  0  0  0
  -36.5945   63.0724   63.4987 O   0  0  0  0  0  0  0  0  0  0  0  0
  -35.7636   64.2508   63.5314 C   0  0  0  0  0  0  0  0  0  0  0  0
  -34.2557   62.5558   62.7596 O   0  0  0  0  0  0  0  0  0  0  0  0
  -34.5022   63.9651   62.7539 C   0  0  0  0  0  0  0  0  0  0  0  0
  -34.2120   62.2388   63.6752 H   0  0  0  0  0  0  0  0  0  0  0  0
  -35.5919   63.8005   60.6083 O   0  0  0  0  0  0  0  0  0  0  0  0
  -34.5734   64.4761   61.3349 C   0  0  0  0  0  0  0  0  0  0  0  0
  -35.6223   64.1417   59.7009 H   0  0  0  0  0  0  0  0  0  0  0  0
  -41.0863   61.1432   64.1664 O   0  0  0  0  0  0  0  0  0  0  0  0
  -42.5242   62.0602   65.6332 O   0  0  0  0  0  0  0  0  0  0  0  0
  -42.3170   61.4290   64.6331 C   0  0  0  0  0  0  0  0  0  0  0  0
  -43.3933   60.8822   63.7473 C   0  0  0  0  0  0  0  0  0  0  0  0
  -44.7815   61.2388   64.2693 C   0  0  0  0  0  0  0  0  0  0  0  0
  -45.3376   60.2419   65.2728 C   0  0  0  0  0  0  0  0  0  0  0  0
  -45.8246   58.9446   64.6376 C   0  0  0  0  0  0  0  0  0  0  0  0
  -47.2584   58.5883   64.9840 C   0  0  0  0  0  0  0  0  0  0  0  0
  -47.8518   59.3925   66.1442 C   0  0  0  0  0  0  0  0  0  0  0  0
  -49.1275   60.1699   65.8127 C   0  0  0  0  0  0  0  0  0  0  0  0
  -49.0733   60.7886   64.4480 C   0  0  0  0  0  0  0  0  0  0  0  0
  -49.8826   60.5382   63.4372 C   0  0  0  0  0  0  0  0  0  0  0  0
  -51.0315   59.5798   63.4429 C   0  0  0  0  0  0  0  0  0  0  0  0
  -50.7822   58.3666   62.5516 C   0  0  0  0  0  0  0  0  0  0  0  0
  -49.5788   58.5187   61.6378 C   0  0  0  0  0  0  0  0  0  0  0  0
  -49.9068   58.3506   60.1643 C   0  0  0  0  0  0  0  0  0  0  0  0
  -48.7153   58.4995   59.2329 C   0  0  0  0  0  0  0  0  0  0  0  0
  -47.8113   57.2766   59.2055 C   0  0  0  0  0  0  0  0  0  0  0  0
  -46.9933   57.1360   57.9371 C   0  0  0  0  0  0  0  0  0  0  0  0
  -46.9887   58.3887   57.1063 C   0  0  0  0  0  0  0  0  0  0  0  0
 21 22  1  0  0  0
  4  5  2  0  0  0
 25 24  1  0  0  0
 25 26  2  0  0  0
 25 27  1  0  0  0
 25 29  1  0  0  0
 22 20  1  0  0  0
  3  5  1  0  0  0
  3  2  1  0  0  0
 20 19  1  0  0  0
 24 23  1  0  0  0
 19 18  1  0  0  0
 18 17  1  0  0  0
 27 28  1  0  0  0
 17 16  1  0  0  0
 29 30  1  0  0  0
 16 15  1  0  0  0
 34 35  1  0  0  0
 34 36  1  0  0  0
 15 14  1  0  0  0
 31 32  1  0  0  0
 31 33  1  0  0  0
 14 13  1  0  0  0
 37  1  1  0  0  0
 37 39  1  0  0  0
 13 12  1  0  0  0
 38 39  2  0  0  0
 12 11  1  0  0  0
 11 10  1  0  0  0
 10  9  1  0  0  0
  9  8  1  0  0  0
  8  7  1  0  0  0
  7  6  1  0  0  0
  6  5  1  0  0  0
  2  1  1  0  0  0
  1 23  1  0  0  0
 30 32  1  0  0  0
 32 35  1  0  0  0
 39 40  1  0  0  0
 40 41  1  0  0  0
 41 42  1  0  0  0
 42 43  1  0  0  0
 43 44  1  0  0  0
 44 45  1  0  0  0
 45 46  1  0  0  0
 46 47  1  0  0  0
 47 48  2  0  0  0
 48 49  1  0  0  0
 49 50  1  0  0  0
 50 51  1  0  0  0
 51 52  1  0  0  0
 52 53  1  0  0  0
 53 54  1  0  0  0
 54 55  1  0  0  0
 55 56  1  0  0  0
M  CHG 1  26  -1
M  END
> <minimizedAffinity>
-8.53463

> <CNNscore>
0.3461888134

> <CNNaffinity>
7.5688147545

> <CNN_VS>
2.6202390194

> <CNNaffinity_variance>
1.8084166050

$$$$
