/media/chris/experiments/cd1a-new-docking/inputs/ligands/7sh4_ligand.pdb


 56 55  0  0  0  0  0  0  0  0999 V2000
  -38.7477   60.7959   62.4131 C   0  0  0  0  0  0  0  0  0  0  0  0
  -40.2490   60.8593   62.4106 C   0  0  0  0  0  0  0  0  0  0  0  0
  -40.5736   61.4971   63.6640 O   0  0  0  0  0  0  0  0  0  0  0  0
  -41.5229   60.8168   65.5707 O   0  0  0  0  0  0  0  0  0  0  0  0
  -41.5621   60.9578   64.3781 C   0  0  0  0  0  0  0  0  0  0  0  0
  -42.7598   60.6730   63.5183 C   0  0  0  0  0  0  0  0  0  0  0  0
  -43.9944   61.4776   63.8880 C   0  0  0  0  0  0  0  0  0  0  0  0
  -44.8596   60.7834   64.9186 C   0  0  0  0  0  0  0  0  0  0  0  0
  -45.3729   59.4289   64.4851 C   0  0  0  0  0  0  0  0  0  0  0  0
  -46.7667   59.1304   64.9991 C   0  0  0  0  0  0  0  0  0  0  0  0
  -47.1837   60.0261   66.1398 C   0  0  0  0  0  0  0  0  0  0  0  0
  -48.6695   60.0134   66.3851 C   0  0  0  0  0  0  0  0  0  0  0  0
  -49.4362   59.1787   65.3834 C   0  0  0  0  0  0  0  0  0  0  0  0
  -50.7007   59.8597   64.9001 C   0  0  0  0  0  0  0  0  0  0  0  0
  -50.8384   59.9096   63.3929 C   0  0  0  0  0  0  0  0  0  0  0  0
  -49.5225   60.1505   62.6617 C   0  0  0  0  0  0  0  0  0  0  0  0
  -49.6636   60.2474   61.1548 C   0  0  0  0  0  0  0  0  0  0  0  0
  -49.8081   58.9008   60.4759 C   0  0  0  0  0  0  0  0  0  0  0  0
  -48.8316   58.6883   59.3276 C   0  0  0  0  0  0  0  0  0  0  0  0
  -48.9189   57.3071   58.7033 C   0  0  0  0  0  0  0  0  0  0  0  0
  -47.1116   56.2249   57.3254 C   0  0  0  0  0  0  0  0  0  0  0  0
  -47.6217   56.5209   58.7175 C   0  0  0  0  0  0  0  0  0  0  0  0
  -38.1306   62.0166   63.0461 C   0  0  0  0  0  0  0  0  0  0  0  0
  -36.7703   62.1469   62.5759 O   0  0  0  0  0  0  0  0  0  0  0  0
  -35.8829   63.4527   62.8391 P   0  0  0  0  0  0  0  0  0  0  0  0
  -35.1233   63.7466   61.6048 O   0  0  0  0  0  0  0  0  0  0  0  0
  -36.7645   64.5045   63.4004 O   0  0  0  0  0  0  0  0  0  0  0  0
  -37.4101   64.7771   62.7298 H   0  0  0  0  0  0  0  0  0  0  0  0
  -34.8394   63.0334   63.9696 O   0  0  0  0  0  0  0  0  0  0  0  0
  -34.2985   64.0321   64.8584 C   0  0  0  0  0  0  0  0  0  0  0  0
  -33.1882   63.6923   66.9547 O   0  0  0  0  0  0  0  0  0  0  0  0
  -34.4374   63.5331   66.2757 C   0  0  0  0  0  0  0  0  0  0  0  0
  -32.4911   63.2321   66.4614 H   0  0  0  0  0  0  0  0  0  0  0  0
  -36.7471   64.2285   66.2873 O   0  0  0  0  0  0  0  0  0  0  0  0
  -35.5350   64.2439   67.0305 C   0  0  0  0  0  0  0  0  0  0  0  0
  -37.4389   64.6889   66.7875 H   0  0  0  0  0  0  0  0  0  0  0  0
  -38.2913   60.6127   61.0318 O   0  0  0  0  0  0  0  0  0  0  0  0
  -40.0113   60.7281   59.5866 O   0  0  0  0  0  0  0  0  0  0  0  0
  -39.1746   60.0869   60.1615 C   0  0  0  0  0  0  0  0  0  0  0  0
  -38.9765   58.6134   59.9833 C   0  0  0  0  0  0  0  0  0  0  0  0
  -40.1821   57.9648   59.3106 C   0  0  0  0  0  0  0  0  0  0  0  0
  -40.8726   56.9137   60.1641 C   0  0  0  0  0  0  0  0  0  0  0  0
  -41.4589   57.4675   61.4576 C   0  0  0  0  0  0  0  0  0  0  0  0
  -41.1661   56.6186   62.6808 C   0  0  0  0  0  0  0  0  0  0  0  0
  -41.0413   57.4067   63.9878 C   0  0  0  0  0  0  0  0  0  0  0  0
  -39.6158   57.8078   64.3732 C   0  0  0  0  0  0  0  0  0  0  0  0
  -38.6535   57.6354   63.2365 C   0  0  0  0  0  0  0  0  0  0  0  0
  -37.3375   57.6886   63.3040 C   0  0  0  0  0  0  0  0  0  0  0  0
  -36.5260   57.9319   64.5372 C   0  0  0  0  0  0  0  0  0  0  0  0
  -36.1160   59.3942   64.6854 C   0  0  0  0  0  0  0  0  0  0  0  0
  -34.7091   59.6855   64.1938 C   0  0  0  0  0  0  0  0  0  0  0  0
  -34.2561   58.7744   63.0661 C   0  0  0  0  0  0  0  0  0  0  0  0
  -32.8371   58.2503   63.2114 C   0  0  0  0  0  0  0  0  0  0  0  0
  -31.7748   59.3284   63.0595 C   0  0  0  0  0  0  0  0  0  0  0  0
  -32.0170   60.2823   61.9066 C   0  0  0  0  0  0  0  0  0  0  0  0
  -30.7417   60.7741   61.2810 C   0  0  0  0  0  0  0  0  0  0  0  0
 21 22  1  0  0  0
  4  5  2  0  0  0
 25 24  1  0  0  0
 25 26  2  0  0  0
 25 27  1  0  0  0
 25 29  1  0  0  0
 22 20  1  0  0  0
  3  5  1  0  0  0
  3  2  1  0  0  0
 20 19  1  0  0  0
 24 23  1  0  0  0
 19 18  1  0  0  0
 18 17  1  0  0  0
 27 28  1  0  0  0
 17 16  1  0  0  0
 29 30  1  0  0  0
 16 15  1  0  0  0
 34 35  1  0  0  0
 34 36  1  0  0  0
 15 14  1  0  0  0
 31 32  1  0  0  0
 31 33  1  0  0  0
 14 13  1  0  0  0
 37  1  1  0  0  0
 37 39  1  0  0  0
 13 12  1  0  0  0
 38 39  2  0  0  0
 12 11  1  0  0  0
 11 10  1  0  0  0
 10  9  1  0  0  0
  9  8  1  0  0  0
  8  7  1  0  0  0
  7  6  1  0  0  0
  6  5  1  0  0  0
  2  1  1  0  0  0
  1 23  1  0  0  0
 30 32  1  0  0  0
 32 35  1  0  0  0
 39 40  1  0  0  0
 40 41  1  0  0  0
 41 42  1  0  0  0
 42 43  1  0  0  0
 43 44  1  0  0  0
 44 45  1  0  0  0
 45 46  1  0  0  0
 46 47  1  0  0  0
 47 48  2  0  0  0
 48 49  1  0  0  0
 49 50  1  0  0  0
 50 51  1  0  0  0
 51 52  1  0  0  0
 52 53  1  0  0  0
 53 54  1  0  0  0
 54 55  1  0  0  0
 55 56  1  0  0  0
M  CHG 1  26  -1
M  END
> <minimizedAffinity>
-8.49670

> <CNNscore>
0.4105136395

> <CNNaffinity>
7.3887887001

> <CNN_VS>
3.0331985950

> <CNNaffinity_variance>
0.9821033478

$$$$
/media/chris/experiments/cd1a-new-docking/inputs/ligands/7sh4_ligand.pdb


 56 55  0  0  0  0  0  0  0  0999 V2000
  -36.5448   61.6587   63.9815 C   0  0  0  0  0  0  0  0  0  0  0  0
  -37.5595   61.2123   64.9958 C   0  0  0  0  0  0  0  0  0  0  0  0
  -38.8280   61.4673   64.3563 O   0  0  0  0  0  0  0  0  0  0  0  0
  -40.1716   60.9820   66.0763 O   0  0  0  0  0  0  0  0  0  0  0  0
  -39.9056   60.9074   64.9070 C   0  0  0  0  0  0  0  0  0  0  0  0
  -40.7904   60.2905   63.8623 C   0  0  0  0  0  0  0  0  0  0  0  0
  -41.7416   61.2709   63.1973 C   0  0  0  0  0  0  0  0  0  0  0  0
  -43.1686   60.7662   63.1550 C   0  0  0  0  0  0  0  0  0  0  0  0
  -43.8931   60.8457   64.4797 C   0  0  0  0  0  0  0  0  0  0  0  0
  -45.3697   61.1512   64.3309 C   0  0  0  0  0  0  0  0  0  0  0  0
  -46.2390   60.3548   65.2729 C   0  0  0  0  0  0  0  0  0  0  0  0
  -47.6523   60.1966   64.7776 C   0  0  0  0  0  0  0  0  0  0  0  0
  -48.6403   59.8705   65.8757 C   0  0  0  0  0  0  0  0  0  0  0  0
  -49.9784   59.4037   65.3394 C   0  0  0  0  0  0  0  0  0  0  0  0
  -50.6657   60.4057   64.4357 C   0  0  0  0  0  0  0  0  0  0  0  0
  -51.3018   59.7839   63.1976 C   0  0  0  0  0  0  0  0  0  0  0  0
  -50.7117   58.4417   62.8097 C   0  0  0  0  0  0  0  0  0  0  0  0
  -49.5352   58.5528   61.8617 C   0  0  0  0  0  0  0  0  0  0  0  0
  -49.6941   57.7273   60.5925 C   0  0  0  0  0  0  0  0  0  0  0  0
  -48.4015   57.5525   59.8155 C   0  0  0  0  0  0  0  0  0  0  0  0
  -47.1443   57.9606   57.6734 C   0  0  0  0  0  0  0  0  0  0  0  0
  -48.3089   58.3745   58.5440 C   0  0  0  0  0  0  0  0  0  0  0  0
  -37.1277   62.6296   62.9869 C   0  0  0  0  0  0  0  0  0  0  0  0
  -36.6082   63.9490   63.2656 O   0  0  0  0  0  0  0  0  0  0  0  0
  -35.6895   64.7556   62.2324 P   0  0  0  0  0  0  0  0  0  0  0  0
  -35.7330   64.0499   60.9336 O   0  0  0  0  0  0  0  0  0  0  0  0
  -36.0850   66.1838   62.2806 O   0  0  0  0  0  0  0  0  0  0  0  0
  -36.9865   66.2815   61.9362 H   0  0  0  0  0  0  0  0  0  0  0  0
  -34.2061   64.6384   62.8055 O   0  0  0  0  0  0  0  0  0  0  0  0
  -33.1361   64.1862   61.9508 C   0  0  0  0  0  0  0  0  0  0  0  0
  -33.3595   61.8624   62.4918 O   0  0  0  0  0  0  0  0  0  0  0  0
  -32.4841   62.9889   62.5978 C   0  0  0  0  0  0  0  0  0  0  0  0
  -34.2179   62.0816   62.8872 H   0  0  0  0  0  0  0  0  0  0  0  0
  -31.1336   62.9760   60.5992 O   0  0  0  0  0  0  0  0  0  0  0  0
  -31.1419   62.6651   61.9866 C   0  0  0  0  0  0  0  0  0  0  0  0
  -30.2647   62.7617   60.2251 H   0  0  0  0  0  0  0  0  0  0  0  0
  -35.9983   60.4692   63.3209 O   0  0  0  0  0  0  0  0  0  0  0  0
  -34.4394   60.0124   64.8770 O   0  0  0  0  0  0  0  0  0  0  0  0
  -35.2526   59.6398   64.0759 C   0  0  0  0  0  0  0  0  0  0  0  0
  -35.5717   58.2012   63.8105 C   0  0  0  0  0  0  0  0  0  0  0  0
  -36.9152   57.8059   64.4150 C   0  0  0  0  0  0  0  0  0  0  0  0
  -38.0821   57.9137   63.4471 C   0  0  0  0  0  0  0  0  0  0  0  0
  -37.7677   57.3861   62.0519 C   0  0  0  0  0  0  0  0  0  0  0  0
  -37.6254   58.4703   60.9999 C   0  0  0  0  0  0  0  0  0  0  0  0
  -38.4921   59.7095   61.2413 C   0  0  0  0  0  0  0  0  0  0  0  0
  -39.5252   60.0043   60.1518 C   0  0  0  0  0  0  0  0  0  0  0  0
  -39.6585   58.8719   59.1782 C   0  0  0  0  0  0  0  0  0  0  0  0
  -40.4228   57.8053   59.3109 C   0  0  0  0  0  0  0  0  0  0  0  0
  -41.3229   57.5027   60.4670 C   0  0  0  0  0  0  0  0  0  0  0  0
  -41.3599   56.0145   60.8021 C   0  0  0  0  0  0  0  0  0  0  0  0
  -41.2644   55.7221   62.2892 C   0  0  0  0  0  0  0  0  0  0  0  0
  -41.6901   56.8855   63.1681 C   0  0  0  0  0  0  0  0  0  0  0  0
  -41.7495   56.5645   64.6524 C   0  0  0  0  0  0  0  0  0  0  0  0
  -42.1247   57.7593   65.5158 C   0  0  0  0  0  0  0  0  0  0  0  0
  -43.3719   57.5548   66.3527 C   0  0  0  0  0  0  0  0  0  0  0  0
  -44.6042   57.3438   65.5180 C   0  0  0  0  0  0  0  0  0  0  0  0
 21 22  1  0  0  0
  4  5  2  0  0  0
 25 24  1  0  0  0
 25 26  2  0  0  0
 25 27  1  0  0  0
 25 29  1  0  0  0
 22 20  1  0  0  0
  3  5  1  0  0  0
  3  2  1  0  0  0
 20 19  1  0  0  0
 24 23  1  0  0  0
 19 18  1  0  0  0
 18 17  1  0  0  0
 27 28  1  0  0  0
 17 16  1  0  0  0
 29 30  1  0  0  0
 16 15  1  0  0  0
 34 35  1  0  0  0
 34 36  1  0  0  0
 15 14  1  0  0  0
 31 32  1  0  0  0
 31 33  1  0  0  0
 14 13  1  0  0  0
 37  1  1  0  0  0
 37 39  1  0  0  0
 13 12  1  0  0  0
 38 39  2  0  0  0
 12 11  1  0  0  0
 11 10  1  0  0  0
 10  9  1  0  0  0
  9  8  1  0  0  0
  8  7  1  0  0  0
  7  6  1  0  0  0
  6  5  1  0  0  0
  2  1  1  0  0  0
  1 23  1  0  0  0
 30 32  1  0  0  0
 32 35  1  0  0  0
 39 40  1  0  0  0
 40 41  1  0  0  0
 41 42  1  0  0  0
 42 43  1  0  0  0
 43 44  1  0  0  0
 44 45  1  0  0  0
 45 46  1  0  0  0
 46 47  1  0  0  0
 47 48  2  0  0  0
 48 49  1  0  0  0
 49 50  1  0  0  0
 50 51  1  0  0  0
 51 52  1  0  0  0
 52 53  1  0  0  0
 53 54  1  0  0  0
 54 55  1  0  0  0
 55 56  1  0  0  0
M  CHG 1  26  -1
M  END
> <minimizedAffinity>
-8.33928

> <CNNscore>
0.3893389106

> <CNNaffinity>
7.4981017113

> <CNN_VS>
2.9193027020

> <CNNaffinity_variance>
0.8580604792

$$$$
/media/chris/experiments/cd1a-new-docking/inputs/ligands/7sh4_ligand.pdb


 56 55  0  0  0  0  0  0  0  0999 V2000
  -41.2348   59.2964   62.3735 C   0  0  0  0  0  0  0  0  0  0  0  0
  -42.5229   59.2002   63.1411 C   0  0  0  0  0  0  0  0  0  0  0  0
  -42.3778   57.9917   63.9168 O   0  0  0  0  0  0  0  0  0  0  0  0
  -42.2274   58.3453   66.1194 O   0  0  0  0  0  0  0  0  0  0  0  0
  -42.8645   58.0085   65.1581 C   0  0  0  0  0  0  0  0  0  0  0  0
  -44.3289   57.6764   65.1712 C   0  0  0  0  0  0  0  0  0  0  0  0
  -44.9796   57.7943   66.5390 C   0  0  0  0  0  0  0  0  0  0  0  0
  -46.1352   58.7725   66.5562 C   0  0  0  0  0  0  0  0  0  0  0  0
  -46.2994   59.5596   65.2757 C   0  0  0  0  0  0  0  0  0  0  0  0
  -47.5581   59.1973   64.5139 C   0  0  0  0  0  0  0  0  0  0  0  0
  -48.3591   58.1030   65.1761 C   0  0  0  0  0  0  0  0  0  0  0  0
  -49.8277   58.4228   65.2691 C   0  0  0  0  0  0  0  0  0  0  0  0
  -50.1168   59.9065   65.3234 C   0  0  0  0  0  0  0  0  0  0  0  0
  -51.2749   60.3101   64.4334 C   0  0  0  0  0  0  0  0  0  0  0  0
  -51.2658   59.6507   63.0702 C   0  0  0  0  0  0  0  0  0  0  0  0
  -50.2215   60.2209   62.1170 C   0  0  0  0  0  0  0  0  0  0  0  0
  -49.3579   59.1687   61.4483 C   0  0  0  0  0  0  0  0  0  0  0  0
  -50.1564   58.0446   60.8207 C   0  0  0  0  0  0  0  0  0  0  0  0
  -49.9686   57.9297   59.3144 C   0  0  0  0  0  0  0  0  0  0  0  0
  -48.5656   58.2760   58.8487 C   0  0  0  0  0  0  0  0  0  0  0  0
  -46.8296   58.1544   57.0301 C   0  0  0  0  0  0  0  0  0  0  0  0
  -48.1560   57.6347   57.5364 C   0  0  0  0  0  0  0  0  0  0  0  0
  -40.5158   60.5951   62.6346 C   0  0  0  0  0  0  0  0  0  0  0  0
  -40.4885   60.8333   64.0597 O   0  0  0  0  0  0  0  0  0  0  0  0
  -39.2305   60.4623   64.9772 P   0  0  0  0  0  0  0  0  0  0  0  0
  -39.4431   61.0648   66.3109 O   0  0  0  0  0  0  0  0  0  0  0  0
  -39.0067   58.9995   64.8839 O   0  0  0  0  0  0  0  0  0  0  0  0
  -39.7533   58.5315   65.2894 H   0  0  0  0  0  0  0  0  0  0  0  0
  -37.9846   61.1926   64.3013 O   0  0  0  0  0  0  0  0  0  0  0  0
  -36.7039   61.1966   64.9644 C   0  0  0  0  0  0  0  0  0  0  0  0
  -37.2205   63.4984   64.5434 O   0  0  0  0  0  0  0  0  0  0  0  0
  -36.2993   62.6296   65.2092 C   0  0  0  0  0  0  0  0  0  0  0  0
  -37.2532   63.2736   63.6003 H   0  0  0  0  0  0  0  0  0  0  0  0
  -36.4643   64.3536   66.8882 O   0  0  0  0  0  0  0  0  0  0  0  0
  -36.2359   62.9657   66.6798 C   0  0  0  0  0  0  0  0  0  0  0  0
  -36.4198   64.5496   67.8372 H   0  0  0  0  0  0  0  0  0  0  0  0
  -41.5322   59.1188   60.9488 O   0  0  0  0  0  0  0  0  0  0  0  0
  -41.5411   56.8751   60.7877 O   0  0  0  0  0  0  0  0  0  0  0  0
  -41.1721   57.9468   60.3913 C   0  0  0  0  0  0  0  0  0  0  0  0
  -40.2734   58.1409   59.2096 C   0  0  0  0  0  0  0  0  0  0  0  0
  -39.1878   59.1732   59.4965 C   0  0  0  0  0  0  0  0  0  0  0  0
  -37.8546   58.5683   59.9049 C   0  0  0  0  0  0  0  0  0  0  0  0
  -37.8279   58.0667   61.3442 C   0  0  0  0  0  0  0  0  0  0  0  0
  -36.7600   58.7165   62.2043 C   0  0  0  0  0  0  0  0  0  0  0  0
  -35.8078   57.7319   62.8890 C   0  0  0  0  0  0  0  0  0  0  0  0
  -34.6792   58.3734   63.6991 C   0  0  0  0  0  0  0  0  0  0  0  0
  -33.3444   58.2101   63.0361 C   0  0  0  0  0  0  0  0  0  0  0  0
  -32.5654   59.1746   62.5862 C   0  0  0  0  0  0  0  0  0  0  0  0
  -32.8529   60.6416   62.6460 C   0  0  0  0  0  0  0  0  0  0  0  0
  -31.8149   61.4694   61.8938 C   0  0  0  0  0  0  0  0  0  0  0  0
  -32.2061   62.9266   61.7213 C   0  0  0  0  0  0  0  0  0  0  0  0
  -32.3717   63.6732   63.0337 C   0  0  0  0  0  0  0  0  0  0  0  0
  -33.8116   63.9954   63.3974 C   0  0  0  0  0  0  0  0  0  0  0  0
  -34.2059   65.4328   63.0936 C   0  0  0  0  0  0  0  0  0  0  0  0
  -35.4242   65.5684   62.2018 C   0  0  0  0  0  0  0  0  0  0  0  0
  -35.7310   64.3087   61.4410 C   0  0  0  0  0  0  0  0  0  0  0  0
 21 22  1  0  0  0
  4  5  2  0  0  0
 25 24  1  0  0  0
 25 26  2  0  0  0
 25 27  1  0  0  0
 25 29  1  0  0  0
 22 20  1  0  0  0
  3  5  1  0  0  0
  3  2  1  0  0  0
 20 19  1  0  0  0
 24 23  1  0  0  0
 19 18  1  0  0  0
 18 17  1  0  0  0
 27 28  1  0  0  0
 17 16  1  0  0  0
 29 30  1  0  0  0
 16 15  1  0  0  0
 34 35  1  0  0  0
 34 36  1  0  0  0
 15 14  1  0  0  0
 31 32  1  0  0  0
 31 33  1  0  0  0
 14 13  1  0  0  0
 37  1  1  0  0  0
 37 39  1  0  0  0
 13 12  1  0  0  0
 38 39  2  0  0  0
 12 11  1  0  0  0
 11 10  1  0  0  0
 10  9  1  0  0  0
  9  8  1  0  0  0
  8  7  1  0  0  0
  7  6  1  0  0  0
  6  5  1  0  0  0
  2  1  1  0  0  0
  1 23  1  0  0  0
 30 32  1  0  0  0
 32 35  1  0  0  0
 39 40  1  0  0  0
 40 41  1  0  0  0
 41 42  1  0  0  0
 42 43  1  0  0  0
 43 44  1  0  0  0
 44 45  1  0  0  0
 45 46  1  0  0  0
 46 47  1  0  0  0
 47 48  2  0  0  0
 48 49  1  0  0  0
 49 50  1  0  0  0
 50 51  1  0  0  0
 51 52  1  0  0  0
 52 53  1  0  0  0
 53 54  1  0  0  0
 54 55  1  0  0  0
 55 56  1  0  0  0
M  CHG 1  26  -1
M  END
> <minimizedAffinity>
-8.14039

> <CNNscore>
0.3815870583

> <CNNaffinity>
7.1238875389

> <CNN_VS>
2.7183833122

> <CNNaffinity_variance>
1.0230882168

$$$$
/media/chris/experiments/cd1a-new-docking/inputs/ligands/7sh4_ligand.pdb


 56 55  0  0  0  0  0  0  0  0999 V2000
  -38.3223   60.0727   64.8696 C   0  0  0  0  0  0  0  0  0  0  0  0
  -39.7430   59.8336   65.2963 C   0  0  0  0  0  0  0  0  0  0  0  0
  -40.5081   60.7615   64.4983 O   0  0  0  0  0  0  0  0  0  0  0  0
  -42.0145   61.3365   66.0473 O   0  0  0  0  0  0  0  0  0  0  0  0
  -41.7437   61.0405   64.9148 C   0  0  0  0  0  0  0  0  0  0  0  0
  -42.7122   61.0576   63.7674 C   0  0  0  0  0  0  0  0  0  0  0  0
  -44.0330   61.7400   64.0804 C   0  0  0  0  0  0  0  0  0  0  0  0
  -45.0577   60.7926   64.6678 C   0  0  0  0  0  0  0  0  0  0  0  0
  -46.4896   61.1438   64.3326 C   0  0  0  0  0  0  0  0  0  0  0  0
  -47.4365   59.9689   64.4708 C   0  0  0  0  0  0  0  0  0  0  0  0
  -48.2641   60.0182   65.7318 C   0  0  0  0  0  0  0  0  0  0  0  0
  -49.7397   59.8646   65.4735 C   0  0  0  0  0  0  0  0  0  0  0  0
  -50.2615   60.7950   64.4010 C   0  0  0  0  0  0  0  0  0  0  0  0
  -51.3652   60.1710   63.5712 C   0  0  0  0  0  0  0  0  0  0  0  0
  -50.9147   58.9989   62.7248 C   0  0  0  0  0  0  0  0  0  0  0  0
  -49.8324   59.3513   61.7105 C   0  0  0  0  0  0  0  0  0  0  0  0
  -48.9456   58.1831   61.3246 C   0  0  0  0  0  0  0  0  0  0  0  0
  -49.5361   57.3141   60.2332 C   0  0  0  0  0  0  0  0  0  0  0  0
  -48.5785   56.2500   59.7153 C   0  0  0  0  0  0  0  0  0  0  0  0
  -47.4251   56.8133   58.9044 C   0  0  0  0  0  0  0  0  0  0  0  0
  -46.7591   58.3407   57.0178 C   0  0  0  0  0  0  0  0  0  0  0  0
  -47.7522   58.0735   58.1259 C   0  0  0  0  0  0  0  0  0  0  0  0
  -38.0407   61.5342   64.6323 C   0  0  0  0  0  0  0  0  0  0  0  0
  -37.6778   62.1480   65.8893 O   0  0  0  0  0  0  0  0  0  0  0  0
  -36.3230   62.9760   66.0911 P   0  0  0  0  0  0  0  0  0  0  0  0
  -36.6614   64.4155   66.0881 O   0  0  0  0  0  0  0  0  0  0  0  0
  -35.6093   62.4146   67.2633 O   0  0  0  0  0  0  0  0  0  0  0  0
  -36.1239   62.5854   68.0676 H   0  0  0  0  0  0  0  0  0  0  0  0
  -35.4465   62.6748   64.7936 O   0  0  0  0  0  0  0  0  0  0  0  0
  -34.8689   63.7634   64.0445 C   0  0  0  0  0  0  0  0  0  0  0  0
  -36.6361   65.0238   63.0290 O   0  0  0  0  0  0  0  0  0  0  0  0
  -35.6930   63.9732   62.7978 C   0  0  0  0  0  0  0  0  0  0  0  0
  -37.1772   64.8077   63.8046 H   0  0  0  0  0  0  0  0  0  0  0  0
  -35.4790   63.8612   60.3978 O   0  0  0  0  0  0  0  0  0  0  0  0
  -34.8413   64.2933   61.5929 C   0  0  0  0  0  0  0  0  0  0  0  0
  -34.9177   64.0753   59.6362 H   0  0  0  0  0  0  0  0  0  0  0  0
  -38.0586   59.2689   63.6719 O   0  0  0  0  0  0  0  0  0  0  0  0
  -36.1370   58.5168   64.5677 O   0  0  0  0  0  0  0  0  0  0  0  0
  -36.9313   58.5319   63.6672 C   0  0  0  0  0  0  0  0  0  0  0  0
  -36.7968   57.7213   62.4155 C   0  0  0  0  0  0  0  0  0  0  0  0
  -38.0652   57.7831   61.5706 C   0  0  0  0  0  0  0  0  0  0  0  0
  -37.8778   58.4678   60.2266 C   0  0  0  0  0  0  0  0  0  0  0  0
  -38.5982   59.8068   60.1187 C   0  0  0  0  0  0  0  0  0  0  0  0
  -40.0750   59.6882   59.7905 C   0  0  0  0  0  0  0  0  0  0  0  0
  -41.0093   59.8462   60.9934 C   0  0  0  0  0  0  0  0  0  0  0  0
  -41.7187   58.5661   61.4400 C   0  0  0  0  0  0  0  0  0  0  0  0
  -41.5126   57.4391   60.4729 C   0  0  0  0  0  0  0  0  0  0  0  0
  -41.2975   56.1731   60.7734 C   0  0  0  0  0  0  0  0  0  0  0  0
  -41.2158   55.5944   62.1507 C   0  0  0  0  0  0  0  0  0  0  0  0
  -41.1434   56.6698   63.2308 C   0  0  0  0  0  0  0  0  0  0  0  0
  -41.9617   56.3465   64.4685 C   0  0  0  0  0  0  0  0  0  0  0  0
  -42.2155   57.5478   65.3627 C   0  0  0  0  0  0  0  0  0  0  0  0
  -43.4618   57.4384   66.2254 C   0  0  0  0  0  0  0  0  0  0  0  0
  -44.7564   57.4853   65.4281 C   0  0  0  0  0  0  0  0  0  0  0  0
  -46.0052   57.2524   66.2552 C   0  0  0  0  0  0  0  0  0  0  0  0
  -45.9141   57.8567   67.6286 C   0  0  0  0  0  0  0  0  0  0  0  0
 21 22  1  0  0  0
  4  5  2  0  0  0
 25 24  1  0  0  0
 25 26  2  0  0  0
 25 27  1  0  0  0
 25 29  1  0  0  0
 22 20  1  0  0  0
  3  5  1  0  0  0
  3  2  1  0  0  0
 20 19  1  0  0  0
 24 23  1  0  0  0
 19 18  1  0  0  0
 18 17  1  0  0  0
 27 28  1  0  0  0
 17 16  1  0  0  0
 29 30  1  0  0  0
 16 15  1  0  0  0
 34 35  1  0  0  0
 34 36  1  0  0  0
 15 14  1  0  0  0
 31 32  1  0  0  0
 31 33  1  0  0  0
 14 13  1  0  0  0
 37  1  1  0  0  0
 37 39  1  0  0  0
 13 12  1  0  0  0
 38 39  2  0  0  0
 12 11  1  0  0  0
 11 10  1  0  0  0
 10  9  1  0  0  0
  9  8  1  0  0  0
  8  7  1  0  0  0
  7  6  1  0  0  0
  6  5  1  0  0  0
  2  1  1  0  0  0
  1 23  1  0  0  0
 30 32  1  0  0  0
 32 35  1  0  0  0
 39 40  1  0  0  0
 40 41  1  0  0  0
 41 42  1  0  0  0
 42 43  1  0  0  0
 43 44  1  0  0  0
 44 45  1  0  0  0
 45 46  1  0  0  0
 46 47  1  0  0  0
 47 48  2  0  0  0
 48 49  1  0  0  0
 49 50  1  0  0  0
 50 51  1  0  0  0
 51 52  1  0  0  0
 52 53  1  0  0  0
 53 54  1  0  0  0
 54 55  1  0  0  0
 55 56  1  0  0  0
M  CHG 1  26  -1
M  END
> <minimizedAffinity>
-8.54112

> <CNNscore>
0.3330053985

> <CNNaffinity>
7.7339181900

> <CNN_VS>
2.5754365921

> <CNNaffinity_variance>
1.3226492405

$$$$
/media/chris/experiments/cd1a-new-docking/inputs/ligands/7sh4_ligand.pdb


 56 55  0  0  0  0  0  0  0  0999 V2000
  -42.2604   57.6661   63.6647 C   0  0  0  0  0  0  0  0  0  0  0  0
  -40.7654   57.5336   63.7361 C   0  0  0  0  0  0  0  0  0  0  0  0
  -40.3496   58.6802   64.5079 O   0  0  0  0  0  0  0  0  0  0  0  0
  -38.6945   60.1833   64.4830 O   0  0  0  0  0  0  0  0  0  0  0  0
  -39.0710   59.0448   64.4070 C   0  0  0  0  0  0  0  0  0  0  0  0
  -38.1707   57.8466   64.3146 C   0  0  0  0  0  0  0  0  0  0  0  0
  -36.8214   58.1321   63.6774 C   0  0  0  0  0  0  0  0  0  0  0  0
  -35.6644   57.5762   64.4805 C   0  0  0  0  0  0  0  0  0  0  0  0
  -34.4706   58.5000   64.5676 C   0  0  0  0  0  0  0  0  0  0  0  0
  -34.0490   59.0531   63.2214 C   0  0  0  0  0  0  0  0  0  0  0  0
  -33.2983   60.3583   63.3241 C   0  0  0  0  0  0  0  0  0  0  0  0
  -31.9750   60.3340   62.6059 C   0  0  0  0  0  0  0  0  0  0  0  0
  -31.2990   61.6860   62.5470 C   0  0  0  0  0  0  0  0  0  0  0  0
  -32.2325   62.7876   62.0873 C   0  0  0  0  0  0  0  0  0  0  0  0
  -32.3604   63.9372   63.0645 C   0  0  0  0  0  0  0  0  0  0  0  0
  -31.1393   64.1251   63.9578 C   0  0  0  0  0  0  0  0  0  0  0  0
  -31.4520   64.7436   65.3068 C   0  0  0  0  0  0  0  0  0  0  0  0
  -32.9364   64.8854   65.5745 C   0  0  0  0  0  0  0  0  0  0  0  0
  -33.4284   64.0452   66.7447 C   0  0  0  0  0  0  0  0  0  0  0  0
  -33.7778   62.6177   66.3635 C   0  0  0  0  0  0  0  0  0  0  0  0
  -36.2648   62.3154   66.1201 C   0  0  0  0  0  0  0  0  0  0  0  0
  -34.9445   62.4845   65.4032 C   0  0  0  0  0  0  0  0  0  0  0  0
  -42.7136   59.0875   63.8792 C   0  0  0  0  0  0  0  0  0  0  0  0
  -42.7026   59.7759   62.6087 O   0  0  0  0  0  0  0  0  0  0  0  0
  -41.8228   61.0856   62.3393 P   0  0  0  0  0  0  0  0  0  0  0  0
  -42.6225   62.0115   61.5086 O   0  0  0  0  0  0  0  0  0  0  0  0
  -41.3007   61.5667   63.6410 O   0  0  0  0  0  0  0  0  0  0  0  0
  -42.0378   61.8746   64.1912 H   0  0  0  0  0  0  0  0  0  0  0  0
  -40.5832   60.5898   61.4674 O   0  0  0  0  0  0  0  0  0  0  0  0
  -40.8048   59.7935   60.2856 C   0  0  0  0  0  0  0  0  0  0  0  0
  -40.1524   57.6910   59.3389 O   0  0  0  0  0  0  0  0  0  0  0  0
  -39.7256   58.7414   60.2114 C   0  0  0  0  0  0  0  0  0  0  0  0
  -41.0006   57.3372   59.6495 H   0  0  0  0  0  0  0  0  0  0  0  0
  -38.0577   60.4611   60.4925 O   0  0  0  0  0  0  0  0  0  0  0  0
  -38.4054   59.3042   59.7425 C   0  0  0  0  0  0  0  0  0  0  0  0
  -37.2082   60.8075   60.1773 H   0  0  0  0  0  0  0  0  0  0  0  0
  -42.8520   56.7546   64.6491 O   0  0  0  0  0  0  0  0  0  0  0  0
  -42.8369   57.6980   66.6912 O   0  0  0  0  0  0  0  0  0  0  0  0
  -43.4378   57.3145   65.7249 C   0  0  0  0  0  0  0  0  0  0  0  0
  -44.9229   57.4181   65.5641 C   0  0  0  0  0  0  0  0  0  0  0  0
  -45.6119   57.6893   66.8976 C   0  0  0  0  0  0  0  0  0  0  0  0
  -46.1781   59.0941   67.0243 C   0  0  0  0  0  0  0  0  0  0  0  0
  -46.1687   59.8756   65.7155 C   0  0  0  0  0  0  0  0  0  0  0  0
  -47.5345   60.0119   65.0685 C   0  0  0  0  0  0  0  0  0  0  0  0
  -48.7087   59.9994   66.0513 C   0  0  0  0  0  0  0  0  0  0  0  0
  -49.9392   59.2176   65.5862 C   0  0  0  0  0  0  0  0  0  0  0  0
  -50.9779   60.1099   64.9756 C   0  0  0  0  0  0  0  0  0  0  0  0
  -51.1951   60.2994   63.6886 C   0  0  0  0  0  0  0  0  0  0  0  0
  -50.4464   59.6578   62.5633 C   0  0  0  0  0  0  0  0  0  0  0  0
  -51.0340   58.3059   62.1690 C   0  0  0  0  0  0  0  0  0  0  0  0
  -50.7108   57.8932   60.7438 C   0  0  0  0  0  0  0  0  0  0  0  0
  -49.6165   56.8444   60.6457 C   0  0  0  0  0  0  0  0  0  0  0  0
  -48.2792   57.3738   60.1550 C   0  0  0  0  0  0  0  0  0  0  0  0
  -48.3998   58.3163   58.9672 C   0  0  0  0  0  0  0  0  0  0  0  0
  -47.9515   57.7165   57.6492 C   0  0  0  0  0  0  0  0  0  0  0  0
  -46.7856   58.4476   57.0443 C   0  0  0  0  0  0  0  0  0  0  0  0
 21 22  1  0  0  0
  4  5  2  0  0  0
 25 24  1  0  0  0
 25 26  2  0  0  0
 25 27  1  0  0  0
 25 29  1  0  0  0
 22 20  1  0  0  0
  3  5  1  0  0  0
  3  2  1  0  0  0
 20 19  1  0  0  0
 24 23  1  0  0  0
 19 18  1  0  0  0
 18 17  1  0  0  0
 27 28  1  0  0  0
 17 16  1  0  0  0
 29 30  1  0  0  0
 16 15  1  0  0  0
 34 35  1  0  0  0
 34 36  1  0  0  0
 15 14  1  0  0  0
 31 32  1  0  0  0
 31 33  1  0  0  0
 14 13  1  0  0  0
 37  1  1  0  0  0
 37 39  1  0  0  0
 13 12  1  0  0  0
 38 39  2  0  0  0
 12 11  1  0  0  0
 11 10  1  0  0  0
 10  9  1  0  0  0
  9  8  1  0  0  0
  8  7  1  0  0  0
  7  6  1  0  0  0
  6  5  1  0  0  0
  2  1  1  0  0  0
  1 23  1  0  0  0
 30 32  1  0  0  0
 32 35  1  0  0  0
 39 40  1  0  0  0
 40 41  1  0  0  0
 41 42  1  0  0  0
 42 43  1  0  0  0
 43 44  1  0  0  0
 44 45  1  0  0  0
 45 46  1  0  0  0
 46 47  1  0  0  0
 47 48  2  0  0  0
 48 49  1  0  0  0
 49 50  1  0  0  0
 50 51  1  0  0  0
 51 52  1  0  0  0
 52 53  1  0  0  0
 53 54  1  0  0  0
 54 55  1  0  0  0
 55 56  1  0  0  0
M  CHG 1  26  -1
M  END
> <minimizedAffinity>
-8.05409

> <CNNscore>
0.3032044470

> <CNNaffinity>
6.8324460983

> <CNN_VS>
2.0716280937

> <CNNaffinity_variance>
0.7528653145

$$$$
/media/chris/experiments/cd1a-new-docking/inputs/ligands/7sh4_ligand.pdb


 56 55  0  0  0  0  0  0  0  0999 V2000
  -37.0861   61.9564   63.4463 C   0  0  0  0  0  0  0  0  0  0  0  0
  -38.5345   61.5652   63.3650 C   0  0  0  0  0  0  0  0  0  0  0  0
  -38.9292   61.3990   64.7433 O   0  0  0  0  0  0  0  0  0  0  0  0
  -40.6020   60.7246   66.0649 O   0  0  0  0  0  0  0  0  0  0  0  0
  -40.1553   60.9252   64.9677 C   0  0  0  0  0  0  0  0  0  0  0  0
  -40.9310   60.7996   63.6881 C   0  0  0  0  0  0  0  0  0  0  0  0
  -42.4053   60.4894   63.8843 C   0  0  0  0  0  0  0  0  0  0  0  0
  -43.2176   61.7126   64.2540 C   0  0  0  0  0  0  0  0  0  0  0  0
  -44.7126   61.5240   64.1298 C   0  0  0  0  0  0  0  0  0  0  0  0
  -45.2043   60.2429   64.7724 C   0  0  0  0  0  0  0  0  0  0  0  0
  -46.6625   59.9640   64.5013 C   0  0  0  0  0  0  0  0  0  0  0  0
  -47.4203   59.5446   65.7332 C   0  0  0  0  0  0  0  0  0  0  0  0
  -48.6781   60.3513   65.9679 C   0  0  0  0  0  0  0  0  0  0  0  0
  -49.9384   59.5184   65.8489 C   0  0  0  0  0  0  0  0  0  0  0  0
  -50.9123   60.0172   64.8021 C   0  0  0  0  0  0  0  0  0  0  0  0
  -50.3709   59.9563   63.3782 C   0  0  0  0  0  0  0  0  0  0  0  0
  -50.2240   58.5482   62.8344 C   0  0  0  0  0  0  0  0  0  0  0  0
  -49.0070   58.3683   61.9503 C   0  0  0  0  0  0  0  0  0  0  0  0
  -49.3097   58.4897   60.4633 C   0  0  0  0  0  0  0  0  0  0  0  0
  -48.3627   57.6932   59.5834 C   0  0  0  0  0  0  0  0  0  0  0  0
  -47.0870   58.1765   57.4680 C   0  0  0  0  0  0  0  0  0  0  0  0
  -48.4493   58.0151   58.1036 C   0  0  0  0  0  0  0  0  0  0  0  0
  -36.8104   63.2577   62.7376 C   0  0  0  0  0  0  0  0  0  0  0  0
  -35.8910   64.0362   63.5357 O   0  0  0  0  0  0  0  0  0  0  0  0
  -34.3602   64.2596   63.1250 P   0  0  0  0  0  0  0  0  0  0  0  0
  -34.0888   63.4544   61.9146 O   0  0  0  0  0  0  0  0  0  0  0  0
  -34.1021   65.7191   63.0822 O   0  0  0  0  0  0  0  0  0  0  0  0
  -34.6114   66.1165   62.3585 H   0  0  0  0  0  0  0  0  0  0  0  0
  -33.5072   63.6462   64.3243 O   0  0  0  0  0  0  0  0  0  0  0  0
  -33.4405   64.3362   65.5890 C   0  0  0  0  0  0  0  0  0  0  0  0
  -33.4756   63.2879   67.7437 O   0  0  0  0  0  0  0  0  0  0  0  0
  -34.2731   63.5745   66.5910 C   0  0  0  0  0  0  0  0  0  0  0  0
  -32.6787   62.8051   67.4737 H   0  0  0  0  0  0  0  0  0  0  0  0
  -36.6403   63.8793   66.2420 O   0  0  0  0  0  0  0  0  0  0  0  0
  -35.5190   64.3267   66.9932 C   0  0  0  0  0  0  0  0  0  0  0  0
  -37.4295   64.3732   66.5141 H   0  0  0  0  0  0  0  0  0  0  0  0
  -36.2806   60.8603   62.8988 O   0  0  0  0  0  0  0  0  0  0  0  0
  -34.1260   60.4904   63.4292 O   0  0  0  0  0  0  0  0  0  0  0  0
  -35.2950   60.3778   63.6797 C   0  0  0  0  0  0  0  0  0  0  0  0
  -35.8299   59.7021   64.9041 C   0  0  0  0  0  0  0  0  0  0  0  0
  -36.2415   58.2625   64.6133 C   0  0  0  0  0  0  0  0  0  0  0  0
  -37.7390   58.0192   64.7045 C   0  0  0  0  0  0  0  0  0  0  0  0
  -38.4500   58.0810   63.3575 C   0  0  0  0  0  0  0  0  0  0  0  0
  -37.6920   57.4080   62.2284 C   0  0  0  0  0  0  0  0  0  0  0  0
  -37.1706   58.3647   61.1524 C   0  0  0  0  0  0  0  0  0  0  0  0
  -38.2477   59.1542   60.4052 C   0  0  0  0  0  0  0  0  0  0  0  0
  -38.9239   58.3294   59.3515 C   0  0  0  0  0  0  0  0  0  0  0  0
  -40.2219   58.1444   59.2090 C   0  0  0  0  0  0  0  0  0  0  0  0
  -41.2963   58.7244   60.0736 C   0  0  0  0  0  0  0  0  0  0  0  0
  -41.4609   57.9643   61.3865 C   0  0  0  0  0  0  0  0  0  0  0  0
  -41.2954   56.4614   61.2455 C   0  0  0  0  0  0  0  0  0  0  0  0
  -41.2896   55.7213   62.5719 C   0  0  0  0  0  0  0  0  0  0  0  0
  -41.6277   56.5846   63.7761 C   0  0  0  0  0  0  0  0  0  0  0  0
  -42.9969   56.2880   64.3686 C   0  0  0  0  0  0  0  0  0  0  0  0
  -43.4377   57.2682   65.4375 C   0  0  0  0  0  0  0  0  0  0  0  0
  -42.2977   57.7491   66.2913 C   0  0  0  0  0  0  0  0  0  0  0  0
 21 22  1  0  0  0
  4  5  2  0  0  0
 25 24  1  0  0  0
 25 26  2  0  0  0
 25 27  1  0  0  0
 25 29  1  0  0  0
 22 20  1  0  0  0
  3  5  1  0  0  0
  3  2  1  0  0  0
 20 19  1  0  0  0
 24 23  1  0  0  0
 19 18  1  0  0  0
 18 17  1  0  0  0
 27 28  1  0  0  0
 17 16  1  0  0  0
 29 30  1  0  0  0
 16 15  1  0  0  0
 34 35  1  0  0  0
 34 36  1  0  0  0
 15 14  1  0  0  0
 31 32  1  0  0  0
 31 33  1  0  0  0
 14 13  1  0  0  0
 37  1  1  0  0  0
 37 39  1  0  0  0
 13 12  1  0  0  0
 38 39  2  0  0  0
 12 11  1  0  0  0
 11 10  1  0  0  0
 10  9  1  0  0  0
  9  8  1  0  0  0
  8  7  1  0  0  0
  7  6  1  0  0  0
  6  5  1  0  0  0
  2  1  1  0  0  0
  1 23  1  0  0  0
 30 32  1  0  0  0
 32 35  1  0  0  0
 39 40  1  0  0  0
 40 41  1  0  0  0
 41 42  1  0  0  0
 42 43  1  0  0  0
 43 44  1  0  0  0
 44 45  1  0  0  0
 45 46  1  0  0  0
 46 47  1  0  0  0
 47 48  2  0  0  0
 48 49  1  0  0  0
 49 50  1  0  0  0
 50 51  1  0  0  0
 51 52  1  0  0  0
 52 53  1  0  0  0
 53 54  1  0  0  0
 54 55  1  0  0  0
 55 56  1  0  0  0
M  CHG 1  26  -1
M  END
> <minimizedAffinity>
-8.34794

> <CNNscore>
0.2631568611

> <CNNaffinity>
7.4416322708

> <CNN_VS>
1.9583165646

> <CNNaffinity_variance>
1.0367267132

$$$$
/media/chris/experiments/cd1a-new-docking/inputs/ligands/7sh4_ligand.pdb


 56 55  0  0  0  0  0  0  0  0999 V2000
  -40.4589   61.0411   61.7220 C   0  0  0  0  0  0  0  0  0  0  0  0
  -40.6645   60.4856   60.3411 C   0  0  0  0  0  0  0  0  0  0  0  0
  -41.2821   59.2013   60.5697 O   0  0  0  0  0  0  0  0  0  0  0  0
  -39.9153   58.2276   59.0922 O   0  0  0  0  0  0  0  0  0  0  0  0
  -40.7146   58.1455   59.9855 C   0  0  0  0  0  0  0  0  0  0  0  0
  -41.1089   56.8690   60.6709 C   0  0  0  0  0  0  0  0  0  0  0  0
  -41.7780   57.0702   62.0200 C   0  0  0  0  0  0  0  0  0  0  0  0
  -41.5435   55.9138   62.9690 C   0  0  0  0  0  0  0  0  0  0  0  0
  -42.3375   55.9957   64.2530 C   0  0  0  0  0  0  0  0  0  0  0  0
  -42.5788   57.4196   64.7116 C   0  0  0  0  0  0  0  0  0  0  0  0
  -41.7890   57.7889   65.9433 C   0  0  0  0  0  0  0  0  0  0  0  0
  -41.2832   59.2071   65.9148 C   0  0  0  0  0  0  0  0  0  0  0  0
  -39.8326   59.3189   65.5011 C   0  0  0  0  0  0  0  0  0  0  0  0
  -39.3714   58.1451   64.6610 C   0  0  0  0  0  0  0  0  0  0  0  0
  -37.9664   58.2901   64.1150 C   0  0  0  0  0  0  0  0  0  0  0  0
  -36.8750   57.9596   65.1270 C   0  0  0  0  0  0  0  0  0  0  0  0
  -35.5269   57.6558   64.5022 C   0  0  0  0  0  0  0  0  0  0  0  0
  -35.5419   57.6985   62.9879 C   0  0  0  0  0  0  0  0  0  0  0  0
  -34.2959   58.3301   62.3828 C   0  0  0  0  0  0  0  0  0  0  0  0
  -33.0210   58.0059   63.1410 C   0  0  0  0  0  0  0  0  0  0  0  0
  -32.5453   60.4147   62.5869 C   0  0  0  0  0  0  0  0  0  0  0  0
  -32.0604   59.1698   63.2945 C   0  0  0  0  0  0  0  0  0  0  0  0
  -39.0344   60.8844   62.1890 C   0  0  0  0  0  0  0  0  0  0  0  0
  -38.7864   61.8319   63.2516 O   0  0  0  0  0  0  0  0  0  0  0  0
  -37.3124   62.2479   63.7163 P   0  0  0  0  0  0  0  0  0  0  0  0
  -36.4021   61.1225   63.4134 O   0  0  0  0  0  0  0  0  0  0  0  0
  -37.0085   63.5829   63.1470 O   0  0  0  0  0  0  0  0  0  0  0  0
  -36.9524   63.5173   62.1808 H   0  0  0  0  0  0  0  0  0  0  0  0
  -37.3960   62.3988   65.3015 O   0  0  0  0  0  0  0  0  0  0  0  0
  -36.2157   62.2074   66.1077 C   0  0  0  0  0  0  0  0  0  0  0  0
  -36.1384   64.0213   67.6717 O   0  0  0  0  0  0  0  0  0  0  0  0
  -35.6263   63.5616   66.4175 C   0  0  0  0  0  0  0  0  0  0  0  0
  -37.1079   64.0323   67.6407 H   0  0  0  0  0  0  0  0  0  0  0  0
  -33.6407   63.5861   67.7869 O   0  0  0  0  0  0  0  0  0  0  0  0
  -34.1169   63.5382   66.4480 C   0  0  0  0  0  0  0  0  0  0  0  0
  -32.6708   63.5701   67.7859 H   0  0  0  0  0  0  0  0  0  0  0  0
  -41.4022   60.3811   62.6301 O   0  0  0  0  0  0  0  0  0  0  0  0
  -42.1982   62.2917   63.5114 O   0  0  0  0  0  0  0  0  0  0  0  0
  -42.3633   61.1503   63.1766 C   0  0  0  0  0  0  0  0  0  0  0  0
  -43.6642   60.4193   63.2992 C   0  0  0  0  0  0  0  0  0  0  0  0
  -44.3336   60.6911   64.6426 C   0  0  0  0  0  0  0  0  0  0  0  0
  -45.7887   60.2563   64.7052 C   0  0  0  0  0  0  0  0  0  0  0  0
  -46.2904   60.0082   66.1231 C   0  0  0  0  0  0  0  0  0  0  0  0
  -47.8005   60.0628   66.2617 C   0  0  0  0  0  0  0  0  0  0  0  0
  -48.5706   59.6527   65.0032 C   0  0  0  0  0  0  0  0  0  0  0  0
  -49.3539   60.7777   64.3232 C   0  0  0  0  0  0  0  0  0  0  0  0
  -50.8052   60.4377   64.1613 C   0  0  0  0  0  0  0  0  0  0  0  0
  -51.3315   59.6486   63.2450 C   0  0  0  0  0  0  0  0  0  0  0  0
  -50.5849   58.9227   62.1708 C   0  0  0  0  0  0  0  0  0  0  0  0
  -49.8051   59.8688   61.2624 C   0  0  0  0  0  0  0  0  0  0  0  0
  -49.4317   59.2581   59.9231 C   0  0  0  0  0  0  0  0  0  0  0  0
  -50.0321   57.8823   59.6915 C   0  0  0  0  0  0  0  0  0  0  0  0
  -49.0276   56.7425   59.7291 C   0  0  0  0  0  0  0  0  0  0  0  0
  -47.6032   57.1802   59.4239 C   0  0  0  0  0  0  0  0  0  0  0  0
  -47.1714   56.9377   57.9912 C   0  0  0  0  0  0  0  0  0  0  0  0
  -47.0227   58.2105   57.2053 C   0  0  0  0  0  0  0  0  0  0  0  0
 21 22  1  0  0  0
  4  5  2  0  0  0
 25 24  1  0  0  0
 25 26  2  0  0  0
 25 27  1  0  0  0
 25 29  1  0  0  0
 22 20  1  0  0  0
  3  5  1  0  0  0
  3  2  1  0  0  0
 20 19  1  0  0  0
 24 23  1  0  0  0
 19 18  1  0  0  0
 18 17  1  0  0  0
 27 28  1  0  0  0
 17 16  1  0  0  0
 29 30  1  0  0  0
 16 15  1  0  0  0
 34 35  1  0  0  0
 34 36  1  0  0  0
 15 14  1  0  0  0
 31 32  1  0  0  0
 31 33  1  0  0  0
 14 13  1  0  0  0
 37  1  1  0  0  0
 37 39  1  0  0  0
 13 12  1  0  0  0
 38 39  2  0  0  0
 12 11  1  0  0  0
 11 10  1  0  0  0
 10  9  1  0  0  0
  9  8  1  0  0  0
  8  7  1  0  0  0
  7  6  1  0  0  0
  6  5  1  0  0  0
  2  1  1  0  0  0
  1 23  1  0  0  0
 30 32  1  0  0  0
 32 35  1  0  0  0
 39 40  1  0  0  0
 40 41  1  0  0  0
 41 42  1  0  0  0
 42 43  1  0  0  0
 43 44  1  0  0  0
 44 45  1  0  0  0
 45 46  1  0  0  0
 46 47  1  0  0  0
 47 48  2  0  0  0
 48 49  1  0  0  0
 49 50  1  0  0  0
 50 51  1  0  0  0
 51 52  1  0  0  0
 52 53  1  0  0  0
 53 54  1  0  0  0
 54 55  1  0  0  0
 55 56  1  0  0  0
M  CHG 1  26  -1
M  END
> <minimizedAffinity>
-8.68553

> <CNNscore>
0.2496222854

> <CNNaffinity>
7.3684339523

> <CNN_VS>
1.8393253088

> <CNNaffinity_variance>
1.1665436029

$$$$
/media/chris/experiments/cd1a-new-docking/inputs/ligands/7sh4_ligand.pdb


 56 55  0  0  0  0  0  0  0  0999 V2000
  -40.3525   57.8842   61.7296 C   0  0  0  0  0  0  0  0  0  0  0  0
  -41.1202   56.7086   62.2645 C   0  0  0  0  0  0  0  0  0  0  0  0
  -42.0347   57.2925   63.2163 O   0  0  0  0  0  0  0  0  0  0  0  0
  -41.6825   55.7215   64.7678 O   0  0  0  0  0  0  0  0  0  0  0  0
  -42.4021   56.5304   64.2469 C   0  0  0  0  0  0  0  0  0  0  0  0
  -43.7705   56.9056   64.7385 C   0  0  0  0  0  0  0  0  0  0  0  0
  -43.7647   57.8283   65.9455 C   0  0  0  0  0  0  0  0  0  0  0  0
  -45.0401   58.6344   66.0733 C   0  0  0  0  0  0  0  0  0  0  0  0
  -45.4076   59.4132   64.8305 C   0  0  0  0  0  0  0  0  0  0  0  0
  -46.8102   59.9843   64.8815 C   0  0  0  0  0  0  0  0  0  0  0  0
  -47.8346   58.9993   65.3893 C   0  0  0  0  0  0  0  0  0  0  0  0
  -49.0335   59.6652   66.0113 C   0  0  0  0  0  0  0  0  0  0  0  0
  -50.3483   59.2093   65.4184 C   0  0  0  0  0  0  0  0  0  0  0  0
  -50.9932   60.2651   64.5433 C   0  0  0  0  0  0  0  0  0  0  0  0
  -50.9355   59.9590   63.0614 C   0  0  0  0  0  0  0  0  0  0  0  0
  -50.9677   58.4694   62.7382 C   0  0  0  0  0  0  0  0  0  0  0  0
  -50.6553   58.1462   61.2898 C   0  0  0  0  0  0  0  0  0  0  0  0
  -49.1804   57.9197   61.0282 C   0  0  0  0  0  0  0  0  0  0  0  0
  -48.9017   56.8022   60.0326 C   0  0  0  0  0  0  0  0  0  0  0  0
  -48.6785   57.2942   58.6137 C   0  0  0  0  0  0  0  0  0  0  0  0
  -46.9865   58.4014   57.1146 C   0  0  0  0  0  0  0  0  0  0  0  0
  -47.2244   57.3626   58.1870 C   0  0  0  0  0  0  0  0  0  0  0  0
  -41.2005   58.7570   60.8404 C   0  0  0  0  0  0  0  0  0  0  0  0
  -40.9720   60.1400   61.1915 O   0  0  0  0  0  0  0  0  0  0  0  0
  -41.8091   60.8965   62.3268 P   0  0  0  0  0  0  0  0  0  0  0  0
  -42.4083   62.1067   61.7241 O   0  0  0  0  0  0  0  0  0  0  0  0
  -42.7024   59.9079   62.9775 O   0  0  0  0  0  0  0  0  0  0  0  0
  -43.3689   59.6059   62.3407 H   0  0  0  0  0  0  0  0  0  0  0  0
  -40.7314   61.3665   63.4039 O   0  0  0  0  0  0  0  0  0  0  0  0
  -39.3503   60.9769   63.2602 C   0  0  0  0  0  0  0  0  0  0  0  0
  -39.0716   61.4168   65.5993 O   0  0  0  0  0  0  0  0  0  0  0  0
  -38.8698   60.4310   64.5824 C   0  0  0  0  0  0  0  0  0  0  0  0
  -38.6219   62.2385   65.3469 H   0  0  0  0  0  0  0  0  0  0  0  0
  -40.8693   59.4049   65.4584 O   0  0  0  0  0  0  0  0  0  0  0  0
  -39.5638   59.1440   64.9592 C   0  0  0  0  0  0  0  0  0  0  0  0
  -41.2984   58.5676   65.6945 H   0  0  0  0  0  0  0  0  0  0  0  0
  -39.1692   57.3808   61.0251 O   0  0  0  0  0  0  0  0  0  0  0  0
  -37.6011   58.8737   60.4144 O   0  0  0  0  0  0  0  0  0  0  0  0
  -38.0208   58.0637   61.1952 C   0  0  0  0  0  0  0  0  0  0  0  0
  -37.3413   57.7063   62.4807 C   0  0  0  0  0  0  0  0  0  0  0  0
  -36.0023   58.4228   62.6232 C   0  0  0  0  0  0  0  0  0  0  0  0
  -34.8491   57.5057   62.9960 C   0  0  0  0  0  0  0  0  0  0  0  0
  -33.5806   58.2518   63.3936 C   0  0  0  0  0  0  0  0  0  0  0  0
  -33.1635   59.3280   62.4086 C   0  0  0  0  0  0  0  0  0  0  0  0
  -32.3559   60.4749   63.0228 C   0  0  0  0  0  0  0  0  0  0  0  0
  -31.9796   61.5984   62.0545 C   0  0  0  0  0  0  0  0  0  0  0  0
  -31.8349   62.9188   62.7499 C   0  0  0  0  0  0  0  0  0  0  0  0
  -32.5604   64.0008   62.5441 C   0  0  0  0  0  0  0  0  0  0  0  0
  -33.6869   64.1358   61.5688 C   0  0  0  0  0  0  0  0  0  0  0  0
  -34.8983   64.8404   62.1724 C   0  0  0  0  0  0  0  0  0  0  0  0
  -36.1979   64.0742   61.9992 C   0  0  0  0  0  0  0  0  0  0  0  0
  -36.6227   63.3056   63.2385 C   0  0  0  0  0  0  0  0  0  0  0  0
  -35.6369   62.2395   63.6869 C   0  0  0  0  0  0  0  0  0  0  0  0
  -35.3348   62.2823   65.1771 C   0  0  0  0  0  0  0  0  0  0  0  0
  -34.6569   63.5574   65.6380 C   0  0  0  0  0  0  0  0  0  0  0  0
  -33.5160   63.3007   66.5826 C   0  0  0  0  0  0  0  0  0  0  0  0
 21 22  1  0  0  0
  4  5  2  0  0  0
 25 24  1  0  0  0
 25 26  2  0  0  0
 25 27  1  0  0  0
 25 29  1  0  0  0
 22 20  1  0  0  0
  3  5  1  0  0  0
  3  2  1  0  0  0
 20 19  1  0  0  0
 24 23  1  0  0  0
 19 18  1  0  0  0
 18 17  1  0  0  0
 27 28  1  0  0  0
 17 16  1  0  0  0
 29 30  1  0  0  0
 16 15  1  0  0  0
 34 35  1  0  0  0
 34 36  1  0  0  0
 15 14  1  0  0  0
 31 32  1  0  0  0
 31 33  1  0  0  0
 14 13  1  0  0  0
 37  1  1  0  0  0
 37 39  1  0  0  0
 13 12  1  0  0  0
 38 39  2  0  0  0
 12 11  1  0  0  0
 11 10  1  0  0  0
 10  9  1  0  0  0
  9  8  1  0  0  0
  8  7  1  0  0  0
  7  6  1  0  0  0
  6  5  1  0  0  0
  2  1  1  0  0  0
  1 23  1  0  0  0
 30 32  1  0  0  0
 32 35  1  0  0  0
 39 40  1  0  0  0
 40 41  1  0  0  0
 41 42  1  0  0  0
 42 43  1  0  0  0
 43 44  1  0  0  0
 44 45  1  0  0  0
 45 46  1  0  0  0
 46 47  1  0  0  0
 47 48  2  0  0  0
 48 49  1  0  0  0
 49 50  1  0  0  0
 50 51  1  0  0  0
 51 52  1  0  0  0
 52 53  1  0  0  0
 53 54  1  0  0  0
 54 55  1  0  0  0
 55 56  1  0  0  0
M  CHG 1  26  -1
M  END
> <minimizedAffinity>
-7.84386

> <CNNscore>
0.2285399288

> <CNNaffinity>
6.7803754807

> <CNN_VS>
1.5495865345

> <CNNaffinity_variance>
1.4103448391

$$$$
/media/chris/experiments/cd1a-new-docking/inputs/ligands/7sh4_ligand.pdb


 56 55  0  0  0  0  0  0  0  0999 V2000
  -42.1127   58.4177   63.0895 C   0  0  0  0  0  0  0  0  0  0  0  0
  -43.4472   58.7761   63.6797 C   0  0  0  0  0  0  0  0  0  0  0  0
  -43.8090   57.6145   64.4561 O   0  0  0  0  0  0  0  0  0  0  0  0
  -42.6269   57.7946   66.3454 O   0  0  0  0  0  0  0  0  0  0  0  0
  -43.6838   57.7099   65.7802 C   0  0  0  0  0  0  0  0  0  0  0  0
  -45.0253   57.8229   66.4453 C   0  0  0  0  0  0  0  0  0  0  0  0
  -45.3613   59.2228   66.9305 C   0  0  0  0  0  0  0  0  0  0  0  0
  -46.6630   59.7445   66.3596 C   0  0  0  0  0  0  0  0  0  0  0  0
  -46.6619   59.8988   64.8556 C   0  0  0  0  0  0  0  0  0  0  0  0
  -47.7231   59.0603   64.1724 C   0  0  0  0  0  0  0  0  0  0  0  0
  -48.4891   58.1781   65.1276 C   0  0  0  0  0  0  0  0  0  0  0  0
  -49.9790   58.3841   65.0528 C   0  0  0  0  0  0  0  0  0  0  0  0
  -50.3915   59.8342   65.1764 C   0  0  0  0  0  0  0  0  0  0  0  0
  -51.2618   60.2953   64.0248 C   0  0  0  0  0  0  0  0  0  0  0  0
  -51.1145   59.4644   62.7675 C   0  0  0  0  0  0  0  0  0  0  0  0
  -50.1704   60.0708   61.7354 C   0  0  0  0  0  0  0  0  0  0  0  0
  -49.4052   59.0445   60.9221 C   0  0  0  0  0  0  0  0  0  0  0  0
  -50.1047   58.6519   59.6369 C   0  0  0  0  0  0  0  0  0  0  0  0
  -49.2808   57.7274   58.7515 C   0  0  0  0  0  0  0  0  0  0  0  0
  -47.9051   58.2749   58.4153 C   0  0  0  0  0  0  0  0  0  0  0  0
  -47.0590   56.2897   57.1195 C   0  0  0  0  0  0  0  0  0  0  0  0
  -47.3270   57.7775   57.1040 C   0  0  0  0  0  0  0  0  0  0  0  0
  -41.2134   59.6194   62.9516 C   0  0  0  0  0  0  0  0  0  0  0  0
  -41.3578   60.4458   64.1284 O   0  0  0  0  0  0  0  0  0  0  0  0
  -40.3066   60.4278   65.3352 P   0  0  0  0  0  0  0  0  0  0  0  0
  -40.8811   61.2053   66.4543 O   0  0  0  0  0  0  0  0  0  0  0  0
  -39.9057   59.0209   65.5772 O   0  0  0  0  0  0  0  0  0  0  0  0
  -40.6677   58.5197   65.9074 H   0  0  0  0  0  0  0  0  0  0  0  0
  -39.0296   61.2151   64.7949 O   0  0  0  0  0  0  0  0  0  0  0  0
  -37.8207   61.2546   65.5804 C   0  0  0  0  0  0  0  0  0  0  0  0
  -35.5283   61.6285   64.9910 O   0  0  0  0  0  0  0  0  0  0  0  0
  -36.8437   62.1843   64.9035 C   0  0  0  0  0  0  0  0  0  0  0  0
  -35.3076   61.4649   65.9214 H   0  0  0  0  0  0  0  0  0  0  0  0
  -36.0769   62.9283   62.7409 O   0  0  0  0  0  0  0  0  0  0  0  0
  -37.2041   62.4456   63.4607 C   0  0  0  0  0  0  0  0  0  0  0  0
  -36.3277   63.0899   61.8179 H   0  0  0  0  0  0  0  0  0  0  0  0
  -42.3404   57.7607   61.7986 O   0  0  0  0  0  0  0  0  0  0  0  0
  -41.1352   55.8957   62.1588 O   0  0  0  0  0  0  0  0  0  0  0  0
  -41.4682   56.7988   61.4408 C   0  0  0  0  0  0  0  0  0  0  0  0
  -40.9789   56.9796   60.0373 C   0  0  0  0  0  0  0  0  0  0  0  0
  -41.2360   58.3963   59.5339 C   0  0  0  0  0  0  0  0  0  0  0  0
  -40.0033   59.2854   59.5391 C   0  0  0  0  0  0  0  0  0  0  0  0
  -38.7137   58.5416   59.2113 C   0  0  0  0  0  0  0  0  0  0  0  0
  -37.6271   58.6994   60.2586 C   0  0  0  0  0  0  0  0  0  0  0  0
  -37.9340   58.0284   61.6005 C   0  0  0  0  0  0  0  0  0  0  0  0
  -37.4729   58.8032   62.8369 C   0  0  0  0  0  0  0  0  0  0  0  0
  -36.9167   57.8987   63.8954 C   0  0  0  0  0  0  0  0  0  0  0  0
  -35.6592   57.5245   64.0302 C   0  0  0  0  0  0  0  0  0  0  0  0
  -34.5188   57.9288   63.1501 C   0  0  0  0  0  0  0  0  0  0  0  0
  -33.5393   58.8607   63.8576 C   0  0  0  0  0  0  0  0  0  0  0  0
  -32.1728   58.9229   63.1981 C   0  0  0  0  0  0  0  0  0  0  0  0
  -31.9099   60.2247   62.4611 C   0  0  0  0  0  0  0  0  0  0  0  0
  -32.7820   61.3872   62.9058 C   0  0  0  0  0  0  0  0  0  0  0  0
  -32.3079   62.7346   62.3830 C   0  0  0  0  0  0  0  0  0  0  0  0
  -31.8184   63.6824   63.4600 C   0  0  0  0  0  0  0  0  0  0  0  0
  -32.9138   64.1185   64.3926 C   0  0  0  0  0  0  0  0  0  0  0  0
 21 22  1  0  0  0
  4  5  2  0  0  0
 25 24  1  0  0  0
 25 26  2  0  0  0
 25 27  1  0  0  0
 25 29  1  0  0  0
 22 20  1  0  0  0
  3  5  1  0  0  0
  3  2  1  0  0  0
 20 19  1  0  0  0
 24 23  1  0  0  0
 19 18  1  0  0  0
 18 17  1  0  0  0
 27 28  1  0  0  0
 17 16  1  0  0  0
 29 30  1  0  0  0
 16 15  1  0  0  0
 34 35  1  0  0  0
 34 36  1  0  0  0
 15 14  1  0  0  0
 31 32  1  0  0  0
 31 33  1  0  0  0
 14 13  1  0  0  0
 37  1  1  0  0  0
 37 39  1  0  0  0
 13 12  1  0  0  0
 38 39  2  0  0  0
 12 11  1  0  0  0
 11 10  1  0  0  0
 10  9  1  0  0  0
  9  8  1  0  0  0
  8  7  1  0  0  0
  7  6  1  0  0  0
  6  5  1  0  0  0
  2  1  1  0  0  0
  1 23  1  0  0  0
 30 32  1  0  0  0
 32 35  1  0  0  0
 39 40  1  0  0  0
 40 41  1  0  0  0
 41 42  1  0  0  0
 42 43  1  0  0  0
 43 44  1  0  0  0
 44 45  1  0  0  0
 45 46  1  0  0  0
 46 47  1  0  0  0
 47 48  2  0  0  0
 48 49  1  0  0  0
 49 50  1  0  0  0
 50 51  1  0  0  0
 51 52  1  0  0  0
 52 53  1  0  0  0
 53 54  1  0  0  0
 54 55  1  0  0  0
 55 56  1  0  0  0
M  CHG 1  26  -1
M  END
> <minimizedAffinity>
-8.28680

> <CNNscore>
0.2249346375

> <CNNaffinity>
7.0256667137

> <CNN_VS>
1.5803158283

> <CNNaffinity_variance>
1.1530458927

$$$$
