/media/chris/experiments/cd1a-new-docking/inputs/ligands/7sh4_ligand.pdb


 56 55  0  0  0  0  0  0  0  0999 V2000
  -40.6355   60.4268   63.9207 C   0  0  0  0  0  0  0  0  0  0  0  0
  -40.4409   59.9581   65.3350 C   0  0  0  0  0  0  0  0  0  0  0  0
  -40.5576   58.5223   65.2463 O   0  0  0  0  0  0  0  0  0  0  0  0
  -42.6254   58.4640   66.0949 O   0  0  0  0  0  0  0  0  0  0  0  0
  -41.7805   58.0066   65.3732 C   0  0  0  0  0  0  0  0  0  0  0  0
  -41.9937   56.8725   64.4123 C   0  0  0  0  0  0  0  0  0  0  0  0
  -40.9989   56.8364   63.2645 C   0  0  0  0  0  0  0  0  0  0  0  0
  -41.3159   55.7601   62.2478 C   0  0  0  0  0  0  0  0  0  0  0  0
  -41.4531   56.2683   60.8305 C   0  0  0  0  0  0  0  0  0  0  0  0
  -41.4568   57.7810   60.7403 C   0  0  0  0  0  0  0  0  0  0  0  0
  -41.0637   58.2957   59.3773 C   0  0  0  0  0  0  0  0  0  0  0  0
  -39.5899   58.1595   59.0995 C   0  0  0  0  0  0  0  0  0  0  0  0
  -38.7474   59.1993   59.8044 C   0  0  0  0  0  0  0  0  0  0  0  0
  -37.5963   58.5920   60.5805 C   0  0  0  0  0  0  0  0  0  0  0  0
  -38.0130   57.5226   61.5684 C   0  0  0  0  0  0  0  0  0  0  0  0
  -37.3833   57.6792   62.9479 C   0  0  0  0  0  0  0  0  0  0  0  0
  -35.8673   57.7215   62.9321 C   0  0  0  0  0  0  0  0  0  0  0  0
  -35.2622   58.1133   64.2646 C   0  0  0  0  0  0  0  0  0  0  0  0
  -33.7427   58.2034   64.2418 C   0  0  0  0  0  0  0  0  0  0  0  0
  -33.2207   59.5463   63.7628 C   0  0  0  0  0  0  0  0  0  0  0  0
  -31.8253   60.6596   61.9882 C   0  0  0  0  0  0  0  0  0  0  0  0
  -31.9647   59.4735   62.9154 C   0  0  0  0  0  0  0  0  0  0  0  0
  -39.3240   60.6348   63.2076 C   0  0  0  0  0  0  0  0  0  0  0  0
  -38.8355   61.9608   63.5099 O   0  0  0  0  0  0  0  0  0  0  0  0
  -37.2865   62.2791   63.7571 P   0  0  0  0  0  0  0  0  0  0  0  0
  -36.4972   61.1382   63.2451 O   0  0  0  0  0  0  0  0  0  0  0  0
  -37.0039   63.6352   63.2282 O   0  0  0  0  0  0  0  0  0  0  0  0
  -37.1035   63.6332   62.2633 H   0  0  0  0  0  0  0  0  0  0  0  0
  -37.1123   62.3252   65.3415 O   0  0  0  0  0  0  0  0  0  0  0  0
  -35.7932   62.3937   65.9206 C   0  0  0  0  0  0  0  0  0  0  0  0
  -36.2412   63.9425   67.6935 O   0  0  0  0  0  0  0  0  0  0  0  0
  -35.5726   63.7942   66.4373 C   0  0  0  0  0  0  0  0  0  0  0  0
  -37.1805   63.7252   67.5875 H   0  0  0  0  0  0  0  0  0  0  0  0
  -33.5857   63.5828   67.7885 O   0  0  0  0  0  0  0  0  0  0  0  0
  -34.1077   64.1289   66.5839 C   0  0  0  0  0  0  0  0  0  0  0  0
  -32.6453   63.8080   67.8647 H   0  0  0  0  0  0  0  0  0  0  0  0
  -41.4380   61.6536   63.9473 O   0  0  0  0  0  0  0  0  0  0  0  0
  -42.8372   61.9890   65.6766 O   0  0  0  0  0  0  0  0  0  0  0  0
  -42.6339   61.5875   64.5634 C   0  0  0  0  0  0  0  0  0  0  0  0
  -43.6818   60.9718   63.6886 C   0  0  0  0  0  0  0  0  0  0  0  0
  -45.0807   61.1834   64.2587 C   0  0  0  0  0  0  0  0  0  0  0  0
  -45.7723   59.8996   64.6869 C   0  0  0  0  0  0  0  0  0  0  0  0
  -45.9123   59.7571   66.1981 C   0  0  0  0  0  0  0  0  0  0  0  0
  -47.2519   59.2008   66.6438 C   0  0  0  0  0  0  0  0  0  0  0  0
  -48.4447   60.1235   66.3779 C   0  0  0  0  0  0  0  0  0  0  0  0
  -49.5707   59.5090   65.5436 C   0  0  0  0  0  0  0  0  0  0  0  0
  -49.1023   58.3307   64.7434 C   0  0  0  0  0  0  0  0  0  0  0  0
  -49.4861   58.0039   63.5247 C   0  0  0  0  0  0  0  0  0  0  0  0
  -50.4739   58.7467   62.6814 C   0  0  0  0  0  0  0  0  0  0  0  0
  -50.9329   57.9366   61.4724 C   0  0  0  0  0  0  0  0  0  0  0  0
  -50.3382   58.4124   60.1586 C   0  0  0  0  0  0  0  0  0  0  0  0
  -49.5689   57.3362   59.4121 C   0  0  0  0  0  0  0  0  0  0  0  0
  -48.0614   57.3995   59.5932 C   0  0  0  0  0  0  0  0  0  0  0  0
  -47.3006   56.4577   58.6724 C   0  0  0  0  0  0  0  0  0  0  0  0
  -47.2608   56.9016   57.2236 C   0  0  0  0  0  0  0  0  0  0  0  0
  -46.8914   58.3505   57.0692 C   0  0  0  0  0  0  0  0  0  0  0  0
 21 22  1  0  0  0
  4  5  2  0  0  0
 25 24  1  0  0  0
 25 26  2  0  0  0
 25 27  1  0  0  0
 25 29  1  0  0  0
 22 20  1  0  0  0
  3  5  1  0  0  0
  3  2  1  0  0  0
 20 19  1  0  0  0
 24 23  1  0  0  0
 19 18  1  0  0  0
 18 17  1  0  0  0
 27 28  1  0  0  0
 17 16  1  0  0  0
 29 30  1  0  0  0
 16 15  1  0  0  0
 34 35  1  0  0  0
 34 36  1  0  0  0
 15 14  1  0  0  0
 31 32  1  0  0  0
 31 33  1  0  0  0
 14 13  1  0  0  0
 37  1  1  0  0  0
 37 39  1  0  0  0
 13 12  1  0  0  0
 38 39  2  0  0  0
 12 11  1  0  0  0
 11 10  1  0  0  0
 10  9  1  0  0  0
  9  8  1  0  0  0
  8  7  1  0  0  0
  7  6  1  0  0  0
  6  5  1  0  0  0
  2  1  1  0  0  0
  1 23  1  0  0  0
 30 32  1  0  0  0
 32 35  1  0  0  0
 39 40  1  0  0  0
 40 41  1  0  0  0
 41 42  1  0  0  0
 42 43  1  0  0  0
 43 44  1  0  0  0
 44 45  1  0  0  0
 45 46  1  0  0  0
 46 47  1  0  0  0
 47 48  2  0  0  0
 48 49  1  0  0  0
 49 50  1  0  0  0
 50 51  1  0  0  0
 51 52  1  0  0  0
 52 53  1  0  0  0
 53 54  1  0  0  0
 54 55  1  0  0  0
 55 56  1  0  0  0
M  CHG 1  26  -1
M  END
> <minimizedAffinity>
-8.98837

> <CNNscore>
0.5248894095

> <CNNaffinity>
7.6287779808

> <CNN_VS>
4.0042648315

> <CNNaffinity_variance>
1.6632486582

$$$$
/media/chris/experiments/cd1a-new-docking/inputs/ligands/7sh4_ligand.pdb


 56 55  0  0  0  0  0  0  0  0999 V2000
  -40.7429   60.0348   65.0481 C   0  0  0  0  0  0  0  0  0  0  0  0
  -40.8489   59.0212   63.9440 C   0  0  0  0  0  0  0  0  0  0  0  0
  -40.9371   57.7581   64.6367 O   0  0  0  0  0  0  0  0  0  0  0  0
  -41.8372   55.7157   64.5044 O   0  0  0  0  0  0  0  0  0  0  0  0
  -41.5176   56.7506   63.9843 C   0  0  0  0  0  0  0  0  0  0  0  0
  -41.8264   57.1297   62.5645 C   0  0  0  0  0  0  0  0  0  0  0  0
  -41.1281   56.2681   61.5261 C   0  0  0  0  0  0  0  0  0  0  0  0
  -41.3036   56.7914   60.1162 C   0  0  0  0  0  0  0  0  0  0  0  0
  -40.8096   58.2061   59.9149 C   0  0  0  0  0  0  0  0  0  0  0  0
  -39.6598   58.2989   58.9323 C   0  0  0  0  0  0  0  0  0  0  0  0
  -38.4092   58.8898   59.5355 C   0  0  0  0  0  0  0  0  0  0  0  0
  -38.4085   58.8542   61.0410 C   0  0  0  0  0  0  0  0  0  0  0  0
  -37.6570   57.6729   61.6133 C   0  0  0  0  0  0  0  0  0  0  0  0
  -37.7051   57.6261   63.1272 C   0  0  0  0  0  0  0  0  0  0  0  0
  -36.3727   57.8904   63.7964 C   0  0  0  0  0  0  0  0  0  0  0  0
  -35.1747   57.7345   62.8665 C   0  0  0  0  0  0  0  0  0  0  0  0
  -34.1667   58.8634   62.9655 C   0  0  0  0  0  0  0  0  0  0  0  0
  -32.7280   58.3890   62.9472 C   0  0  0  0  0  0  0  0  0  0  0  0
  -31.7135   59.5105   63.1221 C   0  0  0  0  0  0  0  0  0  0  0  0
  -31.8012   60.5819   62.0499 C   0  0  0  0  0  0  0  0  0  0  0  0
  -32.2474   62.9938   61.4849 C   0  0  0  0  0  0  0  0  0  0  0  0
  -31.9271   61.9987   62.5771 C   0  0  0  0  0  0  0  0  0  0  0  0
  -39.4141   59.9642   65.7559 C   0  0  0  0  0  0  0  0  0  0  0  0
  -38.8800   61.3015   65.8771 O   0  0  0  0  0  0  0  0  0  0  0  0
  -37.6238   61.8141   65.0279 P   0  0  0  0  0  0  0  0  0  0  0  0
  -36.4886   60.9049   65.2953 O   0  0  0  0  0  0  0  0  0  0  0  0
  -38.0640   62.0107   63.6257 O   0  0  0  0  0  0  0  0  0  0  0  0
  -38.2913   61.1526   63.2348 H   0  0  0  0  0  0  0  0  0  0  0  0
  -37.2605   63.2443   65.6323 O   0  0  0  0  0  0  0  0  0  0  0  0
  -36.0198   63.8856   65.2726 C   0  0  0  0  0  0  0  0  0  0  0  0
  -36.0424   63.7986   67.6673 O   0  0  0  0  0  0  0  0  0  0  0  0
  -35.3012   64.2764   66.5406 C   0  0  0  0  0  0  0  0  0  0  0  0
  -36.9483   64.1431   67.6280 H   0  0  0  0  0  0  0  0  0  0  0  0
  -33.5075   63.4429   67.9213 O   0  0  0  0  0  0  0  0  0  0  0  0
  -33.8870   63.7494   66.5858 C   0  0  0  0  0  0  0  0  0  0  0  0
  -32.5978   63.1065   67.9298 H   0  0  0  0  0  0  0  0  0  0  0  0
  -41.8612   59.8276   65.9736 O   0  0  0  0  0  0  0  0  0  0  0  0
  -42.3072   61.9736   66.4795 O   0  0  0  0  0  0  0  0  0  0  0  0
  -42.6841   60.8735   66.1805 C   0  0  0  0  0  0  0  0  0  0  0  0
  -44.1210   60.5053   65.9752 C   0  0  0  0  0  0  0  0  0  0  0  0
  -44.2599   59.1111   65.3723 C   0  0  0  0  0  0  0  0  0  0  0  0
  -45.5220   58.3788   65.7973 C   0  0  0  0  0  0  0  0  0  0  0  0
  -46.3419   59.1310   66.8393 C   0  0  0  0  0  0  0  0  0  0  0  0
  -47.6870   59.6172   66.3325 C   0  0  0  0  0  0  0  0  0  0  0  0
  -47.6960   60.0472   64.8628 C   0  0  0  0  0  0  0  0  0  0  0  0
  -48.8308   60.9947   64.4680 C   0  0  0  0  0  0  0  0  0  0  0  0
  -50.1637   60.5156   64.9599 C   0  0  0  0  0  0  0  0  0  0  0  0
  -51.1637   60.0753   64.2213 C   0  0  0  0  0  0  0  0  0  0  0  0
  -51.1755   59.9604   62.7296 C   0  0  0  0  0  0  0  0  0  0  0  0
  -50.9327   58.5310   62.2538 C   0  0  0  0  0  0  0  0  0  0  0  0
  -49.4725   58.1158   62.2914 C   0  0  0  0  0  0  0  0  0  0  0  0
  -48.8343   58.0052   60.9173 C   0  0  0  0  0  0  0  0  0  0  0  0
  -49.8142   57.7326   59.7882 C   0  0  0  0  0  0  0  0  0  0  0  0
  -49.1694   57.7449   58.4106 C   0  0  0  0  0  0  0  0  0  0  0  0
  -47.6609   57.5963   58.4285 C   0  0  0  0  0  0  0  0  0  0  0  0
  -47.0083   58.1393   57.1880 C   0  0  0  0  0  0  0  0  0  0  0  0
 21 22  1  0  0  0
  4  5  2  0  0  0
 25 24  1  0  0  0
 25 26  2  0  0  0
 25 27  1  0  0  0
 25 29  1  0  0  0
 22 20  1  0  0  0
  3  5  1  0  0  0
  3  2  1  0  0  0
 20 19  1  0  0  0
 24 23  1  0  0  0
 19 18  1  0  0  0
 18 17  1  0  0  0
 27 28  1  0  0  0
 17 16  1  0  0  0
 29 30  1  0  0  0
 16 15  1  0  0  0
 34 35  1  0  0  0
 34 36  1  0  0  0
 15 14  1  0  0  0
 31 32  1  0  0  0
 31 33  1  0  0  0
 14 13  1  0  0  0
 37  1  1  0  0  0
 37 39  1  0  0  0
 13 12  1  0  0  0
 38 39  2  0  0  0
 12 11  1  0  0  0
 11 10  1  0  0  0
 10  9  1  0  0  0
  9  8  1  0  0  0
  8  7  1  0  0  0
  7  6  1  0  0  0
  6  5  1  0  0  0
  2  1  1  0  0  0
  1 23  1  0  0  0
 30 32  1  0  0  0
 32 35  1  0  0  0
 39 40  1  0  0  0
 40 41  1  0  0  0
 41 42  1  0  0  0
 42 43  1  0  0  0
 43 44  1  0  0  0
 44 45  1  0  0  0
 45 46  1  0  0  0
 46 47  1  0  0  0
 47 48  2  0  0  0
 48 49  1  0  0  0
 49 50  1  0  0  0
 50 51  1  0  0  0
 51 52  1  0  0  0
 52 53  1  0  0  0
 53 54  1  0  0  0
 54 55  1  0  0  0
 55 56  1  0  0  0
M  CHG 1  26  -1
M  END
> <minimizedAffinity>
-8.89136

> <CNNscore>
0.4284191728

> <CNNaffinity>
7.3429389000

> <CNN_VS>
3.1458559036

> <CNNaffinity_variance>
1.3495227098

$$$$
/media/chris/experiments/cd1a-new-docking/inputs/ligands/7sh4_ligand.pdb


 56 55  0  0  0  0  0  0  0  0999 V2000
  -36.9991   61.6936   63.8498 C   0  0  0  0  0  0  0  0  0  0  0  0
  -38.3245   61.2727   63.2810 C   0  0  0  0  0  0  0  0  0  0  0  0
  -39.2343   61.3842   64.3959 O   0  0  0  0  0  0  0  0  0  0  0  0
  -39.0376   59.3161   65.2226 O   0  0  0  0  0  0  0  0  0  0  0  0
  -39.7218   60.2475   64.8938 C   0  0  0  0  0  0  0  0  0  0  0  0
  -41.2062   60.3387   65.1018 C   0  0  0  0  0  0  0  0  0  0  0  0
  -41.9942   60.6220   63.8341 C   0  0  0  0  0  0  0  0  0  0  0  0
  -42.8632   61.8567   63.9478 C   0  0  0  0  0  0  0  0  0  0  0  0
  -44.3430   61.5890   63.7914 C   0  0  0  0  0  0  0  0  0  0  0  0
  -44.9451   60.8708   64.9822 C   0  0  0  0  0  0  0  0  0  0  0  0
  -46.3311   60.3370   64.7152 C   0  0  0  0  0  0  0  0  0  0  0  0
  -47.0824   59.9946   65.9745 C   0  0  0  0  0  0  0  0  0  0  0  0
  -48.5836   59.9729   65.7910 C   0  0  0  0  0  0  0  0  0  0  0  0
  -49.0021   60.2356   64.3584 C   0  0  0  0  0  0  0  0  0  0  0  0
  -50.4992   60.3541   64.1637 C   0  0  0  0  0  0  0  0  0  0  0  0
  -51.0663   59.3782   63.1390 C   0  0  0  0  0  0  0  0  0  0  0  0
  -50.0276   58.4640   62.5180 C   0  0  0  0  0  0  0  0  0  0  0  0
  -50.2830   58.1697   61.0540 C   0  0  0  0  0  0  0  0  0  0  0  0
  -49.5451   56.9410   60.5408 C   0  0  0  0  0  0  0  0  0  0  0  0
  -48.2716   57.2697   59.7822 C   0  0  0  0  0  0  0  0  0  0  0  0
  -47.3452   58.2886   57.6753 C   0  0  0  0  0  0  0  0  0  0  0  0
  -48.4182   58.3602   58.7380 C   0  0  0  0  0  0  0  0  0  0  0  0
  -36.7809   63.1807   63.7366 C   0  0  0  0  0  0  0  0  0  0  0  0
  -36.2832   63.4782   62.4129 O   0  0  0  0  0  0  0  0  0  0  0  0
  -34.9050   64.2514   62.1580 P   0  0  0  0  0  0  0  0  0  0  0  0
  -33.9472   63.2954   61.5619 O   0  0  0  0  0  0  0  0  0  0  0  0
  -35.2079   65.5055   61.4272 O   0  0  0  0  0  0  0  0  0  0  0  0
  -35.5374   65.2915   60.5403 H   0  0  0  0  0  0  0  0  0  0  0  0
  -34.3678   64.6461   63.6066 O   0  0  0  0  0  0  0  0  0  0  0  0
  -33.0593   64.2149   64.0330 C   0  0  0  0  0  0  0  0  0  0  0  0
  -33.1036   65.9077   65.7286 O   0  0  0  0  0  0  0  0  0  0  0  0
  -32.9192   64.5063   65.5069 C   0  0  0  0  0  0  0  0  0  0  0  0
  -32.4733   66.4067   65.1858 H   0  0  0  0  0  0  0  0  0  0  0  0
  -33.3042   63.3431   67.5846 O   0  0  0  0  0  0  0  0  0  0  0  0
  -33.8934   63.7136   66.3448 C   0  0  0  0  0  0  0  0  0  0  0  0
  -33.9442   62.8356   68.1079 H   0  0  0  0  0  0  0  0  0  0  0  0
  -35.9434   60.9379   63.1683 O   0  0  0  0  0  0  0  0  0  0  0  0
  -33.8451   60.9278   63.9789 O   0  0  0  0  0  0  0  0  0  0  0  0
  -34.9473   60.4537   63.9347 C   0  0  0  0  0  0  0  0  0  0  0  0
  -35.3837   59.2672   64.7372 C   0  0  0  0  0  0  0  0  0  0  0  0
  -34.9048   57.9617   64.1103 C   0  0  0  0  0  0  0  0  0  0  0  0
  -35.6985   57.5389   62.8851 C   0  0  0  0  0  0  0  0  0  0  0  0
  -37.2078   57.5636   63.0977 C   0  0  0  0  0  0  0  0  0  0  0  0
  -38.0062   57.7900   61.8274 C   0  0  0  0  0  0  0  0  0  0  0  0
  -37.3193   58.6890   60.7954 C   0  0  0  0  0  0  0  0  0  0  0  0
  -38.2581   59.3721   59.7986 C   0  0  0  0  0  0  0  0  0  0  0  0
  -39.0670   58.3824   59.0151 C   0  0  0  0  0  0  0  0  0  0  0  0
  -40.3645   58.1693   59.1172 C   0  0  0  0  0  0  0  0  0  0  0  0
  -41.3051   58.8764   60.0411 C   0  0  0  0  0  0  0  0  0  0  0  0
  -41.7227   58.0075   61.2240 C   0  0  0  0  0  0  0  0  0  0  0  0
  -41.3777   56.5385   61.0530 C   0  0  0  0  0  0  0  0  0  0  0  0
  -41.2631   55.7821   62.3653 C   0  0  0  0  0  0  0  0  0  0  0  0
  -41.1366   56.6680   63.5936 C   0  0  0  0  0  0  0  0  0  0  0  0
  -42.2522   56.4615   64.6067 C   0  0  0  0  0  0  0  0  0  0  0  0
  -43.4001   57.4429   64.4768 C   0  0  0  0  0  0  0  0  0  0  0  0
  -44.4266   57.2845   65.5634 C   0  0  0  0  0  0  0  0  0  0  0  0
 21 22  1  0  0  0
  4  5  2  0  0  0
 25 24  1  0  0  0
 25 26  2  0  0  0
 25 27  1  0  0  0
 25 29  1  0  0  0
 22 20  1  0  0  0
  3  5  1  0  0  0
  3  2  1  0  0  0
 20 19  1  0  0  0
 24 23  1  0  0  0
 19 18  1  0  0  0
 18 17  1  0  0  0
 27 28  1  0  0  0
 17 16  1  0  0  0
 29 30  1  0  0  0
 16 15  1  0  0  0
 34 35  1  0  0  0
 34 36  1  0  0  0
 15 14  1  0  0  0
 31 32  1  0  0  0
 31 33  1  0  0  0
 14 13  1  0  0  0
 37  1  1  0  0  0
 37 39  1  0  0  0
 13 12  1  0  0  0
 38 39  2  0  0  0
 12 11  1  0  0  0
 11 10  1  0  0  0
 10  9  1  0  0  0
  9  8  1  0  0  0
  8  7  1  0  0  0
  7  6  1  0  0  0
  6  5  1  0  0  0
  2  1  1  0  0  0
  1 23  1  0  0  0
 30 32  1  0  0  0
 32 35  1  0  0  0
 39 40  1  0  0  0
 40 41  1  0  0  0
 41 42  1  0  0  0
 42 43  1  0  0  0
 43 44  1  0  0  0
 44 45  1  0  0  0
 45 46  1  0  0  0
 46 47  1  0  0  0
 47 48  2  0  0  0
 48 49  1  0  0  0
 49 50  1  0  0  0
 50 51  1  0  0  0
 51 52  1  0  0  0
 52 53  1  0  0  0
 53 54  1  0  0  0
 54 55  1  0  0  0
 55 56  1  0  0  0
M  CHG 1  26  -1
M  END
> <minimizedAffinity>
-8.30320

> <CNNscore>
0.4078085721

> <CNNaffinity>
7.5171060562

> <CNN_VS>
3.0655403137

> <CNNaffinity_variance>
0.8831251860

$$$$
/media/chris/experiments/cd1a-new-docking/inputs/ligands/7sh4_ligand.pdb


 56 55  0  0  0  0  0  0  0  0999 V2000
  -40.0856   60.8231   65.2451 C   0  0  0  0  0  0  0  0  0  0  0  0
  -40.2058   60.4750   63.7884 C   0  0  0  0  0  0  0  0  0  0  0  0
  -41.1681   61.4234   63.2809 O   0  0  0  0  0  0  0  0  0  0  0  0
  -43.3720   61.6101   62.9537 O   0  0  0  0  0  0  0  0  0  0  0  0
  -42.3694   60.9478   62.9519 C   0  0  0  0  0  0  0  0  0  0  0  0
  -42.2773   59.5301   62.4655 C   0  0  0  0  0  0  0  0  0  0  0  0
  -43.1531   58.5531   63.2314 C   0  0  0  0  0  0  0  0  0  0  0  0
  -42.3916   57.3360   63.7123 C   0  0  0  0  0  0  0  0  0  0  0  0
  -41.1751   56.9982   62.8806 C   0  0  0  0  0  0  0  0  0  0  0  0
  -41.4314   55.8929   61.8761 C   0  0  0  0  0  0  0  0  0  0  0  0
  -40.9335   56.2227   60.4903 C   0  0  0  0  0  0  0  0  0  0  0  0
  -41.3754   57.5812   60.0140 C   0  0  0  0  0  0  0  0  0  0  0  0
  -40.3169   58.3122   59.2184 C   0  0  0  0  0  0  0  0  0  0  0  0
  -39.9944   59.6782   59.7896 C   0  0  0  0  0  0  0  0  0  0  0  0
  -38.5797   59.8108   60.3133 C   0  0  0  0  0  0  0  0  0  0  0  0
  -37.8259   58.4881   60.3931 C   0  0  0  0  0  0  0  0  0  0  0  0
  -37.7562   57.9018   61.7901 C   0  0  0  0  0  0  0  0  0  0  0  0
  -36.7527   58.5986   62.6860 C   0  0  0  0  0  0  0  0  0  0  0  0
  -35.3853   57.9298   62.7064 C   0  0  0  0  0  0  0  0  0  0  0  0
  -34.2311   58.9098   62.8183 C   0  0  0  0  0  0  0  0  0  0  0  0
  -33.2854   58.5786   65.1273 C   0  0  0  0  0  0  0  0  0  0  0  0
  -33.0567   58.4160   63.6417 C   0  0  0  0  0  0  0  0  0  0  0  0
  -38.6840   60.6219   65.7616 C   0  0  0  0  0  0  0  0  0  0  0  0
  -38.0060   61.8981   65.7759 O   0  0  0  0  0  0  0  0  0  0  0  0
  -36.8472   62.2763   64.7386 P   0  0  0  0  0  0  0  0  0  0  0  0
  -35.7427   61.3085   64.9130 O   0  0  0  0  0  0  0  0  0  0  0  0
  -37.4596   62.4241   63.3963 O   0  0  0  0  0  0  0  0  0  0  0  0
  -37.7883   61.5629   63.0943 H   0  0  0  0  0  0  0  0  0  0  0  0
  -36.3209   63.7100   65.1974 O   0  0  0  0  0  0  0  0  0  0  0  0
  -34.9079   63.9984   65.1833 C   0  0  0  0  0  0  0  0  0  0  0  0
  -33.8094   62.7975   66.9422 O   0  0  0  0  0  0  0  0  0  0  0  0
  -34.4183   64.0488   66.6097 C   0  0  0  0  0  0  0  0  0  0  0  0
  -34.4423   62.0788   66.7878 H   0  0  0  0  0  0  0  0  0  0  0  0
  -32.1072   64.7375   66.6622 O   0  0  0  0  0  0  0  0  0  0  0  0
  -33.4462   65.1799   66.8442 C   0  0  0  0  0  0  0  0  0  0  0  0
  -31.4986   65.4768   66.8170 H   0  0  0  0  0  0  0  0  0  0  0  0
  -41.0588   60.0211   65.9931 O   0  0  0  0  0  0  0  0  0  0  0  0
  -42.2532   61.8190   66.6263 O   0  0  0  0  0  0  0  0  0  0  0  0
  -42.1846   60.6433   66.3924 C   0  0  0  0  0  0  0  0  0  0  0  0
  -43.3422   59.6986   66.4914 C   0  0  0  0  0  0  0  0  0  0  0  0
  -44.6201   60.3206   65.9375 C   0  0  0  0  0  0  0  0  0  0  0  0
  -45.8260   59.3969   65.9853 C   0  0  0  0  0  0  0  0  0  0  0  0
  -46.6584   59.4139   64.7084 C   0  0  0  0  0  0  0  0  0  0  0  0
  -47.8835   60.3062   64.7825 C   0  0  0  0  0  0  0  0  0  0  0  0
  -48.8260   59.9979   65.9494 C   0  0  0  0  0  0  0  0  0  0  0  0
  -50.1693   59.3797   65.5562 C   0  0  0  0  0  0  0  0  0  0  0  0
  -50.8990   60.2107   64.5439 C   0  0  0  0  0  0  0  0  0  0  0  0
  -51.1742   59.8732   63.2990 C   0  0  0  0  0  0  0  0  0  0  0  0
  -50.8145   58.5819   62.6345 C   0  0  0  0  0  0  0  0  0  0  0  0
  -49.4626   58.6466   61.9296 C   0  0  0  0  0  0  0  0  0  0  0  0
  -49.5326   59.2303   60.5294 C   0  0  0  0  0  0  0  0  0  0  0  0
  -50.2459   58.3354   59.5305 C   0  0  0  0  0  0  0  0  0  0  0  0
  -49.3401   57.7224   58.4754 C   0  0  0  0  0  0  0  0  0  0  0  0
  -47.9280   58.2876   58.4871 C   0  0  0  0  0  0  0  0  0  0  0  0
  -47.0893   57.8910   57.2883 C   0  0  0  0  0  0  0  0  0  0  0  0
  -46.9851   56.4010   57.1187 C   0  0  0  0  0  0  0  0  0  0  0  0
 21 22  1  0  0  0
  4  5  2  0  0  0
 25 24  1  0  0  0
 25 26  2  0  0  0
 25 27  1  0  0  0
 25 29  1  0  0  0
 22 20  1  0  0  0
  3  5  1  0  0  0
  3  2  1  0  0  0
 20 19  1  0  0  0
 24 23  1  0  0  0
 19 18  1  0  0  0
 18 17  1  0  0  0
 27 28  1  0  0  0
 17 16  1  0  0  0
 29 30  1  0  0  0
 16 15  1  0  0  0
 34 35  1  0  0  0
 34 36  1  0  0  0
 15 14  1  0  0  0
 31 32  1  0  0  0
 31 33  1  0  0  0
 14 13  1  0  0  0
 37  1  1  0  0  0
 37 39  1  0  0  0
 13 12  1  0  0  0
 38 39  2  0  0  0
 12 11  1  0  0  0
 11 10  1  0  0  0
 10  9  1  0  0  0
  9  8  1  0  0  0
  8  7  1  0  0  0
  7  6  1  0  0  0
  6  5  1  0  0  0
  2  1  1  0  0  0
  1 23  1  0  0  0
 30 32  1  0  0  0
 32 35  1  0  0  0
 39 40  1  0  0  0
 40 41  1  0  0  0
 41 42  1  0  0  0
 42 43  1  0  0  0
 43 44  1  0  0  0
 44 45  1  0  0  0
 45 46  1  0  0  0
 46 47  1  0  0  0
 47 48  2  0  0  0
 48 49  1  0  0  0
 49 50  1  0  0  0
 50 51  1  0  0  0
 51 52  1  0  0  0
 52 53  1  0  0  0
 53 54  1  0  0  0
 54 55  1  0  0  0
 55 56  1  0  0  0
M  CHG 1  26  -1
M  END
> <minimizedAffinity>
-8.66341

> <CNNscore>
0.3882246614

> <CNNaffinity>
7.4285569191

> <CNN_VS>
2.8839490414

> <CNNaffinity_variance>
1.2455288172

$$$$
/media/chris/experiments/cd1a-new-docking/inputs/ligands/7sh4_ligand.pdb


 56 55  0  0  0  0  0  0  0  0999 V2000
  -40.7898   59.8885   64.3819 C   0  0  0  0  0  0  0  0  0  0  0  0
  -41.0857   60.9715   63.3833 C   0  0  0  0  0  0  0  0  0  0  0  0
  -40.8937   60.3297   62.1049 O   0  0  0  0  0  0  0  0  0  0  0  0
  -42.2673   61.7944   61.1216 O   0  0  0  0  0  0  0  0  0  0  0  0
  -41.4517   60.9154   61.0451 C   0  0  0  0  0  0  0  0  0  0  0  0
  -40.8378   60.4220   59.7666 C   0  0  0  0  0  0  0  0  0  0  0  0
  -40.8136   58.9088   59.6332 C   0  0  0  0  0  0  0  0  0  0  0  0
  -39.5194   58.3932   59.0401 C   0  0  0  0  0  0  0  0  0  0  0  0
  -38.2891   58.7283   59.8525 C   0  0  0  0  0  0  0  0  0  0  0  0
  -38.2356   57.9955   61.1778 C   0  0  0  0  0  0  0  0  0  0  0  0
  -37.2757   58.6176   62.1620 C   0  0  0  0  0  0  0  0  0  0  0  0
  -37.1082   57.8016   63.4166 C   0  0  0  0  0  0  0  0  0  0  0  0
  -35.6709   57.6934   63.8751 C   0  0  0  0  0  0  0  0  0  0  0  0
  -34.7733   58.7351   63.2383 C   0  0  0  0  0  0  0  0  0  0  0  0
  -33.4173   58.2084   62.8174 C   0  0  0  0  0  0  0  0  0  0  0  0
  -32.2697   59.1744   63.0894 C   0  0  0  0  0  0  0  0  0  0  0  0
  -32.0235   60.1692   61.9713 C   0  0  0  0  0  0  0  0  0  0  0  0
  -31.8974   61.5994   62.4550 C   0  0  0  0  0  0  0  0  0  0  0  0
  -33.1975   62.1771   62.9967 C   0  0  0  0  0  0  0  0  0  0  0  0
  -33.2948   63.6862   62.8616 C   0  0  0  0  0  0  0  0  0  0  0  0
  -35.2515   64.4408   61.4697 C   0  0  0  0  0  0  0  0  0  0  0  0
  -33.7639   64.1730   61.5037 C   0  0  0  0  0  0  0  0  0  0  0  0
  -39.4782   60.1137   65.0895 C   0  0  0  0  0  0  0  0  0  0  0  0
  -38.8959   61.3458   64.6086 O   0  0  0  0  0  0  0  0  0  0  0  0
  -37.3347   61.6751   64.7358 P   0  0  0  0  0  0  0  0  0  0  0  0
  -36.7081   60.6141   65.5535 O   0  0  0  0  0  0  0  0  0  0  0  0
  -36.8049   61.9320   63.3749 O   0  0  0  0  0  0  0  0  0  0  0  0
  -36.8421   61.1147   62.8538 H   0  0  0  0  0  0  0  0  0  0  0  0
  -37.2562   63.0394   65.5576 O   0  0  0  0  0  0  0  0  0  0  0  0
  -36.1730   63.9620   65.3224 C   0  0  0  0  0  0  0  0  0  0  0  0
  -36.2699   63.9547   67.7168 O   0  0  0  0  0  0  0  0  0  0  0  0
  -35.3866   64.1086   66.6018 C   0  0  0  0  0  0  0  0  0  0  0  0
  -36.9944   64.5958   67.6461 H   0  0  0  0  0  0  0  0  0  0  0  0
  -33.3554   63.4772   67.7394 O   0  0  0  0  0  0  0  0  0  0  0  0
  -34.2515   63.1174   66.6957 C   0  0  0  0  0  0  0  0  0  0  0  0
  -32.6344   62.8298   67.7839 H   0  0  0  0  0  0  0  0  0  0  0  0
  -40.8148   58.5987   63.6850 O   0  0  0  0  0  0  0  0  0  0  0  0
  -41.3794   56.5381   64.3886 O   0  0  0  0  0  0  0  0  0  0  0  0
  -41.6806   57.6741   64.1426 C   0  0  0  0  0  0  0  0  0  0  0  0
  -43.0563   58.2364   64.3253 C   0  0  0  0  0  0  0  0  0  0  0  0
  -43.9773   57.2432   65.0269 C   0  0  0  0  0  0  0  0  0  0  0  0
  -44.2657   57.5895   66.4784 C   0  0  0  0  0  0  0  0  0  0  0  0
  -45.7518   57.6090   66.8171 C   0  0  0  0  0  0  0  0  0  0  0  0
  -46.5930   58.4277   65.8555 C   0  0  0  0  0  0  0  0  0  0  0  0
  -46.8747   59.8604   66.3170 C   0  0  0  0  0  0  0  0  0  0  0  0
  -48.3367   60.3012   66.2186 C   0  0  0  0  0  0  0  0  0  0  0  0
  -49.2594   59.1460   65.9691 C   0  0  0  0  0  0  0  0  0  0  0  0
  -50.3515   59.1561   65.2298 C   0  0  0  0  0  0  0  0  0  0  0  0
  -50.8994   60.3295   64.4805 C   0  0  0  0  0  0  0  0  0  0  0  0
  -51.1745   60.0074   63.0145 C   0  0  0  0  0  0  0  0  0  0  0  0
  -50.1705   59.0463   62.4028 C   0  0  0  0  0  0  0  0  0  0  0  0
  -50.8104   57.9070   61.6281 C   0  0  0  0  0  0  0  0  0  0  0  0
  -50.1207   57.5724   60.3160 C   0  0  0  0  0  0  0  0  0  0  0  0
  -48.7362   58.1884   60.1852 C   0  0  0  0  0  0  0  0  0  0  0  0
  -47.9167   57.6386   59.0346 C   0  0  0  0  0  0  0  0  0  0  0  0
  -48.7416   57.3787   57.8052 C   0  0  0  0  0  0  0  0  0  0  0  0
 21 22  1  0  0  0
  4  5  2  0  0  0
 25 24  1  0  0  0
 25 26  2  0  0  0
 25 27  1  0  0  0
 25 29  1  0  0  0
 22 20  1  0  0  0
  3  5  1  0  0  0
  3  2  1  0  0  0
 20 19  1  0  0  0
 24 23  1  0  0  0
 19 18  1  0  0  0
 18 17  1  0  0  0
 27 28  1  0  0  0
 17 16  1  0  0  0
 29 30  1  0  0  0
 16 15  1  0  0  0
 34 35  1  0  0  0
 34 36  1  0  0  0
 15 14  1  0  0  0
 31 32  1  0  0  0
 31 33  1  0  0  0
 14 13  1  0  0  0
 37  1  1  0  0  0
 37 39  1  0  0  0
 13 12  1  0  0  0
 38 39  2  0  0  0
 12 11  1  0  0  0
 11 10  1  0  0  0
 10  9  1  0  0  0
  9  8  1  0  0  0
  8  7  1  0  0  0
  7  6  1  0  0  0
  6  5  1  0  0  0
  2  1  1  0  0  0
  1 23  1  0  0  0
 30 32  1  0  0  0
 32 35  1  0  0  0
 39 40  1  0  0  0
 40 41  1  0  0  0
 41 42  1  0  0  0
 42 43  1  0  0  0
 43 44  1  0  0  0
 44 45  1  0  0  0
 45 46  1  0  0  0
 46 47  1  0  0  0
 47 48  2  0  0  0
 48 49  1  0  0  0
 49 50  1  0  0  0
 50 51  1  0  0  0
 51 52  1  0  0  0
 52 53  1  0  0  0
 53 54  1  0  0  0
 54 55  1  0  0  0
 55 56  1  0  0  0
M  CHG 1  26  -1
M  END
> <minimizedAffinity>
-8.60134

> <CNNscore>
0.3562598526

> <CNNaffinity>
7.2384061813

> <CNN_VS>
2.5787534714

> <CNNaffinity_variance>
0.8106708527

$$$$
/media/chris/experiments/cd1a-new-docking/inputs/ligands/7sh4_ligand.pdb


 56 55  0  0  0  0  0  0  0  0999 V2000
  -40.6017   57.3983   63.1029 C   0  0  0  0  0  0  0  0  0  0  0  0
  -41.6843   56.6324   63.8093 C   0  0  0  0  0  0  0  0  0  0  0  0
  -42.8028   57.5445   63.8269 O   0  0  0  0  0  0  0  0  0  0  0  0
  -42.3156   58.8124   65.6028 O   0  0  0  0  0  0  0  0  0  0  0  0
  -43.0898   58.1261   64.9917 C   0  0  0  0  0  0  0  0  0  0  0  0
  -44.5287   57.9133   65.3646 C   0  0  0  0  0  0  0  0  0  0  0  0
  -45.0617   58.9127   66.3772 C   0  0  0  0  0  0  0  0  0  0  0  0
  -46.4314   58.5396   66.9039 C   0  0  0  0  0  0  0  0  0  0  0  0
  -47.5483   59.4316   66.4114 C   0  0  0  0  0  0  0  0  0  0  0  0
  -47.9886   59.1058   64.9985 C   0  0  0  0  0  0  0  0  0  0  0  0
  -49.3737   58.5108   64.9303 C   0  0  0  0  0  0  0  0  0  0  0  0
  -50.4443   59.4559   65.4083 C   0  0  0  0  0  0  0  0  0  0  0  0
  -51.0632   60.2738   64.2966 C   0  0  0  0  0  0  0  0  0  0  0  0
  -51.1085   59.5293   62.9775 C   0  0  0  0  0  0  0  0  0  0  0  0
  -50.1971   60.1025   61.9127 C   0  0  0  0  0  0  0  0  0  0  0  0
  -49.3899   59.0501   61.1610 C   0  0  0  0  0  0  0  0  0  0  0  0
  -49.9467   57.6445   61.2813 C   0  0  0  0  0  0  0  0  0  0  0  0
  -49.2144   56.6316   60.4250 C   0  0  0  0  0  0  0  0  0  0  0  0
  -48.2074   57.2554   59.4688 C   0  0  0  0  0  0  0  0  0  0  0  0
  -47.7052   56.2962   58.4044 C   0  0  0  0  0  0  0  0  0  0  0  0
  -46.8937   58.3237   57.1528 C   0  0  0  0  0  0  0  0  0  0  0  0
  -47.4611   56.9263   57.0463 C   0  0  0  0  0  0  0  0  0  0  0  0
  -40.3545   56.8757   61.7110 C   0  0  0  0  0  0  0  0  0  0  0  0
  -39.1858   57.5306   61.1691 O   0  0  0  0  0  0  0  0  0  0  0  0
  -39.2727   58.6862   60.0650 P   0  0  0  0  0  0  0  0  0  0  0  0
  -37.8942   59.0410   59.6640 O   0  0  0  0  0  0  0  0  0  0  0  0
  -40.2299   58.2535   59.0185 O   0  0  0  0  0  0  0  0  0  0  0  0
  -39.8675   57.4882   58.5453 H   0  0  0  0  0  0  0  0  0  0  0  0
  -39.9041   59.9425   60.8172 O   0  0  0  0  0  0  0  0  0  0  0  0
  -41.3064   60.2438   60.6662 C   0  0  0  0  0  0  0  0  0  0  0  0
  -42.4737   62.3225   60.9084 O   0  0  0  0  0  0  0  0  0  0  0  0
  -41.6529   61.3769   61.6005 C   0  0  0  0  0  0  0  0  0  0  0  0
  -42.0161   62.6230   60.1076 H   0  0  0  0  0  0  0  0  0  0  0  0
  -41.6842   61.3763   64.0124 O   0  0  0  0  0  0  0  0  0  0  0  0
  -42.3505   60.8982   62.8510 C   0  0  0  0  0  0  0  0  0  0  0  0
  -42.1463   61.0589   64.8040 H   0  0  0  0  0  0  0  0  0  0  0  0
  -39.3883   57.3462   63.9244 O   0  0  0  0  0  0  0  0  0  0  0  0
  -39.3482   59.5916   64.0541 O   0  0  0  0  0  0  0  0  0  0  0  0
  -38.8686   58.5237   64.3211 C   0  0  0  0  0  0  0  0  0  0  0  0
  -37.6341   58.3411   65.1487 C   0  0  0  0  0  0  0  0  0  0  0  0
  -36.6836   59.5252   65.0033 C   0  0  0  0  0  0  0  0  0  0  0  0
  -35.2815   59.1393   64.5614 C   0  0  0  0  0  0  0  0  0  0  0  0
  -35.2561   58.0478   63.4975 C   0  0  0  0  0  0  0  0  0  0  0  0
  -33.9259   57.9173   62.7792 C   0  0  0  0  0  0  0  0  0  0  0  0
  -32.8670   58.9362   63.2101 C   0  0  0  0  0  0  0  0  0  0  0  0
  -32.3174   59.8190   62.0876 C   0  0  0  0  0  0  0  0  0  0  0  0
  -31.1074   60.5925   62.5184 C   0  0  0  0  0  0  0  0  0  0  0  0
  -30.9342   61.8970   62.4303 C   0  0  0  0  0  0  0  0  0  0  0  0
  -31.9162   62.8825   61.8800 C   0  0  0  0  0  0  0  0  0  0  0  0
  -31.5848   64.3183   62.2767 C   0  0  0  0  0  0  0  0  0  0  0  0
  -30.9279   64.4376   63.6407 C   0  0  0  0  0  0  0  0  0  0  0  0
  -31.7706   65.1844   64.6603 C   0  0  0  0  0  0  0  0  0  0  0  0
  -32.4098   64.2999   65.7179 C   0  0  0  0  0  0  0  0  0  0  0  0
  -33.8826   64.0184   65.4625 C   0  0  0  0  0  0  0  0  0  0  0  0
  -34.1657   62.6326   64.9174 C   0  0  0  0  0  0  0  0  0  0  0  0
  -34.9740   62.6600   63.6503 C   0  0  0  0  0  0  0  0  0  0  0  0
 21 22  1  0  0  0
  4  5  2  0  0  0
 25 24  1  0  0  0
 25 26  2  0  0  0
 25 27  1  0  0  0
 25 29  1  0  0  0
 22 20  1  0  0  0
  3  5  1  0  0  0
  3  2  1  0  0  0
 20 19  1  0  0  0
 24 23  1  0  0  0
 19 18  1  0  0  0
 18 17  1  0  0  0
 27 28  1  0  0  0
 17 16  1  0  0  0
 29 30  1  0  0  0
 16 15  1  0  0  0
 34 35  1  0  0  0
 34 36  1  0  0  0
 15 14  1  0  0  0
 31 32  1  0  0  0
 31 33  1  0  0  0
 14 13  1  0  0  0
 37  1  1  0  0  0
 37 39  1  0  0  0
 13 12  1  0  0  0
 38 39  2  0  0  0
 12 11  1  0  0  0
 11 10  1  0  0  0
 10  9  1  0  0  0
  9  8  1  0  0  0
  8  7  1  0  0  0
  7  6  1  0  0  0
  6  5  1  0  0  0
  2  1  1  0  0  0
  1 23  1  0  0  0
 30 32  1  0  0  0
 32 35  1  0  0  0
 39 40  1  0  0  0
 40 41  1  0  0  0
 41 42  1  0  0  0
 42 43  1  0  0  0
 43 44  1  0  0  0
 44 45  1  0  0  0
 45 46  1  0  0  0
 46 47  1  0  0  0
 47 48  2  0  0  0
 48 49  1  0  0  0
 49 50  1  0  0  0
 50 51  1  0  0  0
 51 52  1  0  0  0
 52 53  1  0  0  0
 53 54  1  0  0  0
 54 55  1  0  0  0
 55 56  1  0  0  0
M  CHG 1  26  -1
M  END
> <minimizedAffinity>
-7.70248

> <CNNscore>
0.3426889777

> <CNNaffinity>
6.9187135696

> <CNN_VS>
2.3709669113

> <CNNaffinity_variance>
0.5909820795

$$$$
/media/chris/experiments/cd1a-new-docking/inputs/ligands/7sh4_ligand.pdb


 56 55  0  0  0  0  0  0  0  0999 V2000
  -39.1088   60.7015   61.8355 C   0  0  0  0  0  0  0  0  0  0  0  0
  -38.1681   59.5766   61.5081 C   0  0  0  0  0  0  0  0  0  0  0  0
  -39.0240   58.5564   60.9516 O   0  0  0  0  0  0  0  0  0  0  0  0
  -38.2472   58.7472   58.8637 O   0  0  0  0  0  0  0  0  0  0  0  0
  -39.1520   58.5329   59.6247 C   0  0  0  0  0  0  0  0  0  0  0  0
  -40.5269   58.0848   59.2200 C   0  0  0  0  0  0  0  0  0  0  0  0
  -41.3900   57.6092   60.3763 C   0  0  0  0  0  0  0  0  0  0  0  0
  -41.2934   56.1154   60.6041 C   0  0  0  0  0  0  0  0  0  0  0  0
  -41.1919   55.7162   62.0588 C   0  0  0  0  0  0  0  0  0  0  0  0
  -41.4975   56.8559   63.0095 C   0  0  0  0  0  0  0  0  0  0  0  0
  -42.1846   56.4054   64.2753 C   0  0  0  0  0  0  0  0  0  0  0  0
  -43.3563   57.2740   64.6500 C   0  0  0  0  0  0  0  0  0  0  0  0
  -43.2967   57.7812   66.0737 C   0  0  0  0  0  0  0  0  0  0  0  0
  -41.9130   58.2561   66.4686 C   0  0  0  0  0  0  0  0  0  0  0  0
  -41.7058   59.7487   66.3192 C   0  0  0  0  0  0  0  0  0  0  0  0
  -40.3273   60.1295   65.7910 C   0  0  0  0  0  0  0  0  0  0  0  0
  -39.5204   58.9550   65.2718 C   0  0  0  0  0  0  0  0  0  0  0  0
  -38.0231   59.1557   65.3864 C   0  0  0  0  0  0  0  0  0  0  0  0
  -37.2218   57.8701   65.2361 C   0  0  0  0  0  0  0  0  0  0  0  0
  -36.4242   57.7985   63.9462 C   0  0  0  0  0  0  0  0  0  0  0  0
  -34.2448   58.1862   62.7480 C   0  0  0  0  0  0  0  0  0  0  0  0
  -35.0068   58.3296   64.0459 C   0  0  0  0  0  0  0  0  0  0  0  0
  -38.5028   61.6818   62.8068 C   0  0  0  0  0  0  0  0  0  0  0  0
  -37.0640   61.6314   62.6817 O   0  0  0  0  0  0  0  0  0  0  0  0
  -36.1025   62.7737   63.2584 P   0  0  0  0  0  0  0  0  0  0  0  0
  -34.7587   62.5802   62.6723 O   0  0  0  0  0  0  0  0  0  0  0  0
  -36.7779   64.0810   63.0757 O   0  0  0  0  0  0  0  0  0  0  0  0
  -36.8520   64.2771   62.1286 H   0  0  0  0  0  0  0  0  0  0  0  0
  -36.0009   62.4895   64.8243 O   0  0  0  0  0  0  0  0  0  0  0  0
  -36.6861   63.3477   65.7592 C   0  0  0  0  0  0  0  0  0  0  0  0
  -36.2636   63.7895   68.0763 O   0  0  0  0  0  0  0  0  0  0  0  0
  -35.6830   63.8470   66.7699 C   0  0  0  0  0  0  0  0  0  0  0  0
  -37.0900   64.2972   68.0855 H   0  0  0  0  0  0  0  0  0  0  0  0
  -33.4436   63.6177   67.6364 O   0  0  0  0  0  0  0  0  0  0  0  0
  -34.3942   63.0612   66.7374 C   0  0  0  0  0  0  0  0  0  0  0  0
  -32.6239   63.1003   67.6014 H   0  0  0  0  0  0  0  0  0  0  0  0
  -40.3541   60.1259   62.3531 O   0  0  0  0  0  0  0  0  0  0  0  0
  -41.6041   61.2596   60.8656 O   0  0  0  0  0  0  0  0  0  0  0  0
  -41.5063   60.6544   61.8980 C   0  0  0  0  0  0  0  0  0  0  0  0
  -42.6520   60.3811   62.8226 C   0  0  0  0  0  0  0  0  0  0  0  0
  -43.2995   61.6743   63.3075 C   0  0  0  0  0  0  0  0  0  0  0  0
  -44.1564   61.5057   64.5514 C   0  0  0  0  0  0  0  0  0  0  0  0
  -45.3280   60.5494   64.3599 C   0  0  0  0  0  0  0  0  0  0  0  0
  -46.0092   60.1418   65.6531 C   0  0  0  0  0  0  0  0  0  0  0  0
  -47.5218   59.9324   65.5373 C   0  0  0  0  0  0  0  0  0  0  0  0
  -48.1346   60.3363   64.1946 C   0  0  0  0  0  0  0  0  0  0  0  0
  -49.4910   60.9544   64.3559 C   0  0  0  0  0  0  0  0  0  0  0  0
  -50.6460   60.4202   64.0095 C   0  0  0  0  0  0  0  0  0  0  0  0
  -50.8440   59.0770   63.3809 C   0  0  0  0  0  0  0  0  0  0  0  0
  -50.5133   59.0768   61.8912 C   0  0  0  0  0  0  0  0  0  0  0  0
  -50.7464   57.7371   61.2153 C   0  0  0  0  0  0  0  0  0  0  0  0
  -49.9784   57.5677   59.9157 C   0  0  0  0  0  0  0  0  0  0  0  0
  -48.8449   56.5576   59.9813 C   0  0  0  0  0  0  0  0  0  0  0  0
  -47.7264   56.8372   58.9890 C   0  0  0  0  0  0  0  0  0  0  0  0
  -47.8031   58.2018   58.3334 C   0  0  0  0  0  0  0  0  0  0  0  0
  -46.9273   58.3125   57.1167 C   0  0  0  0  0  0  0  0  0  0  0  0
 21 22  1  0  0  0
  4  5  2  0  0  0
 25 24  1  0  0  0
 25 26  2  0  0  0
 25 27  1  0  0  0
 25 29  1  0  0  0
 22 20  1  0  0  0
  3  5  1  0  0  0
  3  2  1  0  0  0
 20 19  1  0  0  0
 24 23  1  0  0  0
 19 18  1  0  0  0
 18 17  1  0  0  0
 27 28  1  0  0  0
 17 16  1  0  0  0
 29 30  1  0  0  0
 16 15  1  0  0  0
 34 35  1  0  0  0
 34 36  1  0  0  0
 15 14  1  0  0  0
 31 32  1  0  0  0
 31 33  1  0  0  0
 14 13  1  0  0  0
 37  1  1  0  0  0
 37 39  1  0  0  0
 13 12  1  0  0  0
 38 39  2  0  0  0
 12 11  1  0  0  0
 11 10  1  0  0  0
 10  9  1  0  0  0
  9  8  1  0  0  0
  8  7  1  0  0  0
  7  6  1  0  0  0
  6  5  1  0  0  0
  2  1  1  0  0  0
  1 23  1  0  0  0
 30 32  1  0  0  0
 32 35  1  0  0  0
 39 40  1  0  0  0
 40 41  1  0  0  0
 41 42  1  0  0  0
 42 43  1  0  0  0
 43 44  1  0  0  0
 44 45  1  0  0  0
 45 46  1  0  0  0
 46 47  1  0  0  0
 47 48  2  0  0  0
 48 49  1  0  0  0
 49 50  1  0  0  0
 50 51  1  0  0  0
 51 52  1  0  0  0
 52 53  1  0  0  0
 53 54  1  0  0  0
 54 55  1  0  0  0
 55 56  1  0  0  0
M  CHG 1  26  -1
M  END
> <minimizedAffinity>
-8.83315

> <CNNscore>
0.2887330651

> <CNNaffinity>
7.5082712173

> <CNN_VS>
2.1678862572

> <CNNaffinity_variance>
1.3653019667

$$$$
/media/chris/experiments/cd1a-new-docking/inputs/ligands/7sh4_ligand.pdb


 56 55  0  0  0  0  0  0  0  0999 V2000
  -38.0434   60.8271   64.2695 C   0  0  0  0  0  0  0  0  0  0  0  0
  -37.0838   60.4462   65.3613 C   0  0  0  0  0  0  0  0  0  0  0  0
  -37.6598   59.2520   65.9315 O   0  0  0  0  0  0  0  0  0  0  0  0
  -38.5329   57.8063   64.4663 O   0  0  0  0  0  0  0  0  0  0  0  0
  -37.6308   58.1498   65.1818 C   0  0  0  0  0  0  0  0  0  0  0  0
  -36.2900   57.4778   65.2565 C   0  0  0  0  0  0  0  0  0  0  0  0
  -35.2682   58.0202   64.2717 C   0  0  0  0  0  0  0  0  0  0  0  0
  -35.4876   57.5147   62.8614 C   0  0  0  0  0  0  0  0  0  0  0  0
  -36.1464   58.5162   61.9401 C   0  0  0  0  0  0  0  0  0  0  0  0
  -37.4684   58.0290   61.3822 C   0  0  0  0  0  0  0  0  0  0  0  0
  -38.3801   59.1510   60.9495 C   0  0  0  0  0  0  0  0  0  0  0  0
  -38.6664   59.1396   59.4711 C   0  0  0  0  0  0  0  0  0  0  0  0
  -39.7094   58.1205   59.0693 C   0  0  0  0  0  0  0  0  0  0  0  0
  -41.1220   58.5778   59.3722 C   0  0  0  0  0  0  0  0  0  0  0  0
  -41.7898   57.8170   60.4984 C   0  0  0  0  0  0  0  0  0  0  0  0
  -41.1305   56.4791   60.8139 C   0  0  0  0  0  0  0  0  0  0  0  0
  -40.6666   56.3444   62.2515 C   0  0  0  0  0  0  0  0  0  0  0  0
  -41.7605   55.8924   63.1972 C   0  0  0  0  0  0  0  0  0  0  0  0
  -41.9034   56.7733   64.4305 C   0  0  0  0  0  0  0  0  0  0  0  0
  -43.3446   57.0042   64.8486 C   0  0  0  0  0  0  0  0  0  0  0  0
  -44.9240   57.5914   66.7185 C   0  0  0  0  0  0  0  0  0  0  0  0
  -43.5138   57.7023   66.1847 C   0  0  0  0  0  0  0  0  0  0  0  0
  -37.4581   61.8537   63.3340 C   0  0  0  0  0  0  0  0  0  0  0  0
  -37.2821   63.0935   64.0554 O   0  0  0  0  0  0  0  0  0  0  0  0
  -35.9108   63.9189   64.0400 P   0  0  0  0  0  0  0  0  0  0  0  0
  -36.0349   64.9943   63.0326 O   0  0  0  0  0  0  0  0  0  0  0  0
  -35.5779   64.2867   65.4374 O   0  0  0  0  0  0  0  0  0  0  0  0
  -36.2381   64.9132   65.7728 H   0  0  0  0  0  0  0  0  0  0  0  0
  -34.8047   62.8909   63.5274 O   0  0  0  0  0  0  0  0  0  0  0  0
  -33.4115   63.1270   63.8158 C   0  0  0  0  0  0  0  0  0  0  0  0
  -32.8893   61.4991   62.1366 O   0  0  0  0  0  0  0  0  0  0  0  0
  -32.6115   62.8339   62.5704 C   0  0  0  0  0  0  0  0  0  0  0  0
  -32.7010   60.8788   62.8582 H   0  0  0  0  0  0  0  0  0  0  0  0
  -34.2298   63.6562   60.9818 O   0  0  0  0  0  0  0  0  0  0  0  0
  -32.8994   63.8137   61.4583 C   0  0  0  0  0  0  0  0  0  0  0  0
  -34.3955   64.2931   60.2692 H   0  0  0  0  0  0  0  0  0  0  0  0
  -39.2830   61.3044   64.8904 O   0  0  0  0  0  0  0  0  0  0  0  0
  -40.9381   59.9013   65.4838 O   0  0  0  0  0  0  0  0  0  0  0  0
  -40.3982   60.5858   64.6581 C   0  0  0  0  0  0  0  0  0  0  0  0
  -40.8934   60.7571   63.2554 C   0  0  0  0  0  0  0  0  0  0  0  0
  -42.2958   60.1824   63.0837 C   0  0  0  0  0  0  0  0  0  0  0  0
  -43.4035   61.2175   63.1919 C   0  0  0  0  0  0  0  0  0  0  0  0
  -44.0725   61.2540   64.5612 C   0  0  0  0  0  0  0  0  0  0  0  0
  -45.5782   61.0714   64.5172 C   0  0  0  0  0  0  0  0  0  0  0  0
  -46.0375   59.6497   64.1810 C   0  0  0  0  0  0  0  0  0  0  0  0
  -47.5455   59.4110   64.2827 C   0  0  0  0  0  0  0  0  0  0  0  0
  -48.3280   60.6850   64.1702 C   0  0  0  0  0  0  0  0  0  0  0  0
  -49.6413   60.8022   64.1388 C   0  0  0  0  0  0  0  0  0  0  0  0
  -50.6295   59.6813   64.2107 C   0  0  0  0  0  0  0  0  0  0  0  0
  -51.1737   59.2958   62.8382 C   0  0  0  0  0  0  0  0  0  0  0  0
  -50.4214   58.1504   62.1839 C   0  0  0  0  0  0  0  0  0  0  0  0
  -49.7272   58.5372   60.8893 C   0  0  0  0  0  0  0  0  0  0  0  0
  -49.3182   57.3609   60.0184 C   0  0  0  0  0  0  0  0  0  0  0  0
  -47.9888   57.5663   59.3085 C   0  0  0  0  0  0  0  0  0  0  0  0
  -48.0821   57.5484   57.7956 C   0  0  0  0  0  0  0  0  0  0  0  0
  -46.9689   58.3126   57.1351 C   0  0  0  0  0  0  0  0  0  0  0  0
 21 22  1  0  0  0
  4  5  2  0  0  0
 25 24  1  0  0  0
 25 26  2  0  0  0
 25 27  1  0  0  0
 25 29  1  0  0  0
 22 20  1  0  0  0
  3  5  1  0  0  0
  3  2  1  0  0  0
 20 19  1  0  0  0
 24 23  1  0  0  0
 19 18  1  0  0  0
 18 17  1  0  0  0
 27 28  1  0  0  0
 17 16  1  0  0  0
 29 30  1  0  0  0
 16 15  1  0  0  0
 34 35  1  0  0  0
 34 36  1  0  0  0
 15 14  1  0  0  0
 31 32  1  0  0  0
 31 33  1  0  0  0
 14 13  1  0  0  0
 37  1  1  0  0  0
 37 39  1  0  0  0
 13 12  1  0  0  0
 38 39  2  0  0  0
 12 11  1  0  0  0
 11 10  1  0  0  0
 10  9  1  0  0  0
  9  8  1  0  0  0
  8  7  1  0  0  0
  7  6  1  0  0  0
  6  5  1  0  0  0
  2  1  1  0  0  0
  1 23  1  0  0  0
 30 32  1  0  0  0
 32 35  1  0  0  0
 39 40  1  0  0  0
 40 41  1  0  0  0
 41 42  1  0  0  0
 42 43  1  0  0  0
 43 44  1  0  0  0
 44 45  1  0  0  0
 45 46  1  0  0  0
 46 47  1  0  0  0
 47 48  2  0  0  0
 48 49  1  0  0  0
 49 50  1  0  0  0
 50 51  1  0  0  0
 51 52  1  0  0  0
 52 53  1  0  0  0
 53 54  1  0  0  0
 54 55  1  0  0  0
 55 56  1  0  0  0
M  CHG 1  26  -1
M  END
> <minimizedAffinity>
-8.07349

> <CNNscore>
0.2533889711

> <CNNaffinity>
7.4762725830

> <CNN_VS>
1.8944050074

> <CNNaffinity_variance>
1.1612598896

$$$$
/media/chris/experiments/cd1a-new-docking/inputs/ligands/7sh4_ligand.pdb


 56 55  0  0  0  0  0  0  0  0999 V2000
  -39.2929   59.4212   64.2449 C   0  0  0  0  0  0  0  0  0  0  0  0
  -40.0725   60.3433   65.1391 C   0  0  0  0  0  0  0  0  0  0  0  0
  -41.0268   60.9652   64.2528 O   0  0  0  0  0  0  0  0  0  0  0  0
  -42.3857   61.6418   65.8943 O   0  0  0  0  0  0  0  0  0  0  0  0
  -42.2205   61.2658   64.7651 C   0  0  0  0  0  0  0  0  0  0  0  0
  -43.2944   61.1930   63.7181 C   0  0  0  0  0  0  0  0  0  0  0  0
  -44.7021   61.3765   64.2593 C   0  0  0  0  0  0  0  0  0  0  0  0
  -45.3742   60.0636   64.6018 C   0  0  0  0  0  0  0  0  0  0  0  0
  -45.3935   59.7449   66.0796 C   0  0  0  0  0  0  0  0  0  0  0  0
  -46.7891   59.4944   66.6142 C   0  0  0  0  0  0  0  0  0  0  0  0
  -47.8453   59.4855   65.5365 C   0  0  0  0  0  0  0  0  0  0  0  0
  -49.2329   59.7247   66.0705 C   0  0  0  0  0  0  0  0  0  0  0  0
  -50.3192   59.1092   65.2167 C   0  0  0  0  0  0  0  0  0  0  0  0
  -51.0749   60.1376   64.3996 C   0  0  0  0  0  0  0  0  0  0  0  0
  -51.1356   59.8270   62.9187 C   0  0  0  0  0  0  0  0  0  0  0  0
  -49.8479   60.1483   62.1686 C   0  0  0  0  0  0  0  0  0  0  0  0
  -49.3088   58.9932   61.3468 C   0  0  0  0  0  0  0  0  0  0  0  0
  -49.7101   59.0542   59.8871 C   0  0  0  0  0  0  0  0  0  0  0  0
  -49.1116   57.9379   59.0427 C   0  0  0  0  0  0  0  0  0  0  0  0
  -47.7899   58.3084   58.3939 C   0  0  0  0  0  0  0  0  0  0  0  0
  -47.2017   56.1880   57.1719 C   0  0  0  0  0  0  0  0  0  0  0  0
  -47.5389   57.6566   57.0474 C   0  0  0  0  0  0  0  0  0  0  0  0
  -39.9596   58.0775   64.0979 C   0  0  0  0  0  0  0  0  0  0  0  0
  -39.8411   57.6474   62.7234 O   0  0  0  0  0  0  0  0  0  0  0  0
  -41.1019   57.5032   61.7478 P   0  0  0  0  0  0  0  0  0  0  0  0
  -41.2306   56.0785   61.3733 O   0  0  0  0  0  0  0  0  0  0  0  0
  -42.2577   58.1796   62.3845 O   0  0  0  0  0  0  0  0  0  0  0  0
  -42.5119   57.6983   63.1874 H   0  0  0  0  0  0  0  0  0  0  0  0
  -40.7166   58.3232   60.4355 O   0  0  0  0  0  0  0  0  0  0  0  0
  -40.4205   59.7318   60.5259 C   0  0  0  0  0  0  0  0  0  0  0  0
  -38.2043   60.6038   60.7907 O   0  0  0  0  0  0  0  0  0  0  0  0
  -39.0918   59.9825   59.8562 C   0  0  0  0  0  0  0  0  0  0  0  0
  -38.6111   61.4152   61.1328 H   0  0  0  0  0  0  0  0  0  0  0  0
  -39.1856   58.2602   58.1700 O   0  0  0  0  0  0  0  0  0  0  0  0
  -38.4737   58.7166   59.3131 C   0  0  0  0  0  0  0  0  0  0  0  0
  -38.7743   57.4477   57.8362 H   0  0  0  0  0  0  0  0  0  0  0  0
  -37.9346   59.2960   64.7826 O   0  0  0  0  0  0  0  0  0  0  0  0
  -36.7207   60.1580   63.0963 O   0  0  0  0  0  0  0  0  0  0  0  0
  -36.9243   59.2822   63.8921 C   0  0  0  0  0  0  0  0  0  0  0  0
  -36.0763   58.0553   64.0255 C   0  0  0  0  0  0  0  0  0  0  0  0
  -35.0737   57.9418   62.8816 C   0  0  0  0  0  0  0  0  0  0  0  0
  -33.6230   58.0557   63.3201 C   0  0  0  0  0  0  0  0  0  0  0  0
  -33.3664   59.2067   64.2861 C   0  0  0  0  0  0  0  0  0  0  0  0
  -33.2598   60.5634   63.6148 C   0  0  0  0  0  0  0  0  0  0  0  0
  -32.4977   60.5584   62.2866 C   0  0  0  0  0  0  0  0  0  0  0  0
  -31.5719   61.7559   62.0621 C   0  0  0  0  0  0  0  0  0  0  0  0
  -31.8523   62.8742   63.0205 C   0  0  0  0  0  0  0  0  0  0  0  0
  -32.6089   63.9312   62.7977 C   0  0  0  0  0  0  0  0  0  0  0  0
  -33.3507   64.2352   61.5344 C   0  0  0  0  0  0  0  0  0  0  0  0
  -34.5614   65.1332   61.7717 C   0  0  0  0  0  0  0  0  0  0  0  0
  -35.8834   64.4847   61.4004 C   0  0  0  0  0  0  0  0  0  0  0  0
  -36.4827   63.6413   62.5126 C   0  0  0  0  0  0  0  0  0  0  0  0
  -36.2118   64.1629   63.9140 C   0  0  0  0  0  0  0  0  0  0  0  0
  -35.7142   63.0923   64.8730 C   0  0  0  0  0  0  0  0  0  0  0  0
  -35.1285   63.6348   66.1616 C   0  0  0  0  0  0  0  0  0  0  0  0
  -33.6676   63.3165   66.3158 C   0  0  0  0  0  0  0  0  0  0  0  0
 21 22  1  0  0  0
  4  5  2  0  0  0
 25 24  1  0  0  0
 25 26  2  0  0  0
 25 27  1  0  0  0
 25 29  1  0  0  0
 22 20  1  0  0  0
  3  5  1  0  0  0
  3  2  1  0  0  0
 20 19  1  0  0  0
 24 23  1  0  0  0
 19 18  1  0  0  0
 18 17  1  0  0  0
 27 28  1  0  0  0
 17 16  1  0  0  0
 29 30  1  0  0  0
 16 15  1  0  0  0
 34 35  1  0  0  0
 34 36  1  0  0  0
 15 14  1  0  0  0
 31 32  1  0  0  0
 31 33  1  0  0  0
 14 13  1  0  0  0
 37  1  1  0  0  0
 37 39  1  0  0  0
 13 12  1  0  0  0
 38 39  2  0  0  0
 12 11  1  0  0  0
 11 10  1  0  0  0
 10  9  1  0  0  0
  9  8  1  0  0  0
  8  7  1  0  0  0
  7  6  1  0  0  0
  6  5  1  0  0  0
  2  1  1  0  0  0
  1 23  1  0  0  0
 30 32  1  0  0  0
 32 35  1  0  0  0
 39 40  1  0  0  0
 40 41  1  0  0  0
 41 42  1  0  0  0
 42 43  1  0  0  0
 43 44  1  0  0  0
 44 45  1  0  0  0
 45 46  1  0  0  0
 46 47  1  0  0  0
 47 48  2  0  0  0
 48 49  1  0  0  0
 49 50  1  0  0  0
 50 51  1  0  0  0
 51 52  1  0  0  0
 52 53  1  0  0  0
 53 54  1  0  0  0
 54 55  1  0  0  0
 55 56  1  0  0  0
M  CHG 1  26  -1
M  END
> <minimizedAffinity>
-8.05953

> <CNNscore>
0.2502205968

> <CNNaffinity>
6.9457330704

> <CNN_VS>
1.7379654646

> <CNNaffinity_variance>
0.7184831500

$$$$
