/media/chris/experiments/cd1a-new-docking/inputs/ligands/7sh4_ligand.pdb


 56 55  0  0  0  0  0  0  0  0999 V2000
  -40.4143   60.1536   64.2491 C   0  0  0  0  0  0  0  0  0  0  0  0
  -41.0661   59.2658   65.2712 C   0  0  0  0  0  0  0  0  0  0  0  0
  -40.7355   57.9302   64.8353 O   0  0  0  0  0  0  0  0  0  0  0  0
  -41.6198   56.0116   64.1030 O   0  0  0  0  0  0  0  0  0  0  0  0
  -41.7429   57.1661   64.4122 C   0  0  0  0  0  0  0  0  0  0  0  0
  -43.0513   57.8982   64.4955 C   0  0  0  0  0  0  0  0  0  0  0  0
  -44.0890   57.2168   65.3716 C   0  0  0  0  0  0  0  0  0  0  0  0
  -45.2498   58.1246   65.7194 C   0  0  0  0  0  0  0  0  0  0  0  0
  -45.6541   59.0664   64.6079 C   0  0  0  0  0  0  0  0  0  0  0  0
  -46.4952   60.2299   65.0927 C   0  0  0  0  0  0  0  0  0  0  0  0
  -47.9294   60.1602   64.6285 C   0  0  0  0  0  0  0  0  0  0  0  0
  -48.8956   59.8643   65.7450 C   0  0  0  0  0  0  0  0  0  0  0  0
  -50.2563   59.4172   65.2585 C   0  0  0  0  0  0  0  0  0  0  0  0
  -50.8829   60.3990   64.2890 C   0  0  0  0  0  0  0  0  0  0  0  0
  -51.1611   59.8207   62.9173 C   0  0  0  0  0  0  0  0  0  0  0  0
  -50.8304   58.3376   62.7955 C   0  0  0  0  0  0  0  0  0  0  0  0
  -49.9966   57.9902   61.5772 C   0  0  0  0  0  0  0  0  0  0  0  0
  -49.6571   59.1907   60.7177 C   0  0  0  0  0  0  0  0  0  0  0  0
  -48.9141   58.8343   59.4377 C   0  0  0  0  0  0  0  0  0  0  0  0
  -48.2418   57.4738   59.4841 C   0  0  0  0  0  0  0  0  0  0  0  0
  -47.2329   58.2035   57.2965 C   0  0  0  0  0  0  0  0  0  0  0  0
  -47.1038   57.2941   58.4974 C   0  0  0  0  0  0  0  0  0  0  0  0
  -39.0152   60.5457   64.6496 C   0  0  0  0  0  0  0  0  0  0  0  0
  -38.5607   61.6036   63.7762 O   0  0  0  0  0  0  0  0  0  0  0  0
  -37.1108   62.2699   63.9027 P   0  0  0  0  0  0  0  0  0  0  0  0
  -36.1020   61.2336   63.5945 O   0  0  0  0  0  0  0  0  0  0  0  0
  -37.1086   63.5239   63.1113 O   0  0  0  0  0  0  0  0  0  0  0  0
  -37.2004   63.3117   62.1692 H   0  0  0  0  0  0  0  0  0  0  0  0
  -36.9586   62.6613   65.4411 O   0  0  0  0  0  0  0  0  0  0  0  0
  -36.3769   63.9287   65.8089 C   0  0  0  0  0  0  0  0  0  0  0  0
  -36.1939   62.9911   68.0066 O   0  0  0  0  0  0  0  0  0  0  0  0
  -35.4762   63.7110   66.9999 C   0  0  0  0  0  0  0  0  0  0  0  0
  -37.0049   63.4730   68.2326 H   0  0  0  0  0  0  0  0  0  0  0  0
  -33.1896   63.2250   67.5943 O   0  0  0  0  0  0  0  0  0  0  0  0
  -34.2095   62.9746   66.6358 C   0  0  0  0  0  0  0  0  0  0  0  0
  -32.3852   62.7443   67.3437 H   0  0  0  0  0  0  0  0  0  0  0  0
  -41.2686   61.3277   64.0457 O   0  0  0  0  0  0  0  0  0  0  0  0
  -43.2003   61.8999   63.0451 O   0  0  0  0  0  0  0  0  0  0  0  0
  -42.1914   61.2493   63.0677 C   0  0  0  0  0  0  0  0  0  0  0  0
  -41.8003   60.2695   62.0053 C   0  0  0  0  0  0  0  0  0  0  0  0
  -41.4742   60.9710   60.6906 C   0  0  0  0  0  0  0  0  0  0  0  0
  -40.6439   60.1317   59.7336 C   0  0  0  0  0  0  0  0  0  0  0  0
  -40.8571   58.6312   59.8962 C   0  0  0  0  0  0  0  0  0  0  0  0
  -39.5804   57.8501   60.1457 C   0  0  0  0  0  0  0  0  0  0  0  0
  -39.1509   57.7843   61.6142 C   0  0  0  0  0  0  0  0  0  0  0  0
  -37.6534   57.9749   61.8642 C   0  0  0  0  0  0  0  0  0  0  0  0
  -37.2860   57.7418   63.2990 C   0  0  0  0  0  0  0  0  0  0  0  0
  -36.0720   57.7610   63.8140 C   0  0  0  0  0  0  0  0  0  0  0  0
  -34.8012   58.0227   63.0691 C   0  0  0  0  0  0  0  0  0  0  0  0
  -33.6623   58.4474   63.9916 C   0  0  0  0  0  0  0  0  0  0  0  0
  -32.2869   58.3194   63.3606 C   0  0  0  0  0  0  0  0  0  0  0  0
  -31.7151   59.6388   62.8713 C   0  0  0  0  0  0  0  0  0  0  0  0
  -32.6955   60.7995   62.9009 C   0  0  0  0  0  0  0  0  0  0  0  0
  -32.2230   62.0116   62.1127 C   0  0  0  0  0  0  0  0  0  0  0  0
  -33.1058   63.2346   62.2640 C   0  0  0  0  0  0  0  0  0  0  0  0
  -32.7992   64.3019   61.2508 C   0  0  0  0  0  0  0  0  0  0  0  0
 21 22  1  0  0  0
  4  5  2  0  0  0
 25 24  1  0  0  0
 25 26  2  0  0  0
 25 27  1  0  0  0
 25 29  1  0  0  0
 22 20  1  0  0  0
  3  5  1  0  0  0
  3  2  1  0  0  0
 20 19  1  0  0  0
 24 23  1  0  0  0
 19 18  1  0  0  0
 18 17  1  0  0  0
 27 28  1  0  0  0
 17 16  1  0  0  0
 29 30  1  0  0  0
 16 15  1  0  0  0
 34 35  1  0  0  0
 34 36  1  0  0  0
 15 14  1  0  0  0
 31 32  1  0  0  0
 31 33  1  0  0  0
 14 13  1  0  0  0
 37  1  1  0  0  0
 37 39  1  0  0  0
 13 12  1  0  0  0
 38 39  2  0  0  0
 12 11  1  0  0  0
 11 10  1  0  0  0
 10  9  1  0  0  0
  9  8  1  0  0  0
  8  7  1  0  0  0
  7  6  1  0  0  0
  6  5  1  0  0  0
  2  1  1  0  0  0
  1 23  1  0  0  0
 30 32  1  0  0  0
 32 35  1  0  0  0
 39 40  1  0  0  0
 40 41  1  0  0  0
 41 42  1  0  0  0
 42 43  1  0  0  0
 43 44  1  0  0  0
 44 45  1  0  0  0
 45 46  1  0  0  0
 46 47  1  0  0  0
 47 48  2  0  0  0
 48 49  1  0  0  0
 49 50  1  0  0  0
 50 51  1  0  0  0
 51 52  1  0  0  0
 52 53  1  0  0  0
 53 54  1  0  0  0
 54 55  1  0  0  0
 55 56  1  0  0  0
M  CHG 1  26  -1
M  END
> <minimizedAffinity>
-8.71064

> <CNNscore>
0.4864500165

> <CNNaffinity>
7.5015497208

> <CNN_VS>
3.6491289139

> <CNNaffinity_variance>
1.2007404566

$$$$
/media/chris/experiments/cd1a-new-docking/inputs/ligands/7sh4_ligand.pdb


 56 55  0  0  0  0  0  0  0  0999 V2000
  -40.9057   59.0810   64.7433 C   0  0  0  0  0  0  0  0  0  0  0  0
  -41.0229   59.0044   63.2473 C   0  0  0  0  0  0  0  0  0  0  0  0
  -42.4066   59.3228   62.9886 O   0  0  0  0  0  0  0  0  0  0  0  0
  -43.6879   61.0138   63.6944 O   0  0  0  0  0  0  0  0  0  0  0  0
  -42.7537   60.6084   63.0569 C   0  0  0  0  0  0  0  0  0  0  0  0
  -41.7585   61.4776   62.3436 C   0  0  0  0  0  0  0  0  0  0  0  0
  -42.2736   62.0728   61.0439 C   0  0  0  0  0  0  0  0  0  0  0  0
  -41.6124   61.4720   59.8214 C   0  0  0  0  0  0  0  0  0  0  0  0
  -40.6687   60.3306   60.1256 C   0  0  0  0  0  0  0  0  0  0  0  0
  -41.0996   59.0209   59.4970 C   0  0  0  0  0  0  0  0  0  0  0  0
  -39.9699   58.0305   59.3542 C   0  0  0  0  0  0  0  0  0  0  0  0
  -38.6404   58.6879   59.0942 C   0  0  0  0  0  0  0  0  0  0  0  0
  -37.6807   58.5824   60.2588 C   0  0  0  0  0  0  0  0  0  0  0  0
  -38.2391   57.7631   61.4048 C   0  0  0  0  0  0  0  0  0  0  0  0
  -37.2174   57.4052   62.4638 C   0  0  0  0  0  0  0  0  0  0  0  0
  -35.8969   58.1538   62.3237 C   0  0  0  0  0  0  0  0  0  0  0  0
  -34.7462   57.5210   63.0823 C   0  0  0  0  0  0  0  0  0  0  0  0
  -34.4956   58.1555   64.4352 C   0  0  0  0  0  0  0  0  0  0  0  0
  -33.0745   58.6712   64.6134 C   0  0  0  0  0  0  0  0  0  0  0  0
  -32.2167   58.5314   63.3686 C   0  0  0  0  0  0  0  0  0  0  0  0
  -32.5480   60.9083   62.6094 C   0  0  0  0  0  0  0  0  0  0  0  0
  -31.5490   59.8140   62.9103 C   0  0  0  0  0  0  0  0  0  0  0  0
  -39.5196   59.4774   65.1831 C   0  0  0  0  0  0  0  0  0  0  0  0
  -39.3321   60.8854   64.9168 O   0  0  0  0  0  0  0  0  0  0  0  0
  -37.9023   61.5215   64.5804 P   0  0  0  0  0  0  0  0  0  0  0  0
  -36.9230   60.4183   64.4777 O   0  0  0  0  0  0  0  0  0  0  0  0
  -38.0653   62.4390   63.4269 O   0  0  0  0  0  0  0  0  0  0  0  0
  -38.2987   61.9269   62.6369 H   0  0  0  0  0  0  0  0  0  0  0  0
  -37.5204   62.4002   65.8551 O   0  0  0  0  0  0  0  0  0  0  0  0
  -36.1702   62.3876   66.3617 C   0  0  0  0  0  0  0  0  0  0  0  0
  -36.1899   64.2317   67.8920 O   0  0  0  0  0  0  0  0  0  0  0  0
  -35.7383   63.8137   66.6004 C   0  0  0  0  0  0  0  0  0  0  0  0
  -37.1511   64.1157   67.9516 H   0  0  0  0  0  0  0  0  0  0  0  0
  -33.5985   63.5692   67.6864 O   0  0  0  0  0  0  0  0  0  0  0  0
  -34.2426   63.9876   66.4899 C   0  0  0  0  0  0  0  0  0  0  0  0
  -32.6400   63.6882   67.5963 H   0  0  0  0  0  0  0  0  0  0  0  0
  -41.3022   57.7856   65.3042 O   0  0  0  0  0  0  0  0  0  0  0  0
  -42.5171   58.2813   67.1313 O   0  0  0  0  0  0  0  0  0  0  0  0
  -42.4213   57.7614   66.0533 C   0  0  0  0  0  0  0  0  0  0  0  0
  -43.5346   57.0260   65.3739 C   0  0  0  0  0  0  0  0  0  0  0  0
  -44.7151   57.9465   65.0803 C   0  0  0  0  0  0  0  0  0  0  0  0
  -45.9001   57.7448   66.0104 C   0  0  0  0  0  0  0  0  0  0  0  0
  -46.1919   58.9504   66.8964 C   0  0  0  0  0  0  0  0  0  0  0  0
  -47.0308   60.0213   66.2244 C   0  0  0  0  0  0  0  0  0  0  0  0
  -48.5410   59.8668   66.4258 C   0  0  0  0  0  0  0  0  0  0  0  0
  -49.3226   59.4312   65.1846 C   0  0  0  0  0  0  0  0  0  0  0  0
  -48.6901   59.9227   63.9172 C   0  0  0  0  0  0  0  0  0  0  0  0
  -49.2544   59.9806   62.7265 C   0  0  0  0  0  0  0  0  0  0  0  0
  -50.6525   59.5668   62.3913 C   0  0  0  0  0  0  0  0  0  0  0  0
  -50.7600   58.0768   62.0799 C   0  0  0  0  0  0  0  0  0  0  0  0
  -50.4120   57.7278   60.6435 C   0  0  0  0  0  0  0  0  0  0  0  0
  -49.1570   56.8829   60.5079 C   0  0  0  0  0  0  0  0  0  0  0  0
  -48.1266   57.4371   59.5381 C   0  0  0  0  0  0  0  0  0  0  0  0
  -47.5036   56.3756   58.6443 C   0  0  0  0  0  0  0  0  0  0  0  0
  -47.2579   56.8288   57.2188 C   0  0  0  0  0  0  0  0  0  0  0  0
  -46.9485   58.2965   57.1204 C   0  0  0  0  0  0  0  0  0  0  0  0
 21 22  1  0  0  0
  4  5  2  0  0  0
 25 24  1  0  0  0
 25 26  2  0  0  0
 25 27  1  0  0  0
 25 29  1  0  0  0
 22 20  1  0  0  0
  3  5  1  0  0  0
  3  2  1  0  0  0
 20 19  1  0  0  0
 24 23  1  0  0  0
 19 18  1  0  0  0
 18 17  1  0  0  0
 27 28  1  0  0  0
 17 16  1  0  0  0
 29 30  1  0  0  0
 16 15  1  0  0  0
 34 35  1  0  0  0
 34 36  1  0  0  0
 15 14  1  0  0  0
 31 32  1  0  0  0
 31 33  1  0  0  0
 14 13  1  0  0  0
 37  1  1  0  0  0
 37 39  1  0  0  0
 13 12  1  0  0  0
 38 39  2  0  0  0
 12 11  1  0  0  0
 11 10  1  0  0  0
 10  9  1  0  0  0
  9  8  1  0  0  0
  8  7  1  0  0  0
  7  6  1  0  0  0
  6  5  1  0  0  0
  2  1  1  0  0  0
  1 23  1  0  0  0
 30 32  1  0  0  0
 32 35  1  0  0  0
 39 40  1  0  0  0
 40 41  1  0  0  0
 41 42  1  0  0  0
 42 43  1  0  0  0
 43 44  1  0  0  0
 44 45  1  0  0  0
 45 46  1  0  0  0
 46 47  1  0  0  0
 47 48  2  0  0  0
 48 49  1  0  0  0
 49 50  1  0  0  0
 50 51  1  0  0  0
 51 52  1  0  0  0
 52 53  1  0  0  0
 53 54  1  0  0  0
 54 55  1  0  0  0
 55 56  1  0  0  0
M  CHG 1  26  -1
M  END
> <minimizedAffinity>
-8.67265

> <CNNscore>
0.4363423884

> <CNNaffinity>
7.3994340897

> <CNN_VS>
3.2286868095

> <CNNaffinity_variance>
1.2062585354

$$$$
/media/chris/experiments/cd1a-new-docking/inputs/ligands/7sh4_ligand.pdb


 56 55  0  0  0  0  0  0  0  0999 V2000
  -40.9296   60.1304   65.2900 C   0  0  0  0  0  0  0  0  0  0  0  0
  -41.5347   59.1685   66.2730 C   0  0  0  0  0  0  0  0  0  0  0  0
  -41.3315   57.8749   65.6660 O   0  0  0  0  0  0  0  0  0  0  0  0
  -42.4160   56.1409   64.7626 O   0  0  0  0  0  0  0  0  0  0  0  0
  -42.4196   57.1427   65.4259 C   0  0  0  0  0  0  0  0  0  0  0  0
  -43.6031   57.6629   66.1898 C   0  0  0  0  0  0  0  0  0  0  0  0
  -44.8729   57.7788   65.3634 C   0  0  0  0  0  0  0  0  0  0  0  0
  -46.1151   57.3974   66.1406 C   0  0  0  0  0  0  0  0  0  0  0  0
  -47.3649   58.1309   65.7096 C   0  0  0  0  0  0  0  0  0  0  0  0
  -47.0960   59.5587   65.2789 C   0  0  0  0  0  0  0  0  0  0  0  0
  -48.2854   60.4690   65.4643 C   0  0  0  0  0  0  0  0  0  0  0  0
  -49.4077   59.8218   66.2318 C   0  0  0  0  0  0  0  0  0  0  0  0
  -50.6936   59.7184   65.4418 C   0  0  0  0  0  0  0  0  0  0  0  0
  -50.6640   60.5356   64.1660 C   0  0  0  0  0  0  0  0  0  0  0  0
  -51.1755   59.7969   62.9469 C   0  0  0  0  0  0  0  0  0  0  0  0
  -50.4632   58.4751   62.6839 C   0  0  0  0  0  0  0  0  0  0  0  0
  -50.9221   57.7680   61.4231 C   0  0  0  0  0  0  0  0  0  0  0  0
  -49.7821   57.3636   60.5108 C   0  0  0  0  0  0  0  0  0  0  0  0
  -49.0735   58.5433   59.8599 C   0  0  0  0  0  0  0  0  0  0  0  0
  -48.5193   58.2336   58.4807 C   0  0  0  0  0  0  0  0  0  0  0  0
  -47.5597   56.1169   57.5139 C   0  0  0  0  0  0  0  0  0  0  0  0
  -47.3481   57.2697   58.4689 C   0  0  0  0  0  0  0  0  0  0  0  0
  -39.5412   60.5550   65.6947 C   0  0  0  0  0  0  0  0  0  0  0  0
  -39.0050   61.4258   64.6737 O   0  0  0  0  0  0  0  0  0  0  0  0
  -37.4523   61.4546   64.2860 P   0  0  0  0  0  0  0  0  0  0  0  0
  -36.8004   60.2882   64.9197 O   0  0  0  0  0  0  0  0  0  0  0  0
  -37.3465   61.6182   62.8160 O   0  0  0  0  0  0  0  0  0  0  0  0
  -37.6950   60.8267   62.3768 H   0  0  0  0  0  0  0  0  0  0  0  0
  -36.8708   62.7731   64.9688 O   0  0  0  0  0  0  0  0  0  0  0  0
  -35.7275   62.6883   65.8438 C   0  0  0  0  0  0  0  0  0  0  0  0
  -36.2339   64.0594   67.7429 O   0  0  0  0  0  0  0  0  0  0  0  0
  -35.5286   64.0334   66.4984 C   0  0  0  0  0  0  0  0  0  0  0  0
  -37.1688   63.8515   67.5891 H   0  0  0  0  0  0  0  0  0  0  0  0
  -33.5045   63.4831   67.6894 O   0  0  0  0  0  0  0  0  0  0  0  0
  -34.0700   64.3551   66.7192 C   0  0  0  0  0  0  0  0  0  0  0  0
  -32.5689   63.7049   67.8173 H   0  0  0  0  0  0  0  0  0  0  0  0
  -41.8298   61.2799   65.1552 O   0  0  0  0  0  0  0  0  0  0  0  0
  -44.0670   61.4077   64.9593 O   0  0  0  0  0  0  0  0  0  0  0  0
  -43.0008   61.0677   64.5244 C   0  0  0  0  0  0  0  0  0  0  0  0
  -42.8121   60.3751   63.2104 C   0  0  0  0  0  0  0  0  0  0  0  0
  -42.4738   61.3651   62.1003 C   0  0  0  0  0  0  0  0  0  0  0  0
  -41.0897   61.1720   61.5029 C   0  0  0  0  0  0  0  0  0  0  0  0
  -41.1060   60.5229   60.1238 C   0  0  0  0  0  0  0  0  0  0  0  0
  -39.7937   59.8683   59.7344 C   0  0  0  0  0  0  0  0  0  0  0  0
  -39.9160   58.4045   59.3015 C   0  0  0  0  0  0  0  0  0  0  0  0
  -41.2239   57.7154   59.6963 C   0  0  0  0  0  0  0  0  0  0  0  0
  -40.9957   56.5567   60.6199 C   0  0  0  0  0  0  0  0  0  0  0  0
  -40.5596   56.6149   61.8633 C   0  0  0  0  0  0  0  0  0  0  0  0
  -40.2013   57.8574   62.6157 C   0  0  0  0  0  0  0  0  0  0  0  0
  -38.7679   57.8287   63.1385 C   0  0  0  0  0  0  0  0  0  0  0  0
  -37.7544   57.3530   62.1125 C   0  0  0  0  0  0  0  0  0  0  0  0
  -36.5207   58.2343   62.0198 C   0  0  0  0  0  0  0  0  0  0  0  0
  -35.3581   57.7833   62.8884 C   0  0  0  0  0  0  0  0  0  0  0  0
  -34.0621   58.5249   62.5984 C   0  0  0  0  0  0  0  0  0  0  0  0
  -33.5577   59.3699   63.7514 C   0  0  0  0  0  0  0  0  0  0  0  0
  -33.4089   58.5860   65.0253 C   0  0  0  0  0  0  0  0  0  0  0  0
 21 22  1  0  0  0
  4  5  2  0  0  0
 25 24  1  0  0  0
 25 26  2  0  0  0
 25 27  1  0  0  0
 25 29  1  0  0  0
 22 20  1  0  0  0
  3  5  1  0  0  0
  3  2  1  0  0  0
 20 19  1  0  0  0
 24 23  1  0  0  0
 19 18  1  0  0  0
 18 17  1  0  0  0
 27 28  1  0  0  0
 17 16  1  0  0  0
 29 30  1  0  0  0
 16 15  1  0  0  0
 34 35  1  0  0  0
 34 36  1  0  0  0
 15 14  1  0  0  0
 31 32  1  0  0  0
 31 33  1  0  0  0
 14 13  1  0  0  0
 37  1  1  0  0  0
 37 39  1  0  0  0
 13 12  1  0  0  0
 38 39  2  0  0  0
 12 11  1  0  0  0
 11 10  1  0  0  0
 10  9  1  0  0  0
  9  8  1  0  0  0
  8  7  1  0  0  0
  7  6  1  0  0  0
  6  5  1  0  0  0
  2  1  1  0  0  0
  1 23  1  0  0  0
 30 32  1  0  0  0
 32 35  1  0  0  0
 39 40  1  0  0  0
 40 41  1  0  0  0
 41 42  1  0  0  0
 42 43  1  0  0  0
 43 44  1  0  0  0
 44 45  1  0  0  0
 45 46  1  0  0  0
 46 47  1  0  0  0
 47 48  2  0  0  0
 48 49  1  0  0  0
 49 50  1  0  0  0
 50 51  1  0  0  0
 51 52  1  0  0  0
 52 53  1  0  0  0
 53 54  1  0  0  0
 54 55  1  0  0  0
 55 56  1  0  0  0
M  CHG 1  26  -1
M  END
> <minimizedAffinity>
-8.94733

> <CNNscore>
0.3936428726

> <CNNaffinity>
7.5947203636

> <CNN_VS>
2.9896075726

> <CNNaffinity_variance>
1.8098192215

$$$$
/media/chris/experiments/cd1a-new-docking/inputs/ligands/7sh4_ligand.pdb


 56 55  0  0  0  0  0  0  0  0999 V2000
  -40.3240   58.5460   65.1323 C   0  0  0  0  0  0  0  0  0  0  0  0
  -41.3151   59.3833   65.8901 C   0  0  0  0  0  0  0  0  0  0  0  0
  -41.4931   60.5506   65.0601 O   0  0  0  0  0  0  0  0  0  0  0  0
  -42.5509   62.0233   66.3684 O   0  0  0  0  0  0  0  0  0  0  0  0
  -42.5064   61.3611   65.3668 C   0  0  0  0  0  0  0  0  0  0  0  0
  -43.5056   61.4277   64.2479 C   0  0  0  0  0  0  0  0  0  0  0  0
  -44.9044   60.9804   64.6378 C   0  0  0  0  0  0  0  0  0  0  0  0
  -44.9002   59.7799   65.5604 C   0  0  0  0  0  0  0  0  0  0  0  0
  -46.1568   58.9420   65.4922 C   0  0  0  0  0  0  0  0  0  0  0  0
  -47.1577   59.4553   64.4768 C   0  0  0  0  0  0  0  0  0  0  0  0
  -48.5802   59.4311   64.9803 C   0  0  0  0  0  0  0  0  0  0  0  0
  -49.3632   60.6570   64.5910 C   0  0  0  0  0  0  0  0  0  0  0  0
  -50.8173   60.3697   64.2891 C   0  0  0  0  0  0  0  0  0  0  0  0
  -51.0024   59.5498   63.0281 C   0  0  0  0  0  0  0  0  0  0  0  0
  -50.2498   60.0842   61.8276 C   0  0  0  0  0  0  0  0  0  0  0  0
  -49.4200   59.0312   61.1020 C   0  0  0  0  0  0  0  0  0  0  0  0
  -50.2220   58.1604   60.1539 C   0  0  0  0  0  0  0  0  0  0  0  0
  -49.4002   57.5983   59.0119 C   0  0  0  0  0  0  0  0  0  0  0  0
  -48.4565   56.4800   59.4318 C   0  0  0  0  0  0  0  0  0  0  0  0
  -47.1642   56.4445   58.6358 C   0  0  0  0  0  0  0  0  0  0  0  0
  -46.8082   58.3485   57.0284 C   0  0  0  0  0  0  0  0  0  0  0  0
  -47.2881   56.9254   57.2024 C   0  0  0  0  0  0  0  0  0  0  0  0
  -38.9007   58.9135   65.4652 C   0  0  0  0  0  0  0  0  0  0  0  0
  -38.3931   59.7892   64.4337 O   0  0  0  0  0  0  0  0  0  0  0  0
  -37.8009   61.2434   64.7447 P   0  0  0  0  0  0  0  0  0  0  0  0
  -38.0360   62.0966   63.5599 O   0  0  0  0  0  0  0  0  0  0  0  0
  -38.3297   61.6861   66.0574 O   0  0  0  0  0  0  0  0  0  0  0  0
  -39.2881   61.8199   65.9914 H   0  0  0  0  0  0  0  0  0  0  0  0
  -36.2271   61.0353   64.8954 O   0  0  0  0  0  0  0  0  0  0  0  0
  -35.3476   62.1779   64.9228 C   0  0  0  0  0  0  0  0  0  0  0  0
  -33.8415   62.4902   66.7604 O   0  0  0  0  0  0  0  0  0  0  0  0
  -35.2056   62.6348   66.3539 C   0  0  0  0  0  0  0  0  0  0  0  0
  -33.5611   61.5707   66.6305 H   0  0  0  0  0  0  0  0  0  0  0  0
  -36.2144   64.2389   67.8463 O   0  0  0  0  0  0  0  0  0  0  0  0
  -35.6591   64.0616   66.5495 C   0  0  0  0  0  0  0  0  0  0  0  0
  -36.4995   65.1600   67.9529 H   0  0  0  0  0  0  0  0  0  0  0  0
  -40.5993   58.6891   63.6992 O   0  0  0  0  0  0  0  0  0  0  0  0
  -41.5141   56.6360   63.6106 O   0  0  0  0  0  0  0  0  0  0  0  0
  -41.3203   57.7126   63.1155 C   0  0  0  0  0  0  0  0  0  0  0  0
  -41.8652   58.1361   61.7868 C   0  0  0  0  0  0  0  0  0  0  0  0
  -41.9716   56.9570   60.8248 C   0  0  0  0  0  0  0  0  0  0  0  0
  -40.9224   56.9620   59.7253 C   0  0  0  0  0  0  0  0  0  0  0  0
  -40.5048   58.3611   59.2873 C   0  0  0  0  0  0  0  0  0  0  0  0
  -39.0345   58.4834   58.9326 C   0  0  0  0  0  0  0  0  0  0  0  0
  -38.2843   59.5787   59.6959 C   0  0  0  0  0  0  0  0  0  0  0  0
  -38.2387   59.3999   61.2148 C   0  0  0  0  0  0  0  0  0  0  0  0
  -37.8830   57.9975   61.6082 C   0  0  0  0  0  0  0  0  0  0  0  0
  -36.7609   57.5993   62.1753 C   0  0  0  0  0  0  0  0  0  0  0  0
  -35.6028   58.4702   62.5479 C   0  0  0  0  0  0  0  0  0  0  0  0
  -34.8869   57.9815   63.8038 C   0  0  0  0  0  0  0  0  0  0  0  0
  -33.4259   58.3903   63.8706 C   0  0  0  0  0  0  0  0  0  0  0  0
  -32.9456   59.1406   62.6403 C   0  0  0  0  0  0  0  0  0  0  0  0
  -31.6124   59.8486   62.8153 C   0  0  0  0  0  0  0  0  0  0  0  0
  -31.1459   60.5791   61.5652 C   0  0  0  0  0  0  0  0  0  0  0  0
  -31.4367   62.0668   61.5691 C   0  0  0  0  0  0  0  0  0  0  0  0
  -32.0082   62.5441   62.8750 C   0  0  0  0  0  0  0  0  0  0  0  0
 21 22  1  0  0  0
  4  5  2  0  0  0
 25 24  1  0  0  0
 25 26  2  0  0  0
 25 27  1  0  0  0
 25 29  1  0  0  0
 22 20  1  0  0  0
  3  5  1  0  0  0
  3  2  1  0  0  0
 20 19  1  0  0  0
 24 23  1  0  0  0
 19 18  1  0  0  0
 18 17  1  0  0  0
 27 28  1  0  0  0
 17 16  1  0  0  0
 29 30  1  0  0  0
 16 15  1  0  0  0
 34 35  1  0  0  0
 34 36  1  0  0  0
 15 14  1  0  0  0
 31 32  1  0  0  0
 31 33  1  0  0  0
 14 13  1  0  0  0
 37  1  1  0  0  0
 37 39  1  0  0  0
 13 12  1  0  0  0
 38 39  2  0  0  0
 12 11  1  0  0  0
 11 10  1  0  0  0
 10  9  1  0  0  0
  9  8  1  0  0  0
  8  7  1  0  0  0
  7  6  1  0  0  0
  6  5  1  0  0  0
  2  1  1  0  0  0
  1 23  1  0  0  0
 30 32  1  0  0  0
 32 35  1  0  0  0
 39 40  1  0  0  0
 40 41  1  0  0  0
 41 42  1  0  0  0
 42 43  1  0  0  0
 43 44  1  0  0  0
 44 45  1  0  0  0
 45 46  1  0  0  0
 46 47  1  0  0  0
 47 48  2  0  0  0
 48 49  1  0  0  0
 49 50  1  0  0  0
 50 51  1  0  0  0
 51 52  1  0  0  0
 52 53  1  0  0  0
 53 54  1  0  0  0
 54 55  1  0  0  0
 55 56  1  0  0  0
M  CHG 1  26  -1
M  END
> <minimizedAffinity>
-8.33721

> <CNNscore>
0.3873253167

> <CNNaffinity>
7.3564705849

> <CNN_VS>
2.8493473530

> <CNNaffinity_variance>
0.9357116818

$$$$
/media/chris/experiments/cd1a-new-docking/inputs/ligands/7sh4_ligand.pdb


 56 55  0  0  0  0  0  0  0  0999 V2000
  -39.1080   60.1059   65.2914 C   0  0  0  0  0  0  0  0  0  0  0  0
  -40.3345   60.5112   66.0591 C   0  0  0  0  0  0  0  0  0  0  0  0
  -41.1565   61.1775   65.0775 O   0  0  0  0  0  0  0  0  0  0  0  0
  -43.2181   62.0263   64.9082 O   0  0  0  0  0  0  0  0  0  0  0  0
  -42.4742   61.1591   65.2801 C   0  0  0  0  0  0  0  0  0  0  0  0
  -42.9078   59.8683   65.9129 C   0  0  0  0  0  0  0  0  0  0  0  0
  -43.8874   59.0645   65.0745 C   0  0  0  0  0  0  0  0  0  0  0  0
  -45.3112   59.1645   65.5798 C   0  0  0  0  0  0  0  0  0  0  0  0
  -46.1770   60.1315   64.8045 C   0  0  0  0  0  0  0  0  0  0  0  0
  -47.4572   59.5026   64.2927 C   0  0  0  0  0  0  0  0  0  0  0  0
  -48.0383   58.4825   65.2410 C   0  0  0  0  0  0  0  0  0  0  0  0
  -49.5414   58.4132   65.1819 C   0  0  0  0  0  0  0  0  0  0  0  0
  -50.2187   59.6956   65.6120 C   0  0  0  0  0  0  0  0  0  0  0  0
  -51.1620   60.2410   64.5588 C   0  0  0  0  0  0  0  0  0  0  0  0
  -51.1762   59.4453   63.2704 C   0  0  0  0  0  0  0  0  0  0  0  0
  -50.4024   60.1014   62.1326 C   0  0  0  0  0  0  0  0  0  0  0  0
  -49.4795   59.1553   61.3888 C   0  0  0  0  0  0  0  0  0  0  0  0
  -50.2164   58.1207   60.5629 C   0  0  0  0  0  0  0  0  0  0  0  0
  -49.7948   58.0943   59.1004 C   0  0  0  0  0  0  0  0  0  0  0  0
  -48.3938   58.6285   58.8622 C   0  0  0  0  0  0  0  0  0  0  0  0
  -46.8921   58.0526   56.9259 C   0  0  0  0  0  0  0  0  0  0  0  0
  -47.4221   57.6225   58.2749 C   0  0  0  0  0  0  0  0  0  0  0  0
  -38.1570   61.2585   65.0943 C   0  0  0  0  0  0  0  0  0  0  0  0
  -37.4166   61.4650   66.3180 O   0  0  0  0  0  0  0  0  0  0  0  0
  -36.4384   62.7125   66.5399 P   0  0  0  0  0  0  0  0  0  0  0  0
  -37.0228   63.8814   65.8477 O   0  0  0  0  0  0  0  0  0  0  0  0
  -36.1448   62.8165   67.9896 O   0  0  0  0  0  0  0  0  0  0  0  0
  -36.9554   63.0516   68.4676 H   0  0  0  0  0  0  0  0  0  0  0  0
  -35.0841   62.3255   65.7922 O   0  0  0  0  0  0  0  0  0  0  0  0
  -34.5066   63.2319   64.8305 C   0  0  0  0  0  0  0  0  0  0  0  0
  -32.3856   64.0805   64.1068 O   0  0  0  0  0  0  0  0  0  0  0  0
  -33.0657   63.4723   65.2088 C   0  0  0  0  0  0  0  0  0  0  0  0
  -32.4786   63.5203   63.3204 H   0  0  0  0  0  0  0  0  0  0  0  0
  -33.2045   63.5744   67.6147 O   0  0  0  0  0  0  0  0  0  0  0  0
  -32.9311   64.3317   66.4429 C   0  0  0  0  0  0  0  0  0  0  0  0
  -33.1131   64.1426   68.3956 H   0  0  0  0  0  0  0  0  0  0  0  0
  -39.5337   59.5300   64.0120 O   0  0  0  0  0  0  0  0  0  0  0  0
  -39.3562   57.4028   64.7215 O   0  0  0  0  0  0  0  0  0  0  0  0
  -39.8663   58.2249   64.0104 C   0  0  0  0  0  0  0  0  0  0  0  0
  -40.9587   57.9261   63.0310 C   0  0  0  0  0  0  0  0  0  0  0  0
  -40.7888   56.5438   62.4088 C   0  0  0  0  0  0  0  0  0  0  0  0
  -40.9848   56.5179   60.9019 C   0  0  0  0  0  0  0  0  0  0  0  0
  -41.7661   57.7129   60.3679 C   0  0  0  0  0  0  0  0  0  0  0  0
  -41.0115   58.5333   59.3384 C   0  0  0  0  0  0  0  0  0  0  0  0
  -40.6072   59.9325   59.8112 C   0  0  0  0  0  0  0  0  0  0  0  0
  -39.2172   60.0303   60.4435 C   0  0  0  0  0  0  0  0  0  0  0  0
  -38.3227   58.9046   60.0184 C   0  0  0  0  0  0  0  0  0  0  0  0
  -37.3691   58.3428   60.7357 C   0  0  0  0  0  0  0  0  0  0  0  0
  -36.9803   58.7134   62.1321 C   0  0  0  0  0  0  0  0  0  0  0  0
  -36.2593   57.5800   62.8561 C   0  0  0  0  0  0  0  0  0  0  0  0
  -35.8741   57.9178   64.2857 C   0  0  0  0  0  0  0  0  0  0  0  0
  -35.0881   59.2110   64.4163 C   0  0  0  0  0  0  0  0  0  0  0  0
  -33.6239   59.0242   64.7775 C   0  0  0  0  0  0  0  0  0  0  0  0
  -32.7868   58.4591   63.6400 C   0  0  0  0  0  0  0  0  0  0  0  0
  -31.7520   59.4216   63.0916 C   0  0  0  0  0  0  0  0  0  0  0  0
  -32.3592   60.5154   62.2583 C   0  0  0  0  0  0  0  0  0  0  0  0
 21 22  1  0  0  0
  4  5  2  0  0  0
 25 24  1  0  0  0
 25 26  2  0  0  0
 25 27  1  0  0  0
 25 29  1  0  0  0
 22 20  1  0  0  0
  3  5  1  0  0  0
  3  2  1  0  0  0
 20 19  1  0  0  0
 24 23  1  0  0  0
 19 18  1  0  0  0
 18 17  1  0  0  0
 27 28  1  0  0  0
 17 16  1  0  0  0
 29 30  1  0  0  0
 16 15  1  0  0  0
 34 35  1  0  0  0
 34 36  1  0  0  0
 15 14  1  0  0  0
 31 32  1  0  0  0
 31 33  1  0  0  0
 14 13  1  0  0  0
 37  1  1  0  0  0
 37 39  1  0  0  0
 13 12  1  0  0  0
 38 39  2  0  0  0
 12 11  1  0  0  0
 11 10  1  0  0  0
 10  9  1  0  0  0
  9  8  1  0  0  0
  8  7  1  0  0  0
  7  6  1  0  0  0
  6  5  1  0  0  0
  2  1  1  0  0  0
  1 23  1  0  0  0
 30 32  1  0  0  0
 32 35  1  0  0  0
 39 40  1  0  0  0
 40 41  1  0  0  0
 41 42  1  0  0  0
 42 43  1  0  0  0
 43 44  1  0  0  0
 44 45  1  0  0  0
 45 46  1  0  0  0
 46 47  1  0  0  0
 47 48  2  0  0  0
 48 49  1  0  0  0
 49 50  1  0  0  0
 50 51  1  0  0  0
 51 52  1  0  0  0
 52 53  1  0  0  0
 53 54  1  0  0  0
 54 55  1  0  0  0
 55 56  1  0  0  0
M  CHG 1  26  -1
M  END
> <minimizedAffinity>
-8.41561

> <CNNscore>
0.3473410308

> <CNNaffinity>
7.3231725693

> <CNN_VS>
2.5436382294

> <CNNaffinity_variance>
1.3021252155

$$$$
/media/chris/experiments/cd1a-new-docking/inputs/ligands/7sh4_ligand.pdb


 56 55  0  0  0  0  0  0  0  0999 V2000
  -40.1200   60.0142   64.7262 C   0  0  0  0  0  0  0  0  0  0  0  0
  -40.8194   59.0392   65.6306 C   0  0  0  0  0  0  0  0  0  0  0  0
  -40.7350   57.7841   64.9229 O   0  0  0  0  0  0  0  0  0  0  0  0
  -41.8560   55.9074   64.4534 O   0  0  0  0  0  0  0  0  0  0  0  0
  -41.8075   56.9931   64.9656 C   0  0  0  0  0  0  0  0  0  0  0  0
  -42.8816   57.5819   65.8342 C   0  0  0  0  0  0  0  0  0  0  0  0
  -44.2947   57.2686   65.3719 C   0  0  0  0  0  0  0  0  0  0  0  0
  -45.3348   58.1555   66.0233 C   0  0  0  0  0  0  0  0  0  0  0  0
  -46.3447   58.7362   65.0597 C   0  0  0  0  0  0  0  0  0  0  0  0
  -46.6955   60.1783   65.3655 C   0  0  0  0  0  0  0  0  0  0  0  0
  -48.1552   60.4936   65.1477 C   0  0  0  0  0  0  0  0  0  0  0  0
  -49.0545   59.8555   66.1732 C   0  0  0  0  0  0  0  0  0  0  0  0
  -50.4046   59.4546   65.6212 C   0  0  0  0  0  0  0  0  0  0  0  0
  -50.8286   60.3024   64.4388 C   0  0  0  0  0  0  0  0  0  0  0  0
  -51.1685   59.5051   63.1970 C   0  0  0  0  0  0  0  0  0  0  0  0
  -50.2821   58.2826   62.9882 C   0  0  0  0  0  0  0  0  0  0  0  0
  -49.2371   58.4572   61.9030 C   0  0  0  0  0  0  0  0  0  0  0  0
  -49.6869   59.3619   60.7740 C   0  0  0  0  0  0  0  0  0  0  0  0
  -48.9279   59.1381   59.4735 C   0  0  0  0  0  0  0  0  0  0  0  0
  -49.1931   57.7838   58.8405 C   0  0  0  0  0  0  0  0  0  0  0  0
  -47.1992   56.3042   58.4266 C   0  0  0  0  0  0  0  0  0  0  0  0
  -48.1424   57.3322   57.8440 C   0  0  0  0  0  0  0  0  0  0  0  0
  -38.9293   60.6524   65.3946 C   0  0  0  0  0  0  0  0  0  0  0  0
  -38.3579   61.6277   64.4942 O   0  0  0  0  0  0  0  0  0  0  0  0
  -36.8909   62.2364   64.6924 P   0  0  0  0  0  0  0  0  0  0  0  0
  -37.0222   63.5243   65.4072 O   0  0  0  0  0  0  0  0  0  0  0  0
  -36.0288   61.1814   65.2780 O   0  0  0  0  0  0  0  0  0  0  0  0
  -36.3333   60.9765   66.1758 H   0  0  0  0  0  0  0  0  0  0  0  0
  -36.3585   62.5433   63.2210 O   0  0  0  0  0  0  0  0  0  0  0  0
  -34.9608   62.8242   63.0034 C   0  0  0  0  0  0  0  0  0  0  0  0
  -35.5804   63.8973   60.9523 O   0  0  0  0  0  0  0  0  0  0  0  0
  -34.8514   64.0775   62.1701 C   0  0  0  0  0  0  0  0  0  0  0  0
  -35.2503   63.1103   60.4913 H   0  0  0  0  0  0  0  0  0  0  0  0
  -36.7629   65.4214   62.7687 O   0  0  0  0  0  0  0  0  0  0  0  0
  -35.3526   65.2997   62.9015 C   0  0  0  0  0  0  0  0  0  0  0  0
  -37.0656   66.2108   63.2442 H   0  0  0  0  0  0  0  0  0  0  0  0
  -41.0953   61.0163   64.2855 O   0  0  0  0  0  0  0  0  0  0  0  0
  -43.2825   60.6927   63.8714 O   0  0  0  0  0  0  0  0  0  0  0  0
  -42.1323   60.5758   63.5474 C   0  0  0  0  0  0  0  0  0  0  0  0
  -41.6806   59.9408   62.2689 C   0  0  0  0  0  0  0  0  0  0  0  0
  -41.7550   60.9200   61.1017 C   0  0  0  0  0  0  0  0  0  0  0  0
  -40.8398   60.5662   59.9411 C   0  0  0  0  0  0  0  0  0  0  0  0
  -41.0251   59.1418   59.4308 C   0  0  0  0  0  0  0  0  0  0  0  0
  -39.7260   58.3819   59.2373 C   0  0  0  0  0  0  0  0  0  0  0  0
  -39.1886   57.7069   60.5024 C   0  0  0  0  0  0  0  0  0  0  0  0
  -37.9792   58.3916   61.1426 C   0  0  0  0  0  0  0  0  0  0  0  0
  -37.7929   57.9866   62.5742 C   0  0  0  0  0  0  0  0  0  0  0  0
  -36.6489   57.8946   63.2240 C   0  0  0  0  0  0  0  0  0  0  0  0
  -35.2907   58.1785   62.6645 C   0  0  0  0  0  0  0  0  0  0  0  0
  -34.2042   58.1607   63.7358 C   0  0  0  0  0  0  0  0  0  0  0  0
  -32.7940   58.1284   63.1732 C   0  0  0  0  0  0  0  0  0  0  0  0
  -31.9739   59.3613   63.5116 C   0  0  0  0  0  0  0  0  0  0  0  0
  -31.3420   60.0461   62.3111 C   0  0  0  0  0  0  0  0  0  0  0  0
  -31.6860   61.5241   62.2064 C   0  0  0  0  0  0  0  0  0  0  0  0
  -30.9547   62.2561   61.0986 C   0  0  0  0  0  0  0  0  0  0  0  0
  -31.0480   63.7507   61.2289 C   0  0  0  0  0  0  0  0  0  0  0  0
 21 22  1  0  0  0
  4  5  2  0  0  0
 25 24  1  0  0  0
 25 26  2  0  0  0
 25 27  1  0  0  0
 25 29  1  0  0  0
 22 20  1  0  0  0
  3  5  1  0  0  0
  3  2  1  0  0  0
 20 19  1  0  0  0
 24 23  1  0  0  0
 19 18  1  0  0  0
 18 17  1  0  0  0
 27 28  1  0  0  0
 17 16  1  0  0  0
 29 30  1  0  0  0
 16 15  1  0  0  0
 34 35  1  0  0  0
 34 36  1  0  0  0
 15 14  1  0  0  0
 31 32  1  0  0  0
 31 33  1  0  0  0
 14 13  1  0  0  0
 37  1  1  0  0  0
 37 39  1  0  0  0
 13 12  1  0  0  0
 38 39  2  0  0  0
 12 11  1  0  0  0
 11 10  1  0  0  0
 10  9  1  0  0  0
  9  8  1  0  0  0
  8  7  1  0  0  0
  7  6  1  0  0  0
  6  5  1  0  0  0
  2  1  1  0  0  0
  1 23  1  0  0  0
 30 32  1  0  0  0
 32 35  1  0  0  0
 39 40  1  0  0  0
 40 41  1  0  0  0
 41 42  1  0  0  0
 42 43  1  0  0  0
 43 44  1  0  0  0
 44 45  1  0  0  0
 45 46  1  0  0  0
 46 47  1  0  0  0
 47 48  2  0  0  0
 48 49  1  0  0  0
 49 50  1  0  0  0
 50 51  1  0  0  0
 51 52  1  0  0  0
 52 53  1  0  0  0
 53 54  1  0  0  0
 54 55  1  0  0  0
 55 56  1  0  0  0
M  CHG 1  26  -1
M  END
> <minimizedAffinity>
-8.20825

> <CNNscore>
0.2941017151

> <CNNaffinity>
7.2997078896

> <CNN_VS>
2.1468565464

> <CNNaffinity_variance>
0.9185758829

$$$$
/media/chris/experiments/cd1a-new-docking/inputs/ligands/7sh4_ligand.pdb


 56 55  0  0  0  0  0  0  0  0999 V2000
  -41.7951   59.9666   66.2171 C   0  0  0  0  0  0  0  0  0  0  0  0
  -42.2295   61.3611   65.8644 C   0  0  0  0  0  0  0  0  0  0  0  0
  -43.5893   61.1985   65.4088 O   0  0  0  0  0  0  0  0  0  0  0  0
  -44.9995   61.9892   63.8644 O   0  0  0  0  0  0  0  0  0  0  0  0
  -43.8867   61.6922   64.2065 C   0  0  0  0  0  0  0  0  0  0  0  0
  -42.6449   61.9406   63.3997 C   0  0  0  0  0  0  0  0  0  0  0  0
  -42.5367   61.0858   62.1482 C   0  0  0  0  0  0  0  0  0  0  0  0
  -41.1156   60.9693   61.6388 C   0  0  0  0  0  0  0  0  0  0  0  0
  -41.0099   60.5761   60.1827 C   0  0  0  0  0  0  0  0  0  0  0  0
  -39.6507   60.0150   59.8169 C   0  0  0  0  0  0  0  0  0  0  0  0
  -39.7028   58.5733   59.3739 C   0  0  0  0  0  0  0  0  0  0  0  0
  -41.0833   57.9789   59.4663 C   0  0  0  0  0  0  0  0  0  0  0  0
  -41.1775   56.8291   60.4447 C   0  0  0  0  0  0  0  0  0  0  0  0
  -41.6523   57.2650   61.8162 C   0  0  0  0  0  0  0  0  0  0  0  0
  -40.6666   56.9815   62.9304 C   0  0  0  0  0  0  0  0  0  0  0  0
  -39.5607   58.0234   63.0544 C   0  0  0  0  0  0  0  0  0  0  0  0
  -38.1633   57.4360   63.1041 C   0  0  0  0  0  0  0  0  0  0  0  0
  -37.2507   57.9603   62.0143 C   0  0  0  0  0  0  0  0  0  0  0  0
  -35.9018   58.4437   62.5282 C   0  0  0  0  0  0  0  0  0  0  0  0
  -35.4031   57.6773   63.7402 C   0  0  0  0  0  0  0  0  0  0  0  0
  -33.0447   58.5485   63.8618 C   0  0  0  0  0  0  0  0  0  0  0  0
  -34.3708   58.4114   64.5748 C   0  0  0  0  0  0  0  0  0  0  0  0
  -40.3060   59.7837   66.0720 C   0  0  0  0  0  0  0  0  0  0  0  0
  -39.7080   61.0630   65.7654 O   0  0  0  0  0  0  0  0  0  0  0  0
  -38.2293   61.2089   65.1703 P   0  0  0  0  0  0  0  0  0  0  0  0
  -37.5083   59.9421   65.4194 O   0  0  0  0  0  0  0  0  0  0  0  0
  -38.3394   61.7037   63.7768 O   0  0  0  0  0  0  0  0  0  0  0  0
  -38.7606   61.0259   63.2254 H   0  0  0  0  0  0  0  0  0  0  0  0
  -37.5339   62.3492   66.0415 O   0  0  0  0  0  0  0  0  0  0  0  0
  -36.3837   63.0503   65.5264 C   0  0  0  0  0  0  0  0  0  0  0  0
  -36.0901   62.9884   67.9039 O   0  0  0  0  0  0  0  0  0  0  0  0
  -35.5633   63.5410   66.6940 C   0  0  0  0  0  0  0  0  0  0  0  0
  -37.0293   63.2182   67.9823 H   0  0  0  0  0  0  0  0  0  0  0  0
  -33.4208   63.3797   67.7903 O   0  0  0  0  0  0  0  0  0  0  0  0
  -34.1007   63.1928   66.5556 C   0  0  0  0  0  0  0  0  0  0  0  0
  -32.4843   63.1513   67.6815 H   0  0  0  0  0  0  0  0  0  0  0  0
  -42.5409   59.0244   65.3770 O   0  0  0  0  0  0  0  0  0  0  0  0
  -42.5635   57.4114   66.9446 O   0  0  0  0  0  0  0  0  0  0  0  0
  -43.0572   57.9398   65.9861 C   0  0  0  0  0  0  0  0  0  0  0  0
  -44.3275   57.4841   65.3375 C   0  0  0  0  0  0  0  0  0  0  0  0
  -44.7956   58.4699   64.2717 C   0  0  0  0  0  0  0  0  0  0  0  0
  -46.2604   58.8572   64.3912 C   0  0  0  0  0  0  0  0  0  0  0  0
  -46.9240   58.3472   65.6652 C   0  0  0  0  0  0  0  0  0  0  0  0
  -47.5589   59.4370   66.5089 C   0  0  0  0  0  0  0  0  0  0  0  0
  -48.6373   60.2522   65.7895 C   0  0  0  0  0  0  0  0  0  0  0  0
  -50.0285   59.6157   65.7667 C   0  0  0  0  0  0  0  0  0  0  0  0
  -50.8394   60.0720   64.5910 C   0  0  0  0  0  0  0  0  0  0  0  0
  -50.8658   59.5231   63.3921 C   0  0  0  0  0  0  0  0  0  0  0  0
  -50.0883   58.3223   62.9537 C   0  0  0  0  0  0  0  0  0  0  0  0
  -49.0357   58.6620   61.9025 C   0  0  0  0  0  0  0  0  0  0  0  0
  -49.6048   59.3328   60.6646 C   0  0  0  0  0  0  0  0  0  0  0  0
  -49.3835   58.5426   59.3864 C   0  0  0  0  0  0  0  0  0  0  0  0
  -48.9207   57.1114   59.6031 C   0  0  0  0  0  0  0  0  0  0  0  0
  -47.5828   56.8019   58.9490 C   0  0  0  0  0  0  0  0  0  0  0  0
  -47.5469   57.0570   57.4552 C   0  0  0  0  0  0  0  0  0  0  0  0
  -46.8682   58.3511   57.1025 C   0  0  0  0  0  0  0  0  0  0  0  0
 21 22  1  0  0  0
  4  5  2  0  0  0
 25 24  1  0  0  0
 25 26  2  0  0  0
 25 27  1  0  0  0
 25 29  1  0  0  0
 22 20  1  0  0  0
  3  5  1  0  0  0
  3  2  1  0  0  0
 20 19  1  0  0  0
 24 23  1  0  0  0
 19 18  1  0  0  0
 18 17  1  0  0  0
 27 28  1  0  0  0
 17 16  1  0  0  0
 29 30  1  0  0  0
 16 15  1  0  0  0
 34 35  1  0  0  0
 34 36  1  0  0  0
 15 14  1  0  0  0
 31 32  1  0  0  0
 31 33  1  0  0  0
 14 13  1  0  0  0
 37  1  1  0  0  0
 37 39  1  0  0  0
 13 12  1  0  0  0
 38 39  2  0  0  0
 12 11  1  0  0  0
 11 10  1  0  0  0
 10  9  1  0  0  0
  9  8  1  0  0  0
  8  7  1  0  0  0
  7  6  1  0  0  0
  6  5  1  0  0  0
  2  1  1  0  0  0
  1 23  1  0  0  0
 30 32  1  0  0  0
 32 35  1  0  0  0
 39 40  1  0  0  0
 40 41  1  0  0  0
 41 42  1  0  0  0
 42 43  1  0  0  0
 43 44  1  0  0  0
 44 45  1  0  0  0
 45 46  1  0  0  0
 46 47  1  0  0  0
 47 48  2  0  0  0
 48 49  1  0  0  0
 49 50  1  0  0  0
 50 51  1  0  0  0
 51 52  1  0  0  0
 52 53  1  0  0  0
 53 54  1  0  0  0
 54 55  1  0  0  0
 55 56  1  0  0  0
M  CHG 1  26  -1
M  END
> <minimizedAffinity>
-8.68985

> <CNNscore>
0.2474496961

> <CNNaffinity>
7.4164352417

> <CNN_VS>
1.8351945877

> <CNNaffinity_variance>
2.0420598984

$$$$
/media/chris/experiments/cd1a-new-docking/inputs/ligands/7sh4_ligand.pdb


 56 55  0  0  0  0  0  0  0  0999 V2000
  -46.2142   59.6311   64.9856 C   0  0  0  0  0  0  0  0  0  0  0  0
  -45.0874   60.5432   65.3805 C   0  0  0  0  0  0  0  0  0  0  0  0
  -44.6617   61.1324   64.1336 O   0  0  0  0  0  0  0  0  0  0  0  0
  -42.8412   62.0016   65.0978 O   0  0  0  0  0  0  0  0  0  0  0  0
  -43.4496   61.6875   64.1105 C   0  0  0  0  0  0  0  0  0  0  0  0
  -42.9070   61.7475   62.7116 C   0  0  0  0  0  0  0  0  0  0  0  0
  -42.0636   60.5455   62.3211 C   0  0  0  0  0  0  0  0  0  0  0  0
  -40.5938   60.7350   62.6313 C   0  0  0  0  0  0  0  0  0  0  0  0
  -40.0920   59.8995   63.7871 C   0  0  0  0  0  0  0  0  0  0  0  0
  -39.4722   60.7288   64.8936 C   0  0  0  0  0  0  0  0  0  0  0  0
  -38.3408   60.0243   65.6014 C   0  0  0  0  0  0  0  0  0  0  0  0
  -37.0337   60.7657   65.5047 C   0  0  0  0  0  0  0  0  0  0  0  0
  -37.1463   62.0887   64.7800 C   0  0  0  0  0  0  0  0  0  0  0  0
  -36.5581   63.2405   65.5699 C   0  0  0  0  0  0  0  0  0  0  0  0
  -35.6577   62.8121   66.7097 C   0  0  0  0  0  0  0  0  0  0  0  0
  -34.1862   63.1443   66.4905 C   0  0  0  0  0  0  0  0  0  0  0  0
  -33.9334   64.5826   66.0814 C   0  0  0  0  0  0  0  0  0  0  0  0
  -33.0793   64.7134   64.8369 C   0  0  0  0  0  0  0  0  0  0  0  0
  -32.9047   63.4061   64.0765 C   0  0  0  0  0  0  0  0  0  0  0  0
  -33.9331   63.1995   62.9790 C   0  0  0  0  0  0  0  0  0  0  0  0
  -35.9158   64.4997   62.1337 C   0  0  0  0  0  0  0  0  0  0  0  0
  -34.4147   64.4741   62.3122 C   0  0  0  0  0  0  0  0  0  0  0  0
  -47.4257   59.8151   65.8633 C   0  0  0  0  0  0  0  0  0  0  0  0
  -48.5352   60.2411   65.0411 O   0  0  0  0  0  0  0  0  0  0  0  0
  -49.8778   59.3838   64.8844 P   0  0  0  0  0  0  0  0  0  0  0  0
  -49.6537   58.0631   65.5107 O   0  0  0  0  0  0  0  0  0  0  0  0
  -51.0126   60.2130   65.3572 O   0  0  0  0  0  0  0  0  0  0  0  0
  -50.9272   60.3638   66.3116 H   0  0  0  0  0  0  0  0  0  0  0  0
  -50.0552   59.1597   63.3156 O   0  0  0  0  0  0  0  0  0  0  0  0
  -48.9410   58.7037   62.5215 C   0  0  0  0  0  0  0  0  0  0  0  0
  -50.8441   57.7678   61.4058 O   0  0  0  0  0  0  0  0  0  0  0  0
  -49.4767   58.1478   61.2249 C   0  0  0  0  0  0  0  0  0  0  0  0
  -50.9101   57.1374   62.1401 H   0  0  0  0  0  0  0  0  0  0  0  0
  -49.6354   60.4515   60.5278 O   0  0  0  0  0  0  0  0  0  0  0  0
  -49.3553   59.1299   60.0845 C   0  0  0  0  0  0  0  0  0  0  0  0
  -49.5524   61.0669   59.7826 H   0  0  0  0  0  0  0  0  0  0  0  0
  -45.7241   58.2496   65.0216 O   0  0  0  0  0  0  0  0  0  0  0  0
  -45.7968   57.6271   67.1819 O   0  0  0  0  0  0  0  0  0  0  0  0
  -45.1730   57.8272   66.1757 C   0  0  0  0  0  0  0  0  0  0  0  0
  -43.6957   57.6197   66.0484 C   0  0  0  0  0  0  0  0  0  0  0  0
  -43.2728   57.4933   64.5883 C   0  0  0  0  0  0  0  0  0  0  0  0
  -42.3822   56.2945   64.3062 C   0  0  0  0  0  0  0  0  0  0  0  0
  -41.0779   56.6555   63.6047 C   0  0  0  0  0  0  0  0  0  0  0  0
  -40.9930   56.1672   62.1706 C   0  0  0  0  0  0  0  0  0  0  0  0
  -41.6099   57.1147   61.1378 C   0  0  0  0  0  0  0  0  0  0  0  0
  -40.8214   57.2606   59.8346 C   0  0  0  0  0  0  0  0  0  0  0  0
  -40.5689   58.6965   59.4847 C   0  0  0  0  0  0  0  0  0  0  0  0
  -39.4001   59.3071   59.4597 C   0  0  0  0  0  0  0  0  0  0  0  0
  -38.0746   58.6893   59.7757 C   0  0  0  0  0  0  0  0  0  0  0  0
  -37.6542   58.9218   61.2241 C   0  0  0  0  0  0  0  0  0  0  0  0
  -37.5658   57.6472   62.0450 C   0  0  0  0  0  0  0  0  0  0  0  0
  -36.7362   57.7922   63.3091 C   0  0  0  0  0  0  0  0  0  0  0  0
  -35.2422   57.6016   63.1070 C   0  0  0  0  0  0  0  0  0  0  0  0
  -34.4513   58.8992   63.1754 C   0  0  0  0  0  0  0  0  0  0  0  0
  -32.9666   58.7371   62.9161 C   0  0  0  0  0  0  0  0  0  0  0  0
  -32.3636   59.9282   62.2252 C   0  0  0  0  0  0  0  0  0  0  0  0
 21 22  1  0  0  0
  4  5  2  0  0  0
 25 24  1  0  0  0
 25 26  2  0  0  0
 25 27  1  0  0  0
 25 29  1  0  0  0
 22 20  1  0  0  0
  3  5  1  0  0  0
  3  2  1  0  0  0
 20 19  1  0  0  0
 24 23  1  0  0  0
 19 18  1  0  0  0
 18 17  1  0  0  0
 27 28  1  0  0  0
 17 16  1  0  0  0
 29 30  1  0  0  0
 16 15  1  0  0  0
 34 35  1  0  0  0
 34 36  1  0  0  0
 15 14  1  0  0  0
 31 32  1  0  0  0
 31 33  1  0  0  0
 14 13  1  0  0  0
 37  1  1  0  0  0
 37 39  1  0  0  0
 13 12  1  0  0  0
 38 39  2  0  0  0
 12 11  1  0  0  0
 11 10  1  0  0  0
 10  9  1  0  0  0
  9  8  1  0  0  0
  8  7  1  0  0  0
  7  6  1  0  0  0
  6  5  1  0  0  0
  2  1  1  0  0  0
  1 23  1  0  0  0
 30 32  1  0  0  0
 32 35  1  0  0  0
 39 40  1  0  0  0
 40 41  1  0  0  0
 41 42  1  0  0  0
 42 43  1  0  0  0
 43 44  1  0  0  0
 44 45  1  0  0  0
 45 46  1  0  0  0
 46 47  1  0  0  0
 47 48  2  0  0  0
 48 49  1  0  0  0
 49 50  1  0  0  0
 50 51  1  0  0  0
 51 52  1  0  0  0
 52 53  1  0  0  0
 53 54  1  0  0  0
 54 55  1  0  0  0
 55 56  1  0  0  0
M  CHG 1  26  -1
M  END
> <minimizedAffinity>
-7.28470

> <CNNscore>
0.2443719059

> <CNNaffinity>
7.3826889992

> <CNN_VS>
1.8041217327

> <CNNaffinity_variance>
1.7794380188

$$$$
/media/chris/experiments/cd1a-new-docking/inputs/ligands/7sh4_ligand.pdb


 56 55  0  0  0  0  0  0  0  0999 V2000
  -38.7495   61.2198   62.2758 C   0  0  0  0  0  0  0  0  0  0  0  0
  -38.1301   59.9530   61.7569 C   0  0  0  0  0  0  0  0  0  0  0  0
  -38.1215   60.1298   60.3245 O   0  0  0  0  0  0  0  0  0  0  0  0
  -38.1312   58.8751   58.4739 O   0  0  0  0  0  0  0  0  0  0  0  0
  -38.5284   59.0971   59.5858 C   0  0  0  0  0  0  0  0  0  0  0  0
  -39.4387   58.1953   60.3689 C   0  0  0  0  0  0  0  0  0  0  0  0
  -40.8874   58.2274   59.9118 C   0  0  0  0  0  0  0  0  0  0  0  0
  -41.8012   57.4123   60.8023 C   0  0  0  0  0  0  0  0  0  0  0  0
  -41.2368   56.0687   61.2047 C   0  0  0  0  0  0  0  0  0  0  0  0
  -41.0930   55.9109   62.7050 C   0  0  0  0  0  0  0  0  0  0  0  0
  -41.8761   56.9363   63.4879 C   0  0  0  0  0  0  0  0  0  0  0  0
  -41.0319   57.6867   64.4838 C   0  0  0  0  0  0  0  0  0  0  0  0
  -39.5536   57.6506   64.1654 C   0  0  0  0  0  0  0  0  0  0  0  0
  -38.7331   58.5209   65.0960 C   0  0  0  0  0  0  0  0  0  0  0  0
  -37.2507   58.2115   65.0847 C   0  0  0  0  0  0  0  0  0  0  0  0
  -36.7565   57.6126   63.7729 C   0  0  0  0  0  0  0  0  0  0  0  0
  -35.2528   57.6860   63.5898 C   0  0  0  0  0  0  0  0  0  0  0  0
  -34.5574   58.5186   64.6475 C   0  0  0  0  0  0  0  0  0  0  0  0
  -33.0382   58.4646   64.5653 C   0  0  0  0  0  0  0  0  0  0  0  0
  -32.4966   58.7026   63.1671 C   0  0  0  0  0  0  0  0  0  0  0  0
  -31.3862   60.5018   61.8011 C   0  0  0  0  0  0  0  0  0  0  0  0
  -32.5451   60.1466   62.7048 C   0  0  0  0  0  0  0  0  0  0  0  0
  -37.7358   62.1141   62.9423 C   0  0  0  0  0  0  0  0  0  0  0  0
  -37.9687   62.0991   64.3684 O   0  0  0  0  0  0  0  0  0  0  0  0
  -36.7822   62.1510   65.4416 P   0  0  0  0  0  0  0  0  0  0  0  0
  -37.2985   61.6189   66.7211 O   0  0  0  0  0  0  0  0  0  0  0  0
  -35.5855   61.5170   64.8376 O   0  0  0  0  0  0  0  0  0  0  0  0
  -35.7540   60.5713   64.7028 H   0  0  0  0  0  0  0  0  0  0  0  0
  -36.4651   63.7003   65.6462 O   0  0  0  0  0  0  0  0  0  0  0  0
  -35.8700   64.1585   66.8774 C   0  0  0  0  0  0  0  0  0  0  0  0
  -33.7474   63.0526   66.9960 O   0  0  0  0  0  0  0  0  0  0  0  0
  -34.3819   64.2916   66.6658 C   0  0  0  0  0  0  0  0  0  0  0  0
  -33.9764   62.8043   67.9053 H   0  0  0  0  0  0  0  0  0  0  0  0
  -33.5235   63.5844   64.5255 O   0  0  0  0  0  0  0  0  0  0  0  0
  -34.0359   64.6938   65.2522 C   0  0  0  0  0  0  0  0  0  0  0  0
  -33.3074   63.8620   63.6214 H   0  0  0  0  0  0  0  0  0  0  0  0
  -39.8384   60.8604   63.1896 O   0  0  0  0  0  0  0  0  0  0  0  0
  -41.3940   61.1958   61.5998 O   0  0  0  0  0  0  0  0  0  0  0  0
  -41.0954   61.0766   62.7566 C   0  0  0  0  0  0  0  0  0  0  0  0
  -42.0758   61.1318   63.8869 C   0  0  0  0  0  0  0  0  0  0  0  0
  -43.4109   60.5037   63.4998 C   0  0  0  0  0  0  0  0  0  0  0  0
  -44.6211   61.2405   64.0495 C   0  0  0  0  0  0  0  0  0  0  0  0
  -45.4813   60.3921   64.9791 C   0  0  0  0  0  0  0  0  0  0  0  0
  -46.9549   60.3817   64.6178 C   0  0  0  0  0  0  0  0  0  0  0  0
  -47.9016   60.2125   65.8095 C   0  0  0  0  0  0  0  0  0  0  0  0
  -48.9991   59.1623   65.6258 C   0  0  0  0  0  0  0  0  0  0  0  0
  -50.3713   59.7649   65.6733 C   0  0  0  0  0  0  0  0  0  0  0  0
  -51.0740   60.2048   64.6476 C   0  0  0  0  0  0  0  0  0  0  0  0
  -50.6460   60.1923   63.2141 C   0  0  0  0  0  0  0  0  0  0  0  0
  -51.0167   58.8919   62.5069 C   0  0  0  0  0  0  0  0  0  0  0  0
  -49.8826   57.8834   62.4520 C   0  0  0  0  0  0  0  0  0  0  0  0
  -49.6929   57.2528   61.0833 C   0  0  0  0  0  0  0  0  0  0  0  0
  -50.3754   57.9965   59.9473 C   0  0  0  0  0  0  0  0  0  0  0  0
  -49.5629   58.0158   58.6615 C   0  0  0  0  0  0  0  0  0  0  0  0
  -48.0631   58.0721   58.8742 C   0  0  0  0  0  0  0  0  0  0  0  0
  -47.2952   58.1439   57.5839 C   0  0  0  0  0  0  0  0  0  0  0  0
 21 22  1  0  0  0
  4  5  2  0  0  0
 25 24  1  0  0  0
 25 26  2  0  0  0
 25 27  1  0  0  0
 25 29  1  0  0  0
 22 20  1  0  0  0
  3  5  1  0  0  0
  3  2  1  0  0  0
 20 19  1  0  0  0
 24 23  1  0  0  0
 19 18  1  0  0  0
 18 17  1  0  0  0
 27 28  1  0  0  0
 17 16  1  0  0  0
 29 30  1  0  0  0
 16 15  1  0  0  0
 34 35  1  0  0  0
 34 36  1  0  0  0
 15 14  1  0  0  0
 31 32  1  0  0  0
 31 33  1  0  0  0
 14 13  1  0  0  0
 37  1  1  0  0  0
 37 39  1  0  0  0
 13 12  1  0  0  0
 38 39  2  0  0  0
 12 11  1  0  0  0
 11 10  1  0  0  0
 10  9  1  0  0  0
  9  8  1  0  0  0
  8  7  1  0  0  0
  7  6  1  0  0  0
  6  5  1  0  0  0
  2  1  1  0  0  0
  1 23  1  0  0  0
 30 32  1  0  0  0
 32 35  1  0  0  0
 39 40  1  0  0  0
 40 41  1  0  0  0
 41 42  1  0  0  0
 42 43  1  0  0  0
 43 44  1  0  0  0
 44 45  1  0  0  0
 45 46  1  0  0  0
 46 47  1  0  0  0
 47 48  2  0  0  0
 48 49  1  0  0  0
 49 50  1  0  0  0
 50 51  1  0  0  0
 51 52  1  0  0  0
 52 53  1  0  0  0
 53 54  1  0  0  0
 54 55  1  0  0  0
 55 56  1  0  0  0
M  CHG 1  26  -1
M  END
> <minimizedAffinity>
-8.53665

> <CNNscore>
0.2190817446

> <CNNaffinity>
7.1130304337

> <CNN_VS>
1.5583350658

> <CNNaffinity_variance>
0.8344265223

$$$$
