/media/chris/experiments/cd1a-new-docking/inputs/ligands/7sh4_ligand.pdb


 56 55  0  0  0  0  0  0  0  0999 V2000
  -40.4440   59.4589   65.3385 C   0  0  0  0  0  0  0  0  0  0  0  0
  -41.7350   59.4041   66.1053 C   0  0  0  0  0  0  0  0  0  0  0  0
  -41.9696   57.9925   66.2936 O   0  0  0  0  0  0  0  0  0  0  0  0
  -44.1209   57.7301   66.8436 O   0  0  0  0  0  0  0  0  0  0  0  0
  -43.2102   57.5526   66.0803 C   0  0  0  0  0  0  0  0  0  0  0  0
  -43.3379   56.9271   64.7211 C   0  0  0  0  0  0  0  0  0  0  0  0
  -42.1211   56.1261   64.2900 C   0  0  0  0  0  0  0  0  0  0  0  0
  -41.4376   56.7086   63.0709 C   0  0  0  0  0  0  0  0  0  0  0  0
  -41.2128   55.7155   61.9532 C   0  0  0  0  0  0  0  0  0  0  0  0
  -41.1635   56.3637   60.5845 C   0  0  0  0  0  0  0  0  0  0  0  0
  -41.6840   57.7802   60.5791 C   0  0  0  0  0  0  0  0  0  0  0  0
  -41.0479   58.6369   59.5166 C   0  0  0  0  0  0  0  0  0  0  0  0
  -40.6920   60.0258   59.9986 C   0  0  0  0  0  0  0  0  0  0  0  0
  -39.2898   60.1064   60.5676 C   0  0  0  0  0  0  0  0  0  0  0  0
  -38.2867   59.2132   59.8681 C   0  0  0  0  0  0  0  0  0  0  0  0
  -37.4751   58.3378   60.8162 C   0  0  0  0  0  0  0  0  0  0  0  0
  -38.0335   58.2725   62.2249 C   0  0  0  0  0  0  0  0  0  0  0  0
  -37.0185   57.8197   63.2543 C   0  0  0  0  0  0  0  0  0  0  0  0
  -35.5938   57.7599   62.7212 C   0  0  0  0  0  0  0  0  0  0  0  0
  -34.5374   58.0238   63.7795 C   0  0  0  0  0  0  0  0  0  0  0  0
  -33.0141   59.7886   62.8305 C   0  0  0  0  0  0  0  0  0  0  0  0
  -33.1574   58.3387   63.2341 C   0  0  0  0  0  0  0  0  0  0  0  0
  -39.5235   60.5345   65.8556 C   0  0  0  0  0  0  0  0  0  0  0  0
  -38.2325   60.3854   65.2235 O   0  0  0  0  0  0  0  0  0  0  0  0
  -37.4365   61.6139   64.5763 P   0  0  0  0  0  0  0  0  0  0  0  0
  -36.0769   61.1469   64.2296 O   0  0  0  0  0  0  0  0  0  0  0  0
  -38.2819   62.2006   63.5088 O   0  0  0  0  0  0  0  0  0  0  0  0
  -38.3786   61.5618   62.7851 H   0  0  0  0  0  0  0  0  0  0  0  0
  -37.3026   62.6923   65.7433 O   0  0  0  0  0  0  0  0  0  0  0  0
  -36.3388   63.7594   65.6326 C   0  0  0  0  0  0  0  0  0  0  0  0
  -36.1330   63.0256   67.9045 O   0  0  0  0  0  0  0  0  0  0  0  0
  -35.4626   63.7384   66.8609 C   0  0  0  0  0  0  0  0  0  0  0  0
  -36.9991   63.4308   68.0682 H   0  0  0  0  0  0  0  0  0  0  0  0
  -33.2511   63.2883   67.7121 O   0  0  0  0  0  0  0  0  0  0  0  0
  -34.1113   63.1206   66.5926 C   0  0  0  0  0  0  0  0  0  0  0  0
  -32.3895   62.8857   67.5211 H   0  0  0  0  0  0  0  0  0  0  0  0
  -40.7580   59.6510   63.9192 O   0  0  0  0  0  0  0  0  0  0  0  0
  -41.2340   61.8235   63.5811 O   0  0  0  0  0  0  0  0  0  0  0  0
  -41.5779   60.6733   63.6082 C   0  0  0  0  0  0  0  0  0  0  0  0
  -42.9617   60.2029   63.2829 C   0  0  0  0  0  0  0  0  0  0  0  0
  -44.0106   61.2385   63.6751 C   0  0  0  0  0  0  0  0  0  0  0  0
  -44.7032   60.9447   64.9957 C   0  0  0  0  0  0  0  0  0  0  0  0
  -46.0356   60.2209   64.8378 C   0  0  0  0  0  0  0  0  0  0  0  0
  -46.7121   59.8799   66.1524 C   0  0  0  0  0  0  0  0  0  0  0  0
  -48.2378   60.0104   66.1360 C   0  0  0  0  0  0  0  0  0  0  0  0
  -48.8707   60.0820   64.7447 C   0  0  0  0  0  0  0  0  0  0  0  0
  -50.3642   60.1972   64.8087 C   0  0  0  0  0  0  0  0  0  0  0  0
  -51.2094   60.0420   63.8082 C   0  0  0  0  0  0  0  0  0  0  0  0
  -50.8514   59.7150   62.3928 C   0  0  0  0  0  0  0  0  0  0  0  0
  -50.9564   58.2220   62.0956 C   0  0  0  0  0  0  0  0  0  0  0  0
  -49.8793   57.7107   61.1551 C   0  0  0  0  0  0  0  0  0  0  0  0
  -50.0562   58.1697   59.7180 C   0  0  0  0  0  0  0  0  0  0  0  0
  -49.0925   57.5331   58.7305 C   0  0  0  0  0  0  0  0  0  0  0  0
  -47.9178   58.4287   58.3675 C   0  0  0  0  0  0  0  0  0  0  0  0
  -46.9490   57.8132   57.3774 C   0  0  0  0  0  0  0  0  0  0  0  0
  -47.1884   56.3442   57.1662 C   0  0  0  0  0  0  0  0  0  0  0  0
 21 22  1  0  0  0
  4  5  2  0  0  0
 25 24  1  0  0  0
 25 26  2  0  0  0
 25 27  1  0  0  0
 25 29  1  0  0  0
 22 20  1  0  0  0
  3  5  1  0  0  0
  3  2  1  0  0  0
 20 19  1  0  0  0
 24 23  1  0  0  0
 19 18  1  0  0  0
 18 17  1  0  0  0
 27 28  1  0  0  0
 17 16  1  0  0  0
 29 30  1  0  0  0
 16 15  1  0  0  0
 34 35  1  0  0  0
 34 36  1  0  0  0
 15 14  1  0  0  0
 31 32  1  0  0  0
 31 33  1  0  0  0
 14 13  1  0  0  0
 37  1  1  0  0  0
 37 39  1  0  0  0
 13 12  1  0  0  0
 38 39  2  0  0  0
 12 11  1  0  0  0
 11 10  1  0  0  0
 10  9  1  0  0  0
  9  8  1  0  0  0
  8  7  1  0  0  0
  7  6  1  0  0  0
  6  5  1  0  0  0
  2  1  1  0  0  0
  1 23  1  0  0  0
 30 32  1  0  0  0
 32 35  1  0  0  0
 39 40  1  0  0  0
 40 41  1  0  0  0
 41 42  1  0  0  0
 42 43  1  0  0  0
 43 44  1  0  0  0
 44 45  1  0  0  0
 45 46  1  0  0  0
 46 47  1  0  0  0
 47 48  2  0  0  0
 48 49  1  0  0  0
 49 50  1  0  0  0
 50 51  1  0  0  0
 51 52  1  0  0  0
 52 53  1  0  0  0
 53 54  1  0  0  0
 54 55  1  0  0  0
 55 56  1  0  0  0
M  CHG 1  26  -1
M  END
> <minimizedAffinity>
-9.04714

> <CNNscore>
0.6214090586

> <CNNaffinity>
7.7701406479

> <CNN_VS>
4.8284358978

> <CNNaffinity_variance>
1.4750999212

$$$$
/media/chris/experiments/cd1a-new-docking/inputs/ligands/7sh4_ligand.pdb


 56 55  0  0  0  0  0  0  0  0999 V2000
  -40.7554   60.2417   65.2511 C   0  0  0  0  0  0  0  0  0  0  0  0
  -41.2605   58.8999   65.7004 C   0  0  0  0  0  0  0  0  0  0  0  0
  -41.5054   58.1886   64.4686 O   0  0  0  0  0  0  0  0  0  0  0  0
  -42.2682   56.0887   64.5577 O   0  0  0  0  0  0  0  0  0  0  0  0
  -42.4722   57.2704   64.4832 C   0  0  0  0  0  0  0  0  0  0  0  0
  -43.8294   57.9120   64.5214 C   0  0  0  0  0  0  0  0  0  0  0  0
  -44.6971   57.4595   65.6835 C   0  0  0  0  0  0  0  0  0  0  0  0
  -45.9604   58.2819   65.8269 C   0  0  0  0  0  0  0  0  0  0  0  0
  -46.5370   58.7649   64.5153 C   0  0  0  0  0  0  0  0  0  0  0  0
  -46.7256   60.2676   64.4678 C   0  0  0  0  0  0  0  0  0  0  0  0
  -48.1759   60.6848   64.4754 C   0  0  0  0  0  0  0  0  0  0  0  0
  -48.9477   60.1095   65.6334 C   0  0  0  0  0  0  0  0  0  0  0  0
  -50.2068   59.3835   65.2143 C   0  0  0  0  0  0  0  0  0  0  0  0
  -51.1272   60.2455   64.3740 C   0  0  0  0  0  0  0  0  0  0  0  0
  -51.5094   59.6283   63.0450 C   0  0  0  0  0  0  0  0  0  0  0  0
  -50.5322   58.5655   62.5557 C   0  0  0  0  0  0  0  0  0  0  0  0
  -49.8194   58.9300   61.2675 C   0  0  0  0  0  0  0  0  0  0  0  0
  -48.8201   57.8847   60.8159 C   0  0  0  0  0  0  0  0  0  0  0  0
  -48.8560   57.6131   59.3184 C   0  0  0  0  0  0  0  0  0  0  0  0
  -48.0093   58.5763   58.5057 C   0  0  0  0  0  0  0  0  0  0  0  0
  -47.1932   56.4431   57.4477 C   0  0  0  0  0  0  0  0  0  0  0  0
  -47.2833   57.9477   57.3313 C   0  0  0  0  0  0  0  0  0  0  0  0
  -39.2908   60.4263   65.5555 C   0  0  0  0  0  0  0  0  0  0  0  0
  -38.7064   61.2681   64.5365 O   0  0  0  0  0  0  0  0  0  0  0  0
  -37.2167   61.8447   64.6369 P   0  0  0  0  0  0  0  0  0  0  0  0
  -36.3638   60.8052   65.2523 O   0  0  0  0  0  0  0  0  0  0  0  0
  -36.8388   62.3809   63.3072 O   0  0  0  0  0  0  0  0  0  0  0  0
  -36.7778   61.6521   62.6700 H   0  0  0  0  0  0  0  0  0  0  0  0
  -37.3061   63.0711   65.6523 O   0  0  0  0  0  0  0  0  0  0  0  0
  -36.2228   64.0196   65.7351 C   0  0  0  0  0  0  0  0  0  0  0  0
  -36.1568   62.8080   67.8015 O   0  0  0  0  0  0  0  0  0  0  0  0
  -35.4241   63.7221   66.9803 C   0  0  0  0  0  0  0  0  0  0  0  0
  -37.0318   63.1784   67.9966 H   0  0  0  0  0  0  0  0  0  0  0  0
  -33.1552   63.4090   67.7366 O   0  0  0  0  0  0  0  0  0  0  0  0
  -34.0580   63.1609   66.6666 C   0  0  0  0  0  0  0  0  0  0  0  0
  -32.2847   63.0419   67.5169 H   0  0  0  0  0  0  0  0  0  0  0  0
  -41.5752   61.2793   65.8846 O   0  0  0  0  0  0  0  0  0  0  0  0
  -43.7429   60.7861   66.2285 O   0  0  0  0  0  0  0  0  0  0  0  0
  -42.8838   61.3021   65.5669 C   0  0  0  0  0  0  0  0  0  0  0  0
  -43.1405   62.0622   64.3026 C   0  0  0  0  0  0  0  0  0  0  0  0
  -43.2615   61.1275   63.1033 C   0  0  0  0  0  0  0  0  0  0  0  0
  -42.3123   61.4605   61.9641 C   0  0  0  0  0  0  0  0  0  0  0  0
  -41.2990   60.3594   61.6729 C   0  0  0  0  0  0  0  0  0  0  0  0
  -41.0019   60.1689   60.1971 C   0  0  0  0  0  0  0  0  0  0  0  0
  -41.0527   58.7147   59.7200 C   0  0  0  0  0  0  0  0  0  0  0  0
  -39.7791   58.2069   59.0408 C   0  0  0  0  0  0  0  0  0  0  0  0
  -38.5595   58.9476   59.5010 C   0  0  0  0  0  0  0  0  0  0  0  0
  -37.8417   58.6908   60.5772 C   0  0  0  0  0  0  0  0  0  0  0  0
  -38.0958   57.5989   61.5679 C   0  0  0  0  0  0  0  0  0  0  0  0
  -37.4736   57.8920   62.9300 C   0  0  0  0  0  0  0  0  0  0  0  0
  -35.9711   57.6758   62.9730 C   0  0  0  0  0  0  0  0  0  0  0  0
  -35.3886   57.7188   64.3752 C   0  0  0  0  0  0  0  0  0  0  0  0
  -33.9774   58.2770   64.4538 C   0  0  0  0  0  0  0  0  0  0  0  0
  -33.3093   58.4282   63.0956 C   0  0  0  0  0  0  0  0  0  0  0  0
  -32.0635   59.2917   63.1079 C   0  0  0  0  0  0  0  0  0  0  0  0
  -32.0155   60.2594   61.9586 C   0  0  0  0  0  0  0  0  0  0  0  0
 21 22  1  0  0  0
  4  5  2  0  0  0
 25 24  1  0  0  0
 25 26  2  0  0  0
 25 27  1  0  0  0
 25 29  1  0  0  0
 22 20  1  0  0  0
  3  5  1  0  0  0
  3  2  1  0  0  0
 20 19  1  0  0  0
 24 23  1  0  0  0
 19 18  1  0  0  0
 18 17  1  0  0  0
 27 28  1  0  0  0
 17 16  1  0  0  0
 29 30  1  0  0  0
 16 15  1  0  0  0
 34 35  1  0  0  0
 34 36  1  0  0  0
 15 14  1  0  0  0
 31 32  1  0  0  0
 31 33  1  0  0  0
 14 13  1  0  0  0
 37  1  1  0  0  0
 37 39  1  0  0  0
 13 12  1  0  0  0
 38 39  2  0  0  0
 12 11  1  0  0  0
 11 10  1  0  0  0
 10  9  1  0  0  0
  9  8  1  0  0  0
  8  7  1  0  0  0
  7  6  1  0  0  0
  6  5  1  0  0  0
  2  1  1  0  0  0
  1 23  1  0  0  0
 30 32  1  0  0  0
 32 35  1  0  0  0
 39 40  1  0  0  0
 40 41  1  0  0  0
 41 42  1  0  0  0
 42 43  1  0  0  0
 43 44  1  0  0  0
 44 45  1  0  0  0
 45 46  1  0  0  0
 46 47  1  0  0  0
 47 48  2  0  0  0
 48 49  1  0  0  0
 49 50  1  0  0  0
 50 51  1  0  0  0
 51 52  1  0  0  0
 52 53  1  0  0  0
 53 54  1  0  0  0
 54 55  1  0  0  0
 55 56  1  0  0  0
M  CHG 1  26  -1
M  END
> <minimizedAffinity>
-9.10359

> <CNNscore>
0.4389732182

> <CNNaffinity>
7.5272574425

> <CNN_VS>
3.3042643070

> <CNNaffinity_variance>
1.7188125849

$$$$
/media/chris/experiments/cd1a-new-docking/inputs/ligands/7sh4_ligand.pdb


 56 55  0  0  0  0  0  0  0  0999 V2000
  -40.7904   60.1826   65.0803 C   0  0  0  0  0  0  0  0  0  0  0  0
  -41.7257   60.2794   66.2523 C   0  0  0  0  0  0  0  0  0  0  0  0
  -42.2435   58.9400   66.3975 O   0  0  0  0  0  0  0  0  0  0  0  0
  -43.8911   57.6188   65.6631 O   0  0  0  0  0  0  0  0  0  0  0  0
  -43.4709   58.7127   65.9288 C   0  0  0  0  0  0  0  0  0  0  0  0
  -44.2832   59.9753   65.9001 C   0  0  0  0  0  0  0  0  0  0  0  0
  -45.7797   59.7536   66.0396 C   0  0  0  0  0  0  0  0  0  0  0  0
  -46.5281   59.9706   64.7412 C   0  0  0  0  0  0  0  0  0  0  0  0
  -48.0263   60.0935   64.9031 C   0  0  0  0  0  0  0  0  0  0  0  0
  -48.7023   58.7688   65.1932 C   0  0  0  0  0  0  0  0  0  0  0  0
  -50.2089   58.8519   65.1647 C   0  0  0  0  0  0  0  0  0  0  0  0
  -50.7159   60.1555   64.6070 C   0  0  0  0  0  0  0  0  0  0  0  0
  -51.5294   59.9916   63.3423 C   0  0  0  0  0  0  0  0  0  0  0  0
  -50.8524   59.0981   62.3227 C   0  0  0  0  0  0  0  0  0  0  0  0
  -49.7377   59.7740   61.5521 C   0  0  0  0  0  0  0  0  0  0  0  0
  -49.4396   59.1264   60.2046 C   0  0  0  0  0  0  0  0  0  0  0  0
  -50.1557   57.8079   59.9827 C   0  0  0  0  0  0  0  0  0  0  0  0
  -49.2853   56.5975   60.2517 C   0  0  0  0  0  0  0  0  0  0  0  0
  -47.9391   56.6444   59.5425 C   0  0  0  0  0  0  0  0  0  0  0  0
  -48.0254   56.3533   58.0548 C   0  0  0  0  0  0  0  0  0  0  0  0
  -47.0445   58.4660   57.1009 C   0  0  0  0  0  0  0  0  0  0  0  0
  -46.9141   56.9647   57.2228 C   0  0  0  0  0  0  0  0  0  0  0  0
  -39.3548   60.4049   65.4819 C   0  0  0  0  0  0  0  0  0  0  0  0
  -38.7869   61.4262   64.6317 O   0  0  0  0  0  0  0  0  0  0  0  0
  -37.2433   61.8452   64.6917 P   0  0  0  0  0  0  0  0  0  0  0  0
  -36.5158   60.8058   65.4514 O   0  0  0  0  0  0  0  0  0  0  0  0
  -36.7976   62.1634   63.3138 O   0  0  0  0  0  0  0  0  0  0  0  0
  -36.8126   61.3571   62.7747 H   0  0  0  0  0  0  0  0  0  0  0  0
  -37.2043   63.1932   65.5427 O   0  0  0  0  0  0  0  0  0  0  0  0
  -36.1343   64.1400   65.3459 C   0  0  0  0  0  0  0  0  0  0  0  0
  -36.2025   63.9503   67.7338 O   0  0  0  0  0  0  0  0  0  0  0  0
  -35.3424   64.2360   66.6268 C   0  0  0  0  0  0  0  0  0  0  0  0
  -36.9627   64.5527   67.7165 H   0  0  0  0  0  0  0  0  0  0  0  0
  -33.4171   63.4468   67.8467 O   0  0  0  0  0  0  0  0  0  0  0  0
  -34.1525   63.3067   66.6380 C   0  0  0  0  0  0  0  0  0  0  0  0
  -32.6581   62.8430   67.8353 H   0  0  0  0  0  0  0  0  0  0  0  0
  -41.2237   61.1457   64.0633 O   0  0  0  0  0  0  0  0  0  0  0  0
  -41.1132   61.2452   61.8187 O   0  0  0  0  0  0  0  0  0  0  0  0
  -41.4355   60.6688   62.8216 C   0  0  0  0  0  0  0  0  0  0  0  0
  -42.1026   59.3285   62.8422 C   0  0  0  0  0  0  0  0  0  0  0  0
  -41.1099   58.2057   62.5587 C   0  0  0  0  0  0  0  0  0  0  0  0
  -41.6443   57.1313   61.6260 C   0  0  0  0  0  0  0  0  0  0  0  0
  -40.9142   57.0658   60.2894 C   0  0  0  0  0  0  0  0  0  0  0  0
  -40.7524   58.4119   59.6081 C   0  0  0  0  0  0  0  0  0  0  0  0
  -39.5677   58.4980   58.6417 C   0  0  0  0  0  0  0  0  0  0  0  0
  -38.2093   58.7553   59.2973 C   0  0  0  0  0  0  0  0  0  0  0  0
  -38.3213   59.6450   60.4989 C   0  0  0  0  0  0  0  0  0  0  0  0
  -37.9130   59.3705   61.7226 C   0  0  0  0  0  0  0  0  0  0  0  0
  -37.2475   58.1070   62.1686 C   0  0  0  0  0  0  0  0  0  0  0  0
  -37.5753   57.7561   63.6170 C   0  0  0  0  0  0  0  0  0  0  0  0
  -36.3482   57.5796   64.4940 C   0  0  0  0  0  0  0  0  0  0  0  0
  -35.0362   57.7752   63.7538 C   0  0  0  0  0  0  0  0  0  0  0  0
  -33.9922   58.5686   64.5220 C   0  0  0  0  0  0  0  0  0  0  0  0
  -32.6474   58.6433   63.8151 C   0  0  0  0  0  0  0  0  0  0  0  0
  -32.4261   59.9229   63.0330 C   0  0  0  0  0  0  0  0  0  0  0  0
  -33.3760   61.0184   63.4296 C   0  0  0  0  0  0  0  0  0  0  0  0
 21 22  1  0  0  0
  4  5  2  0  0  0
 25 24  1  0  0  0
 25 26  2  0  0  0
 25 27  1  0  0  0
 25 29  1  0  0  0
 22 20  1  0  0  0
  3  5  1  0  0  0
  3  2  1  0  0  0
 20 19  1  0  0  0
 24 23  1  0  0  0
 19 18  1  0  0  0
 18 17  1  0  0  0
 27 28  1  0  0  0
 17 16  1  0  0  0
 29 30  1  0  0  0
 16 15  1  0  0  0
 34 35  1  0  0  0
 34 36  1  0  0  0
 15 14  1  0  0  0
 31 32  1  0  0  0
 31 33  1  0  0  0
 14 13  1  0  0  0
 37  1  1  0  0  0
 37 39  1  0  0  0
 13 12  1  0  0  0
 38 39  2  0  0  0
 12 11  1  0  0  0
 11 10  1  0  0  0
 10  9  1  0  0  0
  9  8  1  0  0  0
  8  7  1  0  0  0
  7  6  1  0  0  0
  6  5  1  0  0  0
  2  1  1  0  0  0
  1 23  1  0  0  0
 30 32  1  0  0  0
 32 35  1  0  0  0
 39 40  1  0  0  0
 40 41  1  0  0  0
 41 42  1  0  0  0
 42 43  1  0  0  0
 43 44  1  0  0  0
 44 45  1  0  0  0
 45 46  1  0  0  0
 46 47  1  0  0  0
 47 48  2  0  0  0
 48 49  1  0  0  0
 49 50  1  0  0  0
 50 51  1  0  0  0
 51 52  1  0  0  0
 52 53  1  0  0  0
 53 54  1  0  0  0
 54 55  1  0  0  0
 55 56  1  0  0  0
M  CHG 1  26  -1
M  END
> <minimizedAffinity>
-8.94495

> <CNNscore>
0.3721087575

> <CNNaffinity>
7.3744101524

> <CNN_VS>
2.7440826893

> <CNNaffinity_variance>
1.3867905140

$$$$
/media/chris/experiments/cd1a-new-docking/inputs/ligands/7sh4_ligand.pdb


 56 55  0  0  0  0  0  0  0  0999 V2000
  -42.0281   57.7808   65.1043 C   0  0  0  0  0  0  0  0  0  0  0  0
  -41.5329   56.4390   64.6437 C   0  0  0  0  0  0  0  0  0  0  0  0
  -42.2306   56.2174   63.3999 O   0  0  0  0  0  0  0  0  0  0  0  0
  -40.8457   55.1600   61.9988 O   0  0  0  0  0  0  0  0  0  0  0  0
  -41.4865   56.1316   62.2968 C   0  0  0  0  0  0  0  0  0  0  0  0
  -41.6578   57.3465   61.4309 C   0  0  0  0  0  0  0  0  0  0  0  0
  -41.0922   57.1940   60.0291 C   0  0  0  0  0  0  0  0  0  0  0  0
  -40.5020   58.4807   59.4919 C   0  0  0  0  0  0  0  0  0  0  0  0
  -39.0626   58.3623   59.0443 C   0  0  0  0  0  0  0  0  0  0  0  0
  -38.0758   58.8543   60.0836 C   0  0  0  0  0  0  0  0  0  0  0  0
  -38.0889   58.0342   61.3503 C   0  0  0  0  0  0  0  0  0  0  0  0
  -36.8892   58.2839   62.2255 C   0  0  0  0  0  0  0  0  0  0  0  0
  -37.0982   57.8665   63.6642 C   0  0  0  0  0  0  0  0  0  0  0  0
  -35.7947   57.6674   64.4111 C   0  0  0  0  0  0  0  0  0  0  0  0
  -34.9256   58.9057   64.4780 C   0  0  0  0  0  0  0  0  0  0  0  0
  -33.5258   58.6471   65.0237 C   0  0  0  0  0  0  0  0  0  0  0  0
  -32.4473   58.6039   63.9582 C   0  0  0  0  0  0  0  0  0  0  0  0
  -32.9003   59.1523   62.6206 C   0  0  0  0  0  0  0  0  0  0  0  0
  -32.0721   60.3328   62.1331 C   0  0  0  0  0  0  0  0  0  0  0  0
  -32.5998   61.6786   62.5979 C   0  0  0  0  0  0  0  0  0  0  0  0
  -30.8177   62.8207   61.2357 C   0  0  0  0  0  0  0  0  0  0  0  0
  -32.2607   62.8426   61.6862 C   0  0  0  0  0  0  0  0  0  0  0  0
  -40.8963   58.7324   65.3961 C   0  0  0  0  0  0  0  0  0  0  0  0
  -40.3122   59.1580   64.1447 O   0  0  0  0  0  0  0  0  0  0  0  0
  -40.4462   60.6530   63.5889 P   0  0  0  0  0  0  0  0  0  0  0  0
  -40.5333   60.5873   62.1142 O   0  0  0  0  0  0  0  0  0  0  0  0
  -41.5341   61.3278   64.3372 O   0  0  0  0  0  0  0  0  0  0  0  0
  -42.3823   60.9088   64.1228 H   0  0  0  0  0  0  0  0  0  0  0  0
  -39.0731   61.3695   63.9684 O   0  0  0  0  0  0  0  0  0  0  0  0
  -38.1185   61.6921   62.9367 C   0  0  0  0  0  0  0  0  0  0  0  0
  -36.9149   63.7237   63.3446 O   0  0  0  0  0  0  0  0  0  0  0  0
  -36.9070   62.3138   63.5869 C   0  0  0  0  0  0  0  0  0  0  0  0
  -36.9535   63.8874   62.3892 H   0  0  0  0  0  0  0  0  0  0  0  0
  -37.2996   63.1687   65.8080 O   0  0  0  0  0  0  0  0  0  0  0  0
  -36.8471   62.0404   65.0706 C   0  0  0  0  0  0  0  0  0  0  0  0
  -37.2538   62.9743   66.7571 H   0  0  0  0  0  0  0  0  0  0  0  0
  -42.8826   57.5791   66.2786 O   0  0  0  0  0  0  0  0  0  0  0  0
  -45.0505   57.3017   66.8110 O   0  0  0  0  0  0  0  0  0  0  0  0
  -44.2025   57.7933   66.1174 C   0  0  0  0  0  0  0  0  0  0  0  0
  -44.4839   58.7303   64.9839 C   0  0  0  0  0  0  0  0  0  0  0  0
  -44.8115   60.1327   65.4862 C   0  0  0  0  0  0  0  0  0  0  0  0
  -45.6940   60.9345   64.5438 C   0  0  0  0  0  0  0  0  0  0  0  0
  -47.0080   60.2416   64.2012 C   0  0  0  0  0  0  0  0  0  0  0  0
  -47.7263   59.6530   65.4012 C   0  0  0  0  0  0  0  0  0  0  0  0
  -48.4370   58.3242   65.1291 C   0  0  0  0  0  0  0  0  0  0  0  0
  -49.9552   58.3465   65.3189 C   0  0  0  0  0  0  0  0  0  0  0  0
  -50.4936   59.7432   65.4034 C   0  0  0  0  0  0  0  0  0  0  0  0
  -51.0593   60.4292   64.4293 C   0  0  0  0  0  0  0  0  0  0  0  0
  -51.2844   59.9526   63.0291 C   0  0  0  0  0  0  0  0  0  0  0  0
  -50.0329   60.0737   62.1645 C   0  0  0  0  0  0  0  0  0  0  0  0
  -50.0118   59.1170   60.9854 C   0  0  0  0  0  0  0  0  0  0  0  0
  -48.9915   58.0003   61.1241 C   0  0  0  0  0  0  0  0  0  0  0  0
  -49.1017   56.9121   60.0690 C   0  0  0  0  0  0  0  0  0  0  0  0
  -48.7733   57.3950   58.6644 C   0  0  0  0  0  0  0  0  0  0  0  0
  -47.2940   57.6049   58.4088 C   0  0  0  0  0  0  0  0  0  0  0  0
  -47.0178   58.2230   57.0667 C   0  0  0  0  0  0  0  0  0  0  0  0
 21 22  1  0  0  0
  4  5  2  0  0  0
 25 24  1  0  0  0
 25 26  2  0  0  0
 25 27  1  0  0  0
 25 29  1  0  0  0
 22 20  1  0  0  0
  3  5  1  0  0  0
  3  2  1  0  0  0
 20 19  1  0  0  0
 24 23  1  0  0  0
 19 18  1  0  0  0
 18 17  1  0  0  0
 27 28  1  0  0  0
 17 16  1  0  0  0
 29 30  1  0  0  0
 16 15  1  0  0  0
 34 35  1  0  0  0
 34 36  1  0  0  0
 15 14  1  0  0  0
 31 32  1  0  0  0
 31 33  1  0  0  0
 14 13  1  0  0  0
 37  1  1  0  0  0
 37 39  1  0  0  0
 13 12  1  0  0  0
 38 39  2  0  0  0
 12 11  1  0  0  0
 11 10  1  0  0  0
 10  9  1  0  0  0
  9  8  1  0  0  0
  8  7  1  0  0  0
  7  6  1  0  0  0
  6  5  1  0  0  0
  2  1  1  0  0  0
  1 23  1  0  0  0
 30 32  1  0  0  0
 32 35  1  0  0  0
 39 40  1  0  0  0
 40 41  1  0  0  0
 41 42  1  0  0  0
 42 43  1  0  0  0
 43 44  1  0  0  0
 44 45  1  0  0  0
 45 46  1  0  0  0
 46 47  1  0  0  0
 47 48  2  0  0  0
 48 49  1  0  0  0
 49 50  1  0  0  0
 50 51  1  0  0  0
 51 52  1  0  0  0
 52 53  1  0  0  0
 53 54  1  0  0  0
 54 55  1  0  0  0
 55 56  1  0  0  0
M  CHG 1  26  -1
M  END
> <minimizedAffinity>
-8.73355

> <CNNscore>
0.3292787671

> <CNNaffinity>
7.2972817421

> <CNN_VS>
2.4028398991

> <CNNaffinity_variance>
1.5591815710

$$$$
/media/chris/experiments/cd1a-new-docking/inputs/ligands/7sh4_ligand.pdb


 56 55  0  0  0  0  0  0  0  0999 V2000
  -40.0124   60.6826   63.8925 C   0  0  0  0  0  0  0  0  0  0  0  0
  -40.1774   60.1321   65.2808 C   0  0  0  0  0  0  0  0  0  0  0  0
  -40.3605   58.7153   65.0752 O   0  0  0  0  0  0  0  0  0  0  0  0
  -42.2976   58.7083   66.1919 O   0  0  0  0  0  0  0  0  0  0  0  0
  -41.5514   58.2075   65.3944 C   0  0  0  0  0  0  0  0  0  0  0  0
  -41.8791   57.0155   64.5420 C   0  0  0  0  0  0  0  0  0  0  0  0
  -41.6764   57.2425   63.0536 C   0  0  0  0  0  0  0  0  0  0  0  0
  -41.3301   55.9707   62.3084 C   0  0  0  0  0  0  0  0  0  0  0  0
  -41.1649   56.1525   60.8165 C   0  0  0  0  0  0  0  0  0  0  0  0
  -41.7115   57.4741   60.3159 C   0  0  0  0  0  0  0  0  0  0  0  0
  -40.7544   58.2070   59.4079 C   0  0  0  0  0  0  0  0  0  0  0  0
  -40.5244   59.6354   59.8252 C   0  0  0  0  0  0  0  0  0  0  0  0
  -39.0776   59.9429   60.1419 C   0  0  0  0  0  0  0  0  0  0  0  0
  -38.1587   58.7664   59.8815 C   0  0  0  0  0  0  0  0  0  0  0  0
  -37.3193   58.3619   61.0752 C   0  0  0  0  0  0  0  0  0  0  0  0
  -38.1192   57.7132   62.1993 C   0  0  0  0  0  0  0  0  0  0  0  0
  -37.4437   57.7823   63.5555 C   0  0  0  0  0  0  0  0  0  0  0  0
  -36.2151   58.6685   63.5715 C   0  0  0  0  0  0  0  0  0  0  0  0
  -34.9235   57.9157   63.8593 C   0  0  0  0  0  0  0  0  0  0  0  0
  -33.9124   58.7247   64.6520 C   0  0  0  0  0  0  0  0  0  0  0  0
  -32.0608   59.3787   63.0773 C   0  0  0  0  0  0  0  0  0  0  0  0
  -32.4671   58.5086   64.2450 C   0  0  0  0  0  0  0  0  0  0  0  0
  -38.6500   61.2923   63.6834 C   0  0  0  0  0  0  0  0  0  0  0  0
  -38.0616   61.5698   64.9739 O   0  0  0  0  0  0  0  0  0  0  0  0
  -36.7192   62.4237   65.1496 P   0  0  0  0  0  0  0  0  0  0  0  0
  -37.0735   63.7063   65.7947 O   0  0  0  0  0  0  0  0  0  0  0  0
  -35.7031   61.5583   65.7956 O   0  0  0  0  0  0  0  0  0  0  0  0
  -35.9830   61.3512   66.7010 H   0  0  0  0  0  0  0  0  0  0  0  0
  -36.2227   62.7399   63.6677 O   0  0  0  0  0  0  0  0  0  0  0  0
  -35.9773   64.1026   63.2644 C   0  0  0  0  0  0  0  0  0  0  0  0
  -34.3092   64.9012   64.7882 O   0  0  0  0  0  0  0  0  0  0  0  0
  -34.5116   64.4011   63.4632 C   0  0  0  0  0  0  0  0  0  0  0  0
  -34.8730   65.6777   64.9305 H   0  0  0  0  0  0  0  0  0  0  0  0
  -33.6552   62.8253   61.8504 O   0  0  0  0  0  0  0  0  0  0  0  0
  -33.6410   63.1910   63.2242 C   0  0  0  0  0  0  0  0  0  0  0  0
  -33.0913   62.0474   61.7169 H   0  0  0  0  0  0  0  0  0  0  0  0
  -41.0835   61.6545   63.6511 O   0  0  0  0  0  0  0  0  0  0  0  0
  -42.6318   60.3503   62.6702 O   0  0  0  0  0  0  0  0  0  0  0  0
  -42.3290   61.1651   63.4987 C   0  0  0  0  0  0  0  0  0  0  0  0
  -43.2845   61.7437   64.4957 C   0  0  0  0  0  0  0  0  0  0  0  0
  -44.7206   61.3203   64.2045 C   0  0  0  0  0  0  0  0  0  0  0  0
  -45.2959   60.3502   65.2233 C   0  0  0  0  0  0  0  0  0  0  0  0
  -45.9053   59.1002   64.5987 C   0  0  0  0  0  0  0  0  0  0  0  0
  -47.4129   59.1625   64.4389 C   0  0  0  0  0  0  0  0  0  0  0  0
  -48.1930   58.2661   65.4047 C   0  0  0  0  0  0  0  0  0  0  0  0
  -49.7153   58.3212   65.2593 C   0  0  0  0  0  0  0  0  0  0  0  0
  -50.2417   59.7218   65.3553 C   0  0  0  0  0  0  0  0  0  0  0  0
  -50.9752   60.3505   64.4574 C   0  0  0  0  0  0  0  0  0  0  0  0
  -51.4388   59.7926   63.1489 C   0  0  0  0  0  0  0  0  0  0  0  0
  -50.4494   60.0601   62.0185 C   0  0  0  0  0  0  0  0  0  0  0  0
  -49.5626   58.8716   61.6910 C   0  0  0  0  0  0  0  0  0  0  0  0
  -50.2841   57.7572   60.9530 C   0  0  0  0  0  0  0  0  0  0  0  0
  -49.3710   56.8176   60.1831 C   0  0  0  0  0  0  0  0  0  0  0  0
  -48.1450   57.5055   59.6023 C   0  0  0  0  0  0  0  0  0  0  0  0
  -48.3054   57.9511   58.1623 C   0  0  0  0  0  0  0  0  0  0  0  0
  -47.0033   57.9717   57.4115 C   0  0  0  0  0  0  0  0  0  0  0  0
 21 22  1  0  0  0
  4  5  2  0  0  0
 25 24  1  0  0  0
 25 26  2  0  0  0
 25 27  1  0  0  0
 25 29  1  0  0  0
 22 20  1  0  0  0
  3  5  1  0  0  0
  3  2  1  0  0  0
 20 19  1  0  0  0
 24 23  1  0  0  0
 19 18  1  0  0  0
 18 17  1  0  0  0
 27 28  1  0  0  0
 17 16  1  0  0  0
 29 30  1  0  0  0
 16 15  1  0  0  0
 34 35  1  0  0  0
 34 36  1  0  0  0
 15 14  1  0  0  0
 31 32  1  0  0  0
 31 33  1  0  0  0
 14 13  1  0  0  0
 37  1  1  0  0  0
 37 39  1  0  0  0
 13 12  1  0  0  0
 38 39  2  0  0  0
 12 11  1  0  0  0
 11 10  1  0  0  0
 10  9  1  0  0  0
  9  8  1  0  0  0
  8  7  1  0  0  0
  7  6  1  0  0  0
  6  5  1  0  0  0
  2  1  1  0  0  0
  1 23  1  0  0  0
 30 32  1  0  0  0
 32 35  1  0  0  0
 39 40  1  0  0  0
 40 41  1  0  0  0
 41 42  1  0  0  0
 42 43  1  0  0  0
 43 44  1  0  0  0
 44 45  1  0  0  0
 45 46  1  0  0  0
 46 47  1  0  0  0
 47 48  2  0  0  0
 48 49  1  0  0  0
 49 50  1  0  0  0
 50 51  1  0  0  0
 51 52  1  0  0  0
 52 53  1  0  0  0
 53 54  1  0  0  0
 54 55  1  0  0  0
 55 56  1  0  0  0
M  CHG 1  26  -1
M  END
> <minimizedAffinity>
-8.53819

> <CNNscore>
0.3283225298

> <CNNaffinity>
7.4383039474

> <CNN_VS>
2.4421627522

> <CNNaffinity_variance>
1.3864519596

$$$$
/media/chris/experiments/cd1a-new-docking/inputs/ligands/7sh4_ligand.pdb


 56 55  0  0  0  0  0  0  0  0999 V2000
  -41.0608   60.3565   63.9736 C   0  0  0  0  0  0  0  0  0  0  0  0
  -40.9425   58.9344   64.4441 C   0  0  0  0  0  0  0  0  0  0  0  0
  -41.8101   58.1993   63.5552 O   0  0  0  0  0  0  0  0  0  0  0  0
  -41.7893   56.0387   64.1304 O   0  0  0  0  0  0  0  0  0  0  0  0
  -41.5187   56.9139   63.3530 C   0  0  0  0  0  0  0  0  0  0  0  0
  -40.9307   56.6990   61.9881 C   0  0  0  0  0  0  0  0  0  0  0  0
  -41.6913   57.3901   60.8691 C   0  0  0  0  0  0  0  0  0  0  0  0
  -40.9099   58.5263   60.2436 C   0  0  0  0  0  0  0  0  0  0  0  0
  -39.9994   58.1030   59.1132 C   0  0  0  0  0  0  0  0  0  0  0  0
  -38.6319   58.7524   59.1780 C   0  0  0  0  0  0  0  0  0  0  0  0
  -38.2550   59.2062   60.5671 C   0  0  0  0  0  0  0  0  0  0  0  0
  -37.2484   58.3025   61.2286 C   0  0  0  0  0  0  0  0  0  0  0  0
  -37.5533   58.0281   62.6845 C   0  0  0  0  0  0  0  0  0  0  0  0
  -36.3073   57.7514   63.5013 C   0  0  0  0  0  0  0  0  0  0  0  0
  -35.0124   58.0172   62.7625 C   0  0  0  0  0  0  0  0  0  0  0  0
  -34.2667   59.2535   63.2517 C   0  0  0  0  0  0  0  0  0  0  0  0
  -32.9623   58.9456   63.9618 C   0  0  0  0  0  0  0  0  0  0  0  0
  -31.7360   59.2394   63.1222 C   0  0  0  0  0  0  0  0  0  0  0  0
  -32.0133   60.1515   61.9354 C   0  0  0  0  0  0  0  0  0  0  0  0
  -31.3352   61.5061   62.0385 C   0  0  0  0  0  0  0  0  0  0  0  0
  -32.5789   63.3067   63.2823 C   0  0  0  0  0  0  0  0  0  0  0  0
  -32.2721   62.6946   61.9344 C   0  0  0  0  0  0  0  0  0  0  0  0
  -39.7363   60.9146   63.5196 C   0  0  0  0  0  0  0  0  0  0  0  0
  -38.9583   61.2713   64.6840 O   0  0  0  0  0  0  0  0  0  0  0  0
  -37.3974   61.6179   64.6114 P   0  0  0  0  0  0  0  0  0  0  0  0
  -36.6646   60.5960   65.3895 O   0  0  0  0  0  0  0  0  0  0  0  0
  -37.0361   61.8238   63.1881 O   0  0  0  0  0  0  0  0  0  0  0  0
  -37.1244   60.9858   62.7075 H   0  0  0  0  0  0  0  0  0  0  0  0
  -37.2394   63.0149   65.3639 O   0  0  0  0  0  0  0  0  0  0  0  0
  -36.1086   63.8636   65.0797 C   0  0  0  0  0  0  0  0  0  0  0  0
  -36.2645   64.1369   67.4553 O   0  0  0  0  0  0  0  0  0  0  0  0
  -35.3435   64.0821   66.3618 C   0  0  0  0  0  0  0  0  0  0  0  0
  -36.9233   64.8292   67.2888 H   0  0  0  0  0  0  0  0  0  0  0  0
  -33.4628   63.3632   67.6900 O   0  0  0  0  0  0  0  0  0  0  0  0
  -34.3098   63.0087   66.6045 C   0  0  0  0  0  0  0  0  0  0  0  0
  -32.8066   62.6627   67.8302 H   0  0  0  0  0  0  0  0  0  0  0  0
  -41.6418   61.1546   65.0578 O   0  0  0  0  0  0  0  0  0  0  0  0
  -43.3011   60.5802   66.4640 O   0  0  0  0  0  0  0  0  0  0  0  0
  -42.9290   60.9127   65.3717 C   0  0  0  0  0  0  0  0  0  0  0  0
  -43.8406   61.1255   64.2031 C   0  0  0  0  0  0  0  0  0  0  0  0
  -45.2958   60.8579   64.5733 C   0  0  0  0  0  0  0  0  0  0  0  0
  -45.7024   59.3979   64.4592 C   0  0  0  0  0  0  0  0  0  0  0  0
  -47.2116   59.1868   64.4148 C   0  0  0  0  0  0  0  0  0  0  0  0
  -48.0069   60.2684   65.1219 C   0  0  0  0  0  0  0  0  0  0  0  0
  -49.0415   59.7464   66.1229 C   0  0  0  0  0  0  0  0  0  0  0  0
  -50.3942   59.3607   65.5204 C   0  0  0  0  0  0  0  0  0  0  0  0
  -50.8531   60.3442   64.4860 C   0  0  0  0  0  0  0  0  0  0  0  0
  -51.1656   60.0801   63.2322 C   0  0  0  0  0  0  0  0  0  0  0  0
  -51.1286   58.7352   62.5778 C   0  0  0  0  0  0  0  0  0  0  0  0
  -49.8082   58.4735   61.8592 C   0  0  0  0  0  0  0  0  0  0  0  0
  -49.7791   57.1603   61.0970 C   0  0  0  0  0  0  0  0  0  0  0  0
  -48.7710   57.1366   59.9610 C   0  0  0  0  0  0  0  0  0  0  0  0
  -48.7311   58.4070   59.1280 C   0  0  0  0  0  0  0  0  0  0  0  0
  -47.6081   58.4236   58.1023 C   0  0  0  0  0  0  0  0  0  0  0  0
  -47.8331   57.5037   56.9186 C   0  0  0  0  0  0  0  0  0  0  0  0
  -47.2317   56.1407   57.1190 C   0  0  0  0  0  0  0  0  0  0  0  0
 21 22  1  0  0  0
  4  5  2  0  0  0
 25 24  1  0  0  0
 25 26  2  0  0  0
 25 27  1  0  0  0
 25 29  1  0  0  0
 22 20  1  0  0  0
  3  5  1  0  0  0
  3  2  1  0  0  0
 20 19  1  0  0  0
 24 23  1  0  0  0
 19 18  1  0  0  0
 18 17  1  0  0  0
 27 28  1  0  0  0
 17 16  1  0  0  0
 29 30  1  0  0  0
 16 15  1  0  0  0
 34 35  1  0  0  0
 34 36  1  0  0  0
 15 14  1  0  0  0
 31 32  1  0  0  0
 31 33  1  0  0  0
 14 13  1  0  0  0
 37  1  1  0  0  0
 37 39  1  0  0  0
 13 12  1  0  0  0
 38 39  2  0  0  0
 12 11  1  0  0  0
 11 10  1  0  0  0
 10  9  1  0  0  0
  9  8  1  0  0  0
  8  7  1  0  0  0
  7  6  1  0  0  0
  6  5  1  0  0  0
  2  1  1  0  0  0
  1 23  1  0  0  0
 30 32  1  0  0  0
 32 35  1  0  0  0
 39 40  1  0  0  0
 40 41  1  0  0  0
 41 42  1  0  0  0
 42 43  1  0  0  0
 43 44  1  0  0  0
 44 45  1  0  0  0
 45 46  1  0  0  0
 46 47  1  0  0  0
 47 48  2  0  0  0
 48 49  1  0  0  0
 49 50  1  0  0  0
 50 51  1  0  0  0
 51 52  1  0  0  0
 52 53  1  0  0  0
 53 54  1  0  0  0
 54 55  1  0  0  0
 55 56  1  0  0  0
M  CHG 1  26  -1
M  END
> <minimizedAffinity>
-9.04413

> <CNNscore>
0.3159364164

> <CNNaffinity>
7.1947097778

> <CNN_VS>
2.2730708122

> <CNNaffinity_variance>
1.1394331455

$$$$
/media/chris/experiments/cd1a-new-docking/inputs/ligands/7sh4_ligand.pdb


 56 55  0  0  0  0  0  0  0  0999 V2000
  -40.0615   59.8548   64.6953 C   0  0  0  0  0  0  0  0  0  0  0  0
  -40.5727   58.5239   65.1698 C   0  0  0  0  0  0  0  0  0  0  0  0
  -41.5199   58.1314   64.1540 O   0  0  0  0  0  0  0  0  0  0  0  0
  -42.0151   55.9951   64.5905 O   0  0  0  0  0  0  0  0  0  0  0  0
  -42.3570   57.1394   64.4595 C   0  0  0  0  0  0  0  0  0  0  0  0
  -43.7377   57.6607   64.7369 C   0  0  0  0  0  0  0  0  0  0  0  0
  -44.1082   57.6824   66.2101 C   0  0  0  0  0  0  0  0  0  0  0  0
  -45.6035   57.7540   66.4376 C   0  0  0  0  0  0  0  0  0  0  0  0
  -46.3504   58.5573   65.3970 C   0  0  0  0  0  0  0  0  0  0  0  0
  -46.8232   59.9016   65.9121 C   0  0  0  0  0  0  0  0  0  0  0  0
  -48.2041   60.2709   65.4282 C   0  0  0  0  0  0  0  0  0  0  0  0
  -49.2940   59.4734   66.0943 C   0  0  0  0  0  0  0  0  0  0  0  0
  -50.6665   59.7292   65.5123 C   0  0  0  0  0  0  0  0  0  0  0  0
  -50.6182   60.5445   64.2358 C   0  0  0  0  0  0  0  0  0  0  0  0
  -51.3202   59.8957   63.0613 C   0  0  0  0  0  0  0  0  0  0  0  0
  -50.8342   58.4833   62.7567 C   0  0  0  0  0  0  0  0  0  0  0  0
  -49.5911   58.4330   61.8891 C   0  0  0  0  0  0  0  0  0  0  0  0
  -49.6846   59.3032   60.6525 C   0  0  0  0  0  0  0  0  0  0  0  0
  -50.0988   58.5421   59.4009 C   0  0  0  0  0  0  0  0  0  0  0  0
  -49.1251   57.4461   59.0059 C   0  0  0  0  0  0  0  0  0  0  0  0
  -46.8295   56.8125   58.1907 C   0  0  0  0  0  0  0  0  0  0  0  0
  -47.7963   57.9414   58.4672 C   0  0  0  0  0  0  0  0  0  0  0  0
  -38.7392   60.2106   65.3251 C   0  0  0  0  0  0  0  0  0  0  0  0
  -38.2828   61.4650   64.7713 O   0  0  0  0  0  0  0  0  0  0  0  0
  -36.8372   62.0766   65.0843 P   0  0  0  0  0  0  0  0  0  0  0  0
  -37.0222   63.4546   65.5879 O   0  0  0  0  0  0  0  0  0  0  0  0
  -36.0969   61.1046   65.9245 O   0  0  0  0  0  0  0  0  0  0  0  0
  -36.5266   61.0332   66.7913 H   0  0  0  0  0  0  0  0  0  0  0  0
  -36.1010   62.1643   63.6726 O   0  0  0  0  0  0  0  0  0  0  0  0
  -35.3491   63.3444   63.3231 C   0  0  0  0  0  0  0  0  0  0  0  0
  -36.7499   65.2557   62.9670 O   0  0  0  0  0  0  0  0  0  0  0  0
  -36.1460   64.1348   62.3146 C   0  0  0  0  0  0  0  0  0  0  0  0
  -37.2893   64.9449   63.7109 H   0  0  0  0  0  0  0  0  0  0  0  0
  -34.1775   63.7488   60.9751 O   0  0  0  0  0  0  0  0  0  0  0  0
  -35.3018   64.6008   61.1527 C   0  0  0  0  0  0  0  0  0  0  0  0
  -33.6483   64.0636   60.2256 H   0  0  0  0  0  0  0  0  0  0  0  0
  -41.0841   60.8679   64.9738 O   0  0  0  0  0  0  0  0  0  0  0  0
  -41.4060   60.0849   67.0579 O   0  0  0  0  0  0  0  0  0  0  0  0
  -41.7790   60.7351   66.1199 C   0  0  0  0  0  0  0  0  0  0  0  0
  -43.0607   61.5087   66.0911 C   0  0  0  0  0  0  0  0  0  0  0  0
  -43.9023   61.1508   64.8704 C   0  0  0  0  0  0  0  0  0  0  0  0
  -43.6254   62.0197   63.6545 C   0  0  0  0  0  0  0  0  0  0  0  0
  -42.9640   61.2675   62.5053 C   0  0  0  0  0  0  0  0  0  0  0  0
  -42.6043   62.1441   61.3202 C   0  0  0  0  0  0  0  0  0  0  0  0
  -41.5672   61.5373   60.3709 C   0  0  0  0  0  0  0  0  0  0  0  0
  -40.9033   60.2512   60.8673 C   0  0  0  0  0  0  0  0  0  0  0  0
  -39.5586   60.0316   60.2416 C   0  0  0  0  0  0  0  0  0  0  0  0
  -38.8981   58.8920   60.1744 C   0  0  0  0  0  0  0  0  0  0  0  0
  -39.3570   57.5728   60.7105 C   0  0  0  0  0  0  0  0  0  0  0  0
  -38.7800   57.2726   62.0908 C   0  0  0  0  0  0  0  0  0  0  0  0
  -37.3760   57.8140   62.2954 C   0  0  0  0  0  0  0  0  0  0  0  0
  -36.9126   57.7769   63.7415 C   0  0  0  0  0  0  0  0  0  0  0  0
  -35.4359   58.0772   63.9374 C   0  0  0  0  0  0  0  0  0  0  0  0
  -34.6151   57.9361   62.6645 C   0  0  0  0  0  0  0  0  0  0  0  0
  -33.3183   58.7210   62.6703 C   0  0  0  0  0  0  0  0  0  0  0  0
  -32.6474   58.7254   64.0155 C   0  0  0  0  0  0  0  0  0  0  0  0
 21 22  1  0  0  0
  4  5  2  0  0  0
 25 24  1  0  0  0
 25 26  2  0  0  0
 25 27  1  0  0  0
 25 29  1  0  0  0
 22 20  1  0  0  0
  3  5  1  0  0  0
  3  2  1  0  0  0
 20 19  1  0  0  0
 24 23  1  0  0  0
 19 18  1  0  0  0
 18 17  1  0  0  0
 27 28  1  0  0  0
 17 16  1  0  0  0
 29 30  1  0  0  0
 16 15  1  0  0  0
 34 35  1  0  0  0
 34 36  1  0  0  0
 15 14  1  0  0  0
 31 32  1  0  0  0
 31 33  1  0  0  0
 14 13  1  0  0  0
 37  1  1  0  0  0
 37 39  1  0  0  0
 13 12  1  0  0  0
 38 39  2  0  0  0
 12 11  1  0  0  0
 11 10  1  0  0  0
 10  9  1  0  0  0
  9  8  1  0  0  0
  8  7  1  0  0  0
  7  6  1  0  0  0
  6  5  1  0  0  0
  2  1  1  0  0  0
  1 23  1  0  0  0
 30 32  1  0  0  0
 32 35  1  0  0  0
 39 40  1  0  0  0
 40 41  1  0  0  0
 41 42  1  0  0  0
 42 43  1  0  0  0
 43 44  1  0  0  0
 44 45  1  0  0  0
 45 46  1  0  0  0
 46 47  1  0  0  0
 47 48  2  0  0  0
 48 49  1  0  0  0
 49 50  1  0  0  0
 50 51  1  0  0  0
 51 52  1  0  0  0
 52 53  1  0  0  0
 53 54  1  0  0  0
 54 55  1  0  0  0
 55 56  1  0  0  0
M  CHG 1  26  -1
M  END
> <minimizedAffinity>
-8.46785

> <CNNscore>
0.2735167742

> <CNNaffinity>
7.4402437210

> <CNN_VS>
2.0350315571

> <CNNaffinity_variance>
1.5552253723

$$$$
/media/chris/experiments/cd1a-new-docking/inputs/ligands/7sh4_ligand.pdb


 56 55  0  0  0  0  0  0  0  0999 V2000
  -41.9749   57.4708   64.0388 C   0  0  0  0  0  0  0  0  0  0  0  0
  -41.5681   56.6594   62.8414 C   0  0  0  0  0  0  0  0  0  0  0  0
  -41.2961   57.6481   61.8257 O   0  0  0  0  0  0  0  0  0  0  0  0
  -41.3661   56.0670   60.2463 O   0  0  0  0  0  0  0  0  0  0  0  0
  -41.2100   57.2140   60.5679 C   0  0  0  0  0  0  0  0  0  0  0  0
  -41.0206   58.3562   59.6115 C   0  0  0  0  0  0  0  0  0  0  0  0
  -39.6448   58.4057   58.9689 C   0  0  0  0  0  0  0  0  0  0  0  0
  -38.5223   58.3915   59.9850 C   0  0  0  0  0  0  0  0  0  0  0  0
  -38.3581   59.6885   60.7445 C   0  0  0  0  0  0  0  0  0  0  0  0
  -37.8003   59.4926   62.1397 C   0  0  0  0  0  0  0  0  0  0  0  0
  -37.7494   58.0444   62.5610 C   0  0  0  0  0  0  0  0  0  0  0  0
  -36.7132   57.7757   63.6201 C   0  0  0  0  0  0  0  0  0  0  0  0
  -35.2990   58.0527   63.1605 C   0  0  0  0  0  0  0  0  0  0  0  0
  -34.3650   58.3827   64.3073 C   0  0  0  0  0  0  0  0  0  0  0  0
  -32.9103   58.5033   63.9043 C   0  0  0  0  0  0  0  0  0  0  0  0
  -32.6307   59.6529   62.9428 C   0  0  0  0  0  0  0  0  0  0  0  0
  -31.1683   59.8018   62.5691 C   0  0  0  0  0  0  0  0  0  0  0  0
  -30.7275   61.2441   62.4260 C   0  0  0  0  0  0  0  0  0  0  0  0
  -31.7442   62.1251   61.7135 C   0  0  0  0  0  0  0  0  0  0  0  0
  -31.9268   63.4870   62.3595 C   0  0  0  0  0  0  0  0  0  0  0  0
  -33.9227   62.8871   63.7709 C   0  0  0  0  0  0  0  0  0  0  0  0
  -32.5210   63.4532   63.7548 C   0  0  0  0  0  0  0  0  0  0  0  0
  -40.8246   57.6986   64.9858 C   0  0  0  0  0  0  0  0  0  0  0  0
  -40.2415   58.9911   64.7069 O   0  0  0  0  0  0  0  0  0  0  0  0
  -40.5582   60.2928   65.5828 P   0  0  0  0  0  0  0  0  0  0  0  0
  -41.5401   59.9172   66.6228 O   0  0  0  0  0  0  0  0  0  0  0  0
  -39.2684   60.8908   66.0038 O   0  0  0  0  0  0  0  0  0  0  0  0
  -38.8162   60.2877   66.6144 H   0  0  0  0  0  0  0  0  0  0  0  0
  -41.2677   61.3124   64.5829 O   0  0  0  0  0  0  0  0  0  0  0  0
  -41.3381   61.0105   63.1744 C   0  0  0  0  0  0  0  0  0  0  0  0
  -43.4434   62.0125   63.7280 O   0  0  0  0  0  0  0  0  0  0  0  0
  -42.7244   61.3493   62.6840 C   0  0  0  0  0  0  0  0  0  0  0  0
  -43.4520   61.4532   64.5206 H   0  0  0  0  0  0  0  0  0  0  0  0
  -41.7847   61.6842   60.4879 O   0  0  0  0  0  0  0  0  0  0  0  0
  -42.7010   62.2065   61.4414 C   0  0  0  0  0  0  0  0  0  0  0  0
  -41.7837   62.2474   59.6982 H   0  0  0  0  0  0  0  0  0  0  0  0
  -43.0933   56.7904   64.6991 O   0  0  0  0  0  0  0  0  0  0  0  0
  -43.8944   57.4508   66.6947 O   0  0  0  0  0  0  0  0  0  0  0  0
  -43.8782   57.5393   65.4973 C   0  0  0  0  0  0  0  0  0  0  0  0
  -44.7125   58.5061   64.7155 C   0  0  0  0  0  0  0  0  0  0  0  0
  -45.1189   59.7069   65.5638 C   0  0  0  0  0  0  0  0  0  0  0  0
  -46.5586   59.6602   66.0486 C   0  0  0  0  0  0  0  0  0  0  0  0
  -47.5790   59.5599   64.9205 C   0  0  0  0  0  0  0  0  0  0  0  0
  -48.4494   58.3186   64.9845 C   0  0  0  0  0  0  0  0  0  0  0  0
  -49.9044   58.5811   65.3831 C   0  0  0  0  0  0  0  0  0  0  0  0
  -50.4123   59.9965   65.1001 C   0  0  0  0  0  0  0  0  0  0  0  0
  -51.3838   60.0305   63.9585 C   0  0  0  0  0  0  0  0  0  0  0  0
  -51.0889   60.1202   62.6762 C   0  0  0  0  0  0  0  0  0  0  0  0
  -49.7150   60.2057   62.0902 C   0  0  0  0  0  0  0  0  0  0  0  0
  -49.4847   59.1710   60.9925 C   0  0  0  0  0  0  0  0  0  0  0  0
  -49.9147   57.7667   61.3788 C   0  0  0  0  0  0  0  0  0  0  0  0
  -49.3999   56.6908   60.4382 C   0  0  0  0  0  0  0  0  0  0  0  0
  -48.6691   57.2203   59.2156 C   0  0  0  0  0  0  0  0  0  0  0  0
  -47.5194   56.3319   58.7653 C   0  0  0  0  0  0  0  0  0  0  0  0
  -47.0123   56.6312   57.3685 C   0  0  0  0  0  0  0  0  0  0  0  0
  -46.9821   58.1029   57.0638 C   0  0  0  0  0  0  0  0  0  0  0  0
 21 22  1  0  0  0
  4  5  2  0  0  0
 25 24  1  0  0  0
 25 26  2  0  0  0
 25 27  1  0  0  0
 25 29  1  0  0  0
 22 20  1  0  0  0
  3  5  1  0  0  0
  3  2  1  0  0  0
 20 19  1  0  0  0
 24 23  1  0  0  0
 19 18  1  0  0  0
 18 17  1  0  0  0
 27 28  1  0  0  0
 17 16  1  0  0  0
 29 30  1  0  0  0
 16 15  1  0  0  0
 34 35  1  0  0  0
 34 36  1  0  0  0
 15 14  1  0  0  0
 31 32  1  0  0  0
 31 33  1  0  0  0
 14 13  1  0  0  0
 37  1  1  0  0  0
 37 39  1  0  0  0
 13 12  1  0  0  0
 38 39  2  0  0  0
 12 11  1  0  0  0
 11 10  1  0  0  0
 10  9  1  0  0  0
  9  8  1  0  0  0
  8  7  1  0  0  0
  7  6  1  0  0  0
  6  5  1  0  0  0
  2  1  1  0  0  0
  1 23  1  0  0  0
 30 32  1  0  0  0
 32 35  1  0  0  0
 39 40  1  0  0  0
 40 41  1  0  0  0
 41 42  1  0  0  0
 42 43  1  0  0  0
 43 44  1  0  0  0
 44 45  1  0  0  0
 45 46  1  0  0  0
 46 47  1  0  0  0
 47 48  2  0  0  0
 48 49  1  0  0  0
 49 50  1  0  0  0
 50 51  1  0  0  0
 51 52  1  0  0  0
 52 53  1  0  0  0
 53 54  1  0  0  0
 54 55  1  0  0  0
 55 56  1  0  0  0
M  CHG 1  26  -1
M  END
> <minimizedAffinity>
-8.26218

> <CNNscore>
0.2662568092

> <CNNaffinity>
7.0711808205

> <CNN_VS>
1.8827500343

> <CNNaffinity_variance>
1.6952793598

$$$$
/media/chris/experiments/cd1a-new-docking/inputs/ligands/7sh4_ligand.pdb


 56 55  0  0  0  0  0  0  0  0999 V2000
  -40.9084   56.9890   62.1438 C   0  0  0  0  0  0  0  0  0  0  0  0
  -39.4861   56.9985   61.6596 C   0  0  0  0  0  0  0  0  0  0  0  0
  -38.7601   57.6533   62.7213 O   0  0  0  0  0  0  0  0  0  0  0  0
  -37.1680   58.5947   61.4650 O   0  0  0  0  0  0  0  0  0  0  0  0
  -37.5025   58.0123   62.4613 C   0  0  0  0  0  0  0  0  0  0  0  0
  -36.6000   57.7069   63.6218 C   0  0  0  0  0  0  0  0  0  0  0  0
  -35.1586   58.1417   63.4181 C   0  0  0  0  0  0  0  0  0  0  0  0
  -34.4156   58.3387   64.7226 C   0  0  0  0  0  0  0  0  0  0  0  0
  -32.9574   58.7017   64.5561 C   0  0  0  0  0  0  0  0  0  0  0  0
  -32.5192   58.7475   63.1064 C   0  0  0  0  0  0  0  0  0  0  0  0
  -31.3978   59.7256   62.8553 C   0  0  0  0  0  0  0  0  0  0  0  0
  -31.5832   60.5215   61.5905 C   0  0  0  0  0  0  0  0  0  0  0  0
  -31.5617   62.0174   61.8138 C   0  0  0  0  0  0  0  0  0  0  0  0
  -32.7961   62.5192   62.5355 C   0  0  0  0  0  0  0  0  0  0  0  0
  -32.4975   63.3550   63.7625 C   0  0  0  0  0  0  0  0  0  0  0  0
  -33.7176   63.6256   64.6354 C   0  0  0  0  0  0  0  0  0  0  0  0
  -34.8060   64.4232   63.9430 C   0  0  0  0  0  0  0  0  0  0  0  0
  -36.2034   63.9197   64.2411 C   0  0  0  0  0  0  0  0  0  0  0  0
  -36.6669   62.8144   63.3025 C   0  0  0  0  0  0  0  0  0  0  0  0
  -36.6645   61.4359   63.9390 C   0  0  0  0  0  0  0  0  0  0  0  0
  -38.2104   60.3685   65.6143 C   0  0  0  0  0  0  0  0  0  0  0  0
  -37.1318   61.4021   65.3818 C   0  0  0  0  0  0  0  0  0  0  0  0
  -41.7867   57.9124   61.3390 C   0  0  0  0  0  0  0  0  0  0  0  0
  -40.9633   58.9481   60.7577 O   0  0  0  0  0  0  0  0  0  0  0  0
  -41.0244   60.4747   61.2346 P   0  0  0  0  0  0  0  0  0  0  0  0
  -39.7355   60.8050   61.8798 O   0  0  0  0  0  0  0  0  0  0  0  0
  -41.4789   61.2984   60.0884 O   0  0  0  0  0  0  0  0  0  0  0  0
  -40.8031   61.2851   59.3925 H   0  0  0  0  0  0  0  0  0  0  0  0
  -42.1600   60.5228   62.3530 O   0  0  0  0  0  0  0  0  0  0  0  0
  -41.9257   61.2275   63.5893 C   0  0  0  0  0  0  0  0  0  0  0  0
  -44.0888   60.2358   63.8723 O   0  0  0  0  0  0  0  0  0  0  0  0
  -43.2131   61.2488   64.3761 C   0  0  0  0  0  0  0  0  0  0  0  0
  -44.2276   60.3717   62.9219 H   0  0  0  0  0  0  0  0  0  0  0  0
  -41.6263   61.2980   66.1921 O   0  0  0  0  0  0  0  0  0  0  0  0
  -42.9858   61.0524   65.8558 C   0  0  0  0  0  0  0  0  0  0  0  0
  -41.5002   61.1670   67.1449 H   0  0  0  0  0  0  0  0  0  0  0  0
  -40.9137   57.3407   63.5673 O   0  0  0  0  0  0  0  0  0  0  0  0
  -41.8000   55.4002   64.2812 O   0  0  0  0  0  0  0  0  0  0  0  0
  -41.6850   56.5916   64.3784 C   0  0  0  0  0  0  0  0  0  0  0  0
  -42.3659   57.4180   65.4250 C   0  0  0  0  0  0  0  0  0  0  0  0
  -43.8804   57.2439   65.3768 C   0  0  0  0  0  0  0  0  0  0  0  0
  -44.5862   57.6263   66.6674 C   0  0  0  0  0  0  0  0  0  0  0  0
  -46.0649   57.9470   66.4820 C   0  0  0  0  0  0  0  0  0  0  0  0
  -46.3770   59.4318   66.4669 C   0  0  0  0  0  0  0  0  0  0  0  0
  -47.3847   59.8598   65.3962 C   0  0  0  0  0  0  0  0  0  0  0  0
  -48.5890   58.9312   65.2265 C   0  0  0  0  0  0  0  0  0  0  0  0
  -49.8707   59.5857   65.6467 C   0  0  0  0  0  0  0  0  0  0  0  0
  -50.7681   60.1403   64.8551 C   0  0  0  0  0  0  0  0  0  0  0  0
  -50.6938   60.2306   63.3635 C   0  0  0  0  0  0  0  0  0  0  0  0
  -51.4552   59.1027   62.6732 C   0  0  0  0  0  0  0  0  0  0  0  0
  -50.5563   58.0160   62.1101 C   0  0  0  0  0  0  0  0  0  0  0  0
  -49.2993   58.5486   61.4440 C   0  0  0  0  0  0  0  0  0  0  0  0
  -49.4282   58.7763   59.9471 C   0  0  0  0  0  0  0  0  0  0  0  0
  -48.5757   57.8303   59.1151 C   0  0  0  0  0  0  0  0  0  0  0  0
  -47.6769   58.5238   58.1105 C   0  0  0  0  0  0  0  0  0  0  0  0
  -47.4642   57.7122   56.8632 C   0  0  0  0  0  0  0  0  0  0  0  0
 21 22  1  0  0  0
  4  5  2  0  0  0
 25 24  1  0  0  0
 25 26  2  0  0  0
 25 27  1  0  0  0
 25 29  1  0  0  0
 22 20  1  0  0  0
  3  5  1  0  0  0
  3  2  1  0  0  0
 20 19  1  0  0  0
 24 23  1  0  0  0
 19 18  1  0  0  0
 18 17  1  0  0  0
 27 28  1  0  0  0
 17 16  1  0  0  0
 29 30  1  0  0  0
 16 15  1  0  0  0
 34 35  1  0  0  0
 34 36  1  0  0  0
 15 14  1  0  0  0
 31 32  1  0  0  0
 31 33  1  0  0  0
 14 13  1  0  0  0
 37  1  1  0  0  0
 37 39  1  0  0  0
 13 12  1  0  0  0
 38 39  2  0  0  0
 12 11  1  0  0  0
 11 10  1  0  0  0
 10  9  1  0  0  0
  9  8  1  0  0  0
  8  7  1  0  0  0
  7  6  1  0  0  0
  6  5  1  0  0  0
  2  1  1  0  0  0
  1 23  1  0  0  0
 30 32  1  0  0  0
 32 35  1  0  0  0
 39 40  1  0  0  0
 40 41  1  0  0  0
 41 42  1  0  0  0
 42 43  1  0  0  0
 43 44  1  0  0  0
 44 45  1  0  0  0
 45 46  1  0  0  0
 46 47  1  0  0  0
 47 48  2  0  0  0
 48 49  1  0  0  0
 49 50  1  0  0  0
 50 51  1  0  0  0
 51 52  1  0  0  0
 52 53  1  0  0  0
 53 54  1  0  0  0
 54 55  1  0  0  0
 55 56  1  0  0  0
M  CHG 1  26  -1
M  END
> <minimizedAffinity>
-7.78388

> <CNNscore>
0.2032957673

> <CNNaffinity>
6.8309431076

> <CNN_VS>
1.3887017965

> <CNNaffinity_variance>
1.4411319494

$$$$
