/media/chris/experiments/cd1a-new-docking/inputs/ligands/7sh4_ligand.pdb


 56 55  0  0  0  0  0  0  0  0999 V2000
  -40.4119   59.7231   64.5799 C   0  0  0  0  0  0  0  0  0  0  0  0
  -40.3294   58.2277   64.7010 C   0  0  0  0  0  0  0  0  0  0  0  0
  -41.5734   57.8594   65.3333 O   0  0  0  0  0  0  0  0  0  0  0  0
  -41.6624   55.7506   64.5950 O   0  0  0  0  0  0  0  0  0  0  0  0
  -42.2066   56.7924   64.8449 C   0  0  0  0  0  0  0  0  0  0  0  0
  -43.6879   57.0269   64.7718 C   0  0  0  0  0  0  0  0  0  0  0  0
  -44.2203   57.9700   65.8374 C   0  0  0  0  0  0  0  0  0  0  0  0
  -45.5772   58.5436   65.4877 C   0  0  0  0  0  0  0  0  0  0  0  0
  -46.3692   59.0314   66.6796 C   0  0  0  0  0  0  0  0  0  0  0  0
  -47.5111   59.9512   66.2971 C   0  0  0  0  0  0  0  0  0  0  0  0
  -47.5512   60.2665   64.8218 C   0  0  0  0  0  0  0  0  0  0  0  0
  -48.8805   60.8133   64.3729 C   0  0  0  0  0  0  0  0  0  0  0  0
  -50.0601   60.1677   65.0656 C   0  0  0  0  0  0  0  0  0  0  0  0
  -51.3219   60.2020   64.2272 C   0  0  0  0  0  0  0  0  0  0  0  0
  -51.1091   59.8298   62.7747 C   0  0  0  0  0  0  0  0  0  0  0  0
  -50.6608   58.3875   62.5678 C   0  0  0  0  0  0  0  0  0  0  0  0
  -49.5234   58.2320   61.5766 C   0  0  0  0  0  0  0  0  0  0  0  0
  -49.7015   59.0609   60.3210 C   0  0  0  0  0  0  0  0  0  0  0  0
  -49.4209   58.2921   59.0373 C   0  0  0  0  0  0  0  0  0  0  0  0
  -48.0414   58.5554   58.4605 C   0  0  0  0  0  0  0  0  0  0  0  0
  -47.6897   56.1386   59.0695 C   0  0  0  0  0  0  0  0  0  0  0  0
  -47.1876   57.3168   58.2661 C   0  0  0  0  0  0  0  0  0  0  0  0
  -39.2122   60.4070   65.1838 C   0  0  0  0  0  0  0  0  0  0  0  0
  -38.8351   61.5170   64.3387 O   0  0  0  0  0  0  0  0  0  0  0  0
  -37.3448   62.0982   64.2837 P   0  0  0  0  0  0  0  0  0  0  0  0
  -36.4073   60.9546   64.2752 O   0  0  0  0  0  0  0  0  0  0  0  0
  -37.2748   63.0850   63.1791 O   0  0  0  0  0  0  0  0  0  0  0  0
  -37.3925   62.6295   62.3308 H   0  0  0  0  0  0  0  0  0  0  0  0
  -37.1473   62.8849   65.6566 O   0  0  0  0  0  0  0  0  0  0  0  0
  -36.2847   64.0396   65.7088 C   0  0  0  0  0  0  0  0  0  0  0  0
  -36.0361   63.0396   67.8723 O   0  0  0  0  0  0  0  0  0  0  0  0
  -35.4178   63.9305   66.9391 C   0  0  0  0  0  0  0  0  0  0  0  0
  -36.9327   63.3513   68.0716 H   0  0  0  0  0  0  0  0  0  0  0  0
  -33.2583   63.2966   67.8070 O   0  0  0  0  0  0  0  0  0  0  0  0
  -34.0197   63.4599   66.6173 C   0  0  0  0  0  0  0  0  0  0  0  0
  -32.3649   62.9944   67.5801 H   0  0  0  0  0  0  0  0  0  0  0  0
  -41.6610   60.1686   65.2053 O   0  0  0  0  0  0  0  0  0  0  0  0
  -42.8441   62.0658   64.9584 O   0  0  0  0  0  0  0  0  0  0  0  0
  -42.4169   61.0381   64.5077 C   0  0  0  0  0  0  0  0  0  0  0  0
  -42.6445   60.5797   63.1006 C   0  0  0  0  0  0  0  0  0  0  0  0
  -42.5821   61.7436   62.1167 C   0  0  0  0  0  0  0  0  0  0  0  0
  -41.8739   61.4117   60.8135 C   0  0  0  0  0  0  0  0  0  0  0  0
  -40.8174   60.3217   60.9541 C   0  0  0  0  0  0  0  0  0  0  0  0
  -39.9932   60.0961   59.7002 C   0  0  0  0  0  0  0  0  0  0  0  0
  -39.3730   58.7005   59.5886 C   0  0  0  0  0  0  0  0  0  0  0  0
  -38.0794   58.4970   60.3804 C   0  0  0  0  0  0  0  0  0  0  0  0
  -38.2838   57.6230   61.5814 C   0  0  0  0  0  0  0  0  0  0  0  0
  -37.4141   57.3950   62.5464 C   0  0  0  0  0  0  0  0  0  0  0  0
  -36.0348   57.9660   62.6446 C   0  0  0  0  0  0  0  0  0  0  0  0
  -35.3763   57.6695   63.9888 C   0  0  0  0  0  0  0  0  0  0  0  0
  -34.0411   58.3672   64.1806 C   0  0  0  0  0  0  0  0  0  0  0  0
  -33.1787   58.3881   62.9303 C   0  0  0  0  0  0  0  0  0  0  0  0
  -31.9866   59.3277   63.0032 C   0  0  0  0  0  0  0  0  0  0  0  0
  -31.9428   60.3397   61.8684 C   0  0  0  0  0  0  0  0  0  0  0  0
  -30.5458   60.7907   61.4908 C   0  0  0  0  0  0  0  0  0  0  0  0
  -30.4001   62.2868   61.4829 C   0  0  0  0  0  0  0  0  0  0  0  0
 21 22  1  0  0  0
  4  5  2  0  0  0
 25 24  1  0  0  0
 25 26  2  0  0  0
 25 27  1  0  0  0
 25 29  1  0  0  0
 22 20  1  0  0  0
  3  5  1  0  0  0
  3  2  1  0  0  0
 20 19  1  0  0  0
 24 23  1  0  0  0
 19 18  1  0  0  0
 18 17  1  0  0  0
 27 28  1  0  0  0
 17 16  1  0  0  0
 29 30  1  0  0  0
 16 15  1  0  0  0
 34 35  1  0  0  0
 34 36  1  0  0  0
 15 14  1  0  0  0
 31 32  1  0  0  0
 31 33  1  0  0  0
 14 13  1  0  0  0
 37  1  1  0  0  0
 37 39  1  0  0  0
 13 12  1  0  0  0
 38 39  2  0  0  0
 12 11  1  0  0  0
 11 10  1  0  0  0
 10  9  1  0  0  0
  9  8  1  0  0  0
  8  7  1  0  0  0
  7  6  1  0  0  0
  6  5  1  0  0  0
  2  1  1  0  0  0
  1 23  1  0  0  0
 30 32  1  0  0  0
 32 35  1  0  0  0
 39 40  1  0  0  0
 40 41  1  0  0  0
 41 42  1  0  0  0
 42 43  1  0  0  0
 43 44  1  0  0  0
 44 45  1  0  0  0
 45 46  1  0  0  0
 46 47  1  0  0  0
 47 48  2  0  0  0
 48 49  1  0  0  0
 49 50  1  0  0  0
 50 51  1  0  0  0
 51 52  1  0  0  0
 52 53  1  0  0  0
 53 54  1  0  0  0
 54 55  1  0  0  0
 55 56  1  0  0  0
M  CHG 1  26  -1
M  END
> <minimizedAffinity>
-9.01321

> <CNNscore>
0.5820257068

> <CNNaffinity>
7.5781350136

> <CNN_VS>
4.4106693268

> <CNNaffinity_variance>
1.2342481613

$$$$
/media/chris/experiments/cd1a-new-docking/inputs/ligands/7sh4_ligand.pdb


 56 55  0  0  0  0  0  0  0  0999 V2000
  -39.9189   60.4947   64.7107 C   0  0  0  0  0  0  0  0  0  0  0  0
  -40.4565   60.6011   63.3116 C   0  0  0  0  0  0  0  0  0  0  0  0
  -41.3868   61.7025   63.3777 O   0  0  0  0  0  0  0  0  0  0  0  0
  -42.6734   62.0716   61.5866 O   0  0  0  0  0  0  0  0  0  0  0  0
  -42.5130   61.5851   62.6735 C   0  0  0  0  0  0  0  0  0  0  0  0
  -43.4883   60.6717   63.3583 C   0  0  0  0  0  0  0  0  0  0  0  0
  -44.5028   61.3899   64.2321 C   0  0  0  0  0  0  0  0  0  0  0  0
  -45.2158   60.4584   65.1894 C   0  0  0  0  0  0  0  0  0  0  0  0
  -45.9674   59.3334   64.5145 C   0  0  0  0  0  0  0  0  0  0  0  0
  -46.9198   58.6128   65.4472 C   0  0  0  0  0  0  0  0  0  0  0  0
  -47.7724   59.5506   66.2663 C   0  0  0  0  0  0  0  0  0  0  0  0
  -48.8013   60.2804   65.4438 C   0  0  0  0  0  0  0  0  0  0  0  0
  -50.0856   59.5024   65.2611 C   0  0  0  0  0  0  0  0  0  0  0  0
  -51.1912   60.3344   64.6433 C   0  0  0  0  0  0  0  0  0  0  0  0
  -51.4263   60.0559   63.1734 C   0  0  0  0  0  0  0  0  0  0  0  0
  -51.0027   58.6584   62.7358 C   0  0  0  0  0  0  0  0  0  0  0  0
  -50.3307   58.6155   61.3768 C   0  0  0  0  0  0  0  0  0  0  0  0
  -50.0006   57.2116   60.9125 C   0  0  0  0  0  0  0  0  0  0  0  0
  -49.1789   57.1699   59.6317 C   0  0  0  0  0  0  0  0  0  0  0  0
  -48.5843   58.5129   59.2471 C   0  0  0  0  0  0  0  0  0  0  0  0
  -47.0877   57.0968   57.8013 C   0  0  0  0  0  0  0  0  0  0  0  0
  -47.6553   58.4760   58.0485 C   0  0  0  0  0  0  0  0  0  0  0  0
  -38.4165   60.6083   64.7501 C   0  0  0  0  0  0  0  0  0  0  0  0
  -38.0539   62.0060   64.6904 O   0  0  0  0  0  0  0  0  0  0  0  0
  -36.6954   62.5218   64.0196 P   0  0  0  0  0  0  0  0  0  0  0  0
  -36.1634   61.4354   63.1690 O   0  0  0  0  0  0  0  0  0  0  0  0
  -36.9581   63.8449   63.4038 O   0  0  0  0  0  0  0  0  0  0  0  0
  -37.5741   63.7396   62.6620 H   0  0  0  0  0  0  0  0  0  0  0  0
  -35.6815   62.7380   65.2312 O   0  0  0  0  0  0  0  0  0  0  0  0
  -35.7695   63.9274   66.0421 C   0  0  0  0  0  0  0  0  0  0  0  0
  -34.0264   63.2307   67.5316 O   0  0  0  0  0  0  0  0  0  0  0  0
  -34.3954   64.2367   66.5837 C   0  0  0  0  0  0  0  0  0  0  0  0
  -34.7008   63.1785   68.2269 H   0  0  0  0  0  0  0  0  0  0  0  0
  -33.4491   65.5789   64.8171 O   0  0  0  0  0  0  0  0  0  0  0  0
  -33.3556   64.3315   65.4931 C   0  0  0  0  0  0  0  0  0  0  0  0
  -32.7743   65.6209   64.1214 H   0  0  0  0  0  0  0  0  0  0  0  0
  -40.3817   59.2288   65.2879 O   0  0  0  0  0  0  0  0  0  0  0  0
  -41.9144   60.2551   66.5754 O   0  0  0  0  0  0  0  0  0  0  0  0
  -41.5099   59.2690   66.0224 C   0  0  0  0  0  0  0  0  0  0  0  0
  -42.2074   57.9444   66.0514 C   0  0  0  0  0  0  0  0  0  0  0  0
  -42.5328   57.4532   64.6444 C   0  0  0  0  0  0  0  0  0  0  0  0
  -41.8177   56.1685   64.2593 C   0  0  0  0  0  0  0  0  0  0  0  0
  -41.5674   56.0354   62.7615 C   0  0  0  0  0  0  0  0  0  0  0  0
  -41.3877   57.3612   62.0458 C   0  0  0  0  0  0  0  0  0  0  0  0
  -41.4499   57.2737   60.5183 C   0  0  0  0  0  0  0  0  0  0  0  0
  -40.9984   58.5325   59.7745 C   0  0  0  0  0  0  0  0  0  0  0  0
  -39.7359   58.3075   58.9978 C   0  0  0  0  0  0  0  0  0  0  0  0
  -38.5051   58.5382   59.4118 C   0  0  0  0  0  0  0  0  0  0  0  0
  -38.1104   59.0746   60.7516 C   0  0  0  0  0  0  0  0  0  0  0  0
  -37.8374   57.9667   61.7648 C   0  0  0  0  0  0  0  0  0  0  0  0
  -36.4990   58.1016   62.4697 C   0  0  0  0  0  0  0  0  0  0  0  0
  -36.5287   57.6633   63.9238 C   0  0  0  0  0  0  0  0  0  0  0  0
  -35.1620   57.5736   64.5824 C   0  0  0  0  0  0  0  0  0  0  0  0
  -34.4257   58.9036   64.6328 C   0  0  0  0  0  0  0  0  0  0  0  0
  -33.0234   58.8603   64.0589 C   0  0  0  0  0  0  0  0  0  0  0  0
  -32.9977   59.0662   62.5701 C   0  0  0  0  0  0  0  0  0  0  0  0
 21 22  1  0  0  0
  4  5  2  0  0  0
 25 24  1  0  0  0
 25 26  2  0  0  0
 25 27  1  0  0  0
 25 29  1  0  0  0
 22 20  1  0  0  0
  3  5  1  0  0  0
  3  2  1  0  0  0
 20 19  1  0  0  0
 24 23  1  0  0  0
 19 18  1  0  0  0
 18 17  1  0  0  0
 27 28  1  0  0  0
 17 16  1  0  0  0
 29 30  1  0  0  0
 16 15  1  0  0  0
 34 35  1  0  0  0
 34 36  1  0  0  0
 15 14  1  0  0  0
 31 32  1  0  0  0
 31 33  1  0  0  0
 14 13  1  0  0  0
 37  1  1  0  0  0
 37 39  1  0  0  0
 13 12  1  0  0  0
 38 39  2  0  0  0
 12 11  1  0  0  0
 11 10  1  0  0  0
 10  9  1  0  0  0
  9  8  1  0  0  0
  8  7  1  0  0  0
  7  6  1  0  0  0
  6  5  1  0  0  0
  2  1  1  0  0  0
  1 23  1  0  0  0
 30 32  1  0  0  0
 32 35  1  0  0  0
 39 40  1  0  0  0
 40 41  1  0  0  0
 41 42  1  0  0  0
 42 43  1  0  0  0
 43 44  1  0  0  0
 44 45  1  0  0  0
 45 46  1  0  0  0
 46 47  1  0  0  0
 47 48  2  0  0  0
 48 49  1  0  0  0
 49 50  1  0  0  0
 50 51  1  0  0  0
 51 52  1  0  0  0
 52 53  1  0  0  0
 53 54  1  0  0  0
 54 55  1  0  0  0
 55 56  1  0  0  0
M  CHG 1  26  -1
M  END
> <minimizedAffinity>
-8.75210

> <CNNscore>
0.5354261398

> <CNNaffinity>
7.6942458153

> <CNN_VS>
4.1197004318

> <CNNaffinity_variance>
1.5059770346

$$$$
/media/chris/experiments/cd1a-new-docking/inputs/ligands/7sh4_ligand.pdb


 56 55  0  0  0  0  0  0  0  0999 V2000
  -36.4708   61.7181   63.9491 C   0  0  0  0  0  0  0  0  0  0  0  0
  -37.7275   61.4192   64.7165 C   0  0  0  0  0  0  0  0  0  0  0  0
  -38.7675   61.4701   63.7170 O   0  0  0  0  0  0  0  0  0  0  0  0
  -40.3337   60.9050   65.2094 O   0  0  0  0  0  0  0  0  0  0  0  0
  -39.9674   61.0078   64.0697 C   0  0  0  0  0  0  0  0  0  0  0  0
  -40.8282   60.7580   62.8650 C   0  0  0  0  0  0  0  0  0  0  0  0
  -42.2647   60.3888   63.1945 C   0  0  0  0  0  0  0  0  0  0  0  0
  -43.1916   61.5861   63.1985 C   0  0  0  0  0  0  0  0  0  0  0  0
  -44.1655   61.6115   64.3546 C   0  0  0  0  0  0  0  0  0  0  0  0
  -44.9756   60.3367   64.4762 C   0  0  0  0  0  0  0  0  0  0  0  0
  -46.4637   60.5668   64.3760 C   0  0  0  0  0  0  0  0  0  0  0  0
  -47.2389   59.3013   64.1206 C   0  0  0  0  0  0  0  0  0  0  0  0
  -48.4041   59.1099   65.0659 C   0  0  0  0  0  0  0  0  0  0  0  0
  -49.5833   58.4207   64.4097 C   0  0  0  0  0  0  0  0  0  0  0  0
  -50.1692   59.1804   63.2378 C   0  0  0  0  0  0  0  0  0  0  0  0
  -50.9768   58.3102   62.2815 C   0  0  0  0  0  0  0  0  0  0  0  0
  -50.2767   58.0265   60.9663 C   0  0  0  0  0  0  0  0  0  0  0  0
  -49.4419   59.1877   60.4660 C   0  0  0  0  0  0  0  0  0  0  0  0
  -48.6223   58.8602   59.2256 C   0  0  0  0  0  0  0  0  0  0  0  0
  -49.1292   57.6479   58.4649 C   0  0  0  0  0  0  0  0  0  0  0  0
  -47.0669   58.0726   57.0857 C   0  0  0  0  0  0  0  0  0  0  0  0
  -48.1589   57.0894   57.4414 C   0  0  0  0  0  0  0  0  0  0  0  0
  -36.5860   62.9888   63.1468 C   0  0  0  0  0  0  0  0  0  0  0  0
  -35.3012   63.2828   62.5541 O   0  0  0  0  0  0  0  0  0  0  0  0
  -34.1069   63.9698   63.3687 P   0  0  0  0  0  0  0  0  0  0  0  0
  -33.2256   62.8983   63.8803 O   0  0  0  0  0  0  0  0  0  0  0  0
  -33.5176   65.0308   62.5166 O   0  0  0  0  0  0  0  0  0  0  0  0
  -33.0889   64.6259   61.7464 H   0  0  0  0  0  0  0  0  0  0  0  0
  -34.7998   64.6750   64.6198 O   0  0  0  0  0  0  0  0  0  0  0  0
  -34.3222   64.4083   65.9542 C   0  0  0  0  0  0  0  0  0  0  0  0
  -36.7019   64.6027   66.1578 O   0  0  0  0  0  0  0  0  0  0  0  0
  -35.5158   64.2136   66.8567 C   0  0  0  0  0  0  0  0  0  0  0  0
  -36.6100   65.5177   65.8493 H   0  0  0  0  0  0  0  0  0  0  0  0
  -36.2827   62.7488   68.6130 O   0  0  0  0  0  0  0  0  0  0  0  0
  -35.6415   62.7903   67.3445 C   0  0  0  0  0  0  0  0  0  0  0  0
  -36.3542   61.8279   68.9091 H   0  0  0  0  0  0  0  0  0  0  0  0
  -36.1654   60.5650   63.0964 O   0  0  0  0  0  0  0  0  0  0  0  0
  -34.0380   59.8816   62.8372 O   0  0  0  0  0  0  0  0  0  0  0  0
  -35.0842   59.8322   63.4246 C   0  0  0  0  0  0  0  0  0  0  0  0
  -35.3365   58.9642   64.6183 C   0  0  0  0  0  0  0  0  0  0  0  0
  -36.0767   57.6870   64.2341 C   0  0  0  0  0  0  0  0  0  0  0  0
  -37.5639   57.7191   64.5455 C   0  0  0  0  0  0  0  0  0  0  0  0
  -38.4390   57.9489   63.3186 C   0  0  0  0  0  0  0  0  0  0  0  0
  -37.7840   57.5481   62.0099 C   0  0  0  0  0  0  0  0  0  0  0  0
  -37.6768   58.6763   60.9800 C   0  0  0  0  0  0  0  0  0  0  0  0
  -38.4459   58.4449   59.6775 C   0  0  0  0  0  0  0  0  0  0  0  0
  -39.6447   59.3380   59.5631 C   0  0  0  0  0  0  0  0  0  0  0  0
  -40.9080   58.9799   59.6878 C   0  0  0  0  0  0  0  0  0  0  0  0
  -41.4103   57.5997   59.9726 C   0  0  0  0  0  0  0  0  0  0  0  0
  -41.5166   57.3160   61.4681 C   0  0  0  0  0  0  0  0  0  0  0  0
  -41.3827   55.8448   61.8204 C   0  0  0  0  0  0  0  0  0  0  0  0
  -41.3373   55.5773   63.3150 C   0  0  0  0  0  0  0  0  0  0  0  0
  -41.7226   56.7663   64.1794 C   0  0  0  0  0  0  0  0  0  0  0  0
  -43.1513   56.7008   64.6973 C   0  0  0  0  0  0  0  0  0  0  0  0
  -43.4010   57.5316   65.9404 C   0  0  0  0  0  0  0  0  0  0  0  0
  -42.1923   58.3162   66.3679 C   0  0  0  0  0  0  0  0  0  0  0  0
 21 22  1  0  0  0
  4  5  2  0  0  0
 25 24  1  0  0  0
 25 26  2  0  0  0
 25 27  1  0  0  0
 25 29  1  0  0  0
 22 20  1  0  0  0
  3  5  1  0  0  0
  3  2  1  0  0  0
 20 19  1  0  0  0
 24 23  1  0  0  0
 19 18  1  0  0  0
 18 17  1  0  0  0
 27 28  1  0  0  0
 17 16  1  0  0  0
 29 30  1  0  0  0
 16 15  1  0  0  0
 34 35  1  0  0  0
 34 36  1  0  0  0
 15 14  1  0  0  0
 31 32  1  0  0  0
 31 33  1  0  0  0
 14 13  1  0  0  0
 37  1  1  0  0  0
 37 39  1  0  0  0
 13 12  1  0  0  0
 38 39  2  0  0  0
 12 11  1  0  0  0
 11 10  1  0  0  0
 10  9  1  0  0  0
  9  8  1  0  0  0
  8  7  1  0  0  0
  7  6  1  0  0  0
  6  5  1  0  0  0
  2  1  1  0  0  0
  1 23  1  0  0  0
 30 32  1  0  0  0
 32 35  1  0  0  0
 39 40  1  0  0  0
 40 41  1  0  0  0
 41 42  1  0  0  0
 42 43  1  0  0  0
 43 44  1  0  0  0
 44 45  1  0  0  0
 45 46  1  0  0  0
 46 47  1  0  0  0
 47 48  2  0  0  0
 48 49  1  0  0  0
 49 50  1  0  0  0
 50 51  1  0  0  0
 51 52  1  0  0  0
 52 53  1  0  0  0
 53 54  1  0  0  0
 54 55  1  0  0  0
 55 56  1  0  0  0
M  CHG 1  26  -1
M  END
> <minimizedAffinity>
-8.36127

> <CNNscore>
0.3933606148

> <CNNaffinity>
7.6530151367

> <CNN_VS>
3.0103948116

> <CNNaffinity_variance>
0.8438935280

$$$$
/media/chris/experiments/cd1a-new-docking/inputs/ligands/7sh4_ligand.pdb


 56 55  0  0  0  0  0  0  0  0999 V2000
  -40.3990   60.0625   65.2934 C   0  0  0  0  0  0  0  0  0  0  0  0
  -40.3045   58.5897   65.0115 C   0  0  0  0  0  0  0  0  0  0  0  0
  -41.6181   58.0871   65.3354 O   0  0  0  0  0  0  0  0  0  0  0  0
  -41.4643   56.5658   63.7038 O   0  0  0  0  0  0  0  0  0  0  0  0
  -42.1048   57.1216   64.5550 C   0  0  0  0  0  0  0  0  0  0  0  0
  -43.4992   56.7441   64.9648 C   0  0  0  0  0  0  0  0  0  0  0  0
  -44.0945   57.6397   66.0382 C   0  0  0  0  0  0  0  0  0  0  0  0
  -45.4951   58.1064   65.7019 C   0  0  0  0  0  0  0  0  0  0  0  0
  -45.9982   59.2341   66.5742 C   0  0  0  0  0  0  0  0  0  0  0  0
  -47.3021   59.8288   66.0818 C   0  0  0  0  0  0  0  0  0  0  0  0
  -47.2109   60.3820   64.6807 C   0  0  0  0  0  0  0  0  0  0  0  0
  -48.5587   60.6052   64.0473 C   0  0  0  0  0  0  0  0  0  0  0  0
  -49.7140   60.3639   64.9935 C   0  0  0  0  0  0  0  0  0  0  0  0
  -51.0453   60.2594   64.2773 C   0  0  0  0  0  0  0  0  0  0  0  0
  -50.9281   59.9984   62.7901 C   0  0  0  0  0  0  0  0  0  0  0  0
  -51.1737   58.5457   62.3985 C   0  0  0  0  0  0  0  0  0  0  0  0
  -49.9140   57.7851   62.0313 C   0  0  0  0  0  0  0  0  0  0  0  0
  -49.1195   58.4378   60.9186 C   0  0  0  0  0  0  0  0  0  0  0  0
  -49.8192   58.4019   59.5670 C   0  0  0  0  0  0  0  0  0  0  0  0
  -48.9580   57.8368   58.4517 C   0  0  0  0  0  0  0  0  0  0  0  0
  -46.9372   58.0834   56.9714 C   0  0  0  0  0  0  0  0  0  0  0  0
  -47.7009   58.6322   58.1552 C   0  0  0  0  0  0  0  0  0  0  0  0
  -39.0774   60.6414   65.7295 C   0  0  0  0  0  0  0  0  0  0  0  0
  -38.4835   61.3388   64.6117 O   0  0  0  0  0  0  0  0  0  0  0  0
  -37.1253   62.1765   64.7347 P   0  0  0  0  0  0  0  0  0  0  0  0
  -37.2719   63.1240   65.8605 O   0  0  0  0  0  0  0  0  0  0  0  0
  -35.9927   61.2194   64.7519 O   0  0  0  0  0  0  0  0  0  0  0  0
  -36.0293   60.6899   65.5638 H   0  0  0  0  0  0  0  0  0  0  0  0
  -37.0290   63.0251   63.3881 O   0  0  0  0  0  0  0  0  0  0  0  0
  -36.0632   64.0901   63.2739 C   0  0  0  0  0  0  0  0  0  0  0  0
  -35.9311   63.9447   60.8856 O   0  0  0  0  0  0  0  0  0  0  0  0
  -35.1731   63.8002   62.0903 C   0  0  0  0  0  0  0  0  0  0  0  0
  -36.7085   63.3656   60.9212 H   0  0  0  0  0  0  0  0  0  0  0  0
  -32.8756   64.0456   61.3976 O   0  0  0  0  0  0  0  0  0  0  0  0
  -33.9579   64.6954   62.0519 C   0  0  0  0  0  0  0  0  0  0  0  0
  -32.1056   64.6353   61.3829 H   0  0  0  0  0  0  0  0  0  0  0  0
  -41.4419   60.2733   66.3022 O   0  0  0  0  0  0  0  0  0  0  0  0
  -42.2980   62.3217   66.6648 O   0  0  0  0  0  0  0  0  0  0  0  0
  -42.3148   61.2742   66.0780 C   0  0  0  0  0  0  0  0  0  0  0  0
  -43.2949   60.9321   64.9989 C   0  0  0  0  0  0  0  0  0  0  0  0
  -42.9614   61.6477   63.6938 C   0  0  0  0  0  0  0  0  0  0  0  0
  -42.6256   60.7105   62.5453 C   0  0  0  0  0  0  0  0  0  0  0  0
  -41.2454   60.9519   61.9449 C   0  0  0  0  0  0  0  0  0  0  0  0
  -41.1568   60.6490   60.4607 C   0  0  0  0  0  0  0  0  0  0  0  0
  -40.8754   59.1814   60.1261 C   0  0  0  0  0  0  0  0  0  0  0  0
  -39.4103   58.7556   60.2432 C   0  0  0  0  0  0  0  0  0  0  0  0
  -39.2527   57.4804   61.0158 C   0  0  0  0  0  0  0  0  0  0  0  0
  -38.3516   57.2295   61.9457 C   0  0  0  0  0  0  0  0  0  0  0  0
  -37.2938   58.1717   62.4268 C   0  0  0  0  0  0  0  0  0  0  0  0
  -36.9272   57.9377   63.8895 C   0  0  0  0  0  0  0  0  0  0  0  0
  -35.4347   57.7879   64.1274 C   0  0  0  0  0  0  0  0  0  0  0  0
  -34.6434   57.4866   62.8663 C   0  0  0  0  0  0  0  0  0  0  0  0
  -33.7101   58.6027   62.4269 C   0  0  0  0  0  0  0  0  0  0  0  0
  -32.3958   58.6295   63.1921 C   0  0  0  0  0  0  0  0  0  0  0  0
  -31.6311   59.9325   63.0695 C   0  0  0  0  0  0  0  0  0  0  0  0
  -31.4774   60.3847   61.6442 C   0  0  0  0  0  0  0  0  0  0  0  0
 21 22  1  0  0  0
  4  5  2  0  0  0
 25 24  1  0  0  0
 25 26  2  0  0  0
 25 27  1  0  0  0
 25 29  1  0  0  0
 22 20  1  0  0  0
  3  5  1  0  0  0
  3  2  1  0  0  0
 20 19  1  0  0  0
 24 23  1  0  0  0
 19 18  1  0  0  0
 18 17  1  0  0  0
 27 28  1  0  0  0
 17 16  1  0  0  0
 29 30  1  0  0  0
 16 15  1  0  0  0
 34 35  1  0  0  0
 34 36  1  0  0  0
 15 14  1  0  0  0
 31 32  1  0  0  0
 31 33  1  0  0  0
 14 13  1  0  0  0
 37  1  1  0  0  0
 37 39  1  0  0  0
 13 12  1  0  0  0
 38 39  2  0  0  0
 12 11  1  0  0  0
 11 10  1  0  0  0
 10  9  1  0  0  0
  9  8  1  0  0  0
  8  7  1  0  0  0
  7  6  1  0  0  0
  6  5  1  0  0  0
  2  1  1  0  0  0
  1 23  1  0  0  0
 30 32  1  0  0  0
 32 35  1  0  0  0
 39 40  1  0  0  0
 40 41  1  0  0  0
 41 42  1  0  0  0
 42 43  1  0  0  0
 43 44  1  0  0  0
 44 45  1  0  0  0
 45 46  1  0  0  0
 46 47  1  0  0  0
 47 48  2  0  0  0
 48 49  1  0  0  0
 49 50  1  0  0  0
 50 51  1  0  0  0
 51 52  1  0  0  0
 52 53  1  0  0  0
 53 54  1  0  0  0
 54 55  1  0  0  0
 55 56  1  0  0  0
M  CHG 1  26  -1
M  END
> <minimizedAffinity>
-8.41391

> <CNNscore>
0.3838553429

> <CNNaffinity>
7.4685974121

> <CNN_VS>
2.8668611050

> <CNNaffinity_variance>
1.3927386999

$$$$
/media/chris/experiments/cd1a-new-docking/inputs/ligands/7sh4_ligand.pdb


 56 55  0  0  0  0  0  0  0  0999 V2000
  -41.3088   58.7475   62.3136 C   0  0  0  0  0  0  0  0  0  0  0  0
  -42.4260   58.1045   63.0856 C   0  0  0  0  0  0  0  0  0  0  0  0
  -43.2217   59.2188   63.5419 O   0  0  0  0  0  0  0  0  0  0  0  0
  -43.7233   60.0684   65.5485 O   0  0  0  0  0  0  0  0  0  0  0  0
  -43.7110   59.1447   64.7801 C   0  0  0  0  0  0  0  0  0  0  0  0
  -44.3479   57.8086   65.0328 C   0  0  0  0  0  0  0  0  0  0  0  0
  -45.0829   57.7125   66.3591 C   0  0  0  0  0  0  0  0  0  0  0  0
  -46.5649   57.9945   66.2299 C   0  0  0  0  0  0  0  0  0  0  0  0
  -46.9923   59.3310   66.7929 C   0  0  0  0  0  0  0  0  0  0  0  0
  -47.9143   60.0976   65.8665 C   0  0  0  0  0  0  0  0  0  0  0  0
  -47.3777   60.2189   64.4612 C   0  0  0  0  0  0  0  0  0  0  0  0
  -48.4640   60.3086   63.4222 C   0  0  0  0  0  0  0  0  0  0  0  0
  -49.7988   60.7437   63.9853 C   0  0  0  0  0  0  0  0  0  0  0  0
  -50.8840   59.7045   63.7884 C   0  0  0  0  0  0  0  0  0  0  0  0
  -50.4002   58.4190   63.1503 C   0  0  0  0  0  0  0  0  0  0  0  0
  -51.1483   58.0443   61.8761 C   0  0  0  0  0  0  0  0  0  0  0  0
  -50.2753   57.4015   60.8155 C   0  0  0  0  0  0  0  0  0  0  0  0
  -50.1278   58.2445   59.5652 C   0  0  0  0  0  0  0  0  0  0  0  0
  -48.6824   58.5709   59.2163 C   0  0  0  0  0  0  0  0  0  0  0  0
  -47.7691   57.3580   59.2135 C   0  0  0  0  0  0  0  0  0  0  0  0
  -47.0083   58.4042   57.0542 C   0  0  0  0  0  0  0  0  0  0  0  0
  -46.9373   57.1926   57.9558 C   0  0  0  0  0  0  0  0  0  0  0  0
  -41.1873   60.2195   62.6135 C   0  0  0  0  0  0  0  0  0  0  0  0
  -39.8295   60.5009   63.0203 O   0  0  0  0  0  0  0  0  0  0  0  0
  -39.3482   60.4286   64.5451 P   0  0  0  0  0  0  0  0  0  0  0  0
  -40.4400   60.9502   65.3952 O   0  0  0  0  0  0  0  0  0  0  0  0
  -38.8358   59.0612   64.8030 O   0  0  0  0  0  0  0  0  0  0  0  0
  -39.5667   58.4260   64.7455 H   0  0  0  0  0  0  0  0  0  0  0  0
  -38.1194   61.4396   64.6486 O   0  0  0  0  0  0  0  0  0  0  0  0
  -37.4097   61.5874   65.8954 C   0  0  0  0  0  0  0  0  0  0  0  0
  -37.0601   63.9312   65.5389 O   0  0  0  0  0  0  0  0  0  0  0  0
  -36.3861   62.6843   65.7330 C   0  0  0  0  0  0  0  0  0  0  0  0
  -37.6582   63.8605   64.7785 H   0  0  0  0  0  0  0  0  0  0  0  0
  -36.1766   62.7351   68.1355 O   0  0  0  0  0  0  0  0  0  0  0  0
  -35.4500   62.7763   66.9140 C   0  0  0  0  0  0  0  0  0  0  0  0
  -35.5592   62.7953   68.8812 H   0  0  0  0  0  0  0  0  0  0  0  0
  -41.5338   58.5024   60.8856 O   0  0  0  0  0  0  0  0  0  0  0  0
  -40.4116   58.2268   58.9556 O   0  0  0  0  0  0  0  0  0  0  0  0
  -40.4636   58.1407   60.1521 C   0  0  0  0  0  0  0  0  0  0  0  0
  -39.3423   57.6370   61.0071 C   0  0  0  0  0  0  0  0  0  0  0  0
  -38.0046   58.2355   60.5840 C   0  0  0  0  0  0  0  0  0  0  0  0
  -37.1390   58.6934   61.7463 C   0  0  0  0  0  0  0  0  0  0  0  0
  -36.6170   57.5479   62.6061 C   0  0  0  0  0  0  0  0  0  0  0  0
  -35.2112   57.7641   63.1345 C   0  0  0  0  0  0  0  0  0  0  0  0
  -35.1404   58.5168   64.4662 C   0  0  0  0  0  0  0  0  0  0  0  0
  -33.8686   59.3398   64.6827 C   0  0  0  0  0  0  0  0  0  0  0  0
  -32.6826   58.7400   63.9887 C   0  0  0  0  0  0  0  0  0  0  0  0
  -31.9592   59.3010   63.0392 C   0  0  0  0  0  0  0  0  0  0  0  0
  -32.1722   60.6616   62.4548 C   0  0  0  0  0  0  0  0  0  0  0  0
  -30.9980   61.1150   61.5921 C   0  0  0  0  0  0  0  0  0  0  0  0
  -29.6752   60.4772   61.9792 C   0  0  0  0  0  0  0  0  0  0  0  0
  -28.5104   61.4520   61.9974 C   0  0  0  0  0  0  0  0  0  0  0  0
  -28.8852   62.8872   61.6666 C   0  0  0  0  0  0  0  0  0  0  0  0
  -28.6863   63.8482   62.8287 C   0  0  0  0  0  0  0  0  0  0  0  0
  -29.9671   64.4728   63.3455 C   0  0  0  0  0  0  0  0  0  0  0  0
  -30.0616   64.4492   64.8455 C   0  0  0  0  0  0  0  0  0  0  0  0
 21 22  1  0  0  0
  4  5  2  0  0  0
 25 24  1  0  0  0
 25 26  2  0  0  0
 25 27  1  0  0  0
 25 29  1  0  0  0
 22 20  1  0  0  0
  3  5  1  0  0  0
  3  2  1  0  0  0
 20 19  1  0  0  0
 24 23  1  0  0  0
 19 18  1  0  0  0
 18 17  1  0  0  0
 27 28  1  0  0  0
 17 16  1  0  0  0
 29 30  1  0  0  0
 16 15  1  0  0  0
 34 35  1  0  0  0
 34 36  1  0  0  0
 15 14  1  0  0  0
 31 32  1  0  0  0
 31 33  1  0  0  0
 14 13  1  0  0  0
 37  1  1  0  0  0
 37 39  1  0  0  0
 13 12  1  0  0  0
 38 39  2  0  0  0
 12 11  1  0  0  0
 11 10  1  0  0  0
 10  9  1  0  0  0
  9  8  1  0  0  0
  8  7  1  0  0  0
  7  6  1  0  0  0
  6  5  1  0  0  0
  2  1  1  0  0  0
  1 23  1  0  0  0
 30 32  1  0  0  0
 32 35  1  0  0  0
 39 40  1  0  0  0
 40 41  1  0  0  0
 41 42  1  0  0  0
 42 43  1  0  0  0
 43 44  1  0  0  0
 44 45  1  0  0  0
 45 46  1  0  0  0
 46 47  1  0  0  0
 47 48  2  0  0  0
 48 49  1  0  0  0
 49 50  1  0  0  0
 50 51  1  0  0  0
 51 52  1  0  0  0
 52 53  1  0  0  0
 53 54  1  0  0  0
 54 55  1  0  0  0
 55 56  1  0  0  0
M  CHG 1  26  -1
M  END
> <minimizedAffinity>
-8.50095

> <CNNscore>
0.3769704103

> <CNNaffinity>
6.7774214745

> <CNN_VS>
2.5548872948

> <CNNaffinity_variance>
0.6883025169

$$$$
/media/chris/experiments/cd1a-new-docking/inputs/ligands/7sh4_ligand.pdb


 56 55  0  0  0  0  0  0  0  0999 V2000
  -40.6833   59.8339   65.3813 C   0  0  0  0  0  0  0  0  0  0  0  0
  -40.5886   58.3448   65.2047 C   0  0  0  0  0  0  0  0  0  0  0  0
  -41.8298   57.8489   65.7491 O   0  0  0  0  0  0  0  0  0  0  0  0
  -42.1672   55.9964   64.5433 O   0  0  0  0  0  0  0  0  0  0  0  0
  -42.5570   57.0513   64.9662 C   0  0  0  0  0  0  0  0  0  0  0  0
  -43.9503   57.5841   64.7935 C   0  0  0  0  0  0  0  0  0  0  0  0
  -44.7743   57.5915   66.0700 C   0  0  0  0  0  0  0  0  0  0  0  0
  -45.9650   58.5238   65.9936 C   0  0  0  0  0  0  0  0  0  0  0  0
  -46.1868   59.1345   64.6284 C   0  0  0  0  0  0  0  0  0  0  0  0
  -47.6240   59.0327   64.1592 C   0  0  0  0  0  0  0  0  0  0  0  0
  -48.4961   58.2234   65.0877 C   0  0  0  0  0  0  0  0  0  0  0  0
  -49.7848   58.9185   65.4395 C   0  0  0  0  0  0  0  0  0  0  0  0
  -50.0360   60.1667   64.6228 C   0  0  0  0  0  0  0  0  0  0  0  0
  -51.1806   60.0048   63.6431 C   0  0  0  0  0  0  0  0  0  0  0  0
  -50.7561   59.5256   62.2705 C   0  0  0  0  0  0  0  0  0  0  0  0
  -51.0919   58.0639   61.9973 C   0  0  0  0  0  0  0  0  0  0  0  0
  -50.2362   57.4262   60.9197 C   0  0  0  0  0  0  0  0  0  0  0  0
  -48.8779   58.0792   60.7646 C   0  0  0  0  0  0  0  0  0  0  0  0
  -48.0680   57.5329   59.5971 C   0  0  0  0  0  0  0  0  0  0  0  0
  -48.5199   58.0574   58.2458 C   0  0  0  0  0  0  0  0  0  0  0  0
  -47.0613   56.2592   57.2585 C   0  0  0  0  0  0  0  0  0  0  0  0
  -48.3069   57.0990   57.0894 C   0  0  0  0  0  0  0  0  0  0  0  0
  -39.3615   60.4427   65.7740 C   0  0  0  0  0  0  0  0  0  0  0  0
  -38.8968   61.2824   64.6935 O   0  0  0  0  0  0  0  0  0  0  0  0
  -37.3835   61.7908   64.5793 P   0  0  0  0  0  0  0  0  0  0  0  0
  -36.4990   60.7078   65.0604 O   0  0  0  0  0  0  0  0  0  0  0  0
  -37.1777   62.3237   63.2109 O   0  0  0  0  0  0  0  0  0  0  0  0
  -37.2428   61.5996   62.5688 H   0  0  0  0  0  0  0  0  0  0  0  0
  -37.2689   63.0091   65.6018 O   0  0  0  0  0  0  0  0  0  0  0  0
  -36.2436   64.0074   65.4225 C   0  0  0  0  0  0  0  0  0  0  0  0
  -36.3356   63.9578   67.8166 O   0  0  0  0  0  0  0  0  0  0  0  0
  -35.4511   64.1106   66.7025 C   0  0  0  0  0  0  0  0  0  0  0  0
  -37.0443   64.6176   67.7598 H   0  0  0  0  0  0  0  0  0  0  0  0
  -34.1015   62.5165   65.4962 O   0  0  0  0  0  0  0  0  0  0  0  0
  -34.3407   63.0902   66.7750 C   0  0  0  0  0  0  0  0  0  0  0  0
  -33.3862   61.8647   65.5629 H   0  0  0  0  0  0  0  0  0  0  0  0
  -41.7254   60.1157   66.3735 O   0  0  0  0  0  0  0  0  0  0  0  0
  -42.2767   62.2286   66.9138 O   0  0  0  0  0  0  0  0  0  0  0  0
  -42.4210   61.2588   66.2206 C   0  0  0  0  0  0  0  0  0  0  0  0
  -43.3805   61.1820   65.0736 C   0  0  0  0  0  0  0  0  0  0  0  0
  -43.0240   62.1826   63.9789 C   0  0  0  0  0  0  0  0  0  0  0  0
  -43.3955   61.7226   62.5787 C   0  0  0  0  0  0  0  0  0  0  0  0
  -42.2230   61.7258   61.6046 C   0  0  0  0  0  0  0  0  0  0  0  0
  -41.3430   60.4929   61.6944 C   0  0  0  0  0  0  0  0  0  0  0  0
  -42.1052   59.1800   61.8950 C   0  0  0  0  0  0  0  0  0  0  0  0
  -41.3485   57.9169   61.4783 C   0  0  0  0  0  0  0  0  0  0  0  0
  -41.2417   57.7881   59.9883 C   0  0  0  0  0  0  0  0  0  0  0  0
  -40.1992   58.1015   59.2437 C   0  0  0  0  0  0  0  0  0  0  0  0
  -38.8978   58.6529   59.7342 C   0  0  0  0  0  0  0  0  0  0  0  0
  -38.3404   57.8652   60.9162 C   0  0  0  0  0  0  0  0  0  0  0  0
  -37.4610   58.6910   61.8388 C   0  0  0  0  0  0  0  0  0  0  0  0
  -36.8469   57.8903   62.9741 C   0  0  0  0  0  0  0  0  0  0  0  0
  -35.3352   58.0051   63.0798 C   0  0  0  0  0  0  0  0  0  0  0  0
  -34.8092   57.7967   64.4918 C   0  0  0  0  0  0  0  0  0  0  0  0
  -33.6009   58.6443   64.8368 C   0  0  0  0  0  0  0  0  0  0  0  0
  -32.6560   58.8084   63.6793 C   0  0  0  0  0  0  0  0  0  0  0  0
 21 22  1  0  0  0
  4  5  2  0  0  0
 25 24  1  0  0  0
 25 26  2  0  0  0
 25 27  1  0  0  0
 25 29  1  0  0  0
 22 20  1  0  0  0
  3  5  1  0  0  0
  3  2  1  0  0  0
 20 19  1  0  0  0
 24 23  1  0  0  0
 19 18  1  0  0  0
 18 17  1  0  0  0
 27 28  1  0  0  0
 17 16  1  0  0  0
 29 30  1  0  0  0
 16 15  1  0  0  0
 34 35  1  0  0  0
 34 36  1  0  0  0
 15 14  1  0  0  0
 31 32  1  0  0  0
 31 33  1  0  0  0
 14 13  1  0  0  0
 37  1  1  0  0  0
 37 39  1  0  0  0
 13 12  1  0  0  0
 38 39  2  0  0  0
 12 11  1  0  0  0
 11 10  1  0  0  0
 10  9  1  0  0  0
  9  8  1  0  0  0
  8  7  1  0  0  0
  7  6  1  0  0  0
  6  5  1  0  0  0
  2  1  1  0  0  0
  1 23  1  0  0  0
 30 32  1  0  0  0
 32 35  1  0  0  0
 39 40  1  0  0  0
 40 41  1  0  0  0
 41 42  1  0  0  0
 42 43  1  0  0  0
 43 44  1  0  0  0
 44 45  1  0  0  0
 45 46  1  0  0  0
 46 47  1  0  0  0
 47 48  2  0  0  0
 48 49  1  0  0  0
 49 50  1  0  0  0
 50 51  1  0  0  0
 51 52  1  0  0  0
 52 53  1  0  0  0
 53 54  1  0  0  0
 54 55  1  0  0  0
 55 56  1  0  0  0
M  CHG 1  26  -1
M  END
> <minimizedAffinity>
-8.72899

> <CNNscore>
0.3575596511

> <CNNaffinity>
7.5514411926

> <CNN_VS>
2.7000906467

> <CNNaffinity_variance>
1.8205897808

$$$$
/media/chris/experiments/cd1a-new-docking/inputs/ligands/7sh4_ligand.pdb


 56 55  0  0  0  0  0  0  0  0999 V2000
  -37.8032   62.0294   63.5990 C   0  0  0  0  0  0  0  0  0  0  0  0
  -38.7082   61.3477   62.6122 C   0  0  0  0  0  0  0  0  0  0  0  0
  -40.0306   61.7834   62.9922 O   0  0  0  0  0  0  0  0  0  0  0  0
  -40.7525   60.1914   64.3866 O   0  0  0  0  0  0  0  0  0  0  0  0
  -40.8879   60.8404   63.3844 C   0  0  0  0  0  0  0  0  0  0  0  0
  -42.0889   60.7908   62.4846 C   0  0  0  0  0  0  0  0  0  0  0  0
  -43.1735   61.7932   62.8414 C   0  0  0  0  0  0  0  0  0  0  0  0
  -43.7801   61.5398   64.2054 C   0  0  0  0  0  0  0  0  0  0  0  0
  -45.2560   61.2132   64.1759 C   0  0  0  0  0  0  0  0  0  0  0  0
  -45.6083   59.9848   64.9901 C   0  0  0  0  0  0  0  0  0  0  0  0
  -46.9706   59.4249   64.6614 C   0  0  0  0  0  0  0  0  0  0  0  0
  -48.0934   60.3650   65.0120 C   0  0  0  0  0  0  0  0  0  0  0  0
  -49.0768   59.7826   66.0028 C   0  0  0  0  0  0  0  0  0  0  0  0
  -50.3703   59.3372   65.3511 C   0  0  0  0  0  0  0  0  0  0  0  0
  -50.9734   60.3609   64.4120 C   0  0  0  0  0  0  0  0  0  0  0  0
  -51.1614   59.8539   62.9867 C   0  0  0  0  0  0  0  0  0  0  0  0
  -50.7467   58.4087   62.7871 C   0  0  0  0  0  0  0  0  0  0  0  0
  -49.5505   58.2467   61.8714 C   0  0  0  0  0  0  0  0  0  0  0  0
  -49.5388   59.2239   60.7042 C   0  0  0  0  0  0  0  0  0  0  0  0
  -49.3731   58.5535   59.3520 C   0  0  0  0  0  0  0  0  0  0  0  0
  -47.5810   58.0948   57.6451 C   0  0  0  0  0  0  0  0  0  0  0  0
  -47.9942   57.9761   59.0945 C   0  0  0  0  0  0  0  0  0  0  0  0
  -36.7830   62.9065   62.9195 C   0  0  0  0  0  0  0  0  0  0  0  0
  -35.5071   62.2278   62.9273 O   0  0  0  0  0  0  0  0  0  0  0  0
  -34.1103   63.0073   62.9829 P   0  0  0  0  0  0  0  0  0  0  0  0
  -33.2710   62.3697   64.0200 O   0  0  0  0  0  0  0  0  0  0  0  0
  -33.5821   63.1068   61.6008 O   0  0  0  0  0  0  0  0  0  0  0  0
  -33.3565   62.2209   61.2764 H   0  0  0  0  0  0  0  0  0  0  0  0
  -34.4680   64.4804   63.4777 O   0  0  0  0  0  0  0  0  0  0  0  0
  -33.8344   65.0195   64.6558 C   0  0  0  0  0  0  0  0  0  0  0  0
  -32.5204   66.8763   65.4094 O   0  0  0  0  0  0  0  0  0  0  0  0
  -32.9722   66.1863   64.2405 C   0  0  0  0  0  0  0  0  0  0  0  0
  -33.2851   67.1456   65.9418 H   0  0  0  0  0  0  0  0  0  0  0  0
  -30.8299   65.0787   64.1929 O   0  0  0  0  0  0  0  0  0  0  0  0
  -31.7935   65.7593   63.3990 C   0  0  0  0  0  0  0  0  0  0  0  0
  -30.0817   64.8128   63.6357 H   0  0  0  0  0  0  0  0  0  0  0  0
  -37.1670   61.0013   64.4285 O   0  0  0  0  0  0  0  0  0  0  0  0
  -37.2378   62.0126   66.4367 O   0  0  0  0  0  0  0  0  0  0  0  0
  -37.4171   61.0431   65.7513 C   0  0  0  0  0  0  0  0  0  0  0  0
  -37.9617   59.7444   66.2601 C   0  0  0  0  0  0  0  0  0  0  0  0
  -38.0772   58.7112   65.1439 C   0  0  0  0  0  0  0  0  0  0  0  0
  -37.0469   57.5970   65.2265 C   0  0  0  0  0  0  0  0  0  0  0  0
  -35.7713   57.8867   64.4436 C   0  0  0  0  0  0  0  0  0  0  0  0
  -35.8030   57.3947   63.0086 C   0  0  0  0  0  0  0  0  0  0  0  0
  -36.2877   58.4311   61.9908 C   0  0  0  0  0  0  0  0  0  0  0  0
  -37.6570   58.1445   61.3706 C   0  0  0  0  0  0  0  0  0  0  0  0
  -37.7641   58.6699   59.9705 C   0  0  0  0  0  0  0  0  0  0  0  0
  -38.8704   59.0198   59.3433 C   0  0  0  0  0  0  0  0  0  0  0  0
  -40.2569   58.9661   59.9028 C   0  0  0  0  0  0  0  0  0  0  0  0
  -40.8767   57.5763   59.7903 C   0  0  0  0  0  0  0  0  0  0  0  0
  -41.6351   57.1447   61.0332 C   0  0  0  0  0  0  0  0  0  0  0  0
  -40.7620   56.4688   62.0765 C   0  0  0  0  0  0  0  0  0  0  0  0
  -41.1653   56.7519   63.5141 C   0  0  0  0  0  0  0  0  0  0  0  0
  -42.5593   57.3458   63.6463 C   0  0  0  0  0  0  0  0  0  0  0  0
  -43.2296   57.0694   64.9775 C   0  0  0  0  0  0  0  0  0  0  0  0
  -42.6194   57.8489   66.1087 C   0  0  0  0  0  0  0  0  0  0  0  0
 21 22  1  0  0  0
  4  5  2  0  0  0
 25 24  1  0  0  0
 25 26  2  0  0  0
 25 27  1  0  0  0
 25 29  1  0  0  0
 22 20  1  0  0  0
  3  5  1  0  0  0
  3  2  1  0  0  0
 20 19  1  0  0  0
 24 23  1  0  0  0
 19 18  1  0  0  0
 18 17  1  0  0  0
 27 28  1  0  0  0
 17 16  1  0  0  0
 29 30  1  0  0  0
 16 15  1  0  0  0
 34 35  1  0  0  0
 34 36  1  0  0  0
 15 14  1  0  0  0
 31 32  1  0  0  0
 31 33  1  0  0  0
 14 13  1  0  0  0
 37  1  1  0  0  0
 37 39  1  0  0  0
 13 12  1  0  0  0
 38 39  2  0  0  0
 12 11  1  0  0  0
 11 10  1  0  0  0
 10  9  1  0  0  0
  9  8  1  0  0  0
  8  7  1  0  0  0
  7  6  1  0  0  0
  6  5  1  0  0  0
  2  1  1  0  0  0
  1 23  1  0  0  0
 30 32  1  0  0  0
 32 35  1  0  0  0
 39 40  1  0  0  0
 40 41  1  0  0  0
 41 42  1  0  0  0
 42 43  1  0  0  0
 43 44  1  0  0  0
 44 45  1  0  0  0
 45 46  1  0  0  0
 46 47  1  0  0  0
 47 48  2  0  0  0
 48 49  1  0  0  0
 49 50  1  0  0  0
 50 51  1  0  0  0
 51 52  1  0  0  0
 52 53  1  0  0  0
 53 54  1  0  0  0
 54 55  1  0  0  0
 55 56  1  0  0  0
M  CHG 1  26  -1
M  END
> <minimizedAffinity>
-8.19431

> <CNNscore>
0.2903218269

> <CNNaffinity>
7.3181900978

> <CNN_VS>
2.1246302128

> <CNNaffinity_variance>
0.7110303640

$$$$
/media/chris/experiments/cd1a-new-docking/inputs/ligands/7sh4_ligand.pdb


 56 55  0  0  0  0  0  0  0  0999 V2000
  -40.0072   59.3194   64.1628 C   0  0  0  0  0  0  0  0  0  0  0  0
  -40.6201   59.5544   65.5144 C   0  0  0  0  0  0  0  0  0  0  0  0
  -42.0217   59.7527   65.2325 O   0  0  0  0  0  0  0  0  0  0  0  0
  -42.1568   61.7304   66.2672 O   0  0  0  0  0  0  0  0  0  0  0  0
  -42.6549   60.6856   65.9444 C   0  0  0  0  0  0  0  0  0  0  0  0
  -44.0910   60.3115   66.1735 C   0  0  0  0  0  0  0  0  0  0  0  0
  -44.9887   60.5281   64.9670 C   0  0  0  0  0  0  0  0  0  0  0  0
  -45.6098   59.2436   64.4603 C   0  0  0  0  0  0  0  0  0  0  0  0
  -47.1179   59.2823   64.3601 C   0  0  0  0  0  0  0  0  0  0  0  0
  -47.8020   58.3573   65.3462 C   0  0  0  0  0  0  0  0  0  0  0  0
  -49.2178   58.7711   65.6649 C   0  0  0  0  0  0  0  0  0  0  0  0
  -49.6155   60.0647   65.0045 C   0  0  0  0  0  0  0  0  0  0  0  0
  -51.1122   60.2302   64.8612 C   0  0  0  0  0  0  0  0  0  0  0  0
  -51.5429   60.4411   63.4237 C   0  0  0  0  0  0  0  0  0  0  0  0
  -50.6542   59.7574   62.4058 C   0  0  0  0  0  0  0  0  0  0  0  0
  -50.8491   58.2472   62.3336 C   0  0  0  0  0  0  0  0  0  0  0  0
  -50.6139   57.6608   60.9548 C   0  0  0  0  0  0  0  0  0  0  0  0
  -49.7278   58.5216   60.0776 C   0  0  0  0  0  0  0  0  0  0  0  0
  -48.6047   57.7490   59.4000 C   0  0  0  0  0  0  0  0  0  0  0  0
  -48.8098   57.5627   57.9072 C   0  0  0  0  0  0  0  0  0  0  0  0
  -46.7438   56.3317   57.1644 C   0  0  0  0  0  0  0  0  0  0  0  0
  -47.5391   57.6147   57.0805 C   0  0  0  0  0  0  0  0  0  0  0  0
  -39.5368   60.6009   63.5239 C   0  0  0  0  0  0  0  0  0  0  0  0
  -38.9711   61.4504   64.5470 O   0  0  0  0  0  0  0  0  0  0  0  0
  -37.3956   61.6822   64.7085 P   0  0  0  0  0  0  0  0  0  0  0  0
  -36.8415   60.5446   65.4737 O   0  0  0  0  0  0  0  0  0  0  0  0
  -36.8335   61.9813   63.3693 O   0  0  0  0  0  0  0  0  0  0  0  0
  -36.9099   61.1967   62.8041 H   0  0  0  0  0  0  0  0  0  0  0  0
  -37.2512   62.9934   65.6044 O   0  0  0  0  0  0  0  0  0  0  0  0
  -36.1777   63.9235   65.3543 C   0  0  0  0  0  0  0  0  0  0  0  0
  -36.2537   63.9360   67.7493 O   0  0  0  0  0  0  0  0  0  0  0  0
  -35.3806   64.0830   66.6256 C   0  0  0  0  0  0  0  0  0  0  0  0
  -36.9807   64.5743   67.6797 H   0  0  0  0  0  0  0  0  0  0  0  0
  -33.3441   63.4604   67.7584 O   0  0  0  0  0  0  0  0  0  0  0  0
  -34.2419   63.0959   66.7178 C   0  0  0  0  0  0  0  0  0  0  0  0
  -32.6207   62.8156   67.8020 H   0  0  0  0  0  0  0  0  0  0  0  0
  -40.9899   58.6253   63.3247 O   0  0  0  0  0  0  0  0  0  0  0  0
  -41.1088   58.3938   61.0903 O   0  0  0  0  0  0  0  0  0  0  0  0
  -40.5605   58.1653   62.1339 C   0  0  0  0  0  0  0  0  0  0  0  0
  -39.3100   57.3523   62.2649 C   0  0  0  0  0  0  0  0  0  0  0  0
  -38.2956   57.7092   61.1831 C   0  0  0  0  0  0  0  0  0  0  0  0
  -37.0100   58.3165   61.7199 C   0  0  0  0  0  0  0  0  0  0  0  0
  -36.7256   57.9556   63.1734 C   0  0  0  0  0  0  0  0  0  0  0  0
  -35.2862   57.5560   63.4396 C   0  0  0  0  0  0  0  0  0  0  0  0
  -34.2698   58.1455   62.4576 C   0  0  0  0  0  0  0  0  0  0  0  0
  -32.9305   58.5556   63.0738 C   0  0  0  0  0  0  0  0  0  0  0  0
  -32.8563   60.0303   63.3338 C   0  0  0  0  0  0  0  0  0  0  0  0
  -32.1470   60.9140   62.6587 C   0  0  0  0  0  0  0  0  0  0  0  0
  -31.2648   60.6269   61.4851 C   0  0  0  0  0  0  0  0  0  0  0  0
  -29.8064   60.4283   61.8878 C   0  0  0  0  0  0  0  0  0  0  0  0
  -29.2120   61.6130   62.6290 C   0  0  0  0  0  0  0  0  0  0  0  0
  -28.6671   62.6948   61.7124 C   0  0  0  0  0  0  0  0  0  0  0  0
  -29.0997   64.1054   62.0767 C   0  0  0  0  0  0  0  0  0  0  0  0
  -30.5855   64.2237   62.3804 C   0  0  0  0  0  0  0  0  0  0  0  0
  -31.4288   64.6621   61.1996 C   0  0  0  0  0  0  0  0  0  0  0  0
  -32.8479   64.1741   61.2855 C   0  0  0  0  0  0  0  0  0  0  0  0
 21 22  1  0  0  0
  4  5  2  0  0  0
 25 24  1  0  0  0
 25 26  2  0  0  0
 25 27  1  0  0  0
 25 29  1  0  0  0
 22 20  1  0  0  0
  3  5  1  0  0  0
  3  2  1  0  0  0
 20 19  1  0  0  0
 24 23  1  0  0  0
 19 18  1  0  0  0
 18 17  1  0  0  0
 27 28  1  0  0  0
 17 16  1  0  0  0
 29 30  1  0  0  0
 16 15  1  0  0  0
 34 35  1  0  0  0
 34 36  1  0  0  0
 15 14  1  0  0  0
 31 32  1  0  0  0
 31 33  1  0  0  0
 14 13  1  0  0  0
 37  1  1  0  0  0
 37 39  1  0  0  0
 13 12  1  0  0  0
 38 39  2  0  0  0
 12 11  1  0  0  0
 11 10  1  0  0  0
 10  9  1  0  0  0
  9  8  1  0  0  0
  8  7  1  0  0  0
  7  6  1  0  0  0
  6  5  1  0  0  0
  2  1  1  0  0  0
  1 23  1  0  0  0
 30 32  1  0  0  0
 32 35  1  0  0  0
 39 40  1  0  0  0
 40 41  1  0  0  0
 41 42  1  0  0  0
 42 43  1  0  0  0
 43 44  1  0  0  0
 44 45  1  0  0  0
 45 46  1  0  0  0
 46 47  1  0  0  0
 47 48  2  0  0  0
 48 49  1  0  0  0
 49 50  1  0  0  0
 50 51  1  0  0  0
 51 52  1  0  0  0
 52 53  1  0  0  0
 53 54  1  0  0  0
 54 55  1  0  0  0
 55 56  1  0  0  0
M  CHG 1  26  -1
M  END
> <minimizedAffinity>
-8.56178

> <CNNscore>
0.2792954743

> <CNNaffinity>
6.5490632057

> <CNN_VS>
1.8291237354

> <CNNaffinity_variance>
0.5837746859

$$$$
/media/chris/experiments/cd1a-new-docking/inputs/ligands/7sh4_ligand.pdb


 56 55  0  0  0  0  0  0  0  0999 V2000
  -39.2598   60.5439   65.0951 C   0  0  0  0  0  0  0  0  0  0  0  0
  -39.3377   60.7606   63.6103 C   0  0  0  0  0  0  0  0  0  0  0  0
  -40.5248   61.5628   63.4362 O   0  0  0  0  0  0  0  0  0  0  0  0
  -42.3842   61.7738   62.2122 O   0  0  0  0  0  0  0  0  0  0  0  0
  -41.3990   61.1561   62.5152 C   0  0  0  0  0  0  0  0  0  0  0  0
  -40.9247   59.9062   61.8315 C   0  0  0  0  0  0  0  0  0  0  0  0
  -41.8948   58.7406   61.9266 C   0  0  0  0  0  0  0  0  0  0  0  0
  -41.7609   57.7707   60.7716 C   0  0  0  0  0  0  0  0  0  0  0  0
  -41.1643   58.3757   59.5210 C   0  0  0  0  0  0  0  0  0  0  0  0
  -39.7713   57.8612   59.2193 C   0  0  0  0  0  0  0  0  0  0  0  0
  -38.7083   58.9270   59.3265 C   0  0  0  0  0  0  0  0  0  0  0  0
  -37.6449   58.5975   60.3407 C   0  0  0  0  0  0  0  0  0  0  0  0
  -38.1335   57.6934   61.4506 C   0  0  0  0  0  0  0  0  0  0  0  0
  -37.2486   57.7448   62.6797 C   0  0  0  0  0  0  0  0  0  0  0  0
  -35.8367   58.2188   62.4053 C   0  0  0  0  0  0  0  0  0  0  0  0
  -35.1564   58.8582   63.6104 C   0  0  0  0  0  0  0  0  0  0  0  0
  -33.6511   58.6755   63.6370 C   0  0  0  0  0  0  0  0  0  0  0  0
  -32.9238   59.5206   62.6111 C   0  0  0  0  0  0  0  0  0  0  0  0
  -31.4146   59.5539   62.8073 C   0  0  0  0  0  0  0  0  0  0  0  0
  -30.7109   60.5784   61.9353 C   0  0  0  0  0  0  0  0  0  0  0  0
  -28.1968   60.6879   61.9903 C   0  0  0  0  0  0  0  0  0  0  0  0
  -29.4895   61.2184   62.5675 C   0  0  0  0  0  0  0  0  0  0  0  0
  -37.8533   60.6926   65.6160 C   0  0  0  0  0  0  0  0  0  0  0  0
  -37.5732   62.0977   65.8046 O   0  0  0  0  0  0  0  0  0  0  0  0
  -36.1184   62.6494   66.1802 P   0  0  0  0  0  0  0  0  0  0  0  0
  -36.1345   63.0515   67.6031 O   0  0  0  0  0  0  0  0  0  0  0  0
  -35.1168   61.6514   65.7332 O   0  0  0  0  0  0  0  0  0  0  0  0
  -35.2142   60.8396   66.2551 H   0  0  0  0  0  0  0  0  0  0  0  0
  -35.9253   63.9651   65.3002 O   0  0  0  0  0  0  0  0  0  0  0  0
  -36.5850   64.0822   64.0231 C   0  0  0  0  0  0  0  0  0  0  0  0
  -35.3185   62.4527   62.8052 O   0  0  0  0  0  0  0  0  0  0  0  0
  -35.5622   63.8563   62.9368 C   0  0  0  0  0  0  0  0  0  0  0  0
  -35.0424   62.0907   63.6617 H   0  0  0  0  0  0  0  0  0  0  0  0
  -35.2896   63.8211   60.5404 O   0  0  0  0  0  0  0  0  0  0  0  0
  -35.9935   64.4369   61.6115 C   0  0  0  0  0  0  0  0  0  0  0  0
  -35.5798   64.2065   59.6989 H   0  0  0  0  0  0  0  0  0  0  0  0
  -39.8124   59.2200   65.3980 O   0  0  0  0  0  0  0  0  0  0  0  0
  -41.8301   58.2254   65.3876 O   0  0  0  0  0  0  0  0  0  0  0  0
  -41.1288   59.1567   65.6755 C   0  0  0  0  0  0  0  0  0  0  0  0
  -41.6081   60.3759   66.4007 C   0  0  0  0  0  0  0  0  0  0  0  0
  -43.1315   60.4321   66.4532 C   0  0  0  0  0  0  0  0  0  0  0  0
  -43.7584   61.2256   65.3186 C   0  0  0  0  0  0  0  0  0  0  0  0
  -44.7898   60.4368   64.5200 C   0  0  0  0  0  0  0  0  0  0  0  0
  -45.6548   59.5201   65.3649 C   0  0  0  0  0  0  0  0  0  0  0  0
  -47.1306   59.9228   65.4342 C   0  0  0  0  0  0  0  0  0  0  0  0
  -47.8176   60.1159   64.0806 C   0  0  0  0  0  0  0  0  0  0  0  0
  -49.0421   60.9746   64.1861 C   0  0  0  0  0  0  0  0  0  0  0  0
  -50.2954   60.5729   64.0988 C   0  0  0  0  0  0  0  0  0  0  0  0
  -50.7584   59.1677   63.8766 C   0  0  0  0  0  0  0  0  0  0  0  0
  -50.9480   58.8443   62.3974 C   0  0  0  0  0  0  0  0  0  0  0  0
  -49.7294   58.2085   61.7515 C   0  0  0  0  0  0  0  0  0  0  0  0
  -50.0420   57.4533   60.4711 C   0  0  0  0  0  0  0  0  0  0  0  0
  -49.0392   56.3667   60.1202 C   0  0  0  0  0  0  0  0  0  0  0  0
  -47.8615   56.8715   59.3004 C   0  0  0  0  0  0  0  0  0  0  0  0
  -48.2359   57.8705   58.2236 C   0  0  0  0  0  0  0  0  0  0  0  0
  -47.0771   58.2310   57.3367 C   0  0  0  0  0  0  0  0  0  0  0  0
 21 22  1  0  0  0
  4  5  2  0  0  0
 25 24  1  0  0  0
 25 26  2  0  0  0
 25 27  1  0  0  0
 25 29  1  0  0  0
 22 20  1  0  0  0
  3  5  1  0  0  0
  3  2  1  0  0  0
 20 19  1  0  0  0
 24 23  1  0  0  0
 19 18  1  0  0  0
 18 17  1  0  0  0
 27 28  1  0  0  0
 17 16  1  0  0  0
 29 30  1  0  0  0
 16 15  1  0  0  0
 34 35  1  0  0  0
 34 36  1  0  0  0
 15 14  1  0  0  0
 31 32  1  0  0  0
 31 33  1  0  0  0
 14 13  1  0  0  0
 37  1  1  0  0  0
 37 39  1  0  0  0
 13 12  1  0  0  0
 38 39  2  0  0  0
 12 11  1  0  0  0
 11 10  1  0  0  0
 10  9  1  0  0  0
  9  8  1  0  0  0
  8  7  1  0  0  0
  7  6  1  0  0  0
  6  5  1  0  0  0
  2  1  1  0  0  0
  1 23  1  0  0  0
 30 32  1  0  0  0
 32 35  1  0  0  0
 39 40  1  0  0  0
 40 41  1  0  0  0
 41 42  1  0  0  0
 42 43  1  0  0  0
 43 44  1  0  0  0
 44 45  1  0  0  0
 45 46  1  0  0  0
 46 47  1  0  0  0
 47 48  2  0  0  0
 48 49  1  0  0  0
 49 50  1  0  0  0
 50 51  1  0  0  0
 51 52  1  0  0  0
 52 53  1  0  0  0
 53 54  1  0  0  0
 54 55  1  0  0  0
 55 56  1  0  0  0
M  CHG 1  26  -1
M  END
> <minimizedAffinity>
-8.57875

> <CNNscore>
0.2770528495

> <CNNaffinity>
7.0547394753

> <CNN_VS>
1.9545357227

> <CNNaffinity_variance>
1.4808311462

$$$$
