/media/chris/experiments/cd1a-new-docking/inputs/ligands/7sh4_ligand.pdb


 56 55  0  0  0  0  0  0  0  0999 V2000
  -40.2071   59.6967   64.5685 C   0  0  0  0  0  0  0  0  0  0  0  0
  -41.2198   58.6602   64.9655 C   0  0  0  0  0  0  0  0  0  0  0  0
  -40.9276   57.5389   64.1050 O   0  0  0  0  0  0  0  0  0  0  0  0
  -42.6325   58.0151   62.7392 O   0  0  0  0  0  0  0  0  0  0  0  0
  -41.5707   57.4892   62.9381 C   0  0  0  0  0  0  0  0  0  0  0  0
  -40.7407   56.8059   61.8897 C   0  0  0  0  0  0  0  0  0  0  0  0
  -41.3094   56.9071   60.4846 C   0  0  0  0  0  0  0  0  0  0  0  0
  -41.0057   58.2352   59.8236 C   0  0  0  0  0  0  0  0  0  0  0  0
  -39.7290   58.2463   59.0139 C   0  0  0  0  0  0  0  0  0  0  0  0
  -38.6888   59.2037   59.5594 C   0  0  0  0  0  0  0  0  0  0  0  0
  -37.6200   58.5179   60.3749 C   0  0  0  0  0  0  0  0  0  0  0  0
  -37.7434   58.7867   61.8515 C   0  0  0  0  0  0  0  0  0  0  0  0
  -37.0097   57.7789   62.7085 C   0  0  0  0  0  0  0  0  0  0  0  0
  -35.5155   58.0266   62.7538 C   0  0  0  0  0  0  0  0  0  0  0  0
  -34.9020   57.8547   64.1275 C   0  0  0  0  0  0  0  0  0  0  0  0
  -33.7398   58.8013   64.4060 C   0  0  0  0  0  0  0  0  0  0  0  0
  -33.3037   59.6127   63.2011 C   0  0  0  0  0  0  0  0  0  0  0  0
  -31.8612   59.3736   62.8044 C   0  0  0  0  0  0  0  0  0  0  0  0
  -31.0557   60.6537   62.6317 C   0  0  0  0  0  0  0  0  0  0  0  0
  -30.0665   60.5988   61.4812 C   0  0  0  0  0  0  0  0  0  0  0  0
  -28.5328   61.4880   63.2680 C   0  0  0  0  0  0  0  0  0  0  0  0
  -28.6844   61.1327   61.8063 C   0  0  0  0  0  0  0  0  0  0  0  0
  -39.1695   59.9141   65.6399 C   0  0  0  0  0  0  0  0  0  0  0  0
  -38.7748   61.3043   65.6299 O   0  0  0  0  0  0  0  0  0  0  0  0
  -37.5001   61.8382   64.8225 P   0  0  0  0  0  0  0  0  0  0  0  0
  -36.3606   60.9449   65.1230 O   0  0  0  0  0  0  0  0  0  0  0  0
  -37.8985   62.0332   63.4075 O   0  0  0  0  0  0  0  0  0  0  0  0
  -38.1005   61.1731   63.0071 H   0  0  0  0  0  0  0  0  0  0  0  0
  -37.1773   63.2714   65.4425 O   0  0  0  0  0  0  0  0  0  0  0  0
  -35.9107   63.9058   65.1721 C   0  0  0  0  0  0  0  0  0  0  0  0
  -36.1454   64.0573   67.5522 O   0  0  0  0  0  0  0  0  0  0  0  0
  -35.1957   64.1189   66.4839 C   0  0  0  0  0  0  0  0  0  0  0  0
  -36.8482   64.7078   67.3979 H   0  0  0  0  0  0  0  0  0  0  0  0
  -33.2738   63.4994   67.8032 O   0  0  0  0  0  0  0  0  0  0  0  0
  -34.0934   63.1117   66.7080 C   0  0  0  0  0  0  0  0  0  0  0  0
  -32.5728   62.8413   67.9314 H   0  0  0  0  0  0  0  0  0  0  0  0
  -40.9189   60.9369   64.2442 O   0  0  0  0  0  0  0  0  0  0  0  0
  -40.3931   60.9870   62.0576 O   0  0  0  0  0  0  0  0  0  0  0  0
  -41.1832   61.1670   62.9437 C   0  0  0  0  0  0  0  0  0  0  0  0
  -42.5829   61.6556   62.7341 C   0  0  0  0  0  0  0  0  0  0  0  0
  -43.2575   62.0032   64.0573 C   0  0  0  0  0  0  0  0  0  0  0  0
  -44.6833   61.4904   64.1757 C   0  0  0  0  0  0  0  0  0  0  0  0
  -44.8500   60.3858   65.2130 C   0  0  0  0  0  0  0  0  0  0  0  0
  -45.5080   59.1287   64.6753 C   0  0  0  0  0  0  0  0  0  0  0  0
  -47.0060   59.2668   64.3893 C   0  0  0  0  0  0  0  0  0  0  0  0
  -47.9283   58.5829   65.4007 C   0  0  0  0  0  0  0  0  0  0  0  0
  -49.1688   59.3826   65.6648 C   0  0  0  0  0  0  0  0  0  0  0  0
  -50.3058   59.3146   65.0000 C   0  0  0  0  0  0  0  0  0  0  0  0
  -50.5967   58.4184   63.8378 C   0  0  0  0  0  0  0  0  0  0  0  0
  -51.0882   59.1898   62.6165 C   0  0  0  0  0  0  0  0  0  0  0  0
  -50.0495   60.1302   62.0309 C   0  0  0  0  0  0  0  0  0  0  0  0
  -49.4530   59.6413   60.7223 C   0  0  0  0  0  0  0  0  0  0  0  0
  -50.0361   58.3330   60.2145 C   0  0  0  0  0  0  0  0  0  0  0  0
  -49.5028   57.9211   58.8507 C   0  0  0  0  0  0  0  0  0  0  0  0
  -48.0102   58.1227   58.6797 C   0  0  0  0  0  0  0  0  0  0  0  0
  -47.5344   57.7948   57.2921 C   0  0  0  0  0  0  0  0  0  0  0  0
 21 22  1  0  0  0
  4  5  2  0  0  0
 25 24  1  0  0  0
 25 26  2  0  0  0
 25 27  1  0  0  0
 25 29  1  0  0  0
 22 20  1  0  0  0
  3  5  1  0  0  0
  3  2  1  0  0  0
 20 19  1  0  0  0
 24 23  1  0  0  0
 19 18  1  0  0  0
 18 17  1  0  0  0
 27 28  1  0  0  0
 17 16  1  0  0  0
 29 30  1  0  0  0
 16 15  1  0  0  0
 34 35  1  0  0  0
 34 36  1  0  0  0
 15 14  1  0  0  0
 31 32  1  0  0  0
 31 33  1  0  0  0
 14 13  1  0  0  0
 37  1  1  0  0  0
 37 39  1  0  0  0
 13 12  1  0  0  0
 38 39  2  0  0  0
 12 11  1  0  0  0
 11 10  1  0  0  0
 10  9  1  0  0  0
  9  8  1  0  0  0
  8  7  1  0  0  0
  7  6  1  0  0  0
  6  5  1  0  0  0
  2  1  1  0  0  0
  1 23  1  0  0  0
 30 32  1  0  0  0
 32 35  1  0  0  0
 39 40  1  0  0  0
 40 41  1  0  0  0
 41 42  1  0  0  0
 42 43  1  0  0  0
 43 44  1  0  0  0
 44 45  1  0  0  0
 45 46  1  0  0  0
 46 47  1  0  0  0
 47 48  2  0  0  0
 48 49  1  0  0  0
 49 50  1  0  0  0
 50 51  1  0  0  0
 51 52  1  0  0  0
 52 53  1  0  0  0
 53 54  1  0  0  0
 54 55  1  0  0  0
 55 56  1  0  0  0
M  CHG 1  26  -1
M  END
> <minimizedAffinity>
-8.98457

> <CNNscore>
0.5346811414

> <CNNaffinity>
7.3176488876

> <CNN_VS>
3.9126088619

> <CNNaffinity_variance>
1.0354623795

$$$$
/media/chris/experiments/cd1a-new-docking/inputs/ligands/7sh4_ligand.pdb


 56 55  0  0  0  0  0  0  0  0999 V2000
  -41.6289   58.2219   63.7124 C   0  0  0  0  0  0  0  0  0  0  0  0
  -41.9720   58.1054   62.2542 C   0  0  0  0  0  0  0  0  0  0  0  0
  -41.2071   59.1583   61.6302 O   0  0  0  0  0  0  0  0  0  0  0  0
  -41.1781   58.1212   59.6496 O   0  0  0  0  0  0  0  0  0  0  0  0
  -40.6959   58.9013   60.4258 C   0  0  0  0  0  0  0  0  0  0  0  0
  -39.5289   59.7984   60.1289 C   0  0  0  0  0  0  0  0  0  0  0  0
  -38.2158   59.0618   59.9260 C   0  0  0  0  0  0  0  0  0  0  0  0
  -37.8917   58.1170   61.0641 C   0  0  0  0  0  0  0  0  0  0  0  0
  -36.6832   58.5199   61.8784 C   0  0  0  0  0  0  0  0  0  0  0  0
  -36.6152   57.8247   63.2230 C   0  0  0  0  0  0  0  0  0  0  0  0
  -35.2399   57.8644   63.8433 C   0  0  0  0  0  0  0  0  0  0  0  0
  -34.1813   58.3639   62.8959 C   0  0  0  0  0  0  0  0  0  0  0  0
  -32.7799   58.2688   63.4573 C   0  0  0  0  0  0  0  0  0  0  0  0
  -31.8948   59.4181   63.0196 C   0  0  0  0  0  0  0  0  0  0  0  0
  -32.6338   60.7240   62.8147 C   0  0  0  0  0  0  0  0  0  0  0  0
  -32.0425   61.6005   61.7163 C   0  0  0  0  0  0  0  0  0  0  0  0
  -32.1255   63.0875   62.0031 C   0  0  0  0  0  0  0  0  0  0  0  0
  -30.8748   63.6464   62.6502 C   0  0  0  0  0  0  0  0  0  0  0  0
  -29.6116   63.4226   61.8306 C   0  0  0  0  0  0  0  0  0  0  0  0
  -28.4334   62.9306   62.6521 C   0  0  0  0  0  0  0  0  0  0  0  0
  -28.4280   60.5509   61.8319 C   0  0  0  0  0  0  0  0  0  0  0  0
  -28.4948   61.4640   63.0350 C   0  0  0  0  0  0  0  0  0  0  0  0
  -40.1398   58.2196   63.9456 C   0  0  0  0  0  0  0  0  0  0  0  0
  -39.8623   58.9069   65.1862 O   0  0  0  0  0  0  0  0  0  0  0  0
  -40.2138   60.4508   65.4199 P   0  0  0  0  0  0  0  0  0  0  0  0
  -40.3807   61.0880   64.0959 O   0  0  0  0  0  0  0  0  0  0  0  0
  -41.3298   60.5278   66.3932 O   0  0  0  0  0  0  0  0  0  0  0  0
  -42.1309   60.1505   65.9971 H   0  0  0  0  0  0  0  0  0  0  0  0
  -38.9198   61.0793   66.1077 O   0  0  0  0  0  0  0  0  0  0  0  0
  -37.6106   60.8039   65.5690 C   0  0  0  0  0  0  0  0  0  0  0  0
  -35.7801   62.3486   65.4909 O   0  0  0  0  0  0  0  0  0  0  0  0
  -37.0750   62.0712   64.9492 C   0  0  0  0  0  0  0  0  0  0  0  0
  -35.8382   62.3992   66.4578 H   0  0  0  0  0  0  0  0  0  0  0  0
  -35.7874   62.5517   62.9669 O   0  0  0  0  0  0  0  0  0  0  0  0
  -37.0031   61.9888   63.4433 C   0  0  0  0  0  0  0  0  0  0  0  0
  -35.7597   62.4895   61.9993 H   0  0  0  0  0  0  0  0  0  0  0  0
  -42.2914   57.1291   64.4312 O   0  0  0  0  0  0  0  0  0  0  0  0
  -42.5158   57.7132   66.5918 O   0  0  0  0  0  0  0  0  0  0  0  0
  -43.0046   57.4613   65.5244 C   0  0  0  0  0  0  0  0  0  0  0  0
  -44.4751   57.4965   65.2450 C   0  0  0  0  0  0  0  0  0  0  0  0
  -45.2813   57.7191   66.5206 C   0  0  0  0  0  0  0  0  0  0  0  0
  -45.9251   59.0928   66.6109 C   0  0  0  0  0  0  0  0  0  0  0  0
  -46.0047   59.8183   65.2725 C   0  0  0  0  0  0  0  0  0  0  0  0
  -47.4147   60.1960   64.8584 C   0  0  0  0  0  0  0  0  0  0  0  0
  -48.4144   60.2893   66.0146 C   0  0  0  0  0  0  0  0  0  0  0  0
  -49.6117   59.3413   65.9188 C   0  0  0  0  0  0  0  0  0  0  0  0
  -50.8253   60.0190   65.3567 C   0  0  0  0  0  0  0  0  0  0  0  0
  -51.2268   60.0000   64.1006 C   0  0  0  0  0  0  0  0  0  0  0  0
  -50.5514   59.2923   62.9686 C   0  0  0  0  0  0  0  0  0  0  0  0
  -49.9133   60.2590   61.9753 C   0  0  0  0  0  0  0  0  0  0  0  0
  -49.6445   59.6440   60.6131 C   0  0  0  0  0  0  0  0  0  0  0  0
  -50.1256   58.2088   60.4863 C   0  0  0  0  0  0  0  0  0  0  0  0
  -49.1753   57.2901   59.7363 C   0  0  0  0  0  0  0  0  0  0  0  0
  -48.6396   57.8946   58.4473 C   0  0  0  0  0  0  0  0  0  0  0  0
  -47.3594   57.2563   57.9459 C   0  0  0  0  0  0  0  0  0  0  0  0
  -46.6008   58.1419   56.9974 C   0  0  0  0  0  0  0  0  0  0  0  0
 21 22  1  0  0  0
  4  5  2  0  0  0
 25 24  1  0  0  0
 25 26  2  0  0  0
 25 27  1  0  0  0
 25 29  1  0  0  0
 22 20  1  0  0  0
  3  5  1  0  0  0
  3  2  1  0  0  0
 20 19  1  0  0  0
 24 23  1  0  0  0
 19 18  1  0  0  0
 18 17  1  0  0  0
 27 28  1  0  0  0
 17 16  1  0  0  0
 29 30  1  0  0  0
 16 15  1  0  0  0
 34 35  1  0  0  0
 34 36  1  0  0  0
 15 14  1  0  0  0
 31 32  1  0  0  0
 31 33  1  0  0  0
 14 13  1  0  0  0
 37  1  1  0  0  0
 37 39  1  0  0  0
 13 12  1  0  0  0
 38 39  2  0  0  0
 12 11  1  0  0  0
 11 10  1  0  0  0
 10  9  1  0  0  0
  9  8  1  0  0  0
  8  7  1  0  0  0
  7  6  1  0  0  0
  6  5  1  0  0  0
  2  1  1  0  0  0
  1 23  1  0  0  0
 30 32  1  0  0  0
 32 35  1  0  0  0
 39 40  1  0  0  0
 40 41  1  0  0  0
 41 42  1  0  0  0
 42 43  1  0  0  0
 43 44  1  0  0  0
 44 45  1  0  0  0
 45 46  1  0  0  0
 46 47  1  0  0  0
 47 48  2  0  0  0
 48 49  1  0  0  0
 49 50  1  0  0  0
 50 51  1  0  0  0
 51 52  1  0  0  0
 52 53  1  0  0  0
 53 54  1  0  0  0
 54 55  1  0  0  0
 55 56  1  0  0  0
M  CHG 1  26  -1
M  END
> <minimizedAffinity>
-8.24283

> <CNNscore>
0.5336824059

> <CNNaffinity>
7.0410699844

> <CNN_VS>
3.7576951981

> <CNNaffinity_variance>
0.7183402181

$$$$
/media/chris/experiments/cd1a-new-docking/inputs/ligands/7sh4_ligand.pdb


 56 55  0  0  0  0  0  0  0  0999 V2000
  -38.8551   60.7668   63.9668 C   0  0  0  0  0  0  0  0  0  0  0  0
  -39.3855   59.9911   65.1392 C   0  0  0  0  0  0  0  0  0  0  0  0
  -40.0683   60.9833   65.9344 O   0  0  0  0  0  0  0  0  0  0  0  0
  -42.1122   61.5454   66.6457 O   0  0  0  0  0  0  0  0  0  0  0  0
  -41.3229   60.7104   66.2941 C   0  0  0  0  0  0  0  0  0  0  0  0
  -41.6450   59.2593   66.0813 C   0  0  0  0  0  0  0  0  0  0  0  0
  -42.9520   59.0150   65.3462 C   0  0  0  0  0  0  0  0  0  0  0  0
  -43.7924   57.9317   65.9887 C   0  0  0  0  0  0  0  0  0  0  0  0
  -45.1950   58.3671   66.3477 C   0  0  0  0  0  0  0  0  0  0  0  0
  -45.4659   59.8222   66.0231 C   0  0  0  0  0  0  0  0  0  0  0  0
  -46.5003   60.0065   64.9397 C   0  0  0  0  0  0  0  0  0  0  0  0
  -47.7516   59.2033   65.1782 C   0  0  0  0  0  0  0  0  0  0  0  0
  -48.9265   60.0423   65.6298 C   0  0  0  0  0  0  0  0  0  0  0  0
  -49.7803   60.5240   64.4744 C   0  0  0  0  0  0  0  0  0  0  0  0
  -50.8432   59.5376   64.0381 C   0  0  0  0  0  0  0  0  0  0  0  0
  -50.9609   59.3876   62.5256 C   0  0  0  0  0  0  0  0  0  0  0  0
  -50.6640   57.9889   62.0201 C   0  0  0  0  0  0  0  0  0  0  0  0
  -50.1418   57.9608   60.5982 C   0  0  0  0  0  0  0  0  0  0  0  0
  -49.2275   56.7789   60.3072 C   0  0  0  0  0  0  0  0  0  0  0  0
  -47.9352   57.1672   59.6112 C   0  0  0  0  0  0  0  0  0  0  0  0
  -47.4479   57.9470   57.2681 C   0  0  0  0  0  0  0  0  0  0  0  0
  -48.0707   58.2915   58.6020 C   0  0  0  0  0  0  0  0  0  0  0  0
  -37.7177   61.6756   64.3570 C   0  0  0  0  0  0  0  0  0  0  0  0
  -37.4454   62.5770   63.2608 O   0  0  0  0  0  0  0  0  0  0  0  0
  -36.1952   63.5764   63.2496 P   0  0  0  0  0  0  0  0  0  0  0  0
  -35.5575   63.4972   61.9179 O   0  0  0  0  0  0  0  0  0  0  0  0
  -36.6559   64.8973   63.7414 O   0  0  0  0  0  0  0  0  0  0  0  0
  -37.2813   65.2788   63.1056 H   0  0  0  0  0  0  0  0  0  0  0  0
  -35.1721   62.9848   64.3201 O   0  0  0  0  0  0  0  0  0  0  0  0
  -34.4886   63.8701   65.2308 C   0  0  0  0  0  0  0  0  0  0  0  0
  -33.3756   63.4755   67.3160 O   0  0  0  0  0  0  0  0  0  0  0  0
  -34.6178   63.3095   66.6259 C   0  0  0  0  0  0  0  0  0  0  0  0
  -32.6644   63.0556   66.8073 H   0  0  0  0  0  0  0  0  0  0  0  0
  -36.8311   64.2654   66.5498 O   0  0  0  0  0  0  0  0  0  0  0  0
  -35.7372   63.9579   67.4045 C   0  0  0  0  0  0  0  0  0  0  0  0
  -37.5389   64.6803   67.0673 H   0  0  0  0  0  0  0  0  0  0  0  0
  -39.9650   61.5148   63.3681 O   0  0  0  0  0  0  0  0  0  0  0  0
  -41.8707   60.7324   62.4645 O   0  0  0  0  0  0  0  0  0  0  0  0
  -40.6810   60.8869   62.4155 C   0  0  0  0  0  0  0  0  0  0  0  0
  -39.8199   60.4220   61.2823 C   0  0  0  0  0  0  0  0  0  0  0  0
  -40.6343   60.2178   60.0088 C   0  0  0  0  0  0  0  0  0  0  0  0
  -40.5567   58.8078   59.4470 C   0  0  0  0  0  0  0  0  0  0  0  0
  -41.6431   57.8792   59.9775 C   0  0  0  0  0  0  0  0  0  0  0  0
  -41.1245   56.7756   60.8805 C   0  0  0  0  0  0  0  0  0  0  0  0
  -41.1212   57.1223   62.3720 C   0  0  0  0  0  0  0  0  0  0  0  0
  -39.7381   57.1826   63.0240 C   0  0  0  0  0  0  0  0  0  0  0  0
  -38.6360   57.2196   62.0081 C   0  0  0  0  0  0  0  0  0  0  0  0
  -37.3623   57.4740   62.2372 C   0  0  0  0  0  0  0  0  0  0  0  0
  -36.7483   57.7789   63.5671 C   0  0  0  0  0  0  0  0  0  0  0  0
  -35.2236   57.8015   63.5130 C   0  0  0  0  0  0  0  0  0  0  0  0
  -34.5959   58.8270   64.4407 C   0  0  0  0  0  0  0  0  0  0  0  0
  -33.0798   58.7517   64.4965 C   0  0  0  0  0  0  0  0  0  0  0  0
  -32.3959   58.8147   63.1409 C   0  0  0  0  0  0  0  0  0  0  0  0
  -31.4807   60.0189   62.9797 C   0  0  0  0  0  0  0  0  0  0  0  0
  -31.2368   60.4266   61.5402 C   0  0  0  0  0  0  0  0  0  0  0  0
  -31.0995   61.9140   61.3724 C   0  0  0  0  0  0  0  0  0  0  0  0
 21 22  1  0  0  0
  4  5  2  0  0  0
 25 24  1  0  0  0
 25 26  2  0  0  0
 25 27  1  0  0  0
 25 29  1  0  0  0
 22 20  1  0  0  0
  3  5  1  0  0  0
  3  2  1  0  0  0
 20 19  1  0  0  0
 24 23  1  0  0  0
 19 18  1  0  0  0
 18 17  1  0  0  0
 27 28  1  0  0  0
 17 16  1  0  0  0
 29 30  1  0  0  0
 16 15  1  0  0  0
 34 35  1  0  0  0
 34 36  1  0  0  0
 15 14  1  0  0  0
 31 32  1  0  0  0
 31 33  1  0  0  0
 14 13  1  0  0  0
 37  1  1  0  0  0
 37 39  1  0  0  0
 13 12  1  0  0  0
 38 39  2  0  0  0
 12 11  1  0  0  0
 11 10  1  0  0  0
 10  9  1  0  0  0
  9  8  1  0  0  0
  8  7  1  0  0  0
  7  6  1  0  0  0
  6  5  1  0  0  0
  2  1  1  0  0  0
  1 23  1  0  0  0
 30 32  1  0  0  0
 32 35  1  0  0  0
 39 40  1  0  0  0
 40 41  1  0  0  0
 41 42  1  0  0  0
 42 43  1  0  0  0
 43 44  1  0  0  0
 44 45  1  0  0  0
 45 46  1  0  0  0
 46 47  1  0  0  0
 47 48  2  0  0  0
 48 49  1  0  0  0
 49 50  1  0  0  0
 50 51  1  0  0  0
 51 52  1  0  0  0
 52 53  1  0  0  0
 53 54  1  0  0  0
 54 55  1  0  0  0
 55 56  1  0  0  0
M  CHG 1  26  -1
M  END
> <minimizedAffinity>
-8.50807

> <CNNscore>
0.4957582951

> <CNNaffinity>
7.5294771194

> <CNN_VS>
3.7328007221

> <CNNaffinity_variance>
1.2350448370

$$$$
/media/chris/experiments/cd1a-new-docking/inputs/ligands/7sh4_ligand.pdb


 56 55  0  0  0  0  0  0  0  0999 V2000
  -40.5815   59.7488   64.9717 C   0  0  0  0  0  0  0  0  0  0  0  0
  -41.5080   58.9633   65.8561 C   0  0  0  0  0  0  0  0  0  0  0  0
  -41.9482   57.8726   65.0196 O   0  0  0  0  0  0  0  0  0  0  0  0
  -43.6035   58.0157   63.5233 O   0  0  0  0  0  0  0  0  0  0  0  0
  -43.2311   57.8696   64.6563 C   0  0  0  0  0  0  0  0  0  0  0  0
  -44.1232   57.5374   65.8176 C   0  0  0  0  0  0  0  0  0  0  0  0
  -45.4662   58.2472   65.7913 C   0  0  0  0  0  0  0  0  0  0  0  0
  -45.3340   59.7544   65.8501 C   0  0  0  0  0  0  0  0  0  0  0  0
  -45.9358   60.4755   64.6653 C   0  0  0  0  0  0  0  0  0  0  0  0
  -47.3232   59.9797   64.3112 C   0  0  0  0  0  0  0  0  0  0  0  0
  -48.4219   60.7288   65.0250 C   0  0  0  0  0  0  0  0  0  0  0  0
  -49.2204   59.8555   65.9564 C   0  0  0  0  0  0  0  0  0  0  0  0
  -50.5025   59.3380   65.3426 C   0  0  0  0  0  0  0  0  0  0  0  0
  -51.0795   60.2833   64.3084 C   0  0  0  0  0  0  0  0  0  0  0  0
  -51.2530   59.6667   62.9362 C   0  0  0  0  0  0  0  0  0  0  0  0
  -50.7022   58.2496   62.8234 C   0  0  0  0  0  0  0  0  0  0  0  0
  -49.4576   58.1389   61.9637 C   0  0  0  0  0  0  0  0  0  0  0  0
  -49.7582   57.9352   60.4929 C   0  0  0  0  0  0  0  0  0  0  0  0
  -49.1539   59.0040   59.5928 C   0  0  0  0  0  0  0  0  0  0  0  0
  -48.1302   58.4635   58.6104 C   0  0  0  0  0  0  0  0  0  0  0  0
  -47.3439   56.1940   57.8574 C   0  0  0  0  0  0  0  0  0  0  0  0
  -47.4898   57.1505   59.0191 C   0  0  0  0  0  0  0  0  0  0  0  0
  -39.1996   59.8664   65.5620 C   0  0  0  0  0  0  0  0  0  0  0  0
  -38.8410   61.2647   65.6316 O   0  0  0  0  0  0  0  0  0  0  0  0
  -37.5247   61.8579   64.9407 P   0  0  0  0  0  0  0  0  0  0  0  0
  -36.4144   60.9119   65.1830 O   0  0  0  0  0  0  0  0  0  0  0  0
  -37.8604   62.2193   63.5423 O   0  0  0  0  0  0  0  0  0  0  0  0
  -38.0604   61.4143   63.0395 H   0  0  0  0  0  0  0  0  0  0  0  0
  -37.2034   63.2051   65.7311 O   0  0  0  0  0  0  0  0  0  0  0  0
  -36.0705   64.0122   65.3504 C   0  0  0  0  0  0  0  0  0  0  0  0
  -36.0214   63.9105   67.7442 O   0  0  0  0  0  0  0  0  0  0  0  0
  -35.2956   64.3625   66.5971 C   0  0  0  0  0  0  0  0  0  0  0  0
  -36.9119   64.2950   67.7355 H   0  0  0  0  0  0  0  0  0  0  0  0
  -33.5334   63.3580   67.9024 O   0  0  0  0  0  0  0  0  0  0  0  0
  -33.9055   63.7731   66.5944 C   0  0  0  0  0  0  0  0  0  0  0  0
  -32.6392   62.9827   67.8803 H   0  0  0  0  0  0  0  0  0  0  0  0
  -41.1805   61.0649   64.7289 O   0  0  0  0  0  0  0  0  0  0  0  0
  -42.8597   61.6537   63.3528 O   0  0  0  0  0  0  0  0  0  0  0  0
  -41.7341   61.2698   63.5182 C   0  0  0  0  0  0  0  0  0  0  0  0
  -40.7739   60.9799   62.4066 C   0  0  0  0  0  0  0  0  0  0  0  0
  -41.4906   60.4263   61.1791 C   0  0  0  0  0  0  0  0  0  0  0  0
  -41.4565   58.9103   61.0770 C   0  0  0  0  0  0  0  0  0  0  0  0
  -41.3438   58.3979   59.6457 C   0  0  0  0  0  0  0  0  0  0  0  0
  -40.0030   57.7663   59.3203 C   0  0  0  0  0  0  0  0  0  0  0  0
  -38.8641   58.7665   59.1033 C   0  0  0  0  0  0  0  0  0  0  0  0
  -37.6940   58.6441   60.0817 C   0  0  0  0  0  0  0  0  0  0  0  0
  -38.0561   57.8459   61.2982 C   0  0  0  0  0  0  0  0  0  0  0  0
  -37.3651   57.7605   62.4183 C   0  0  0  0  0  0  0  0  0  0  0  0
  -36.0689   58.4482   62.7104 C   0  0  0  0  0  0  0  0  0  0  0  0
  -35.3087   57.7937   63.8602 C   0  0  0  0  0  0  0  0  0  0  0  0
  -33.8413   58.1804   63.9190 C   0  0  0  0  0  0  0  0  0  0  0  0
  -33.4216   59.1487   62.8265 C   0  0  0  0  0  0  0  0  0  0  0  0
  -33.1452   60.5626   63.3104 C   0  0  0  0  0  0  0  0  0  0  0  0
  -32.0995   61.2928   62.4815 C   0  0  0  0  0  0  0  0  0  0  0  0
  -31.0794   60.3834   61.8257 C   0  0  0  0  0  0  0  0  0  0  0  0
  -29.7024   60.9851   61.7891 C   0  0  0  0  0  0  0  0  0  0  0  0
 21 22  1  0  0  0
  4  5  2  0  0  0
 25 24  1  0  0  0
 25 26  2  0  0  0
 25 27  1  0  0  0
 25 29  1  0  0  0
 22 20  1  0  0  0
  3  5  1  0  0  0
  3  2  1  0  0  0
 20 19  1  0  0  0
 24 23  1  0  0  0
 19 18  1  0  0  0
 18 17  1  0  0  0
 27 28  1  0  0  0
 17 16  1  0  0  0
 29 30  1  0  0  0
 16 15  1  0  0  0
 34 35  1  0  0  0
 34 36  1  0  0  0
 15 14  1  0  0  0
 31 32  1  0  0  0
 31 33  1  0  0  0
 14 13  1  0  0  0
 37  1  1  0  0  0
 37 39  1  0  0  0
 13 12  1  0  0  0
 38 39  2  0  0  0
 12 11  1  0  0  0
 11 10  1  0  0  0
 10  9  1  0  0  0
  9  8  1  0  0  0
  8  7  1  0  0  0
  7  6  1  0  0  0
  6  5  1  0  0  0
  2  1  1  0  0  0
  1 23  1  0  0  0
 30 32  1  0  0  0
 32 35  1  0  0  0
 39 40  1  0  0  0
 40 41  1  0  0  0
 41 42  1  0  0  0
 42 43  1  0  0  0
 43 44  1  0  0  0
 44 45  1  0  0  0
 45 46  1  0  0  0
 46 47  1  0  0  0
 47 48  2  0  0  0
 48 49  1  0  0  0
 49 50  1  0  0  0
 50 51  1  0  0  0
 51 52  1  0  0  0
 52 53  1  0  0  0
 53 54  1  0  0  0
 54 55  1  0  0  0
 55 56  1  0  0  0
M  CHG 1  26  -1
M  END
> <minimizedAffinity>
-8.86084

> <CNNscore>
0.4799704254

> <CNNaffinity>
7.3706665039

> <CNN_VS>
3.5377018452

> <CNNaffinity_variance>
1.0944960117

$$$$
/media/chris/experiments/cd1a-new-docking/inputs/ligands/7sh4_ligand.pdb


 56 55  0  0  0  0  0  0  0  0999 V2000
  -40.7236   60.0979   63.3738 C   0  0  0  0  0  0  0  0  0  0  0  0
  -41.2530   59.2782   62.2312 C   0  0  0  0  0  0  0  0  0  0  0  0
  -41.5262   60.2509   61.2006 O   0  0  0  0  0  0  0  0  0  0  0  0
  -40.8216   60.8815   59.1745 O   0  0  0  0  0  0  0  0  0  0  0  0
  -40.9921   60.0252   59.9999 C   0  0  0  0  0  0  0  0  0  0  0  0
  -40.5249   58.6038   59.8723 C   0  0  0  0  0  0  0  0  0  0  0  0
  -39.1280   58.4594   59.2926 C   0  0  0  0  0  0  0  0  0  0  0  0
  -38.0568   58.3723   60.3593 C   0  0  0  0  0  0  0  0  0  0  0  0
  -38.3780   57.4127   61.4826 C   0  0  0  0  0  0  0  0  0  0  0  0
  -37.5555   57.6633   62.7303 C   0  0  0  0  0  0  0  0  0  0  0  0
  -36.2441   58.3549   62.4483 C   0  0  0  0  0  0  0  0  0  0  0  0
  -35.0611   57.6390   63.0449 C   0  0  0  0  0  0  0  0  0  0  0  0
  -34.8437   57.9549   64.5082 C   0  0  0  0  0  0  0  0  0  0  0  0
  -33.8858   59.1094   64.7216 C   0  0  0  0  0  0  0  0  0  0  0  0
  -32.7155   59.1272   63.7607 C   0  0  0  0  0  0  0  0  0  0  0  0
  -32.6382   60.3881   62.9073 C   0  0  0  0  0  0  0  0  0  0  0  0
  -31.5996   60.3227   61.8040 C   0  0  0  0  0  0  0  0  0  0  0  0
  -31.1694   61.6854   61.3008 C   0  0  0  0  0  0  0  0  0  0  0  0
  -30.3099   62.4582   62.2915 C   0  0  0  0  0  0  0  0  0  0  0  0
  -28.8293   62.4393   61.9556 C   0  0  0  0  0  0  0  0  0  0  0  0
  -27.7979   60.1436   61.9131 C   0  0  0  0  0  0  0  0  0  0  0  0
  -28.0192   61.4060   62.7151 C   0  0  0  0  0  0  0  0  0  0  0  0
  -39.3887   60.7202   63.0533 C   0  0  0  0  0  0  0  0  0  0  0  0
  -38.9610   61.5117   64.1843 O   0  0  0  0  0  0  0  0  0  0  0  0
  -37.4776   61.4408   64.7813 P   0  0  0  0  0  0  0  0  0  0  0  0
  -37.3940   60.2548   65.6605 O   0  0  0  0  0  0  0  0  0  0  0  0
  -36.5206   61.5615   63.6550 O   0  0  0  0  0  0  0  0  0  0  0  0
  -36.5934   60.7808   63.0839 H   0  0  0  0  0  0  0  0  0  0  0  0
  -37.3269   62.7400   65.6935 O   0  0  0  0  0  0  0  0  0  0  0  0
  -36.3174   63.7234   65.3873 C   0  0  0  0  0  0  0  0  0  0  0  0
  -36.3312   63.8407   67.7808 O   0  0  0  0  0  0  0  0  0  0  0  0
  -35.4920   63.9601   66.6282 C   0  0  0  0  0  0  0  0  0  0  0  0
  -37.0768   64.4562   67.7030 H   0  0  0  0  0  0  0  0  0  0  0  0
  -33.3658   63.4893   67.6654 O   0  0  0  0  0  0  0  0  0  0  0  0
  -34.3248   63.0080   66.7325 C   0  0  0  0  0  0  0  0  0  0  0  0
  -32.6250   62.8653   67.7185 H   0  0  0  0  0  0  0  0  0  0  0  0
  -40.6507   59.2413   64.5615 O   0  0  0  0  0  0  0  0  0  0  0  0
  -41.7482   60.4444   66.1134 O   0  0  0  0  0  0  0  0  0  0  0  0
  -41.5967   59.4214   65.5032 C   0  0  0  0  0  0  0  0  0  0  0  0
  -42.4465   58.2020   65.6844 C   0  0  0  0  0  0  0  0  0  0  0  0
  -43.5253   58.1079   64.6101 C   0  0  0  0  0  0  0  0  0  0  0  0
  -44.9268   57.9011   65.1605 C   0  0  0  0  0  0  0  0  0  0  0  0
  -45.1568   58.5706   66.5106 C   0  0  0  0  0  0  0  0  0  0  0  0
  -46.5365   59.1821   66.6689 C   0  0  0  0  0  0  0  0  0  0  0  0
  -47.4876   58.9190   65.4980 C   0  0  0  0  0  0  0  0  0  0  0  0
  -48.8873   59.5187   65.6481 C   0  0  0  0  0  0  0  0  0  0  0  0
  -49.1633   60.5733   64.6187 C   0  0  0  0  0  0  0  0  0  0  0  0
  -50.0649   60.5187   63.6577 C   0  0  0  0  0  0  0  0  0  0  0  0
  -51.0070   59.3866   63.3945 C   0  0  0  0  0  0  0  0  0  0  0  0
  -50.5660   58.5243   62.2153 C   0  0  0  0  0  0  0  0  0  0  0  0
  -49.2867   59.0053   61.5533 C   0  0  0  0  0  0  0  0  0  0  0  0
  -49.4340   59.2751   60.0658 C   0  0  0  0  0  0  0  0  0  0  0  0
  -49.3430   58.0370   59.1892 C   0  0  0  0  0  0  0  0  0  0  0  0
  -48.1869   57.1190   59.5559 C   0  0  0  0  0  0  0  0  0  0  0  0
  -47.0956   57.0437   58.5066 C   0  0  0  0  0  0  0  0  0  0  0  0
  -47.2217   58.1138   57.4585 C   0  0  0  0  0  0  0  0  0  0  0  0
 21 22  1  0  0  0
  4  5  2  0  0  0
 25 24  1  0  0  0
 25 26  2  0  0  0
 25 27  1  0  0  0
 25 29  1  0  0  0
 22 20  1  0  0  0
  3  5  1  0  0  0
  3  2  1  0  0  0
 20 19  1  0  0  0
 24 23  1  0  0  0
 19 18  1  0  0  0
 18 17  1  0  0  0
 27 28  1  0  0  0
 17 16  1  0  0  0
 29 30  1  0  0  0
 16 15  1  0  0  0
 34 35  1  0  0  0
 34 36  1  0  0  0
 15 14  1  0  0  0
 31 32  1  0  0  0
 31 33  1  0  0  0
 14 13  1  0  0  0
 37  1  1  0  0  0
 37 39  1  0  0  0
 13 12  1  0  0  0
 38 39  2  0  0  0
 12 11  1  0  0  0
 11 10  1  0  0  0
 10  9  1  0  0  0
  9  8  1  0  0  0
  8  7  1  0  0  0
  7  6  1  0  0  0
  6  5  1  0  0  0
  2  1  1  0  0  0
  1 23  1  0  0  0
 30 32  1  0  0  0
 32 35  1  0  0  0
 39 40  1  0  0  0
 40 41  1  0  0  0
 41 42  1  0  0  0
 42 43  1  0  0  0
 43 44  1  0  0  0
 44 45  1  0  0  0
 45 46  1  0  0  0
 46 47  1  0  0  0
 47 48  2  0  0  0
 48 49  1  0  0  0
 49 50  1  0  0  0
 50 51  1  0  0  0
 51 52  1  0  0  0
 52 53  1  0  0  0
 53 54  1  0  0  0
 54 55  1  0  0  0
 55 56  1  0  0  0
M  CHG 1  26  -1
M  END
> <minimizedAffinity>
-8.82265

> <CNNscore>
0.4706638455

> <CNNaffinity>
7.2324972153

> <CNN_VS>
3.4040749073

> <CNNaffinity_variance>
0.7371774912

$$$$
/media/chris/experiments/cd1a-new-docking/inputs/ligands/7sh4_ligand.pdb


 56 55  0  0  0  0  0  0  0  0999 V2000
  -41.1486   60.2628   64.3910 C   0  0  0  0  0  0  0  0  0  0  0  0
  -41.4126   59.1681   63.3962 C   0  0  0  0  0  0  0  0  0  0  0  0
  -41.1010   59.7712   62.1225 O   0  0  0  0  0  0  0  0  0  0  0  0
  -41.9228   58.0272   60.9900 O   0  0  0  0  0  0  0  0  0  0  0  0
  -41.2147   58.9965   61.0433 C   0  0  0  0  0  0  0  0  0  0  0  0
  -40.4477   59.5647   59.8841 C   0  0  0  0  0  0  0  0  0  0  0  0
  -38.9810   59.8282   60.1798 C   0  0  0  0  0  0  0  0  0  0  0  0
  -38.1504   58.5622   60.2005 C   0  0  0  0  0  0  0  0  0  0  0  0
  -38.5059   57.6066   61.3169 C   0  0  0  0  0  0  0  0  0  0  0  0
  -37.3736   57.3977   62.3020 C   0  0  0  0  0  0  0  0  0  0  0  0
  -36.4860   58.6090   62.4523 C   0  0  0  0  0  0  0  0  0  0  0  0
  -35.0599   58.2559   62.7833 C   0  0  0  0  0  0  0  0  0  0  0  0
  -34.7525   58.3239   64.2629 C   0  0  0  0  0  0  0  0  0  0  0  0
  -33.2805   58.5460   64.5452 C   0  0  0  0  0  0  0  0  0  0  0  0
  -32.3897   58.4051   63.3287 C   0  0  0  0  0  0  0  0  0  0  0  0
  -31.4627   59.5942   63.1030 C   0  0  0  0  0  0  0  0  0  0  0  0
  -31.7989   60.4124   61.8711 C   0  0  0  0  0  0  0  0  0  0  0  0
  -30.5767   60.8983   61.1192 C   0  0  0  0  0  0  0  0  0  0  0  0
  -29.2799   60.7514   61.9028 C   0  0  0  0  0  0  0  0  0  0  0  0
  -28.4317   62.0106   61.9159 C   0  0  0  0  0  0  0  0  0  0  0  0
  -29.5107   63.5281   63.6096 C   0  0  0  0  0  0  0  0  0  0  0  0
  -29.2054   63.2947   62.1474 C   0  0  0  0  0  0  0  0  0  0  0  0
  -40.0272   59.9117   65.3349 C   0  0  0  0  0  0  0  0  0  0  0  0
  -39.3110   61.1196   65.6760 O   0  0  0  0  0  0  0  0  0  0  0  0
  -37.8907   61.4946   65.0406 P   0  0  0  0  0  0  0  0  0  0  0  0
  -36.9059   60.4894   65.4950 O   0  0  0  0  0  0  0  0  0  0  0  0
  -38.0768   61.7018   63.5842 O   0  0  0  0  0  0  0  0  0  0  0  0
  -38.3187   60.8604   63.1663 H   0  0  0  0  0  0  0  0  0  0  0  0
  -37.4953   62.8971   65.6882 O   0  0  0  0  0  0  0  0  0  0  0  0
  -36.1873   63.4573   65.4529 C   0  0  0  0  0  0  0  0  0  0  0  0
  -35.9485   63.0178   67.7966 O   0  0  0  0  0  0  0  0  0  0  0  0
  -35.6429   63.9626   66.7666 C   0  0  0  0  0  0  0  0  0  0  0  0
  -36.9061   62.8648   67.8212 H   0  0  0  0  0  0  0  0  0  0  0  0
  -33.4825   63.4563   67.7126 O   0  0  0  0  0  0  0  0  0  0  0  0
  -34.1548   64.2129   66.7139 C   0  0  0  0  0  0  0  0  0  0  0  0
  -32.5295   63.6301   67.6629 H   0  0  0  0  0  0  0  0  0  0  0  0
  -42.3950   60.5425   65.1109 O   0  0  0  0  0  0  0  0  0  0  0  0
  -42.8119   62.6611   64.4802 O   0  0  0  0  0  0  0  0  0  0  0  0
  -43.1752   61.5255   64.6218 C   0  0  0  0  0  0  0  0  0  0  0  0
  -44.5407   61.0294   64.2596 C   0  0  0  0  0  0  0  0  0  0  0  0
  -44.8565   59.7069   64.9511 C   0  0  0  0  0  0  0  0  0  0  0  0
  -46.3147   59.2910   64.8493 C   0  0  0  0  0  0  0  0  0  0  0  0
  -47.2211   60.3786   64.2840 C   0  0  0  0  0  0  0  0  0  0  0  0
  -48.3524   60.7825   65.2111 C   0  0  0  0  0  0  0  0  0  0  0  0
  -48.9732   59.6258   65.9994 C   0  0  0  0  0  0  0  0  0  0  0  0
  -50.4487   59.3516   65.7008 C   0  0  0  0  0  0  0  0  0  0  0  0
  -51.0251   60.3477   64.7399 C   0  0  0  0  0  0  0  0  0  0  0  0
  -51.3073   60.1426   63.4680 C   0  0  0  0  0  0  0  0  0  0  0  0
  -51.1112   58.8645   62.7153 C   0  0  0  0  0  0  0  0  0  0  0  0
  -49.7152   58.7540   62.1092 C   0  0  0  0  0  0  0  0  0  0  0  0
  -49.6231   59.2866   60.6900 C   0  0  0  0  0  0  0  0  0  0  0  0
  -50.0315   58.2762   59.6318 C   0  0  0  0  0  0  0  0  0  0  0  0
  -49.2208   56.9908   59.6424 C   0  0  0  0  0  0  0  0  0  0  0  0
  -47.8435   57.1382   59.0138 C   0  0  0  0  0  0  0  0  0  0  0  0
  -47.7259   58.2911   58.0367 C   0  0  0  0  0  0  0  0  0  0  0  0
  -46.6158   58.0990   57.0417 C   0  0  0  0  0  0  0  0  0  0  0  0
 21 22  1  0  0  0
  4  5  2  0  0  0
 25 24  1  0  0  0
 25 26  2  0  0  0
 25 27  1  0  0  0
 25 29  1  0  0  0
 22 20  1  0  0  0
  3  5  1  0  0  0
  3  2  1  0  0  0
 20 19  1  0  0  0
 24 23  1  0  0  0
 19 18  1  0  0  0
 18 17  1  0  0  0
 27 28  1  0  0  0
 17 16  1  0  0  0
 29 30  1  0  0  0
 16 15  1  0  0  0
 34 35  1  0  0  0
 34 36  1  0  0  0
 15 14  1  0  0  0
 31 32  1  0  0  0
 31 33  1  0  0  0
 14 13  1  0  0  0
 37  1  1  0  0  0
 37 39  1  0  0  0
 13 12  1  0  0  0
 38 39  2  0  0  0
 12 11  1  0  0  0
 11 10  1  0  0  0
 10  9  1  0  0  0
  9  8  1  0  0  0
  8  7  1  0  0  0
  7  6  1  0  0  0
  6  5  1  0  0  0
  2  1  1  0  0  0
  1 23  1  0  0  0
 30 32  1  0  0  0
 32 35  1  0  0  0
 39 40  1  0  0  0
 40 41  1  0  0  0
 41 42  1  0  0  0
 42 43  1  0  0  0
 43 44  1  0  0  0
 44 45  1  0  0  0
 45 46  1  0  0  0
 46 47  1  0  0  0
 47 48  2  0  0  0
 48 49  1  0  0  0
 49 50  1  0  0  0
 50 51  1  0  0  0
 51 52  1  0  0  0
 52 53  1  0  0  0
 53 54  1  0  0  0
 54 55  1  0  0  0
 55 56  1  0  0  0
M  CHG 1  26  -1
M  END
> <minimizedAffinity>
-9.09723

> <CNNscore>
0.4215835333

> <CNNaffinity>
6.9192190170

> <CNN_VS>
2.9170289040

> <CNNaffinity_variance>
0.7478286028

$$$$
/media/chris/experiments/cd1a-new-docking/inputs/ligands/7sh4_ligand.pdb


 56 55  0  0  0  0  0  0  0  0999 V2000
  -40.8182   60.0473   62.1816 C   0  0  0  0  0  0  0  0  0  0  0  0
  -41.7458   61.2286   62.2262 C   0  0  0  0  0  0  0  0  0  0  0  0
  -42.9220   60.7240   62.8933 O   0  0  0  0  0  0  0  0  0  0  0  0
  -42.7217   62.2946   64.4720 O   0  0  0  0  0  0  0  0  0  0  0  0
  -43.3224   61.3744   63.9863 C   0  0  0  0  0  0  0  0  0  0  0  0
  -44.6679   60.8896   64.4439 C   0  0  0  0  0  0  0  0  0  0  0  0
  -44.6756   60.3169   65.8510 C   0  0  0  0  0  0  0  0  0  0  0  0
  -45.9520   59.5682   66.1722 C   0  0  0  0  0  0  0  0  0  0  0  0
  -46.7648   59.1804   64.9578 C   0  0  0  0  0  0  0  0  0  0  0  0
  -48.1550   58.6886   65.3067 C   0  0  0  0  0  0  0  0  0  0  0  0
  -49.0068   59.7402   65.9746 C   0  0  0  0  0  0  0  0  0  0  0  0
  -50.4559   59.6669   65.5713 C   0  0  0  0  0  0  0  0  0  0  0  0
  -50.7642   60.4257   64.2996 C   0  0  0  0  0  0  0  0  0  0  0  0
  -51.3732   59.5463   63.2263 C   0  0  0  0  0  0  0  0  0  0  0  0
  -50.3557   58.8248   62.3676 C   0  0  0  0  0  0  0  0  0  0  0  0
  -50.9712   57.8435   61.3764 C   0  0  0  0  0  0  0  0  0  0  0  0
  -50.4258   57.9680   59.9667 C   0  0  0  0  0  0  0  0  0  0  0  0
  -48.9979   58.4719   59.9160 C   0  0  0  0  0  0  0  0  0  0  0  0
  -47.9659   57.3652   59.7492 C   0  0  0  0  0  0  0  0  0  0  0  0
  -48.0902   56.6112   58.4372 C   0  0  0  0  0  0  0  0  0  0  0  0
  -46.7916   58.1993   56.9788 C   0  0  0  0  0  0  0  0  0  0  0  0
  -48.1076   57.4886   57.1999 C   0  0  0  0  0  0  0  0  0  0  0  0
  -40.3875   59.6134   63.5593 C   0  0  0  0  0  0  0  0  0  0  0  0
  -39.1522   60.2847   63.8934 O   0  0  0  0  0  0  0  0  0  0  0  0
  -38.7386   60.6420   65.3978 P   0  0  0  0  0  0  0  0  0  0  0  0
  -39.9699   60.9814   66.1430 O   0  0  0  0  0  0  0  0  0  0  0  0
  -37.8737   59.5519   65.9099 O   0  0  0  0  0  0  0  0  0  0  0  0
  -38.3925   58.7357   65.9849 H   0  0  0  0  0  0  0  0  0  0  0  0
  -37.8505   61.9620   65.2895 O   0  0  0  0  0  0  0  0  0  0  0  0
  -37.1609   62.2689   64.0606 C   0  0  0  0  0  0  0  0  0  0  0  0
  -36.7774   64.6277   63.8832 O   0  0  0  0  0  0  0  0  0  0  0  0
  -36.1955   63.3980   64.3260 C   0  0  0  0  0  0  0  0  0  0  0  0
  -37.0186   64.5526   62.9466 H   0  0  0  0  0  0  0  0  0  0  0  0
  -36.7356   64.3176   66.4895 O   0  0  0  0  0  0  0  0  0  0  0  0
  -35.8136   63.4972   65.7834 C   0  0  0  0  0  0  0  0  0  0  0  0
  -36.4741   64.3690   67.4222 H   0  0  0  0  0  0  0  0  0  0  0  0
  -39.6694   60.3942   61.3392 O   0  0  0  0  0  0  0  0  0  0  0  0
  -40.1525   59.6269   59.2805 O   0  0  0  0  0  0  0  0  0  0  0  0
  -39.4520   59.6240   60.2558 C   0  0  0  0  0  0  0  0  0  0  0  0
  -38.2248   58.7794   60.4056 C   0  0  0  0  0  0  0  0  0  0  0  0
  -38.4879   57.5628   61.2875 C   0  0  0  0  0  0  0  0  0  0  0  0
  -37.4896   57.3959   62.4211 C   0  0  0  0  0  0  0  0  0  0  0  0
  -36.4010   58.4630   62.4373 C   0  0  0  0  0  0  0  0  0  0  0  0
  -35.0455   57.9546   62.8918 C   0  0  0  0  0  0  0  0  0  0  0  0
  -34.7271   58.2211   64.3657 C   0  0  0  0  0  0  0  0  0  0  0  0
  -33.5073   59.1096   64.6186 C   0  0  0  0  0  0  0  0  0  0  0  0
  -33.5213   60.3438   63.7674 C   0  0  0  0  0  0  0  0  0  0  0  0
  -32.6090   60.7021   62.8850 C   0  0  0  0  0  0  0  0  0  0  0  0
  -31.3634   59.9456   62.5464 C   0  0  0  0  0  0  0  0  0  0  0  0
  -30.4958   60.6786   61.5274 C   0  0  0  0  0  0  0  0  0  0  0  0
  -31.0943   61.9894   61.0481 C   0  0  0  0  0  0  0  0  0  0  0  0
  -30.2709   63.2093   61.4239 C   0  0  0  0  0  0  0  0  0  0  0  0
  -29.0101   62.8990   62.2137 C   0  0  0  0  0  0  0  0  0  0  0  0
  -29.1353   63.2037   63.6987 C   0  0  0  0  0  0  0  0  0  0  0  0
  -29.6349   64.6013   64.0070 C   0  0  0  0  0  0  0  0  0  0  0  0
  -31.0490   64.6141   64.5164 C   0  0  0  0  0  0  0  0  0  0  0  0
 21 22  1  0  0  0
  4  5  2  0  0  0
 25 24  1  0  0  0
 25 26  2  0  0  0
 25 27  1  0  0  0
 25 29  1  0  0  0
 22 20  1  0  0  0
  3  5  1  0  0  0
  3  2  1  0  0  0
 20 19  1  0  0  0
 24 23  1  0  0  0
 19 18  1  0  0  0
 18 17  1  0  0  0
 27 28  1  0  0  0
 17 16  1  0  0  0
 29 30  1  0  0  0
 16 15  1  0  0  0
 34 35  1  0  0  0
 34 36  1  0  0  0
 15 14  1  0  0  0
 31 32  1  0  0  0
 31 33  1  0  0  0
 14 13  1  0  0  0
 37  1  1  0  0  0
 37 39  1  0  0  0
 13 12  1  0  0  0
 38 39  2  0  0  0
 12 11  1  0  0  0
 11 10  1  0  0  0
 10  9  1  0  0  0
  9  8  1  0  0  0
  8  7  1  0  0  0
  7  6  1  0  0  0
  6  5  1  0  0  0
  2  1  1  0  0  0
  1 23  1  0  0  0
 30 32  1  0  0  0
 32 35  1  0  0  0
 39 40  1  0  0  0
 40 41  1  0  0  0
 41 42  1  0  0  0
 42 43  1  0  0  0
 43 44  1  0  0  0
 44 45  1  0  0  0
 45 46  1  0  0  0
 46 47  1  0  0  0
 47 48  2  0  0  0
 48 49  1  0  0  0
 49 50  1  0  0  0
 50 51  1  0  0  0
 51 52  1  0  0  0
 52 53  1  0  0  0
 53 54  1  0  0  0
 54 55  1  0  0  0
 55 56  1  0  0  0
M  CHG 1  26  -1
M  END
> <minimizedAffinity>
-8.52384

> <CNNscore>
0.3598267138

> <CNNaffinity>
6.7121419907

> <CNN_VS>
2.4152081013

> <CNNaffinity_variance>
0.6128222346

$$$$
/media/chris/experiments/cd1a-new-docking/inputs/ligands/7sh4_ligand.pdb


 56 55  0  0  0  0  0  0  0  0999 V2000
  -38.5182   60.3769   64.6630 C   0  0  0  0  0  0  0  0  0  0  0  0
  -39.5364   59.8388   65.6281 C   0  0  0  0  0  0  0  0  0  0  0  0
  -40.3507   60.9855   65.9522 O   0  0  0  0  0  0  0  0  0  0  0  0
  -42.2889   61.4605   66.9605 O   0  0  0  0  0  0  0  0  0  0  0  0
  -41.6306   60.7542   66.2453 C   0  0  0  0  0  0  0  0  0  0  0  0
  -42.1614   59.5819   65.4715 C   0  0  0  0  0  0  0  0  0  0  0  0
  -43.6664   59.4012   65.5731 C   0  0  0  0  0  0  0  0  0  0  0  0
  -44.4310   60.3166   64.6401 C   0  0  0  0  0  0  0  0  0  0  0  0
  -45.9237   60.3381   64.8794 C   0  0  0  0  0  0  0  0  0  0  0  0
  -46.3259   59.6707   66.1790 C   0  0  0  0  0  0  0  0  0  0  0  0
  -47.6954   59.0391   66.1233 C   0  0  0  0  0  0  0  0  0  0  0  0
  -48.8090   60.0281   66.3461 C   0  0  0  0  0  0  0  0  0  0  0  0
  -50.0765   59.6841   65.5957 C   0  0  0  0  0  0  0  0  0  0  0  0
  -50.2312   60.4767   64.3136 C   0  0  0  0  0  0  0  0  0  0  0  0
  -51.3836   60.0234   63.4420 C   0  0  0  0  0  0  0  0  0  0  0  0
  -51.0988   58.7464   62.6594 C   0  0  0  0  0  0  0  0  0  0  0  0
  -50.1747   58.9439   61.4731 C   0  0  0  0  0  0  0  0  0  0  0  0
  -50.3107   57.8652   60.4180 C   0  0  0  0  0  0  0  0  0  0  0  0
  -49.5698   58.1789   59.1256 C   0  0  0  0  0  0  0  0  0  0  0  0
  -48.1576   57.6230   59.0845 C   0  0  0  0  0  0  0  0  0  0  0  0
  -46.8357   58.4842   57.1231 C   0  0  0  0  0  0  0  0  0  0  0  0
  -47.6306   57.3310   57.6923 C   0  0  0  0  0  0  0  0  0  0  0  0
  -37.3040   60.9248   65.3681 C   0  0  0  0  0  0  0  0  0  0  0  0
  -37.5006   62.3370   65.6036 O   0  0  0  0  0  0  0  0  0  0  0  0
  -36.3133   63.4060   65.5069 P   0  0  0  0  0  0  0  0  0  0  0  0
  -36.4218   64.3171   66.6665 O   0  0  0  0  0  0  0  0  0  0  0  0
  -35.0441   62.6684   65.2969 O   0  0  0  0  0  0  0  0  0  0  0  0
  -34.8398   62.1450   66.0875 H   0  0  0  0  0  0  0  0  0  0  0  0
  -36.6124   64.2514   64.1884 O   0  0  0  0  0  0  0  0  0  0  0  0
  -36.4514   63.6443   62.8901 C   0  0  0  0  0  0  0  0  0  0  0  0
  -36.6234   65.9779   62.3725 O   0  0  0  0  0  0  0  0  0  0  0  0
  -36.1135   64.7288   61.8965 C   0  0  0  0  0  0  0  0  0  0  0  0
  -37.5770   65.8984   62.5314 H   0  0  0  0  0  0  0  0  0  0  0  0
  -34.1326   63.6379   61.0571 O   0  0  0  0  0  0  0  0  0  0  0  0
  -34.6287   64.8344   61.6437 C   0  0  0  0  0  0  0  0  0  0  0  0
  -33.1790   63.7249   60.9024 H   0  0  0  0  0  0  0  0  0  0  0  0
  -39.1654   61.3945   63.8291 O   0  0  0  0  0  0  0  0  0  0  0  0
  -38.4337   61.1107   61.7209 O   0  0  0  0  0  0  0  0  0  0  0  0
  -39.3263   61.1025   62.5241 C   0  0  0  0  0  0  0  0  0  0  0  0
  -40.7447   60.7493   62.1995 C   0  0  0  0  0  0  0  0  0  0  0  0
  -40.9262   60.4783   60.7094 C   0  0  0  0  0  0  0  0  0  0  0  0
  -41.0932   59.0072   60.3664 C   0  0  0  0  0  0  0  0  0  0  0  0
  -39.9779   58.4559   59.4854 C   0  0  0  0  0  0  0  0  0  0  0  0
  -38.7341   58.0437   60.2505 C   0  0  0  0  0  0  0  0  0  0  0  0
  -39.0057   57.4563   61.6383 C   0  0  0  0  0  0  0  0  0  0  0  0
  -37.8384   57.5456   62.6236 C   0  0  0  0  0  0  0  0  0  0  0  0
  -36.6296   58.1868   62.0106 C   0  0  0  0  0  0  0  0  0  0  0  0
  -35.4376   58.3074   62.5618 C   0  0  0  0  0  0  0  0  0  0  0  0
  -35.0407   57.8250   63.9213 C   0  0  0  0  0  0  0  0  0  0  0  0
  -33.8293   58.5708   64.4732 C   0  0  0  0  0  0  0  0  0  0  0  0
  -33.5782   59.9084   63.7994 C   0  0  0  0  0  0  0  0  0  0  0  0
  -32.7238   59.8098   62.5474 C   0  0  0  0  0  0  0  0  0  0  0  0
  -31.2432   59.5909   62.8111 C   0  0  0  0  0  0  0  0  0  0  0  0
  -30.3400   60.4733   61.9630 C   0  0  0  0  0  0  0  0  0  0  0  0
  -29.3564   61.3059   62.7611 C   0  0  0  0  0  0  0  0  0  0  0  0
  -27.9307   61.0842   62.3396 C   0  0  0  0  0  0  0  0  0  0  0  0
 21 22  1  0  0  0
  4  5  2  0  0  0
 25 24  1  0  0  0
 25 26  2  0  0  0
 25 27  1  0  0  0
 25 29  1  0  0  0
 22 20  1  0  0  0
  3  5  1  0  0  0
  3  2  1  0  0  0
 20 19  1  0  0  0
 24 23  1  0  0  0
 19 18  1  0  0  0
 18 17  1  0  0  0
 27 28  1  0  0  0
 17 16  1  0  0  0
 29 30  1  0  0  0
 16 15  1  0  0  0
 34 35  1  0  0  0
 34 36  1  0  0  0
 15 14  1  0  0  0
 31 32  1  0  0  0
 31 33  1  0  0  0
 14 13  1  0  0  0
 37  1  1  0  0  0
 37 39  1  0  0  0
 13 12  1  0  0  0
 38 39  2  0  0  0
 12 11  1  0  0  0
 11 10  1  0  0  0
 10  9  1  0  0  0
  9  8  1  0  0  0
  8  7  1  0  0  0
  7  6  1  0  0  0
  6  5  1  0  0  0
  2  1  1  0  0  0
  1 23  1  0  0  0
 30 32  1  0  0  0
 32 35  1  0  0  0
 39 40  1  0  0  0
 40 41  1  0  0  0
 41 42  1  0  0  0
 42 43  1  0  0  0
 43 44  1  0  0  0
 44 45  1  0  0  0
 45 46  1  0  0  0
 46 47  1  0  0  0
 47 48  2  0  0  0
 48 49  1  0  0  0
 49 50  1  0  0  0
 50 51  1  0  0  0
 51 52  1  0  0  0
 52 53  1  0  0  0
 53 54  1  0  0  0
 54 55  1  0  0  0
 55 56  1  0  0  0
M  CHG 1  26  -1
M  END
> <minimizedAffinity>
-8.80713

> <CNNscore>
0.3581153750

> <CNNaffinity>
7.1285767555

> <CNN_VS>
2.5528528690

> <CNNaffinity_variance>
0.8310090899

$$$$
/media/chris/experiments/cd1a-new-docking/inputs/ligands/7sh4_ligand.pdb


 56 55  0  0  0  0  0  0  0  0999 V2000
  -41.4330   58.2788   63.3639 C   0  0  0  0  0  0  0  0  0  0  0  0
  -41.5233   58.5591   61.8905 C   0  0  0  0  0  0  0  0  0  0  0  0
  -40.1800   58.9393   61.5244 O   0  0  0  0  0  0  0  0  0  0  0  0
  -40.3260   57.9501   59.5245 O   0  0  0  0  0  0  0  0  0  0  0  0
  -39.6640   58.3637   60.4380 C   0  0  0  0  0  0  0  0  0  0  0  0
  -38.1635   58.4176   60.4560 C   0  0  0  0  0  0  0  0  0  0  0  0
  -37.5296   57.6716   61.6178 C   0  0  0  0  0  0  0  0  0  0  0  0
  -36.5195   58.5105   62.3720 C   0  0  0  0  0  0  0  0  0  0  0  0
  -35.3339   57.7313   62.8943 C   0  0  0  0  0  0  0  0  0  0  0  0
  -34.7500   58.3189   64.1631 C   0  0  0  0  0  0  0  0  0  0  0  0
  -33.2519   58.4912   64.1032 C   0  0  0  0  0  0  0  0  0  0  0  0
  -32.7766   59.0559   62.7906 C   0  0  0  0  0  0  0  0  0  0  0  0
  -31.6026   59.9992   62.9327 C   0  0  0  0  0  0  0  0  0  0  0  0
  -31.0262   60.4218   61.5966 C   0  0  0  0  0  0  0  0  0  0  0  0
  -29.5900   60.8967   61.6656 C   0  0  0  0  0  0  0  0  0  0  0  0
  -29.4013   62.1720   62.4793 C   0  0  0  0  0  0  0  0  0  0  0  0
  -28.7637   63.3090   61.7041 C   0  0  0  0  0  0  0  0  0  0  0  0
  -29.5260   64.6137   61.8130 C   0  0  0  0  0  0  0  0  0  0  0  0
  -30.4521   64.8795   60.6343 C   0  0  0  0  0  0  0  0  0  0  0  0
  -31.9106   65.0283   61.0290 C   0  0  0  0  0  0  0  0  0  0  0  0
  -32.8452   63.4533   62.7558 C   0  0  0  0  0  0  0  0  0  0  0  0
  -32.6362   63.7204   61.2825 C   0  0  0  0  0  0  0  0  0  0  0  0
  -40.0456   57.8583   63.7762 C   0  0  0  0  0  0  0  0  0  0  0  0
  -39.6988   58.5386   65.0032 O   0  0  0  0  0  0  0  0  0  0  0  0
  -39.1423   60.0390   65.0356 P   0  0  0  0  0  0  0  0  0  0  0  0
  -37.9118   60.0534   65.8555 O   0  0  0  0  0  0  0  0  0  0  0  0
  -39.0745   60.5363   63.6403 O   0  0  0  0  0  0  0  0  0  0  0  0
  -38.4031   60.0356   63.1509 H   0  0  0  0  0  0  0  0  0  0  0  0
  -40.2542   60.8854   65.8037 O   0  0  0  0  0  0  0  0  0  0  0  0
  -41.2944   60.2100   66.5399 C   0  0  0  0  0  0  0  0  0  0  0  0
  -42.8021   61.9224   67.2730 O   0  0  0  0  0  0  0  0  0  0  0  0
  -42.6008   60.9174   66.2749 C   0  0  0  0  0  0  0  0  0  0  0  0
  -42.7674   61.5157   68.1530 H   0  0  0  0  0  0  0  0  0  0  0  0
  -43.9724   61.4827   64.3729 O   0  0  0  0  0  0  0  0  0  0  0  0
  -42.6517   61.5335   64.8974 C   0  0  0  0  0  0  0  0  0  0  0  0
  -43.9849   61.8825   63.4892 H   0  0  0  0  0  0  0  0  0  0  0  0
  -42.4309   57.2589   63.7017 O   0  0  0  0  0  0  0  0  0  0  0  0
  -42.6415   57.0730   65.9335 O   0  0  0  0  0  0  0  0  0  0  0  0
  -43.0854   57.4082   64.8694 C   0  0  0  0  0  0  0  0  0  0  0  0
  -44.4217   58.0574   64.6839 C   0  0  0  0  0  0  0  0  0  0  0  0
  -45.3358   57.8063   65.8790 C   0  0  0  0  0  0  0  0  0  0  0  0
  -46.4440   58.8347   66.0342 C   0  0  0  0  0  0  0  0  0  0  0  0
  -46.8322   59.5150   64.7264 C   0  0  0  0  0  0  0  0  0  0  0  0
  -48.0450   60.4201   64.8381 C   0  0  0  0  0  0  0  0  0  0  0  0
  -49.0055   60.0600   65.9751 C   0  0  0  0  0  0  0  0  0  0  0  0
  -50.3291   59.4307   65.5353 C   0  0  0  0  0  0  0  0  0  0  0  0
  -51.0649   60.2916   64.5527 C   0  0  0  0  0  0  0  0  0  0  0  0
  -51.3570   59.9870   63.3032 C   0  0  0  0  0  0  0  0  0  0  0  0
  -51.0142   58.7103   62.6026 C   0  0  0  0  0  0  0  0  0  0  0  0
  -49.5845   58.7045   62.0693 C   0  0  0  0  0  0  0  0  0  0  0  0
  -49.4739   59.1357   60.6173 C   0  0  0  0  0  0  0  0  0  0  0  0
  -50.2561   58.2549   59.6583 C   0  0  0  0  0  0  0  0  0  0  0  0
  -49.4502   57.7384   58.4780 C   0  0  0  0  0  0  0  0  0  0  0  0
  -47.9978   58.1903   58.4921 C   0  0  0  0  0  0  0  0  0  0  0  0
  -47.2153   57.8078   57.2515 C   0  0  0  0  0  0  0  0  0  0  0  0
  -46.9650   56.3288   57.1549 C   0  0  0  0  0  0  0  0  0  0  0  0
 21 22  1  0  0  0
  4  5  2  0  0  0
 25 24  1  0  0  0
 25 26  2  0  0  0
 25 27  1  0  0  0
 25 29  1  0  0  0
 22 20  1  0  0  0
  3  5  1  0  0  0
  3  2  1  0  0  0
 20 19  1  0  0  0
 24 23  1  0  0  0
 19 18  1  0  0  0
 18 17  1  0  0  0
 27 28  1  0  0  0
 17 16  1  0  0  0
 29 30  1  0  0  0
 16 15  1  0  0  0
 34 35  1  0  0  0
 34 36  1  0  0  0
 15 14  1  0  0  0
 31 32  1  0  0  0
 31 33  1  0  0  0
 14 13  1  0  0  0
 37  1  1  0  0  0
 37 39  1  0  0  0
 13 12  1  0  0  0
 38 39  2  0  0  0
 12 11  1  0  0  0
 11 10  1  0  0  0
 10  9  1  0  0  0
  9  8  1  0  0  0
  8  7  1  0  0  0
  7  6  1  0  0  0
  6  5  1  0  0  0
  2  1  1  0  0  0
  1 23  1  0  0  0
 30 32  1  0  0  0
 32 35  1  0  0  0
 39 40  1  0  0  0
 40 41  1  0  0  0
 41 42  1  0  0  0
 42 43  1  0  0  0
 43 44  1  0  0  0
 44 45  1  0  0  0
 45 46  1  0  0  0
 46 47  1  0  0  0
 47 48  2  0  0  0
 48 49  1  0  0  0
 49 50  1  0  0  0
 50 51  1  0  0  0
 51 52  1  0  0  0
 52 53  1  0  0  0
 53 54  1  0  0  0
 54 55  1  0  0  0
 55 56  1  0  0  0
M  CHG 1  26  -1
M  END
> <minimizedAffinity>
-8.09263

> <CNNscore>
0.3499814868

> <CNNaffinity>
6.5191564560

> <CNN_VS>
2.2815840244

> <CNNaffinity_variance>
0.6792874336

$$$$
