/media/chris/experiments/cd1a-new-docking/inputs/ligands/7sh4_ligand.pdb


 56 55  0  0  0  0  0  0  0  0999 V2000
  -40.8851   60.0808   64.7412 C   0  0  0  0  0  0  0  0  0  0  0  0
  -41.2839   58.7990   64.0661 C   0  0  0  0  0  0  0  0  0  0  0  0
  -41.6477   57.9279   65.1579 O   0  0  0  0  0  0  0  0  0  0  0  0
  -42.2229   55.8189   64.6882 O   0  0  0  0  0  0  0  0  0  0  0  0
  -42.5286   56.9627   64.8927 C   0  0  0  0  0  0  0  0  0  0  0  0
  -43.9380   57.4676   65.0090 C   0  0  0  0  0  0  0  0  0  0  0  0
  -44.3841   57.7396   66.4357 C   0  0  0  0  0  0  0  0  0  0  0  0
  -45.8894   57.8266   66.5727 C   0  0  0  0  0  0  0  0  0  0  0  0
  -46.6055   58.2197   65.3006 C   0  0  0  0  0  0  0  0  0  0  0  0
  -47.1804   59.6208   65.3517 C   0  0  0  0  0  0  0  0  0  0  0  0
  -48.1846   59.8106   66.4622 C   0  0  0  0  0  0  0  0  0  0  0  0
  -49.6107   59.7541   65.9819 C   0  0  0  0  0  0  0  0  0  0  0  0
  -49.8142   60.3980   64.6284 C   0  0  0  0  0  0  0  0  0  0  0  0
  -51.1670   60.0778   64.0254 C   0  0  0  0  0  0  0  0  0  0  0  0
  -51.1307   58.9980   62.9643 C   0  0  0  0  0  0  0  0  0  0  0  0
  -49.8446   58.9815   62.1460 C   0  0  0  0  0  0  0  0  0  0  0  0
  -50.0426   58.5882   60.6947 C   0  0  0  0  0  0  0  0  0  0  0  0
  -49.1208   59.3205   59.7413 C   0  0  0  0  0  0  0  0  0  0  0  0
  -48.3529   58.3978   58.8052 C   0  0  0  0  0  0  0  0  0  0  0  0
  -48.3152   56.9533   59.2718 C   0  0  0  0  0  0  0  0  0  0  0  0
  -47.1407   56.3630   57.1253 C   0  0  0  0  0  0  0  0  0  0  0  0
  -47.2498   56.1001   58.6101 C   0  0  0  0  0  0  0  0  0  0  0  0
  -39.6419   59.9172   65.5775 C   0  0  0  0  0  0  0  0  0  0  0  0
  -39.0663   61.2213   65.8152 O   0  0  0  0  0  0  0  0  0  0  0  0
  -37.7503   61.7384   65.0650 P   0  0  0  0  0  0  0  0  0  0  0  0
  -36.6681   60.7617   65.3132 O   0  0  0  0  0  0  0  0  0  0  0  0
  -38.1136   62.0582   63.6634 O   0  0  0  0  0  0  0  0  0  0  0  0
  -38.3572   61.2424   63.1984 H   0  0  0  0  0  0  0  0  0  0  0  0
  -37.3576   63.1019   65.7926 O   0  0  0  0  0  0  0  0  0  0  0  0
  -36.1777   63.8237   65.3842 C   0  0  0  0  0  0  0  0  0  0  0  0
  -36.1363   64.0123   67.7728 O   0  0  0  0  0  0  0  0  0  0  0  0
  -35.3160   64.0544   66.6013 C   0  0  0  0  0  0  0  0  0  0  0  0
  -36.8510   64.6627   67.6906 H   0  0  0  0  0  0  0  0  0  0  0  0
  -33.2935   63.4120   67.7480 O   0  0  0  0  0  0  0  0  0  0  0  0
  -34.1967   63.0470   66.7124 C   0  0  0  0  0  0  0  0  0  0  0  0
  -32.5827   62.7542   67.8038 H   0  0  0  0  0  0  0  0  0  0  0  0
  -42.0187   60.5525   65.5425 O   0  0  0  0  0  0  0  0  0  0  0  0
  -44.1773   61.0396   65.1382 O   0  0  0  0  0  0  0  0  0  0  0  0
  -43.0122   61.1805   64.8846 C   0  0  0  0  0  0  0  0  0  0  0  0
  -42.4897   62.0873   63.8138 C   0  0  0  0  0  0  0  0  0  0  0  0
  -43.1299   61.7838   62.4630 C   0  0  0  0  0  0  0  0  0  0  0  0
  -42.1852   61.9442   61.2832 C   0  0  0  0  0  0  0  0  0  0  0  0
  -41.2413   60.7625   61.0927 C   0  0  0  0  0  0  0  0  0  0  0  0
  -41.1236   60.2924   59.6548 C   0  0  0  0  0  0  0  0  0  0  0  0
  -39.9272   59.3770   59.3801 C   0  0  0  0  0  0  0  0  0  0  0  0
  -38.9796   59.1704   60.5638 C   0  0  0  0  0  0  0  0  0  0  0  0
  -39.1160   57.8034   61.1646 C   0  0  0  0  0  0  0  0  0  0  0  0
  -38.4586   57.3321   62.2063 C   0  0  0  0  0  0  0  0  0  0  0  0
  -37.4351   58.0687   63.0112 C   0  0  0  0  0  0  0  0  0  0  0  0
  -36.0256   57.5235   62.8002 C   0  0  0  0  0  0  0  0  0  0  0  0
  -34.9315   58.5409   63.0723 C   0  0  0  0  0  0  0  0  0  0  0  0
  -34.2594   58.3670   64.4234 C   0  0  0  0  0  0  0  0  0  0  0  0
  -32.7821   58.7228   64.4422 C   0  0  0  0  0  0  0  0  0  0  0  0
  -32.1483   58.7506   63.0597 C   0  0  0  0  0  0  0  0  0  0  0  0
  -31.3437   60.0021   62.7693 C   0  0  0  0  0  0  0  0  0  0  0  0
  -32.1916   61.1326   62.2567 C   0  0  0  0  0  0  0  0  0  0  0  0
 21 22  1  0  0  0
  4  5  2  0  0  0
 25 24  1  0  0  0
 25 26  2  0  0  0
 25 27  1  0  0  0
 25 29  1  0  0  0
 22 20  1  0  0  0
  3  5  1  0  0  0
  3  2  1  0  0  0
 20 19  1  0  0  0
 24 23  1  0  0  0
 19 18  1  0  0  0
 18 17  1  0  0  0
 27 28  1  0  0  0
 17 16  1  0  0  0
 29 30  1  0  0  0
 16 15  1  0  0  0
 34 35  1  0  0  0
 34 36  1  0  0  0
 15 14  1  0  0  0
 31 32  1  0  0  0
 31 33  1  0  0  0
 14 13  1  0  0  0
 37  1  1  0  0  0
 37 39  1  0  0  0
 13 12  1  0  0  0
 38 39  2  0  0  0
 12 11  1  0  0  0
 11 10  1  0  0  0
 10  9  1  0  0  0
  9  8  1  0  0  0
  8  7  1  0  0  0
  7  6  1  0  0  0
  6  5  1  0  0  0
  2  1  1  0  0  0
  1 23  1  0  0  0
 30 32  1  0  0  0
 32 35  1  0  0  0
 39 40  1  0  0  0
 40 41  1  0  0  0
 41 42  1  0  0  0
 42 43  1  0  0  0
 43 44  1  0  0  0
 44 45  1  0  0  0
 45 46  1  0  0  0
 46 47  1  0  0  0
 47 48  2  0  0  0
 48 49  1  0  0  0
 49 50  1  0  0  0
 50 51  1  0  0  0
 51 52  1  0  0  0
 52 53  1  0  0  0
 53 54  1  0  0  0
 54 55  1  0  0  0
 55 56  1  0  0  0
M  CHG 1  26  -1
M  END
> <minimizedAffinity>
-8.70524

> <CNNscore>
0.4702207744

> <CNNaffinity>
7.4837441444

> <CNN_VS>
3.5190119743

> <CNNaffinity_variance>
1.3556314707

$$$$
/media/chris/experiments/cd1a-new-docking/inputs/ligands/7sh4_ligand.pdb


 56 55  0  0  0  0  0  0  0  0999 V2000
  -38.7798   60.7152   62.4070 C   0  0  0  0  0  0  0  0  0  0  0  0
  -40.2637   60.9083   62.2721 C   0  0  0  0  0  0  0  0  0  0  0  0
  -40.7103   61.1388   63.6251 O   0  0  0  0  0  0  0  0  0  0  0  0
  -42.5889   62.3237   63.8832 O   0  0  0  0  0  0  0  0  0  0  0  0
  -42.0241   61.2654   63.8143 C   0  0  0  0  0  0  0  0  0  0  0  0
  -42.7055   59.9273   63.8018 C   0  0  0  0  0  0  0  0  0  0  0  0
  -44.2048   59.9922   64.0392 C   0  0  0  0  0  0  0  0  0  0  0  0
  -44.5644   60.0276   65.5096 C   0  0  0  0  0  0  0  0  0  0  0  0
  -46.0497   60.0992   65.7824 C   0  0  0  0  0  0  0  0  0  0  0  0
  -46.7745   58.8071   65.4641 C   0  0  0  0  0  0  0  0  0  0  0  0
  -47.7993   58.9559   64.3662 C   0  0  0  0  0  0  0  0  0  0  0  0
  -48.1497   60.3920   64.0790 C   0  0  0  0  0  0  0  0  0  0  0  0
  -49.6070   60.7148   64.3246 C   0  0  0  0  0  0  0  0  0  0  0  0
  -50.5022   59.4968   64.2188 C   0  0  0  0  0  0  0  0  0  0  0  0
  -51.1774   59.3412   62.8723 C   0  0  0  0  0  0  0  0  0  0  0  0
  -50.7727   58.0770   62.1226 C   0  0  0  0  0  0  0  0  0  0  0  0
  -49.4530   58.1942   61.3845 C   0  0  0  0  0  0  0  0  0  0  0  0
  -49.5286   59.0714   60.1516 C   0  0  0  0  0  0  0  0  0  0  0  0
  -48.5127   58.7052   59.0788 C   0  0  0  0  0  0  0  0  0  0  0  0
  -48.1037   57.2431   59.1029 C   0  0  0  0  0  0  0  0  0  0  0  0
  -46.7326   57.9971   57.1313 C   0  0  0  0  0  0  0  0  0  0  0  0
  -47.1699   56.8266   57.9824 C   0  0  0  0  0  0  0  0  0  0  0  0
  -38.1334   61.8265   63.1937 C   0  0  0  0  0  0  0  0  0  0  0  0
  -36.9529   62.2702   62.4881 O   0  0  0  0  0  0  0  0  0  0  0  0
  -35.9804   63.4084   63.0544 P   0  0  0  0  0  0  0  0  0  0  0  0
  -34.9526   63.6849   62.0278 O   0  0  0  0  0  0  0  0  0  0  0  0
  -36.8181   64.5297   63.5438 O   0  0  0  0  0  0  0  0  0  0  0  0
  -37.2724   64.9451   62.7940 H   0  0  0  0  0  0  0  0  0  0  0  0
  -35.2531   62.7544   64.3138 O   0  0  0  0  0  0  0  0  0  0  0  0
  -34.5138   63.5853   65.2319 C   0  0  0  0  0  0  0  0  0  0  0  0
  -33.4735   63.3816   67.3811 O   0  0  0  0  0  0  0  0  0  0  0  0
  -34.6058   62.9726   66.6078 C   0  0  0  0  0  0  0  0  0  0  0  0
  -32.6586   63.1372   66.9153 H   0  0  0  0  0  0  0  0  0  0  0  0
  -36.6301   64.2830   66.5530 O   0  0  0  0  0  0  0  0  0  0  0  0
  -35.8845   63.3455   67.3189 C   0  0  0  0  0  0  0  0  0  0  0  0
  -37.4465   64.5099   67.0253 H   0  0  0  0  0  0  0  0  0  0  0  0
  -38.2055   60.5981   61.0630 O   0  0  0  0  0  0  0  0  0  0  0  0
  -37.0528   58.6931   61.3834 O   0  0  0  0  0  0  0  0  0  0  0  0
  -37.7543   59.3834   60.6955 C   0  0  0  0  0  0  0  0  0  0  0  0
  -38.2465   58.9900   59.3373 C   0  0  0  0  0  0  0  0  0  0  0  0
  -39.7530   59.1915   59.2088 C   0  0  0  0  0  0  0  0  0  0  0  0
  -40.5531   57.8997   59.2464 C   0  0  0  0  0  0  0  0  0  0  0  0
  -41.4249   57.7583   60.4889 C   0  0  0  0  0  0  0  0  0  0  0  0
  -41.2994   56.4138   61.1809 C   0  0  0  0  0  0  0  0  0  0  0  0
  -41.0141   56.4951   62.6832 C   0  0  0  0  0  0  0  0  0  0  0  0
  -39.8153   57.3628   63.0727 C   0  0  0  0  0  0  0  0  0  0  0  0
  -39.8896   57.8217   64.4982 C   0  0  0  0  0  0  0  0  0  0  0  0
  -38.9185   58.3740   65.1992 C   0  0  0  0  0  0  0  0  0  0  0  0
  -37.5327   58.6610   64.7139 C   0  0  0  0  0  0  0  0  0  0  0  0
  -36.5651   57.5178   65.0057 C   0  0  0  0  0  0  0  0  0  0  0  0
  -35.2413   57.6372   64.2711 C   0  0  0  0  0  0  0  0  0  0  0  0
  -34.3856   58.8006   64.7418 C   0  0  0  0  0  0  0  0  0  0  0  0
  -32.8933   58.6132   64.5238 C   0  0  0  0  0  0  0  0  0  0  0  0
  -32.4517   58.8823   63.0933 C   0  0  0  0  0  0  0  0  0  0  0  0
  -32.0888   60.3277   62.8158 C   0  0  0  0  0  0  0  0  0  0  0  0
  -31.2796   60.4932   61.5598 C   0  0  0  0  0  0  0  0  0  0  0  0
 21 22  1  0  0  0
  4  5  2  0  0  0
 25 24  1  0  0  0
 25 26  2  0  0  0
 25 27  1  0  0  0
 25 29  1  0  0  0
 22 20  1  0  0  0
  3  5  1  0  0  0
  3  2  1  0  0  0
 20 19  1  0  0  0
 24 23  1  0  0  0
 19 18  1  0  0  0
 18 17  1  0  0  0
 27 28  1  0  0  0
 17 16  1  0  0  0
 29 30  1  0  0  0
 16 15  1  0  0  0
 34 35  1  0  0  0
 34 36  1  0  0  0
 15 14  1  0  0  0
 31 32  1  0  0  0
 31 33  1  0  0  0
 14 13  1  0  0  0
 37  1  1  0  0  0
 37 39  1  0  0  0
 13 12  1  0  0  0
 38 39  2  0  0  0
 12 11  1  0  0  0
 11 10  1  0  0  0
 10  9  1  0  0  0
  9  8  1  0  0  0
  8  7  1  0  0  0
  7  6  1  0  0  0
  6  5  1  0  0  0
  2  1  1  0  0  0
  1 23  1  0  0  0
 30 32  1  0  0  0
 32 35  1  0  0  0
 39 40  1  0  0  0
 40 41  1  0  0  0
 41 42  1  0  0  0
 42 43  1  0  0  0
 43 44  1  0  0  0
 44 45  1  0  0  0
 45 46  1  0  0  0
 46 47  1  0  0  0
 47 48  2  0  0  0
 48 49  1  0  0  0
 49 50  1  0  0  0
 50 51  1  0  0  0
 51 52  1  0  0  0
 52 53  1  0  0  0
 53 54  1  0  0  0
 54 55  1  0  0  0
 55 56  1  0  0  0
M  CHG 1  26  -1
M  END
> <minimizedAffinity>
-8.67220

> <CNNscore>
0.4577061534

> <CNNaffinity>
7.4606652260

> <CNN_VS>
3.4147922993

> <CNNaffinity_variance>
1.1671226025

$$$$
/media/chris/experiments/cd1a-new-docking/inputs/ligands/7sh4_ligand.pdb


 56 55  0  0  0  0  0  0  0  0999 V2000
  -40.7816   60.2546   63.6523 C   0  0  0  0  0  0  0  0  0  0  0  0
  -40.6187   59.3937   64.8729 C   0  0  0  0  0  0  0  0  0  0  0  0
  -40.6920   58.0459   64.3619 O   0  0  0  0  0  0  0  0  0  0  0  0
  -42.2787   57.4338   65.8136 O   0  0  0  0  0  0  0  0  0  0  0  0
  -41.7324   57.3081   64.7508 C   0  0  0  0  0  0  0  0  0  0  0  0
  -42.1984   56.4029   63.6470 C   0  0  0  0  0  0  0  0  0  0  0  0
  -41.1067   56.0054   62.6679 C   0  0  0  0  0  0  0  0  0  0  0  0
  -41.5018   56.2353   61.2245 C   0  0  0  0  0  0  0  0  0  0  0  0
  -41.7540   57.6843   60.8746 C   0  0  0  0  0  0  0  0  0  0  0  0
  -41.1460   58.0887   59.5468 C   0  0  0  0  0  0  0  0  0  0  0  0
  -40.0987   59.1675   59.6771 C   0  0  0  0  0  0  0  0  0  0  0  0
  -38.7265   58.7089   59.2594 C   0  0  0  0  0  0  0  0  0  0  0  0
  -37.7410   58.6433   60.4051 C   0  0  0  0  0  0  0  0  0  0  0  0
  -38.1673   57.6737   61.4889 C   0  0  0  0  0  0  0  0  0  0  0  0
  -37.2973   57.7101   62.7277 C   0  0  0  0  0  0  0  0  0  0  0  0
  -35.9371   58.3622   62.5064 C   0  0  0  0  0  0  0  0  0  0  0  0
  -34.7885   57.6352   63.1788 C   0  0  0  0  0  0  0  0  0  0  0  0
  -34.4388   58.1937   64.5430 C   0  0  0  0  0  0  0  0  0  0  0  0
  -33.0946   58.9071   64.5840 C   0  0  0  0  0  0  0  0  0  0  0  0
  -32.3161   58.8116   63.2839 C   0  0  0  0  0  0  0  0  0  0  0  0
  -32.9492   61.2452   63.1710 C   0  0  0  0  0  0  0  0  0  0  0  0
  -32.1414   60.1279   62.5505 C   0  0  0  0  0  0  0  0  0  0  0  0
  -39.4579   60.7477   63.1266 C   0  0  0  0  0  0  0  0  0  0  0  0
  -38.8925   61.6716   64.0833 O   0  0  0  0  0  0  0  0  0  0  0  0
  -37.3556   61.6273   64.5280 P   0  0  0  0  0  0  0  0  0  0  0  0
  -37.1389   60.3871   65.3037 O   0  0  0  0  0  0  0  0  0  0  0  0
  -36.5205   61.8715   63.3272 O   0  0  0  0  0  0  0  0  0  0  0  0
  -36.6189   61.1307   62.7088 H   0  0  0  0  0  0  0  0  0  0  0  0
  -37.1660   62.8642   65.5163 O   0  0  0  0  0  0  0  0  0  0  0  0
  -36.1079   63.8166   65.2855 C   0  0  0  0  0  0  0  0  0  0  0  0
  -36.3059   64.0509   67.6622 O   0  0  0  0  0  0  0  0  0  0  0  0
  -35.3669   64.0282   66.5829 C   0  0  0  0  0  0  0  0  0  0  0  0
  -36.9734   64.7346   67.4957 H   0  0  0  0  0  0  0  0  0  0  0  0
  -33.2753   63.4735   67.6487 O   0  0  0  0  0  0  0  0  0  0  0  0
  -34.3191   62.9685   66.8260 C   0  0  0  0  0  0  0  0  0  0  0  0
  -32.6131   62.7796   67.7932 H   0  0  0  0  0  0  0  0  0  0  0  0
  -41.6790   61.3648   63.9869 O   0  0  0  0  0  0  0  0  0  0  0  0
  -42.8669   61.3731   62.0767 O   0  0  0  0  0  0  0  0  0  0  0  0
  -42.8162   61.4672   63.2726 C   0  0  0  0  0  0  0  0  0  0  0  0
  -44.0096   61.6934   64.1482 C   0  0  0  0  0  0  0  0  0  0  0  0
  -44.2776   60.4919   65.0489 C   0  0  0  0  0  0  0  0  0  0  0  0
  -44.9471   59.3266   64.3390 C   0  0  0  0  0  0  0  0  0  0  0  0
  -46.4521   59.2548   64.5704 C   0  0  0  0  0  0  0  0  0  0  0  0
  -46.9396   60.1056   65.7283 C   0  0  0  0  0  0  0  0  0  0  0  0
  -48.3434   59.7547   66.2294 C   0  0  0  0  0  0  0  0  0  0  0  0
  -49.2314   59.0232   65.2205 C   0  0  0  0  0  0  0  0  0  0  0  0
  -50.5062   59.7642   64.9485 C   0  0  0  0  0  0  0  0  0  0  0  0
  -51.0588   59.9740   63.7695 C   0  0  0  0  0  0  0  0  0  0  0  0
  -50.5260   59.5116   62.4501 C   0  0  0  0  0  0  0  0  0  0  0  0
  -51.0468   58.1304   62.0636 C   0  0  0  0  0  0  0  0  0  0  0  0
  -50.2542   57.4702   60.9490 C   0  0  0  0  0  0  0  0  0  0  0  0
  -48.9154   58.1342   60.6769 C   0  0  0  0  0  0  0  0  0  0  0  0
  -48.1178   57.5035   59.5476 C   0  0  0  0  0  0  0  0  0  0  0  0
  -47.9136   58.4305   58.3591 C   0  0  0  0  0  0  0  0  0  0  0  0
  -47.1622   57.8023   57.2020 C   0  0  0  0  0  0  0  0  0  0  0  0
  -47.2255   56.3004   57.2145 C   0  0  0  0  0  0  0  0  0  0  0  0
 21 22  1  0  0  0
  4  5  2  0  0  0
 25 24  1  0  0  0
 25 26  2  0  0  0
 25 27  1  0  0  0
 25 29  1  0  0  0
 22 20  1  0  0  0
  3  5  1  0  0  0
  3  2  1  0  0  0
 20 19  1  0  0  0
 24 23  1  0  0  0
 19 18  1  0  0  0
 18 17  1  0  0  0
 27 28  1  0  0  0
 17 16  1  0  0  0
 29 30  1  0  0  0
 16 15  1  0  0  0
 34 35  1  0  0  0
 34 36  1  0  0  0
 15 14  1  0  0  0
 31 32  1  0  0  0
 31 33  1  0  0  0
 14 13  1  0  0  0
 37  1  1  0  0  0
 37 39  1  0  0  0
 13 12  1  0  0  0
 38 39  2  0  0  0
 12 11  1  0  0  0
 11 10  1  0  0  0
 10  9  1  0  0  0
  9  8  1  0  0  0
  8  7  1  0  0  0
  7  6  1  0  0  0
  6  5  1  0  0  0
  2  1  1  0  0  0
  1 23  1  0  0  0
 30 32  1  0  0  0
 32 35  1  0  0  0
 39 40  1  0  0  0
 40 41  1  0  0  0
 41 42  1  0  0  0
 42 43  1  0  0  0
 43 44  1  0  0  0
 44 45  1  0  0  0
 45 46  1  0  0  0
 46 47  1  0  0  0
 47 48  2  0  0  0
 48 49  1  0  0  0
 49 50  1  0  0  0
 50 51  1  0  0  0
 51 52  1  0  0  0
 52 53  1  0  0  0
 53 54  1  0  0  0
 54 55  1  0  0  0
 55 56  1  0  0  0
M  CHG 1  26  -1
M  END
> <minimizedAffinity>
-9.22461

> <CNNscore>
0.4186686575

> <CNNaffinity>
7.4221258163

> <CNN_VS>
3.1074113846

> <CNNaffinity_variance>
1.6486781836

$$$$
/media/chris/experiments/cd1a-new-docking/inputs/ligands/7sh4_ligand.pdb


 56 55  0  0  0  0  0  0  0  0999 V2000
  -41.1406   59.3966   64.6820 C   0  0  0  0  0  0  0  0  0  0  0  0
  -40.5847   58.0013   64.6404 C   0  0  0  0  0  0  0  0  0  0  0  0
  -40.4569   57.7181   63.2310 O   0  0  0  0  0  0  0  0  0  0  0  0
  -41.8298   55.9661   63.4431 O   0  0  0  0  0  0  0  0  0  0  0  0
  -41.1344   56.6700   62.7615 C   0  0  0  0  0  0  0  0  0  0  0  0
  -41.0117   56.5692   61.2683 C   0  0  0  0  0  0  0  0  0  0  0  0
  -41.8579   57.5755   60.5068 C   0  0  0  0  0  0  0  0  0  0  0  0
  -41.0264   58.6253   59.8004 C   0  0  0  0  0  0  0  0  0  0  0  0
  -39.7730   58.0872   59.1485 C   0  0  0  0  0  0  0  0  0  0  0  0
  -38.6141   59.0624   59.1956 C   0  0  0  0  0  0  0  0  0  0  0  0
  -38.0980   59.3046   60.5929 C   0  0  0  0  0  0  0  0  0  0  0  0
  -37.6229   58.0467   61.2710 C   0  0  0  0  0  0  0  0  0  0  0  0
  -36.4559   58.2731   62.2063 C   0  0  0  0  0  0  0  0  0  0  0  0
  -36.6801   57.6704   63.5784 C   0  0  0  0  0  0  0  0  0  0  0  0
  -35.4251   57.5634   64.4191 C   0  0  0  0  0  0  0  0  0  0  0  0
  -34.7878   58.9086   64.7484 C   0  0  0  0  0  0  0  0  0  0  0  0
  -33.2741   58.9126   64.6548 C   0  0  0  0  0  0  0  0  0  0  0  0
  -32.7493   58.3234   63.3615 C   0  0  0  0  0  0  0  0  0  0  0  0
  -32.7227   59.3141   62.2060 C   0  0  0  0  0  0  0  0  0  0  0  0
  -31.6672   60.3952   62.3566 C   0  0  0  0  0  0  0  0  0  0  0  0
  -32.9182   62.3865   63.2542 C   0  0  0  0  0  0  0  0  0  0  0  0
  -32.1584   61.8043   62.0839 C   0  0  0  0  0  0  0  0  0  0  0  0
  -40.8014   60.1031   65.9694 C   0  0  0  0  0  0  0  0  0  0  0  0
  -39.8445   61.1489   65.6879 O   0  0  0  0  0  0  0  0  0  0  0  0
  -38.3205   60.8491   65.3017 P   0  0  0  0  0  0  0  0  0  0  0  0
  -37.8974   59.6284   66.0210 O   0  0  0  0  0  0  0  0  0  0  0  0
  -38.2039   60.8816   63.8238 O   0  0  0  0  0  0  0  0  0  0  0  0
  -38.7039   60.1422   63.4437 H   0  0  0  0  0  0  0  0  0  0  0  0
  -37.4873   62.0769   65.8858 O   0  0  0  0  0  0  0  0  0  0  0  0
  -36.0842   62.2077   65.5792 C   0  0  0  0  0  0  0  0  0  0  0  0
  -36.6521   64.3454   64.6570 O   0  0  0  0  0  0  0  0  0  0  0  0
  -35.7417   63.6767   65.5351 C   0  0  0  0  0  0  0  0  0  0  0  0
  -36.6237   63.9272   63.7823 H   0  0  0  0  0  0  0  0  0  0  0  0
  -35.9288   63.3289   67.9146 O   0  0  0  0  0  0  0  0  0  0  0  0
  -35.7728   64.3155   66.9029 C   0  0  0  0  0  0  0  0  0  0  0  0
  -35.9466   63.7578   68.7845 H   0  0  0  0  0  0  0  0  0  0  0  0
  -42.5896   59.3226   64.4703 O   0  0  0  0  0  0  0  0  0  0  0  0
  -43.3184   57.9851   66.1256 O   0  0  0  0  0  0  0  0  0  0  0  0
  -43.3497   59.0353   65.5445 C   0  0  0  0  0  0  0  0  0  0  0  0
  -44.2227   60.1866   65.9374 C   0  0  0  0  0  0  0  0  0  0  0  0
  -44.8414   60.8607   64.7169 C   0  0  0  0  0  0  0  0  0  0  0  0
  -46.3114   60.5337   64.5112 C   0  0  0  0  0  0  0  0  0  0  0  0
  -46.6197   59.0424   64.5784 C   0  0  0  0  0  0  0  0  0  0  0  0
  -47.5181   58.6496   65.7363 C   0  0  0  0  0  0  0  0  0  0  0  0
  -48.3356   59.8018   66.3272 C   0  0  0  0  0  0  0  0  0  0  0  0
  -49.8376   59.7498   66.0389 C   0  0  0  0  0  0  0  0  0  0  0  0
  -50.1961   58.6281   65.1108 C   0  0  0  0  0  0  0  0  0  0  0  0
  -50.2610   58.6852   63.7948 C   0  0  0  0  0  0  0  0  0  0  0  0
  -49.9868   59.8884   62.9490 C   0  0  0  0  0  0  0  0  0  0  0  0
  -50.0201   59.5711   61.4568 C   0  0  0  0  0  0  0  0  0  0  0  0
  -50.5455   58.1817   61.1408 C   0  0  0  0  0  0  0  0  0  0  0  0
  -50.0157   57.6116   59.8363 C   0  0  0  0  0  0  0  0  0  0  0  0
  -48.8296   56.6747   59.9944 C   0  0  0  0  0  0  0  0  0  0  0  0
  -47.6375   57.0558   59.1300 C   0  0  0  0  0  0  0  0  0  0  0  0
  -47.8916   58.2264   58.2010 C   0  0  0  0  0  0  0  0  0  0  0  0
  -46.8379   58.3643   57.1376 C   0  0  0  0  0  0  0  0  0  0  0  0
 21 22  1  0  0  0
  4  5  2  0  0  0
 25 24  1  0  0  0
 25 26  2  0  0  0
 25 27  1  0  0  0
 25 29  1  0  0  0
 22 20  1  0  0  0
  3  5  1  0  0  0
  3  2  1  0  0  0
 20 19  1  0  0  0
 24 23  1  0  0  0
 19 18  1  0  0  0
 18 17  1  0  0  0
 27 28  1  0  0  0
 17 16  1  0  0  0
 29 30  1  0  0  0
 16 15  1  0  0  0
 34 35  1  0  0  0
 34 36  1  0  0  0
 15 14  1  0  0  0
 31 32  1  0  0  0
 31 33  1  0  0  0
 14 13  1  0  0  0
 37  1  1  0  0  0
 37 39  1  0  0  0
 13 12  1  0  0  0
 38 39  2  0  0  0
 12 11  1  0  0  0
 11 10  1  0  0  0
 10  9  1  0  0  0
  9  8  1  0  0  0
  8  7  1  0  0  0
  7  6  1  0  0  0
  6  5  1  0  0  0
  2  1  1  0  0  0
  1 23  1  0  0  0
 30 32  1  0  0  0
 32 35  1  0  0  0
 39 40  1  0  0  0
 40 41  1  0  0  0
 41 42  1  0  0  0
 42 43  1  0  0  0
 43 44  1  0  0  0
 44 45  1  0  0  0
 45 46  1  0  0  0
 46 47  1  0  0  0
 47 48  2  0  0  0
 48 49  1  0  0  0
 49 50  1  0  0  0
 50 51  1  0  0  0
 51 52  1  0  0  0
 52 53  1  0  0  0
 53 54  1  0  0  0
 54 55  1  0  0  0
 55 56  1  0  0  0
M  CHG 1  26  -1
M  END
> <minimizedAffinity>
-8.55766

> <CNNscore>
0.4110745788

> <CNNaffinity>
7.4279861450

> <CNN_VS>
3.0534563065

> <CNNaffinity_variance>
1.0528972149

$$$$
/media/chris/experiments/cd1a-new-docking/inputs/ligands/7sh4_ligand.pdb


 56 55  0  0  0  0  0  0  0  0999 V2000
  -40.3647   60.5916   63.7269 C   0  0  0  0  0  0  0  0  0  0  0  0
  -39.9674   59.9160   65.0089 C   0  0  0  0  0  0  0  0  0  0  0  0
  -40.4226   58.5564   64.8427 O   0  0  0  0  0  0  0  0  0  0  0  0
  -41.9781   58.5678   66.4489 O   0  0  0  0  0  0  0  0  0  0  0  0
  -41.6201   58.2547   65.3455 C   0  0  0  0  0  0  0  0  0  0  0  0
  -42.4899   57.5929   64.3157 C   0  0  0  0  0  0  0  0  0  0  0  0
  -41.7379   57.1063   63.0884 C   0  0  0  0  0  0  0  0  0  0  0  0
  -42.0723   57.9000   61.8431 C   0  0  0  0  0  0  0  0  0  0  0  0
  -41.5529   57.2893   60.5614 C   0  0  0  0  0  0  0  0  0  0  0  0
  -41.1728   58.3246   59.5221 C   0  0  0  0  0  0  0  0  0  0  0  0
  -39.7357   58.2167   59.0740 C   0  0  0  0  0  0  0  0  0  0  0  0
  -38.8441   59.2552   59.7018 C   0  0  0  0  0  0  0  0  0  0  0  0
  -37.7231   58.6640   60.5275 C   0  0  0  0  0  0  0  0  0  0  0  0
  -38.1903   57.5383   61.4279 C   0  0  0  0  0  0  0  0  0  0  0  0
  -37.7836   57.6973   62.8779 C   0  0  0  0  0  0  0  0  0  0  0  0
  -36.2750   57.7080   63.0969 C   0  0  0  0  0  0  0  0  0  0  0  0
  -35.8595   58.0855   64.5058 C   0  0  0  0  0  0  0  0  0  0  0  0
  -34.4398   57.6792   64.8441 C   0  0  0  0  0  0  0  0  0  0  0  0
  -33.4096   58.7616   64.5538 C   0  0  0  0  0  0  0  0  0  0  0  0
  -32.5919   58.5021   63.3010 C   0  0  0  0  0  0  0  0  0  0  0  0
  -32.3718   60.8591   62.4457 C   0  0  0  0  0  0  0  0  0  0  0  0
  -31.6428   59.6221   62.9190 C   0  0  0  0  0  0  0  0  0  0  0  0
  -39.1804   61.1890   63.0112 C   0  0  0  0  0  0  0  0  0  0  0  0
  -38.3722   61.9082   63.9692 O   0  0  0  0  0  0  0  0  0  0  0  0
  -36.7798   62.0188   63.8513 P   0  0  0  0  0  0  0  0  0  0  0  0
  -36.2194   62.0364   65.2196 O   0  0  0  0  0  0  0  0  0  0  0  0
  -36.3138   60.9776   62.9040 O   0  0  0  0  0  0  0  0  0  0  0  0
  -36.4717   60.0996   63.2852 H   0  0  0  0  0  0  0  0  0  0  0  0
  -36.5032   63.4427   63.1890 O   0  0  0  0  0  0  0  0  0  0  0  0
  -35.1597   63.8208   62.8259 C   0  0  0  0  0  0  0  0  0  0  0  0
  -33.7981   65.7096   62.2591 O   0  0  0  0  0  0  0  0  0  0  0  0
  -35.1218   65.3172   62.6344 C   0  0  0  0  0  0  0  0  0  0  0  0
  -33.1674   65.4010   62.9282 H   0  0  0  0  0  0  0  0  0  0  0  0
  -37.1770   66.5098   62.2200 O   0  0  0  0  0  0  0  0  0  0  0  0
  -36.1177   65.7900   61.6027 C   0  0  0  0  0  0  0  0  0  0  0  0
  -37.8055   66.8047   61.5425 H   0  0  0  0  0  0  0  0  0  0  0  0
  -41.3792   61.6046   64.0343 O   0  0  0  0  0  0  0  0  0  0  0  0
  -42.9267   61.2153   62.4487 O   0  0  0  0  0  0  0  0  0  0  0  0
  -42.6324   61.3640   63.6032 C   0  0  0  0  0  0  0  0  0  0  0  0
  -43.6092   61.2861   64.7354 C   0  0  0  0  0  0  0  0  0  0  0  0
  -45.0489   61.2758   64.2315 C   0  0  0  0  0  0  0  0  0  0  0  0
  -45.8009   59.9916   64.5405 C   0  0  0  0  0  0  0  0  0  0  0  0
  -45.6706   59.5426   65.9914 C   0  0  0  0  0  0  0  0  0  0  0  0
  -46.9943   59.2172   66.6579 C   0  0  0  0  0  0  0  0  0  0  0  0
  -48.1272   60.1955   66.3350 C   0  0  0  0  0  0  0  0  0  0  0  0
  -49.4554   59.5466   65.9393 C   0  0  0  0  0  0  0  0  0  0  0  0
  -49.2790   58.4984   64.8818 C   0  0  0  0  0  0  0  0  0  0  0  0
  -49.2662   58.6906   63.5770 C   0  0  0  0  0  0  0  0  0  0  0  0
  -49.4243   60.0032   62.8766 C   0  0  0  0  0  0  0  0  0  0  0  0
  -49.6499   59.8392   61.3764 C   0  0  0  0  0  0  0  0  0  0  0  0
  -50.0982   58.4444   60.9764 C   0  0  0  0  0  0  0  0  0  0  0  0
  -49.7889   58.0957   59.5306 C   0  0  0  0  0  0  0  0  0  0  0  0
  -48.3333   57.7504   59.2639 C   0  0  0  0  0  0  0  0  0  0  0  0
  -47.7237   58.5413   58.1165 C   0  0  0  0  0  0  0  0  0  0  0  0
  -47.3397   57.6996   56.9156 C   0  0  0  0  0  0  0  0  0  0  0  0
  -47.2634   56.2325   57.2343 C   0  0  0  0  0  0  0  0  0  0  0  0
 21 22  1  0  0  0
  4  5  2  0  0  0
 25 24  1  0  0  0
 25 26  2  0  0  0
 25 27  1  0  0  0
 25 29  1  0  0  0
 22 20  1  0  0  0
  3  5  1  0  0  0
  3  2  1  0  0  0
 20 19  1  0  0  0
 24 23  1  0  0  0
 19 18  1  0  0  0
 18 17  1  0  0  0
 27 28  1  0  0  0
 17 16  1  0  0  0
 29 30  1  0  0  0
 16 15  1  0  0  0
 34 35  1  0  0  0
 34 36  1  0  0  0
 15 14  1  0  0  0
 31 32  1  0  0  0
 31 33  1  0  0  0
 14 13  1  0  0  0
 37  1  1  0  0  0
 37 39  1  0  0  0
 13 12  1  0  0  0
 38 39  2  0  0  0
 12 11  1  0  0  0
 11 10  1  0  0  0
 10  9  1  0  0  0
  9  8  1  0  0  0
  8  7  1  0  0  0
  7  6  1  0  0  0
  6  5  1  0  0  0
  2  1  1  0  0  0
  1 23  1  0  0  0
 30 32  1  0  0  0
 32 35  1  0  0  0
 39 40  1  0  0  0
 40 41  1  0  0  0
 41 42  1  0  0  0
 42 43  1  0  0  0
 43 44  1  0  0  0
 44 45  1  0  0  0
 45 46  1  0  0  0
 46 47  1  0  0  0
 47 48  2  0  0  0
 48 49  1  0  0  0
 49 50  1  0  0  0
 50 51  1  0  0  0
 51 52  1  0  0  0
 52 53  1  0  0  0
 53 54  1  0  0  0
 54 55  1  0  0  0
 55 56  1  0  0  0
M  CHG 1  26  -1
M  END
> <minimizedAffinity>
-8.39938

> <CNNscore>
0.4110583663

> <CNNaffinity>
7.5505814552

> <CNN_VS>
3.1037297249

> <CNNaffinity_variance>
1.0666664839

$$$$
/media/chris/experiments/cd1a-new-docking/inputs/ligands/7sh4_ligand.pdb


 56 55  0  0  0  0  0  0  0  0999 V2000
  -36.6723   60.4709   64.9759 C   0  0  0  0  0  0  0  0  0  0  0  0
  -37.6336   61.5973   65.2307 C   0  0  0  0  0  0  0  0  0  0  0  0
  -38.7193   61.3438   64.3141 O   0  0  0  0  0  0  0  0  0  0  0  0
  -40.1911   61.1088   65.9809 O   0  0  0  0  0  0  0  0  0  0  0  0
  -39.8664   60.9139   64.8406 C   0  0  0  0  0  0  0  0  0  0  0  0
  -40.7368   60.2751   63.7968 C   0  0  0  0  0  0  0  0  0  0  0  0
  -41.2718   61.2449   62.7567 C   0  0  0  0  0  0  0  0  0  0  0  0
  -42.7454   61.5428   62.9363 C   0  0  0  0  0  0  0  0  0  0  0  0
  -43.4851   60.5261   63.7757 C   0  0  0  0  0  0  0  0  0  0  0  0
  -44.4899   61.1543   64.7202 C   0  0  0  0  0  0  0  0  0  0  0  0
  -45.8080   61.4739   64.0583 C   0  0  0  0  0  0  0  0  0  0  0  0
  -46.8936   60.4888   64.4030 C   0  0  0  0  0  0  0  0  0  0  0  0
  -48.2571   60.8939   63.8885 C   0  0  0  0  0  0  0  0  0  0  0  0
  -49.2598   59.7585   63.9312 C   0  0  0  0  0  0  0  0  0  0  0  0
  -50.3696   59.8753   62.9077 C   0  0  0  0  0  0  0  0  0  0  0  0
  -50.9126   58.5326   62.4318 C   0  0  0  0  0  0  0  0  0  0  0  0
  -49.9381   57.7401   61.5819 C   0  0  0  0  0  0  0  0  0  0  0  0
  -49.3902   58.5227   60.4061 C   0  0  0  0  0  0  0  0  0  0  0  0
  -48.2327   57.8316   59.6990 C   0  0  0  0  0  0  0  0  0  0  0  0
  -47.9619   58.3718   58.3060 C   0  0  0  0  0  0  0  0  0  0  0  0
  -47.3380   56.1957   57.2055 C   0  0  0  0  0  0  0  0  0  0  0  0
  -46.9091   57.6102   57.5234 C   0  0  0  0  0  0  0  0  0  0  0  0
  -35.2624   60.9644   64.7748 C   0  0  0  0  0  0  0  0  0  0  0  0
  -35.3012   62.1740   63.9849 O   0  0  0  0  0  0  0  0  0  0  0  0
  -33.9841   62.8712   63.4010 P   0  0  0  0  0  0  0  0  0  0  0  0
  -33.1883   61.8369   62.7057 O   0  0  0  0  0  0  0  0  0  0  0  0
  -34.3972   64.0791   62.6465 O   0  0  0  0  0  0  0  0  0  0  0  0
  -34.9029   63.8133   61.8625 H   0  0  0  0  0  0  0  0  0  0  0  0
  -33.1581   63.3501   64.6782 O   0  0  0  0  0  0  0  0  0  0  0  0
  -33.5111   64.5783   65.3467 C   0  0  0  0  0  0  0  0  0  0  0  0
  -33.6043   65.1275   67.6775 O   0  0  0  0  0  0  0  0  0  0  0  0
  -34.1179   64.2343   66.6848 C   0  0  0  0  0  0  0  0  0  0  0  0
  -32.6354   65.0828   67.6824 H   0  0  0  0  0  0  0  0  0  0  0  0
  -36.1608   63.9332   67.9315 O   0  0  0  0  0  0  0  0  0  0  0  0
  -35.6266   64.2910   66.6634 C   0  0  0  0  0  0  0  0  0  0  0  0
  -37.1293   63.9754   67.8980 H   0  0  0  0  0  0  0  0  0  0  0  0
  -37.1500   59.7096   63.8175 O   0  0  0  0  0  0  0  0  0  0  0  0
  -37.5866   57.9274   65.1189 O   0  0  0  0  0  0  0  0  0  0  0  0
  -37.4890   58.4235   64.0298 C   0  0  0  0  0  0  0  0  0  0  0  0
  -37.7472   57.6931   62.7484 C   0  0  0  0  0  0  0  0  0  0  0  0
  -36.8680   58.2192   61.6184 C   0  0  0  0  0  0  0  0  0  0  0  0
  -37.6304   58.5433   60.3441 C   0  0  0  0  0  0  0  0  0  0  0  0
  -38.5493   59.7526   60.4740 C   0  0  0  0  0  0  0  0  0  0  0  0
  -39.8648   59.6106   59.7313 C   0  0  0  0  0  0  0  0  0  0  0  0
  -40.0786   58.2460   59.0701 C   0  0  0  0  0  0  0  0  0  0  0  0
  -40.8898   57.2431   59.8934 C   0  0  0  0  0  0  0  0  0  0  0  0
  -41.7912   57.9212   60.8812 C   0  0  0  0  0  0  0  0  0  0  0  0
  -42.0664   57.5137   62.1050 C   0  0  0  0  0  0  0  0  0  0  0  0
  -41.5316   56.2831   62.7667 C   0  0  0  0  0  0  0  0  0  0  0  0
  -41.9569   56.1762   64.2283 C   0  0  0  0  0  0  0  0  0  0  0  0
  -41.4722   57.3290   65.0899 C   0  0  0  0  0  0  0  0  0  0  0  0
  -42.4459   57.7211   66.1878 C   0  0  0  0  0  0  0  0  0  0  0  0
  -43.9067   57.4694   65.8531 C   0  0  0  0  0  0  0  0  0  0  0  0
  -44.8680   58.3500   66.6369 C   0  0  0  0  0  0  0  0  0  0  0  0
  -46.1487   57.6548   67.0545 C   0  0  0  0  0  0  0  0  0  0  0  0
  -46.8331   56.9603   65.9103 C   0  0  0  0  0  0  0  0  0  0  0  0
 21 22  1  0  0  0
  4  5  2  0  0  0
 25 24  1  0  0  0
 25 26  2  0  0  0
 25 27  1  0  0  0
 25 29  1  0  0  0
 22 20  1  0  0  0
  3  5  1  0  0  0
  3  2  1  0  0  0
 20 19  1  0  0  0
 24 23  1  0  0  0
 19 18  1  0  0  0
 18 17  1  0  0  0
 27 28  1  0  0  0
 17 16  1  0  0  0
 29 30  1  0  0  0
 16 15  1  0  0  0
 34 35  1  0  0  0
 34 36  1  0  0  0
 15 14  1  0  0  0
 31 32  1  0  0  0
 31 33  1  0  0  0
 14 13  1  0  0  0
 37  1  1  0  0  0
 37 39  1  0  0  0
 13 12  1  0  0  0
 38 39  2  0  0  0
 12 11  1  0  0  0
 11 10  1  0  0  0
 10  9  1  0  0  0
  9  8  1  0  0  0
  8  7  1  0  0  0
  7  6  1  0  0  0
  6  5  1  0  0  0
  2  1  1  0  0  0
  1 23  1  0  0  0
 30 32  1  0  0  0
 32 35  1  0  0  0
 39 40  1  0  0  0
 40 41  1  0  0  0
 41 42  1  0  0  0
 42 43  1  0  0  0
 43 44  1  0  0  0
 44 45  1  0  0  0
 45 46  1  0  0  0
 46 47  1  0  0  0
 47 48  2  0  0  0
 48 49  1  0  0  0
 49 50  1  0  0  0
 50 51  1  0  0  0
 51 52  1  0  0  0
 52 53  1  0  0  0
 53 54  1  0  0  0
 54 55  1  0  0  0
 55 56  1  0  0  0
M  CHG 1  26  -1
M  END
> <minimizedAffinity>
-8.23559

> <CNNscore>
0.3749297857

> <CNNaffinity>
7.7156891823

> <CNN_VS>
2.8928415775

> <CNNaffinity_variance>
0.6369547844

$$$$
/media/chris/experiments/cd1a-new-docking/inputs/ligands/7sh4_ligand.pdb


 56 55  0  0  0  0  0  0  0  0999 V2000
  -40.1840   59.8575   63.7925 C   0  0  0  0  0  0  0  0  0  0  0  0
  -40.7080   60.3300   65.1190 C   0  0  0  0  0  0  0  0  0  0  0  0
  -41.9191   61.0397   64.7833 O   0  0  0  0  0  0  0  0  0  0  0  0
  -42.6266   61.3472   66.8820 O   0  0  0  0  0  0  0  0  0  0  0  0
  -42.8585   61.1115   65.7269 C   0  0  0  0  0  0  0  0  0  0  0  0
  -44.2328   60.9858   65.1350 C   0  0  0  0  0  0  0  0  0  0  0  0
  -44.6058   59.5705   64.7272 C   0  0  0  0  0  0  0  0  0  0  0  0
  -46.0806   59.4183   64.4203 C   0  0  0  0  0  0  0  0  0  0  0  0
  -46.8265   58.5293   65.3893 C   0  0  0  0  0  0  0  0  0  0  0  0
  -47.4215   59.2911   66.5562 C   0  0  0  0  0  0  0  0  0  0  0  0
  -48.5593   60.1979   66.1554 C   0  0  0  0  0  0  0  0  0  0  0  0
  -49.8609   59.4631   65.9724 C   0  0  0  0  0  0  0  0  0  0  0  0
  -50.7455   60.0660   64.9037 C   0  0  0  0  0  0  0  0  0  0  0  0
  -49.9865   60.3992   63.6352 C   0  0  0  0  0  0  0  0  0  0  0  0
  -50.6864   59.9656   62.3643 C   0  0  0  0  0  0  0  0  0  0  0  0
  -50.9143   58.4612   62.2691 C   0  0  0  0  0  0  0  0  0  0  0  0
  -50.5932   57.8743   60.9080 C   0  0  0  0  0  0  0  0  0  0  0  0
  -49.3478   58.4627   60.2772 C   0  0  0  0  0  0  0  0  0  0  0  0
  -48.9183   57.7553   58.9996 C   0  0  0  0  0  0  0  0  0  0  0  0
  -47.7765   58.4472   58.2763 C   0  0  0  0  0  0  0  0  0  0  0  0
  -47.2837   56.2000   57.2552 C   0  0  0  0  0  0  0  0  0  0  0  0
  -47.2446   57.6998   57.0683 C   0  0  0  0  0  0  0  0  0  0  0  0
  -39.1494   60.7956   63.2257 C   0  0  0  0  0  0  0  0  0  0  0  0
  -38.6575   61.6425   64.2883 O   0  0  0  0  0  0  0  0  0  0  0  0
  -37.2093   62.3231   64.2551 P   0  0  0  0  0  0  0  0  0  0  0  0
  -36.1963   61.2464   64.2934 O   0  0  0  0  0  0  0  0  0  0  0  0
  -37.1792   63.2897   63.1311 O   0  0  0  0  0  0  0  0  0  0  0  0
  -37.2449   62.8101   62.2904 H   0  0  0  0  0  0  0  0  0  0  0  0
  -37.0995   63.1492   65.6147 O   0  0  0  0  0  0  0  0  0  0  0  0
  -36.1413   64.2205   65.7325 C   0  0  0  0  0  0  0  0  0  0  0  0
  -36.0177   63.1175   67.8564 O   0  0  0  0  0  0  0  0  0  0  0  0
  -35.3019   63.9750   66.9623 C   0  0  0  0  0  0  0  0  0  0  0  0
  -36.8792   63.5124   68.0629 H   0  0  0  0  0  0  0  0  0  0  0  0
  -33.1442   63.2881   67.7933 O   0  0  0  0  0  0  0  0  0  0  0  0
  -33.9568   63.3749   66.6299 C   0  0  0  0  0  0  0  0  0  0  0  0
  -32.2859   62.9010   67.5600 H   0  0  0  0  0  0  0  0  0  0  0  0
  -41.3201   59.6894   62.8808 O   0  0  0  0  0  0  0  0  0  0  0  0
  -41.8172   57.5070   63.1054 O   0  0  0  0  0  0  0  0  0  0  0  0
  -41.5468   58.4479   62.4102 C   0  0  0  0  0  0  0  0  0  0  0  0
  -41.4395   58.3859   60.9181 C   0  0  0  0  0  0  0  0  0  0  0  0
  -41.2156   59.7694   60.3160 C   0  0  0  0  0  0  0  0  0  0  0  0
  -39.9148   59.9012   59.5409 C   0  0  0  0  0  0  0  0  0  0  0  0
  -39.1559   58.5872   59.3954 C   0  0  0  0  0  0  0  0  0  0  0  0
  -37.8432   58.5454   60.1553 C   0  0  0  0  0  0  0  0  0  0  0  0
  -37.8989   57.7805   61.4808 C   0  0  0  0  0  0  0  0  0  0  0  0
  -36.6638   57.9303   62.3718 C   0  0  0  0  0  0  0  0  0  0  0  0
  -37.0094   57.8763   63.8298 C   0  0  0  0  0  0  0  0  0  0  0  0
  -36.1751   57.6660   64.8294 C   0  0  0  0  0  0  0  0  0  0  0  0
  -34.7009   57.4379   64.7156 C   0  0  0  0  0  0  0  0  0  0  0  0
  -33.8995   58.7291   64.8538 C   0  0  0  0  0  0  0  0  0  0  0  0
  -32.6559   58.7707   63.9832 C   0  0  0  0  0  0  0  0  0  0  0  0
  -32.8829   59.4144   62.6261 C   0  0  0  0  0  0  0  0  0  0  0  0
  -31.6819   60.1667   62.0774 C   0  0  0  0  0  0  0  0  0  0  0  0
  -31.8783   61.6745   62.0373 C   0  0  0  0  0  0  0  0  0  0  0  0
  -32.7373   62.2199   63.1610 C   0  0  0  0  0  0  0  0  0  0  0  0
  -33.6756   63.3014   62.7032 C   0  0  0  0  0  0  0  0  0  0  0  0
 21 22  1  0  0  0
  4  5  2  0  0  0
 25 24  1  0  0  0
 25 26  2  0  0  0
 25 27  1  0  0  0
 25 29  1  0  0  0
 22 20  1  0  0  0
  3  5  1  0  0  0
  3  2  1  0  0  0
 20 19  1  0  0  0
 24 23  1  0  0  0
 19 18  1  0  0  0
 18 17  1  0  0  0
 27 28  1  0  0  0
 17 16  1  0  0  0
 29 30  1  0  0  0
 16 15  1  0  0  0
 34 35  1  0  0  0
 34 36  1  0  0  0
 15 14  1  0  0  0
 31 32  1  0  0  0
 31 33  1  0  0  0
 14 13  1  0  0  0
 37  1  1  0  0  0
 37 39  1  0  0  0
 13 12  1  0  0  0
 38 39  2  0  0  0
 12 11  1  0  0  0
 11 10  1  0  0  0
 10  9  1  0  0  0
  9  8  1  0  0  0
  8  7  1  0  0  0
  7  6  1  0  0  0
  6  5  1  0  0  0
  2  1  1  0  0  0
  1 23  1  0  0  0
 30 32  1  0  0  0
 32 35  1  0  0  0
 39 40  1  0  0  0
 40 41  1  0  0  0
 41 42  1  0  0  0
 42 43  1  0  0  0
 43 44  1  0  0  0
 44 45  1  0  0  0
 45 46  1  0  0  0
 46 47  1  0  0  0
 47 48  2  0  0  0
 48 49  1  0  0  0
 49 50  1  0  0  0
 50 51  1  0  0  0
 51 52  1  0  0  0
 52 53  1  0  0  0
 53 54  1  0  0  0
 54 55  1  0  0  0
 55 56  1  0  0  0
M  CHG 1  26  -1
M  END
> <minimizedAffinity>
-8.72467

> <CNNscore>
0.3436300457

> <CNNaffinity>
7.2633934021

> <CNN_VS>
2.4959201813

> <CNNaffinity_variance>
0.7414276004

$$$$
/media/chris/experiments/cd1a-new-docking/inputs/ligands/7sh4_ligand.pdb


 56 55  0  0  0  0  0  0  0  0999 V2000
  -40.9959   58.9005   63.8828 C   0  0  0  0  0  0  0  0  0  0  0  0
  -41.3751   57.7619   62.9787 C   0  0  0  0  0  0  0  0  0  0  0  0
  -41.2261   58.3062   61.6503 O   0  0  0  0  0  0  0  0  0  0  0  0
  -41.4780   56.3457   60.6050 O   0  0  0  0  0  0  0  0  0  0  0  0
  -40.9849   57.4397   60.6660 C   0  0  0  0  0  0  0  0  0  0  0  0
  -40.1279   58.0563   59.5981 C   0  0  0  0  0  0  0  0  0  0  0  0
  -39.1704   59.1200   60.1082 C   0  0  0  0  0  0  0  0  0  0  0  0
  -37.7682   58.5912   60.3248 C   0  0  0  0  0  0  0  0  0  0  0  0
  -37.4816   58.1595   61.7450 C   0  0  0  0  0  0  0  0  0  0  0  0
  -36.0036   58.1619   62.0792 C   0  0  0  0  0  0  0  0  0  0  0  0
  -35.7256   57.9332   63.5448 C   0  0  0  0  0  0  0  0  0  0  0  0
  -34.4015   58.4974   63.9876 C   0  0  0  0  0  0  0  0  0  0  0  0
  -33.2694   58.1925   63.0319 C   0  0  0  0  0  0  0  0  0  0  0  0
  -32.1219   59.1750   63.1515 C   0  0  0  0  0  0  0  0  0  0  0  0
  -32.0226   60.1524   61.9991 C   0  0  0  0  0  0  0  0  0  0  0  0
  -31.7893   61.5951   62.4333 C   0  0  0  0  0  0  0  0  0  0  0  0
  -33.0185   62.2716   63.0091 C   0  0  0  0  0  0  0  0  0  0  0  0
  -32.7650   63.6942   63.4644 C   0  0  0  0  0  0  0  0  0  0  0  0
  -32.5482   64.6723   62.3183 C   0  0  0  0  0  0  0  0  0  0  0  0
  -33.8313   65.3021   61.8060 C   0  0  0  0  0  0  0  0  0  0  0  0
  -36.1663   64.5244   62.3340 C   0  0  0  0  0  0  0  0  0  0  0  0
  -34.9719   65.3222   62.8059 C   0  0  0  0  0  0  0  0  0  0  0  0
  -39.9003   58.5188   64.8449 C   0  0  0  0  0  0  0  0  0  0  0  0
  -38.6963   59.2327   64.4857 O   0  0  0  0  0  0  0  0  0  0  0  0
  -38.4282   60.7517   64.9132 P   0  0  0  0  0  0  0  0  0  0  0  0
  -38.5780   61.5991   63.7107 O   0  0  0  0  0  0  0  0  0  0  0  0
  -39.2612   61.0500   66.1031 O   0  0  0  0  0  0  0  0  0  0  0  0
  -40.1989   61.0260   65.8556 H   0  0  0  0  0  0  0  0  0  0  0  0
  -36.8987   60.8007   65.3613 O   0  0  0  0  0  0  0  0  0  0  0  0
  -36.0969   61.9622   65.0645 C   0  0  0  0  0  0  0  0  0  0  0  0
  -34.1720   62.1326   66.4818 O   0  0  0  0  0  0  0  0  0  0  0  0
  -35.5481   62.5054   66.3610 C   0  0  0  0  0  0  0  0  0  0  0  0
  -34.0912   61.1684   66.4149 H   0  0  0  0  0  0  0  0  0  0  0  0
  -36.2621   64.3708   67.7133 O   0  0  0  0  0  0  0  0  0  0  0  0
  -35.6926   64.0049   66.4630 C   0  0  0  0  0  0  0  0  0  0  0  0
  -36.3469   65.3360   67.7599 H   0  0  0  0  0  0  0  0  0  0  0  0
  -42.2007   59.3527   64.5856 O   0  0  0  0  0  0  0  0  0  0  0  0
  -41.9601   61.4217   65.4349 O   0  0  0  0  0  0  0  0  0  0  0  0
  -42.4284   60.6798   64.6152 C   0  0  0  0  0  0  0  0  0  0  0  0
  -43.3185   61.1208   63.4948 C   0  0  0  0  0  0  0  0  0  0  0  0
  -44.6701   61.6032   64.0117 C   0  0  0  0  0  0  0  0  0  0  0  0
  -45.4015   60.5838   64.8696 C   0  0  0  0  0  0  0  0  0  0  0  0
  -46.8342   60.3232   64.4190 C   0  0  0  0  0  0  0  0  0  0  0  0
  -47.2878   58.8872   64.6043 C   0  0  0  0  0  0  0  0  0  0  0  0
  -48.4888   58.7144   65.5385 C   0  0  0  0  0  0  0  0  0  0  0  0
  -49.3272   59.9749   65.7617 C   0  0  0  0  0  0  0  0  0  0  0  0
  -50.7258   59.8222   65.2431 C   0  0  0  0  0  0  0  0  0  0  0  0
  -51.1163   59.9300   63.9881 C   0  0  0  0  0  0  0  0  0  0  0  0
  -50.2391   60.2272   62.8132 C   0  0  0  0  0  0  0  0  0  0  0  0
  -50.3922   59.1980   61.6970 C   0  0  0  0  0  0  0  0  0  0  0  0
  -49.1717   58.3133   61.5123 C   0  0  0  0  0  0  0  0  0  0  0  0
  -49.4582   57.0304   60.7510 C   0  0  0  0  0  0  0  0  0  0  0  0
  -48.6056   56.8317   59.5088 C   0  0  0  0  0  0  0  0  0  0  0  0
  -48.3862   58.1100   58.7140 C   0  0  0  0  0  0  0  0  0  0  0  0
  -47.2715   58.0225   57.6904 C   0  0  0  0  0  0  0  0  0  0  0  0
  -47.1330   56.6480   57.0976 C   0  0  0  0  0  0  0  0  0  0  0  0
 21 22  1  0  0  0
  4  5  2  0  0  0
 25 24  1  0  0  0
 25 26  2  0  0  0
 25 27  1  0  0  0
 25 29  1  0  0  0
 22 20  1  0  0  0
  3  5  1  0  0  0
  3  2  1  0  0  0
 20 19  1  0  0  0
 24 23  1  0  0  0
 19 18  1  0  0  0
 18 17  1  0  0  0
 27 28  1  0  0  0
 17 16  1  0  0  0
 29 30  1  0  0  0
 16 15  1  0  0  0
 34 35  1  0  0  0
 34 36  1  0  0  0
 15 14  1  0  0  0
 31 32  1  0  0  0
 31 33  1  0  0  0
 14 13  1  0  0  0
 37  1  1  0  0  0
 37 39  1  0  0  0
 13 12  1  0  0  0
 38 39  2  0  0  0
 12 11  1  0  0  0
 11 10  1  0  0  0
 10  9  1  0  0  0
  9  8  1  0  0  0
  8  7  1  0  0  0
  7  6  1  0  0  0
  6  5  1  0  0  0
  2  1  1  0  0  0
  1 23  1  0  0  0
 30 32  1  0  0  0
 32 35  1  0  0  0
 39 40  1  0  0  0
 40 41  1  0  0  0
 41 42  1  0  0  0
 42 43  1  0  0  0
 43 44  1  0  0  0
 44 45  1  0  0  0
 45 46  1  0  0  0
 46 47  1  0  0  0
 47 48  2  0  0  0
 48 49  1  0  0  0
 49 50  1  0  0  0
 50 51  1  0  0  0
 51 52  1  0  0  0
 52 53  1  0  0  0
 53 54  1  0  0  0
 54 55  1  0  0  0
 55 56  1  0  0  0
M  CHG 1  26  -1
M  END
> <minimizedAffinity>
-8.16061

> <CNNscore>
0.3184226155

> <CNNaffinity>
7.1056928635

> <CNN_VS>
2.2626132965

> <CNNaffinity_variance>
1.0265853405

$$$$
/media/chris/experiments/cd1a-new-docking/inputs/ligands/7sh4_ligand.pdb


 56 55  0  0  0  0  0  0  0  0999 V2000
  -38.9763   60.3244   61.6272 C   0  0  0  0  0  0  0  0  0  0  0  0
  -40.2077   60.7495   62.3760 C   0  0  0  0  0  0  0  0  0  0  0  0
  -41.0905   61.2414   61.3455 O   0  0  0  0  0  0  0  0  0  0  0  0
  -42.9352   62.4949   61.1863 O   0  0  0  0  0  0  0  0  0  0  0  0
  -42.3103   61.6222   61.7263 C   0  0  0  0  0  0  0  0  0  0  0  0
  -42.8368   60.7403   62.8217 C   0  0  0  0  0  0  0  0  0  0  0  0
  -43.3957   61.4983   64.0140 C   0  0  0  0  0  0  0  0  0  0  0  0
  -44.9039   61.4079   64.1115 C   0  0  0  0  0  0  0  0  0  0  0  0
  -45.4000   60.4914   65.2068 C   0  0  0  0  0  0  0  0  0  0  0  0
  -45.9440   59.1785   64.6809 C   0  0  0  0  0  0  0  0  0  0  0  0
  -47.3448   59.2935   64.1313 C   0  0  0  0  0  0  0  0  0  0  0  0
  -48.2384   60.1637   64.9752 C   0  0  0  0  0  0  0  0  0  0  0  0
  -49.2649   60.9292   64.1700 C   0  0  0  0  0  0  0  0  0  0  0  0
  -50.6350   60.2824   64.2025 C   0  0  0  0  0  0  0  0  0  0  0  0
  -51.0900   59.7313   62.8675 C   0  0  0  0  0  0  0  0  0  0  0  0
  -50.6574   58.2913   62.6157 C   0  0  0  0  0  0  0  0  0  0  0  0
  -50.5480   57.9286   61.1472 C   0  0  0  0  0  0  0  0  0  0  0  0
  -49.4263   58.6519   60.4304 C   0  0  0  0  0  0  0  0  0  0  0  0
  -48.8096   57.8478   59.2944 C   0  0  0  0  0  0  0  0  0  0  0  0
  -47.9138   58.6698   58.3847 C   0  0  0  0  0  0  0  0  0  0  0  0
  -47.3801   56.3791   57.4882 C   0  0  0  0  0  0  0  0  0  0  0  0
  -47.1704   57.8683   57.3330 C   0  0  0  0  0  0  0  0  0  0  0  0
  -37.8543   61.3205   61.7708 C   0  0  0  0  0  0  0  0  0  0  0  0
  -37.9109   61.8973   63.0946 O   0  0  0  0  0  0  0  0  0  0  0  0
  -36.6892   62.7030   63.7427 P   0  0  0  0  0  0  0  0  0  0  0  0
  -35.4361   62.0114   63.3711 O   0  0  0  0  0  0  0  0  0  0  0  0
  -36.8432   64.1355   63.3918 O   0  0  0  0  0  0  0  0  0  0  0  0
  -36.7316   64.2478   62.4348 H   0  0  0  0  0  0  0  0  0  0  0  0
  -36.8791   62.5617   65.3196 O   0  0  0  0  0  0  0  0  0  0  0  0
  -35.7291   62.5837   66.1896 C   0  0  0  0  0  0  0  0  0  0  0  0
  -36.1888   64.3530   67.7392 O   0  0  0  0  0  0  0  0  0  0  0  0
  -35.4437   64.0172   66.5648 C   0  0  0  0  0  0  0  0  0  0  0  0
  -37.1314   64.1868   67.5825 H   0  0  0  0  0  0  0  0  0  0  0  0
  -33.4537   63.3771   67.7683 O   0  0  0  0  0  0  0  0  0  0  0  0
  -33.9724   64.2701   66.7911 C   0  0  0  0  0  0  0  0  0  0  0  0
  -32.5091   63.5547   67.8997 H   0  0  0  0  0  0  0  0  0  0  0  0
  -39.3394   60.1164   60.2219 O   0  0  0  0  0  0  0  0  0  0  0  0
  -37.6701   58.7323   59.6238 O   0  0  0  0  0  0  0  0  0  0  0  0
  -38.8347   59.0245   59.6161 C   0  0  0  0  0  0  0  0  0  0  0  0
  -39.9000   58.2109   58.9490 C   0  0  0  0  0  0  0  0  0  0  0  0
  -41.1909   58.2067   59.7614 C   0  0  0  0  0  0  0  0  0  0  0  0
  -41.3635   56.9771   60.6381 C   0  0  0  0  0  0  0  0  0  0  0  0
  -41.6281   57.3049   62.1031 C   0  0  0  0  0  0  0  0  0  0  0  0
  -41.3244   56.1633   63.0554 C   0  0  0  0  0  0  0  0  0  0  0  0
  -41.6775   56.4440   64.5188 C   0  0  0  0  0  0  0  0  0  0  0  0
  -42.4770   57.7259   64.7618 C   0  0  0  0  0  0  0  0  0  0  0  0
  -42.1624   58.3444   66.0910 C   0  0  0  0  0  0  0  0  0  0  0  0
  -41.2414   59.2558   66.3370 C   0  0  0  0  0  0  0  0  0  0  0  0
  -40.3146   59.8672   65.3343 C   0  0  0  0  0  0  0  0  0  0  0  0
  -38.8568   59.4919   65.5841 C   0  0  0  0  0  0  0  0  0  0  0  0
  -38.4010   58.2683   64.8085 C   0  0  0  0  0  0  0  0  0  0  0  0
  -37.0822   58.4641   64.0806 C   0  0  0  0  0  0  0  0  0  0  0  0
  -36.0008   57.4651   64.4574 C   0  0  0  0  0  0  0  0  0  0  0  0
  -34.6791   58.1167   64.8345 C   0  0  0  0  0  0  0  0  0  0  0  0
  -34.0503   58.9357   63.7246 C   0  0  0  0  0  0  0  0  0  0  0  0
  -32.8295   58.2820   63.1397 C   0  0  0  0  0  0  0  0  0  0  0  0
 21 22  1  0  0  0
  4  5  2  0  0  0
 25 24  1  0  0  0
 25 26  2  0  0  0
 25 27  1  0  0  0
 25 29  1  0  0  0
 22 20  1  0  0  0
  3  5  1  0  0  0
  3  2  1  0  0  0
 20 19  1  0  0  0
 24 23  1  0  0  0
 19 18  1  0  0  0
 18 17  1  0  0  0
 27 28  1  0  0  0
 17 16  1  0  0  0
 29 30  1  0  0  0
 16 15  1  0  0  0
 34 35  1  0  0  0
 34 36  1  0  0  0
 15 14  1  0  0  0
 31 32  1  0  0  0
 31 33  1  0  0  0
 14 13  1  0  0  0
 37  1  1  0  0  0
 37 39  1  0  0  0
 13 12  1  0  0  0
 38 39  2  0  0  0
 12 11  1  0  0  0
 11 10  1  0  0  0
 10  9  1  0  0  0
  9  8  1  0  0  0
  8  7  1  0  0  0
  7  6  1  0  0  0
  6  5  1  0  0  0
  2  1  1  0  0  0
  1 23  1  0  0  0
 30 32  1  0  0  0
 32 35  1  0  0  0
 39 40  1  0  0  0
 40 41  1  0  0  0
 41 42  1  0  0  0
 42 43  1  0  0  0
 43 44  1  0  0  0
 44 45  1  0  0  0
 45 46  1  0  0  0
 46 47  1  0  0  0
 47 48  2  0  0  0
 48 49  1  0  0  0
 49 50  1  0  0  0
 50 51  1  0  0  0
 51 52  1  0  0  0
 52 53  1  0  0  0
 53 54  1  0  0  0
 54 55  1  0  0  0
 55 56  1  0  0  0
M  CHG 1  26  -1
M  END
> <minimizedAffinity>
-8.82795

> <CNNscore>
0.3162896037

> <CNNaffinity>
7.3940200806

> <CNN_VS>
2.3386516571

> <CNNaffinity_variance>
1.7273330688

$$$$
