/media/chris/experiments/cd1a-new-docking/inputs/ligands/7sh4_ligand.pdb


 56 55  0  0  0  0  0  0  0  0999 V2000
  -38.2578   60.8496   64.6385 C   0  0  0  0  0  0  0  0  0  0  0  0
  -39.2216   60.5484   65.7511 C   0  0  0  0  0  0  0  0  0  0  0  0
  -40.1349   59.5921   65.1726 O   0  0  0  0  0  0  0  0  0  0  0  0
  -41.8737   60.4494   66.2864 O   0  0  0  0  0  0  0  0  0  0  0  0
  -41.3629   59.5405   65.6892 C   0  0  0  0  0  0  0  0  0  0  0  0
  -42.0543   58.2603   65.3181 C   0  0  0  0  0  0  0  0  0  0  0  0
  -43.3920   58.0548   66.0086 C   0  0  0  0  0  0  0  0  0  0  0  0
  -44.5677   58.4398   65.1355 C   0  0  0  0  0  0  0  0  0  0  0  0
  -45.3305   59.6509   65.6228 C   0  0  0  0  0  0  0  0  0  0  0  0
  -46.1753   60.2943   64.5420 C   0  0  0  0  0  0  0  0  0  0  0  0
  -47.5466   59.6774   64.4138 C   0  0  0  0  0  0  0  0  0  0  0  0
  -48.6594   60.6560   64.6816 C   0  0  0  0  0  0  0  0  0  0  0  0
  -50.0059   59.9951   64.8774 C   0  0  0  0  0  0  0  0  0  0  0  0
  -50.2026   58.7900   63.9800 C   0  0  0  0  0  0  0  0  0  0  0  0
  -51.0241   59.0709   62.7394 C   0  0  0  0  0  0  0  0  0  0  0  0
  -51.0570   57.9139   61.7473 C   0  0  0  0  0  0  0  0  0  0  0  0
  -49.7710   57.7379   60.9629 C   0  0  0  0  0  0  0  0  0  0  0  0
  -49.2529   59.0271   60.3589 C   0  0  0  0  0  0  0  0  0  0  0  0
  -48.5580   58.8367   59.0179 C   0  0  0  0  0  0  0  0  0  0  0  0
  -48.9295   57.5407   58.3196 C   0  0  0  0  0  0  0  0  0  0  0  0
  -46.8866   58.0926   56.9564 C   0  0  0  0  0  0  0  0  0  0  0  0
  -48.1371   57.2490   57.0594 C   0  0  0  0  0  0  0  0  0  0  0  0
  -37.1129   61.7145   65.0999 C   0  0  0  0  0  0  0  0  0  0  0  0
  -37.2585   63.0288   64.5169 O   0  0  0  0  0  0  0  0  0  0  0  0
  -36.0939   63.7408   63.6811 P   0  0  0  0  0  0  0  0  0  0  0  0
  -35.3755   62.6983   62.9172 O   0  0  0  0  0  0  0  0  0  0  0  0
  -36.6868   64.8828   62.9441 O   0  0  0  0  0  0  0  0  0  0  0  0
  -37.3027   64.5497   62.2729 H   0  0  0  0  0  0  0  0  0  0  0  0
  -35.0905   64.3295   64.7717 O   0  0  0  0  0  0  0  0  0  0  0  0
  -34.1782   63.4510   65.4616 C   0  0  0  0  0  0  0  0  0  0  0  0
  -33.2465   63.0209   67.6271 O   0  0  0  0  0  0  0  0  0  0  0  0
  -33.9584   63.9911   66.8534 C   0  0  0  0  0  0  0  0  0  0  0  0
  -33.7345   62.1826   67.6227 H   0  0  0  0  0  0  0  0  0  0  0  0
  -33.4726   66.0333   68.0416 O   0  0  0  0  0  0  0  0  0  0  0  0
  -33.2121   65.3038   66.8493 C   0  0  0  0  0  0  0  0  0  0  0  0
  -32.9854   66.8718   68.0205 H   0  0  0  0  0  0  0  0  0  0  0  0
  -39.0012   61.4756   63.5406 O   0  0  0  0  0  0  0  0  0  0  0  0
  -37.7594   60.8693   61.7657 O   0  0  0  0  0  0  0  0  0  0  0  0
  -38.8260   60.9562   62.3104 C   0  0  0  0  0  0  0  0  0  0  0  0
  -40.1150   60.4845   61.7123 C   0  0  0  0  0  0  0  0  0  0  0  0
  -39.9554   60.1503   60.2326 C   0  0  0  0  0  0  0  0  0  0  0  0
  -40.9618   59.1342   59.7181 C   0  0  0  0  0  0  0  0  0  0  0  0
  -41.6383   58.3323   60.8240 C   0  0  0  0  0  0  0  0  0  0  0  0
  -41.4606   56.8309   60.6944 C   0  0  0  0  0  0  0  0  0  0  0  0
  -40.8327   56.1561   61.9172 C   0  0  0  0  0  0  0  0  0  0  0  0
  -39.8170   57.0079   62.6817 C   0  0  0  0  0  0  0  0  0  0  0  0
  -38.5077   57.1106   61.9584 C   0  0  0  0  0  0  0  0  0  0  0  0
  -37.3469   57.4613   62.4771 C   0  0  0  0  0  0  0  0  0  0  0  0
  -37.0936   57.8302   63.9047 C   0  0  0  0  0  0  0  0  0  0  0  0
  -35.6736   57.4925   64.3502 C   0  0  0  0  0  0  0  0  0  0  0  0
  -34.7291   58.6815   64.3286 C   0  0  0  0  0  0  0  0  0  0  0  0
  -33.8717   58.7565   63.0771 C   0  0  0  0  0  0  0  0  0  0  0  0
  -32.4020   59.0431   63.3370 C   0  0  0  0  0  0  0  0  0  0  0  0
  -31.8803   60.2593   62.5872 C   0  0  0  0  0  0  0  0  0  0  0  0
  -30.3688   60.3695   62.5557 C   0  0  0  0  0  0  0  0  0  0  0  0
  -29.8724   61.2402   61.4354 C   0  0  0  0  0  0  0  0  0  0  0  0
 21 22  1  0  0  0
  4  5  2  0  0  0
 25 24  1  0  0  0
 25 26  2  0  0  0
 25 27  1  0  0  0
 25 29  1  0  0  0
 22 20  1  0  0  0
  3  5  1  0  0  0
  3  2  1  0  0  0
 20 19  1  0  0  0
 24 23  1  0  0  0
 19 18  1  0  0  0
 18 17  1  0  0  0
 27 28  1  0  0  0
 17 16  1  0  0  0
 29 30  1  0  0  0
 16 15  1  0  0  0
 34 35  1  0  0  0
 34 36  1  0  0  0
 15 14  1  0  0  0
 31 32  1  0  0  0
 31 33  1  0  0  0
 14 13  1  0  0  0
 37  1  1  0  0  0
 37 39  1  0  0  0
 13 12  1  0  0  0
 38 39  2  0  0  0
 12 11  1  0  0  0
 11 10  1  0  0  0
 10  9  1  0  0  0
  9  8  1  0  0  0
  8  7  1  0  0  0
  7  6  1  0  0  0
  6  5  1  0  0  0
  2  1  1  0  0  0
  1 23  1  0  0  0
 30 32  1  0  0  0
 32 35  1  0  0  0
 39 40  1  0  0  0
 40 41  1  0  0  0
 41 42  1  0  0  0
 42 43  1  0  0  0
 43 44  1  0  0  0
 44 45  1  0  0  0
 45 46  1  0  0  0
 46 47  1  0  0  0
 47 48  2  0  0  0
 48 49  1  0  0  0
 49 50  1  0  0  0
 50 51  1  0  0  0
 51 52  1  0  0  0
 52 53  1  0  0  0
 53 54  1  0  0  0
 54 55  1  0  0  0
 55 56  1  0  0  0
M  CHG 1  26  -1
M  END
> <minimizedAffinity>
-8.70589

> <CNNscore>
0.5028508306

> <CNNaffinity>
7.4106407166

> <CNN_VS>
3.7264468670

> <CNNaffinity_variance>
0.8416520357

$$$$
/media/chris/experiments/cd1a-new-docking/inputs/ligands/7sh4_ligand.pdb


 56 55  0  0  0  0  0  0  0  0999 V2000
  -40.9291   60.4666   63.7454 C   0  0  0  0  0  0  0  0  0  0  0  0
  -40.8086   59.7679   65.0702 C   0  0  0  0  0  0  0  0  0  0  0  0
  -40.7268   58.3698   64.7215 O   0  0  0  0  0  0  0  0  0  0  0  0
  -42.2451   57.5074   66.1181 O   0  0  0  0  0  0  0  0  0  0  0  0
  -41.7839   57.6115   65.0135 C   0  0  0  0  0  0  0  0  0  0  0  0
  -42.3847   57.0171   63.7723 C   0  0  0  0  0  0  0  0  0  0  0  0
  -41.4134   56.1895   62.9477 C   0  0  0  0  0  0  0  0  0  0  0  0
  -41.4108   56.5751   61.4835 C   0  0  0  0  0  0  0  0  0  0  0  0
  -41.8072   58.0102   61.2203 C   0  0  0  0  0  0  0  0  0  0  0  0
  -41.2245   58.5604   59.9344 C   0  0  0  0  0  0  0  0  0  0  0  0
  -39.9787   57.8349   59.4883 C   0  0  0  0  0  0  0  0  0  0  0  0
  -38.8036   58.7541   59.2845 C   0  0  0  0  0  0  0  0  0  0  0  0
  -37.7900   58.6906   60.4056 C   0  0  0  0  0  0  0  0  0  0  0  0
  -38.1474   57.6630   61.4603 C   0  0  0  0  0  0  0  0  0  0  0  0
  -37.2299   57.6690   62.6649 C   0  0  0  0  0  0  0  0  0  0  0  0
  -35.8608   58.2822   62.3935 C   0  0  0  0  0  0  0  0  0  0  0  0
  -34.7212   57.5895   63.1156 C   0  0  0  0  0  0  0  0  0  0  0  0
  -34.2304   58.3471   64.3323 C   0  0  0  0  0  0  0  0  0  0  0  0
  -32.7609   58.7372   64.2565 C   0  0  0  0  0  0  0  0  0  0  0  0
  -32.2627   58.9567   62.8391 C   0  0  0  0  0  0  0  0  0  0  0  0
  -31.4645   61.2526   62.1852 C   0  0  0  0  0  0  0  0  0  0  0  0
  -31.0755   59.8935   62.7214 C   0  0  0  0  0  0  0  0  0  0  0  0
  -39.5881   60.8951   63.2073 C   0  0  0  0  0  0  0  0  0  0  0  0
  -38.8429   61.5323   64.2690 O   0  0  0  0  0  0  0  0  0  0  0  0
  -37.2479   61.4538   64.3773 P   0  0  0  0  0  0  0  0  0  0  0  0
  -36.9016   60.2600   65.1784 O   0  0  0  0  0  0  0  0  0  0  0  0
  -36.6857   61.5827   63.0113 O   0  0  0  0  0  0  0  0  0  0  0  0
  -36.9348   60.8071   62.4846 H   0  0  0  0  0  0  0  0  0  0  0  0
  -36.8169   62.7447   65.2083 O   0  0  0  0  0  0  0  0  0  0  0  0
  -35.4969   62.8247   65.7840 C   0  0  0  0  0  0  0  0  0  0  0  0
  -36.2043   64.1450   67.6544 O   0  0  0  0  0  0  0  0  0  0  0  0
  -35.3672   64.1496   66.4943 C   0  0  0  0  0  0  0  0  0  0  0  0
  -37.1173   63.9470   67.3935 H   0  0  0  0  0  0  0  0  0  0  0  0
  -33.3756   63.3760   67.6140 O   0  0  0  0  0  0  0  0  0  0  0  0
  -33.9405   64.4564   66.8823 C   0  0  0  0  0  0  0  0  0  0  0  0
  -32.4607   63.5913   67.8538 H   0  0  0  0  0  0  0  0  0  0  0  0
  -41.8378   61.6061   63.9056 O   0  0  0  0  0  0  0  0  0  0  0  0
  -42.8360   61.6984   61.8919 O   0  0  0  0  0  0  0  0  0  0  0  0
  -42.9082   61.6528   63.0896 C   0  0  0  0  0  0  0  0  0  0  0  0
  -44.1963   61.6227   63.8524 C   0  0  0  0  0  0  0  0  0  0  0  0
  -44.5131   60.2194   64.3592 C   0  0  0  0  0  0  0  0  0  0  0  0
  -44.4549   60.0826   65.8719 C   0  0  0  0  0  0  0  0  0  0  0  0
  -45.7207   59.4889   66.4795 C   0  0  0  0  0  0  0  0  0  0  0  0
  -46.2819   58.3100   65.7063 C   0  0  0  0  0  0  0  0  0  0  0  0
  -47.7810   58.4000   65.4075 C   0  0  0  0  0  0  0  0  0  0  0  0
  -48.3752   59.8086   65.4735 C   0  0  0  0  0  0  0  0  0  0  0  0
  -49.8059   59.7978   65.9217 C   0  0  0  0  0  0  0  0  0  0  0  0
  -50.8736   59.7977   65.1476 C   0  0  0  0  0  0  0  0  0  0  0  0
  -50.8790   59.8065   63.6514 C   0  0  0  0  0  0  0  0  0  0  0  0
  -50.6387   58.4205   63.0601 C   0  0  0  0  0  0  0  0  0  0  0  0
  -50.9941   58.3162   61.5873 C   0  0  0  0  0  0  0  0  0  0  0  0
  -49.8978   57.6967   60.7379 C   0  0  0  0  0  0  0  0  0  0  0  0
  -49.8442   58.2087   59.3080 C   0  0  0  0  0  0  0  0  0  0  0  0
  -48.9734   57.3608   58.3934 C   0  0  0  0  0  0  0  0  0  0  0  0
  -47.5058   57.7399   58.4047 C   0  0  0  0  0  0  0  0  0  0  0  0
  -47.0342   58.2790   57.0831 C   0  0  0  0  0  0  0  0  0  0  0  0
 21 22  1  0  0  0
  4  5  2  0  0  0
 25 24  1  0  0  0
 25 26  2  0  0  0
 25 27  1  0  0  0
 25 29  1  0  0  0
 22 20  1  0  0  0
  3  5  1  0  0  0
  3  2  1  0  0  0
 20 19  1  0  0  0
 24 23  1  0  0  0
 19 18  1  0  0  0
 18 17  1  0  0  0
 27 28  1  0  0  0
 17 16  1  0  0  0
 29 30  1  0  0  0
 16 15  1  0  0  0
 34 35  1  0  0  0
 34 36  1  0  0  0
 15 14  1  0  0  0
 31 32  1  0  0  0
 31 33  1  0  0  0
 14 13  1  0  0  0
 37  1  1  0  0  0
 37 39  1  0  0  0
 13 12  1  0  0  0
 38 39  2  0  0  0
 12 11  1  0  0  0
 11 10  1  0  0  0
 10  9  1  0  0  0
  9  8  1  0  0  0
  8  7  1  0  0  0
  7  6  1  0  0  0
  6  5  1  0  0  0
  2  1  1  0  0  0
  1 23  1  0  0  0
 30 32  1  0  0  0
 32 35  1  0  0  0
 39 40  1  0  0  0
 40 41  1  0  0  0
 41 42  1  0  0  0
 42 43  1  0  0  0
 43 44  1  0  0  0
 44 45  1  0  0  0
 45 46  1  0  0  0
 46 47  1  0  0  0
 47 48  2  0  0  0
 48 49  1  0  0  0
 49 50  1  0  0  0
 50 51  1  0  0  0
 51 52  1  0  0  0
 52 53  1  0  0  0
 53 54  1  0  0  0
 54 55  1  0  0  0
 55 56  1  0  0  0
M  CHG 1  26  -1
M  END
> <minimizedAffinity>
-9.02235

> <CNNscore>
0.4726196527

> <CNNaffinity>
7.4130163193

> <CNN_VS>
3.5035371780

> <CNNaffinity_variance>
1.5144001245

$$$$
/media/chris/experiments/cd1a-new-docking/inputs/ligands/7sh4_ligand.pdb


 56 55  0  0  0  0  0  0  0  0999 V2000
  -36.3378   61.6865   66.0040 C   0  0  0  0  0  0  0  0  0  0  0  0
  -37.4682   61.8467   65.0271 C   0  0  0  0  0  0  0  0  0  0  0  0
  -38.6080   61.2932   65.7181 O   0  0  0  0  0  0  0  0  0  0  0  0
  -39.7470   61.1568   63.7989 O   0  0  0  0  0  0  0  0  0  0  0  0
  -39.6366   60.8985   64.9671 C   0  0  0  0  0  0  0  0  0  0  0  0
  -40.5565   59.9962   65.7380 C   0  0  0  0  0  0  0  0  0  0  0  0
  -41.7369   60.7105   66.3744 C   0  0  0  0  0  0  0  0  0  0  0  0
  -42.9230   60.8292   65.4408 C   0  0  0  0  0  0  0  0  0  0  0  0
  -44.2284   60.3493   66.0339 C   0  0  0  0  0  0  0  0  0  0  0  0
  -45.3880   60.4337   65.0624 C   0  0  0  0  0  0  0  0  0  0  0  0
  -46.3290   59.2575   65.1568 C   0  0  0  0  0  0  0  0  0  0  0  0
  -47.4712   59.3378   64.1789 C   0  0  0  0  0  0  0  0  0  0  0  0
  -48.2728   60.6153   64.2954 C   0  0  0  0  0  0  0  0  0  0  0  0
  -49.4779   60.6360   63.3769 C   0  0  0  0  0  0  0  0  0  0  0  0
  -50.5436   59.6208   63.7329 C   0  0  0  0  0  0  0  0  0  0  0  0
  -50.9426   58.7143   62.5739 C   0  0  0  0  0  0  0  0  0  0  0  0
  -49.8595   58.5401   61.5267 C   0  0  0  0  0  0  0  0  0  0  0  0
  -50.2207   57.5398   60.4477 C   0  0  0  0  0  0  0  0  0  0  0  0
  -49.7893   57.9661   59.0514 C   0  0  0  0  0  0  0  0  0  0  0  0
  -48.3914   58.5567   59.0010 C   0  0  0  0  0  0  0  0  0  0  0  0
  -48.3218   57.1995   56.8823 C   0  0  0  0  0  0  0  0  0  0  0  0
  -47.5684   58.1379   57.7976 C   0  0  0  0  0  0  0  0  0  0  0  0
  -36.0124   62.9778   66.7100 C   0  0  0  0  0  0  0  0  0  0  0  0
  -35.0749   63.7254   65.9034 O   0  0  0  0  0  0  0  0  0  0  0  0
  -33.6187   64.1380   66.4242 P   0  0  0  0  0  0  0  0  0  0  0  0
  -33.6121   65.5984   66.6559 O   0  0  0  0  0  0  0  0  0  0  0  0
  -33.2572   63.2371   67.5452 O   0  0  0  0  0  0  0  0  0  0  0  0
  -33.8447   63.4063   68.2983 H   0  0  0  0  0  0  0  0  0  0  0  0
  -32.6325   63.8290   65.2099 O   0  0  0  0  0  0  0  0  0  0  0  0
  -33.1066   63.9306   63.8515 C   0  0  0  0  0  0  0  0  0  0  0  0
  -30.8606   63.3997   63.2065 O   0  0  0  0  0  0  0  0  0  0  0  0
  -31.9421   64.3053   62.9680 C   0  0  0  0  0  0  0  0  0  0  0  0
  -30.6339   63.4081   64.1497 H   0  0  0  0  0  0  0  0  0  0  0  0
  -31.5602   63.3227   60.7984 O   0  0  0  0  0  0  0  0  0  0  0  0
  -32.3087   64.3049   61.5032 C   0  0  0  0  0  0  0  0  0  0  0  0
  -31.8092   63.3375   59.8610 H   0  0  0  0  0  0  0  0  0  0  0  0
  -35.1765   61.1557   65.2832 O   0  0  0  0  0  0  0  0  0  0  0  0
  -35.7770   61.8149   63.2180 O   0  0  0  0  0  0  0  0  0  0  0  0
  -35.3072   60.9898   63.9530 C   0  0  0  0  0  0  0  0  0  0  0  0
  -34.7808   59.6636   63.4992 C   0  0  0  0  0  0  0  0  0  0  0  0
  -34.7510   58.6535   64.6417 C   0  0  0  0  0  0  0  0  0  0  0  0
  -35.7798   57.5425   64.5092 C   0  0  0  0  0  0  0  0  0  0  0  0
  -37.1623   57.9275   65.0231 C   0  0  0  0  0  0  0  0  0  0  0  0
  -38.2461   57.8957   63.9615 C   0  0  0  0  0  0  0  0  0  0  0  0
  -37.7314   57.7068   62.5317 C   0  0  0  0  0  0  0  0  0  0  0  0
  -37.7826   58.9566   61.6503 C   0  0  0  0  0  0  0  0  0  0  0  0
  -37.6812   58.6239   60.1919 C   0  0  0  0  0  0  0  0  0  0  0  0
  -38.5964   58.8451   59.2683 C   0  0  0  0  0  0  0  0  0  0  0  0
  -39.9338   59.4796   59.4851 C   0  0  0  0  0  0  0  0  0  0  0  0
  -41.0838   58.4962   59.2871 C   0  0  0  0  0  0  0  0  0  0  0  0
  -40.8855   57.1736   60.0067 C   0  0  0  0  0  0  0  0  0  0  0  0
  -41.5191   57.1292   61.3864 C   0  0  0  0  0  0  0  0  0  0  0  0
  -41.1063   55.9348   62.2306 C   0  0  0  0  0  0  0  0  0  0  0  0
  -41.5439   56.0399   63.6836 C   0  0  0  0  0  0  0  0  0  0  0  0
  -42.4773   57.1994   63.9697 C   0  0  0  0  0  0  0  0  0  0  0  0
  -43.2374   57.0304   65.2556 C   0  0  0  0  0  0  0  0  0  0  0  0
 21 22  1  0  0  0
  4  5  2  0  0  0
 25 24  1  0  0  0
 25 26  2  0  0  0
 25 27  1  0  0  0
 25 29  1  0  0  0
 22 20  1  0  0  0
  3  5  1  0  0  0
  3  2  1  0  0  0
 20 19  1  0  0  0
 24 23  1  0  0  0
 19 18  1  0  0  0
 18 17  1  0  0  0
 27 28  1  0  0  0
 17 16  1  0  0  0
 29 30  1  0  0  0
 16 15  1  0  0  0
 34 35  1  0  0  0
 34 36  1  0  0  0
 15 14  1  0  0  0
 31 32  1  0  0  0
 31 33  1  0  0  0
 14 13  1  0  0  0
 37  1  1  0  0  0
 37 39  1  0  0  0
 13 12  1  0  0  0
 38 39  2  0  0  0
 12 11  1  0  0  0
 11 10  1  0  0  0
 10  9  1  0  0  0
  9  8  1  0  0  0
  8  7  1  0  0  0
  7  6  1  0  0  0
  6  5  1  0  0  0
  2  1  1  0  0  0
  1 23  1  0  0  0
 30 32  1  0  0  0
 32 35  1  0  0  0
 39 40  1  0  0  0
 40 41  1  0  0  0
 41 42  1  0  0  0
 42 43  1  0  0  0
 43 44  1  0  0  0
 44 45  1  0  0  0
 45 46  1  0  0  0
 46 47  1  0  0  0
 47 48  2  0  0  0
 48 49  1  0  0  0
 49 50  1  0  0  0
 50 51  1  0  0  0
 51 52  1  0  0  0
 52 53  1  0  0  0
 53 54  1  0  0  0
 54 55  1  0  0  0
 55 56  1  0  0  0
M  CHG 1  26  -1
M  END
> <minimizedAffinity>
-8.41322

> <CNNscore>
0.3597486317

> <CNNaffinity>
7.3739037514

> <CNN_VS>
2.6527516842

> <CNNaffinity_variance>
0.7304219604

$$$$
/media/chris/experiments/cd1a-new-docking/inputs/ligands/7sh4_ligand.pdb


 56 55  0  0  0  0  0  0  0  0999 V2000
  -39.8981   60.2474   64.4955 C   0  0  0  0  0  0  0  0  0  0  0  0
  -41.3314   60.3466   64.9353 C   0  0  0  0  0  0  0  0  0  0  0  0
  -41.7389   58.9731   65.1103 O   0  0  0  0  0  0  0  0  0  0  0  0
  -43.0627   59.0014   63.3087 O   0  0  0  0  0  0  0  0  0  0  0  0
  -42.7776   58.5543   64.3868 C   0  0  0  0  0  0  0  0  0  0  0  0
  -43.4535   57.3813   65.0364 C   0  0  0  0  0  0  0  0  0  0  0  0
  -44.0832   57.6954   66.3829 C   0  0  0  0  0  0  0  0  0  0  0  0
  -45.5913   57.5602   66.3708 C   0  0  0  0  0  0  0  0  0  0  0  0
  -46.3299   58.8317   66.7222 C   0  0  0  0  0  0  0  0  0  0  0  0
  -46.2675   59.8764   65.6265 C   0  0  0  0  0  0  0  0  0  0  0  0
  -47.2488   59.6237   64.5081 C   0  0  0  0  0  0  0  0  0  0  0  0
  -47.8236   60.8908   63.9323 C   0  0  0  0  0  0  0  0  0  0  0  0
  -49.3288   60.9777   64.0558 C   0  0  0  0  0  0  0  0  0  0  0  0
  -49.9432   59.7151   64.6255 C   0  0  0  0  0  0  0  0  0  0  0  0
  -50.8242   58.9624   63.6506 C   0  0  0  0  0  0  0  0  0  0  0  0
  -50.3164   58.9897   62.2135 C   0  0  0  0  0  0  0  0  0  0  0  0
  -50.8618   57.8719   61.3458 C   0  0  0  0  0  0  0  0  0  0  0  0
  -50.2142   57.8008   59.9780 C   0  0  0  0  0  0  0  0  0  0  0  0
  -49.1346   56.7331   59.8687 C   0  0  0  0  0  0  0  0  0  0  0  0
  -47.8005   57.2659   59.3772 C   0  0  0  0  0  0  0  0  0  0  0  0
  -47.0060   58.1236   57.1481 C   0  0  0  0  0  0  0  0  0  0  0  0
  -47.9005   58.3700   58.3418 C   0  0  0  0  0  0  0  0  0  0  0  0
  -38.9407   60.3729   65.6528 C   0  0  0  0  0  0  0  0  0  0  0  0
  -38.4804   61.7406   65.7294 O   0  0  0  0  0  0  0  0  0  0  0  0
  -36.9541   62.1570   65.4870 P   0  0  0  0  0  0  0  0  0  0  0  0
  -36.3797   62.5683   66.7861 O   0  0  0  0  0  0  0  0  0  0  0  0
  -36.2933   61.0672   64.7290 O   0  0  0  0  0  0  0  0  0  0  0  0
  -36.2462   60.2714   65.2817 H   0  0  0  0  0  0  0  0  0  0  0  0
  -37.0114   63.4431   64.5462 O   0  0  0  0  0  0  0  0  0  0  0  0
  -36.3803   63.4173   63.2495 C   0  0  0  0  0  0  0  0  0  0  0  0
  -34.6114   64.8842   63.9288 O   0  0  0  0  0  0  0  0  0  0  0  0
  -35.7085   64.7490   63.0207 C   0  0  0  0  0  0  0  0  0  0  0  0
  -34.9296   64.7760   64.8388 H   0  0  0  0  0  0  0  0  0  0  0  0
  -35.7748   63.8998   60.7640 O   0  0  0  0  0  0  0  0  0  0  0  0
  -35.2308   64.9148   61.5979 C   0  0  0  0  0  0  0  0  0  0  0  0
  -35.4573   64.0229   59.8557 H   0  0  0  0  0  0  0  0  0  0  0  0
  -39.6554   61.2748   63.4779 O   0  0  0  0  0  0  0  0  0  0  0  0
  -38.0027   60.8159   62.0226 O   0  0  0  0  0  0  0  0  0  0  0  0
  -39.1720   60.8574   62.2921 C   0  0  0  0  0  0  0  0  0  0  0  0
  -40.2642   60.4351   61.3589 C   0  0  0  0  0  0  0  0  0  0  0  0
  -39.7076   60.0043   60.0057 C   0  0  0  0  0  0  0  0  0  0  0  0
  -40.5165   58.9117   59.3261 C   0  0  0  0  0  0  0  0  0  0  0  0
  -41.4678   58.1822   60.2677 C   0  0  0  0  0  0  0  0  0  0  0  0
  -41.1451   56.7110   60.4526 C   0  0  0  0  0  0  0  0  0  0  0  0
  -40.9472   56.2806   61.9088 C   0  0  0  0  0  0  0  0  0  0  0  0
  -39.8662   57.0474   62.6736 C   0  0  0  0  0  0  0  0  0  0  0  0
  -38.5700   57.0974   61.9217 C   0  0  0  0  0  0  0  0  0  0  0  0
  -37.3896   57.4278   62.4083 C   0  0  0  0  0  0  0  0  0  0  0  0
  -37.0964   57.8222   63.8215 C   0  0  0  0  0  0  0  0  0  0  0  0
  -35.6659   57.4880   64.2345 C   0  0  0  0  0  0  0  0  0  0  0  0
  -34.6117   58.0925   63.3237 C   0  0  0  0  0  0  0  0  0  0  0  0
  -33.5410   58.8742   64.0653 C   0  0  0  0  0  0  0  0  0  0  0  0
  -32.1929   58.9154   63.3649 C   0  0  0  0  0  0  0  0  0  0  0  0
  -31.9870   60.1636   62.5204 C   0  0  0  0  0  0  0  0  0  0  0  0
  -32.8281   61.3498   62.9484 C   0  0  0  0  0  0  0  0  0  0  0  0
  -32.4567   62.6160   62.2284 C   0  0  0  0  0  0  0  0  0  0  0  0
 21 22  1  0  0  0
  4  5  2  0  0  0
 25 24  1  0  0  0
 25 26  2  0  0  0
 25 27  1  0  0  0
 25 29  1  0  0  0
 22 20  1  0  0  0
  3  5  1  0  0  0
  3  2  1  0  0  0
 20 19  1  0  0  0
 24 23  1  0  0  0
 19 18  1  0  0  0
 18 17  1  0  0  0
 27 28  1  0  0  0
 17 16  1  0  0  0
 29 30  1  0  0  0
 16 15  1  0  0  0
 34 35  1  0  0  0
 34 36  1  0  0  0
 15 14  1  0  0  0
 31 32  1  0  0  0
 31 33  1  0  0  0
 14 13  1  0  0  0
 37  1  1  0  0  0
 37 39  1  0  0  0
 13 12  1  0  0  0
 38 39  2  0  0  0
 12 11  1  0  0  0
 11 10  1  0  0  0
 10  9  1  0  0  0
  9  8  1  0  0  0
  8  7  1  0  0  0
  7  6  1  0  0  0
  6  5  1  0  0  0
  2  1  1  0  0  0
  1 23  1  0  0  0
 30 32  1  0  0  0
 32 35  1  0  0  0
 39 40  1  0  0  0
 40 41  1  0  0  0
 41 42  1  0  0  0
 42 43  1  0  0  0
 43 44  1  0  0  0
 44 45  1  0  0  0
 45 46  1  0  0  0
 46 47  1  0  0  0
 47 48  2  0  0  0
 48 49  1  0  0  0
 49 50  1  0  0  0
 50 51  1  0  0  0
 51 52  1  0  0  0
 52 53  1  0  0  0
 53 54  1  0  0  0
 54 55  1  0  0  0
 55 56  1  0  0  0
M  CHG 1  26  -1
M  END
> <minimizedAffinity>
-8.41150

> <CNNscore>
0.3060014844

> <CNNaffinity>
7.4000968933

> <CNN_VS>
2.2644405365

> <CNNaffinity_variance>
1.0416291952

$$$$
/media/chris/experiments/cd1a-new-docking/inputs/ligands/7sh4_ligand.pdb


 56 55  0  0  0  0  0  0  0  0999 V2000
  -34.5810   63.6468   63.7278 C   0  0  0  0  0  0  0  0  0  0  0  0
  -33.8768   62.3589   64.0488 C   0  0  0  0  0  0  0  0  0  0  0  0
  -33.5235   61.8224   62.7563 O   0  0  0  0  0  0  0  0  0  0  0  0
  -31.3416   62.3028   62.8445 O   0  0  0  0  0  0  0  0  0  0  0  0
  -32.2343   61.5566   62.5445 C   0  0  0  0  0  0  0  0  0  0  0  0
  -32.0481   60.1674   62.0057 C   0  0  0  0  0  0  0  0  0  0  0  0
  -33.0960   59.1734   62.4772 C   0  0  0  0  0  0  0  0  0  0  0  0
  -32.7284   58.5116   63.7884 C   0  0  0  0  0  0  0  0  0  0  0  0
  -33.7529   58.6977   64.8847 C   0  0  0  0  0  0  0  0  0  0  0  0
  -35.1499   58.9493   64.3546 C   0  0  0  0  0  0  0  0  0  0  0  0
  -36.0574   57.7499   64.4788 C   0  0  0  0  0  0  0  0  0  0  0  0
  -37.0520   57.6455   63.3530 C   0  0  0  0  0  0  0  0  0  0  0  0
  -36.7577   58.5830   62.2029 C   0  0  0  0  0  0  0  0  0  0  0  0
  -37.7104   58.3987   61.0390 C   0  0  0  0  0  0  0  0  0  0  0  0
  -38.4386   59.6620   60.6306 C   0  0  0  0  0  0  0  0  0  0  0  0
  -39.9272   59.4587   60.3719 C   0  0  0  0  0  0  0  0  0  0  0  0
  -40.2656   58.1238   59.7366 C   0  0  0  0  0  0  0  0  0  0  0  0
  -41.3458   57.3616   60.4763 C   0  0  0  0  0  0  0  0  0  0  0  0
  -40.8359   56.6142   61.7006 C   0  0  0  0  0  0  0  0  0  0  0  0
  -41.2117   57.2738   63.0155 C   0  0  0  0  0  0  0  0  0  0  0  0
  -42.9808   56.8428   64.7534 C   0  0  0  0  0  0  0  0  0  0  0  0
  -41.7328   56.3231   64.0764 C   0  0  0  0  0  0  0  0  0  0  0  0
  -34.0107   64.8108   64.4968 C   0  0  0  0  0  0  0  0  0  0  0  0
  -32.6131   64.9524   64.1578 O   0  0  0  0  0  0  0  0  0  0  0  0
  -31.5175   65.4819   65.1976 P   0  0  0  0  0  0  0  0  0  0  0  0
  -31.4593   66.9556   65.0907 O   0  0  0  0  0  0  0  0  0  0  0  0
  -31.8044   64.8743   66.5195 O   0  0  0  0  0  0  0  0  0  0  0  0
  -32.6478   65.2154   66.8560 H   0  0  0  0  0  0  0  0  0  0  0  0
  -30.1271   64.8968   64.6809 O   0  0  0  0  0  0  0  0  0  0  0  0
  -29.2197   65.7395   63.9416 C   0  0  0  0  0  0  0  0  0  0  0  0
  -29.3209   66.8825   61.8379 O   0  0  0  0  0  0  0  0  0  0  0  0
  -29.5498   65.6217   62.4739 C   0  0  0  0  0  0  0  0  0  0  0  0
  -29.8399   67.5692   62.2852 H   0  0  0  0  0  0  0  0  0  0  0  0
  -28.6172   63.4028   62.6332 O   0  0  0  0  0  0  0  0  0  0  0  0
  -28.7489   64.5398   61.7897 C   0  0  0  0  0  0  0  0  0  0  0  0
  -28.1008   62.7200   62.1772 H   0  0  0  0  0  0  0  0  0  0  0  0
  -36.0117   63.4697   63.9953 O   0  0  0  0  0  0  0  0  0  0  0  0
  -36.5734   63.1394   61.8423 O   0  0  0  0  0  0  0  0  0  0  0  0
  -36.7546   62.9291   63.0105 C   0  0  0  0  0  0  0  0  0  0  0  0
  -37.8194   62.0222   63.5450 C   0  0  0  0  0  0  0  0  0  0  0  0
  -37.4962   61.5541   64.9603 C   0  0  0  0  0  0  0  0  0  0  0  0
  -38.5654   60.6657   65.5749 C   0  0  0  0  0  0  0  0  0  0  0  0
  -39.4889   60.0228   64.5467 C   0  0  0  0  0  0  0  0  0  0  0  0
  -40.9488   60.4059   64.7037 C   0  0  0  0  0  0  0  0  0  0  0  0
  -41.4968   60.2569   66.1258 C   0  0  0  0  0  0  0  0  0  0  0  0
  -42.9586   60.6709   66.3075 C   0  0  0  0  0  0  0  0  0  0  0  0
  -43.5063   61.3583   65.0928 C   0  0  0  0  0  0  0  0  0  0  0  0
  -44.5611   60.9937   64.3901 C   0  0  0  0  0  0  0  0  0  0  0  0
  -45.4371   59.8117   64.6619 C   0  0  0  0  0  0  0  0  0  0  0  0
  -46.9152   60.1189   64.4392 C   0  0  0  0  0  0  0  0  0  0  0  0
  -47.7654   59.9610   65.6876 C   0  0  0  0  0  0  0  0  0  0  0  0
  -49.2572   60.0821   65.4287 C   0  0  0  0  0  0  0  0  0  0  0  0
  -49.9595   58.7607   65.1639 C   0  0  0  0  0  0  0  0  0  0  0  0
  -50.4773   58.6247   63.7402 C   0  0  0  0  0  0  0  0  0  0  0  0
  -50.7665   59.9453   63.0547 C   0  0  0  0  0  0  0  0  0  0  0  0
  -49.8067   60.2427   61.9366 C   0  0  0  0  0  0  0  0  0  0  0  0
 21 22  1  0  0  0
  4  5  2  0  0  0
 25 24  1  0  0  0
 25 26  2  0  0  0
 25 27  1  0  0  0
 25 29  1  0  0  0
 22 20  1  0  0  0
  3  5  1  0  0  0
  3  2  1  0  0  0
 20 19  1  0  0  0
 24 23  1  0  0  0
 19 18  1  0  0  0
 18 17  1  0  0  0
 27 28  1  0  0  0
 17 16  1  0  0  0
 29 30  1  0  0  0
 16 15  1  0  0  0
 34 35  1  0  0  0
 34 36  1  0  0  0
 15 14  1  0  0  0
 31 32  1  0  0  0
 31 33  1  0  0  0
 14 13  1  0  0  0
 37  1  1  0  0  0
 37 39  1  0  0  0
 13 12  1  0  0  0
 38 39  2  0  0  0
 12 11  1  0  0  0
 11 10  1  0  0  0
 10  9  1  0  0  0
  9  8  1  0  0  0
  8  7  1  0  0  0
  7  6  1  0  0  0
  6  5  1  0  0  0
  2  1  1  0  0  0
  1 23  1  0  0  0
 30 32  1  0  0  0
 32 35  1  0  0  0
 39 40  1  0  0  0
 40 41  1  0  0  0
 41 42  1  0  0  0
 42 43  1  0  0  0
 43 44  1  0  0  0
 44 45  1  0  0  0
 45 46  1  0  0  0
 46 47  1  0  0  0
 47 48  2  0  0  0
 48 49  1  0  0  0
 49 50  1  0  0  0
 50 51  1  0  0  0
 51 52  1  0  0  0
 52 53  1  0  0  0
 53 54  1  0  0  0
 54 55  1  0  0  0
 55 56  1  0  0  0
M  CHG 1  26  -1
M  END
> <minimizedAffinity>
-7.55088

> <CNNscore>
0.2941319346

> <CNNaffinity>
6.9268579483

> <CNN_VS>
2.0374100208

> <CNNaffinity_variance>
1.2824110985

$$$$
/media/chris/experiments/cd1a-new-docking/inputs/ligands/7sh4_ligand.pdb


 56 55  0  0  0  0  0  0  0  0999 V2000
  -41.1111   58.7771   60.7676 C   0  0  0  0  0  0  0  0  0  0  0  0
  -41.3050   60.2667   60.7993 C   0  0  0  0  0  0  0  0  0  0  0  0
  -41.9514   60.5078   62.0671 O   0  0  0  0  0  0  0  0  0  0  0  0
  -42.8697   62.3933   61.2921 O   0  0  0  0  0  0  0  0  0  0  0  0
  -42.5862   61.6716   62.2099 C   0  0  0  0  0  0  0  0  0  0  0  0
  -43.0028   61.8909   63.6357 C   0  0  0  0  0  0  0  0  0  0  0  0
  -44.4854   61.6761   63.8890 C   0  0  0  0  0  0  0  0  0  0  0  0
  -44.7609   60.4886   64.7871 C   0  0  0  0  0  0  0  0  0  0  0  0
  -46.2151   60.0787   64.8431 C   0  0  0  0  0  0  0  0  0  0  0  0
  -46.6961   59.7890   66.2505 C   0  0  0  0  0  0  0  0  0  0  0  0
  -48.1571   60.1063   66.4561 C   0  0  0  0  0  0  0  0  0  0  0  0
  -48.9021   60.3120   65.1638 C   0  0  0  0  0  0  0  0  0  0  0  0
  -50.1588   59.4770   65.0558 C   0  0  0  0  0  0  0  0  0  0  0  0
  -51.1995   60.1003   64.1477 C   0  0  0  0  0  0  0  0  0  0  0  0
  -51.3846   59.3755   62.8311 C   0  0  0  0  0  0  0  0  0  0  0  0
  -50.1318   58.6579   62.3415 C   0  0  0  0  0  0  0  0  0  0  0  0
  -50.3819   57.6911   61.2000 C   0  0  0  0  0  0  0  0  0  0  0  0
  -50.4146   58.3597   59.8409 C   0  0  0  0  0  0  0  0  0  0  0  0
  -49.5268   57.6825   58.8062 C   0  0  0  0  0  0  0  0  0  0  0  0
  -48.1656   58.3372   58.6515 C   0  0  0  0  0  0  0  0  0  0  0  0
  -47.0326   56.4868   57.3756 C   0  0  0  0  0  0  0  0  0  0  0  0
  -47.4143   57.9496   57.3921 C   0  0  0  0  0  0  0  0  0  0  0  0
  -42.1158   58.0569   61.6299 C   0  0  0  0  0  0  0  0  0  0  0  0
  -41.4071   57.2022   62.5549 O   0  0  0  0  0  0  0  0  0  0  0  0
  -41.9938   56.8012   63.9890 P   0  0  0  0  0  0  0  0  0  0  0  0
  -43.3526   57.3731   64.1041 O   0  0  0  0  0  0  0  0  0  0  0  0
  -41.8186   55.3395   64.1670 O   0  0  0  0  0  0  0  0  0  0  0  0
  -42.3786   54.8670   63.5314 H   0  0  0  0  0  0  0  0  0  0  0  0
  -41.0590   57.5393   65.0492 O   0  0  0  0  0  0  0  0  0  0  0  0
  -39.7534   58.0095   64.6560 C   0  0  0  0  0  0  0  0  0  0  0  0
  -39.5997   60.2197   63.7432 O   0  0  0  0  0  0  0  0  0  0  0  0
  -39.6645   59.4832   64.9679 C   0  0  0  0  0  0  0  0  0  0  0  0
  -38.8510   59.9024   63.2143 H   0  0  0  0  0  0  0  0  0  0  0  0
  -40.6166   61.3052   66.2297 O   0  0  0  0  0  0  0  0  0  0  0  0
  -40.8256   59.9646   65.8047 C   0  0  0  0  0  0  0  0  0  0  0  0
  -41.3715   61.5962   66.7648 H   0  0  0  0  0  0  0  0  0  0  0  0
  -39.7348   58.4819   61.1780 O   0  0  0  0  0  0  0  0  0  0  0  0
  -39.0727   58.2947   59.0364 O   0  0  0  0  0  0  0  0  0  0  0  0
  -38.8092   58.4081   60.2023 C   0  0  0  0  0  0  0  0  0  0  0  0
  -37.4161   58.5025   60.7430 C   0  0  0  0  0  0  0  0  0  0  0  0
  -37.2866   57.7844   62.0825 C   0  0  0  0  0  0  0  0  0  0  0  0
  -36.3771   58.4904   63.0748 C   0  0  0  0  0  0  0  0  0  0  0  0
  -35.1920   57.6438   63.5247 C   0  0  0  0  0  0  0  0  0  0  0  0
  -33.8841   58.0019   62.8438 C   0  0  0  0  0  0  0  0  0  0  0  0
  -33.2728   59.3305   63.2978 C   0  0  0  0  0  0  0  0  0  0  0  0
  -31.7979   59.5252   62.9397 C   0  0  0  0  0  0  0  0  0  0  0  0
  -31.6170   60.4496   61.7732 C   0  0  0  0  0  0  0  0  0  0  0  0
  -30.4729   60.8942   61.2907 C   0  0  0  0  0  0  0  0  0  0  0  0
  -29.1088   60.5650   61.8097 C   0  0  0  0  0  0  0  0  0  0  0  0
  -28.5075   61.7028   62.6297 C   0  0  0  0  0  0  0  0  0  0  0  0
  -28.6520   63.0666   61.9774 C   0  0  0  0  0  0  0  0  0  0  0  0
  -28.8369   64.2009   62.9705 C   0  0  0  0  0  0  0  0  0  0  0  0
  -29.9993   64.0133   63.9314 C   0  0  0  0  0  0  0  0  0  0  0  0
  -31.3502   63.9255   63.2378 C   0  0  0  0  0  0  0  0  0  0  0  0
  -32.5370   63.9679   64.1798 C   0  0  0  0  0  0  0  0  0  0  0  0
  -33.5634   62.9144   63.8697 C   0  0  0  0  0  0  0  0  0  0  0  0
 21 22  1  0  0  0
  4  5  2  0  0  0
 25 24  1  0  0  0
 25 26  2  0  0  0
 25 27  1  0  0  0
 25 29  1  0  0  0
 22 20  1  0  0  0
  3  5  1  0  0  0
  3  2  1  0  0  0
 20 19  1  0  0  0
 24 23  1  0  0  0
 19 18  1  0  0  0
 18 17  1  0  0  0
 27 28  1  0  0  0
 17 16  1  0  0  0
 29 30  1  0  0  0
 16 15  1  0  0  0
 34 35  1  0  0  0
 34 36  1  0  0  0
 15 14  1  0  0  0
 31 32  1  0  0  0
 31 33  1  0  0  0
 14 13  1  0  0  0
 37  1  1  0  0  0
 37 39  1  0  0  0
 13 12  1  0  0  0
 38 39  2  0  0  0
 12 11  1  0  0  0
 11 10  1  0  0  0
 10  9  1  0  0  0
  9  8  1  0  0  0
  8  7  1  0  0  0
  7  6  1  0  0  0
  6  5  1  0  0  0
  2  1  1  0  0  0
  1 23  1  0  0  0
 30 32  1  0  0  0
 32 35  1  0  0  0
 39 40  1  0  0  0
 40 41  1  0  0  0
 41 42  1  0  0  0
 42 43  1  0  0  0
 43 44  1  0  0  0
 44 45  1  0  0  0
 45 46  1  0  0  0
 46 47  1  0  0  0
 47 48  2  0  0  0
 48 49  1  0  0  0
 49 50  1  0  0  0
 50 51  1  0  0  0
 51 52  1  0  0  0
 52 53  1  0  0  0
 53 54  1  0  0  0
 54 55  1  0  0  0
 55 56  1  0  0  0
M  CHG 1  26  -1
M  END
> <minimizedAffinity>
-8.64222

> <CNNscore>
0.2786261439

> <CNNaffinity>
6.4968481064

> <CNN_VS>
1.8101917505

> <CNNaffinity_variance>
0.7634129524

$$$$
/media/chris/experiments/cd1a-new-docking/inputs/ligands/7sh4_ligand.pdb


 56 55  0  0  0  0  0  0  0  0999 V2000
  -37.8746   60.4746   64.9815 C   0  0  0  0  0  0  0  0  0  0  0  0
  -38.9071   60.3242   63.9004 C   0  0  0  0  0  0  0  0  0  0  0  0
  -40.1605   60.2995   64.6156 O   0  0  0  0  0  0  0  0  0  0  0  0
  -41.2851   60.9193   62.7852 O   0  0  0  0  0  0  0  0  0  0  0  0
  -41.2301   60.7743   63.9767 C   0  0  0  0  0  0  0  0  0  0  0  0
  -42.3797   60.9789   64.9209 C   0  0  0  0  0  0  0  0  0  0  0  0
  -43.3174   62.1058   64.5220 C   0  0  0  0  0  0  0  0  0  0  0  0
  -44.6183   61.6047   63.9311 C   0  0  0  0  0  0  0  0  0  0  0  0
  -45.2464   60.4620   64.6964 C   0  0  0  0  0  0  0  0  0  0  0  0
  -46.7610   60.5069   64.6924 C   0  0  0  0  0  0  0  0  0  0  0  0
  -47.3653   60.2934   66.0587 C   0  0  0  0  0  0  0  0  0  0  0  0
  -48.8645   60.1577   66.0244 C   0  0  0  0  0  0  0  0  0  0  0  0
  -49.4548   60.3650   64.6471 C   0  0  0  0  0  0  0  0  0  0  0  0
  -50.9673   60.2722   64.6385 C   0  0  0  0  0  0  0  0  0  0  0  0
  -51.5607   59.9804   63.2762 C   0  0  0  0  0  0  0  0  0  0  0  0
  -50.5597   59.4108   62.2773 C   0  0  0  0  0  0  0  0  0  0  0  0
  -50.9204   58.0306   61.7625 C   0  0  0  0  0  0  0  0  0  0  0  0
  -50.6286   57.8428   60.2878 C   0  0  0  0  0  0  0  0  0  0  0  0
  -49.2285   57.3165   60.0050 C   0  0  0  0  0  0  0  0  0  0  0  0
  -48.4057   58.2275   59.1114 C   0  0  0  0  0  0  0  0  0  0  0  0
  -46.9119   58.4584   57.0987 C   0  0  0  0  0  0  0  0  0  0  0  0
  -47.8816   57.5726   57.8476 C   0  0  0  0  0  0  0  0  0  0  0  0
  -37.5457   61.9202   65.2532 C   0  0  0  0  0  0  0  0  0  0  0  0
  -36.2144   61.9976   65.8100 O   0  0  0  0  0  0  0  0  0  0  0  0
  -35.6042   63.3482   66.4146 P   0  0  0  0  0  0  0  0  0  0  0  0
  -36.7171   64.2984   66.6272 O   0  0  0  0  0  0  0  0  0  0  0  0
  -34.7432   62.9900   67.5675 O   0  0  0  0  0  0  0  0  0  0  0  0
  -35.2920   62.6273   68.2805 H   0  0  0  0  0  0  0  0  0  0  0  0
  -34.6667   63.9386   65.2679 O   0  0  0  0  0  0  0  0  0  0  0  0
  -33.6635   63.1033   64.6546 C   0  0  0  0  0  0  0  0  0  0  0  0
  -34.7635   61.6422   63.1063 O   0  0  0  0  0  0  0  0  0  0  0  0
  -34.0490   62.8770   63.2134 C   0  0  0  0  0  0  0  0  0  0  0  0
  -34.2220   60.9229   63.4672 H   0  0  0  0  0  0  0  0  0  0  0  0
  -35.5501   63.6027   61.4703 O   0  0  0  0  0  0  0  0  0  0  0  0
  -34.8781   64.0090   62.6556 C   0  0  0  0  0  0  0  0  0  0  0  0
  -36.0766   64.3417   61.1275 H   0  0  0  0  0  0  0  0  0  0  0  0
  -36.6842   59.7122   64.5921 O   0  0  0  0  0  0  0  0  0  0  0  0
  -37.4385   57.7933   65.4913 O   0  0  0  0  0  0  0  0  0  0  0  0
  -36.7605   58.3708   64.6861 C   0  0  0  0  0  0  0  0  0  0  0  0
  -35.9146   57.6878   63.6565 C   0  0  0  0  0  0  0  0  0  0  0  0
  -36.0352   58.3653   62.2952 C   0  0  0  0  0  0  0  0  0  0  0  0
  -37.2572   57.9367   61.4995 C   0  0  0  0  0  0  0  0  0  0  0  0
  -37.9294   59.0817   60.7505 C   0  0  0  0  0  0  0  0  0  0  0  0
  -38.1372   58.8136   59.2715 C   0  0  0  0  0  0  0  0  0  0  0  0
  -39.5886   58.5315   58.8733 C   0  0  0  0  0  0  0  0  0  0  0  0
  -40.6204   58.7342   59.9850 C   0  0  0  0  0  0  0  0  0  0  0  0
  -41.5283   57.5506   60.1360 C   0  0  0  0  0  0  0  0  0  0  0  0
  -41.3686   56.5362   60.9636 C   0  0  0  0  0  0  0  0  0  0  0  0
  -40.2419   56.3556   61.9313 C   0  0  0  0  0  0  0  0  0  0  0  0
  -40.5934   56.8469   63.3326 C   0  0  0  0  0  0  0  0  0  0  0  0
  -41.9242   56.3250   63.8454 C   0  0  0  0  0  0  0  0  0  0  0  0
  -42.8682   57.4186   64.3145 C   0  0  0  0  0  0  0  0  0  0  0  0
  -42.7692   57.7431   65.7958 C   0  0  0  0  0  0  0  0  0  0  0  0
  -44.0723   57.5299   66.5509 C   0  0  0  0  0  0  0  0  0  0  0  0
  -45.2560   57.1931   65.6660 C   0  0  0  0  0  0  0  0  0  0  0  0
  -46.5526   57.1393   66.4247 C   0  0  0  0  0  0  0  0  0  0  0  0
 21 22  1  0  0  0
  4  5  2  0  0  0
 25 24  1  0  0  0
 25 26  2  0  0  0
 25 27  1  0  0  0
 25 29  1  0  0  0
 22 20  1  0  0  0
  3  5  1  0  0  0
  3  2  1  0  0  0
 20 19  1  0  0  0
 24 23  1  0  0  0
 19 18  1  0  0  0
 18 17  1  0  0  0
 27 28  1  0  0  0
 17 16  1  0  0  0
 29 30  1  0  0  0
 16 15  1  0  0  0
 34 35  1  0  0  0
 34 36  1  0  0  0
 15 14  1  0  0  0
 31 32  1  0  0  0
 31 33  1  0  0  0
 14 13  1  0  0  0
 37  1  1  0  0  0
 37 39  1  0  0  0
 13 12  1  0  0  0
 38 39  2  0  0  0
 12 11  1  0  0  0
 11 10  1  0  0  0
 10  9  1  0  0  0
  9  8  1  0  0  0
  8  7  1  0  0  0
  7  6  1  0  0  0
  6  5  1  0  0  0
  2  1  1  0  0  0
  1 23  1  0  0  0
 30 32  1  0  0  0
 32 35  1  0  0  0
 39 40  1  0  0  0
 40 41  1  0  0  0
 41 42  1  0  0  0
 42 43  1  0  0  0
 43 44  1  0  0  0
 44 45  1  0  0  0
 45 46  1  0  0  0
 46 47  1  0  0  0
 47 48  2  0  0  0
 48 49  1  0  0  0
 49 50  1  0  0  0
 50 51  1  0  0  0
 51 52  1  0  0  0
 52 53  1  0  0  0
 53 54  1  0  0  0
 54 55  1  0  0  0
 55 56  1  0  0  0
M  CHG 1  26  -1
M  END
> <minimizedAffinity>
-8.35013

> <CNNscore>
0.2741463482

> <CNNaffinity>
7.5058641434

> <CNN_VS>
2.0577051640

> <CNNaffinity_variance>
0.8386584520

$$$$
/media/chris/experiments/cd1a-new-docking/inputs/ligands/7sh4_ligand.pdb


 56 55  0  0  0  0  0  0  0  0999 V2000
  -39.2545   59.8299   62.9418 C   0  0  0  0  0  0  0  0  0  0  0  0
  -40.6631   59.6060   62.4694 C   0  0  0  0  0  0  0  0  0  0  0  0
  -41.2119   58.6823   63.4331 O   0  0  0  0  0  0  0  0  0  0  0  0
  -41.0447   58.8724   65.6546 O   0  0  0  0  0  0  0  0  0  0  0  0
  -41.5649   59.1833   64.6172 C   0  0  0  0  0  0  0  0  0  0  0  0
  -42.5963   60.2638   64.4634 C   0  0  0  0  0  0  0  0  0  0  0  0
  -44.0020   59.7478   64.2064 C   0  0  0  0  0  0  0  0  0  0  0  0
  -45.0711   60.7650   64.5451 C   0  0  0  0  0  0  0  0  0  0  0  0
  -46.2817   60.1833   65.2394 C   0  0  0  0  0  0  0  0  0  0  0  0
  -46.9594   59.0922   64.4356 C   0  0  0  0  0  0  0  0  0  0  0  0
  -48.1505   58.4888   65.1389 C   0  0  0  0  0  0  0  0  0  0  0  0
  -48.9684   59.5064   65.8892 C   0  0  0  0  0  0  0  0  0  0  0  0
  -50.4333   59.4956   65.5121 C   0  0  0  0  0  0  0  0  0  0  0  0
  -50.7991   60.6104   64.5532 C   0  0  0  0  0  0  0  0  0  0  0  0
  -51.5644   60.1480   63.3310 C   0  0  0  0  0  0  0  0  0  0  0  0
  -51.1395   58.7757   62.8209 C   0  0  0  0  0  0  0  0  0  0  0  0
  -50.0065   58.8163   61.8136 C   0  0  0  0  0  0  0  0  0  0  0  0
  -50.2620   57.9669   60.5855 C   0  0  0  0  0  0  0  0  0  0  0  0
  -49.5778   58.4885   59.3296 C   0  0  0  0  0  0  0  0  0  0  0  0
  -48.1808   57.9310   59.1223 C   0  0  0  0  0  0  0  0  0  0  0  0
  -46.8859   58.2910   56.9941 C   0  0  0  0  0  0  0  0  0  0  0  0
  -47.8983   57.4324   57.7179 C   0  0  0  0  0  0  0  0  0  0  0  0
  -38.9093   61.2951   63.0191 C   0  0  0  0  0  0  0  0  0  0  0  0
  -37.5032   61.4577   62.7278 O   0  0  0  0  0  0  0  0  0  0  0  0
  -36.5727   62.5055   63.5013 P   0  0  0  0  0  0  0  0  0  0  0  0
  -35.1786   62.0172   63.4331 O   0  0  0  0  0  0  0  0  0  0  0  0
  -36.8784   63.8620   62.9863 O   0  0  0  0  0  0  0  0  0  0  0  0
  -36.6019   63.9257   62.0587 H   0  0  0  0  0  0  0  0  0  0  0  0
  -37.0412   62.4426   65.0242 O   0  0  0  0  0  0  0  0  0  0  0  0
  -36.0625   62.3101   66.0753 C   0  0  0  0  0  0  0  0  0  0  0  0
  -36.2635   63.8614   67.8905 O   0  0  0  0  0  0  0  0  0  0  0  0
  -35.7165   63.6895   66.5799 C   0  0  0  0  0  0  0  0  0  0  0  0
  -37.2197   63.7000   67.8655 H   0  0  0  0  0  0  0  0  0  0  0  0
  -33.6449   63.4013   67.7815 O   0  0  0  0  0  0  0  0  0  0  0  0
  -34.2271   63.9372   66.6002 C   0  0  0  0  0  0  0  0  0  0  0  0
  -32.6897   63.5699   67.7764 H   0  0  0  0  0  0  0  0  0  0  0  0
  -38.3468   59.1062   62.0461 O   0  0  0  0  0  0  0  0  0  0  0  0
  -38.2195   56.8633   61.9307 O   0  0  0  0  0  0  0  0  0  0  0  0
  -37.9166   57.8984   62.4586 C   0  0  0  0  0  0  0  0  0  0  0  0
  -37.0029   58.0023   63.6402 C   0  0  0  0  0  0  0  0  0  0  0  0
  -35.5580   58.2354   63.2107 C   0  0  0  0  0  0  0  0  0  0  0  0
  -34.6265   58.6024   64.3543 C   0  0  0  0  0  0  0  0  0  0  0  0
  -33.1722   58.7658   63.9276 C   0  0  0  0  0  0  0  0  0  0  0  0
  -32.9882   58.9970   62.4392 C   0  0  0  0  0  0  0  0  0  0  0  0
  -32.0755   60.1747   62.0858 C   0  0  0  0  0  0  0  0  0  0  0  0
  -30.7134   60.1754   62.7831 C   0  0  0  0  0  0  0  0  0  0  0  0
  -29.5826   60.3479   61.8137 C   0  0  0  0  0  0  0  0  0  0  0  0
  -28.6685   61.2984   61.8311 C   0  0  0  0  0  0  0  0  0  0  0  0
  -28.5684   62.4084   62.8293 C   0  0  0  0  0  0  0  0  0  0  0  0
  -28.8544   63.7742   62.2119 C   0  0  0  0  0  0  0  0  0  0  0  0
  -30.0825   63.7942   61.3188 C   0  0  0  0  0  0  0  0  0  0  0  0
  -31.3672   64.1306   62.0560 C   0  0  0  0  0  0  0  0  0  0  0  0
  -32.6255   63.5649   61.4187 C   0  0  0  0  0  0  0  0  0  0  0  0
  -33.7355   64.5918   61.2543 C   0  0  0  0  0  0  0  0  0  0  0  0
  -33.8140   65.6078   62.3764 C   0  0  0  0  0  0  0  0  0  0  0  0
  -34.8412   66.6757   62.1232 C   0  0  0  0  0  0  0  0  0  0  0  0
 21 22  1  0  0  0
  4  5  2  0  0  0
 25 24  1  0  0  0
 25 26  2  0  0  0
 25 27  1  0  0  0
 25 29  1  0  0  0
 22 20  1  0  0  0
  3  5  1  0  0  0
  3  2  1  0  0  0
 20 19  1  0  0  0
 24 23  1  0  0  0
 19 18  1  0  0  0
 18 17  1  0  0  0
 27 28  1  0  0  0
 17 16  1  0  0  0
 29 30  1  0  0  0
 16 15  1  0  0  0
 34 35  1  0  0  0
 34 36  1  0  0  0
 15 14  1  0  0  0
 31 32  1  0  0  0
 31 33  1  0  0  0
 14 13  1  0  0  0
 37  1  1  0  0  0
 37 39  1  0  0  0
 13 12  1  0  0  0
 38 39  2  0  0  0
 12 11  1  0  0  0
 11 10  1  0  0  0
 10  9  1  0  0  0
  9  8  1  0  0  0
  8  7  1  0  0  0
  7  6  1  0  0  0
  6  5  1  0  0  0
  2  1  1  0  0  0
  1 23  1  0  0  0
 30 32  1  0  0  0
 32 35  1  0  0  0
 39 40  1  0  0  0
 40 41  1  0  0  0
 41 42  1  0  0  0
 42 43  1  0  0  0
 43 44  1  0  0  0
 44 45  1  0  0  0
 45 46  1  0  0  0
 46 47  1  0  0  0
 47 48  2  0  0  0
 48 49  1  0  0  0
 49 50  1  0  0  0
 50 51  1  0  0  0
 51 52  1  0  0  0
 52 53  1  0  0  0
 53 54  1  0  0  0
 54 55  1  0  0  0
 55 56  1  0  0  0
M  CHG 1  26  -1
M  END
> <minimizedAffinity>
-8.43852

> <CNNscore>
0.2155919522

> <CNNaffinity>
6.3469948769

> <CNN_VS>
1.3683609962

> <CNNaffinity_variance>
0.5012024045

$$$$
/media/chris/experiments/cd1a-new-docking/inputs/ligands/7sh4_ligand.pdb


 56 55  0  0  0  0  0  0  0  0999 V2000
  -38.5429   60.5241   62.5637 C   0  0  0  0  0  0  0  0  0  0  0  0
  -40.0237   60.5724   62.3134 C   0  0  0  0  0  0  0  0  0  0  0  0
  -40.5786   59.7179   63.3356 O   0  0  0  0  0  0  0  0  0  0  0  0
  -41.3151   60.4086   65.3305 O   0  0  0  0  0  0  0  0  0  0  0  0
  -41.4842   60.2601   64.1503 C   0  0  0  0  0  0  0  0  0  0  0  0
  -42.6709   60.7665   63.3821 C   0  0  0  0  0  0  0  0  0  0  0  0
  -43.9905   60.1341   63.7909 C   0  0  0  0  0  0  0  0  0  0  0  0
  -44.7657   60.9811   64.7779 C   0  0  0  0  0  0  0  0  0  0  0  0
  -45.9717   60.2905   65.3734 C   0  0  0  0  0  0  0  0  0  0  0  0
  -46.5172   59.1847   64.4927 C   0  0  0  0  0  0  0  0  0  0  0  0
  -47.8724   58.6882   64.9334 C   0  0  0  0  0  0  0  0  0  0  0  0
  -48.8050   59.8005   65.3337 C   0  0  0  0  0  0  0  0  0  0  0  0
  -50.2635   59.4002   65.3068 C   0  0  0  0  0  0  0  0  0  0  0  0
  -51.1116   60.3347   64.4679 C   0  0  0  0  0  0  0  0  0  0  0  0
  -51.1513   59.9797   62.9963 C   0  0  0  0  0  0  0  0  0  0  0  0
  -50.9258   58.4987   62.7136 C   0  0  0  0  0  0  0  0  0  0  0  0
  -49.7774   58.2208   61.7627 C   0  0  0  0  0  0  0  0  0  0  0  0
  -49.5151   59.3513   60.7889 C   0  0  0  0  0  0  0  0  0  0  0  0
  -48.9272   58.8901   59.4625 C   0  0  0  0  0  0  0  0  0  0  0  0
  -48.3000   57.5087   59.5234 C   0  0  0  0  0  0  0  0  0  0  0  0
  -47.5619   57.6899   57.1237 C   0  0  0  0  0  0  0  0  0  0  0  0
  -47.1804   57.2755   58.5269 C   0  0  0  0  0  0  0  0  0  0  0  0
  -38.0146   61.8342   63.0893 C   0  0  0  0  0  0  0  0  0  0  0  0
  -36.5711   61.7739   63.1226 O   0  0  0  0  0  0  0  0  0  0  0  0
  -35.6560   63.0534   63.4183 P   0  0  0  0  0  0  0  0  0  0  0  0
  -34.6196   63.1280   62.3662 O   0  0  0  0  0  0  0  0  0  0  0  0
  -36.5473   64.2204   63.6244 O   0  0  0  0  0  0  0  0  0  0  0  0
  -37.0024   64.4303   62.7939 H   0  0  0  0  0  0  0  0  0  0  0  0
  -34.9288   62.7418   64.8027 O   0  0  0  0  0  0  0  0  0  0  0  0
  -35.7052   62.3506   65.9535 C   0  0  0  0  0  0  0  0  0  0  0  0
  -36.0695   63.0166   68.2264 O   0  0  0  0  0  0  0  0  0  0  0  0
  -35.7306   63.5049   66.9251 C   0  0  0  0  0  0  0  0  0  0  0  0
  -36.9151   62.5432   68.1840 H   0  0  0  0  0  0  0  0  0  0  0  0
  -33.3934   63.4193   67.5152 O   0  0  0  0  0  0  0  0  0  0  0  0
  -34.4155   64.2453   66.9725 C   0  0  0  0  0  0  0  0  0  0  0  0
  -32.5577   63.9114   67.5374 H   0  0  0  0  0  0  0  0  0  0  0  0
  -37.8767   60.1322   61.3177 O   0  0  0  0  0  0  0  0  0  0  0  0
  -38.4584   58.6233   59.7541 O   0  0  0  0  0  0  0  0  0  0  0  0
  -38.1031   58.8817   60.8715 C   0  0  0  0  0  0  0  0  0  0  0  0
  -37.8418   57.8537   61.9283 C   0  0  0  0  0  0  0  0  0  0  0  0
  -36.3906   57.8900   62.3966 C   0  0  0  0  0  0  0  0  0  0  0  0
  -36.2319   57.9743   63.9059 C   0  0  0  0  0  0  0  0  0  0  0  0
  -34.9444   58.6615   64.3461 C   0  0  0  0  0  0  0  0  0  0  0  0
  -34.1058   59.1939   63.1989 C   0  0  0  0  0  0  0  0  0  0  0  0
  -32.8962   60.0289   63.6283 C   0  0  0  0  0  0  0  0  0  0  0  0
  -31.5672   59.6304   62.9829 C   0  0  0  0  0  0  0  0  0  0  0  0
  -31.3364   60.3384   61.6816 C   0  0  0  0  0  0  0  0  0  0  0  0
  -30.2128   60.8995   61.2789 C   0  0  0  0  0  0  0  0  0  0  0  0
  -28.9263   60.9449   62.0412 C   0  0  0  0  0  0  0  0  0  0  0  0
  -28.5968   62.3473   62.5444 C   0  0  0  0  0  0  0  0  0  0  0  0
  -29.1758   63.4557   61.6827 C   0  0  0  0  0  0  0  0  0  0  0  0
  -30.1374   64.3667   62.4260 C   0  0  0  0  0  0  0  0  0  0  0  0
  -31.0686   63.6483   63.3885 C   0  0  0  0  0  0  0  0  0  0  0  0
  -31.6818   64.5652   64.4358 C   0  0  0  0  0  0  0  0  0  0  0  0
  -30.7750   64.8563   65.6151 C   0  0  0  0  0  0  0  0  0  0  0  0
  -30.3811   66.3044   65.7022 C   0  0  0  0  0  0  0  0  0  0  0  0
 21 22  1  0  0  0
  4  5  2  0  0  0
 25 24  1  0  0  0
 25 26  2  0  0  0
 25 27  1  0  0  0
 25 29  1  0  0  0
 22 20  1  0  0  0
  3  5  1  0  0  0
  3  2  1  0  0  0
 20 19  1  0  0  0
 24 23  1  0  0  0
 19 18  1  0  0  0
 18 17  1  0  0  0
 27 28  1  0  0  0
 17 16  1  0  0  0
 29 30  1  0  0  0
 16 15  1  0  0  0
 34 35  1  0  0  0
 34 36  1  0  0  0
 15 14  1  0  0  0
 31 32  1  0  0  0
 31 33  1  0  0  0
 14 13  1  0  0  0
 37  1  1  0  0  0
 37 39  1  0  0  0
 13 12  1  0  0  0
 38 39  2  0  0  0
 12 11  1  0  0  0
 11 10  1  0  0  0
 10  9  1  0  0  0
  9  8  1  0  0  0
  8  7  1  0  0  0
  7  6  1  0  0  0
  6  5  1  0  0  0
  2  1  1  0  0  0
  1 23  1  0  0  0
 30 32  1  0  0  0
 32 35  1  0  0  0
 39 40  1  0  0  0
 40 41  1  0  0  0
 41 42  1  0  0  0
 42 43  1  0  0  0
 43 44  1  0  0  0
 44 45  1  0  0  0
 45 46  1  0  0  0
 46 47  1  0  0  0
 47 48  2  0  0  0
 48 49  1  0  0  0
 49 50  1  0  0  0
 50 51  1  0  0  0
 51 52  1  0  0  0
 52 53  1  0  0  0
 53 54  1  0  0  0
 54 55  1  0  0  0
 55 56  1  0  0  0
M  CHG 1  26  -1
M  END
> <minimizedAffinity>
-8.39070

> <CNNscore>
0.2026418447

> <CNNaffinity>
6.3926854134

> <CNN_VS>
1.2954255342

> <CNNaffinity_variance>
0.4125965238

$$$$
