/media/chris/experiments/cd1a-new-docking/inputs/ligands/7sh4_ligand.pdb


 56 55  0  0  0  0  0  0  0  0999 V2000
  -39.6265   59.5650   65.3699 C   0  0  0  0  0  0  0  0  0  0  0  0
  -40.3966   60.5883   66.1557 C   0  0  0  0  0  0  0  0  0  0  0  0
  -41.7090   60.0046   66.2973 O   0  0  0  0  0  0  0  0  0  0  0  0
  -42.6869   61.9496   65.7877 O   0  0  0  0  0  0  0  0  0  0  0  0
  -42.7477   60.7590   65.9369 C   0  0  0  0  0  0  0  0  0  0  0  0
  -43.9495   59.9143   65.6253 C   0  0  0  0  0  0  0  0  0  0  0  0
  -43.7548   58.4328   65.9000 C   0  0  0  0  0  0  0  0  0  0  0  0
  -45.0347   57.6367   65.7560 C   0  0  0  0  0  0  0  0  0  0  0  0
  -46.2668   58.3469   66.2691 C   0  0  0  0  0  0  0  0  0  0  0  0
  -47.3075   58.5819   65.1932 C   0  0  0  0  0  0  0  0  0  0  0  0
  -48.0245   59.9018   65.3384 C   0  0  0  0  0  0  0  0  0  0  0  0
  -49.2538   59.8117   66.2035 C   0  0  0  0  0  0  0  0  0  0  0  0
  -50.5131   59.4982   65.4263 C   0  0  0  0  0  0  0  0  0  0  0  0
  -50.8600   60.5728   64.4158 C   0  0  0  0  0  0  0  0  0  0  0  0
  -51.1775   60.0418   63.0336 C   0  0  0  0  0  0  0  0  0  0  0  0
  -50.7472   58.5957   62.8153 C   0  0  0  0  0  0  0  0  0  0  0  0
  -49.7782   58.4084   61.6637 C   0  0  0  0  0  0  0  0  0  0  0  0
  -50.3054   57.4953   60.5758 C   0  0  0  0  0  0  0  0  0  0  0  0
  -49.8228   57.8664   59.1806 C   0  0  0  0  0  0  0  0  0  0  0  0
  -48.4176   58.4407   59.1563 C   0  0  0  0  0  0  0  0  0  0  0  0
  -47.4653   57.9524   56.8780 C   0  0  0  0  0  0  0  0  0  0  0  0
  -47.4151   57.6322   58.3548 C   0  0  0  0  0  0  0  0  0  0  0  0
  -38.1437   59.8348   65.3890 C   0  0  0  0  0  0  0  0  0  0  0  0
  -37.8208   60.7349   64.3056 O   0  0  0  0  0  0  0  0  0  0  0  0
  -36.7932   61.9516   64.4658 P   0  0  0  0  0  0  0  0  0  0  0  0
  -36.4235   62.4199   63.1128 O   0  0  0  0  0  0  0  0  0  0  0  0
  -37.3751   62.9243   65.4219 O   0  0  0  0  0  0  0  0  0  0  0  0
  -38.1698   63.3231   65.0341 H   0  0  0  0  0  0  0  0  0  0  0  0
  -35.4929   61.3204   65.1394 O   0  0  0  0  0  0  0  0  0  0  0  0
  -34.2204   61.9879   65.0162 C   0  0  0  0  0  0  0  0  0  0  0  0
  -33.6356   62.8629   67.1691 O   0  0  0  0  0  0  0  0  0  0  0  0
  -34.2309   63.2014   65.9130 C   0  0  0  0  0  0  0  0  0  0  0  0
  -34.1043   62.1065   67.5556 H   0  0  0  0  0  0  0  0  0  0  0  0
  -32.1075   64.1644   65.2950 O   0  0  0  0  0  0  0  0  0  0  0  0
  -33.5131   64.3780   65.2965 C   0  0  0  0  0  0  0  0  0  0  0  0
  -31.6645   64.9295   64.8959 H   0  0  0  0  0  0  0  0  0  0  0  0
  -40.1548   59.5398   64.0024 O   0  0  0  0  0  0  0  0  0  0  0  0
  -40.5326   57.3226   64.0452 O   0  0  0  0  0  0  0  0  0  0  0  0
  -40.7819   58.4139   63.6108 C   0  0  0  0  0  0  0  0  0  0  0  0
  -41.8372   58.6881   62.5847 C   0  0  0  0  0  0  0  0  0  0  0  0
  -41.6176   57.8607   61.3222 C   0  0  0  0  0  0  0  0  0  0  0  0
  -41.2306   58.6845   60.1049 C   0  0  0  0  0  0  0  0  0  0  0  0
  -40.2783   57.9631   59.1581 C   0  0  0  0  0  0  0  0  0  0  0  0
  -38.8617   58.5065   59.1755 C   0  0  0  0  0  0  0  0  0  0  0  0
  -38.6643   59.7413   60.0593 C   0  0  0  0  0  0  0  0  0  0  0  0
  -37.8095   59.5184   61.3087 C   0  0  0  0  0  0  0  0  0  0  0  0
  -37.8137   58.0847   61.7476 C   0  0  0  0  0  0  0  0  0  0  0  0
  -36.9495   57.5072   62.5594 C   0  0  0  0  0  0  0  0  0  0  0  0
  -35.7787   58.1673   63.2167 C   0  0  0  0  0  0  0  0  0  0  0  0
  -34.4449   57.6477   62.6880 C   0  0  0  0  0  0  0  0  0  0  0  0
  -33.4711   58.7481   62.3043 C   0  0  0  0  0  0  0  0  0  0  0  0
  -32.3885   58.9933   63.3412 C   0  0  0  0  0  0  0  0  0  0  0  0
  -31.1971   59.7873   62.8318 C   0  0  0  0  0  0  0  0  0  0  0  0
  -31.5689   60.8444   61.8032 C   0  0  0  0  0  0  0  0  0  0  0  0
  -31.5046   62.2672   62.3222 C   0  0  0  0  0  0  0  0  0  0  0  0
  -32.4957   63.1764   61.6508 C   0  0  0  0  0  0  0  0  0  0  0  0
 21 22  1  0  0  0
  4  5  2  0  0  0
 25 24  1  0  0  0
 25 26  2  0  0  0
 25 27  1  0  0  0
 25 29  1  0  0  0
 22 20  1  0  0  0
  3  5  1  0  0  0
  3  2  1  0  0  0
 20 19  1  0  0  0
 24 23  1  0  0  0
 19 18  1  0  0  0
 18 17  1  0  0  0
 27 28  1  0  0  0
 17 16  1  0  0  0
 29 30  1  0  0  0
 16 15  1  0  0  0
 34 35  1  0  0  0
 34 36  1  0  0  0
 15 14  1  0  0  0
 31 32  1  0  0  0
 31 33  1  0  0  0
 14 13  1  0  0  0
 37  1  1  0  0  0
 37 39  1  0  0  0
 13 12  1  0  0  0
 38 39  2  0  0  0
 12 11  1  0  0  0
 11 10  1  0  0  0
 10  9  1  0  0  0
  9  8  1  0  0  0
  8  7  1  0  0  0
  7  6  1  0  0  0
  6  5  1  0  0  0
  2  1  1  0  0  0
  1 23  1  0  0  0
 30 32  1  0  0  0
 32 35  1  0  0  0
 39 40  1  0  0  0
 40 41  1  0  0  0
 41 42  1  0  0  0
 42 43  1  0  0  0
 43 44  1  0  0  0
 44 45  1  0  0  0
 45 46  1  0  0  0
 46 47  1  0  0  0
 47 48  2  0  0  0
 48 49  1  0  0  0
 49 50  1  0  0  0
 50 51  1  0  0  0
 51 52  1  0  0  0
 52 53  1  0  0  0
 53 54  1  0  0  0
 54 55  1  0  0  0
 55 56  1  0  0  0
M  CHG 1  26  -1
M  END
> <minimizedAffinity>
-8.27316

> <CNNscore>
0.6188344359

> <CNNaffinity>
7.5088319778

> <CNN_VS>
4.6467237473

> <CNNaffinity_variance>
1.0573734045

$$$$
/media/chris/experiments/cd1a-new-docking/inputs/ligands/7sh4_ligand.pdb


 56 55  0  0  0  0  0  0  0  0999 V2000
  -39.0842   60.5173   64.7330 C   0  0  0  0  0  0  0  0  0  0  0  0
  -39.9904   60.4168   65.9273 C   0  0  0  0  0  0  0  0  0  0  0  0
  -40.7255   59.1946   65.7061 O   0  0  0  0  0  0  0  0  0  0  0  0
  -42.6033   60.1739   66.4229 O   0  0  0  0  0  0  0  0  0  0  0  0
  -42.0187   59.2002   66.0310 C   0  0  0  0  0  0  0  0  0  0  0  0
  -42.6609   57.8780   65.7240 C   0  0  0  0  0  0  0  0  0  0  0  0
  -44.0728   57.7332   66.2660 C   0  0  0  0  0  0  0  0  0  0  0  0
  -45.1287   58.1871   65.2801 C   0  0  0  0  0  0  0  0  0  0  0  0
  -45.9937   59.3226   65.7782 C   0  0  0  0  0  0  0  0  0  0  0  0
  -46.4540   60.2480   64.6703 C   0  0  0  0  0  0  0  0  0  0  0  0
  -47.9436   60.4898   64.6787 C   0  0  0  0  0  0  0  0  0  0  0  0
  -48.6479   59.7840   65.8073 C   0  0  0  0  0  0  0  0  0  0  0  0
  -50.0628   59.3710   65.4671 C   0  0  0  0  0  0  0  0  0  0  0  0
  -50.6908   60.2525   64.4066 C   0  0  0  0  0  0  0  0  0  0  0  0
  -51.1775   59.4996   63.1861 C   0  0  0  0  0  0  0  0  0  0  0  0
  -50.3489   58.2638   62.8537 C   0  0  0  0  0  0  0  0  0  0  0  0
  -50.3038   57.9319   61.3745 C   0  0  0  0  0  0  0  0  0  0  0  0
  -49.6442   59.0078   60.5361 C   0  0  0  0  0  0  0  0  0  0  0  0
  -49.2441   58.5375   59.1446 C   0  0  0  0  0  0  0  0  0  0  0  0
  -48.0276   57.6291   59.1365 C   0  0  0  0  0  0  0  0  0  0  0  0
  -47.2048   56.1890   57.2431 C   0  0  0  0  0  0  0  0  0  0  0  0
  -47.2771   57.5850   57.8190 C   0  0  0  0  0  0  0  0  0  0  0  0
  -37.6768   60.8927   65.1201 C   0  0  0  0  0  0  0  0  0  0  0  0
  -37.6897   62.2206   65.6903 O   0  0  0  0  0  0  0  0  0  0  0  0
  -36.4945   63.2649   65.4839 P   0  0  0  0  0  0  0  0  0  0  0  0
  -36.4699   63.6567   64.0583 O   0  0  0  0  0  0  0  0  0  0  0  0
  -36.6255   64.3254   66.5119 O   0  0  0  0  0  0  0  0  0  0  0  0
  -37.4318   64.8386   66.3461 H   0  0  0  0  0  0  0  0  0  0  0  0
  -35.1608   62.4466   65.7913 O   0  0  0  0  0  0  0  0  0  0  0  0
  -34.1970   62.9645   66.7309 C   0  0  0  0  0  0  0  0  0  0  0  0
  -33.3695   63.5768   64.5669 O   0  0  0  0  0  0  0  0  0  0  0  0
  -33.1841   63.7845   65.9702 C   0  0  0  0  0  0  0  0  0  0  0  0
  -33.3093   62.6289   64.3697 H   0  0  0  0  0  0  0  0  0  0  0  0
  -33.3240   65.4577   67.7021 O   0  0  0  0  0  0  0  0  0  0  0  0
  -33.2747   65.2561   66.2955 C   0  0  0  0  0  0  0  0  0  0  0  0
  -33.3819   66.4074   67.8909 H   0  0  0  0  0  0  0  0  0  0  0  0
  -39.6636   61.4830   63.7940 O   0  0  0  0  0  0  0  0  0  0  0  0
  -41.5103   60.7037   62.7730 O   0  0  0  0  0  0  0  0  0  0  0  0
  -40.3426   60.9820   62.7442 C   0  0  0  0  0  0  0  0  0  0  0  0
  -39.4732   60.8315   61.5346 C   0  0  0  0  0  0  0  0  0  0  0  0
  -40.2640   60.3088   60.3395 C   0  0  0  0  0  0  0  0  0  0  0  0
  -39.4896   59.3353   59.4662 C   0  0  0  0  0  0  0  0  0  0  0  0
  -40.2516   58.0507   59.1613 C   0  0  0  0  0  0  0  0  0  0  0  0
  -41.2945   57.6900   60.2027 C   0  0  0  0  0  0  0  0  0  0  0  0
  -41.3393   56.2043   60.5708 C   0  0  0  0  0  0  0  0  0  0  0  0
  -40.8874   55.8719   61.9945 C   0  0  0  0  0  0  0  0  0  0  0  0
  -40.5049   57.0988   62.7667 C   0  0  0  0  0  0  0  0  0  0  0  0
  -39.3060   57.6442   62.8352 C   0  0  0  0  0  0  0  0  0  0  0  0
  -38.0709   57.1495   62.1509 C   0  0  0  0  0  0  0  0  0  0  0  0
  -36.9489   58.1836   62.1554 C   0  0  0  0  0  0  0  0  0  0  0  0
  -35.6449   57.6657   62.7365 C   0  0  0  0  0  0  0  0  0  0  0  0
  -35.5451   57.8201   64.2443 C   0  0  0  0  0  0  0  0  0  0  0  0
  -34.5785   58.8989   64.7041 C   0  0  0  0  0  0  0  0  0  0  0  0
  -33.2411   58.8621   63.9804 C   0  0  0  0  0  0  0  0  0  0  0  0
  -32.9065   60.1340   63.2266 C   0  0  0  0  0  0  0  0  0  0  0  0
  -31.7769   59.9519   62.2517 C   0  0  0  0  0  0  0  0  0  0  0  0
 21 22  1  0  0  0
  4  5  2  0  0  0
 25 24  1  0  0  0
 25 26  2  0  0  0
 25 27  1  0  0  0
 25 29  1  0  0  0
 22 20  1  0  0  0
  3  5  1  0  0  0
  3  2  1  0  0  0
 20 19  1  0  0  0
 24 23  1  0  0  0
 19 18  1  0  0  0
 18 17  1  0  0  0
 27 28  1  0  0  0
 17 16  1  0  0  0
 29 30  1  0  0  0
 16 15  1  0  0  0
 34 35  1  0  0  0
 34 36  1  0  0  0
 15 14  1  0  0  0
 31 32  1  0  0  0
 31 33  1  0  0  0
 14 13  1  0  0  0
 37  1  1  0  0  0
 37 39  1  0  0  0
 13 12  1  0  0  0
 38 39  2  0  0  0
 12 11  1  0  0  0
 11 10  1  0  0  0
 10  9  1  0  0  0
  9  8  1  0  0  0
  8  7  1  0  0  0
  7  6  1  0  0  0
  6  5  1  0  0  0
  2  1  1  0  0  0
  1 23  1  0  0  0
 30 32  1  0  0  0
 32 35  1  0  0  0
 39 40  1  0  0  0
 40 41  1  0  0  0
 41 42  1  0  0  0
 42 43  1  0  0  0
 43 44  1  0  0  0
 44 45  1  0  0  0
 45 46  1  0  0  0
 46 47  1  0  0  0
 47 48  2  0  0  0
 48 49  1  0  0  0
 49 50  1  0  0  0
 50 51  1  0  0  0
 51 52  1  0  0  0
 52 53  1  0  0  0
 53 54  1  0  0  0
 54 55  1  0  0  0
 55 56  1  0  0  0
M  CHG 1  26  -1
M  END
> <minimizedAffinity>
-8.60495

> <CNNscore>
0.5043562651

> <CNNaffinity>
7.5651311874

> <CNN_VS>
3.8155212402

> <CNNaffinity_variance>
1.0506920815

$$$$
/media/chris/experiments/cd1a-new-docking/inputs/ligands/7sh4_ligand.pdb


 56 55  0  0  0  0  0  0  0  0999 V2000
  -38.8738   59.6875   64.4875 C   0  0  0  0  0  0  0  0  0  0  0  0
  -39.7776   59.7892   65.6835 C   0  0  0  0  0  0  0  0  0  0  0  0
  -40.6649   60.8803   65.3589 O   0  0  0  0  0  0  0  0  0  0  0  0
  -42.2473   61.8619   66.5965 O   0  0  0  0  0  0  0  0  0  0  0  0
  -41.8410   60.9098   65.9866 C   0  0  0  0  0  0  0  0  0  0  0  0
  -42.6277   59.6580   65.7240 C   0  0  0  0  0  0  0  0  0  0  0  0
  -44.1021   59.8982   65.4475 C   0  0  0  0  0  0  0  0  0  0  0  0
  -44.8749   58.6141   65.2315 C   0  0  0  0  0  0  0  0  0  0  0  0
  -46.1302   58.4989   66.0662 C   0  0  0  0  0  0  0  0  0  0  0  0
  -46.8269   59.8279   66.2766 C   0  0  0  0  0  0  0  0  0  0  0  0
  -48.2180   59.8684   65.6930 C   0  0  0  0  0  0  0  0  0  0  0  0
  -48.6424   58.5544   65.0921 C   0  0  0  0  0  0  0  0  0  0  0  0
  -50.1218   58.4851   64.7841 C   0  0  0  0  0  0  0  0  0  0  0  0
  -50.7172   59.8414   64.4645 C   0  0  0  0  0  0  0  0  0  0  0  0
  -50.9831   60.0677   62.9910 C   0  0  0  0  0  0  0  0  0  0  0  0
  -49.7185   60.2125   62.1518 C   0  0  0  0  0  0  0  0  0  0  0  0
  -49.7586   59.4509   60.8409 C   0  0  0  0  0  0  0  0  0  0  0  0
  -49.1686   58.0586   60.9353 C   0  0  0  0  0  0  0  0  0  0  0  0
  -48.9920   57.3778   59.5852 C   0  0  0  0  0  0  0  0  0  0  0  0
  -47.5424   57.0993   59.2300 C   0  0  0  0  0  0  0  0  0  0  0  0
  -46.9138   58.3501   57.1380 C   0  0  0  0  0  0  0  0  0  0  0  0
  -47.2596   57.0081   57.7424 C   0  0  0  0  0  0  0  0  0  0  0  0
  -39.2321   58.5195   63.6048 C   0  0  0  0  0  0  0  0  0  0  0  0
  -40.3021   58.9171   62.7187 O   0  0  0  0  0  0  0  0  0  0  0  0
  -41.2682   57.8639   61.9980 P   0  0  0  0  0  0  0  0  0  0  0  0
  -40.6657   56.5207   62.1365 O   0  0  0  0  0  0  0  0  0  0  0  0
  -42.6459   58.0820   62.5011 O   0  0  0  0  0  0  0  0  0  0  0  0
  -42.6871   57.8497   63.4419 H   0  0  0  0  0  0  0  0  0  0  0  0
  -41.2430   58.2565   60.4526 O   0  0  0  0  0  0  0  0  0  0  0  0
  -40.2135   57.7293   59.5911 C   0  0  0  0  0  0  0  0  0  0  0  0
  -40.0448   60.1054   59.3303 O   0  0  0  0  0  0  0  0  0  0  0  0
  -39.3432   58.8741   59.1340 C   0  0  0  0  0  0  0  0  0  0  0  0
  -40.8949   60.0710   58.8644 H   0  0  0  0  0  0  0  0  0  0  0  0
  -37.9711   59.9958   60.7704 O   0  0  0  0  0  0  0  0  0  0  0  0
  -38.0162   58.9102   59.8533 C   0  0  0  0  0  0  0  0  0  0  0  0
  -37.1126   60.0023   61.2218 H   0  0  0  0  0  0  0  0  0  0  0  0
  -37.4888   59.6034   64.9615 O   0  0  0  0  0  0  0  0  0  0  0  0
  -36.4563   60.1864   63.0499 O   0  0  0  0  0  0  0  0  0  0  0  0
  -36.5286   59.4882   64.0240 C   0  0  0  0  0  0  0  0  0  0  0  0
  -35.5538   58.3998   64.3510 C   0  0  0  0  0  0  0  0  0  0  0  0
  -35.1670   57.6041   63.1085 C   0  0  0  0  0  0  0  0  0  0  0  0
  -33.9386   58.1396   62.3913 C   0  0  0  0  0  0  0  0  0  0  0  0
  -32.9246   58.7927   63.3236 C   0  0  0  0  0  0  0  0  0  0  0  0
  -32.6074   60.2355   62.9768 C   0  0  0  0  0  0  0  0  0  0  0  0
  -31.4892   60.4114   61.9456 C   0  0  0  0  0  0  0  0  0  0  0  0
  -31.2467   61.8508   61.4865 C   0  0  0  0  0  0  0  0  0  0  0  0
  -31.3867   62.8332   62.6104 C   0  0  0  0  0  0  0  0  0  0  0  0
  -32.0443   63.9761   62.5799 C   0  0  0  0  0  0  0  0  0  0  0  0
  -32.7934   64.5325   61.4104 C   0  0  0  0  0  0  0  0  0  0  0  0
  -34.2525   64.0864   61.3879 C   0  0  0  0  0  0  0  0  0  0  0  0
  -35.2322   65.1873   61.7545 C   0  0  0  0  0  0  0  0  0  0  0  0
  -36.1244   64.8418   62.9343 C   0  0  0  0  0  0  0  0  0  0  0  0
  -35.8020   63.5142   63.5999 C   0  0  0  0  0  0  0  0  0  0  0  0
  -36.4191   63.3640   64.9820 C   0  0  0  0  0  0  0  0  0  0  0  0
  -35.5594   62.5972   65.9672 C   0  0  0  0  0  0  0  0  0  0  0  0
  -34.2125   62.2365   65.4056 C   0  0  0  0  0  0  0  0  0  0  0  0
 21 22  1  0  0  0
  4  5  2  0  0  0
 25 24  1  0  0  0
 25 26  2  0  0  0
 25 27  1  0  0  0
 25 29  1  0  0  0
 22 20  1  0  0  0
  3  5  1  0  0  0
  3  2  1  0  0  0
 20 19  1  0  0  0
 24 23  1  0  0  0
 19 18  1  0  0  0
 18 17  1  0  0  0
 27 28  1  0  0  0
 17 16  1  0  0  0
 29 30  1  0  0  0
 16 15  1  0  0  0
 34 35  1  0  0  0
 34 36  1  0  0  0
 15 14  1  0  0  0
 31 32  1  0  0  0
 31 33  1  0  0  0
 14 13  1  0  0  0
 37  1  1  0  0  0
 37 39  1  0  0  0
 13 12  1  0  0  0
 38 39  2  0  0  0
 12 11  1  0  0  0
 11 10  1  0  0  0
 10  9  1  0  0  0
  9  8  1  0  0  0
  8  7  1  0  0  0
  7  6  1  0  0  0
  6  5  1  0  0  0
  2  1  1  0  0  0
  1 23  1  0  0  0
 30 32  1  0  0  0
 32 35  1  0  0  0
 39 40  1  0  0  0
 40 41  1  0  0  0
 41 42  1  0  0  0
 42 43  1  0  0  0
 43 44  1  0  0  0
 44 45  1  0  0  0
 45 46  1  0  0  0
 46 47  1  0  0  0
 47 48  2  0  0  0
 48 49  1  0  0  0
 49 50  1  0  0  0
 50 51  1  0  0  0
 51 52  1  0  0  0
 52 53  1  0  0  0
 53 54  1  0  0  0
 54 55  1  0  0  0
 55 56  1  0  0  0
M  CHG 1  26  -1
M  END
> <minimizedAffinity>
-7.73672

> <CNNscore>
0.4161715209

> <CNNaffinity>
7.1094765663

> <CNN_VS>
2.9587616920

> <CNNaffinity_variance>
0.7967020273

$$$$
/media/chris/experiments/cd1a-new-docking/inputs/ligands/7sh4_ligand.pdb


 56 55  0  0  0  0  0  0  0  0999 V2000
  -39.6576   60.2933   65.1525 C   0  0  0  0  0  0  0  0  0  0  0  0
  -39.9506   60.5654   63.7042 C   0  0  0  0  0  0  0  0  0  0  0  0
  -41.2327   61.2278   63.7256 O   0  0  0  0  0  0  0  0  0  0  0  0
  -42.7915   62.0228   62.3337 O   0  0  0  0  0  0  0  0  0  0  0  0
  -41.9357   61.2201   62.5927 C   0  0  0  0  0  0  0  0  0  0  0  0
  -41.4320   60.1666   61.6487 C   0  0  0  0  0  0  0  0  0  0  0  0
  -42.1568   58.8360   61.7598 C   0  0  0  0  0  0  0  0  0  0  0  0
  -41.7795   57.8690   60.6575 C   0  0  0  0  0  0  0  0  0  0  0  0
  -41.1260   58.5199   59.4596 C   0  0  0  0  0  0  0  0  0  0  0  0
  -39.7369   57.9845   59.1776 C   0  0  0  0  0  0  0  0  0  0  0  0
  -38.6498   59.0077   59.3988 C   0  0  0  0  0  0  0  0  0  0  0  0
  -37.7448   58.6647   60.5525 C   0  0  0  0  0  0  0  0  0  0  0  0
  -38.2633   57.5277   61.4048 C   0  0  0  0  0  0  0  0  0  0  0  0
  -37.8881   57.6730   62.8658 C   0  0  0  0  0  0  0  0  0  0  0  0
  -36.4081   57.8854   63.1054 C   0  0  0  0  0  0  0  0  0  0  0  0
  -35.9880   57.7099   64.5603 C   0  0  0  0  0  0  0  0  0  0  0  0
  -34.4990   57.8755   64.7960 C   0  0  0  0  0  0  0  0  0  0  0  0
  -33.9564   59.2033   64.3084 C   0  0  0  0  0  0  0  0  0  0  0  0
  -32.5792   59.1017   63.6679 C   0  0  0  0  0  0  0  0  0  0  0  0
  -32.5626   59.4833   62.1985 C   0  0  0  0  0  0  0  0  0  0  0  0
  -31.9772   61.8976   62.6044 C   0  0  0  0  0  0  0  0  0  0  0  0
  -31.6347   60.6320   61.8514 C   0  0  0  0  0  0  0  0  0  0  0  0
  -38.3033   60.8118   65.5634 C   0  0  0  0  0  0  0  0  0  0  0  0
  -38.0782   62.0860   64.9199 O   0  0  0  0  0  0  0  0  0  0  0  0
  -36.7653   62.4044   64.0617 P   0  0  0  0  0  0  0  0  0  0  0  0
  -36.7086   61.4446   62.9382 O   0  0  0  0  0  0  0  0  0  0  0  0
  -36.7521   63.8561   63.7597 O   0  0  0  0  0  0  0  0  0  0  0  0
  -37.4904   64.0700   63.1680 H   0  0  0  0  0  0  0  0  0  0  0  0
  -35.5398   62.0951   65.0341 O   0  0  0  0  0  0  0  0  0  0  0  0
  -34.5904   63.1335   65.3509 C   0  0  0  0  0  0  0  0  0  0  0  0
  -33.6793   64.3776   67.1852 O   0  0  0  0  0  0  0  0  0  0  0  0
  -34.5026   63.2559   66.8524 C   0  0  0  0  0  0  0  0  0  0  0  0
  -32.8106   64.2769   66.7655 H   0  0  0  0  0  0  0  0  0  0  0  0
  -36.6679   64.3161   66.7749 O   0  0  0  0  0  0  0  0  0  0  0  0
  -35.8602   63.3962   67.4981 C   0  0  0  0  0  0  0  0  0  0  0  0
  -37.5343   64.3927   67.2043 H   0  0  0  0  0  0  0  0  0  0  0  0
  -39.7786   58.8507   65.3848 O   0  0  0  0  0  0  0  0  0  0  0  0
  -41.2425   57.4104   64.4666 O   0  0  0  0  0  0  0  0  0  0  0  0
  -41.0010   58.3073   65.2276 C   0  0  0  0  0  0  0  0  0  0  0  0
  -42.0162   58.9416   66.1268 C   0  0  0  0  0  0  0  0  0  0  0  0
  -43.3701   59.0724   65.4365 C   0  0  0  0  0  0  0  0  0  0  0  0
  -44.4535   58.1881   66.0319 C   0  0  0  0  0  0  0  0  0  0  0  0
  -45.6202   58.9692   66.6256 C   0  0  0  0  0  0  0  0  0  0  0  0
  -46.2846   59.9227   65.6499 C   0  0  0  0  0  0  0  0  0  0  0  0
  -47.1467   59.2427   64.5826 C   0  0  0  0  0  0  0  0  0  0  0  0
  -48.2745   58.3598   65.1212 C   0  0  0  0  0  0  0  0  0  0  0  0
  -49.4490   59.1660   65.5884 C   0  0  0  0  0  0  0  0  0  0  0  0
  -50.5201   59.4777   64.8847 C   0  0  0  0  0  0  0  0  0  0  0  0
  -50.7881   59.0876   63.4654 C   0  0  0  0  0  0  0  0  0  0  0  0
  -50.3770   60.1737   62.4755 C   0  0  0  0  0  0  0  0  0  0  0  0
  -49.6544   59.6403   61.2509 C   0  0  0  0  0  0  0  0  0  0  0  0
  -48.9790   58.2988   61.4774 C   0  0  0  0  0  0  0  0  0  0  0  0
  -48.4996   57.6130   60.2087 C   0  0  0  0  0  0  0  0  0  0  0  0
  -48.5065   58.5223   58.9892 C   0  0  0  0  0  0  0  0  0  0  0  0
  -48.2742   57.8028   57.6755 C   0  0  0  0  0  0  0  0  0  0  0  0
  -46.9162   58.0797   57.0931 C   0  0  0  0  0  0  0  0  0  0  0  0
 21 22  1  0  0  0
  4  5  2  0  0  0
 25 24  1  0  0  0
 25 26  2  0  0  0
 25 27  1  0  0  0
 25 29  1  0  0  0
 22 20  1  0  0  0
  3  5  1  0  0  0
  3  2  1  0  0  0
 20 19  1  0  0  0
 24 23  1  0  0  0
 19 18  1  0  0  0
 18 17  1  0  0  0
 27 28  1  0  0  0
 17 16  1  0  0  0
 29 30  1  0  0  0
 16 15  1  0  0  0
 34 35  1  0  0  0
 34 36  1  0  0  0
 15 14  1  0  0  0
 31 32  1  0  0  0
 31 33  1  0  0  0
 14 13  1  0  0  0
 37  1  1  0  0  0
 37 39  1  0  0  0
 13 12  1  0  0  0
 38 39  2  0  0  0
 12 11  1  0  0  0
 11 10  1  0  0  0
 10  9  1  0  0  0
  9  8  1  0  0  0
  8  7  1  0  0  0
  7  6  1  0  0  0
  6  5  1  0  0  0
  2  1  1  0  0  0
  1 23  1  0  0  0
 30 32  1  0  0  0
 32 35  1  0  0  0
 39 40  1  0  0  0
 40 41  1  0  0  0
 41 42  1  0  0  0
 42 43  1  0  0  0
 43 44  1  0  0  0
 44 45  1  0  0  0
 45 46  1  0  0  0
 46 47  1  0  0  0
 47 48  2  0  0  0
 48 49  1  0  0  0
 49 50  1  0  0  0
 50 51  1  0  0  0
 51 52  1  0  0  0
 52 53  1  0  0  0
 53 54  1  0  0  0
 54 55  1  0  0  0
 55 56  1  0  0  0
M  CHG 1  26  -1
M  END
> <minimizedAffinity>
-8.34636

> <CNNscore>
0.3958865404

> <CNNaffinity>
7.4132881165

> <CNN_VS>
2.9348208904

> <CNNaffinity_variance>
1.5748460293

$$$$
/media/chris/experiments/cd1a-new-docking/inputs/ligands/7sh4_ligand.pdb


 56 55  0  0  0  0  0  0  0  0999 V2000
  -39.9509   60.3550   64.9756 C   0  0  0  0  0  0  0  0  0  0  0  0
  -40.9406   60.5571   66.0879 C   0  0  0  0  0  0  0  0  0  0  0  0
  -41.7610   59.3704   66.0453 O   0  0  0  0  0  0  0  0  0  0  0  0
  -43.6365   60.5863   66.1040 O   0  0  0  0  0  0  0  0  0  0  0  0
  -43.0727   59.5483   65.8843 C   0  0  0  0  0  0  0  0  0  0  0  0
  -43.7150   58.3327   65.2807 C   0  0  0  0  0  0  0  0  0  0  0  0
  -44.4474   57.4558   66.2821 C   0  0  0  0  0  0  0  0  0  0  0  0
  -45.9466   57.4498   66.0700 C   0  0  0  0  0  0  0  0  0  0  0  0
  -46.5890   58.8159   66.1515 C   0  0  0  0  0  0  0  0  0  0  0  0
  -47.0851   59.3193   64.8112 C   0  0  0  0  0  0  0  0  0  0  0  0
  -48.1358   60.3956   64.9328 C   0  0  0  0  0  0  0  0  0  0  0  0
  -49.1975   60.0693   65.9497 C   0  0  0  0  0  0  0  0  0  0  0  0
  -50.4264   59.4237   65.3486 C   0  0  0  0  0  0  0  0  0  0  0  0
  -51.1777   60.3515   64.4153 C   0  0  0  0  0  0  0  0  0  0  0  0
  -51.1106   59.9483   62.9572 C   0  0  0  0  0  0  0  0  0  0  0  0
  -50.8994   58.4541   62.7403 C   0  0  0  0  0  0  0  0  0  0  0  0
  -49.5123   58.0937   62.2440 C   0  0  0  0  0  0  0  0  0  0  0  0
  -49.1932   58.6683   60.8790 C   0  0  0  0  0  0  0  0  0  0  0  0
  -49.9201   57.9704   59.7379 C   0  0  0  0  0  0  0  0  0  0  0  0
  -49.1026   57.8799   58.4617 C   0  0  0  0  0  0  0  0  0  0  0  0
  -47.1871   56.3489   57.8939 C   0  0  0  0  0  0  0  0  0  0  0  0
  -47.6330   57.5673   58.6700 C   0  0  0  0  0  0  0  0  0  0  0  0
  -38.5284   60.5157   65.4473 C   0  0  0  0  0  0  0  0  0  0  0  0
  -38.1038   61.8730   65.1907 O   0  0  0  0  0  0  0  0  0  0  0  0
  -36.6295   62.3987   65.5254 P   0  0  0  0  0  0  0  0  0  0  0  0
  -36.4919   62.4706   66.9959 O   0  0  0  0  0  0  0  0  0  0  0  0
  -35.6617   61.5777   64.7587 O   0  0  0  0  0  0  0  0  0  0  0  0
  -35.6784   60.6657   65.0888 H   0  0  0  0  0  0  0  0  0  0  0  0
  -36.5715   63.8861   64.9534 O   0  0  0  0  0  0  0  0  0  0  0  0
  -35.5347   64.2616   64.0239 C   0  0  0  0  0  0  0  0  0  0  0  0
  -36.8846   65.8101   62.7899 O   0  0  0  0  0  0  0  0  0  0  0  0
  -36.1771   64.5703   62.6939 C   0  0  0  0  0  0  0  0  0  0  0  0
  -37.5275   65.7602   63.5147 H   0  0  0  0  0  0  0  0  0  0  0  0
  -35.5663   63.7857   60.4962 O   0  0  0  0  0  0  0  0  0  0  0  0
  -35.1711   64.6302   61.5696 C   0  0  0  0  0  0  0  0  0  0  0  0
  -34.9088   63.8376   59.7849 H   0  0  0  0  0  0  0  0  0  0  0  0
  -40.2726   61.2929   63.8955 O   0  0  0  0  0  0  0  0  0  0  0  0
  -42.0787   60.5067   62.8093 O   0  0  0  0  0  0  0  0  0  0  0  0
  -40.9123   60.7913   62.8216 C   0  0  0  0  0  0  0  0  0  0  0  0
  -40.0009   60.6489   61.6422 C   0  0  0  0  0  0  0  0  0  0  0  0
  -40.7812   60.3530   60.3654 C   0  0  0  0  0  0  0  0  0  0  0  0
  -40.3972   59.0424   59.6982 C   0  0  0  0  0  0  0  0  0  0  0  0
  -41.4588   57.9566   59.8311 C   0  0  0  0  0  0  0  0  0  0  0  0
  -41.6155   57.4160   61.2402 C   0  0  0  0  0  0  0  0  0  0  0  0
  -40.5045   56.4594   61.6823 C   0  0  0  0  0  0  0  0  0  0  0  0
  -39.4337   57.0769   62.5843 C   0  0  0  0  0  0  0  0  0  0  0  0
  -38.1860   57.4194   61.8267 C   0  0  0  0  0  0  0  0  0  0  0  0
  -37.0281   57.7861   62.3411 C   0  0  0  0  0  0  0  0  0  0  0  0
  -36.7167   57.9359   63.7968 C   0  0  0  0  0  0  0  0  0  0  0  0
  -35.2188   57.8746   64.0810 C   0  0  0  0  0  0  0  0  0  0  0  0
  -34.3593   57.8997   62.8292 C   0  0  0  0  0  0  0  0  0  0  0  0
  -32.8673   57.9090   63.1139 C   0  0  0  0  0  0  0  0  0  0  0  0
  -32.3305   59.2388   63.6169 C   0  0  0  0  0  0  0  0  0  0  0  0
  -31.2950   59.8622   62.6934 C   0  0  0  0  0  0  0  0  0  0  0  0
  -31.7982   61.0608   61.9138 C   0  0  0  0  0  0  0  0  0  0  0  0
  -32.7565   61.9078   62.7039 C   0  0  0  0  0  0  0  0  0  0  0  0
 21 22  1  0  0  0
  4  5  2  0  0  0
 25 24  1  0  0  0
 25 26  2  0  0  0
 25 27  1  0  0  0
 25 29  1  0  0  0
 22 20  1  0  0  0
  3  5  1  0  0  0
  3  2  1  0  0  0
 20 19  1  0  0  0
 24 23  1  0  0  0
 19 18  1  0  0  0
 18 17  1  0  0  0
 27 28  1  0  0  0
 17 16  1  0  0  0
 29 30  1  0  0  0
 16 15  1  0  0  0
 34 35  1  0  0  0
 34 36  1  0  0  0
 15 14  1  0  0  0
 31 32  1  0  0  0
 31 33  1  0  0  0
 14 13  1  0  0  0
 37  1  1  0  0  0
 37 39  1  0  0  0
 13 12  1  0  0  0
 38 39  2  0  0  0
 12 11  1  0  0  0
 11 10  1  0  0  0
 10  9  1  0  0  0
  9  8  1  0  0  0
  8  7  1  0  0  0
  7  6  1  0  0  0
  6  5  1  0  0  0
  2  1  1  0  0  0
  1 23  1  0  0  0
 30 32  1  0  0  0
 32 35  1  0  0  0
 39 40  1  0  0  0
 40 41  1  0  0  0
 41 42  1  0  0  0
 42 43  1  0  0  0
 43 44  1  0  0  0
 44 45  1  0  0  0
 45 46  1  0  0  0
 46 47  1  0  0  0
 47 48  2  0  0  0
 48 49  1  0  0  0
 49 50  1  0  0  0
 50 51  1  0  0  0
 51 52  1  0  0  0
 52 53  1  0  0  0
 53 54  1  0  0  0
 54 55  1  0  0  0
 55 56  1  0  0  0
M  CHG 1  26  -1
M  END
> <minimizedAffinity>
-8.49389

> <CNNscore>
0.3922458589

> <CNNaffinity>
7.3711700439

> <CNN_VS>
2.8913109303

> <CNNaffinity_variance>
1.2621936798

$$$$
/media/chris/experiments/cd1a-new-docking/inputs/ligands/7sh4_ligand.pdb


 56 55  0  0  0  0  0  0  0  0999 V2000
  -40.2813   60.8990   64.4975 C   0  0  0  0  0  0  0  0  0  0  0  0
  -40.4156   61.2075   63.0331 C   0  0  0  0  0  0  0  0  0  0  0  0
  -39.6272   60.1854   62.3873 O   0  0  0  0  0  0  0  0  0  0  0  0
  -37.7932   61.2553   61.6868 O   0  0  0  0  0  0  0  0  0  0  0  0
  -38.7645   60.5878   61.4535 C   0  0  0  0  0  0  0  0  0  0  0  0
  -39.0991   59.9960   60.1147 C   0  0  0  0  0  0  0  0  0  0  0  0
  -40.5859   59.7875   59.8823 C   0  0  0  0  0  0  0  0  0  0  0  0
  -40.9274   58.3584   59.5164 C   0  0  0  0  0  0  0  0  0  0  0  0
  -41.8317   57.6642   60.5093 C   0  0  0  0  0  0  0  0  0  0  0  0
  -41.5897   56.1705   60.5889 C   0  0  0  0  0  0  0  0  0  0  0  0
  -41.0689   55.7239   61.9330 C   0  0  0  0  0  0  0  0  0  0  0  0
  -40.8744   56.8643   62.8972 C   0  0  0  0  0  0  0  0  0  0  0  0
  -39.4205   57.2035   63.1404 C   0  0  0  0  0  0  0  0  0  0  0  0
  -38.5347   56.8641   61.9587 C   0  0  0  0  0  0  0  0  0  0  0  0
  -37.1624   57.5022   62.0118 C   0  0  0  0  0  0  0  0  0  0  0  0
  -36.7300   57.9179   63.4134 C   0  0  0  0  0  0  0  0  0  0  0  0
  -35.4122   58.6675   63.4546 C   0  0  0  0  0  0  0  0  0  0  0  0
  -34.4616   58.1556   64.5175 C   0  0  0  0  0  0  0  0  0  0  0  0
  -33.1431   58.9144   64.5735 C   0  0  0  0  0  0  0  0  0  0  0  0
  -32.2289   58.6321   63.3947 C   0  0  0  0  0  0  0  0  0  0  0  0
  -32.5659   61.0478   62.7727 C   0  0  0  0  0  0  0  0  0  0  0  0
  -31.6241   59.8653   62.7508 C   0  0  0  0  0  0  0  0  0  0  0  0
  -38.8627   60.5594   64.8768 C   0  0  0  0  0  0  0  0  0  0  0  0
  -38.2843   61.6869   65.5715 O   0  0  0  0  0  0  0  0  0  0  0  0
  -36.9628   62.4337   65.0637 P   0  0  0  0  0  0  0  0  0  0  0  0
  -35.8506   61.4595   65.0821 O   0  0  0  0  0  0  0  0  0  0  0  0
  -37.2834   63.1251   63.7917 O   0  0  0  0  0  0  0  0  0  0  0  0
  -37.4731   62.4670   63.1049 H   0  0  0  0  0  0  0  0  0  0  0  0
  -36.6582   63.5476   66.1635 O   0  0  0  0  0  0  0  0  0  0  0  0
  -35.4553   63.4696   66.9553 C   0  0  0  0  0  0  0  0  0  0  0  0
  -33.7187   65.0104   67.5493 O   0  0  0  0  0  0  0  0  0  0  0  0
  -34.4849   64.5089   66.4501 C   0  0  0  0  0  0  0  0  0  0  0  0
  -34.3174   65.3554   68.2301 H   0  0  0  0  0  0  0  0  0  0  0  0
  -34.2070   63.9938   64.1100 O   0  0  0  0  0  0  0  0  0  0  0  0
  -33.5679   63.9672   65.3799 C   0  0  0  0  0  0  0  0  0  0  0  0
  -33.6033   63.6426   63.4368 H   0  0  0  0  0  0  0  0  0  0  0  0
  -41.2055   59.8092   64.8263 O   0  0  0  0  0  0  0  0  0  0  0  0
  -41.8957   60.8845   66.6777 O   0  0  0  0  0  0  0  0  0  0  0  0
  -42.0300   60.0029   65.8736 C   0  0  0  0  0  0  0  0  0  0  0  0
  -43.1420   59.0008   65.9043 C   0  0  0  0  0  0  0  0  0  0  0  0
  -43.5445   58.5693   64.4977 C   0  0  0  0  0  0  0  0  0  0  0  0
  -44.9927   58.8733   64.1505 C   0  0  0  0  0  0  0  0  0  0  0  0
  -45.5324   60.1268   64.8298 C   0  0  0  0  0  0  0  0  0  0  0  0
  -47.0157   60.0683   65.1439 C   0  0  0  0  0  0  0  0  0  0  0  0
  -47.4993   58.7196   65.6843 C   0  0  0  0  0  0  0  0  0  0  0  0
  -48.7276   58.1383   64.9808 C   0  0  0  0  0  0  0  0  0  0  0  0
  -49.9664   58.9372   65.2551 C   0  0  0  0  0  0  0  0  0  0  0  0
  -50.6998   59.5822   64.3687 C   0  0  0  0  0  0  0  0  0  0  0  0
  -50.4472   59.6497   62.8956 C   0  0  0  0  0  0  0  0  0  0  0  0
  -51.0332   58.4549   62.1490 C   0  0  0  0  0  0  0  0  0  0  0  0
  -49.9863   57.5791   61.4832 C   0  0  0  0  0  0  0  0  0  0  0  0
  -49.9458   57.7193   59.9713 C   0  0  0  0  0  0  0  0  0  0  0  0
  -48.9942   58.7900   59.4636 C   0  0  0  0  0  0  0  0  0  0  0  0
  -47.9581   58.2634   58.4823 C   0  0  0  0  0  0  0  0  0  0  0  0
  -47.7681   56.7601   58.5255 C   0  0  0  0  0  0  0  0  0  0  0  0
  -47.2312   56.2047   57.2359 C   0  0  0  0  0  0  0  0  0  0  0  0
 21 22  1  0  0  0
  4  5  2  0  0  0
 25 24  1  0  0  0
 25 26  2  0  0  0
 25 27  1  0  0  0
 25 29  1  0  0  0
 22 20  1  0  0  0
  3  5  1  0  0  0
  3  2  1  0  0  0
 20 19  1  0  0  0
 24 23  1  0  0  0
 19 18  1  0  0  0
 18 17  1  0  0  0
 27 28  1  0  0  0
 17 16  1  0  0  0
 29 30  1  0  0  0
 16 15  1  0  0  0
 34 35  1  0  0  0
 34 36  1  0  0  0
 15 14  1  0  0  0
 31 32  1  0  0  0
 31 33  1  0  0  0
 14 13  1  0  0  0
 37  1  1  0  0  0
 37 39  1  0  0  0
 13 12  1  0  0  0
 38 39  2  0  0  0
 12 11  1  0  0  0
 11 10  1  0  0  0
 10  9  1  0  0  0
  9  8  1  0  0  0
  8  7  1  0  0  0
  7  6  1  0  0  0
  6  5  1  0  0  0
  2  1  1  0  0  0
  1 23  1  0  0  0
 30 32  1  0  0  0
 32 35  1  0  0  0
 39 40  1  0  0  0
 40 41  1  0  0  0
 41 42  1  0  0  0
 42 43  1  0  0  0
 43 44  1  0  0  0
 44 45  1  0  0  0
 45 46  1  0  0  0
 46 47  1  0  0  0
 47 48  2  0  0  0
 48 49  1  0  0  0
 49 50  1  0  0  0
 50 51  1  0  0  0
 51 52  1  0  0  0
 52 53  1  0  0  0
 53 54  1  0  0  0
 54 55  1  0  0  0
 55 56  1  0  0  0
M  CHG 1  26  -1
M  END
> <minimizedAffinity>
-8.19699

> <CNNscore>
0.2752712071

> <CNNaffinity>
7.3034086227

> <CNN_VS>
2.0104181767

> <CNNaffinity_variance>
0.9694650769

$$$$
/media/chris/experiments/cd1a-new-docking/inputs/ligands/7sh4_ligand.pdb


 56 55  0  0  0  0  0  0  0  0999 V2000
  -41.2638   59.1515   65.0488 C   0  0  0  0  0  0  0  0  0  0  0  0
  -40.1763   60.0316   65.5967 C   0  0  0  0  0  0  0  0  0  0  0  0
  -39.8995   60.9547   64.5222 O   0  0  0  0  0  0  0  0  0  0  0  0
  -38.2056   61.7159   63.2771 O   0  0  0  0  0  0  0  0  0  0  0  0
  -38.6216   61.2734   64.3137 C   0  0  0  0  0  0  0  0  0  0  0  0
  -37.8135   61.1253   65.5706 C   0  0  0  0  0  0  0  0  0  0  0  0
  -36.3177   61.3016   65.3711 C   0  0  0  0  0  0  0  0  0  0  0  0
  -35.7471   62.4402   66.1900 C   0  0  0  0  0  0  0  0  0  0  0  0
  -35.0778   63.5189   65.3689 C   0  0  0  0  0  0  0  0  0  0  0  0
  -35.9892   64.1134   64.3145 C   0  0  0  0  0  0  0  0  0  0  0  0
  -35.4471   63.9728   62.9131 C   0  0  0  0  0  0  0  0  0  0  0  0
  -34.0356   63.4491   62.8779 C   0  0  0  0  0  0  0  0  0  0  0  0
  -33.3087   63.7686   61.5904 C   0  0  0  0  0  0  0  0  0  0  0  0
  -32.0052   63.0086   61.4502 C   0  0  0  0  0  0  0  0  0  0  0  0
  -31.7950   61.9425   62.5050 C   0  0  0  0  0  0  0  0  0  0  0  0
  -31.8014   60.5210   61.9541 C   0  0  0  0  0  0  0  0  0  0  0  0
  -31.8195   59.4459   63.0237 C   0  0  0  0  0  0  0  0  0  0  0  0
  -33.1852   59.2392   63.6463 C   0  0  0  0  0  0  0  0  0  0  0  0
  -34.2476   58.7916   62.6522 C   0  0  0  0  0  0  0  0  0  0  0  0
  -35.0249   57.5679   63.1032 C   0  0  0  0  0  0  0  0  0  0  0  0
  -37.1824   57.7900   64.3808 C   0  0  0  0  0  0  0  0  0  0  0  0
  -35.6759   57.6966   64.4673 C   0  0  0  0  0  0  0  0  0  0  0  0
  -41.9555   59.7769   63.8646 C   0  0  0  0  0  0  0  0  0  0  0  0
  -42.3137   58.7337   62.9309 O   0  0  0  0  0  0  0  0  0  0  0  0
  -41.2371   57.9806   62.0168 P   0  0  0  0  0  0  0  0  0  0  0  0
  -40.7962   56.7657   62.7352 O   0  0  0  0  0  0  0  0  0  0  0  0
  -41.8078   57.8358   60.6559 O   0  0  0  0  0  0  0  0  0  0  0  0
  -42.5681   57.2342   60.6864 H   0  0  0  0  0  0  0  0  0  0  0  0
  -39.9934   58.9744   61.9233 O   0  0  0  0  0  0  0  0  0  0  0  0
  -39.9072   59.9221   60.8397 C   0  0  0  0  0  0  0  0  0  0  0  0
  -37.5709   59.6929   61.3212 O   0  0  0  0  0  0  0  0  0  0  0  0
  -38.5158   59.8562   60.2594 C   0  0  0  0  0  0  0  0  0  0  0  0
  -37.6766   60.4137   61.9618 H   0  0  0  0  0  0  0  0  0  0  0  0
  -39.6375   58.3097   58.7869 O   0  0  0  0  0  0  0  0  0  0  0  0
  -38.3653   58.7416   59.2521 C   0  0  0  0  0  0  0  0  0  0  0  0
  -39.5203   57.5947   58.1419 H   0  0  0  0  0  0  0  0  0  0  0  0
  -42.2065   58.8542   66.1318 O   0  0  0  0  0  0  0  0  0  0  0  0
  -42.5989   56.7264   65.5165 O   0  0  0  0  0  0  0  0  0  0  0  0
  -42.9832   57.7638   65.9831 C   0  0  0  0  0  0  0  0  0  0  0  0
  -44.3747   57.9942   66.4854 C   0  0  0  0  0  0  0  0  0  0  0  0
  -45.3994   57.8899   65.3602 C   0  0  0  0  0  0  0  0  0  0  0  0
  -45.7563   59.2242   64.7260 C   0  0  0  0  0  0  0  0  0  0  0  0
  -47.2218   59.3344   64.3212 C   0  0  0  0  0  0  0  0  0  0  0  0
  -48.0060   60.3615   65.1166 C   0  0  0  0  0  0  0  0  0  0  0  0
  -48.9671   59.7677   66.1503 C   0  0  0  0  0  0  0  0  0  0  0  0
  -50.3352   59.3523   65.6049 C   0  0  0  0  0  0  0  0  0  0  0  0
  -50.8434   60.3078   64.5672 C   0  0  0  0  0  0  0  0  0  0  0  0
  -51.1692   60.0182   63.3224 C   0  0  0  0  0  0  0  0  0  0  0  0
  -51.1005   58.6671   62.6835 C   0  0  0  0  0  0  0  0  0  0  0  0
  -49.8085   58.4593   61.8986 C   0  0  0  0  0  0  0  0  0  0  0  0
  -49.5729   59.5066   60.8243 C   0  0  0  0  0  0  0  0  0  0  0  0
  -49.0207   58.9377   59.5286 C   0  0  0  0  0  0  0  0  0  0  0  0
  -48.8530   57.4272   59.5252 C   0  0  0  0  0  0  0  0  0  0  0  0
  -47.4476   56.9748   59.1592 C   0  0  0  0  0  0  0  0  0  0  0  0
  -47.3012   56.4955   57.7287 C   0  0  0  0  0  0  0  0  0  0  0  0
  -47.5268   57.5898   56.7229 C   0  0  0  0  0  0  0  0  0  0  0  0
 21 22  1  0  0  0
  4  5  2  0  0  0
 25 24  1  0  0  0
 25 26  2  0  0  0
 25 27  1  0  0  0
 25 29  1  0  0  0
 22 20  1  0  0  0
  3  5  1  0  0  0
  3  2  1  0  0  0
 20 19  1  0  0  0
 24 23  1  0  0  0
 19 18  1  0  0  0
 18 17  1  0  0  0
 27 28  1  0  0  0
 17 16  1  0  0  0
 29 30  1  0  0  0
 16 15  1  0  0  0
 34 35  1  0  0  0
 34 36  1  0  0  0
 15 14  1  0  0  0
 31 32  1  0  0  0
 31 33  1  0  0  0
 14 13  1  0  0  0
 37  1  1  0  0  0
 37 39  1  0  0  0
 13 12  1  0  0  0
 38 39  2  0  0  0
 12 11  1  0  0  0
 11 10  1  0  0  0
 10  9  1  0  0  0
  9  8  1  0  0  0
  8  7  1  0  0  0
  7  6  1  0  0  0
  6  5  1  0  0  0
  2  1  1  0  0  0
  1 23  1  0  0  0
 30 32  1  0  0  0
 32 35  1  0  0  0
 39 40  1  0  0  0
 40 41  1  0  0  0
 41 42  1  0  0  0
 42 43  1  0  0  0
 43 44  1  0  0  0
 44 45  1  0  0  0
 45 46  1  0  0  0
 46 47  1  0  0  0
 47 48  2  0  0  0
 48 49  1  0  0  0
 49 50  1  0  0  0
 50 51  1  0  0  0
 51 52  1  0  0  0
 52 53  1  0  0  0
 53 54  1  0  0  0
 54 55  1  0  0  0
 55 56  1  0  0  0
M  CHG 1  26  -1
M  END
> <minimizedAffinity>
-7.89692

> <CNNscore>
0.2024843842

> <CNNaffinity>
6.8648467064

> <CNN_VS>
1.3900243044

> <CNNaffinity_variance>
0.8692615628

$$$$
/media/chris/experiments/cd1a-new-docking/inputs/ligands/7sh4_ligand.pdb


 56 55  0  0  0  0  0  0  0  0999 V2000
  -40.0168   58.1936   62.1361 C   0  0  0  0  0  0  0  0  0  0  0  0
  -40.2559   57.4902   63.4421 C   0  0  0  0  0  0  0  0  0  0  0  0
  -41.6940   57.4228   63.5442 O   0  0  0  0  0  0  0  0  0  0  0  0
  -41.8737   55.3896   64.4569 O   0  0  0  0  0  0  0  0  0  0  0  0
  -42.1975   56.5459   64.4134 C   0  0  0  0  0  0  0  0  0  0  0  0
  -43.1134   57.2191   65.3945 C   0  0  0  0  0  0  0  0  0  0  0  0
  -44.2429   58.0051   64.7505 C   0  0  0  0  0  0  0  0  0  0  0  0
  -45.2212   58.5621   65.7630 C   0  0  0  0  0  0  0  0  0  0  0  0
  -45.7973   59.9096   65.3911 C   0  0  0  0  0  0  0  0  0  0  0  0
  -47.0345   59.8066   64.5225 C   0  0  0  0  0  0  0  0  0  0  0  0
  -48.2657   60.3909   65.1707 C   0  0  0  0  0  0  0  0  0  0  0  0
  -49.2341   59.3409   65.6477 C   0  0  0  0  0  0  0  0  0  0  0  0
  -50.6830   59.7185   65.4327 C   0  0  0  0  0  0  0  0  0  0  0  0
  -50.9174   60.4064   64.1030 C   0  0  0  0  0  0  0  0  0  0  0  0
  -51.1774   59.4561   62.9530 C   0  0  0  0  0  0  0  0  0  0  0  0
  -49.9918   59.2928   62.0086 C   0  0  0  0  0  0  0  0  0  0  0  0
  -49.6057   57.8493   61.7484 C   0  0  0  0  0  0  0  0  0  0  0  0
  -49.9800   57.3667   60.3620 C   0  0  0  0  0  0  0  0  0  0  0  0
  -49.6660   58.3701   59.2610 C   0  0  0  0  0  0  0  0  0  0  0  0
  -48.2376   58.2877   58.7530 C   0  0  0  0  0  0  0  0  0  0  0  0
  -47.1963   56.4166   57.4299 C   0  0  0  0  0  0  0  0  0  0  0  0
  -47.6276   56.8995   58.7961 C   0  0  0  0  0  0  0  0  0  0  0  0
  -41.2596   58.2450   61.2848 C   0  0  0  0  0  0  0  0  0  0  0  0
  -41.3977   59.5776   60.7432 O   0  0  0  0  0  0  0  0  0  0  0  0
  -41.5127   60.8810   61.6652 P   0  0  0  0  0  0  0  0  0  0  0  0
  -40.1600   61.2104   62.1632 O   0  0  0  0  0  0  0  0  0  0  0  0
  -42.2659   61.9133   60.9130 O   0  0  0  0  0  0  0  0  0  0  0  0
  -41.7447   62.1995   60.1466 H   0  0  0  0  0  0  0  0  0  0  0  0
  -42.4012   60.4384   62.9133 O   0  0  0  0  0  0  0  0  0  0  0  0
  -42.3898   61.2249   64.1220 C   0  0  0  0  0  0  0  0  0  0  0  0
  -40.2089   60.8548   65.0438 O   0  0  0  0  0  0  0  0  0  0  0  0
  -41.5860   60.4855   65.1633 C   0  0  0  0  0  0  0  0  0  0  0  0
  -39.9043   60.6789   64.1397 H   0  0  0  0  0  0  0  0  0  0  0  0
  -42.3107   62.1420   66.7599 O   0  0  0  0  0  0  0  0  0  0  0  0
  -42.0773   60.7530   66.5656 C   0  0  0  0  0  0  0  0  0  0  0  0
  -42.6252   62.2936   67.6649 H   0  0  0  0  0  0  0  0  0  0  0  0
  -38.9137   57.5196   61.4440 O   0  0  0  0  0  0  0  0  0  0  0  0
  -38.0474   58.6439   59.6988 O   0  0  0  0  0  0  0  0  0  0  0  0
  -37.9951   58.3051   60.8496 C   0  0  0  0  0  0  0  0  0  0  0  0
  -36.9134   58.7193   61.7984 C   0  0  0  0  0  0  0  0  0  0  0  0
  -36.5269   57.5805   62.7367 C   0  0  0  0  0  0  0  0  0  0  0  0
  -36.3837   58.0012   64.1903 C   0  0  0  0  0  0  0  0  0  0  0  0
  -34.9981   57.7361   64.7680 C   0  0  0  0  0  0  0  0  0  0  0  0
  -34.0550   58.9213   64.6780 C   0  0  0  0  0  0  0  0  0  0  0  0
  -32.8224   58.6887   63.7996 C   0  0  0  0  0  0  0  0  0  0  0  0
  -32.8639   59.3635   62.4268 C   0  0  0  0  0  0  0  0  0  0  0  0
  -31.6324   60.1758   62.1593 C   0  0  0  0  0  0  0  0  0  0  0  0
  -31.4484   61.4478   62.4553 C   0  0  0  0  0  0  0  0  0  0  0  0
  -32.4361   62.3499   63.1255 C   0  0  0  0  0  0  0  0  0  0  0  0
  -33.2117   63.2065   62.1290 C   0  0  0  0  0  0  0  0  0  0  0  0
  -33.6611   64.5426   62.6941 C   0  0  0  0  0  0  0  0  0  0  0  0
  -33.9197   64.5159   64.1907 C   0  0  0  0  0  0  0  0  0  0  0  0
  -35.3144   64.0550   64.5806 C   0  0  0  0  0  0  0  0  0  0  0  0
  -36.3241   64.1552   63.4474 C   0  0  0  0  0  0  0  0  0  0  0  0
  -36.9562   62.8334   63.0588 C   0  0  0  0  0  0  0  0  0  0  0  0
  -36.6050   61.7201   64.0059 C   0  0  0  0  0  0  0  0  0  0  0  0
 21 22  1  0  0  0
  4  5  2  0  0  0
 25 24  1  0  0  0
 25 26  2  0  0  0
 25 27  1  0  0  0
 25 29  1  0  0  0
 22 20  1  0  0  0
  3  5  1  0  0  0
  3  2  1  0  0  0
 20 19  1  0  0  0
 24 23  1  0  0  0
 19 18  1  0  0  0
 18 17  1  0  0  0
 27 28  1  0  0  0
 17 16  1  0  0  0
 29 30  1  0  0  0
 16 15  1  0  0  0
 34 35  1  0  0  0
 34 36  1  0  0  0
 15 14  1  0  0  0
 31 32  1  0  0  0
 31 33  1  0  0  0
 14 13  1  0  0  0
 37  1  1  0  0  0
 37 39  1  0  0  0
 13 12  1  0  0  0
 38 39  2  0  0  0
 12 11  1  0  0  0
 11 10  1  0  0  0
 10  9  1  0  0  0
  9  8  1  0  0  0
  8  7  1  0  0  0
  7  6  1  0  0  0
  6  5  1  0  0  0
  2  1  1  0  0  0
  1 23  1  0  0  0
 30 32  1  0  0  0
 32 35  1  0  0  0
 39 40  1  0  0  0
 40 41  1  0  0  0
 41 42  1  0  0  0
 42 43  1  0  0  0
 43 44  1  0  0  0
 44 45  1  0  0  0
 45 46  1  0  0  0
 46 47  1  0  0  0
 47 48  2  0  0  0
 48 49  1  0  0  0
 49 50  1  0  0  0
 50 51  1  0  0  0
 51 52  1  0  0  0
 52 53  1  0  0  0
 53 54  1  0  0  0
 54 55  1  0  0  0
 55 56  1  0  0  0
M  CHG 1  26  -1
M  END
> <minimizedAffinity>
-7.85770

> <CNNscore>
0.1878901869

> <CNNaffinity>
6.8285436630

> <CNN_VS>
1.2830163240

> <CNNaffinity_variance>
1.4465836287

$$$$
/media/chris/experiments/cd1a-new-docking/inputs/ligands/7sh4_ligand.pdb


 56 55  0  0  0  0  0  0  0  0999 V2000
  -41.3120   59.3511   62.4587 C   0  0  0  0  0  0  0  0  0  0  0  0
  -41.2803   57.9263   62.9348 C   0  0  0  0  0  0  0  0  0  0  0  0
  -42.6676   57.6065   63.1721 O   0  0  0  0  0  0  0  0  0  0  0  0
  -42.4050   56.0433   64.7490 O   0  0  0  0  0  0  0  0  0  0  0  0
  -42.9628   57.0233   64.3343 C   0  0  0  0  0  0  0  0  0  0  0  0
  -43.9820   57.8194   65.0974 C   0  0  0  0  0  0  0  0  0  0  0  0
  -44.6332   58.9298   64.2906 C   0  0  0  0  0  0  0  0  0  0  0  0
  -45.4680   59.8619   65.1431 C   0  0  0  0  0  0  0  0  0  0  0  0
  -46.7904   60.2512   64.5224 C   0  0  0  0  0  0  0  0  0  0  0  0
  -47.9388   60.2304   65.5107 C   0  0  0  0  0  0  0  0  0  0  0  0
  -48.6150   58.8848   65.6073 C   0  0  0  0  0  0  0  0  0  0  0  0
  -50.1157   58.9724   65.5162 C   0  0  0  0  0  0  0  0  0  0  0  0
  -50.5982   60.0835   64.6102 C   0  0  0  0  0  0  0  0  0  0  0  0
  -51.1776   59.5674   63.3086 C   0  0  0  0  0  0  0  0  0  0  0  0
  -50.4562   58.3602   62.7469 C   0  0  0  0  0  0  0  0  0  0  0  0
  -49.2587   58.7105   61.8709 C   0  0  0  0  0  0  0  0  0  0  0  0
  -49.6190   59.4760   60.6122 C   0  0  0  0  0  0  0  0  0  0  0  0
  -49.6342   58.6135   59.3668 C   0  0  0  0  0  0  0  0  0  0  0  0
  -48.3260   57.8752   59.1197 C   0  0  0  0  0  0  0  0  0  0  0  0
  -47.5228   58.4338   57.9588 C   0  0  0  0  0  0  0  0  0  0  0  0
  -47.5753   56.0140   57.2674 C   0  0  0  0  0  0  0  0  0  0  0  0
  -47.0503   57.3975   56.9569 C   0  0  0  0  0  0  0  0  0  0  0  0
  -40.9422   59.4697   61.0023 C   0  0  0  0  0  0  0  0  0  0  0  0
  -39.8198   58.5996   60.7350 O   0  0  0  0  0  0  0  0  0  0  0  0
  -38.3679   59.1509   60.3479 P   0  0  0  0  0  0  0  0  0  0  0  0
  -38.2259   59.0742   58.8780 O   0  0  0  0  0  0  0  0  0  0  0  0
  -38.1792   60.4620   61.0143 O   0  0  0  0  0  0  0  0  0  0  0  0
  -38.7962   61.1083   60.6369 H   0  0  0  0  0  0  0  0  0  0  0  0
  -37.3381   58.1196   60.9951 O   0  0  0  0  0  0  0  0  0  0  0  0
  -37.3272   57.9106   62.4221 C   0  0  0  0  0  0  0  0  0  0  0  0
  -35.6923   59.6244   62.7859 O   0  0  0  0  0  0  0  0  0  0  0  0
  -35.9445   58.2244   62.9384 C   0  0  0  0  0  0  0  0  0  0  0  0
  -35.8117   59.8752   61.8564 H   0  0  0  0  0  0  0  0  0  0  0  0
  -34.3986   57.9255   64.7658 O   0  0  0  0  0  0  0  0  0  0  0  0
  -35.7630   57.8163   64.3806 C   0  0  0  0  0  0  0  0  0  0  0  0
  -34.3023   57.6595   65.6936 H   0  0  0  0  0  0  0  0  0  0  0  0
  -40.4185   60.1423   63.3105 O   0  0  0  0  0  0  0  0  0  0  0  0
  -41.9667   61.2542   64.5051 O   0  0  0  0  0  0  0  0  0  0  0  0
  -40.9396   60.6346   64.4508 C   0  0  0  0  0  0  0  0  0  0  0  0
  -40.0962   60.3014   65.6422 C   0  0  0  0  0  0  0  0  0  0  0  0
  -38.6807   59.9075   65.2323 C   0  0  0  0  0  0  0  0  0  0  0  0
  -37.6240   60.9367   65.5988 C   0  0  0  0  0  0  0  0  0  0  0  0
  -37.4449   62.0272   64.5487 C   0  0  0  0  0  0  0  0  0  0  0  0
  -36.3861   63.0553   64.9012 C   0  0  0  0  0  0  0  0  0  0  0  0
  -36.1588   63.2457   66.4036 C   0  0  0  0  0  0  0  0  0  0  0  0
  -35.0612   64.2451   66.7750 C   0  0  0  0  0  0  0  0  0  0  0  0
  -33.6889   63.6964   66.5229 C   0  0  0  0  0  0  0  0  0  0  0  0
  -32.6982   64.3076   65.9027 C   0  0  0  0  0  0  0  0  0  0  0  0
  -32.7378   65.6848   65.3195 C   0  0  0  0  0  0  0  0  0  0  0  0
  -32.7003   65.6725   63.7941 C   0  0  0  0  0  0  0  0  0  0  0  0
  -34.0572   65.4397   63.1530 C   0  0  0  0  0  0  0  0  0  0  0  0
  -34.1530   64.1321   62.3859 C   0  0  0  0  0  0  0  0  0  0  0  0
  -32.8314   63.3998   62.2226 C   0  0  0  0  0  0  0  0  0  0  0  0
  -32.8113   62.0314   62.8866 C   0  0  0  0  0  0  0  0  0  0  0  0
  -31.9545   61.0056   62.1716 C   0  0  0  0  0  0  0  0  0  0  0  0
  -32.0372   59.6412   62.7974 C   0  0  0  0  0  0  0  0  0  0  0  0
 21 22  1  0  0  0
  4  5  2  0  0  0
 25 24  1  0  0  0
 25 26  2  0  0  0
 25 27  1  0  0  0
 25 29  1  0  0  0
 22 20  1  0  0  0
  3  5  1  0  0  0
  3  2  1  0  0  0
 20 19  1  0  0  0
 24 23  1  0  0  0
 19 18  1  0  0  0
 18 17  1  0  0  0
 27 28  1  0  0  0
 17 16  1  0  0  0
 29 30  1  0  0  0
 16 15  1  0  0  0
 34 35  1  0  0  0
 34 36  1  0  0  0
 15 14  1  0  0  0
 31 32  1  0  0  0
 31 33  1  0  0  0
 14 13  1  0  0  0
 37  1  1  0  0  0
 37 39  1  0  0  0
 13 12  1  0  0  0
 38 39  2  0  0  0
 12 11  1  0  0  0
 11 10  1  0  0  0
 10  9  1  0  0  0
  9  8  1  0  0  0
  8  7  1  0  0  0
  7  6  1  0  0  0
  6  5  1  0  0  0
  2  1  1  0  0  0
  1 23  1  0  0  0
 30 32  1  0  0  0
 32 35  1  0  0  0
 39 40  1  0  0  0
 40 41  1  0  0  0
 41 42  1  0  0  0
 42 43  1  0  0  0
 43 44  1  0  0  0
 44 45  1  0  0  0
 45 46  1  0  0  0
 46 47  1  0  0  0
 47 48  2  0  0  0
 48 49  1  0  0  0
 49 50  1  0  0  0
 50 51  1  0  0  0
 51 52  1  0  0  0
 52 53  1  0  0  0
 53 54  1  0  0  0
 54 55  1  0  0  0
 55 56  1  0  0  0
M  CHG 1  26  -1
M  END
> <minimizedAffinity>
-7.85974

> <CNNscore>
0.1815769970

> <CNNaffinity>
6.7474164963

> <CNN_VS>
1.2251756191

> <CNNaffinity_variance>
0.9661175013

$$$$
