/media/chris/experiments/cd1a-new-docking/inputs/ligands/7sh4_ligand.pdb


 56 55  0  0  0  0  0  0  0  0999 V2000
  -40.6000   60.1361   64.0373 C   0  0  0  0  0  0  0  0  0  0  0  0
  -40.4193   59.1966   65.1959 C   0  0  0  0  0  0  0  0  0  0  0  0
  -40.4644   57.8860   64.5931 O   0  0  0  0  0  0  0  0  0  0  0  0
  -42.3562   56.9315   65.3066 O   0  0  0  0  0  0  0  0  0  0  0  0
  -41.6699   57.3456   64.4118 C   0  0  0  0  0  0  0  0  0  0  0  0
  -42.0964   57.4405   62.9751 C   0  0  0  0  0  0  0  0  0  0  0  0
  -41.1065   56.8376   61.9928 C   0  0  0  0  0  0  0  0  0  0  0  0
  -41.6096   56.8608   60.5649 C   0  0  0  0  0  0  0  0  0  0  0  0
  -40.6946   57.5770   59.5975 C   0  0  0  0  0  0  0  0  0  0  0  0
  -40.7173   59.0829   59.7637 C   0  0  0  0  0  0  0  0  0  0  0  0
  -39.3417   59.7035   59.7452 C   0  0  0  0  0  0  0  0  0  0  0  0
  -38.2356   58.6822   59.7157 C   0  0  0  0  0  0  0  0  0  0  0  0
  -37.4048   58.6602   60.9794 C   0  0  0  0  0  0  0  0  0  0  0  0
  -37.7425   57.4906   61.8817 C   0  0  0  0  0  0  0  0  0  0  0  0
  -37.2693   57.6558   63.3107 C   0  0  0  0  0  0  0  0  0  0  0  0
  -35.9565   58.4198   63.4405 C   0  0  0  0  0  0  0  0  0  0  0  0
  -34.7246   57.5796   63.1636 C   0  0  0  0  0  0  0  0  0  0  0  0
  -33.6321   58.3350   62.4350 C   0  0  0  0  0  0  0  0  0  0  0  0
  -32.3786   58.5525   63.2711 C   0  0  0  0  0  0  0  0  0  0  0  0
  -31.6098   59.8075   62.8983 C   0  0  0  0  0  0  0  0  0  0  0  0
  -31.9709   62.2959   62.7830 C   0  0  0  0  0  0  0  0  0  0  0  0
  -32.4627   60.9343   62.3471 C   0  0  0  0  0  0  0  0  0  0  0  0
  -39.2831   60.5416   63.4265 C   0  0  0  0  0  0  0  0  0  0  0  0
  -38.7849   61.7045   64.1249 O   0  0  0  0  0  0  0  0  0  0  0  0
  -37.2239   61.9817   64.3446 P   0  0  0  0  0  0  0  0  0  0  0  0
  -36.7737   61.1751   65.4994 O   0  0  0  0  0  0  0  0  0  0  0  0
  -36.5365   61.8073   63.0425 O   0  0  0  0  0  0  0  0  0  0  0  0
  -36.5853   60.8768   62.7732 H   0  0  0  0  0  0  0  0  0  0  0  0
  -37.1212   63.5204   64.7506 O   0  0  0  0  0  0  0  0  0  0  0  0
  -36.0994   63.9574   65.6698 C   0  0  0  0  0  0  0  0  0  0  0  0
  -34.3545   64.9173   64.3371 O   0  0  0  0  0  0  0  0  0  0  0  0
  -34.7530   63.7295   65.0279 C   0  0  0  0  0  0  0  0  0  0  0  0
  -35.0391   65.1633   63.6955 H   0  0  0  0  0  0  0  0  0  0  0  0
  -34.0124   62.0766   66.6210 O   0  0  0  0  0  0  0  0  0  0  0  0
  -33.6975   63.3317   66.0317 C   0  0  0  0  0  0  0  0  0  0  0  0
  -33.3242   61.8385   67.2618 H   0  0  0  0  0  0  0  0  0  0  0  0
  -41.3630   61.2992   64.5008 O   0  0  0  0  0  0  0  0  0  0  0  0
  -42.8120   61.7430   62.8384 O   0  0  0  0  0  0  0  0  0  0  0  0
  -42.5968   61.4645   63.9864 C   0  0  0  0  0  0  0  0  0  0  0  0
  -43.6657   61.2418   65.0109 C   0  0  0  0  0  0  0  0  0  0  0  0
  -44.9314   60.6677   64.3823 C   0  0  0  0  0  0  0  0  0  0  0  0
  -44.9820   59.1487   64.3758 C   0  0  0  0  0  0  0  0  0  0  0  0
  -45.5198   58.5510   65.6711 C   0  0  0  0  0  0  0  0  0  0  0  0
  -47.0341   58.4776   65.7346 C   0  0  0  0  0  0  0  0  0  0  0  0
  -47.6932   59.6041   66.5355 C   0  0  0  0  0  0  0  0  0  0  0  0
  -48.9844   60.1625   65.9333 C   0  0  0  0  0  0  0  0  0  0  0  0
  -49.9329   59.0757   65.5242 C   0  0  0  0  0  0  0  0  0  0  0  0
  -50.7580   59.0968   64.4955 C   0  0  0  0  0  0  0  0  0  0  0  0
  -50.9186   60.2159   63.5157 C   0  0  0  0  0  0  0  0  0  0  0  0
  -49.8802   60.1655   62.3987 C   0  0  0  0  0  0  0  0  0  0  0  0
  -50.0360   58.9700   61.4752 C   0  0  0  0  0  0  0  0  0  0  0  0
  -49.2165   59.0732   60.2005 C   0  0  0  0  0  0  0  0  0  0  0  0
  -49.7730   58.2821   59.0283 C   0  0  0  0  0  0  0  0  0  0  0  0
  -48.8332   57.1946   58.5309 C   0  0  0  0  0  0  0  0  0  0  0  0
  -47.3819   57.6218   58.4366 C   0  0  0  0  0  0  0  0  0  0  0  0
  -47.0621   58.3128   57.1404 C   0  0  0  0  0  0  0  0  0  0  0  0
 21 22  1  0  0  0
  4  5  2  0  0  0
 25 24  1  0  0  0
 25 26  2  0  0  0
 25 27  1  0  0  0
 25 29  1  0  0  0
 22 20  1  0  0  0
  3  5  1  0  0  0
  3  2  1  0  0  0
 20 19  1  0  0  0
 24 23  1  0  0  0
 19 18  1  0  0  0
 18 17  1  0  0  0
 27 28  1  0  0  0
 17 16  1  0  0  0
 29 30  1  0  0  0
 16 15  1  0  0  0
 34 35  1  0  0  0
 34 36  1  0  0  0
 15 14  1  0  0  0
 31 32  1  0  0  0
 31 33  1  0  0  0
 14 13  1  0  0  0
 37  1  1  0  0  0
 37 39  1  0  0  0
 13 12  1  0  0  0
 38 39  2  0  0  0
 12 11  1  0  0  0
 11 10  1  0  0  0
 10  9  1  0  0  0
  9  8  1  0  0  0
  8  7  1  0  0  0
  7  6  1  0  0  0
  6  5  1  0  0  0
  2  1  1  0  0  0
  1 23  1  0  0  0
 30 32  1  0  0  0
 32 35  1  0  0  0
 39 40  1  0  0  0
 40 41  1  0  0  0
 41 42  1  0  0  0
 42 43  1  0  0  0
 43 44  1  0  0  0
 44 45  1  0  0  0
 45 46  1  0  0  0
 46 47  1  0  0  0
 47 48  2  0  0  0
 48 49  1  0  0  0
 49 50  1  0  0  0
 50 51  1  0  0  0
 51 52  1  0  0  0
 52 53  1  0  0  0
 53 54  1  0  0  0
 54 55  1  0  0  0
 55 56  1  0  0  0
M  CHG 1  26  -1
M  END
> <minimizedAffinity>
-8.30388

> <CNNscore>
0.4581495225

> <CNNaffinity>
7.4650506973

> <CNN_VS>
3.4201095104

> <CNNaffinity_variance>
1.2875444889

$$$$
/media/chris/experiments/cd1a-new-docking/inputs/ligands/7sh4_ligand.pdb


 56 55  0  0  0  0  0  0  0  0999 V2000
  -40.5746   59.9370   65.2729 C   0  0  0  0  0  0  0  0  0  0  0  0
  -41.4692   59.9066   66.4797 C   0  0  0  0  0  0  0  0  0  0  0  0
  -42.6755   59.2726   66.0043 O   0  0  0  0  0  0  0  0  0  0  0  0
  -42.5464   57.3018   67.0526 O   0  0  0  0  0  0  0  0  0  0  0  0
  -42.7158   57.9405   66.0491 C   0  0  0  0  0  0  0  0  0  0  0  0
  -43.1203   57.3650   64.7225 C   0  0  0  0  0  0  0  0  0  0  0  0
  -42.2534   56.2069   64.2582 C   0  0  0  0  0  0  0  0  0  0  0  0
  -41.1755   56.6349   63.2848 C   0  0  0  0  0  0  0  0  0  0  0  0
  -41.0384   55.7351   62.0776 C   0  0  0  0  0  0  0  0  0  0  0  0
  -41.4619   56.4057   60.7866 C   0  0  0  0  0  0  0  0  0  0  0  0
  -41.3520   57.9101   60.8347 C   0  0  0  0  0  0  0  0  0  0  0  0
  -41.0715   58.5231   59.4882 C   0  0  0  0  0  0  0  0  0  0  0  0
  -39.7695   59.2914   59.4377 C   0  0  0  0  0  0  0  0  0  0  0  0
  -38.5597   58.4088   59.6686 C   0  0  0  0  0  0  0  0  0  0  0  0
  -37.7800   58.7447   60.9226 C   0  0  0  0  0  0  0  0  0  0  0  0
  -37.8318   57.6576   61.9900 C   0  0  0  0  0  0  0  0  0  0  0  0
  -37.0696   58.0000   63.2558 C   0  0  0  0  0  0  0  0  0  0  0  0
  -35.6040   57.6211   63.1970 C   0  0  0  0  0  0  0  0  0  0  0  0
  -34.8348   57.9594   64.4663 C   0  0  0  0  0  0  0  0  0  0  0  0
  -33.7096   58.9551   64.2478 C   0  0  0  0  0  0  0  0  0  0  0  0
  -31.7013   59.5734   62.8622 C   0  0  0  0  0  0  0  0  0  0  0  0
  -32.5781   58.4521   63.3717 C   0  0  0  0  0  0  0  0  0  0  0  0
  -39.1152   59.9314   65.6497 C   0  0  0  0  0  0  0  0  0  0  0  0
  -38.6736   61.2968   65.8202 O   0  0  0  0  0  0  0  0  0  0  0  0
  -37.4721   61.9319   64.9746 P   0  0  0  0  0  0  0  0  0  0  0  0
  -36.2691   61.0999   65.1924 O   0  0  0  0  0  0  0  0  0  0  0  0
  -37.9478   62.1469   63.5868 O   0  0  0  0  0  0  0  0  0  0  0  0
  -38.1176   61.2893   63.1666 H   0  0  0  0  0  0  0  0  0  0  0  0
  -37.2052   63.3617   65.6281 O   0  0  0  0  0  0  0  0  0  0  0  0
  -35.9119   63.9859   65.4949 C   0  0  0  0  0  0  0  0  0  0  0  0
  -35.6887   63.0908   67.7065 O   0  0  0  0  0  0  0  0  0  0  0  0
  -35.3442   64.2036   66.8759 C   0  0  0  0  0  0  0  0  0  0  0  0
  -36.6519   62.9764   67.7106 H   0  0  0  0  0  0  0  0  0  0  0  0
  -33.2012   63.3894   67.6264 O   0  0  0  0  0  0  0  0  0  0  0  0
  -33.8468   64.3965   66.8580 C   0  0  0  0  0  0  0  0  0  0  0  0
  -32.2418   63.5299   67.6030 H   0  0  0  0  0  0  0  0  0  0  0  0
  -40.9222   61.1138   64.4702 O   0  0  0  0  0  0  0  0  0  0  0  0
  -40.2644   60.9793   62.3232 O   0  0  0  0  0  0  0  0  0  0  0  0
  -41.1289   60.9158   63.1541 C   0  0  0  0  0  0  0  0  0  0  0  0
  -42.5591   60.5895   62.8542 C   0  0  0  0  0  0  0  0  0  0  0  0
  -43.4682   61.7909   63.0923 C   0  0  0  0  0  0  0  0  0  0  0  0
  -44.3926   61.6369   64.2890 C   0  0  0  0  0  0  0  0  0  0  0  0
  -45.2353   60.3671   64.2489 C   0  0  0  0  0  0  0  0  0  0  0  0
  -46.1172   60.1732   65.4683 C   0  0  0  0  0  0  0  0  0  0  0  0
  -47.4136   59.4033   65.2006 C   0  0  0  0  0  0  0  0  0  0  0  0
  -48.6762   60.2634   65.1142 C   0  0  0  0  0  0  0  0  0  0  0  0
  -48.9205   60.7701   63.7244 C   0  0  0  0  0  0  0  0  0  0  0  0
  -49.9060   60.4205   62.9207 C   0  0  0  0  0  0  0  0  0  0  0  0
  -50.9930   59.4407   63.2315 C   0  0  0  0  0  0  0  0  0  0  0  0
  -50.8866   58.1684   62.3958 C   0  0  0  0  0  0  0  0  0  0  0  0
  -49.5639   58.0298   61.6626 C   0  0  0  0  0  0  0  0  0  0  0  0
  -49.7100   57.5640   60.2242 C   0  0  0  0  0  0  0  0  0  0  0  0
  -48.8785   56.3421   59.8704 C   0  0  0  0  0  0  0  0  0  0  0  0
  -47.6392   56.6693   59.0516 C   0  0  0  0  0  0  0  0  0  0  0  0
  -47.6932   58.0125   58.3510 C   0  0  0  0  0  0  0  0  0  0  0  0
  -47.3194   57.9256   56.8975 C   0  0  0  0  0  0  0  0  0  0  0  0
 21 22  1  0  0  0
  4  5  2  0  0  0
 25 24  1  0  0  0
 25 26  2  0  0  0
 25 27  1  0  0  0
 25 29  1  0  0  0
 22 20  1  0  0  0
  3  5  1  0  0  0
  3  2  1  0  0  0
 20 19  1  0  0  0
 24 23  1  0  0  0
 19 18  1  0  0  0
 18 17  1  0  0  0
 27 28  1  0  0  0
 17 16  1  0  0  0
 29 30  1  0  0  0
 16 15  1  0  0  0
 34 35  1  0  0  0
 34 36  1  0  0  0
 15 14  1  0  0  0
 31 32  1  0  0  0
 31 33  1  0  0  0
 14 13  1  0  0  0
 37  1  1  0  0  0
 37 39  1  0  0  0
 13 12  1  0  0  0
 38 39  2  0  0  0
 12 11  1  0  0  0
 11 10  1  0  0  0
 10  9  1  0  0  0
  9  8  1  0  0  0
  8  7  1  0  0  0
  7  6  1  0  0  0
  6  5  1  0  0  0
  2  1  1  0  0  0
  1 23  1  0  0  0
 30 32  1  0  0  0
 32 35  1  0  0  0
 39 40  1  0  0  0
 40 41  1  0  0  0
 41 42  1  0  0  0
 42 43  1  0  0  0
 43 44  1  0  0  0
 44 45  1  0  0  0
 45 46  1  0  0  0
 46 47  1  0  0  0
 47 48  2  0  0  0
 48 49  1  0  0  0
 49 50  1  0  0  0
 50 51  1  0  0  0
 51 52  1  0  0  0
 52 53  1  0  0  0
 53 54  1  0  0  0
 54 55  1  0  0  0
 55 56  1  0  0  0
M  CHG 1  26  -1
M  END
> <minimizedAffinity>
-8.99832

> <CNNscore>
0.3864217997

> <CNNaffinity>
7.4806113243

> <CNN_VS>
2.8906712532

> <CNNaffinity_variance>
1.5050506592

$$$$
/media/chris/experiments/cd1a-new-docking/inputs/ligands/7sh4_ligand.pdb


 56 55  0  0  0  0  0  0  0  0999 V2000
  -39.1638   61.0149   63.7514 C   0  0  0  0  0  0  0  0  0  0  0  0
  -40.4422   60.9147   62.9683 C   0  0  0  0  0  0  0  0  0  0  0  0
  -41.3618   61.7601   63.6914 O   0  0  0  0  0  0  0  0  0  0  0  0
  -42.9700   61.6885   62.1396 O   0  0  0  0  0  0  0  0  0  0  0  0
  -42.6338   61.7499   63.2915 C   0  0  0  0  0  0  0  0  0  0  0  0
  -43.5707   61.6983   64.4638 C   0  0  0  0  0  0  0  0  0  0  0  0
  -45.0116   61.3900   64.0934 C   0  0  0  0  0  0  0  0  0  0  0  0
  -45.4726   60.0414   64.6047 C   0  0  0  0  0  0  0  0  0  0  0  0
  -45.7368   60.0005   66.0928 C   0  0  0  0  0  0  0  0  0  0  0  0
  -46.6587   58.8694   66.5008 C   0  0  0  0  0  0  0  0  0  0  0  0
  -47.9331   58.8210   65.6939 C   0  0  0  0  0  0  0  0  0  0  0  0
  -48.9667   59.8090   66.1663 C   0  0  0  0  0  0  0  0  0  0  0  0
  -50.3136   59.6332   65.5009 C   0  0  0  0  0  0  0  0  0  0  0  0
  -50.2791   58.6307   64.3652 C   0  0  0  0  0  0  0  0  0  0  0  0
  -50.9350   59.1184   63.0903 C   0  0  0  0  0  0  0  0  0  0  0  0
  -50.7921   58.1558   61.9169 C   0  0  0  0  0  0  0  0  0  0  0  0
  -49.9556   58.6977   60.7737 C   0  0  0  0  0  0  0  0  0  0  0  0
  -49.7991   57.7208   59.6265 C   0  0  0  0  0  0  0  0  0  0  0  0
  -48.7510   56.6459   59.8788 C   0  0  0  0  0  0  0  0  0  0  0  0
  -47.8476   56.3863   58.6866 C   0  0  0  0  0  0  0  0  0  0  0  0
  -46.9791   58.2322   57.2121 C   0  0  0  0  0  0  0  0  0  0  0  0
  -48.1141   57.2710   57.4836 C   0  0  0  0  0  0  0  0  0  0  0  0
  -38.0495   61.6255   62.9407 C   0  0  0  0  0  0  0  0  0  0  0  0
  -37.6199   62.8455   63.5852 O   0  0  0  0  0  0  0  0  0  0  0  0
  -36.1320   63.4199   63.4510 P   0  0  0  0  0  0  0  0  0  0  0  0
  -35.6901   63.2248   62.0534 O   0  0  0  0  0  0  0  0  0  0  0  0
  -36.1130   64.7891   64.0197 O   0  0  0  0  0  0  0  0  0  0  0  0
  -36.6536   65.3759   63.4681 H   0  0  0  0  0  0  0  0  0  0  0  0
  -35.2343   62.4893   64.3843 O   0  0  0  0  0  0  0  0  0  0  0  0
  -34.2104   63.0738   65.2150 C   0  0  0  0  0  0  0  0  0  0  0  0
  -33.5455   63.3604   67.4993 O   0  0  0  0  0  0  0  0  0  0  0  0
  -34.5045   62.7204   66.6522 C   0  0  0  0  0  0  0  0  0  0  0  0
  -32.6507   63.1047   67.2256 H   0  0  0  0  0  0  0  0  0  0  0  0
  -36.0795   62.9418   68.4657 O   0  0  0  0  0  0  0  0  0  0  0  0
  -35.9044   63.1076   67.0644 C   0  0  0  0  0  0  0  0  0  0  0  0
  -36.9831   63.1951   68.7109 H   0  0  0  0  0  0  0  0  0  0  0  0
  -38.8118   59.6756   64.2335 O   0  0  0  0  0  0  0  0  0  0  0  0
  -38.0488   60.4752   66.1928 O   0  0  0  0  0  0  0  0  0  0  0  0
  -38.0855   59.6055   65.3657 C   0  0  0  0  0  0  0  0  0  0  0  0
  -37.3459   58.3085   65.4778 C   0  0  0  0  0  0  0  0  0  0  0  0
  -37.2504   57.6014   64.1297 C   0  0  0  0  0  0  0  0  0  0  0  0
  -35.9478   57.8583   63.3899 C   0  0  0  0  0  0  0  0  0  0  0  0
  -36.1437   58.2687   61.9348 C   0  0  0  0  0  0  0  0  0  0  0  0
  -37.5861   58.2131   61.4670 C   0  0  0  0  0  0  0  0  0  0  0  0
  -37.8122   58.7180   60.0391 C   0  0  0  0  0  0  0  0  0  0  0  0
  -39.2170   59.2524   59.7518 C   0  0  0  0  0  0  0  0  0  0  0  0
  -40.1114   58.2024   59.1638 C   0  0  0  0  0  0  0  0  0  0  0  0
  -41.0154   57.4884   59.8060 C   0  0  0  0  0  0  0  0  0  0  0  0
  -41.3395   57.5796   61.2637 C   0  0  0  0  0  0  0  0  0  0  0  0
  -40.8224   56.3794   62.0515 C   0  0  0  0  0  0  0  0  0  0  0  0
  -41.6080   56.0991   63.3206 C   0  0  0  0  0  0  0  0  0  0  0  0
  -42.5120   57.2441   63.7435 C   0  0  0  0  0  0  0  0  0  0  0  0
  -43.2898   56.9922   65.0246 C   0  0  0  0  0  0  0  0  0  0  0  0
  -42.8275   57.8500   66.1924 C   0  0  0  0  0  0  0  0  0  0  0  0
  -41.6374   58.7357   65.8810 C   0  0  0  0  0  0  0  0  0  0  0  0
  -41.6046   59.9821   66.7207 C   0  0  0  0  0  0  0  0  0  0  0  0
 21 22  1  0  0  0
  4  5  2  0  0  0
 25 24  1  0  0  0
 25 26  2  0  0  0
 25 27  1  0  0  0
 25 29  1  0  0  0
 22 20  1  0  0  0
  3  5  1  0  0  0
  3  2  1  0  0  0
 20 19  1  0  0  0
 24 23  1  0  0  0
 19 18  1  0  0  0
 18 17  1  0  0  0
 27 28  1  0  0  0
 17 16  1  0  0  0
 29 30  1  0  0  0
 16 15  1  0  0  0
 34 35  1  0  0  0
 34 36  1  0  0  0
 15 14  1  0  0  0
 31 32  1  0  0  0
 31 33  1  0  0  0
 14 13  1  0  0  0
 37  1  1  0  0  0
 37 39  1  0  0  0
 13 12  1  0  0  0
 38 39  2  0  0  0
 12 11  1  0  0  0
 11 10  1  0  0  0
 10  9  1  0  0  0
  9  8  1  0  0  0
  8  7  1  0  0  0
  7  6  1  0  0  0
  6  5  1  0  0  0
  2  1  1  0  0  0
  1 23  1  0  0  0
 30 32  1  0  0  0
 32 35  1  0  0  0
 39 40  1  0  0  0
 40 41  1  0  0  0
 41 42  1  0  0  0
 42 43  1  0  0  0
 43 44  1  0  0  0
 44 45  1  0  0  0
 45 46  1  0  0  0
 46 47  1  0  0  0
 47 48  2  0  0  0
 48 49  1  0  0  0
 49 50  1  0  0  0
 50 51  1  0  0  0
 51 52  1  0  0  0
 52 53  1  0  0  0
 53 54  1  0  0  0
 54 55  1  0  0  0
 55 56  1  0  0  0
M  CHG 1  26  -1
M  END
> <minimizedAffinity>
-8.68937

> <CNNscore>
0.3813625574

> <CNNaffinity>
7.5783586502

> <CNN_VS>
2.8901021481

> <CNNaffinity_variance>
1.5490877628

$$$$
/media/chris/experiments/cd1a-new-docking/inputs/ligands/7sh4_ligand.pdb


 56 55  0  0  0  0  0  0  0  0999 V2000
  -38.2440   60.6018   65.0630 C   0  0  0  0  0  0  0  0  0  0  0  0
  -39.4308   60.0103   65.7696 C   0  0  0  0  0  0  0  0  0  0  0  0
  -40.2927   61.1423   66.0122 O   0  0  0  0  0  0  0  0  0  0  0  0
  -42.4273   61.7992   65.9084 O   0  0  0  0  0  0  0  0  0  0  0  0
  -41.6069   60.9231   65.9604 C   0  0  0  0  0  0  0  0  0  0  0  0
  -41.9083   59.4562   65.8499 C   0  0  0  0  0  0  0  0  0  0  0  0
  -43.1758   59.1399   65.0741 C   0  0  0  0  0  0  0  0  0  0  0  0
  -43.9198   57.9437   65.6293 C   0  0  0  0  0  0  0  0  0  0  0  0
  -45.4239   58.0398   65.5098 C   0  0  0  0  0  0  0  0  0  0  0  0
  -45.8917   59.3743   64.9656 C   0  0  0  0  0  0  0  0  0  0  0  0
  -47.2477   59.3049   64.3067 C   0  0  0  0  0  0  0  0  0  0  0  0
  -48.3779   59.6165   65.2517 C   0  0  0  0  0  0  0  0  0  0  0  0
  -49.6455   58.8502   64.9450 C   0  0  0  0  0  0  0  0  0  0  0  0
  -50.7457   59.7350   64.3950 C   0  0  0  0  0  0  0  0  0  0  0  0
  -51.1133   59.4414   62.9555 C   0  0  0  0  0  0  0  0  0  0  0  0
  -50.5558   58.1217   62.4343 C   0  0  0  0  0  0  0  0  0  0  0  0
  -49.4892   58.2817   61.3680 C   0  0  0  0  0  0  0  0  0  0  0  0
  -49.7243   57.4164   60.1469 C   0  0  0  0  0  0  0  0  0  0  0  0
  -49.4340   58.1255   58.8314 C   0  0  0  0  0  0  0  0  0  0  0  0
  -47.9528   58.2534   58.5240 C   0  0  0  0  0  0  0  0  0  0  0  0
  -47.2774   56.2220   57.2000 C   0  0  0  0  0  0  0  0  0  0  0  0
  -47.5363   57.7113   57.1700 C   0  0  0  0  0  0  0  0  0  0  0  0
  -37.2654   61.2256   66.0247 C   0  0  0  0  0  0  0  0  0  0  0  0
  -37.4186   62.6618   65.9781 O   0  0  0  0  0  0  0  0  0  0  0  0
  -36.1734   63.6673   65.9755 P   0  0  0  0  0  0  0  0  0  0  0  0
  -36.2323   64.4660   64.7324 O   0  0  0  0  0  0  0  0  0  0  0  0
  -36.1503   64.3765   67.2775 O   0  0  0  0  0  0  0  0  0  0  0  0
  -36.9293   64.9503   67.3470 H   0  0  0  0  0  0  0  0  0  0  0  0
  -34.8800   62.7377   65.9011 O   0  0  0  0  0  0  0  0  0  0  0  0
  -33.7188   63.0519   66.6968 C   0  0  0  0  0  0  0  0  0  0  0  0
  -33.2409   63.9444   64.5249 O   0  0  0  0  0  0  0  0  0  0  0  0
  -32.8239   63.9632   65.8933 C   0  0  0  0  0  0  0  0  0  0  0  0
  -33.2367   63.0311   64.1982 H   0  0  0  0  0  0  0  0  0  0  0  0
  -33.3807   65.4291   67.7263 O   0  0  0  0  0  0  0  0  0  0  0  0
  -32.8244   65.3788   66.4187 C   0  0  0  0  0  0  0  0  0  0  0  0
  -33.3724   66.3448   68.0462 H   0  0  0  0  0  0  0  0  0  0  0  0
  -38.7302   61.5736   64.0786 O   0  0  0  0  0  0  0  0  0  0  0  0
  -37.0786   61.9257   62.5924 O   0  0  0  0  0  0  0  0  0  0  0  0
  -38.1809   61.5249   62.8497 C   0  0  0  0  0  0  0  0  0  0  0  0
  -39.1003   60.8958   61.8493 C   0  0  0  0  0  0  0  0  0  0  0  0
  -40.5572   60.9939   62.2902 C   0  0  0  0  0  0  0  0  0  0  0  0
  -41.5327   60.3007   61.3532 C   0  0  0  0  0  0  0  0  0  0  0  0
  -41.0080   60.1492   59.9299 C   0  0  0  0  0  0  0  0  0  0  0  0
  -40.9132   58.7105   59.4571 C   0  0  0  0  0  0  0  0  0  0  0  0
  -41.7587   57.7190   60.2614 C   0  0  0  0  0  0  0  0  0  0  0  0
  -41.0519   56.4147   60.6369 C   0  0  0  0  0  0  0  0  0  0  0  0
  -41.3710   55.9821   62.0366 C   0  0  0  0  0  0  0  0  0  0  0  0
  -40.9193   56.5245   63.1506 C   0  0  0  0  0  0  0  0  0  0  0  0
  -39.9901   57.6929   63.2499 C   0  0  0  0  0  0  0  0  0  0  0  0
  -38.5243   57.2818   63.1445 C   0  0  0  0  0  0  0  0  0  0  0  0
  -37.8221   57.8382   61.9183 C   0  0  0  0  0  0  0  0  0  0  0  0
  -36.3391   58.0919   62.1275 C   0  0  0  0  0  0  0  0  0  0  0  0
  -35.8966   58.0763   63.5813 C   0  0  0  0  0  0  0  0  0  0  0  0
  -35.0314   59.2674   63.9637 C   0  0  0  0  0  0  0  0  0  0  0  0
  -33.8100   58.9101   64.7873 C   0  0  0  0  0  0  0  0  0  0  0  0
  -32.5962   58.6430   63.9415 C   0  0  0  0  0  0  0  0  0  0  0  0
 21 22  1  0  0  0
  4  5  2  0  0  0
 25 24  1  0  0  0
 25 26  2  0  0  0
 25 27  1  0  0  0
 25 29  1  0  0  0
 22 20  1  0  0  0
  3  5  1  0  0  0
  3  2  1  0  0  0
 20 19  1  0  0  0
 24 23  1  0  0  0
 19 18  1  0  0  0
 18 17  1  0  0  0
 27 28  1  0  0  0
 17 16  1  0  0  0
 29 30  1  0  0  0
 16 15  1  0  0  0
 34 35  1  0  0  0
 34 36  1  0  0  0
 15 14  1  0  0  0
 31 32  1  0  0  0
 31 33  1  0  0  0
 14 13  1  0  0  0
 37  1  1  0  0  0
 37 39  1  0  0  0
 13 12  1  0  0  0
 38 39  2  0  0  0
 12 11  1  0  0  0
 11 10  1  0  0  0
 10  9  1  0  0  0
  9  8  1  0  0  0
  8  7  1  0  0  0
  7  6  1  0  0  0
  6  5  1  0  0  0
  2  1  1  0  0  0
  1 23  1  0  0  0
 30 32  1  0  0  0
 32 35  1  0  0  0
 39 40  1  0  0  0
 40 41  1  0  0  0
 41 42  1  0  0  0
 42 43  1  0  0  0
 43 44  1  0  0  0
 44 45  1  0  0  0
 45 46  1  0  0  0
 46 47  1  0  0  0
 47 48  2  0  0  0
 48 49  1  0  0  0
 49 50  1  0  0  0
 50 51  1  0  0  0
 51 52  1  0  0  0
 52 53  1  0  0  0
 53 54  1  0  0  0
 54 55  1  0  0  0
 55 56  1  0  0  0
M  CHG 1  26  -1
M  END
> <minimizedAffinity>
-8.41124

> <CNNscore>
0.3670852184

> <CNNaffinity>
7.5062990189

> <CNN_VS>
2.7554514408

> <CNNaffinity_variance>
1.0800149441

$$$$
/media/chris/experiments/cd1a-new-docking/inputs/ligands/7sh4_ligand.pdb


 56 55  0  0  0  0  0  0  0  0999 V2000
  -40.4485   60.6596   64.1645 C   0  0  0  0  0  0  0  0  0  0  0  0
  -40.3227   60.4736   65.6502 C   0  0  0  0  0  0  0  0  0  0  0  0
  -41.2627   59.4206   65.9511 O   0  0  0  0  0  0  0  0  0  0  0  0
  -39.9308   57.7972   65.1832 O   0  0  0  0  0  0  0  0  0  0  0  0
  -41.0309   58.2284   65.4008 C   0  0  0  0  0  0  0  0  0  0  0  0
  -42.3075   57.4608   65.2113 C   0  0  0  0  0  0  0  0  0  0  0  0
  -42.2276   56.3760   64.1505 C   0  0  0  0  0  0  0  0  0  0  0  0
  -41.7835   56.9052   62.8032 C   0  0  0  0  0  0  0  0  0  0  0  0
  -41.3284   55.8351   61.8370 C   0  0  0  0  0  0  0  0  0  0  0  0
  -41.2079   56.3350   60.4117 C   0  0  0  0  0  0  0  0  0  0  0  0
  -41.4882   57.8115   60.2742 C   0  0  0  0  0  0  0  0  0  0  0  0
  -40.6875   58.4630   59.1779 C   0  0  0  0  0  0  0  0  0  0  0  0
  -39.5994   59.3791   59.6923 C   0  0  0  0  0  0  0  0  0  0  0  0
  -38.2136   58.7862   59.5382 C   0  0  0  0  0  0  0  0  0  0  0  0
  -37.4441   58.6678   60.8371 C   0  0  0  0  0  0  0  0  0  0  0  0
  -38.2110   57.9542   61.9446 C   0  0  0  0  0  0  0  0  0  0  0  0
  -37.3590   57.5820   63.1429 C   0  0  0  0  0  0  0  0  0  0  0  0
  -35.9350   58.0905   63.0502 C   0  0  0  0  0  0  0  0  0  0  0  0
  -35.1059   57.8142   64.2968 C   0  0  0  0  0  0  0  0  0  0  0  0
  -33.7790   58.5516   64.3198 C   0  0  0  0  0  0  0  0  0  0  0  0
  -31.8668   59.4299   62.9386 C   0  0  0  0  0  0  0  0  0  0  0  0
  -32.9240   58.3587   63.0818 C   0  0  0  0  0  0  0  0  0  0  0  0
  -39.1602   61.1339   63.5423 C   0  0  0  0  0  0  0  0  0  0  0  0
  -38.1082   61.0498   64.5294 O   0  0  0  0  0  0  0  0  0  0  0  0
  -36.9118   62.1096   64.6146 P   0  0  0  0  0  0  0  0  0  0  0  0
  -37.2850   63.1430   65.6042 O   0  0  0  0  0  0  0  0  0  0  0  0
  -35.6460   61.3619   64.8082 O   0  0  0  0  0  0  0  0  0  0  0  0
  -35.6548   60.9309   65.6771 H   0  0  0  0  0  0  0  0  0  0  0  0
  -36.8574   62.8014   63.1789 O   0  0  0  0  0  0  0  0  0  0  0  0
  -36.4847   64.1896   63.0606 C   0  0  0  0  0  0  0  0  0  0  0  0
  -36.2398   65.5771   61.1222 O   0  0  0  0  0  0  0  0  0  0  0  0
  -35.7677   64.3794   61.7465 C   0  0  0  0  0  0  0  0  0  0  0  0
  -37.2033   65.5305   61.0205 H   0  0  0  0  0  0  0  0  0  0  0  0
  -33.6305   63.5226   61.0278 O   0  0  0  0  0  0  0  0  0  0  0  0
  -34.2680   64.4348   61.9127 C   0  0  0  0  0  0  0  0  0  0  0  0
  -32.6694   63.5726   61.1491 H   0  0  0  0  0  0  0  0  0  0  0  0
  -41.5498   61.5930   63.9078 O   0  0  0  0  0  0  0  0  0  0  0  0
  -42.2035   60.6483   61.9738 O   0  0  0  0  0  0  0  0  0  0  0  0
  -42.4685   61.2178   62.9972 C   0  0  0  0  0  0  0  0  0  0  0  0
  -43.8583   61.5786   63.4216 C   0  0  0  0  0  0  0  0  0  0  0  0
  -44.1957   60.9906   64.7880 C   0  0  0  0  0  0  0  0  0  0  0  0
  -45.2065   59.8566   64.7385 C   0  0  0  0  0  0  0  0  0  0  0  0
  -46.6480   60.3307   64.5922 C   0  0  0  0  0  0  0  0  0  0  0  0
  -47.6265   59.6231   65.5110 C   0  0  0  0  0  0  0  0  0  0  0  0
  -48.3595   58.4406   64.8713 C   0  0  0  0  0  0  0  0  0  0  0  0
  -49.8444   58.3271   65.2230 C   0  0  0  0  0  0  0  0  0  0  0  0
  -50.5050   59.6692   65.3248 C   0  0  0  0  0  0  0  0  0  0  0  0
  -51.0451   60.3578   64.3380 C   0  0  0  0  0  0  0  0  0  0  0  0
  -51.1129   59.9391   62.9033 C   0  0  0  0  0  0  0  0  0  0  0  0
  -49.8735   60.3548   62.1162 C   0  0  0  0  0  0  0  0  0  0  0  0
  -49.5560   59.4360   60.9495 C   0  0  0  0  0  0  0  0  0  0  0  0
  -49.3689   57.9830   61.3509 C   0  0  0  0  0  0  0  0  0  0  0  0
  -49.2286   57.0203   60.1835 C   0  0  0  0  0  0  0  0  0  0  0  0
  -48.8378   57.7010   58.8807 C   0  0  0  0  0  0  0  0  0  0  0  0
  -47.4268   57.3960   58.4183 C   0  0  0  0  0  0  0  0  0  0  0  0
  -47.0185   58.2091   57.2216 C   0  0  0  0  0  0  0  0  0  0  0  0
 21 22  1  0  0  0
  4  5  2  0  0  0
 25 24  1  0  0  0
 25 26  2  0  0  0
 25 27  1  0  0  0
 25 29  1  0  0  0
 22 20  1  0  0  0
  3  5  1  0  0  0
  3  2  1  0  0  0
 20 19  1  0  0  0
 24 23  1  0  0  0
 19 18  1  0  0  0
 18 17  1  0  0  0
 27 28  1  0  0  0
 17 16  1  0  0  0
 29 30  1  0  0  0
 16 15  1  0  0  0
 34 35  1  0  0  0
 34 36  1  0  0  0
 15 14  1  0  0  0
 31 32  1  0  0  0
 31 33  1  0  0  0
 14 13  1  0  0  0
 37  1  1  0  0  0
 37 39  1  0  0  0
 13 12  1  0  0  0
 38 39  2  0  0  0
 12 11  1  0  0  0
 11 10  1  0  0  0
 10  9  1  0  0  0
  9  8  1  0  0  0
  8  7  1  0  0  0
  7  6  1  0  0  0
  6  5  1  0  0  0
  2  1  1  0  0  0
  1 23  1  0  0  0
 30 32  1  0  0  0
 32 35  1  0  0  0
 39 40  1  0  0  0
 40 41  1  0  0  0
 41 42  1  0  0  0
 42 43  1  0  0  0
 43 44  1  0  0  0
 44 45  1  0  0  0
 45 46  1  0  0  0
 46 47  1  0  0  0
 47 48  2  0  0  0
 48 49  1  0  0  0
 49 50  1  0  0  0
 50 51  1  0  0  0
 51 52  1  0  0  0
 52 53  1  0  0  0
 53 54  1  0  0  0
 54 55  1  0  0  0
 55 56  1  0  0  0
M  CHG 1  26  -1
M  END
> <minimizedAffinity>
-8.57460

> <CNNscore>
0.3440647721

> <CNNaffinity>
7.4798021317

> <CNN_VS>
2.5735363960

> <CNNaffinity_variance>
1.4507496357

$$$$
/media/chris/experiments/cd1a-new-docking/inputs/ligands/7sh4_ligand.pdb


 56 55  0  0  0  0  0  0  0  0999 V2000
  -36.2512   62.6145   64.0500 C   0  0  0  0  0  0  0  0  0  0  0  0
  -37.2778   62.0206   63.1273 C   0  0  0  0  0  0  0  0  0  0  0  0
  -37.7813   60.8794   63.8534 O   0  0  0  0  0  0  0  0  0  0  0  0
  -39.1892   61.2625   65.5476 O   0  0  0  0  0  0  0  0  0  0  0  0
  -38.9954   60.9941   64.3926 C   0  0  0  0  0  0  0  0  0  0  0  0
  -40.0670   60.8693   63.3481 C   0  0  0  0  0  0  0  0  0  0  0  0
  -41.4802   60.8680   63.9061 C   0  0  0  0  0  0  0  0  0  0  0  0
  -42.5261   61.1703   62.8538 C   0  0  0  0  0  0  0  0  0  0  0  0
  -43.9280   61.3215   63.3996 C   0  0  0  0  0  0  0  0  0  0  0  0
  -43.9854   61.2609   64.9125 C   0  0  0  0  0  0  0  0  0  0  0  0
  -45.0940   60.3774   65.4302 C   0  0  0  0  0  0  0  0  0  0  0  0
  -46.3599   60.4871   64.6220 C   0  0  0  0  0  0  0  0  0  0  0  0
  -47.1586   59.2033   64.5800 C   0  0  0  0  0  0  0  0  0  0  0  0
  -48.1046   59.1409   63.3980 C   0  0  0  0  0  0  0  0  0  0  0  0
  -49.2486   60.1307   63.4692 C   0  0  0  0  0  0  0  0  0  0  0  0
  -50.5146   59.6609   62.7619 C   0  0  0  0  0  0  0  0  0  0  0  0
  -50.4795   58.2052   62.3379 C   0  0  0  0  0  0  0  0  0  0  0  0
  -50.6991   58.0053   60.8523 C   0  0  0  0  0  0  0  0  0  0  0  0
  -49.5455   57.2983   60.1546 C   0  0  0  0  0  0  0  0  0  0  0  0
  -48.8676   58.1447   59.0920 C   0  0  0  0  0  0  0  0  0  0  0  0
  -47.1535   58.0621   57.2507 C   0  0  0  0  0  0  0  0  0  0  0  0
  -47.4994   57.6495   58.6634 C   0  0  0  0  0  0  0  0  0  0  0  0
  -36.0040   64.0724   63.7584 C   0  0  0  0  0  0  0  0  0  0  0  0
  -34.6673   64.2209   63.2297 O   0  0  0  0  0  0  0  0  0  0  0  0
  -33.5766   65.1897   63.8882 P   0  0  0  0  0  0  0  0  0  0  0  0
  -33.7500   66.5377   63.3054 O   0  0  0  0  0  0  0  0  0  0  0  0
  -33.6516   65.0353   65.3610 O   0  0  0  0  0  0  0  0  0  0  0  0
  -34.5038   65.3728   65.6785 H   0  0  0  0  0  0  0  0  0  0  0  0
  -32.1649   64.6248   63.4077 O   0  0  0  0  0  0  0  0  0  0  0  0
  -32.0211   63.2282   63.0776 C   0  0  0  0  0  0  0  0  0  0  0  0
  -33.1283   63.1599   60.9535 O   0  0  0  0  0  0  0  0  0  0  0  0
  -31.8450   63.1082   61.5838 C   0  0  0  0  0  0  0  0  0  0  0  0
  -33.6973   62.4656   61.3212 H   0  0  0  0  0  0  0  0  0  0  0  0
  -31.7141   65.2316   60.4469 O   0  0  0  0  0  0  0  0  0  0  0  0
  -30.9454   64.1833   61.0228 C   0  0  0  0  0  0  0  0  0  0  0  0
  -31.1198   65.9114   60.0927 H   0  0  0  0  0  0  0  0  0  0  0  0
  -35.0210   61.8242   63.9414 O   0  0  0  0  0  0  0  0  0  0  0  0
  -34.3403   62.1482   66.0609 O   0  0  0  0  0  0  0  0  0  0  0  0
  -34.4362   61.4434   65.0935 C   0  0  0  0  0  0  0  0  0  0  0  0
  -33.9378   60.0330   65.0295 C   0  0  0  0  0  0  0  0  0  0  0  0
  -33.8690   59.5292   63.5914 C   0  0  0  0  0  0  0  0  0  0  0  0
  -34.3429   58.0957   63.4172 C   0  0  0  0  0  0  0  0  0  0  0  0
  -35.3920   57.6719   64.4389 C   0  0  0  0  0  0  0  0  0  0  0  0
  -36.8113   57.6725   63.9024 C   0  0  0  0  0  0  0  0  0  0  0  0
  -36.9165   57.5506   62.3795 C   0  0  0  0  0  0  0  0  0  0  0  0
  -38.2142   58.0866   61.7711 C   0  0  0  0  0  0  0  0  0  0  0  0
  -37.9600   59.1500   60.7452 C   0  0  0  0  0  0  0  0  0  0  0  0
  -38.5045   59.2343   59.5469 C   0  0  0  0  0  0  0  0  0  0  0  0
  -39.4966   58.2812   58.9593 C   0  0  0  0  0  0  0  0  0  0  0  0
  -40.9234   58.5702   59.4168 C   0  0  0  0  0  0  0  0  0  0  0  0
  -41.5632   57.4229   60.1788 C   0  0  0  0  0  0  0  0  0  0  0  0
  -41.8663   57.7492   61.6310 C   0  0  0  0  0  0  0  0  0  0  0  0
  -41.3699   56.7133   62.6260 C   0  0  0  0  0  0  0  0  0  0  0  0
  -41.1787   57.2653   64.0303 C   0  0  0  0  0  0  0  0  0  0  0  0
  -42.1547   56.7174   65.0524 C   0  0  0  0  0  0  0  0  0  0  0  0
  -43.5318   57.3042   64.9143 C   0  0  0  0  0  0  0  0  0  0  0  0
 21 22  1  0  0  0
  4  5  2  0  0  0
 25 24  1  0  0  0
 25 26  2  0  0  0
 25 27  1  0  0  0
 25 29  1  0  0  0
 22 20  1  0  0  0
  3  5  1  0  0  0
  3  2  1  0  0  0
 20 19  1  0  0  0
 24 23  1  0  0  0
 19 18  1  0  0  0
 18 17  1  0  0  0
 27 28  1  0  0  0
 17 16  1  0  0  0
 29 30  1  0  0  0
 16 15  1  0  0  0
 34 35  1  0  0  0
 34 36  1  0  0  0
 15 14  1  0  0  0
 31 32  1  0  0  0
 31 33  1  0  0  0
 14 13  1  0  0  0
 37  1  1  0  0  0
 37 39  1  0  0  0
 13 12  1  0  0  0
 38 39  2  0  0  0
 12 11  1  0  0  0
 11 10  1  0  0  0
 10  9  1  0  0  0
  9  8  1  0  0  0
  8  7  1  0  0  0
  7  6  1  0  0  0
  6  5  1  0  0  0
  2  1  1  0  0  0
  1 23  1  0  0  0
 30 32  1  0  0  0
 32 35  1  0  0  0
 39 40  1  0  0  0
 40 41  1  0  0  0
 41 42  1  0  0  0
 42 43  1  0  0  0
 43 44  1  0  0  0
 44 45  1  0  0  0
 45 46  1  0  0  0
 46 47  1  0  0  0
 47 48  2  0  0  0
 48 49  1  0  0  0
 49 50  1  0  0  0
 50 51  1  0  0  0
 51 52  1  0  0  0
 52 53  1  0  0  0
 53 54  1  0  0  0
 54 55  1  0  0  0
 55 56  1  0  0  0
M  CHG 1  26  -1
M  END
> <minimizedAffinity>
-7.91362

> <CNNscore>
0.3314791620

> <CNNaffinity>
7.2937192917

> <CNN_VS>
2.4177160263

> <CNNaffinity_variance>
1.0185004473

$$$$
/media/chris/experiments/cd1a-new-docking/inputs/ligands/7sh4_ligand.pdb


 56 55  0  0  0  0  0  0  0  0999 V2000
  -36.0980   62.0939   64.0602 C   0  0  0  0  0  0  0  0  0  0  0  0
  -37.1133   61.4806   64.9825 C   0  0  0  0  0  0  0  0  0  0  0  0
  -38.3714   61.6933   64.3079 O   0  0  0  0  0  0  0  0  0  0  0  0
  -39.6817   60.9479   65.9592 O   0  0  0  0  0  0  0  0  0  0  0  0
  -39.4318   61.0428   64.7878 C   0  0  0  0  0  0  0  0  0  0  0  0
  -40.3219   60.5628   63.6778 C   0  0  0  0  0  0  0  0  0  0  0  0
  -41.7895   60.4637   64.0582 C   0  0  0  0  0  0  0  0  0  0  0  0
  -42.6834   61.3024   63.1693 C   0  0  0  0  0  0  0  0  0  0  0  0
  -44.0221   61.6445   63.7833 C   0  0  0  0  0  0  0  0  0  0  0  0
  -44.6994   60.4538   64.4309 C   0  0  0  0  0  0  0  0  0  0  0  0
  -46.2059   60.5274   64.3808 C   0  0  0  0  0  0  0  0  0  0  0  0
  -46.8697   59.2081   64.6742 C   0  0  0  0  0  0  0  0  0  0  0  0
  -48.0461   59.3245   65.6180 C   0  0  0  0  0  0  0  0  0  0  0  0
  -49.3171   58.7312   65.0450 C   0  0  0  0  0  0  0  0  0  0  0  0
  -50.4813   59.6983   64.9917 C   0  0  0  0  0  0  0  0  0  0  0  0
  -51.1756   59.7525   63.6357 C   0  0  0  0  0  0  0  0  0  0  0  0
  -50.3033   59.3047   62.4785 C   0  0  0  0  0  0  0  0  0  0  0  0
  -50.8314   58.0759   61.7670 C   0  0  0  0  0  0  0  0  0  0  0  0
  -50.3720   57.9640   60.3200 C   0  0  0  0  0  0  0  0  0  0  0  0
  -49.2514   58.9239   59.9622 C   0  0  0  0  0  0  0  0  0  0  0  0
  -48.0733   56.9645   58.9093 C   0  0  0  0  0  0  0  0  0  0  0  0
  -48.3432   58.4507   58.8433 C   0  0  0  0  0  0  0  0  0  0  0  0
  -36.6992   63.1676   63.1900 C   0  0  0  0  0  0  0  0  0  0  0  0
  -36.0200   64.4154   63.4549 O   0  0  0  0  0  0  0  0  0  0  0  0
  -34.8060   64.9494   62.5588 P   0  0  0  0  0  0  0  0  0  0  0  0
  -34.3959   63.8598   61.6471 O   0  0  0  0  0  0  0  0  0  0  0  0
  -35.2015   66.2545   61.9766 O   0  0  0  0  0  0  0  0  0  0  0  0
  -35.9297   66.1216   61.3498 H   0  0  0  0  0  0  0  0  0  0  0  0
  -33.6100   65.2111   63.5805 O   0  0  0  0  0  0  0  0  0  0  0  0
  -32.9213   64.0976   64.1855 C   0  0  0  0  0  0  0  0  0  0  0  0
  -33.1120   65.7275   65.9318 O   0  0  0  0  0  0  0  0  0  0  0  0
  -32.8160   64.3526   65.6690 C   0  0  0  0  0  0  0  0  0  0  0  0
  -32.5187   66.2912   65.4112 H   0  0  0  0  0  0  0  0  0  0  0  0
  -33.2879   63.3681   67.8199 O   0  0  0  0  0  0  0  0  0  0  0  0
  -33.7313   63.4598   66.4721 C   0  0  0  0  0  0  0  0  0  0  0  0
  -33.8874   62.7915   68.3190 H   0  0  0  0  0  0  0  0  0  0  0  0
  -35.4948   61.0232   63.2604 O   0  0  0  0  0  0  0  0  0  0  0  0
  -33.2844   60.8609   62.8753 O   0  0  0  0  0  0  0  0  0  0  0  0
  -34.2374   60.6587   63.5772 C   0  0  0  0  0  0  0  0  0  0  0  0
  -34.1681   59.9892   64.9147 C   0  0  0  0  0  0  0  0  0  0  0  0
  -33.8958   58.4946   64.7781 C   0  0  0  0  0  0  0  0  0  0  0  0
  -34.9974   57.7303   64.0622 C   0  0  0  0  0  0  0  0  0  0  0  0
  -36.3430   57.7883   64.7765 C   0  0  0  0  0  0  0  0  0  0  0  0
  -37.5321   57.9177   63.8428 C   0  0  0  0  0  0  0  0  0  0  0  0
  -37.1855   58.4099   62.4348 C   0  0  0  0  0  0  0  0  0  0  0  0
  -38.0362   57.8169   61.3095 C   0  0  0  0  0  0  0  0  0  0  0  0
  -38.0463   58.6887   60.0897 C   0  0  0  0  0  0  0  0  0  0  0  0
  -39.0834   59.3333   59.5912 C   0  0  0  0  0  0  0  0  0  0  0  0
  -40.4736   59.3299   60.1439 C   0  0  0  0  0  0  0  0  0  0  0  0
  -41.3273   58.2048   59.5660 C   0  0  0  0  0  0  0  0  0  0  0  0
  -41.5491   57.0518   60.5293 C   0  0  0  0  0  0  0  0  0  0  0  0
  -41.7027   57.4872   61.9764 C   0  0  0  0  0  0  0  0  0  0  0  0
  -41.0768   56.5417   62.9882 C   0  0  0  0  0  0  0  0  0  0  0  0
  -41.4729   56.8440   64.4253 C   0  0  0  0  0  0  0  0  0  0  0  0
  -42.9600   57.0557   64.6293 C   0  0  0  0  0  0  0  0  0  0  0  0
  -43.2978   57.5016   66.0246 C   0  0  0  0  0  0  0  0  0  0  0  0
 21 22  1  0  0  0
  4  5  2  0  0  0
 25 24  1  0  0  0
 25 26  2  0  0  0
 25 27  1  0  0  0
 25 29  1  0  0  0
 22 20  1  0  0  0
  3  5  1  0  0  0
  3  2  1  0  0  0
 20 19  1  0  0  0
 24 23  1  0  0  0
 19 18  1  0  0  0
 18 17  1  0  0  0
 27 28  1  0  0  0
 17 16  1  0  0  0
 29 30  1  0  0  0
 16 15  1  0  0  0
 34 35  1  0  0  0
 34 36  1  0  0  0
 15 14  1  0  0  0
 31 32  1  0  0  0
 31 33  1  0  0  0
 14 13  1  0  0  0
 37  1  1  0  0  0
 37 39  1  0  0  0
 13 12  1  0  0  0
 38 39  2  0  0  0
 12 11  1  0  0  0
 11 10  1  0  0  0
 10  9  1  0  0  0
  9  8  1  0  0  0
  8  7  1  0  0  0
  7  6  1  0  0  0
  6  5  1  0  0  0
  2  1  1  0  0  0
  1 23  1  0  0  0
 30 32  1  0  0  0
 32 35  1  0  0  0
 39 40  1  0  0  0
 40 41  1  0  0  0
 41 42  1  0  0  0
 42 43  1  0  0  0
 43 44  1  0  0  0
 44 45  1  0  0  0
 45 46  1  0  0  0
 46 47  1  0  0  0
 47 48  2  0  0  0
 48 49  1  0  0  0
 49 50  1  0  0  0
 50 51  1  0  0  0
 51 52  1  0  0  0
 52 53  1  0  0  0
 53 54  1  0  0  0
 54 55  1  0  0  0
 55 56  1  0  0  0
M  CHG 1  26  -1
M  END
> <minimizedAffinity>
-8.35206

> <CNNscore>
0.2999449670

> <CNNaffinity>
7.4110312462

> <CNN_VS>
2.2229015827

> <CNNaffinity_variance>
1.0602732897

$$$$
/media/chris/experiments/cd1a-new-docking/inputs/ligands/7sh4_ligand.pdb


 56 55  0  0  0  0  0  0  0  0999 V2000
  -39.4624   59.9711   61.5033 C   0  0  0  0  0  0  0  0  0  0  0  0
  -40.7118   60.5321   60.8852 C   0  0  0  0  0  0  0  0  0  0  0  0
  -41.6541   60.5724   61.9777 O   0  0  0  0  0  0  0  0  0  0  0  0
  -42.7286   62.3657   61.1848 O   0  0  0  0  0  0  0  0  0  0  0  0
  -42.3783   61.6841   62.1101 C   0  0  0  0  0  0  0  0  0  0  0  0
  -42.7953   61.8932   63.5375 C   0  0  0  0  0  0  0  0  0  0  0  0
  -44.0312   61.1087   63.9441 C   0  0  0  0  0  0  0  0  0  0  0  0
  -43.9657   60.6104   65.3724 C   0  0  0  0  0  0  0  0  0  0  0  0
  -44.8728   59.4357   65.6607 C   0  0  0  0  0  0  0  0  0  0  0  0
  -46.1785   59.8407   66.3140 C   0  0  0  0  0  0  0  0  0  0  0  0
  -47.3925   59.2870   65.6089 C   0  0  0  0  0  0  0  0  0  0  0  0
  -47.4136   59.6034   64.1369 C   0  0  0  0  0  0  0  0  0  0  0  0
  -48.4753   60.6105   63.7543 C   0  0  0  0  0  0  0  0  0  0  0  0
  -49.7720   60.4105   64.5122 C   0  0  0  0  0  0  0  0  0  0  0  0
  -50.9315   59.9644   63.6462 C   0  0  0  0  0  0  0  0  0  0  0  0
  -50.7648   58.5642   63.0670 C   0  0  0  0  0  0  0  0  0  0  0  0
  -50.6869   58.5290   61.5527 C   0  0  0  0  0  0  0  0  0  0  0  0
  -49.7918   57.4283   61.0214 C   0  0  0  0  0  0  0  0  0  0  0  0
  -49.6118   57.4640   59.5102 C   0  0  0  0  0  0  0  0  0  0  0  0
  -48.5004   58.3915   59.0524 C   0  0  0  0  0  0  0  0  0  0  0  0
  -47.0008   58.3796   57.0308 C   0  0  0  0  0  0  0  0  0  0  0  0
  -47.3540   57.7033   58.3361 C   0  0  0  0  0  0  0  0  0  0  0  0
  -38.3600   60.9960   61.5814 C   0  0  0  0  0  0  0  0  0  0  0  0
  -38.3908   61.6136   62.8875 O   0  0  0  0  0  0  0  0  0  0  0  0
  -37.1170   62.3326   63.5373 P   0  0  0  0  0  0  0  0  0  0  0  0
  -35.9502   61.4404   63.3652 O   0  0  0  0  0  0  0  0  0  0  0  0
  -37.0431   63.7132   63.0016 O   0  0  0  0  0  0  0  0  0  0  0  0
  -36.8495   63.6815   62.0517 H   0  0  0  0  0  0  0  0  0  0  0  0
  -37.4359   62.4286   65.0967 O   0  0  0  0  0  0  0  0  0  0  0  0
  -36.5283   61.8485   66.0559 C   0  0  0  0  0  0  0  0  0  0  0  0
  -36.0663   63.0096   68.1006 O   0  0  0  0  0  0  0  0  0  0  0  0
  -35.7473   62.9636   66.7066 C   0  0  0  0  0  0  0  0  0  0  0  0
  -37.0250   63.1096   68.2097 H   0  0  0  0  0  0  0  0  0  0  0  0
  -33.5494   63.4011   67.5991 O   0  0  0  0  0  0  0  0  0  0  0  0
  -34.2573   62.8079   66.5180 C   0  0  0  0  0  0  0  0  0  0  0  0
  -32.5958   63.2911   67.4602 H   0  0  0  0  0  0  0  0  0  0  0  0
  -39.0537   58.7939   60.7306 O   0  0  0  0  0  0  0  0  0  0  0  0
  -40.4805   57.5066   59.5612 O   0  0  0  0  0  0  0  0  0  0  0  0
  -39.9584   57.8046   60.6006 C   0  0  0  0  0  0  0  0  0  0  0  0
  -40.2206   57.1104   61.9011 C   0  0  0  0  0  0  0  0  0  0  0  0
  -41.7088   57.0927   62.2350 C   0  0  0  0  0  0  0  0  0  0  0  0
  -42.0382   57.6452   63.6121 C   0  0  0  0  0  0  0  0  0  0  0  0
  -40.8536   57.6367   64.5717 C   0  0  0  0  0  0  0  0  0  0  0  0
  -40.4592   59.0120   65.0771 C   0  0  0  0  0  0  0  0  0  0  0  0
  -38.9495   59.2637   65.1255 C   0  0  0  0  0  0  0  0  0  0  0  0
  -38.0757   58.0176   64.9668 C   0  0  0  0  0  0  0  0  0  0  0  0
  -37.2542   58.0597   63.7132 C   0  0  0  0  0  0  0  0  0  0  0  0
  -35.9399   57.9883   63.6304 C   0  0  0  0  0  0  0  0  0  0  0  0
  -34.9896   57.8480   64.7773 C   0  0  0  0  0  0  0  0  0  0  0  0
  -33.8450   58.8550   64.7118 C   0  0  0  0  0  0  0  0  0  0  0  0
  -32.7934   58.5154   63.6701 C   0  0  0  0  0  0  0  0  0  0  0  0
  -32.6663   59.5555   62.5704 C   0  0  0  0  0  0  0  0  0  0  0  0
  -32.3634   60.9604   63.0644 C   0  0  0  0  0  0  0  0  0  0  0  0
  -32.3909   62.0088   61.9628 C   0  0  0  0  0  0  0  0  0  0  0  0
  -32.8289   63.3847   62.4243 C   0  0  0  0  0  0  0  0  0  0  0  0
  -33.6664   64.1015   61.4023 C   0  0  0  0  0  0  0  0  0  0  0  0
 21 22  1  0  0  0
  4  5  2  0  0  0
 25 24  1  0  0  0
 25 26  2  0  0  0
 25 27  1  0  0  0
 25 29  1  0  0  0
 22 20  1  0  0  0
  3  5  1  0  0  0
  3  2  1  0  0  0
 20 19  1  0  0  0
 24 23  1  0  0  0
 19 18  1  0  0  0
 18 17  1  0  0  0
 27 28  1  0  0  0
 17 16  1  0  0  0
 29 30  1  0  0  0
 16 15  1  0  0  0
 34 35  1  0  0  0
 34 36  1  0  0  0
 15 14  1  0  0  0
 31 32  1  0  0  0
 31 33  1  0  0  0
 14 13  1  0  0  0
 37  1  1  0  0  0
 37 39  1  0  0  0
 13 12  1  0  0  0
 38 39  2  0  0  0
 12 11  1  0  0  0
 11 10  1  0  0  0
 10  9  1  0  0  0
  9  8  1  0  0  0
  8  7  1  0  0  0
  7  6  1  0  0  0
  6  5  1  0  0  0
  2  1  1  0  0  0
  1 23  1  0  0  0
 30 32  1  0  0  0
 32 35  1  0  0  0
 39 40  1  0  0  0
 40 41  1  0  0  0
 41 42  1  0  0  0
 42 43  1  0  0  0
 43 44  1  0  0  0
 44 45  1  0  0  0
 45 46  1  0  0  0
 46 47  1  0  0  0
 47 48  2  0  0  0
 48 49  1  0  0  0
 49 50  1  0  0  0
 50 51  1  0  0  0
 51 52  1  0  0  0
 52 53  1  0  0  0
 53 54  1  0  0  0
 54 55  1  0  0  0
 55 56  1  0  0  0
M  CHG 1  26  -1
M  END
> <minimizedAffinity>
-8.41942

> <CNNscore>
0.2917509675

> <CNNaffinity>
7.1277770996

> <CNN_VS>
2.0795359612

> <CNNaffinity_variance>
1.5136181116

$$$$
/media/chris/experiments/cd1a-new-docking/inputs/ligands/7sh4_ligand.pdb


 56 55  0  0  0  0  0  0  0  0999 V2000
  -39.3946   60.3931   61.9523 C   0  0  0  0  0  0  0  0  0  0  0  0
  -40.7981   60.6885   61.5045 C   0  0  0  0  0  0  0  0  0  0  0  0
  -41.4885   61.0336   62.7240 O   0  0  0  0  0  0  0  0  0  0  0  0
  -42.9304   62.3052   61.5824 O   0  0  0  0  0  0  0  0  0  0  0  0
  -42.5910   61.7741   62.6053 C   0  0  0  0  0  0  0  0  0  0  0  0
  -43.4009   61.7480   63.8695 C   0  0  0  0  0  0  0  0  0  0  0  0
  -44.4557   60.6552   63.9083 C   0  0  0  0  0  0  0  0  0  0  0  0
  -44.9775   60.3933   65.3053 C   0  0  0  0  0  0  0  0  0  0  0  0
  -45.9008   59.2005   65.4081 C   0  0  0  0  0  0  0  0  0  0  0  0
  -47.1447   59.3377   64.5538 C   0  0  0  0  0  0  0  0  0  0  0  0
  -48.1006   60.3896   65.0608 C   0  0  0  0  0  0  0  0  0  0  0  0
  -49.0390   59.8715   66.1184 C   0  0  0  0  0  0  0  0  0  0  0  0
  -50.3536   59.3715   65.5620 C   0  0  0  0  0  0  0  0  0  0  0  0
  -50.9850   60.3451   64.5876 C   0  0  0  0  0  0  0  0  0  0  0  0
  -51.1766   59.7869   63.1930 C   0  0  0  0  0  0  0  0  0  0  0  0
  -50.5382   58.4185   62.9841 C   0  0  0  0  0  0  0  0  0  0  0  0
  -50.5455   57.9488   61.5420 C   0  0  0  0  0  0  0  0  0  0  0  0
  -49.7744   58.8593   60.6085 C   0  0  0  0  0  0  0  0  0  0  0  0
  -49.6885   58.3382   59.1807 C   0  0  0  0  0  0  0  0  0  0  0  0
  -48.2654   58.1858   58.6740 C   0  0  0  0  0  0  0  0  0  0  0  0
  -47.0160   56.2295   57.7008 C   0  0  0  0  0  0  0  0  0  0  0  0
  -47.6383   56.8306   58.9406 C   0  0  0  0  0  0  0  0  0  0  0  0
  -38.8859   61.4179   62.9336 C   0  0  0  0  0  0  0  0  0  0  0  0
  -37.6180   61.9252   62.4609 O   0  0  0  0  0  0  0  0  0  0  0  0
  -36.6238   62.7728   63.3856 P   0  0  0  0  0  0  0  0  0  0  0  0
  -35.2808   62.1605   63.2956 O   0  0  0  0  0  0  0  0  0  0  0  0
  -36.7783   64.2057   63.0368 O   0  0  0  0  0  0  0  0  0  0  0  0
  -36.4600   64.3546   62.1327 H   0  0  0  0  0  0  0  0  0  0  0  0
  -37.1568   62.5709   64.8748 O   0  0  0  0  0  0  0  0  0  0  0  0
  -36.2515   62.1448   65.9136 C   0  0  0  0  0  0  0  0  0  0  0  0
  -36.1641   63.0183   68.1433 O   0  0  0  0  0  0  0  0  0  0  0  0
  -35.9155   63.3398   66.7715 C   0  0  0  0  0  0  0  0  0  0  0  0
  -37.0845   62.7296   68.2460 H   0  0  0  0  0  0  0  0  0  0  0  0
  -33.6706   63.3097   67.6536 O   0  0  0  0  0  0  0  0  0  0  0  0
  -34.4859   63.7918   66.5932 C   0  0  0  0  0  0  0  0  0  0  0  0
  -32.7577   63.6097   67.5217 H   0  0  0  0  0  0  0  0  0  0  0  0
  -38.5391   60.3093   60.7645 O   0  0  0  0  0  0  0  0  0  0  0  0
  -38.0237   58.9657   59.0355 O   0  0  0  0  0  0  0  0  0  0  0  0
  -38.4865   59.1210   60.1325 C   0  0  0  0  0  0  0  0  0  0  0  0
  -39.0563   58.0164   60.9674 C   0  0  0  0  0  0  0  0  0  0  0  0
  -40.2680   57.3771   60.2969 C   0  0  0  0  0  0  0  0  0  0  0  0
  -41.1006   56.5095   61.2265 C   0  0  0  0  0  0  0  0  0  0  0  0
  -41.7880   57.2931   62.3390 C   0  0  0  0  0  0  0  0  0  0  0  0
  -42.0762   56.4740   63.5833 C   0  0  0  0  0  0  0  0  0  0  0  0
  -42.9527   57.1802   64.6216 C   0  0  0  0  0  0  0  0  0  0  0  0
  -42.2326   57.6006   65.9046 C   0  0  0  0  0  0  0  0  0  0  0  0
  -41.6569   58.9813   65.8027 C   0  0  0  0  0  0  0  0  0  0  0  0
  -40.4359   59.2988   65.4183 C   0  0  0  0  0  0  0  0  0  0  0  0
  -39.3653   58.3414   64.9997 C   0  0  0  0  0  0  0  0  0  0  0  0
  -37.9709   58.8169   65.3970 C   0  0  0  0  0  0  0  0  0  0  0  0
  -36.8500   58.0847   64.6801 C   0  0  0  0  0  0  0  0  0  0  0  0
  -36.2889   58.8440   63.4902 C   0  0  0  0  0  0  0  0  0  0  0  0
  -35.5233   57.9837   62.4985 C   0  0  0  0  0  0  0  0  0  0  0  0
  -34.0282   57.9286   62.7724 C   0  0  0  0  0  0  0  0  0  0  0  0
  -33.3374   59.2771   62.7272 C   0  0  0  0  0  0  0  0  0  0  0  0
  -31.8714   59.1905   63.0482 C   0  0  0  0  0  0  0  0  0  0  0  0
 21 22  1  0  0  0
  4  5  2  0  0  0
 25 24  1  0  0  0
 25 26  2  0  0  0
 25 27  1  0  0  0
 25 29  1  0  0  0
 22 20  1  0  0  0
  3  5  1  0  0  0
  3  2  1  0  0  0
 20 19  1  0  0  0
 24 23  1  0  0  0
 19 18  1  0  0  0
 18 17  1  0  0  0
 27 28  1  0  0  0
 17 16  1  0  0  0
 29 30  1  0  0  0
 16 15  1  0  0  0
 34 35  1  0  0  0
 34 36  1  0  0  0
 15 14  1  0  0  0
 31 32  1  0  0  0
 31 33  1  0  0  0
 14 13  1  0  0  0
 37  1  1  0  0  0
 37 39  1  0  0  0
 13 12  1  0  0  0
 38 39  2  0  0  0
 12 11  1  0  0  0
 11 10  1  0  0  0
 10  9  1  0  0  0
  9  8  1  0  0  0
  8  7  1  0  0  0
  7  6  1  0  0  0
  6  5  1  0  0  0
  2  1  1  0  0  0
  1 23  1  0  0  0
 30 32  1  0  0  0
 32 35  1  0  0  0
 39 40  1  0  0  0
 40 41  1  0  0  0
 41 42  1  0  0  0
 42 43  1  0  0  0
 43 44  1  0  0  0
 44 45  1  0  0  0
 45 46  1  0  0  0
 46 47  1  0  0  0
 47 48  2  0  0  0
 48 49  1  0  0  0
 49 50  1  0  0  0
 50 51  1  0  0  0
 51 52  1  0  0  0
 52 53  1  0  0  0
 53 54  1  0  0  0
 54 55  1  0  0  0
 55 56  1  0  0  0
M  CHG 1  26  -1
M  END
> <minimizedAffinity>
-8.96446

> <CNNscore>
0.2786610425

> <CNNaffinity>
7.3051519394

> <CNN_VS>
2.0356612206

> <CNNaffinity_variance>
1.6729472876

$$$$
