/media/chris/experiments/cd1a-new-docking/inputs/ligands/7sh4_ligand.pdb


 56 55  0  0  0  0  0  0  0  0999 V2000
  -39.9268   59.8887   65.3358 C   0  0  0  0  0  0  0  0  0  0  0  0
  -41.0471   59.9653   66.3342 C   0  0  0  0  0  0  0  0  0  0  0  0
  -41.5451   61.3131   66.1975 O   0  0  0  0  0  0  0  0  0  0  0  0
  -43.0532   62.3390   64.9044 O   0  0  0  0  0  0  0  0  0  0  0  0
  -42.7594   61.4574   65.6660 C   0  0  0  0  0  0  0  0  0  0  0  0
  -43.6567   60.3143   66.0443 C   0  0  0  0  0  0  0  0  0  0  0  0
  -44.7451   60.0170   65.0269 C   0  0  0  0  0  0  0  0  0  0  0  0
  -45.6183   58.8467   65.4276 C   0  0  0  0  0  0  0  0  0  0  0  0
  -46.5846   59.1507   66.5499 C   0  0  0  0  0  0  0  0  0  0  0  0
  -47.6611   60.1409   66.1542 C   0  0  0  0  0  0  0  0  0  0  0  0
  -48.0796   60.0176   64.7094 C   0  0  0  0  0  0  0  0  0  0  0  0
  -49.0396   61.0957   64.2808 C   0  0  0  0  0  0  0  0  0  0  0  0
  -50.3861   60.5620   63.8449 C   0  0  0  0  0  0  0  0  0  0  0  0
  -50.4791   59.0530   63.9493 C   0  0  0  0  0  0  0  0  0  0  0  0
  -51.0391   58.3815   62.7129 C   0  0  0  0  0  0  0  0  0  0  0  0
  -49.9745   57.9479   61.7116 C   0  0  0  0  0  0  0  0  0  0  0  0
  -50.5108   57.6828   60.3180 C   0  0  0  0  0  0  0  0  0  0  0  0
  -49.7797   58.4502   59.2355 C   0  0  0  0  0  0  0  0  0  0  0  0
  -48.2637   58.3571   59.3395 C   0  0  0  0  0  0  0  0  0  0  0  0
  -47.7001   57.0393   58.8383 C   0  0  0  0  0  0  0  0  0  0  0  0
  -46.8420   58.3666   56.8793 C   0  0  0  0  0  0  0  0  0  0  0  0
  -47.3367   57.0233   57.3657 C   0  0  0  0  0  0  0  0  0  0  0  0
  -38.8092   60.8452   65.6644 C   0  0  0  0  0  0  0  0  0  0  0  0
  -38.3802   61.4950   64.4470 O   0  0  0  0  0  0  0  0  0  0  0  0
  -36.9696   62.2393   64.3117 P   0  0  0  0  0  0  0  0  0  0  0  0
  -36.0875   61.3995   63.4730 O   0  0  0  0  0  0  0  0  0  0  0  0
  -37.2247   63.6398   63.8969 O   0  0  0  0  0  0  0  0  0  0  0  0
  -37.5947   63.6493   63.0003 H   0  0  0  0  0  0  0  0  0  0  0  0
  -36.3637   62.2676   65.7863 O   0  0  0  0  0  0  0  0  0  0  0  0
  -34.9381   62.1736   65.9825 C   0  0  0  0  0  0  0  0  0  0  0  0
  -33.7104   64.1670   65.4706 O   0  0  0  0  0  0  0  0  0  0  0  0
  -34.4411   63.4997   66.5039 C   0  0  0  0  0  0  0  0  0  0  0  0
  -32.9927   63.5931   65.1599 H   0  0  0  0  0  0  0  0  0  0  0  0
  -36.2525   63.7561   68.0759 O   0  0  0  0  0  0  0  0  0  0  0  0
  -35.5634   64.3795   66.9998 C   0  0  0  0  0  0  0  0  0  0  0  0
  -36.9685   64.3354   68.3803 H   0  0  0  0  0  0  0  0  0  0  0  0
  -40.4799   60.1400   64.0013 O   0  0  0  0  0  0  0  0  0  0  0  0
  -42.1951   59.3416   62.7843 O   0  0  0  0  0  0  0  0  0  0  0  0
  -41.2124   59.1542   63.4485 C   0  0  0  0  0  0  0  0  0  0  0  0
  -40.6453   57.8005   63.7452 C   0  0  0  0  0  0  0  0  0  0  0  0
  -41.4462   56.6970   63.0616 C   0  0  0  0  0  0  0  0  0  0  0  0
  -40.7765   56.1270   61.8219 C   0  0  0  0  0  0  0  0  0  0  0  0
  -41.5135   56.4509   60.5274 C   0  0  0  0  0  0  0  0  0  0  0  0
  -40.7197   57.3147   59.5650 C   0  0  0  0  0  0  0  0  0  0  0  0
  -40.9890   58.8171   59.6876 C   0  0  0  0  0  0  0  0  0  0  0  0
  -39.7409   59.7014   59.7332 C   0  0  0  0  0  0  0  0  0  0  0  0
  -38.4858   58.9201   59.4835 C   0  0  0  0  0  0  0  0  0  0  0  0
  -37.5923   58.5568   60.3832 C   0  0  0  0  0  0  0  0  0  0  0  0
  -37.6468   58.8493   61.8494 C   0  0  0  0  0  0  0  0  0  0  0  0
  -36.9929   57.7538   62.6864 C   0  0  0  0  0  0  0  0  0  0  0  0
  -35.4982   57.9427   62.8771 C   0  0  0  0  0  0  0  0  0  0  0  0
  -35.0866   58.1239   64.3280 C   0  0  0  0  0  0  0  0  0  0  0  0
  -33.6509   58.5822   64.5227 C   0  0  0  0  0  0  0  0  0  0  0  0
  -32.7610   58.3142   63.3187 C   0  0  0  0  0  0  0  0  0  0  0  0
  -31.7238   59.3890   63.0602 C   0  0  0  0  0  0  0  0  0  0  0  0
  -32.2259   60.4748   62.1499 C   0  0  0  0  0  0  0  0  0  0  0  0
 21 22  1  0  0  0
  4  5  2  0  0  0
 25 24  1  0  0  0
 25 26  2  0  0  0
 25 27  1  0  0  0
 25 29  1  0  0  0
 22 20  1  0  0  0
  3  5  1  0  0  0
  3  2  1  0  0  0
 20 19  1  0  0  0
 24 23  1  0  0  0
 19 18  1  0  0  0
 18 17  1  0  0  0
 27 28  1  0  0  0
 17 16  1  0  0  0
 29 30  1  0  0  0
 16 15  1  0  0  0
 34 35  1  0  0  0
 34 36  1  0  0  0
 15 14  1  0  0  0
 31 32  1  0  0  0
 31 33  1  0  0  0
 14 13  1  0  0  0
 37  1  1  0  0  0
 37 39  1  0  0  0
 13 12  1  0  0  0
 38 39  2  0  0  0
 12 11  1  0  0  0
 11 10  1  0  0  0
 10  9  1  0  0  0
  9  8  1  0  0  0
  8  7  1  0  0  0
  7  6  1  0  0  0
  6  5  1  0  0  0
  2  1  1  0  0  0
  1 23  1  0  0  0
 30 32  1  0  0  0
 32 35  1  0  0  0
 39 40  1  0  0  0
 40 41  1  0  0  0
 41 42  1  0  0  0
 42 43  1  0  0  0
 43 44  1  0  0  0
 44 45  1  0  0  0
 45 46  1  0  0  0
 46 47  1  0  0  0
 47 48  2  0  0  0
 48 49  1  0  0  0
 49 50  1  0  0  0
 50 51  1  0  0  0
 51 52  1  0  0  0
 52 53  1  0  0  0
 53 54  1  0  0  0
 54 55  1  0  0  0
 55 56  1  0  0  0
M  CHG 1  26  -1
M  END
> <minimizedAffinity>
-8.57079

> <CNNscore>
0.6348217130

> <CNNaffinity>
7.7323088646

> <CNN_VS>
4.9086375237

> <CNNaffinity_variance>
0.9782635570

$$$$
/media/chris/experiments/cd1a-new-docking/inputs/ligands/7sh4_ligand.pdb


 56 55  0  0  0  0  0  0  0  0999 V2000
  -40.9054   60.1618   64.5745 C   0  0  0  0  0  0  0  0  0  0  0  0
  -40.5674   59.6443   63.2050 C   0  0  0  0  0  0  0  0  0  0  0  0
  -40.5531   60.8274   62.3783 O   0  0  0  0  0  0  0  0  0  0  0  0
  -42.0941   61.6421   60.9780 O   0  0  0  0  0  0  0  0  0  0  0  0
  -41.2904   60.7973   61.2677 C   0  0  0  0  0  0  0  0  0  0  0  0
  -40.8938   59.6497   60.3841 C   0  0  0  0  0  0  0  0  0  0  0  0
  -39.5861   59.8624   59.6406 C   0  0  0  0  0  0  0  0  0  0  0  0
  -38.7763   58.5904   59.5031 C   0  0  0  0  0  0  0  0  0  0  0  0
  -38.4777   57.9014   60.8154 C   0  0  0  0  0  0  0  0  0  0  0  0
  -37.2545   58.4599   61.5139 C   0  0  0  0  0  0  0  0  0  0  0  0
  -37.1304   58.0063   62.9480 C   0  0  0  0  0  0  0  0  0  0  0  0
  -35.7336   57.5760   63.3102 C   0  0  0  0  0  0  0  0  0  0  0  0
  -34.6702   58.5589   62.8729 C   0  0  0  0  0  0  0  0  0  0  0  0
  -33.5613   58.7141   63.8939 C   0  0  0  0  0  0  0  0  0  0  0  0
  -32.2086   59.0342   63.2931 C   0  0  0  0  0  0  0  0  0  0  0  0
  -32.2803   59.8983   62.0393 C   0  0  0  0  0  0  0  0  0  0  0  0
  -31.2575   61.0176   62.0029 C   0  0  0  0  0  0  0  0  0  0  0  0
  -31.6839   62.2481   62.7769 C   0  0  0  0  0  0  0  0  0  0  0  0
  -33.1802   62.5213   62.7125 C   0  0  0  0  0  0  0  0  0  0  0  0
  -33.5288   63.9991   62.7174 C   0  0  0  0  0  0  0  0  0  0  0  0
  -35.7733   64.3175   61.6236 C   0  0  0  0  0  0  0  0  0  0  0  0
  -34.2763   64.4791   61.4878 C   0  0  0  0  0  0  0  0  0  0  0  0
  -39.7631   59.9899   65.5426 C   0  0  0  0  0  0  0  0  0  0  0  0
  -39.1345   61.2741   65.7530 O   0  0  0  0  0  0  0  0  0  0  0  0
  -37.7831   61.7098   65.0144 P   0  0  0  0  0  0  0  0  0  0  0  0
  -36.7460   60.7025   65.3256 O   0  0  0  0  0  0  0  0  0  0  0  0
  -38.1026   61.9874   63.5933 O   0  0  0  0  0  0  0  0  0  0  0  0
  -38.3680   61.1640   63.1547 H   0  0  0  0  0  0  0  0  0  0  0  0
  -37.3527   63.0848   65.6974 O   0  0  0  0  0  0  0  0  0  0  0  0
  -36.1148   63.7214   65.3203 C   0  0  0  0  0  0  0  0  0  0  0  0
  -36.1917   63.9352   67.7059 O   0  0  0  0  0  0  0  0  0  0  0  0
  -35.3197   63.9954   66.5732 C   0  0  0  0  0  0  0  0  0  0  0  0
  -36.9248   64.5584   67.5829 H   0  0  0  0  0  0  0  0  0  0  0  0
  -33.2752   63.4925   67.7504 O   0  0  0  0  0  0  0  0  0  0  0  0
  -34.1714   63.0306   66.7479 C   0  0  0  0  0  0  0  0  0  0  0  0
  -32.5457   62.8607   67.8479 H   0  0  0  0  0  0  0  0  0  0  0  0
  -42.1169   59.4794   65.0397 O   0  0  0  0  0  0  0  0  0  0  0  0
  -43.6360   60.8276   64.0726 O   0  0  0  0  0  0  0  0  0  0  0  0
  -43.2549   59.7265   64.3630 C   0  0  0  0  0  0  0  0  0  0  0  0
  -43.9768   58.4657   64.0010 C   0  0  0  0  0  0  0  0  0  0  0  0
  -44.1199   57.5385   65.2037 C   0  0  0  0  0  0  0  0  0  0  0  0
  -45.0290   58.0801   66.2947 C   0  0  0  0  0  0  0  0  0  0  0  0
  -46.5118   57.8595   66.0180 C   0  0  0  0  0  0  0  0  0  0  0  0
  -47.3313   59.1364   65.9925 C   0  0  0  0  0  0  0  0  0  0  0  0
  -47.1431   59.9886   64.7342 C   0  0  0  0  0  0  0  0  0  0  0  0
  -48.4111   60.6665   64.2106 C   0  0  0  0  0  0  0  0  0  0  0  0
  -49.6325   60.2442   64.9709 C   0  0  0  0  0  0  0  0  0  0  0  0
  -50.8099   59.9375   64.4618 C   0  0  0  0  0  0  0  0  0  0  0  0
  -51.1734   59.9459   63.0106 C   0  0  0  0  0  0  0  0  0  0  0  0
  -51.0386   58.5682   62.3685 C   0  0  0  0  0  0  0  0  0  0  0  0
  -49.7119   58.3524   61.6617 C   0  0  0  0  0  0  0  0  0  0  0  0
  -49.4400   59.3568   60.5551 C   0  0  0  0  0  0  0  0  0  0  0  0
  -48.8784   58.7515   59.2793 C   0  0  0  0  0  0  0  0  0  0  0  0
  -48.1609   57.4288   59.5013 C   0  0  0  0  0  0  0  0  0  0  0  0
  -47.0675   57.1373   58.4927 C   0  0  0  0  0  0  0  0  0  0  0  0
  -47.0948   58.0751   57.3182 C   0  0  0  0  0  0  0  0  0  0  0  0
 21 22  1  0  0  0
  4  5  2  0  0  0
 25 24  1  0  0  0
 25 26  2  0  0  0
 25 27  1  0  0  0
 25 29  1  0  0  0
 22 20  1  0  0  0
  3  5  1  0  0  0
  3  2  1  0  0  0
 20 19  1  0  0  0
 24 23  1  0  0  0
 19 18  1  0  0  0
 18 17  1  0  0  0
 27 28  1  0  0  0
 17 16  1  0  0  0
 29 30  1  0  0  0
 16 15  1  0  0  0
 34 35  1  0  0  0
 34 36  1  0  0  0
 15 14  1  0  0  0
 31 32  1  0  0  0
 31 33  1  0  0  0
 14 13  1  0  0  0
 37  1  1  0  0  0
 37 39  1  0  0  0
 13 12  1  0  0  0
 38 39  2  0  0  0
 12 11  1  0  0  0
 11 10  1  0  0  0
 10  9  1  0  0  0
  9  8  1  0  0  0
  8  7  1  0  0  0
  7  6  1  0  0  0
  6  5  1  0  0  0
  2  1  1  0  0  0
  1 23  1  0  0  0
 30 32  1  0  0  0
 32 35  1  0  0  0
 39 40  1  0  0  0
 40 41  1  0  0  0
 41 42  1  0  0  0
 42 43  1  0  0  0
 43 44  1  0  0  0
 44 45  1  0  0  0
 45 46  1  0  0  0
 46 47  1  0  0  0
 47 48  2  0  0  0
 48 49  1  0  0  0
 49 50  1  0  0  0
 50 51  1  0  0  0
 51 52  1  0  0  0
 52 53  1  0  0  0
 53 54  1  0  0  0
 54 55  1  0  0  0
 55 56  1  0  0  0
M  CHG 1  26  -1
M  END
> <minimizedAffinity>
-8.55078

> <CNNscore>
0.4720980823

> <CNNaffinity>
7.3419675827

> <CNN_VS>
3.4661288261

> <CNNaffinity_variance>
0.8774505854

$$$$
/media/chris/experiments/cd1a-new-docking/inputs/ligands/7sh4_ligand.pdb


 56 55  0  0  0  0  0  0  0  0999 V2000
  -37.5499   60.4628   64.4680 C   0  0  0  0  0  0  0  0  0  0  0  0
  -36.3053   59.6389   64.6405 C   0  0  0  0  0  0  0  0  0  0  0  0
  -35.8566   59.3971   63.2902 O   0  0  0  0  0  0  0  0  0  0  0  0
  -34.8097   57.4998   62.7394 O   0  0  0  0  0  0  0  0  0  0  0  0
  -35.8238   58.1279   62.8826 C   0  0  0  0  0  0  0  0  0  0  0  0
  -37.2094   57.5639   62.7524 C   0  0  0  0  0  0  0  0  0  0  0  0
  -37.8589   57.8194   61.4029 C   0  0  0  0  0  0  0  0  0  0  0  0
  -37.8652   59.2852   61.0234 C   0  0  0  0  0  0  0  0  0  0  0  0
  -38.8861   59.6474   59.9686 C   0  0  0  0  0  0  0  0  0  0  0  0
  -39.0229   58.5934   58.8886 C   0  0  0  0  0  0  0  0  0  0  0  0
  -40.3611   57.8958   58.9054 C   0  0  0  0  0  0  0  0  0  0  0  0
  -41.3590   58.5591   59.8173 C   0  0  0  0  0  0  0  0  0  0  0  0
  -41.7460   57.7065   61.0053 C   0  0  0  0  0  0  0  0  0  0  0  0
  -41.2428   56.2816   60.8917 C   0  0  0  0  0  0  0  0  0  0  0  0
  -41.2654   55.5126   62.1961 C   0  0  0  0  0  0  0  0  0  0  0  0
  -40.8835   56.3497   63.4115 C   0  0  0  0  0  0  0  0  0  0  0  0
  -41.9185   56.3346   64.5199 C   0  0  0  0  0  0  0  0  0  0  0  0
  -42.7922   57.5720   64.5447 C   0  0  0  0  0  0  0  0  0  0  0  0
  -44.1885   57.3221   65.0976 C   0  0  0  0  0  0  0  0  0  0  0  0
  -44.3104   57.5950   66.5862 C   0  0  0  0  0  0  0  0  0  0  0  0
  -46.7360   57.1160   66.1145 C   0  0  0  0  0  0  0  0  0  0  0  0
  -45.7344   57.6668   67.1040 C   0  0  0  0  0  0  0  0  0  0  0  0
  -37.3395   61.8985   64.8755 C   0  0  0  0  0  0  0  0  0  0  0  0
  -36.9269   61.9333   66.2601 O   0  0  0  0  0  0  0  0  0  0  0  0
  -36.0219   63.1060   66.8663 P   0  0  0  0  0  0  0  0  0  0  0  0
  -36.4589   64.3818   66.2595 O   0  0  0  0  0  0  0  0  0  0  0  0
  -36.0317   62.9798   68.3437 O   0  0  0  0  0  0  0  0  0  0  0  0
  -36.9242   63.1603   68.6778 H   0  0  0  0  0  0  0  0  0  0  0  0
  -34.5412   62.8025   66.3585 O   0  0  0  0  0  0  0  0  0  0  0  0
  -33.4175   63.4651   66.9735 C   0  0  0  0  0  0  0  0  0  0  0  0
  -31.8662   65.2615   66.6430 O   0  0  0  0  0  0  0  0  0  0  0  0
  -33.0914   64.6973   66.1658 C   0  0  0  0  0  0  0  0  0  0  0  0
  -31.9428   65.4445   67.5926 H   0  0  0  0  0  0  0  0  0  0  0  0
  -33.7852   65.3170   63.9403 O   0  0  0  0  0  0  0  0  0  0  0  0
  -32.9898   64.4058   64.6879 C   0  0  0  0  0  0  0  0  0  0  0  0
  -33.7071   65.1140   62.9949 H   0  0  0  0  0  0  0  0  0  0  0  0
  -38.6294   59.8344   65.2359 O   0  0  0  0  0  0  0  0  0  0  0  0
  -40.5191   60.9067   65.8188 O   0  0  0  0  0  0  0  0  0  0  0  0
  -39.8789   60.2859   65.0146 C   0  0  0  0  0  0  0  0  0  0  0  0
  -40.3659   59.9378   63.6422 C   0  0  0  0  0  0  0  0  0  0  0  0
  -40.7863   61.1818   62.8660 C   0  0  0  0  0  0  0  0  0  0  0  0
  -42.2292   61.1527   62.3896 C   0  0  0  0  0  0  0  0  0  0  0  0
  -43.1921   60.5370   63.3984 C   0  0  0  0  0  0  0  0  0  0  0  0
  -44.2530   61.4969   63.9039 C   0  0  0  0  0  0  0  0  0  0  0  0
  -45.2663   60.8751   64.8691 C   0  0  0  0  0  0  0  0  0  0  0  0
  -46.3940   60.0803   64.2072 C   0  0  0  0  0  0  0  0  0  0  0  0
  -47.7214   60.7645   64.3415 C   0  0  0  0  0  0  0  0  0  0  0  0
  -48.8674   60.3686   63.8223 C   0  0  0  0  0  0  0  0  0  0  0  0
  -49.0826   59.1460   62.9874 C   0  0  0  0  0  0  0  0  0  0  0  0
  -50.3209   59.2556   62.1026 C   0  0  0  0  0  0  0  0  0  0  0  0
  -50.8894   57.9120   61.6807 C   0  0  0  0  0  0  0  0  0  0  0  0
  -50.0201   57.1689   60.6810 C   0  0  0  0  0  0  0  0  0  0  0  0
  -49.7932   57.9075   59.3724 C   0  0  0  0  0  0  0  0  0  0  0  0
  -48.3384   58.2805   59.1319 C   0  0  0  0  0  0  0  0  0  0  0  0
  -47.5979   57.3336   58.2083 C   0  0  0  0  0  0  0  0  0  0  0  0
  -47.6110   57.7895   56.7760 C   0  0  0  0  0  0  0  0  0  0  0  0
 21 22  1  0  0  0
  4  5  2  0  0  0
 25 24  1  0  0  0
 25 26  2  0  0  0
 25 27  1  0  0  0
 25 29  1  0  0  0
 22 20  1  0  0  0
  3  5  1  0  0  0
  3  2  1  0  0  0
 20 19  1  0  0  0
 24 23  1  0  0  0
 19 18  1  0  0  0
 18 17  1  0  0  0
 27 28  1  0  0  0
 17 16  1  0  0  0
 29 30  1  0  0  0
 16 15  1  0  0  0
 34 35  1  0  0  0
 34 36  1  0  0  0
 15 14  1  0  0  0
 31 32  1  0  0  0
 31 33  1  0  0  0
 14 13  1  0  0  0
 37  1  1  0  0  0
 37 39  1  0  0  0
 13 12  1  0  0  0
 38 39  2  0  0  0
 12 11  1  0  0  0
 11 10  1  0  0  0
 10  9  1  0  0  0
  9  8  1  0  0  0
  8  7  1  0  0  0
  7  6  1  0  0  0
  6  5  1  0  0  0
  2  1  1  0  0  0
  1 23  1  0  0  0
 30 32  1  0  0  0
 32 35  1  0  0  0
 39 40  1  0  0  0
 40 41  1  0  0  0
 41 42  1  0  0  0
 42 43  1  0  0  0
 43 44  1  0  0  0
 44 45  1  0  0  0
 45 46  1  0  0  0
 46 47  1  0  0  0
 47 48  2  0  0  0
 48 49  1  0  0  0
 49 50  1  0  0  0
 50 51  1  0  0  0
 51 52  1  0  0  0
 52 53  1  0  0  0
 53 54  1  0  0  0
 54 55  1  0  0  0
 55 56  1  0  0  0
M  CHG 1  26  -1
M  END
> <minimizedAffinity>
-8.30574

> <CNNscore>
0.3496853113

> <CNNaffinity>
7.5913252831

> <CNN_VS>
2.6545748711

> <CNNaffinity_variance>
0.9552055597

$$$$
/media/chris/experiments/cd1a-new-docking/inputs/ligands/7sh4_ligand.pdb


 56 55  0  0  0  0  0  0  0  0999 V2000
  -39.9178   60.5506   64.9394 C   0  0  0  0  0  0  0  0  0  0  0  0
  -39.8713   59.6360   63.7482 C   0  0  0  0  0  0  0  0  0  0  0  0
  -40.1614   60.5025   62.6311 O   0  0  0  0  0  0  0  0  0  0  0  0
  -41.8167   61.0129   61.2172 O   0  0  0  0  0  0  0  0  0  0  0  0
  -41.2437   60.2138   61.9078 C   0  0  0  0  0  0  0  0  0  0  0  0
  -41.5661   58.7487   61.9747 C   0  0  0  0  0  0  0  0  0  0  0  0
  -41.8484   58.1132   60.6239 C   0  0  0  0  0  0  0  0  0  0  0  0
  -40.7371   57.1926   60.1654 C   0  0  0  0  0  0  0  0  0  0  0  0
  -39.4485   57.3429   60.9419 C   0  0  0  0  0  0  0  0  0  0  0  0
  -38.4344   58.2259   60.2434 C   0  0  0  0  0  0  0  0  0  0  0  0
  -37.3727   58.7613   61.1729 C   0  0  0  0  0  0  0  0  0  0  0  0
  -37.0295   57.8069   62.2859 C   0  0  0  0  0  0  0  0  0  0  0  0
  -35.6078   57.9501   62.7824 C   0  0  0  0  0  0  0  0  0  0  0  0
  -35.5132   57.9481   64.2948 C   0  0  0  0  0  0  0  0  0  0  0  0
  -34.0974   58.0344   64.8254 C   0  0  0  0  0  0  0  0  0  0  0  0
  -33.3279   59.2543   64.3319 C   0  0  0  0  0  0  0  0  0  0  0  0
  -32.2195   58.9278   63.3495 C   0  0  0  0  0  0  0  0  0  0  0  0
  -31.9890   60.0141   62.3190 C   0  0  0  0  0  0  0  0  0  0  0  0
  -32.6685   61.3329   62.6603 C   0  0  0  0  0  0  0  0  0  0  0  0
  -32.1936   62.4988   61.8114 C   0  0  0  0  0  0  0  0  0  0  0  0
  -31.4295   64.8951   61.7171 C   0  0  0  0  0  0  0  0  0  0  0  0
  -31.6965   63.6963   62.5986 C   0  0  0  0  0  0  0  0  0  0  0  0
  -38.5524   60.7690   65.5392 C   0  0  0  0  0  0  0  0  0  0  0  0
  -38.0617   62.0620   65.1199 O   0  0  0  0  0  0  0  0  0  0  0  0
  -36.9137   62.2387   64.0187 P   0  0  0  0  0  0  0  0  0  0  0  0
  -35.7170   61.5042   64.4828 O   0  0  0  0  0  0  0  0  0  0  0  0
  -37.4884   61.8997   62.6945 O   0  0  0  0  0  0  0  0  0  0  0  0
  -37.7094   60.9556   62.6699 H   0  0  0  0  0  0  0  0  0  0  0  0
  -36.5651   63.7947   64.0177 O   0  0  0  0  0  0  0  0  0  0  0  0
  -35.3123   64.2530   63.4699 C   0  0  0  0  0  0  0  0  0  0  0  0
  -34.4547   66.3540   62.6997 O   0  0  0  0  0  0  0  0  0  0  0  0
  -35.5807   65.4744   62.6254 C   0  0  0  0  0  0  0  0  0  0  0  0
  -34.2752   66.5716   63.6278 H   0  0  0  0  0  0  0  0  0  0  0  0
  -35.7904   63.7203   60.9830 O   0  0  0  0  0  0  0  0  0  0  0  0
  -35.8747   65.1250   61.1862 C   0  0  0  0  0  0  0  0  0  0  0  0
  -35.9821   63.5158   60.0543 H   0  0  0  0  0  0  0  0  0  0  0  0
  -40.8550   59.9882   65.9168 O   0  0  0  0  0  0  0  0  0  0  0  0
  -42.1224   61.6469   66.7552 O   0  0  0  0  0  0  0  0  0  0  0  0
  -42.0156   60.6470   66.0990 C   0  0  0  0  0  0  0  0  0  0  0  0
  -43.1503   59.9950   65.3715 C   0  0  0  0  0  0  0  0  0  0  0  0
  -42.9453   58.4882   65.2518 C   0  0  0  0  0  0  0  0  0  0  0  0
  -43.7199   57.6774   66.2778 C   0  0  0  0  0  0  0  0  0  0  0  0
  -45.1620   57.3971   65.8709 C   0  0  0  0  0  0  0  0  0  0  0  0
  -46.1890   57.8311   66.9002 C   0  0  0  0  0  0  0  0  0  0  0  0
  -46.4501   59.3394   66.9422 C   0  0  0  0  0  0  0  0  0  0  0  0
  -47.3203   59.8820   65.8063 C   0  0  0  0  0  0  0  0  0  0  0  0
  -48.7346   60.1208   66.2429 C   0  0  0  0  0  0  0  0  0  0  0  0
  -49.8066   59.4741   65.8279 C   0  0  0  0  0  0  0  0  0  0  0  0
  -49.8340   58.3597   64.8300 C   0  0  0  0  0  0  0  0  0  0  0  0
  -50.2960   58.8235   63.4517 C   0  0  0  0  0  0  0  0  0  0  0  0
  -49.1670   58.9637   62.4457 C   0  0  0  0  0  0  0  0  0  0  0  0
  -49.5588   59.7260   61.1916 C   0  0  0  0  0  0  0  0  0  0  0  0
  -49.6921   58.8645   59.9469 C   0  0  0  0  0  0  0  0  0  0  0  0
  -48.5796   57.8378   59.7989 C   0  0  0  0  0  0  0  0  0  0  0  0
  -48.2943   57.4318   58.3666 C   0  0  0  0  0  0  0  0  0  0  0  0
  -47.3682   58.3857   57.6651 C   0  0  0  0  0  0  0  0  0  0  0  0
 21 22  1  0  0  0
  4  5  2  0  0  0
 25 24  1  0  0  0
 25 26  2  0  0  0
 25 27  1  0  0  0
 25 29  1  0  0  0
 22 20  1  0  0  0
  3  5  1  0  0  0
  3  2  1  0  0  0
 20 19  1  0  0  0
 24 23  1  0  0  0
 19 18  1  0  0  0
 18 17  1  0  0  0
 27 28  1  0  0  0
 17 16  1  0  0  0
 29 30  1  0  0  0
 16 15  1  0  0  0
 34 35  1  0  0  0
 34 36  1  0  0  0
 15 14  1  0  0  0
 31 32  1  0  0  0
 31 33  1  0  0  0
 14 13  1  0  0  0
 37  1  1  0  0  0
 37 39  1  0  0  0
 13 12  1  0  0  0
 38 39  2  0  0  0
 12 11  1  0  0  0
 11 10  1  0  0  0
 10  9  1  0  0  0
  9  8  1  0  0  0
  8  7  1  0  0  0
  7  6  1  0  0  0
  6  5  1  0  0  0
  2  1  1  0  0  0
  1 23  1  0  0  0
 30 32  1  0  0  0
 32 35  1  0  0  0
 39 40  1  0  0  0
 40 41  1  0  0  0
 41 42  1  0  0  0
 42 43  1  0  0  0
 43 44  1  0  0  0
 44 45  1  0  0  0
 45 46  1  0  0  0
 46 47  1  0  0  0
 47 48  2  0  0  0
 48 49  1  0  0  0
 49 50  1  0  0  0
 50 51  1  0  0  0
 51 52  1  0  0  0
 52 53  1  0  0  0
 53 54  1  0  0  0
 54 55  1  0  0  0
 55 56  1  0  0  0
M  CHG 1  26  -1
M  END
> <minimizedAffinity>
-7.78908

> <CNNscore>
0.3308042586

> <CNNaffinity>
7.2291731834

> <CNN_VS>
2.3914413452

> <CNNaffinity_variance>
0.9163349271

$$$$
/media/chris/experiments/cd1a-new-docking/inputs/ligands/7sh4_ligand.pdb


 56 55  0  0  0  0  0  0  0  0999 V2000
  -39.5364   60.2587   64.7477 C   0  0  0  0  0  0  0  0  0  0  0  0
  -40.6165   59.7514   65.6607 C   0  0  0  0  0  0  0  0  0  0  0  0
  -40.9280   60.8857   66.4971 O   0  0  0  0  0  0  0  0  0  0  0  0
  -42.5288   62.4143   66.8132 O   0  0  0  0  0  0  0  0  0  0  0  0
  -42.1944   61.3030   66.5021 C   0  0  0  0  0  0  0  0  0  0  0  0
  -43.1146   60.2508   65.9535 C   0  0  0  0  0  0  0  0  0  0  0  0
  -44.2579   60.8010   65.1179 C   0  0  0  0  0  0  0  0  0  0  0  0
  -45.3840   59.8050   64.9369 C   0  0  0  0  0  0  0  0  0  0  0  0
  -46.3964   59.8042   66.0598 C   0  0  0  0  0  0  0  0  0  0  0  0
  -47.7115   59.1587   65.6724 C   0  0  0  0  0  0  0  0  0  0  0  0
  -48.9080   59.8150   66.3168 C   0  0  0  0  0  0  0  0  0  0  0  0
  -50.1114   59.8618   65.4128 C   0  0  0  0  0  0  0  0  0  0  0  0
  -49.9206   60.7522   64.2050 C   0  0  0  0  0  0  0  0  0  0  0  0
  -50.5592   60.1851   62.9532 C   0  0  0  0  0  0  0  0  0  0  0  0
  -50.7910   58.6894   63.0010 C   0  0  0  0  0  0  0  0  0  0  0  0
  -49.7740   57.8825   62.2018 C   0  0  0  0  0  0  0  0  0  0  0  0
  -50.0891   57.7876   60.7213 C   0  0  0  0  0  0  0  0  0  0  0  0
  -49.6272   58.9935   59.9290 C   0  0  0  0  0  0  0  0  0  0  0  0
  -48.5354   58.6766   58.9164 C   0  0  0  0  0  0  0  0  0  0  0  0
  -48.7561   57.3710   58.1734 C   0  0  0  0  0  0  0  0  0  0  0  0
  -46.6660   58.1364   56.9982 C   0  0  0  0  0  0  0  0  0  0  0  0
  -47.6803   57.0272   57.1608 C   0  0  0  0  0  0  0  0  0  0  0  0
  -38.3381   60.7601   65.5121 C   0  0  0  0  0  0  0  0  0  0  0  0
  -37.9472   62.0433   64.9747 O   0  0  0  0  0  0  0  0  0  0  0  0
  -36.5388   62.7289   65.3036 P   0  0  0  0  0  0  0  0  0  0  0  0
  -36.6252   63.3282   66.6528 O   0  0  0  0  0  0  0  0  0  0  0  0
  -35.4689   61.7391   65.0311 O   0  0  0  0  0  0  0  0  0  0  0  0
  -35.5385   61.0056   65.6620 H   0  0  0  0  0  0  0  0  0  0  0  0
  -36.3894   63.9148   64.2482 O   0  0  0  0  0  0  0  0  0  0  0  0
  -36.5551   63.6524   62.8398 C   0  0  0  0  0  0  0  0  0  0  0  0
  -35.4100   63.8974   60.7490 O   0  0  0  0  0  0  0  0  0  0  0  0
  -35.2159   63.8180   62.1643 C   0  0  0  0  0  0  0  0  0  0  0  0
  -35.8896   63.1114   60.4439 H   0  0  0  0  0  0  0  0  0  0  0  0
  -33.6002   64.6913   63.7280 O   0  0  0  0  0  0  0  0  0  0  0  0
  -34.4700   65.0347   62.6570 C   0  0  0  0  0  0  0  0  0  0  0  0
  -33.1307   65.4844   64.0304 H   0  0  0  0  0  0  0  0  0  0  0  0
  -40.1083   61.3028   63.8917 O   0  0  0  0  0  0  0  0  0  0  0  0
  -42.0561   61.5297   62.7894 O   0  0  0  0  0  0  0  0  0  0  0  0
  -41.0447   60.9187   63.0030 C   0  0  0  0  0  0  0  0  0  0  0  0
  -40.6655   59.6513   62.3016 C   0  0  0  0  0  0  0  0  0  0  0  0
  -41.8176   58.6518   62.2917 C   0  0  0  0  0  0  0  0  0  0  0  0
  -41.7925   57.6940   61.1119 C   0  0  0  0  0  0  0  0  0  0  0  0
  -41.2760   58.3260   59.8244 C   0  0  0  0  0  0  0  0  0  0  0  0
  -39.9796   57.7219   59.3174 C   0  0  0  0  0  0  0  0  0  0  0  0
  -38.8387   58.7264   59.1322 C   0  0  0  0  0  0  0  0  0  0  0  0
  -37.7396   58.6674   60.1953 C   0  0  0  0  0  0  0  0  0  0  0  0
  -38.0491   57.6722   61.2731 C   0  0  0  0  0  0  0  0  0  0  0  0
  -37.4806   57.5954   62.4608 C   0  0  0  0  0  0  0  0  0  0  0  0
  -36.4030   58.4922   62.9832 C   0  0  0  0  0  0  0  0  0  0  0  0
  -35.2139   57.7124   63.5367 C   0  0  0  0  0  0  0  0  0  0  0  0
  -34.4333   58.4650   64.6000 C   0  0  0  0  0  0  0  0  0  0  0  0
  -32.9507   58.5901   64.2940 C   0  0  0  0  0  0  0  0  0  0  0  0
  -32.6350   58.9979   62.8645 C   0  0  0  0  0  0  0  0  0  0  0  0
  -31.3155   59.7413   62.7242 C   0  0  0  0  0  0  0  0  0  0  0  0
  -31.3054   60.7895   61.6292 C   0  0  0  0  0  0  0  0  0  0  0  0
  -31.6454   62.1632   62.1360 C   0  0  0  0  0  0  0  0  0  0  0  0
 21 22  1  0  0  0
  4  5  2  0  0  0
 25 24  1  0  0  0
 25 26  2  0  0  0
 25 27  1  0  0  0
 25 29  1  0  0  0
 22 20  1  0  0  0
  3  5  1  0  0  0
  3  2  1  0  0  0
 20 19  1  0  0  0
 24 23  1  0  0  0
 19 18  1  0  0  0
 18 17  1  0  0  0
 27 28  1  0  0  0
 17 16  1  0  0  0
 29 30  1  0  0  0
 16 15  1  0  0  0
 34 35  1  0  0  0
 34 36  1  0  0  0
 15 14  1  0  0  0
 31 32  1  0  0  0
 31 33  1  0  0  0
 14 13  1  0  0  0
 37  1  1  0  0  0
 37 39  1  0  0  0
 13 12  1  0  0  0
 38 39  2  0  0  0
 12 11  1  0  0  0
 11 10  1  0  0  0
 10  9  1  0  0  0
  9  8  1  0  0  0
  8  7  1  0  0  0
  7  6  1  0  0  0
  6  5  1  0  0  0
  2  1  1  0  0  0
  1 23  1  0  0  0
 30 32  1  0  0  0
 32 35  1  0  0  0
 39 40  1  0  0  0
 40 41  1  0  0  0
 41 42  1  0  0  0
 42 43  1  0  0  0
 43 44  1  0  0  0
 44 45  1  0  0  0
 45 46  1  0  0  0
 46 47  1  0  0  0
 47 48  2  0  0  0
 48 49  1  0  0  0
 49 50  1  0  0  0
 50 51  1  0  0  0
 51 52  1  0  0  0
 52 53  1  0  0  0
 53 54  1  0  0  0
 54 55  1  0  0  0
 55 56  1  0  0  0
M  CHG 1  26  -1
M  END
> <minimizedAffinity>
-8.50526

> <CNNscore>
0.3086881340

> <CNNaffinity>
7.1741762161

> <CNN_VS>
2.2145831585

> <CNNaffinity_variance>
1.2745218277

$$$$
/media/chris/experiments/cd1a-new-docking/inputs/ligands/7sh4_ligand.pdb


 56 55  0  0  0  0  0  0  0  0999 V2000
  -37.4137   61.9182   64.1618 C   0  0  0  0  0  0  0  0  0  0  0  0
  -38.7671   61.3102   63.9248 C   0  0  0  0  0  0  0  0  0  0  0  0
  -39.2707   61.0506   65.2522 O   0  0  0  0  0  0  0  0  0  0  0  0
  -39.7347   58.8670   65.1261 O   0  0  0  0  0  0  0  0  0  0  0  0
  -40.0642   59.9893   65.4005 C   0  0  0  0  0  0  0  0  0  0  0  0
  -41.3571   60.3671   66.0644 C   0  0  0  0  0  0  0  0  0  0  0  0
  -42.5156   59.4395   65.7394 C   0  0  0  0  0  0  0  0  0  0  0  0
  -43.8658   60.0818   65.9787 C   0  0  0  0  0  0  0  0  0  0  0  0
  -44.9538   59.6026   65.0446 C   0  0  0  0  0  0  0  0  0  0  0  0
  -46.3489   59.8689   65.5726 C   0  0  0  0  0  0  0  0  0  0  0  0
  -47.4373   59.3939   64.6413 C   0  0  0  0  0  0  0  0  0  0  0  0
  -48.0664   60.5119   63.8527 C   0  0  0  0  0  0  0  0  0  0  0  0
  -49.4305   60.9154   64.3668 C   0  0  0  0  0  0  0  0  0  0  0  0
  -50.4656   59.8210   64.2012 C   0  0  0  0  0  0  0  0  0  0  0  0
  -50.9804   59.6665   62.7855 C   0  0  0  0  0  0  0  0  0  0  0  0
  -50.8521   58.2510   62.2343 C   0  0  0  0  0  0  0  0  0  0  0  0
  -49.4993   57.9497   61.6185 C   0  0  0  0  0  0  0  0  0  0  0  0
  -49.5768   57.0360   60.4126 C   0  0  0  0  0  0  0  0  0  0  0  0
  -48.3107   57.0327   59.5672 C   0  0  0  0  0  0  0  0  0  0  0  0
  -48.1550   58.2702   58.7013 C   0  0  0  0  0  0  0  0  0  0  0  0
  -47.0720   56.6047   57.1557 C   0  0  0  0  0  0  0  0  0  0  0  0
  -47.3301   58.0660   57.4447 C   0  0  0  0  0  0  0  0  0  0  0  0
  -36.9628   62.7667   63.0006 C   0  0  0  0  0  0  0  0  0  0  0  0
  -36.4453   64.0158   63.5106 O   0  0  0  0  0  0  0  0  0  0  0  0
  -35.0007   64.5816   63.1170 P   0  0  0  0  0  0  0  0  0  0  0  0
  -34.2911   63.5331   62.3527 O   0  0  0  0  0  0  0  0  0  0  0  0
  -35.1810   65.9162   62.4967 O   0  0  0  0  0  0  0  0  0  0  0  0
  -35.6461   65.8197   61.6510 H   0  0  0  0  0  0  0  0  0  0  0  0
  -34.2347   64.7838   64.5007 O   0  0  0  0  0  0  0  0  0  0  0  0
  -32.8058   64.9789   64.5127 C   0  0  0  0  0  0  0  0  0  0  0  0
  -31.1981   65.2191   66.2734 O   0  0  0  0  0  0  0  0  0  0  0  0
  -32.2554   64.3870   65.7869 C   0  0  0  0  0  0  0  0  0  0  0  0
  -30.5229   65.3200   65.5842 H   0  0  0  0  0  0  0  0  0  0  0  0
  -33.4989   65.4291   67.5719 O   0  0  0  0  0  0  0  0  0  0  0  0
  -33.3164   64.2190   66.8480 C   0  0  0  0  0  0  0  0  0  0  0  0
  -34.1830   65.3015   68.2477 H   0  0  0  0  0  0  0  0  0  0  0  0
  -36.4646   60.8364   64.4428 O   0  0  0  0  0  0  0  0  0  0  0  0
  -35.4277   62.0181   66.0518 O   0  0  0  0  0  0  0  0  0  0  0  0
  -35.4214   61.1316   65.2419 C   0  0  0  0  0  0  0  0  0  0  0  0
  -34.2620   60.2121   65.0127 C   0  0  0  0  0  0  0  0  0  0  0  0
  -33.7560   60.2980   63.5763 C   0  0  0  0  0  0  0  0  0  0  0  0
  -33.1579   59.0016   63.0551 C   0  0  0  0  0  0  0  0  0  0  0  0
  -34.1627   57.8586   62.9667 C   0  0  0  0  0  0  0  0  0  0  0  0
  -35.4277   58.2067   62.2043 C   0  0  0  0  0  0  0  0  0  0  0  0
  -36.7179   57.6755   62.8353 C   0  0  0  0  0  0  0  0  0  0  0  0
  -37.9675   57.7920   61.9597 C   0  0  0  0  0  0  0  0  0  0  0  0
  -37.9618   59.0412   61.1306 C   0  0  0  0  0  0  0  0  0  0  0  0
  -38.5199   59.2029   59.9465 C   0  0  0  0  0  0  0  0  0  0  0  0
  -39.2808   58.1673   59.1805 C   0  0  0  0  0  0  0  0  0  0  0  0
  -40.7892   58.2901   59.3755 C   0  0  0  0  0  0  0  0  0  0  0  0
  -41.2926   57.6465   60.6556 C   0  0  0  0  0  0  0  0  0  0  0  0
  -42.1795   58.5566   61.4878 C   0  0  0  0  0  0  0  0  0  0  0  0
  -41.4762   59.7825   62.0461 C   0  0  0  0  0  0  0  0  0  0  0  0
  -41.5668   60.9990   61.1375 C   0  0  0  0  0  0  0  0  0  0  0  0
  -42.6222   62.0060   61.5496 C   0  0  0  0  0  0  0  0  0  0  0  0
  -42.9701   61.9193   63.0095 C   0  0  0  0  0  0  0  0  0  0  0  0
 21 22  1  0  0  0
  4  5  2  0  0  0
 25 24  1  0  0  0
 25 26  2  0  0  0
 25 27  1  0  0  0
 25 29  1  0  0  0
 22 20  1  0  0  0
  3  5  1  0  0  0
  3  2  1  0  0  0
 20 19  1  0  0  0
 24 23  1  0  0  0
 19 18  1  0  0  0
 18 17  1  0  0  0
 27 28  1  0  0  0
 17 16  1  0  0  0
 29 30  1  0  0  0
 16 15  1  0  0  0
 34 35  1  0  0  0
 34 36  1  0  0  0
 15 14  1  0  0  0
 31 32  1  0  0  0
 31 33  1  0  0  0
 14 13  1  0  0  0
 37  1  1  0  0  0
 37 39  1  0  0  0
 13 12  1  0  0  0
 38 39  2  0  0  0
 12 11  1  0  0  0
 11 10  1  0  0  0
 10  9  1  0  0  0
  9  8  1  0  0  0
  8  7  1  0  0  0
  7  6  1  0  0  0
  6  5  1  0  0  0
  2  1  1  0  0  0
  1 23  1  0  0  0
 30 32  1  0  0  0
 32 35  1  0  0  0
 39 40  1  0  0  0
 40 41  1  0  0  0
 41 42  1  0  0  0
 42 43  1  0  0  0
 43 44  1  0  0  0
 44 45  1  0  0  0
 45 46  1  0  0  0
 46 47  1  0  0  0
 47 48  2  0  0  0
 48 49  1  0  0  0
 49 50  1  0  0  0
 50 51  1  0  0  0
 51 52  1  0  0  0
 52 53  1  0  0  0
 53 54  1  0  0  0
 54 55  1  0  0  0
 55 56  1  0  0  0
M  CHG 1  26  -1
M  END
> <minimizedAffinity>
-8.27899

> <CNNscore>
0.2767120600

> <CNNaffinity>
7.1714997292

> <CNN_VS>
1.9844404459

> <CNNaffinity_variance>
1.1114387512

$$$$
/media/chris/experiments/cd1a-new-docking/inputs/ligands/7sh4_ligand.pdb


 56 55  0  0  0  0  0  0  0  0999 V2000
  -41.2166   59.3937   62.4469 C   0  0  0  0  0  0  0  0  0  0  0  0
  -42.3786   58.7475   63.1468 C   0  0  0  0  0  0  0  0  0  0  0  0
  -41.7695   58.0138   64.2303 O   0  0  0  0  0  0  0  0  0  0  0  0
  -41.8598   58.4847   66.4142 O   0  0  0  0  0  0  0  0  0  0  0  0
  -42.3798   58.0677   65.4146 C   0  0  0  0  0  0  0  0  0  0  0  0
  -43.8210   57.6614   65.3013 C   0  0  0  0  0  0  0  0  0  0  0  0
  -44.8060   58.7753   65.6130 C   0  0  0  0  0  0  0  0  0  0  0  0
  -45.9467   58.3187   66.4978 C   0  0  0  0  0  0  0  0  0  0  0  0
  -47.2539   58.1132   65.7663 C   0  0  0  0  0  0  0  0  0  0  0  0
  -47.8621   59.4067   65.2633 C   0  0  0  0  0  0  0  0  0  0  0  0
  -49.0698   59.8431   66.0561 C   0  0  0  0  0  0  0  0  0  0  0  0
  -50.3692   59.3834   65.4498 C   0  0  0  0  0  0  0  0  0  0  0  0
  -50.9929   60.4031   64.5228 C   0  0  0  0  0  0  0  0  0  0  0  0
  -50.9543   59.9741   63.0699 C   0  0  0  0  0  0  0  0  0  0  0  0
  -50.9441   58.4731   62.8689 C   0  0  0  0  0  0  0  0  0  0  0  0
  -49.7678   57.9705   62.0397 C   0  0  0  0  0  0  0  0  0  0  0  0
  -49.5269   58.7622   60.7688 C   0  0  0  0  0  0  0  0  0  0  0  0
  -50.1064   58.1066   59.5321 C   0  0  0  0  0  0  0  0  0  0  0  0
  -49.1401   58.0596   58.3567 C   0  0  0  0  0  0  0  0  0  0  0  0
  -47.6870   57.9088   58.7704 C   0  0  0  0  0  0  0  0  0  0  0  0
  -47.6566   55.9216   57.2258 C   0  0  0  0  0  0  0  0  0  0  0  0
  -47.0802   56.5506   58.4739 C   0  0  0  0  0  0  0  0  0  0  0  0
  -40.8266   60.7016   63.0865 C   0  0  0  0  0  0  0  0  0  0  0  0
  -39.4239   60.6510   63.4303 O   0  0  0  0  0  0  0  0  0  0  0  0
  -38.9042   60.3150   64.9064 P   0  0  0  0  0  0  0  0  0  0  0  0
  -39.5431   61.2636   65.8438 O   0  0  0  0  0  0  0  0  0  0  0  0
  -39.0773   58.8605   65.1367 O   0  0  0  0  0  0  0  0  0  0  0  0
  -40.0232   58.6462   65.1544 H   0  0  0  0  0  0  0  0  0  0  0  0
  -37.3402   60.6247   64.8843 O   0  0  0  0  0  0  0  0  0  0  0  0
  -36.8364   61.7410   64.1228 C   0  0  0  0  0  0  0  0  0  0  0  0
  -37.3781   63.5844   65.5550 O   0  0  0  0  0  0  0  0  0  0  0  0
  -36.2988   62.7705   65.0863 C   0  0  0  0  0  0  0  0  0  0  0  0
  -37.8357   63.9820   64.7977 H   0  0  0  0  0  0  0  0  0  0  0  0
  -36.2662   62.3971   67.4691 O   0  0  0  0  0  0  0  0  0  0  0  0
  -35.5746   62.1429   66.2531 C   0  0  0  0  0  0  0  0  0  0  0  0
  -35.7866   61.9869   68.2057 H   0  0  0  0  0  0  0  0  0  0  0  0
  -41.5666   59.5651   61.0334 O   0  0  0  0  0  0  0  0  0  0  0  0
  -40.2119   60.5641   59.5411 O   0  0  0  0  0  0  0  0  0  0  0  0
  -40.5495   59.5862   60.1508 C   0  0  0  0  0  0  0  0  0  0  0  0
  -39.8801   58.2519   60.0350 C   0  0  0  0  0  0  0  0  0  0  0  0
  -38.3782   58.3977   59.8120 C   0  0  0  0  0  0  0  0  0  0  0  0
  -37.5951   58.7124   61.0760 C   0  0  0  0  0  0  0  0  0  0  0  0
  -37.6889   57.6231   62.1384 C   0  0  0  0  0  0  0  0  0  0  0  0
  -36.4674   57.5275   63.0336 C   0  0  0  0  0  0  0  0  0  0  0  0
  -35.4015   58.5955   62.7722 C   0  0  0  0  0  0  0  0  0  0  0  0
  -34.0200   58.0580   62.3924 C   0  0  0  0  0  0  0  0  0  0  0  0
  -32.9687   58.4486   63.3876 C   0  0  0  0  0  0  0  0  0  0  0  0
  -32.0116   59.3392   63.2133 C   0  0  0  0  0  0  0  0  0  0  0  0
  -31.7753   60.1510   61.9790 C   0  0  0  0  0  0  0  0  0  0  0  0
  -31.8479   61.6515   62.2462 C   0  0  0  0  0  0  0  0  0  0  0  0
  -33.0779   62.0720   63.0314 C   0  0  0  0  0  0  0  0  0  0  0  0
  -33.3741   63.5596   62.9502 C   0  0  0  0  0  0  0  0  0  0  0  0
  -33.2244   64.1566   61.5607 C   0  0  0  0  0  0  0  0  0  0  0  0
  -33.6566   65.6125   61.4773 C   0  0  0  0  0  0  0  0  0  0  0  0
  -34.8164   65.9702   62.3854 C   0  0  0  0  0  0  0  0  0  0  0  0
  -36.1165   66.1046   61.6427 C   0  0  0  0  0  0  0  0  0  0  0  0
 21 22  1  0  0  0
  4  5  2  0  0  0
 25 24  1  0  0  0
 25 26  2  0  0  0
 25 27  1  0  0  0
 25 29  1  0  0  0
 22 20  1  0  0  0
  3  5  1  0  0  0
  3  2  1  0  0  0
 20 19  1  0  0  0
 24 23  1  0  0  0
 19 18  1  0  0  0
 18 17  1  0  0  0
 27 28  1  0  0  0
 17 16  1  0  0  0
 29 30  1  0  0  0
 16 15  1  0  0  0
 34 35  1  0  0  0
 34 36  1  0  0  0
 15 14  1  0  0  0
 31 32  1  0  0  0
 31 33  1  0  0  0
 14 13  1  0  0  0
 37  1  1  0  0  0
 37 39  1  0  0  0
 13 12  1  0  0  0
 38 39  2  0  0  0
 12 11  1  0  0  0
 11 10  1  0  0  0
 10  9  1  0  0  0
  9  8  1  0  0  0
  8  7  1  0  0  0
  7  6  1  0  0  0
  6  5  1  0  0  0
  2  1  1  0  0  0
  1 23  1  0  0  0
 30 32  1  0  0  0
 32 35  1  0  0  0
 39 40  1  0  0  0
 40 41  1  0  0  0
 41 42  1  0  0  0
 42 43  1  0  0  0
 43 44  1  0  0  0
 44 45  1  0  0  0
 45 46  1  0  0  0
 46 47  1  0  0  0
 47 48  2  0  0  0
 48 49  1  0  0  0
 49 50  1  0  0  0
 50 51  1  0  0  0
 51 52  1  0  0  0
 52 53  1  0  0  0
 53 54  1  0  0  0
 54 55  1  0  0  0
 55 56  1  0  0  0
M  CHG 1  26  -1
M  END
> <minimizedAffinity>
-8.03531

> <CNNscore>
0.2758637965

> <CNNaffinity>
6.9549303055

> <CNN_VS>
1.9186134338

> <CNNaffinity_variance>
0.7503185272

$$$$
/media/chris/experiments/cd1a-new-docking/inputs/ligands/7sh4_ligand.pdb


 56 55  0  0  0  0  0  0  0  0999 V2000
  -39.5775   59.9834   65.3564 C   0  0  0  0  0  0  0  0  0  0  0  0
  -39.0730   58.6048   65.0361 C   0  0  0  0  0  0  0  0  0  0  0  0
  -37.7064   58.6164   65.5004 O   0  0  0  0  0  0  0  0  0  0  0  0
  -36.3637   56.8485   65.7664 O   0  0  0  0  0  0  0  0  0  0  0  0
  -36.9079   57.6470   65.0525 C   0  0  0  0  0  0  0  0  0  0  0  0
  -36.8847   57.6134   63.5514 C   0  0  0  0  0  0  0  0  0  0  0  0
  -36.3465   58.8815   62.9106 C   0  0  0  0  0  0  0  0  0  0  0  0
  -37.3669   59.5724   62.0308 C   0  0  0  0  0  0  0  0  0  0  0  0
  -38.1359   58.6388   61.1237 C   0  0  0  0  0  0  0  0  0  0  0  0
  -37.7511   58.7786   59.6647 C   0  0  0  0  0  0  0  0  0  0  0  0
  -38.9255   58.6502   58.7257 C   0  0  0  0  0  0  0  0  0  0  0  0
  -40.1260   58.0082   59.3692 C   0  0  0  0  0  0  0  0  0  0  0  0
  -41.3700   58.8667   59.3095 C   0  0  0  0  0  0  0  0  0  0  0  0
  -41.0601   60.3496   59.3455 C   0  0  0  0  0  0  0  0  0  0  0  0
  -40.7866   60.8902   60.7334 C   0  0  0  0  0  0  0  0  0  0  0  0
  -42.0184   61.4629   61.4253 C   0  0  0  0  0  0  0  0  0  0  0  0
  -42.6211   60.5442   62.4706 C   0  0  0  0  0  0  0  0  0  0  0  0
  -41.8020   59.2939   62.7176 C   0  0  0  0  0  0  0  0  0  0  0  0
  -42.6410   58.0299   62.8442 C   0  0  0  0  0  0  0  0  0  0  0  0
  -42.0789   57.0240   63.8329 C   0  0  0  0  0  0  0  0  0  0  0  0
  -40.7589   55.8067   62.0690 C   0  0  0  0  0  0  0  0  0  0  0  0
  -41.7154   55.6791   63.2328 C   0  0  0  0  0  0  0  0  0  0  0  0
  -38.4682   60.9043   65.7958 C   0  0  0  0  0  0  0  0  0  0  0  0
  -38.1173   61.7693   64.6926 O   0  0  0  0  0  0  0  0  0  0  0  0
  -36.7495   62.5990   64.6419 P   0  0  0  0  0  0  0  0  0  0  0  0
  -35.6295   61.6338   64.6089 O   0  0  0  0  0  0  0  0  0  0  0  0
  -36.8579   63.6016   63.5549 O   0  0  0  0  0  0  0  0  0  0  0  0
  -36.9018   63.1473   62.6990 H   0  0  0  0  0  0  0  0  0  0  0  0
  -36.6802   63.3844   66.0278 O   0  0  0  0  0  0  0  0  0  0  0  0
  -35.4965   63.2987   66.8473 C   0  0  0  0  0  0  0  0  0  0  0  0
  -34.2551   65.2367   67.5149 O   0  0  0  0  0  0  0  0  0  0  0  0
  -34.5345   64.3749   66.4075 C   0  0  0  0  0  0  0  0  0  0  0  0
  -35.0864   65.5958   67.8628 H   0  0  0  0  0  0  0  0  0  0  0  0
  -33.3023   63.7395   64.4336 O   0  0  0  0  0  0  0  0  0  0  0  0
  -33.2504   63.8064   65.8529 C   0  0  0  0  0  0  0  0  0  0  0  0
  -32.4701   63.3725   64.0965 H   0  0  0  0  0  0  0  0  0  0  0  0
  -40.6216   59.8667   66.3791 O   0  0  0  0  0  0  0  0  0  0  0  0
  -41.8897   61.6713   65.9370 O   0  0  0  0  0  0  0  0  0  0  0  0
  -41.7895   60.4909   66.1333 C   0  0  0  0  0  0  0  0  0  0  0  0
  -42.9427   59.5361   66.1160 C   0  0  0  0  0  0  0  0  0  0  0  0
  -44.2779   60.2712   66.1747 C   0  0  0  0  0  0  0  0  0  0  0  0
  -44.7800   60.7463   64.8211 C   0  0  0  0  0  0  0  0  0  0  0  0
  -46.2359   60.3853   64.5498 C   0  0  0  0  0  0  0  0  0  0  0  0
  -46.9627   59.8088   65.7506 C   0  0  0  0  0  0  0  0  0  0  0  0
  -47.8597   58.6082   65.4358 C   0  0  0  0  0  0  0  0  0  0  0  0
  -49.3592   58.8477   65.6253 C   0  0  0  0  0  0  0  0  0  0  0  0
  -49.8113   60.1286   64.9905 C   0  0  0  0  0  0  0  0  0  0  0  0
  -50.5414   60.2517   63.8990 C   0  0  0  0  0  0  0  0  0  0  0  0
  -51.0748   59.1315   63.0630 C   0  0  0  0  0  0  0  0  0  0  0  0
  -50.0218   58.5551   62.1212 C   0  0  0  0  0  0  0  0  0  0  0  0
  -50.5834   58.0951   60.7873 C   0  0  0  0  0  0  0  0  0  0  0  0
  -49.6568   57.1646   60.0238 C   0  0  0  0  0  0  0  0  0  0  0  0
  -48.2616   57.7191   59.7884 C   0  0  0  0  0  0  0  0  0  0  0  0
  -48.0709   58.3096   58.3997 C   0  0  0  0  0  0  0  0  0  0  0  0
  -46.9539   57.6694   57.5996 C   0  0  0  0  0  0  0  0  0  0  0  0
  -47.2341   56.2331   57.2559 C   0  0  0  0  0  0  0  0  0  0  0  0
 21 22  1  0  0  0
  4  5  2  0  0  0
 25 24  1  0  0  0
 25 26  2  0  0  0
 25 27  1  0  0  0
 25 29  1  0  0  0
 22 20  1  0  0  0
  3  5  1  0  0  0
  3  2  1  0  0  0
 20 19  1  0  0  0
 24 23  1  0  0  0
 19 18  1  0  0  0
 18 17  1  0  0  0
 27 28  1  0  0  0
 17 16  1  0  0  0
 29 30  1  0  0  0
 16 15  1  0  0  0
 34 35  1  0  0  0
 34 36  1  0  0  0
 15 14  1  0  0  0
 31 32  1  0  0  0
 31 33  1  0  0  0
 14 13  1  0  0  0
 37  1  1  0  0  0
 37 39  1  0  0  0
 13 12  1  0  0  0
 38 39  2  0  0  0
 12 11  1  0  0  0
 11 10  1  0  0  0
 10  9  1  0  0  0
  9  8  1  0  0  0
  8  7  1  0  0  0
  7  6  1  0  0  0
  6  5  1  0  0  0
  2  1  1  0  0  0
  1 23  1  0  0  0
 30 32  1  0  0  0
 32 35  1  0  0  0
 39 40  1  0  0  0
 40 41  1  0  0  0
 41 42  1  0  0  0
 42 43  1  0  0  0
 43 44  1  0  0  0
 44 45  1  0  0  0
 45 46  1  0  0  0
 46 47  1  0  0  0
 47 48  2  0  0  0
 48 49  1  0  0  0
 49 50  1  0  0  0
 50 51  1  0  0  0
 51 52  1  0  0  0
 52 53  1  0  0  0
 53 54  1  0  0  0
 54 55  1  0  0  0
 55 56  1  0  0  0
M  CHG 1  26  -1
M  END
> <minimizedAffinity>
-7.87797

> <CNNscore>
0.2749555111

> <CNNaffinity>
7.5697832108

> <CNN_VS>
2.0813536644

> <CNNaffinity_variance>
1.1127700806

$$$$
/media/chris/experiments/cd1a-new-docking/inputs/ligands/7sh4_ligand.pdb


 56 55  0  0  0  0  0  0  0  0999 V2000
  -37.8938   61.8985   63.1148 C   0  0  0  0  0  0  0  0  0  0  0  0
  -37.3422   60.6019   62.5931 C   0  0  0  0  0  0  0  0  0  0  0  0
  -38.0014   60.4288   61.3208 O   0  0  0  0  0  0  0  0  0  0  0  0
  -37.7541   58.2080   61.4015 O   0  0  0  0  0  0  0  0  0  0  0  0
  -37.9496   59.2138   60.7740 C   0  0  0  0  0  0  0  0  0  0  0  0
  -38.2893   59.2618   59.3120 C   0  0  0  0  0  0  0  0  0  0  0  0
  -39.3359   58.2469   58.8847 C   0  0  0  0  0  0  0  0  0  0  0  0
  -40.7385   58.6423   59.2961 C   0  0  0  0  0  0  0  0  0  0  0  0
  -41.3428   57.7588   60.3639 C   0  0  0  0  0  0  0  0  0  0  0  0
  -41.7311   58.5209   61.6147 C   0  0  0  0  0  0  0  0  0  0  0  0
  -42.4787   57.6759   62.6171 C   0  0  0  0  0  0  0  0  0  0  0  0
  -41.6412   56.5632   63.1897 C   0  0  0  0  0  0  0  0  0  0  0  0
  -41.3941   56.7014   64.6756 C   0  0  0  0  0  0  0  0  0  0  0  0
  -40.4121   57.8076   65.0051 C   0  0  0  0  0  0  0  0  0  0  0  0
  -39.0863   57.6924   64.2823 C   0  0  0  0  0  0  0  0  0  0  0  0
  -37.8966   58.1916   65.0943 C   0  0  0  0  0  0  0  0  0  0  0  0
  -36.6580   57.3254   64.9689 C   0  0  0  0  0  0  0  0  0  0  0  0
  -35.5444   57.9784   64.1760 C   0  0  0  0  0  0  0  0  0  0  0  0
  -34.2361   58.0969   64.9454 C   0  0  0  0  0  0  0  0  0  0  0  0
  -33.2323   59.0333   64.2966 C   0  0  0  0  0  0  0  0  0  0  0  0
  -32.2816   59.9448   62.1516 C   0  0  0  0  0  0  0  0  0  0  0  0
  -33.4725   59.2990   62.8226 C   0  0  0  0  0  0  0  0  0  0  0  0
  -36.9752   63.0594   62.8313 C   0  0  0  0  0  0  0  0  0  0  0  0
  -35.6138   62.6489   63.0889 O   0  0  0  0  0  0  0  0  0  0  0  0
  -34.3686   63.6468   62.9642 P   0  0  0  0  0  0  0  0  0  0  0  0
  -33.5458   63.2108   61.8153 O   0  0  0  0  0  0  0  0  0  0  0  0
  -34.8867   65.0360   62.9827 O   0  0  0  0  0  0  0  0  0  0  0  0
  -35.4113   65.1962   62.1827 H   0  0  0  0  0  0  0  0  0  0  0  0
  -33.5145   63.4247   64.2923 O   0  0  0  0  0  0  0  0  0  0  0  0
  -33.7277   64.2745   65.4378 C   0  0  0  0  0  0  0  0  0  0  0  0
  -33.4144   63.3678   67.6338 O   0  0  0  0  0  0  0  0  0  0  0  0
  -34.3347   63.4427   66.5409 C   0  0  0  0  0  0  0  0  0  0  0  0
  -32.5676   63.0140   67.3196 H   0  0  0  0  0  0  0  0  0  0  0  0
  -36.6185   63.9608   65.9628 O   0  0  0  0  0  0  0  0  0  0  0  0
  -35.6598   63.9919   67.0123 C   0  0  0  0  0  0  0  0  0  0  0  0
  -37.4616   64.3169   66.2843 H   0  0  0  0  0  0  0  0  0  0  0  0
  -38.1481   61.7473   64.5509 O   0  0  0  0  0  0  0  0  0  0  0  0
  -39.6625   60.9945   66.0343 O   0  0  0  0  0  0  0  0  0  0  0  0
  -39.3665   61.3006   64.9115 C   0  0  0  0  0  0  0  0  0  0  0  0
  -40.3109   61.2494   63.7507 C   0  0  0  0  0  0  0  0  0  0  0  0
  -41.7359   60.9464   64.2026 C   0  0  0  0  0  0  0  0  0  0  0  0
  -42.8069   61.5814   63.3310 C   0  0  0  0  0  0  0  0  0  0  0  0
  -44.2194   61.4091   63.8779 C   0  0  0  0  0  0  0  0  0  0  0  0
  -44.4177   60.1400   64.6857 C   0  0  0  0  0  0  0  0  0  0  0  0
  -45.7549   60.0599   65.4276 C   0  0  0  0  0  0  0  0  0  0  0  0
  -46.9966   60.2624   64.5564 C   0  0  0  0  0  0  0  0  0  0  0  0
  -48.2666   60.0939   65.3353 C   0  0  0  0  0  0  0  0  0  0  0  0
  -49.4956   60.2334   64.8772 C   0  0  0  0  0  0  0  0  0  0  0  0
  -49.8802   60.5895   63.4760 C   0  0  0  0  0  0  0  0  0  0  0  0
  -51.1757   59.9128   63.0378 C   0  0  0  0  0  0  0  0  0  0  0  0
  -50.9849   58.4855   62.5554 C   0  0  0  0  0  0  0  0  0  0  0  0
  -49.7421   58.2906   61.7040 C   0  0  0  0  0  0  0  0  0  0  0  0
  -49.9910   57.5929   60.3771 C   0  0  0  0  0  0  0  0  0  0  0  0
  -49.0034   56.4731   60.0871 C   0  0  0  0  0  0  0  0  0  0  0  0
  -47.9271   56.8373   59.0837 C   0  0  0  0  0  0  0  0  0  0  0  0
  -48.0653   58.2420   58.5666 C   0  0  0  0  0  0  0  0  0  0  0  0
 21 22  1  0  0  0
  4  5  2  0  0  0
 25 24  1  0  0  0
 25 26  2  0  0  0
 25 27  1  0  0  0
 25 29  1  0  0  0
 22 20  1  0  0  0
  3  5  1  0  0  0
  3  2  1  0  0  0
 20 19  1  0  0  0
 24 23  1  0  0  0
 19 18  1  0  0  0
 18 17  1  0  0  0
 27 28  1  0  0  0
 17 16  1  0  0  0
 29 30  1  0  0  0
 16 15  1  0  0  0
 34 35  1  0  0  0
 34 36  1  0  0  0
 15 14  1  0  0  0
 31 32  1  0  0  0
 31 33  1  0  0  0
 14 13  1  0  0  0
 37  1  1  0  0  0
 37 39  1  0  0  0
 13 12  1  0  0  0
 38 39  2  0  0  0
 12 11  1  0  0  0
 11 10  1  0  0  0
 10  9  1  0  0  0
  9  8  1  0  0  0
  8  7  1  0  0  0
  7  6  1  0  0  0
  6  5  1  0  0  0
  2  1  1  0  0  0
  1 23  1  0  0  0
 30 32  1  0  0  0
 32 35  1  0  0  0
 39 40  1  0  0  0
 40 41  1  0  0  0
 41 42  1  0  0  0
 42 43  1  0  0  0
 43 44  1  0  0  0
 44 45  1  0  0  0
 45 46  1  0  0  0
 46 47  1  0  0  0
 47 48  2  0  0  0
 48 49  1  0  0  0
 49 50  1  0  0  0
 50 51  1  0  0  0
 51 52  1  0  0  0
 52 53  1  0  0  0
 53 54  1  0  0  0
 54 55  1  0  0  0
 55 56  1  0  0  0
M  CHG 1  26  -1
M  END
> <minimizedAffinity>
-8.02664

> <CNNscore>
0.2515961826

> <CNNaffinity>
7.2824921608

> <CNN_VS>
1.8322472572

> <CNNaffinity_variance>
0.9193812609

$$$$
