/media/chris/experiments/cd1a-new-docking/inputs/ligands/7sh4_ligand.pdb


 56 55  0  0  0  0  0  0  0  0999 V2000
  -40.2331   59.4670   65.3474 C   0  0  0  0  0  0  0  0  0  0  0  0
  -41.5316   59.6847   66.0714 C   0  0  0  0  0  0  0  0  0  0  0  0
  -41.7467   61.1091   65.9822 O   0  0  0  0  0  0  0  0  0  0  0  0
  -42.8845   62.4610   64.6123 O   0  0  0  0  0  0  0  0  0  0  0  0
  -42.8495   61.5154   65.3526 C   0  0  0  0  0  0  0  0  0  0  0  0
  -43.9909   60.5696   65.5925 C   0  0  0  0  0  0  0  0  0  0  0  0
  -45.1186   60.6888   64.5813 C   0  0  0  0  0  0  0  0  0  0  0  0
  -46.0270   59.4775   64.5706 C   0  0  0  0  0  0  0  0  0  0  0  0
  -47.3077   59.6570   65.3539 C   0  0  0  0  0  0  0  0  0  0  0  0
  -48.0464   58.3552   65.5896 C   0  0  0  0  0  0  0  0  0  0  0  0
  -49.4915   58.4055   65.1574 C   0  0  0  0  0  0  0  0  0  0  0  0
  -50.2197   59.6162   65.6785 C   0  0  0  0  0  0  0  0  0  0  0  0
  -51.0733   60.2994   64.6333 C   0  0  0  0  0  0  0  0  0  0  0  0
  -50.8772   59.7196   63.2471 C   0  0  0  0  0  0  0  0  0  0  0  0
  -49.7264   60.3334   62.4777 C   0  0  0  0  0  0  0  0  0  0  0  0
  -49.7055   59.9613   60.9995 C   0  0  0  0  0  0  0  0  0  0  0  0
  -50.1263   58.5317   60.7180 C   0  0  0  0  0  0  0  0  0  0  0  0
  -50.1333   58.1857   59.2430 C   0  0  0  0  0  0  0  0  0  0  0  0
  -48.8743   57.4668   58.7789 C   0  0  0  0  0  0  0  0  0  0  0  0
  -47.8131   58.3986   58.2211 C   0  0  0  0  0  0  0  0  0  0  0  0
  -47.0156   56.2606   57.1586 C   0  0  0  0  0  0  0  0  0  0  0  0
  -46.8865   57.7664   57.2000 C   0  0  0  0  0  0  0  0  0  0  0  0
  -39.1402   60.3687   65.8615 C   0  0  0  0  0  0  0  0  0  0  0  0
  -38.8469   61.3641   64.8557 O   0  0  0  0  0  0  0  0  0  0  0  0
  -37.3692   61.9181   64.5887 P   0  0  0  0  0  0  0  0  0  0  0  0
  -36.4061   60.9045   65.0702 O   0  0  0  0  0  0  0  0  0  0  0  0
  -37.2905   62.3608   63.1757 O   0  0  0  0  0  0  0  0  0  0  0  0
  -37.3741   61.5916   62.5908 H   0  0  0  0  0  0  0  0  0  0  0  0
  -37.2282   63.2085   65.5148 O   0  0  0  0  0  0  0  0  0  0  0  0
  -36.0669   64.0560   65.3995 C   0  0  0  0  0  0  0  0  0  0  0  0
  -36.3164   63.8712   67.7756 O   0  0  0  0  0  0  0  0  0  0  0  0
  -35.3595   64.0777   66.7322 C   0  0  0  0  0  0  0  0  0  0  0  0
  -37.0151   64.5407   67.7108 H   0  0  0  0  0  0  0  0  0  0  0  0
  -33.2026   63.5023   67.6459 O   0  0  0  0  0  0  0  0  0  0  0  0
  -34.2633   63.0429   66.8180 C   0  0  0  0  0  0  0  0  0  0  0  0
  -32.5093   62.8252   67.6887 H   0  0  0  0  0  0  0  0  0  0  0  0
  -40.4662   59.6619   63.9130 O   0  0  0  0  0  0  0  0  0  0  0  0
  -42.3450   59.3088   62.7274 O   0  0  0  0  0  0  0  0  0  0  0  0
  -41.4007   58.8832   63.3349 C   0  0  0  0  0  0  0  0  0  0  0  0
  -41.1116   57.4263   63.5241 C   0  0  0  0  0  0  0  0  0  0  0  0
  -40.2922   56.8642   62.3668 C   0  0  0  0  0  0  0  0  0  0  0  0
  -41.1259   56.1762   61.2984 C   0  0  0  0  0  0  0  0  0  0  0  0
  -41.6614   57.1287   60.2355 C   0  0  0  0  0  0  0  0  0  0  0  0
  -40.5802   57.8488   59.4513 C   0  0  0  0  0  0  0  0  0  0  0  0
  -40.5080   59.3574   59.7041 C   0  0  0  0  0  0  0  0  0  0  0  0
  -39.1052   59.9068   59.9724 C   0  0  0  0  0  0  0  0  0  0  0  0
  -38.0576   58.8360   59.9093 C   0  0  0  0  0  0  0  0  0  0  0  0
  -37.3096   58.4065   60.9071 C   0  0  0  0  0  0  0  0  0  0  0  0
  -37.3524   58.9007   62.3186 C   0  0  0  0  0  0  0  0  0  0  0  0
  -36.8502   57.8602   63.3154 C   0  0  0  0  0  0  0  0  0  0  0  0
  -35.3390   57.7112   63.3314 C   0  0  0  0  0  0  0  0  0  0  0  0
  -34.7160   57.9618   64.6939 C   0  0  0  0  0  0  0  0  0  0  0  0
  -33.3884   58.7001   64.6531 C   0  0  0  0  0  0  0  0  0  0  0  0
  -33.1660   59.4754   63.3635 C   0  0  0  0  0  0  0  0  0  0  0  0
  -31.7374   59.4444   62.8574 C   0  0  0  0  0  0  0  0  0  0  0  0
  -31.4098   60.6117   61.9689 C   0  0  0  0  0  0  0  0  0  0  0  0
 21 22  1  0  0  0
  4  5  2  0  0  0
 25 24  1  0  0  0
 25 26  2  0  0  0
 25 27  1  0  0  0
 25 29  1  0  0  0
 22 20  1  0  0  0
  3  5  1  0  0  0
  3  2  1  0  0  0
 20 19  1  0  0  0
 24 23  1  0  0  0
 19 18  1  0  0  0
 18 17  1  0  0  0
 27 28  1  0  0  0
 17 16  1  0  0  0
 29 30  1  0  0  0
 16 15  1  0  0  0
 34 35  1  0  0  0
 34 36  1  0  0  0
 15 14  1  0  0  0
 31 32  1  0  0  0
 31 33  1  0  0  0
 14 13  1  0  0  0
 37  1  1  0  0  0
 37 39  1  0  0  0
 13 12  1  0  0  0
 38 39  2  0  0  0
 12 11  1  0  0  0
 11 10  1  0  0  0
 10  9  1  0  0  0
  9  8  1  0  0  0
  8  7  1  0  0  0
  7  6  1  0  0  0
  6  5  1  0  0  0
  2  1  1  0  0  0
  1 23  1  0  0  0
 30 32  1  0  0  0
 32 35  1  0  0  0
 39 40  1  0  0  0
 40 41  1  0  0  0
 41 42  1  0  0  0
 42 43  1  0  0  0
 43 44  1  0  0  0
 44 45  1  0  0  0
 45 46  1  0  0  0
 46 47  1  0  0  0
 47 48  2  0  0  0
 48 49  1  0  0  0
 49 50  1  0  0  0
 50 51  1  0  0  0
 51 52  1  0  0  0
 52 53  1  0  0  0
 53 54  1  0  0  0
 54 55  1  0  0  0
 55 56  1  0  0  0
M  CHG 1  26  -1
M  END
> <minimizedAffinity>
-9.03482

> <CNNscore>
0.5286098123

> <CNNaffinity>
7.5423622131

> <CNN_VS>
3.9869666100

> <CNNaffinity_variance>
1.1644232273

$$$$
/media/chris/experiments/cd1a-new-docking/inputs/ligands/7sh4_ligand.pdb


 56 55  0  0  0  0  0  0  0  0999 V2000
  -40.7383   60.1578   64.9647 C   0  0  0  0  0  0  0  0  0  0  0  0
  -40.9300   58.6788   65.1480 C   0  0  0  0  0  0  0  0  0  0  0  0
  -40.5750   58.1191   63.8659 O   0  0  0  0  0  0  0  0  0  0  0  0
  -41.6166   56.1490   63.6847 O   0  0  0  0  0  0  0  0  0  0  0  0
  -41.4484   57.2784   63.3109 C   0  0  0  0  0  0  0  0  0  0  0  0
  -42.2679   57.9653   62.2565 C   0  0  0  0  0  0  0  0  0  0  0  0
  -41.4450   58.6226   61.1614 C   0  0  0  0  0  0  0  0  0  0  0  0
  -40.8980   57.6263   60.1611 C   0  0  0  0  0  0  0  0  0  0  0  0
  -39.8884   58.2074   59.1972 C   0  0  0  0  0  0  0  0  0  0  0  0
  -38.5974   58.6260   59.8710 C   0  0  0  0  0  0  0  0  0  0  0  0
  -38.2781   57.8118   61.1010 C   0  0  0  0  0  0  0  0  0  0  0  0
  -37.0146   58.2562   61.7891 C   0  0  0  0  0  0  0  0  0  0  0  0
  -36.8118   57.6155   63.1443 C   0  0  0  0  0  0  0  0  0  0  0  0
  -35.3506   57.5209   63.5343 C   0  0  0  0  0  0  0  0  0  0  0  0
  -34.4054   58.1842   62.5546 C   0  0  0  0  0  0  0  0  0  0  0  0
  -33.6486   59.3725   63.1370 C   0  0  0  0  0  0  0  0  0  0  0  0
  -32.2099   59.0660   63.5059 C   0  0  0  0  0  0  0  0  0  0  0  0
  -31.1991   59.7969   62.6460 C   0  0  0  0  0  0  0  0  0  0  0  0
  -31.7897   60.9662   61.8707 C   0  0  0  0  0  0  0  0  0  0  0  0
  -31.5001   62.3188   62.4969 C   0  0  0  0  0  0  0  0  0  0  0  0
  -33.0306   63.8849   61.2558 C   0  0  0  0  0  0  0  0  0  0  0  0
  -31.5987   63.4941   61.5431 C   0  0  0  0  0  0  0  0  0  0  0  0
  -39.3225   60.5855   65.2551 C   0  0  0  0  0  0  0  0  0  0  0  0
  -38.8886   61.4927   64.2173 O   0  0  0  0  0  0  0  0  0  0  0  0
  -37.3491   61.8531   63.9683 P   0  0  0  0  0  0  0  0  0  0  0  0
  -36.5371   60.6739   64.3385 O   0  0  0  0  0  0  0  0  0  0  0  0
  -37.2201   62.4051   62.5981 O   0  0  0  0  0  0  0  0  0  0  0  0
  -37.4181   61.7111   61.9500 H   0  0  0  0  0  0  0  0  0  0  0  0
  -37.0165   63.0220   65.0006 O   0  0  0  0  0  0  0  0  0  0  0  0
  -36.0348   62.8124   66.0362 C   0  0  0  0  0  0  0  0  0  0  0  0
  -36.2509   64.2442   67.9456 O   0  0  0  0  0  0  0  0  0  0  0  0
  -35.6826   64.1516   66.6359 C   0  0  0  0  0  0  0  0  0  0  0  0
  -37.2081   64.0963   67.8939 H   0  0  0  0  0  0  0  0  0  0  0  0
  -33.5914   63.5214   67.6596 O   0  0  0  0  0  0  0  0  0  0  0  0
  -34.1913   64.3795   66.6976 C   0  0  0  0  0  0  0  0  0  0  0  0
  -32.6352   63.6823   67.6847 H   0  0  0  0  0  0  0  0  0  0  0  0
  -41.7018   60.8576   65.8203 O   0  0  0  0  0  0  0  0  0  0  0  0
  -42.5984   62.4377   64.4937 O   0  0  0  0  0  0  0  0  0  0  0  0
  -42.7263   61.4786   65.2049 C   0  0  0  0  0  0  0  0  0  0  0  0
  -44.0386   60.8202   65.4985 C   0  0  0  0  0  0  0  0  0  0  0  0
  -44.5870   60.0960   64.2731 C   0  0  0  0  0  0  0  0  0  0  0  0
  -45.0898   58.6909   64.5613 C   0  0  0  0  0  0  0  0  0  0  0  0
  -45.2439   58.3915   66.0481 C   0  0  0  0  0  0  0  0  0  0  0  0
  -46.6591   58.5623   66.5683 C   0  0  0  0  0  0  0  0  0  0  0  0
  -47.7240   58.7145   65.4785 C   0  0  0  0  0  0  0  0  0  0  0  0
  -48.3410   60.1099   65.3605 C   0  0  0  0  0  0  0  0  0  0  0  0
  -48.3133   60.6225   63.9518 C   0  0  0  0  0  0  0  0  0  0  0  0
  -49.3079   60.5995   63.0858 C   0  0  0  0  0  0  0  0  0  0  0  0
  -50.6796   60.0552   63.3313 C   0  0  0  0  0  0  0  0  0  0  0  0
  -50.7322   58.5347   63.2147 C   0  0  0  0  0  0  0  0  0  0  0  0
  -50.8753   58.0375   61.7869 C   0  0  0  0  0  0  0  0  0  0  0  0
  -49.5854   57.4915   61.1992 C   0  0  0  0  0  0  0  0  0  0  0  0
  -49.0362   58.2941   60.0314 C   0  0  0  0  0  0  0  0  0  0  0  0
  -48.0111   57.5345   59.2033 C   0  0  0  0  0  0  0  0  0  0  0  0
  -48.1452   57.7388   57.7073 C   0  0  0  0  0  0  0  0  0  0  0  0
  -46.8867   58.2668   57.0773 C   0  0  0  0  0  0  0  0  0  0  0  0
 21 22  1  0  0  0
  4  5  2  0  0  0
 25 24  1  0  0  0
 25 26  2  0  0  0
 25 27  1  0  0  0
 25 29  1  0  0  0
 22 20  1  0  0  0
  3  5  1  0  0  0
  3  2  1  0  0  0
 20 19  1  0  0  0
 24 23  1  0  0  0
 19 18  1  0  0  0
 18 17  1  0  0  0
 27 28  1  0  0  0
 17 16  1  0  0  0
 29 30  1  0  0  0
 16 15  1  0  0  0
 34 35  1  0  0  0
 34 36  1  0  0  0
 15 14  1  0  0  0
 31 32  1  0  0  0
 31 33  1  0  0  0
 14 13  1  0  0  0
 37  1  1  0  0  0
 37 39  1  0  0  0
 13 12  1  0  0  0
 38 39  2  0  0  0
 12 11  1  0  0  0
 11 10  1  0  0  0
 10  9  1  0  0  0
  9  8  1  0  0  0
  8  7  1  0  0  0
  7  6  1  0  0  0
  6  5  1  0  0  0
  2  1  1  0  0  0
  1 23  1  0  0  0
 30 32  1  0  0  0
 32 35  1  0  0  0
 39 40  1  0  0  0
 40 41  1  0  0  0
 41 42  1  0  0  0
 42 43  1  0  0  0
 43 44  1  0  0  0
 44 45  1  0  0  0
 45 46  1  0  0  0
 46 47  1  0  0  0
 47 48  2  0  0  0
 48 49  1  0  0  0
 49 50  1  0  0  0
 50 51  1  0  0  0
 51 52  1  0  0  0
 52 53  1  0  0  0
 53 54  1  0  0  0
 54 55  1  0  0  0
 55 56  1  0  0  0
M  CHG 1  26  -1
M  END
> <minimizedAffinity>
-8.63295

> <CNNscore>
0.5063163638

> <CNNaffinity>
7.3784227371

> <CNN_VS>
3.7358162403

> <CNNaffinity_variance>
1.3114454746

$$$$
/media/chris/experiments/cd1a-new-docking/inputs/ligands/7sh4_ligand.pdb


 56 55  0  0  0  0  0  0  0  0999 V2000
  -38.5469   60.4998   64.7001 C   0  0  0  0  0  0  0  0  0  0  0  0
  -39.6052   59.8530   65.5482 C   0  0  0  0  0  0  0  0  0  0  0  0
  -40.4441   60.9533   65.9592 O   0  0  0  0  0  0  0  0  0  0  0  0
  -42.5673   61.6537   65.9411 O   0  0  0  0  0  0  0  0  0  0  0  0
  -41.7624   60.7626   65.9004 C   0  0  0  0  0  0  0  0  0  0  0  0
  -42.0913   59.3186   65.6526 C   0  0  0  0  0  0  0  0  0  0  0  0
  -42.9154   59.0760   64.3995 C   0  0  0  0  0  0  0  0  0  0  0  0
  -44.3536   58.7141   64.7044 C   0  0  0  0  0  0  0  0  0  0  0  0
  -44.5108   57.5505   65.6570 C   0  0  0  0  0  0  0  0  0  0  0  0
  -45.8219   57.5779   66.4159 C   0  0  0  0  0  0  0  0  0  0  0  0
  -46.9103   58.3347   65.6945 C   0  0  0  0  0  0  0  0  0  0  0  0
  -47.4612   59.4825   66.4986 C   0  0  0  0  0  0  0  0  0  0  0  0
  -48.8748   59.8602   66.1152 C   0  0  0  0  0  0  0  0  0  0  0  0
  -48.9722   60.4097   64.7063 C   0  0  0  0  0  0  0  0  0  0  0  0
  -50.3809   60.7616   64.2764 C   0  0  0  0  0  0  0  0  0  0  0  0
  -51.1003   59.6359   63.5420 C   0  0  0  0  0  0  0  0  0  0  0  0
  -50.4742   59.2703   62.2099 C   0  0  0  0  0  0  0  0  0  0  0  0
  -50.9027   57.9109   61.6963 C   0  0  0  0  0  0  0  0  0  0  0  0
  -50.1696   57.4764   60.4349 C   0  0  0  0  0  0  0  0  0  0  0  0
  -49.0087   58.3823   60.0642 C   0  0  0  0  0  0  0  0  0  0  0  0
  -47.3124   57.3623   58.5092 C   0  0  0  0  0  0  0  0  0  0  0  0
  -48.5316   58.2481   58.6306 C   0  0  0  0  0  0  0  0  0  0  0  0
  -37.4918   61.1812   65.5333 C   0  0  0  0  0  0  0  0  0  0  0  0
  -37.5808   62.6078   65.3206 O   0  0  0  0  0  0  0  0  0  0  0  0
  -36.3273   63.5893   65.4864 P   0  0  0  0  0  0  0  0  0  0  0  0
  -36.1634   64.3402   64.2230 O   0  0  0  0  0  0  0  0  0  0  0  0
  -36.4989   64.3480   66.7488 O   0  0  0  0  0  0  0  0  0  0  0  0
  -37.2646   64.9382   66.6697 H   0  0  0  0  0  0  0  0  0  0  0  0
  -35.0623   62.6337   65.6573 O   0  0  0  0  0  0  0  0  0  0  0  0
  -34.0600   62.9340   66.6500 C   0  0  0  0  0  0  0  0  0  0  0  0
  -33.6052   65.0991   67.5708 O   0  0  0  0  0  0  0  0  0  0  0  0
  -33.5189   64.3159   66.3767 C   0  0  0  0  0  0  0  0  0  0  0  0
  -34.5230   65.1108   67.8843 H   0  0  0  0  0  0  0  0  0  0  0  0
  -31.3245   65.3110   66.4894 O   0  0  0  0  0  0  0  0  0  0  0  0
  -32.0953   64.2868   65.8743 C   0  0  0  0  0  0  0  0  0  0  0  0
  -30.4148   65.2763   66.1546 H   0  0  0  0  0  0  0  0  0  0  0  0
  -39.2006   61.4373   63.7815 O   0  0  0  0  0  0  0  0  0  0  0  0
  -40.8822   60.7323   62.4641 O   0  0  0  0  0  0  0  0  0  0  0  0
  -39.7108   60.9237   62.6458 C   0  0  0  0  0  0  0  0  0  0  0  0
  -38.6463   60.6379   61.6322 C   0  0  0  0  0  0  0  0  0  0  0  0
  -39.2379   60.4453   60.2395 C   0  0  0  0  0  0  0  0  0  0  0  0
  -38.6783   59.2458   59.4926 C   0  0  0  0  0  0  0  0  0  0  0  0
  -39.7101   58.1543   59.2318 C   0  0  0  0  0  0  0  0  0  0  0  0
  -41.1195   58.5236   59.6557 C   0  0  0  0  0  0  0  0  0  0  0  0
  -41.7640   57.5463   60.6429 C   0  0  0  0  0  0  0  0  0  0  0  0
  -40.7967   56.5768   61.3256 C   0  0  0  0  0  0  0  0  0  0  0  0
  -40.2788   57.1171   62.6248 C   0  0  0  0  0  0  0  0  0  0  0  0
  -39.0171   57.3410   62.9374 C   0  0  0  0  0  0  0  0  0  0  0  0
  -37.8333   57.1024   62.0543 C   0  0  0  0  0  0  0  0  0  0  0  0
  -36.6098   57.9025   62.4917 C   0  0  0  0  0  0  0  0  0  0  0  0
  -36.2947   57.7741   63.9717 C   0  0  0  0  0  0  0  0  0  0  0  0
  -34.8192   57.9300   64.2968 C   0  0  0  0  0  0  0  0  0  0  0  0
  -33.9072   57.9673   63.0818 C   0  0  0  0  0  0  0  0  0  0  0  0
  -32.9917   59.1815   63.0486 C   0  0  0  0  0  0  0  0  0  0  0  0
  -33.6936   60.4973   63.3201 C   0  0  0  0  0  0  0  0  0  0  0  0
  -32.7870   61.6850   63.1547 C   0  0  0  0  0  0  0  0  0  0  0  0
 21 22  1  0  0  0
  4  5  2  0  0  0
 25 24  1  0  0  0
 25 26  2  0  0  0
 25 27  1  0  0  0
 25 29  1  0  0  0
 22 20  1  0  0  0
  3  5  1  0  0  0
  3  2  1  0  0  0
 20 19  1  0  0  0
 24 23  1  0  0  0
 19 18  1  0  0  0
 18 17  1  0  0  0
 27 28  1  0  0  0
 17 16  1  0  0  0
 29 30  1  0  0  0
 16 15  1  0  0  0
 34 35  1  0  0  0
 34 36  1  0  0  0
 15 14  1  0  0  0
 31 32  1  0  0  0
 31 33  1  0  0  0
 14 13  1  0  0  0
 37  1  1  0  0  0
 37 39  1  0  0  0
 13 12  1  0  0  0
 38 39  2  0  0  0
 12 11  1  0  0  0
 11 10  1  0  0  0
 10  9  1  0  0  0
  9  8  1  0  0  0
  8  7  1  0  0  0
  7  6  1  0  0  0
  6  5  1  0  0  0
  2  1  1  0  0  0
  1 23  1  0  0  0
 30 32  1  0  0  0
 32 35  1  0  0  0
 39 40  1  0  0  0
 40 41  1  0  0  0
 41 42  1  0  0  0
 42 43  1  0  0  0
 43 44  1  0  0  0
 44 45  1  0  0  0
 45 46  1  0  0  0
 46 47  1  0  0  0
 47 48  2  0  0  0
 48 49  1  0  0  0
 49 50  1  0  0  0
 50 51  1  0  0  0
 51 52  1  0  0  0
 52 53  1  0  0  0
 53 54  1  0  0  0
 54 55  1  0  0  0
 55 56  1  0  0  0
M  CHG 1  26  -1
M  END
> <minimizedAffinity>
-8.41677

> <CNNscore>
0.4995710254

> <CNNaffinity>
7.5602049828

> <CNN_VS>
3.7768592834

> <CNNaffinity_variance>
0.9882246256

$$$$
/media/chris/experiments/cd1a-new-docking/inputs/ligands/7sh4_ligand.pdb


 56 55  0  0  0  0  0  0  0  0999 V2000
  -40.4195   60.5789   63.9265 C   0  0  0  0  0  0  0  0  0  0  0  0
  -39.9615   60.1409   65.2889 C   0  0  0  0  0  0  0  0  0  0  0  0
  -40.5609   58.8387   65.4569 O   0  0  0  0  0  0  0  0  0  0  0  0
  -42.1416   59.6816   66.7947 O   0  0  0  0  0  0  0  0  0  0  0  0
  -41.7222   58.7879   66.1100 C   0  0  0  0  0  0  0  0  0  0  0  0
  -42.4783   57.5343   65.7757 C   0  0  0  0  0  0  0  0  0  0  0  0
  -42.5801   57.2495   64.2868 C   0  0  0  0  0  0  0  0  0  0  0  0
  -41.9249   55.9423   63.8938 C   0  0  0  0  0  0  0  0  0  0  0  0
  -41.2736   55.9617   62.5295 C   0  0  0  0  0  0  0  0  0  0  0  0
  -41.1579   57.3557   61.9469 C   0  0  0  0  0  0  0  0  0  0  0  0
  -41.1177   57.3677   60.4383 C   0  0  0  0  0  0  0  0  0  0  0  0
  -40.5470   58.6422   59.8750 C   0  0  0  0  0  0  0  0  0  0  0  0
  -39.4865   58.4111   58.8215 C   0  0  0  0  0  0  0  0  0  0  0  0
  -38.1010   58.8089   59.2885 C   0  0  0  0  0  0  0  0  0  0  0  0
  -38.0301   59.2004   60.7496 C   0  0  0  0  0  0  0  0  0  0  0  0
  -37.1010   58.3210   61.5787 C   0  0  0  0  0  0  0  0  0  0  0  0
  -37.6939   57.8727   62.9007 C   0  0  0  0  0  0  0  0  0  0  0  0
  -36.7573   58.0642   64.0762 C   0  0  0  0  0  0  0  0  0  0  0  0
  -35.3674   57.4863   63.8493 C   0  0  0  0  0  0  0  0  0  0  0  0
  -34.2458   58.4622   64.1578 C   0  0  0  0  0  0  0  0  0  0  0  0
  -32.3696   59.6199   62.9431 C   0  0  0  0  0  0  0  0  0  0  0  0
  -33.0057   58.2956   63.3002 C   0  0  0  0  0  0  0  0  0  0  0  0
  -39.3391   61.3137   63.1752 C   0  0  0  0  0  0  0  0  0  0  0  0
  -38.3417   61.7655   64.1183 O   0  0  0  0  0  0  0  0  0  0  0  0
  -36.9263   62.3604   63.6655 P   0  0  0  0  0  0  0  0  0  0  0  0
  -35.8725   61.4223   64.1084 O   0  0  0  0  0  0  0  0  0  0  0  0
  -37.0111   62.7086   62.2266 O   0  0  0  0  0  0  0  0  0  0  0  0
  -37.1160   61.8985   61.7036 H   0  0  0  0  0  0  0  0  0  0  0  0
  -36.7550   63.7155   64.4882 O   0  0  0  0  0  0  0  0  0  0  0  0
  -35.4360   64.2061   64.8039 C   0  0  0  0  0  0  0  0  0  0  0  0
  -36.5683   64.2364   66.9156 O   0  0  0  0  0  0  0  0  0  0  0  0
  -35.2751   64.2065   66.3043 C   0  0  0  0  0  0  0  0  0  0  0  0
  -37.0617   65.0058   66.5910 H   0  0  0  0  0  0  0  0  0  0  0  0
  -33.4543   63.4242   67.6795 O   0  0  0  0  0  0  0  0  0  0  0  0
  -34.4924   63.0137   66.7988 C   0  0  0  0  0  0  0  0  0  0  0  0
  -32.9636   62.6456   67.9860 H   0  0  0  0  0  0  0  0  0  0  0  0
  -41.6230   61.4010   64.0864 O   0  0  0  0  0  0  0  0  0  0  0  0
  -42.5439   60.5135   62.2359 O   0  0  0  0  0  0  0  0  0  0  0  0
  -42.6458   61.1563   63.2450 C   0  0  0  0  0  0  0  0  0  0  0  0
  -43.9261   61.7648   63.7271 C   0  0  0  0  0  0  0  0  0  0  0  0
  -44.5881   60.9007   64.7956 C   0  0  0  0  0  0  0  0  0  0  0  0
  -46.0117   60.4880   64.4596 C   0  0  0  0  0  0  0  0  0  0  0  0
  -46.2976   59.0140   64.7233 C   0  0  0  0  0  0  0  0  0  0  0  0
  -47.7022   58.7384   65.2269 C   0  0  0  0  0  0  0  0  0  0  0  0
  -48.5774   59.9848   65.3862 C   0  0  0  0  0  0  0  0  0  0  0  0
  -50.0802   59.7167   65.4925 C   0  0  0  0  0  0  0  0  0  0  0  0
  -50.8574   60.4256   64.4241 C   0  0  0  0  0  0  0  0  0  0  0  0
  -51.1778   59.9497   63.2364 C   0  0  0  0  0  0  0  0  0  0  0  0
  -50.8314   58.5945   62.7057 C   0  0  0  0  0  0  0  0  0  0  0  0
  -49.4883   58.5784   61.9817 C   0  0  0  0  0  0  0  0  0  0  0  0
  -49.5371   59.1910   60.5930 C   0  0  0  0  0  0  0  0  0  0  0  0
  -49.8496   58.1889   59.4951 C   0  0  0  0  0  0  0  0  0  0  0  0
  -49.0015   56.9285   59.5329 C   0  0  0  0  0  0  0  0  0  0  0  0
  -47.5243   57.1846   59.2764 C   0  0  0  0  0  0  0  0  0  0  0  0
  -47.0857   56.9201   57.8497 C   0  0  0  0  0  0  0  0  0  0  0  0
  -47.2394   58.1231   56.9615 C   0  0  0  0  0  0  0  0  0  0  0  0
 21 22  1  0  0  0
  4  5  2  0  0  0
 25 24  1  0  0  0
 25 26  2  0  0  0
 25 27  1  0  0  0
 25 29  1  0  0  0
 22 20  1  0  0  0
  3  5  1  0  0  0
  3  2  1  0  0  0
 20 19  1  0  0  0
 24 23  1  0  0  0
 19 18  1  0  0  0
 18 17  1  0  0  0
 27 28  1  0  0  0
 17 16  1  0  0  0
 29 30  1  0  0  0
 16 15  1  0  0  0
 34 35  1  0  0  0
 34 36  1  0  0  0
 15 14  1  0  0  0
 31 32  1  0  0  0
 31 33  1  0  0  0
 14 13  1  0  0  0
 37  1  1  0  0  0
 37 39  1  0  0  0
 13 12  1  0  0  0
 38 39  2  0  0  0
 12 11  1  0  0  0
 11 10  1  0  0  0
 10  9  1  0  0  0
  9  8  1  0  0  0
  8  7  1  0  0  0
  7  6  1  0  0  0
  6  5  1  0  0  0
  2  1  1  0  0  0
  1 23  1  0  0  0
 30 32  1  0  0  0
 32 35  1  0  0  0
 39 40  1  0  0  0
 40 41  1  0  0  0
 41 42  1  0  0  0
 42 43  1  0  0  0
 43 44  1  0  0  0
 44 45  1  0  0  0
 45 46  1  0  0  0
 46 47  1  0  0  0
 47 48  2  0  0  0
 48 49  1  0  0  0
 49 50  1  0  0  0
 50 51  1  0  0  0
 51 52  1  0  0  0
 52 53  1  0  0  0
 53 54  1  0  0  0
 54 55  1  0  0  0
 55 56  1  0  0  0
M  CHG 1  26  -1
M  END
> <minimizedAffinity>
-8.93573

> <CNNscore>
0.4440316260

> <CNNaffinity>
7.5338363647

> <CNN_VS>
3.3452615738

> <CNNaffinity_variance>
1.7941253185

$$$$
/media/chris/experiments/cd1a-new-docking/inputs/ligands/7sh4_ligand.pdb


 56 55  0  0  0  0  0  0  0  0999 V2000
  -43.0930   58.4174   63.4049 C   0  0  0  0  0  0  0  0  0  0  0  0
  -42.0100   57.5871   62.7761 C   0  0  0  0  0  0  0  0  0  0  0  0
  -42.0541   57.9542   61.3810 O   0  0  0  0  0  0  0  0  0  0  0  0
  -41.3844   55.9850   60.5607 O   0  0  0  0  0  0  0  0  0  0  0  0
  -41.3704   57.1860   60.5323 C   0  0  0  0  0  0  0  0  0  0  0  0
  -40.6945   58.0125   59.4763 C   0  0  0  0  0  0  0  0  0  0  0  0
  -39.3944   58.6551   59.9290 C   0  0  0  0  0  0  0  0  0  0  0  0
  -38.6679   57.8351   60.9742 C   0  0  0  0  0  0  0  0  0  0  0  0
  -37.2571   58.3003   61.2557 C   0  0  0  0  0  0  0  0  0  0  0  0
  -36.7182   57.7940   62.5783 C   0  0  0  0  0  0  0  0  0  0  0  0
  -35.2621   58.1275   62.7932 C   0  0  0  0  0  0  0  0  0  0  0  0
  -34.9433   58.4770   64.2228 C   0  0  0  0  0  0  0  0  0  0  0  0
  -33.5995   59.1509   64.3907 C   0  0  0  0  0  0  0  0  0  0  0  0
  -32.5440   58.5926   63.4578 C   0  0  0  0  0  0  0  0  0  0  0  0
  -31.4971   59.6017   63.0347 C   0  0  0  0  0  0  0  0  0  0  0  0
  -31.9786   60.5787   61.9682 C   0  0  0  0  0  0  0  0  0  0  0  0
  -31.1189   61.8212   61.8374 C   0  0  0  0  0  0  0  0  0  0  0  0
  -31.4901   62.9159   62.8168 C   0  0  0  0  0  0  0  0  0  0  0  0
  -32.9849   63.1964   62.8806 C   0  0  0  0  0  0  0  0  0  0  0  0
  -33.3684   64.2083   63.9457 C   0  0  0  0  0  0  0  0  0  0  0  0
  -33.1917   63.7080   66.4062 C   0  0  0  0  0  0  0  0  0  0  0  0
  -32.4758   64.2081   65.1721 C   0  0  0  0  0  0  0  0  0  0  0  0
  -42.5467   59.6640   64.0524 C   0  0  0  0  0  0  0  0  0  0  0  0
  -41.1748   59.8420   63.6349 O   0  0  0  0  0  0  0  0  0  0  0  0
  -39.9557   59.9148   64.6696 P   0  0  0  0  0  0  0  0  0  0  0  0
  -40.1910   61.0603   65.5746 O   0  0  0  0  0  0  0  0  0  0  0  0
  -39.7701   58.5672   65.2596 O   0  0  0  0  0  0  0  0  0  0  0  0
  -40.5413   58.3435   65.8037 H   0  0  0  0  0  0  0  0  0  0  0  0
  -38.6702   60.2437   63.7853 O   0  0  0  0  0  0  0  0  0  0  0  0
  -38.3811   61.6062   63.4110 C   0  0  0  0  0  0  0  0  0  0  0  0
  -36.4637   62.6991   62.4776 O   0  0  0  0  0  0  0  0  0  0  0  0
  -36.8927   61.8257   63.5264 C   0  0  0  0  0  0  0  0  0  0  0  0
  -36.7227   62.3267   61.6203 H   0  0  0  0  0  0  0  0  0  0  0  0
  -37.6153   62.4292   65.7472 O   0  0  0  0  0  0  0  0  0  0  0  0
  -36.4973   62.3908   64.8696 C   0  0  0  0  0  0  0  0  0  0  0  0
  -37.3420   62.7945   66.6032 H   0  0  0  0  0  0  0  0  0  0  0  0
  -43.8168   57.5802   64.3667 O   0  0  0  0  0  0  0  0  0  0  0  0
  -42.4319   57.4110   66.1313 O   0  0  0  0  0  0  0  0  0  0  0  0
  -43.4937   57.7244   65.6662 C   0  0  0  0  0  0  0  0  0  0  0  0
  -44.6079   58.3382   66.4560 C   0  0  0  0  0  0  0  0  0  0  0  0
  -45.9099   57.5629   66.2814 C   0  0  0  0  0  0  0  0  0  0  0  0
  -47.0019   58.3444   65.5695 C   0  0  0  0  0  0  0  0  0  0  0  0
  -47.5172   59.5368   66.3674 C   0  0  0  0  0  0  0  0  0  0  0  0
  -48.7465   60.1948   65.7687 C   0  0  0  0  0  0  0  0  0  0  0  0
  -50.0198   59.3469   65.8376 C   0  0  0  0  0  0  0  0  0  0  0  0
  -50.4315   58.6815   64.5226 C   0  0  0  0  0  0  0  0  0  0  0  0
  -51.1324   59.6353   63.6021 C   0  0  0  0  0  0  0  0  0  0  0  0
  -50.6806   60.0942   62.4510 C   0  0  0  0  0  0  0  0  0  0  0  0
  -49.3674   59.7548   61.8198 C   0  0  0  0  0  0  0  0  0  0  0  0
  -49.4805   59.5560   60.3111 C   0  0  0  0  0  0  0  0  0  0  0  0
  -50.0821   58.2188   59.9160 C   0  0  0  0  0  0  0  0  0  0  0  0
  -49.1833   57.0324   60.2189 C   0  0  0  0  0  0  0  0  0  0  0  0
  -47.7918   57.1263   59.6153 C   0  0  0  0  0  0  0  0  0  0  0  0
  -47.6018   56.2440   58.3911 C   0  0  0  0  0  0  0  0  0  0  0  0
  -47.0454   56.9692   57.1818 C   0  0  0  0  0  0  0  0  0  0  0  0
  -47.1030   58.4647   57.3233 C   0  0  0  0  0  0  0  0  0  0  0  0
 21 22  1  0  0  0
  4  5  2  0  0  0
 25 24  1  0  0  0
 25 26  2  0  0  0
 25 27  1  0  0  0
 25 29  1  0  0  0
 22 20  1  0  0  0
  3  5  1  0  0  0
  3  2  1  0  0  0
 20 19  1  0  0  0
 24 23  1  0  0  0
 19 18  1  0  0  0
 18 17  1  0  0  0
 27 28  1  0  0  0
 17 16  1  0  0  0
 29 30  1  0  0  0
 16 15  1  0  0  0
 34 35  1  0  0  0
 34 36  1  0  0  0
 15 14  1  0  0  0
 31 32  1  0  0  0
 31 33  1  0  0  0
 14 13  1  0  0  0
 37  1  1  0  0  0
 37 39  1  0  0  0
 13 12  1  0  0  0
 38 39  2  0  0  0
 12 11  1  0  0  0
 11 10  1  0  0  0
 10  9  1  0  0  0
  9  8  1  0  0  0
  8  7  1  0  0  0
  7  6  1  0  0  0
  6  5  1  0  0  0
  2  1  1  0  0  0
  1 23  1  0  0  0
 30 32  1  0  0  0
 32 35  1  0  0  0
 39 40  1  0  0  0
 40 41  1  0  0  0
 41 42  1  0  0  0
 42 43  1  0  0  0
 43 44  1  0  0  0
 44 45  1  0  0  0
 45 46  1  0  0  0
 46 47  1  0  0  0
 47 48  2  0  0  0
 48 49  1  0  0  0
 49 50  1  0  0  0
 50 51  1  0  0  0
 51 52  1  0  0  0
 52 53  1  0  0  0
 53 54  1  0  0  0
 54 55  1  0  0  0
 55 56  1  0  0  0
M  CHG 1  26  -1
M  END
> <minimizedAffinity>
-8.21878

> <CNNscore>
0.3767094016

> <CNNaffinity>
6.8893003464

> <CNN_VS>
2.5952641964

> <CNNaffinity_variance>
1.0869033337

$$$$
/media/chris/experiments/cd1a-new-docking/inputs/ligands/7sh4_ligand.pdb


 56 55  0  0  0  0  0  0  0  0999 V2000
  -36.9818   62.2144   63.9652 C   0  0  0  0  0  0  0  0  0  0  0  0
  -38.3679   61.7264   63.6519 C   0  0  0  0  0  0  0  0  0  0  0  0
  -38.8157   61.1296   64.8874 O   0  0  0  0  0  0  0  0  0  0  0  0
  -40.7145   61.2072   66.0652 O   0  0  0  0  0  0  0  0  0  0  0  0
  -40.1309   60.9739   65.0413 C   0  0  0  0  0  0  0  0  0  0  0  0
  -40.7879   60.5955   63.7451 C   0  0  0  0  0  0  0  0  0  0  0  0
  -42.0331   61.4036   63.4215 C   0  0  0  0  0  0  0  0  0  0  0  0
  -43.2956   60.5680   63.4403 C   0  0  0  0  0  0  0  0  0  0  0  0
  -44.3538   61.0662   64.3984 C   0  0  0  0  0  0  0  0  0  0  0  0
  -45.0288   59.9502   65.1696 C   0  0  0  0  0  0  0  0  0  0  0  0
  -46.5112   59.8558   64.9028 C   0  0  0  0  0  0  0  0  0  0  0  0
  -47.3481   60.1570   66.1179 C   0  0  0  0  0  0  0  0  0  0  0  0
  -48.8287   59.9409   65.8957 C   0  0  0  0  0  0  0  0  0  0  0  0
  -49.3290   60.5849   64.6185 C   0  0  0  0  0  0  0  0  0  0  0  0
  -50.8191   60.4352   64.3937 C   0  0  0  0  0  0  0  0  0  0  0  0
  -51.1765   59.6302   63.1494 C   0  0  0  0  0  0  0  0  0  0  0  0
  -50.0961   59.6286   62.0851 C   0  0  0  0  0  0  0  0  0  0  0  0
  -49.7100   58.2389   61.6214 C   0  0  0  0  0  0  0  0  0  0  0  0
  -50.4370   57.7923   60.3608 C   0  0  0  0  0  0  0  0  0  0  0  0
  -49.6090   57.9410   59.0967 C   0  0  0  0  0  0  0  0  0  0  0  0
  -47.5666   56.4859   58.8798 C   0  0  0  0  0  0  0  0  0  0  0  0
  -48.1103   57.8317   59.3032 C   0  0  0  0  0  0  0  0  0  0  0  0
  -36.7037   63.5622   63.3506 C   0  0  0  0  0  0  0  0  0  0  0  0
  -35.8077   63.3865   62.2303 O   0  0  0  0  0  0  0  0  0  0  0  0
  -34.7213   64.4836   61.8083 P   0  0  0  0  0  0  0  0  0  0  0  0
  -33.6884   63.8137   60.9892 O   0  0  0  0  0  0  0  0  0  0  0  0
  -35.4394   65.6480   61.2363 O   0  0  0  0  0  0  0  0  0  0  0  0
  -35.8637   65.3889   60.4034 H   0  0  0  0  0  0  0  0  0  0  0  0
  -34.0401   64.9501   63.1725 O   0  0  0  0  0  0  0  0  0  0  0  0
  -33.0478   64.1164   63.8054 C   0  0  0  0  0  0  0  0  0  0  0  0
  -33.0605   66.1735   65.0346 O   0  0  0  0  0  0  0  0  0  0  0  0
  -32.4576   64.8778   64.9669 C   0  0  0  0  0  0  0  0  0  0  0  0
  -32.9415   66.6302   64.1872 H   0  0  0  0  0  0  0  0  0  0  0  0
  -33.9981   64.1606   66.6788 O   0  0  0  0  0  0  0  0  0  0  0  0
  -32.6337   64.1519   66.2791 C   0  0  0  0  0  0  0  0  0  0  0  0
  -34.0910   63.6905   67.5222 H   0  0  0  0  0  0  0  0  0  0  0  0
  -36.0226   61.2031   63.5100 O   0  0  0  0  0  0  0  0  0  0  0  0
  -34.8015   61.4809   65.3787 O   0  0  0  0  0  0  0  0  0  0  0  0
  -34.9954   60.9212   64.3341 C   0  0  0  0  0  0  0  0  0  0  0  0
  -34.1368   59.8160   63.8019 C   0  0  0  0  0  0  0  0  0  0  0  0
  -34.2810   58.5459   64.6342 C   0  0  0  0  0  0  0  0  0  0  0  0
  -35.3792   57.6133   64.1503 C   0  0  0  0  0  0  0  0  0  0  0  0
  -35.7509   57.8171   62.6860 C   0  0  0  0  0  0  0  0  0  0  0  0
  -37.1794   57.4294   62.3523 C   0  0  0  0  0  0  0  0  0  0  0  0
  -38.1394   58.6118   62.1930 C   0  0  0  0  0  0  0  0  0  0  0  0
  -38.0614   59.3379   60.8483 C   0  0  0  0  0  0  0  0  0  0  0  0
  -38.4519   58.4511   59.7040 C   0  0  0  0  0  0  0  0  0  0  0  0
  -39.6668   58.2790   59.2203 C   0  0  0  0  0  0  0  0  0  0  0  0
  -40.9154   58.9381   59.7150 C   0  0  0  0  0  0  0  0  0  0  0  0
  -41.5197   58.2147   60.9149 C   0  0  0  0  0  0  0  0  0  0  0  0
  -41.3017   56.7120   60.8937 C   0  0  0  0  0  0  0  0  0  0  0  0
  -40.7473   56.1578   62.1948 C   0  0  0  0  0  0  0  0  0  0  0  0
  -41.2145   56.8909   63.4413 C   0  0  0  0  0  0  0  0  0  0  0  0
  -42.5702   56.4222   63.9471 C   0  0  0  0  0  0  0  0  0  0  0  0
  -42.9731   57.0118   65.2842 C   0  0  0  0  0  0  0  0  0  0  0  0
  -41.9235   57.9219   65.8584 C   0  0  0  0  0  0  0  0  0  0  0  0
 21 22  1  0  0  0
  4  5  2  0  0  0
 25 24  1  0  0  0
 25 26  2  0  0  0
 25 27  1  0  0  0
 25 29  1  0  0  0
 22 20  1  0  0  0
  3  5  1  0  0  0
  3  2  1  0  0  0
 20 19  1  0  0  0
 24 23  1  0  0  0
 19 18  1  0  0  0
 18 17  1  0  0  0
 27 28  1  0  0  0
 17 16  1  0  0  0
 29 30  1  0  0  0
 16 15  1  0  0  0
 34 35  1  0  0  0
 34 36  1  0  0  0
 15 14  1  0  0  0
 31 32  1  0  0  0
 31 33  1  0  0  0
 14 13  1  0  0  0
 37  1  1  0  0  0
 37 39  1  0  0  0
 13 12  1  0  0  0
 38 39  2  0  0  0
 12 11  1  0  0  0
 11 10  1  0  0  0
 10  9  1  0  0  0
  9  8  1  0  0  0
  8  7  1  0  0  0
  7  6  1  0  0  0
  6  5  1  0  0  0
  2  1  1  0  0  0
  1 23  1  0  0  0
 30 32  1  0  0  0
 32 35  1  0  0  0
 39 40  1  0  0  0
 40 41  1  0  0  0
 41 42  1  0  0  0
 42 43  1  0  0  0
 43 44  1  0  0  0
 44 45  1  0  0  0
 45 46  1  0  0  0
 46 47  1  0  0  0
 47 48  2  0  0  0
 48 49  1  0  0  0
 49 50  1  0  0  0
 50 51  1  0  0  0
 51 52  1  0  0  0
 52 53  1  0  0  0
 53 54  1  0  0  0
 54 55  1  0  0  0
 55 56  1  0  0  0
M  CHG 1  26  -1
M  END
> <minimizedAffinity>
-7.92845

> <CNNscore>
0.3509013057

> <CNNaffinity>
7.4173712730

> <CNN_VS>
2.6027653217

> <CNNaffinity_variance>
0.8327314258

$$$$
/media/chris/experiments/cd1a-new-docking/inputs/ligands/7sh4_ligand.pdb


 56 55  0  0  0  0  0  0  0  0999 V2000
  -39.9610   60.2092   63.5481 C   0  0  0  0  0  0  0  0  0  0  0  0
  -41.0740   59.8717   64.4994 C   0  0  0  0  0  0  0  0  0  0  0  0
  -41.3936   61.1328   65.1244 O   0  0  0  0  0  0  0  0  0  0  0  0
  -42.6061   61.4392   66.9778 O   0  0  0  0  0  0  0  0  0  0  0  0
  -42.5396   61.1976   65.8028 C   0  0  0  0  0  0  0  0  0  0  0  0
  -43.7211   61.0555   64.8869 C   0  0  0  0  0  0  0  0  0  0  0  0
  -44.8774   60.2707   65.4829 C   0  0  0  0  0  0  0  0  0  0  0  0
  -44.5653   58.7979   65.6436 C   0  0  0  0  0  0  0  0  0  0  0  0
  -45.7836   57.9246   65.8410 C   0  0  0  0  0  0  0  0  0  0  0  0
  -47.0422   58.7180   66.1281 C   0  0  0  0  0  0  0  0  0  0  0  0
  -48.1185   58.5213   65.0886 C   0  0  0  0  0  0  0  0  0  0  0  0
  -48.0939   59.5718   64.0100 C   0  0  0  0  0  0  0  0  0  0  0  0
  -49.0193   60.7363   64.2848 C   0  0  0  0  0  0  0  0  0  0  0  0
  -50.4825   60.3645   64.1544 C   0  0  0  0  0  0  0  0  0  0  0  0
  -50.9113   60.0297   62.7411 C   0  0  0  0  0  0  0  0  0  0  0  0
  -51.0632   58.5353   62.4812 C   0  0  0  0  0  0  0  0  0  0  0  0
  -50.3546   58.0523   61.2303 C   0  0  0  0  0  0  0  0  0  0  0  0
  -49.5430   59.1316   60.5434 C   0  0  0  0  0  0  0  0  0  0  0  0
  -48.8620   58.6627   59.2653 C   0  0  0  0  0  0  0  0  0  0  0  0
  -48.0734   57.3762   59.4338 C   0  0  0  0  0  0  0  0  0  0  0  0
  -47.4915   56.1224   57.3301 C   0  0  0  0  0  0  0  0  0  0  0  0
  -47.0296   57.1265   58.3618 C   0  0  0  0  0  0  0  0  0  0  0  0
  -38.6985   60.6035   64.2708 C   0  0  0  0  0  0  0  0  0  0  0  0
  -38.3948   61.9814   63.9585 O   0  0  0  0  0  0  0  0  0  0  0  0
  -36.9199   62.4825   63.5901 P   0  0  0  0  0  0  0  0  0  0  0  0
  -36.1858   61.3459   62.9937 O   0  0  0  0  0  0  0  0  0  0  0  0
  -37.0403   63.7394   62.8127 O   0  0  0  0  0  0  0  0  0  0  0  0
  -37.4571   63.5518   61.9572 H   0  0  0  0  0  0  0  0  0  0  0  0
  -36.2323   62.8334   64.9854 O   0  0  0  0  0  0  0  0  0  0  0  0
  -35.8546   64.1934   65.2818 C   0  0  0  0  0  0  0  0  0  0  0  0
  -36.1602   63.9853   67.6494 O   0  0  0  0  0  0  0  0  0  0  0  0
  -35.1813   64.2166   66.6320 C   0  0  0  0  0  0  0  0  0  0  0  0
  -36.8686   64.6432   67.5721 H   0  0  0  0  0  0  0  0  0  0  0  0
  -33.2947   63.4233   67.9085 O   0  0  0  0  0  0  0  0  0  0  0  0
  -34.0697   63.2002   66.7376 C   0  0  0  0  0  0  0  0  0  0  0  0
  -32.5870   62.7617   67.9588 H   0  0  0  0  0  0  0  0  0  0  0  0
  -40.4264   61.2721   62.6517 O   0  0  0  0  0  0  0  0  0  0  0  0
  -42.2470   61.1334   61.3377 O   0  0  0  0  0  0  0  0  0  0  0  0
  -41.0893   60.8896   61.5435 C   0  0  0  0  0  0  0  0  0  0  0  0
  -40.2070   60.1416   60.5927 C   0  0  0  0  0  0  0  0  0  0  0  0
  -41.0108   59.1802   59.7230 C   0  0  0  0  0  0  0  0  0  0  0  0
  -40.6803   57.7152   59.9561 C   0  0  0  0  0  0  0  0  0  0  0  0
  -41.2058   57.1749   61.2811 C   0  0  0  0  0  0  0  0  0  0  0  0
  -40.1205   56.6843   62.2213 C   0  0  0  0  0  0  0  0  0  0  0  0
  -38.6919   56.9225   61.7240 C   0  0  0  0  0  0  0  0  0  0  0  0
  -37.7508   57.5800   62.7357 C   0  0  0  0  0  0  0  0  0  0  0  0
  -36.4006   57.8646   62.1491 C   0  0  0  0  0  0  0  0  0  0  0  0
  -35.2878   58.1058   62.8149 C   0  0  0  0  0  0  0  0  0  0  0  0
  -35.1404   58.1443   64.3031 C   0  0  0  0  0  0  0  0  0  0  0  0
  -33.8574   58.8432   64.7433 C   0  0  0  0  0  0  0  0  0  0  0  0
  -32.6380   58.4483   63.9288 C   0  0  0  0  0  0  0  0  0  0  0  0
  -32.1546   59.5380   62.9873 C   0  0  0  0  0  0  0  0  0  0  0  0
  -32.8592   60.8739   63.1557 C   0  0  0  0  0  0  0  0  0  0  0  0
  -32.1479   62.0254   62.4618 C   0  0  0  0  0  0  0  0  0  0  0  0
  -32.6909   63.3957   62.8158 C   0  0  0  0  0  0  0  0  0  0  0  0
  -33.6493   63.9253   61.7859 C   0  0  0  0  0  0  0  0  0  0  0  0
 21 22  1  0  0  0
  4  5  2  0  0  0
 25 24  1  0  0  0
 25 26  2  0  0  0
 25 27  1  0  0  0
 25 29  1  0  0  0
 22 20  1  0  0  0
  3  5  1  0  0  0
  3  2  1  0  0  0
 20 19  1  0  0  0
 24 23  1  0  0  0
 19 18  1  0  0  0
 18 17  1  0  0  0
 27 28  1  0  0  0
 17 16  1  0  0  0
 29 30  1  0  0  0
 16 15  1  0  0  0
 34 35  1  0  0  0
 34 36  1  0  0  0
 15 14  1  0  0  0
 31 32  1  0  0  0
 31 33  1  0  0  0
 14 13  1  0  0  0
 37  1  1  0  0  0
 37 39  1  0  0  0
 13 12  1  0  0  0
 38 39  2  0  0  0
 12 11  1  0  0  0
 11 10  1  0  0  0
 10  9  1  0  0  0
  9  8  1  0  0  0
  8  7  1  0  0  0
  7  6  1  0  0  0
  6  5  1  0  0  0
  2  1  1  0  0  0
  1 23  1  0  0  0
 30 32  1  0  0  0
 32 35  1  0  0  0
 39 40  1  0  0  0
 40 41  1  0  0  0
 41 42  1  0  0  0
 42 43  1  0  0  0
 43 44  1  0  0  0
 44 45  1  0  0  0
 45 46  1  0  0  0
 46 47  1  0  0  0
 47 48  2  0  0  0
 48 49  1  0  0  0
 49 50  1  0  0  0
 50 51  1  0  0  0
 51 52  1  0  0  0
 52 53  1  0  0  0
 53 54  1  0  0  0
 54 55  1  0  0  0
 55 56  1  0  0  0
M  CHG 1  26  -1
M  END
> <minimizedAffinity>
-8.51993

> <CNNscore>
0.3283842504

> <CNNaffinity>
7.2895002365

> <CNN_VS>
2.3937571049

> <CNNaffinity_variance>
0.9886441231

$$$$
/media/chris/experiments/cd1a-new-docking/inputs/ligands/7sh4_ligand.pdb


 56 55  0  0  0  0  0  0  0  0999 V2000
  -36.5337   62.6098   65.0859 C   0  0  0  0  0  0  0  0  0  0  0  0
  -35.4610   62.2389   64.1014 C   0  0  0  0  0  0  0  0  0  0  0  0
  -34.8344   61.0787   64.6882 O   0  0  0  0  0  0  0  0  0  0  0  0
  -33.6053   60.7094   62.8574 O   0  0  0  0  0  0  0  0  0  0  0  0
  -34.0987   60.3154   63.8795 C   0  0  0  0  0  0  0  0  0  0  0  0
  -33.8705   58.9562   64.4756 C   0  0  0  0  0  0  0  0  0  0  0  0
  -35.1061   58.0723   64.4965 C   0  0  0  0  0  0  0  0  0  0  0  0
  -35.7955   57.9964   63.1506 C   0  0  0  0  0  0  0  0  0  0  0  0
  -37.3053   57.9811   63.2282 C   0  0  0  0  0  0  0  0  0  0  0  0
  -37.9638   57.6343   61.9083 C   0  0  0  0  0  0  0  0  0  0  0  0
  -37.3886   58.3958   60.7392 C   0  0  0  0  0  0  0  0  0  0  0  0
  -38.4059   59.2594   60.0415 C   0  0  0  0  0  0  0  0  0  0  0  0
  -39.2910   58.4911   59.0853 C   0  0  0  0  0  0  0  0  0  0  0  0
  -40.7010   58.3098   59.6101 C   0  0  0  0  0  0  0  0  0  0  0  0
  -41.2592   59.5282   60.3152 C   0  0  0  0  0  0  0  0  0  0  0  0
  -41.2688   59.4099   61.8350 C   0  0  0  0  0  0  0  0  0  0  0  0
  -41.9824   58.1757   62.3525 C   0  0  0  0  0  0  0  0  0  0  0  0
  -41.1569   57.3709   63.3355 C   0  0  0  0  0  0  0  0  0  0  0  0
  -41.9732   56.3714   64.1430 C   0  0  0  0  0  0  0  0  0  0  0  0
  -43.2732   56.9423   64.6812 C   0  0  0  0  0  0  0  0  0  0  0  0
  -44.5843   57.7181   66.6849 C   0  0  0  0  0  0  0  0  0  0  0  0
  -43.2162   57.3969   66.1272 C   0  0  0  0  0  0  0  0  0  0  0  0
  -35.9803   63.3596   66.2705 C   0  0  0  0  0  0  0  0  0  0  0  0
  -34.9409   64.2526   65.8115 O   0  0  0  0  0  0  0  0  0  0  0  0
  -33.4801   64.2915   66.4645 P   0  0  0  0  0  0  0  0  0  0  0  0
  -33.1431   65.7030   66.7491 O   0  0  0  0  0  0  0  0  0  0  0  0
  -33.4458   63.3126   67.5777 O   0  0  0  0  0  0  0  0  0  0  0  0
  -34.0396   63.6074   68.2858 H   0  0  0  0  0  0  0  0  0  0  0  0
  -32.4939   63.7715   65.3244 O   0  0  0  0  0  0  0  0  0  0  0  0
  -31.8523   64.7135   64.4406 C   0  0  0  0  0  0  0  0  0  0  0  0
  -31.6043   62.7304   63.1184 O   0  0  0  0  0  0  0  0  0  0  0  0
  -31.8571   64.1367   63.0462 C   0  0  0  0  0  0  0  0  0  0  0  0
  -30.7684   62.5756   63.5855 H   0  0  0  0  0  0  0  0  0  0  0  0
  -33.4428   63.3417   61.4116 O   0  0  0  0  0  0  0  0  0  0  0  0
  -33.1560   64.3961   62.3212 C   0  0  0  0  0  0  0  0  0  0  0  0
  -34.2793   63.5260   60.9563 H   0  0  0  0  0  0  0  0  0  0  0  0
  -37.2272   61.3848   65.4961 O   0  0  0  0  0  0  0  0  0  0  0  0
  -38.8066   61.6360   63.9141 O   0  0  0  0  0  0  0  0  0  0  0  0
  -38.4379   61.1572   64.9517 C   0  0  0  0  0  0  0  0  0  0  0  0
  -39.2601   60.2228   65.7842 C   0  0  0  0  0  0  0  0  0  0  0  0
  -40.7253   60.2389   65.3604 C   0  0  0  0  0  0  0  0  0  0  0  0
  -41.6890   60.5748   66.4867 C   0  0  0  0  0  0  0  0  0  0  0  0
  -42.9662   61.2588   66.0127 C   0  0  0  0  0  0  0  0  0  0  0  0
  -43.4168   60.8327   64.6279 C   0  0  0  0  0  0  0  0  0  0  0  0
  -44.8669   61.1920   64.2916 C   0  0  0  0  0  0  0  0  0  0  0  0
  -45.8612   60.0315   64.3716 C   0  0  0  0  0  0  0  0  0  0  0  0
  -46.8618   60.2199   65.4722 C   0  0  0  0  0  0  0  0  0  0  0  0
  -48.0097   59.5851   65.6099 C   0  0  0  0  0  0  0  0  0  0  0  0
  -48.5546   58.5373   64.6915 C   0  0  0  0  0  0  0  0  0  0  0  0
  -50.0572   58.6819   64.4694 C   0  0  0  0  0  0  0  0  0  0  0  0
  -50.4639   58.6404   63.0068 C   0  0  0  0  0  0  0  0  0  0  0  0
  -49.2973   58.4393   62.0550 C   0  0  0  0  0  0  0  0  0  0  0  0
  -49.5370   57.3954   60.9769 C   0  0  0  0  0  0  0  0  0  0  0  0
  -48.3965   57.2849   59.9766 C   0  0  0  0  0  0  0  0  0  0  0  0
  -48.7284   57.8106   58.5942 C   0  0  0  0  0  0  0  0  0  0  0  0
  -47.5254   58.3518   57.8734 C   0  0  0  0  0  0  0  0  0  0  0  0
 21 22  1  0  0  0
  4  5  2  0  0  0
 25 24  1  0  0  0
 25 26  2  0  0  0
 25 27  1  0  0  0
 25 29  1  0  0  0
 22 20  1  0  0  0
  3  5  1  0  0  0
  3  2  1  0  0  0
 20 19  1  0  0  0
 24 23  1  0  0  0
 19 18  1  0  0  0
 18 17  1  0  0  0
 27 28  1  0  0  0
 17 16  1  0  0  0
 29 30  1  0  0  0
 16 15  1  0  0  0
 34 35  1  0  0  0
 34 36  1  0  0  0
 15 14  1  0  0  0
 31 32  1  0  0  0
 31 33  1  0  0  0
 14 13  1  0  0  0
 37  1  1  0  0  0
 37 39  1  0  0  0
 13 12  1  0  0  0
 38 39  2  0  0  0
 12 11  1  0  0  0
 11 10  1  0  0  0
 10  9  1  0  0  0
  9  8  1  0  0  0
  8  7  1  0  0  0
  7  6  1  0  0  0
  6  5  1  0  0  0
  2  1  1  0  0  0
  1 23  1  0  0  0
 30 32  1  0  0  0
 32 35  1  0  0  0
 39 40  1  0  0  0
 40 41  1  0  0  0
 41 42  1  0  0  0
 42 43  1  0  0  0
 43 44  1  0  0  0
 44 45  1  0  0  0
 45 46  1  0  0  0
 46 47  1  0  0  0
 47 48  2  0  0  0
 48 49  1  0  0  0
 49 50  1  0  0  0
 50 51  1  0  0  0
 51 52  1  0  0  0
 52 53  1  0  0  0
 53 54  1  0  0  0
 54 55  1  0  0  0
 55 56  1  0  0  0
M  CHG 1  26  -1
M  END
> <minimizedAffinity>
-8.01542

> <CNNscore>
0.3135685921

> <CNNaffinity>
7.3231153488

> <CNN_VS>
2.2962989807

> <CNNaffinity_variance>
1.1485334635

$$$$
/media/chris/experiments/cd1a-new-docking/inputs/ligands/7sh4_ligand.pdb


 56 55  0  0  0  0  0  0  0  0999 V2000
  -40.4594   57.7817   64.1305 C   0  0  0  0  0  0  0  0  0  0  0  0
  -39.1865   58.3925   64.6447 C   0  0  0  0  0  0  0  0  0  0  0  0
  -38.5231   58.8703   63.4553 O   0  0  0  0  0  0  0  0  0  0  0  0
  -36.6234   59.8827   62.8510 O   0  0  0  0  0  0  0  0  0  0  0  0
  -37.2125   59.0986   63.5450 C   0  0  0  0  0  0  0  0  0  0  0  0
  -36.6085   58.3480   64.6969 C   0  0  0  0  0  0  0  0  0  0  0  0
  -35.3120   57.6316   64.3592 C   0  0  0  0  0  0  0  0  0  0  0  0
  -34.0855   58.3917   64.8181 C   0  0  0  0  0  0  0  0  0  0  0  0
  -33.0457   58.5983   63.7401 C   0  0  0  0  0  0  0  0  0  0  0  0
  -32.9320   60.0420   63.2943 C   0  0  0  0  0  0  0  0  0  0  0  0
  -32.0127   60.2281   62.1120 C   0  0  0  0  0  0  0  0  0  0  0  0
  -31.6951   61.6738   61.8353 C   0  0  0  0  0  0  0  0  0  0  0  0
  -32.6983   62.6342   62.4347 C   0  0  0  0  0  0  0  0  0  0  0  0
  -32.2700   64.0823   62.3085 C   0  0  0  0  0  0  0  0  0  0  0  0
  -32.4580   64.8947   63.5726 C   0  0  0  0  0  0  0  0  0  0  0  0
  -31.4878   64.5289   64.6900 C   0  0  0  0  0  0  0  0  0  0  0  0
  -32.1059   64.5518   66.0748 C   0  0  0  0  0  0  0  0  0  0  0  0
  -33.5608   64.9745   66.0777 C   0  0  0  0  0  0  0  0  0  0  0  0
  -34.5054   63.9066   66.6115 C   0  0  0  0  0  0  0  0  0  0  0  0
  -34.1434   62.4996   66.1702 C   0  0  0  0  0  0  0  0  0  0  0  0
  -36.5975   62.0578   65.8266 C   0  0  0  0  0  0  0  0  0  0  0  0
  -35.1944   61.8107   65.3206 C   0  0  0  0  0  0  0  0  0  0  0  0
  -40.8187   58.2924   62.7587 C   0  0  0  0  0  0  0  0  0  0  0  0
  -41.8884   59.2556   62.8865 O   0  0  0  0  0  0  0  0  0  0  0  0
  -41.6565   60.8331   62.7459 P   0  0  0  0  0  0  0  0  0  0  0  0
  -42.9452   61.4538   62.3707 O   0  0  0  0  0  0  0  0  0  0  0  0
  -40.9660   61.3089   63.9688 O   0  0  0  0  0  0  0  0  0  0  0  0
  -41.5576   61.2144   64.7316 H   0  0  0  0  0  0  0  0  0  0  0  0
  -40.6530   61.0048   61.5186 O   0  0  0  0  0  0  0  0  0  0  0  0
  -40.7781   60.1551   60.3600 C   0  0  0  0  0  0  0  0  0  0  0  0
  -38.4129   60.4246   60.6345 O   0  0  0  0  0  0  0  0  0  0  0  0
  -39.4270   60.0545   59.6956 C   0  0  0  0  0  0  0  0  0  0  0  0
  -38.5976   61.3132   60.9765 H   0  0  0  0  0  0  0  0  0  0  0  0
  -37.9748   58.6673   58.3596 O   0  0  0  0  0  0  0  0  0  0  0  0
  -39.1549   58.6721   59.1526 C   0  0  0  0  0  0  0  0  0  0  0  0
  -37.8169   57.7724   58.0203 H   0  0  0  0  0  0  0  0  0  0  0  0
  -41.5242   58.0465   65.1030 O   0  0  0  0  0  0  0  0  0  0  0  0
  -42.4527   56.0376   64.6998 O   0  0  0  0  0  0  0  0  0  0  0  0
  -42.5041   57.1277   65.2008 C   0  0  0  0  0  0  0  0  0  0  0  0
  -43.6546   57.6204   66.0227 C   0  0  0  0  0  0  0  0  0  0  0  0
  -44.7886   58.1376   65.1435 C   0  0  0  0  0  0  0  0  0  0  0  0
  -44.7770   59.6444   64.9455 C   0  0  0  0  0  0  0  0  0  0  0  0
  -46.1572   60.2355   64.6818 C   0  0  0  0  0  0  0  0  0  0  0  0
  -47.2523   59.1976   64.5209 C   0  0  0  0  0  0  0  0  0  0  0  0
  -48.2680   59.1609   65.6663 C   0  0  0  0  0  0  0  0  0  0  0  0
  -49.6552   58.6353   65.2906 C   0  0  0  0  0  0  0  0  0  0  0  0
  -50.6339   59.7455   65.0504 C   0  0  0  0  0  0  0  0  0  0  0  0
  -51.1557   60.0981   63.8915 C   0  0  0  0  0  0  0  0  0  0  0  0
  -50.8789   59.4585   62.5677 C   0  0  0  0  0  0  0  0  0  0  0  0
  -49.6468   60.0441   61.8841 C   0  0  0  0  0  0  0  0  0  0  0  0
  -49.6269   59.8348   60.3801 C   0  0  0  0  0  0  0  0  0  0  0  0
  -49.6845   58.3742   59.9669 C   0  0  0  0  0  0  0  0  0  0  0  0
  -48.3514   57.6478   60.0340 C   0  0  0  0  0  0  0  0  0  0  0  0
  -48.3034   56.3900   59.1801 C   0  0  0  0  0  0  0  0  0  0  0  0
  -47.1918   56.3798   58.1496 C   0  0  0  0  0  0  0  0  0  0  0  0
  -47.0021   57.7150   57.4855 C   0  0  0  0  0  0  0  0  0  0  0  0
 21 22  1  0  0  0
  4  5  2  0  0  0
 25 24  1  0  0  0
 25 26  2  0  0  0
 25 27  1  0  0  0
 25 29  1  0  0  0
 22 20  1  0  0  0
  3  5  1  0  0  0
  3  2  1  0  0  0
 20 19  1  0  0  0
 24 23  1  0  0  0
 19 18  1  0  0  0
 18 17  1  0  0  0
 27 28  1  0  0  0
 17 16  1  0  0  0
 29 30  1  0  0  0
 16 15  1  0  0  0
 34 35  1  0  0  0
 34 36  1  0  0  0
 15 14  1  0  0  0
 31 32  1  0  0  0
 31 33  1  0  0  0
 14 13  1  0  0  0
 37  1  1  0  0  0
 37 39  1  0  0  0
 13 12  1  0  0  0
 38 39  2  0  0  0
 12 11  1  0  0  0
 11 10  1  0  0  0
 10  9  1  0  0  0
  9  8  1  0  0  0
  8  7  1  0  0  0
  7  6  1  0  0  0
  6  5  1  0  0  0
  2  1  1  0  0  0
  1 23  1  0  0  0
 30 32  1  0  0  0
 32 35  1  0  0  0
 39 40  1  0  0  0
 40 41  1  0  0  0
 41 42  1  0  0  0
 42 43  1  0  0  0
 43 44  1  0  0  0
 44 45  1  0  0  0
 45 46  1  0  0  0
 46 47  1  0  0  0
 47 48  2  0  0  0
 48 49  1  0  0  0
 49 50  1  0  0  0
 50 51  1  0  0  0
 51 52  1  0  0  0
 52 53  1  0  0  0
 53 54  1  0  0  0
 54 55  1  0  0  0
 55 56  1  0  0  0
M  CHG 1  26  -1
M  END
> <minimizedAffinity>
-8.04603

> <CNNscore>
0.2691417634

> <CNNaffinity>
6.8574471474

> <CNN_VS>
1.8456254005

> <CNNaffinity_variance>
0.7225192189

$$$$
