/media/chris/experiments/cd1a-new-docking/inputs/ligands/7sh4_ligand.pdb


 56 55  0  0  0  0  0  0  0  0999 V2000
  -40.3535   60.1905   65.3662 C   0  0  0  0  0  0  0  0  0  0  0  0
  -41.2917   60.9881   66.2272 C   0  0  0  0  0  0  0  0  0  0  0  0
  -42.5127   60.2186   66.2189 O   0  0  0  0  0  0  0  0  0  0  0  0
  -43.5208   61.7295   64.9149 O   0  0  0  0  0  0  0  0  0  0  0  0
  -43.5802   60.7854   65.6557 C   0  0  0  0  0  0  0  0  0  0  0  0
  -44.8314   60.0163   65.9685 C   0  0  0  0  0  0  0  0  0  0  0  0
  -45.2797   59.0822   64.8573 C   0  0  0  0  0  0  0  0  0  0  0  0
  -46.7134   59.3211   64.4333 C   0  0  0  0  0  0  0  0  0  0  0  0
  -47.7426   58.7142   65.3596 C   0  0  0  0  0  0  0  0  0  0  0  0
  -48.5157   59.7513   66.1487 C   0  0  0  0  0  0  0  0  0  0  0  0
  -50.0108   59.6320   65.9814 C   0  0  0  0  0  0  0  0  0  0  0  0
  -50.4051   58.7580   64.8202 C   0  0  0  0  0  0  0  0  0  0  0  0
  -50.9625   59.5336   63.6473 C   0  0  0  0  0  0  0  0  0  0  0  0
  -50.5808   58.9292   62.3112 C   0  0  0  0  0  0  0  0  0  0  0  0
  -49.6631   59.7997   61.4786 C   0  0  0  0  0  0  0  0  0  0  0  0
  -49.4300   59.2748   60.0664 C   0  0  0  0  0  0  0  0  0  0  0  0
  -50.1467   57.9722   59.7671 C   0  0  0  0  0  0  0  0  0  0  0  0
  -49.2606   56.7514   59.9078 C   0  0  0  0  0  0  0  0  0  0  0  0
  -47.7926   57.0256   59.6119 C   0  0  0  0  0  0  0  0  0  0  0  0
  -47.3199   56.4433   58.2919 C   0  0  0  0  0  0  0  0  0  0  0  0
  -46.8556   58.5625   57.0155 C   0  0  0  0  0  0  0  0  0  0  0  0
  -47.6551   57.2807   57.0722 C   0  0  0  0  0  0  0  0  0  0  0  0
  -38.9554   60.1614   65.9286 C   0  0  0  0  0  0  0  0  0  0  0  0
  -38.4562   61.5154   66.0043 O   0  0  0  0  0  0  0  0  0  0  0  0
  -37.2257   62.0367   65.1233 P   0  0  0  0  0  0  0  0  0  0  0  0
  -36.2107   60.9625   65.0735 O   0  0  0  0  0  0  0  0  0  0  0  0
  -37.7637   62.5681   63.8479 O   0  0  0  0  0  0  0  0  0  0  0  0
  -38.1461   61.8420   63.3307 H   0  0  0  0  0  0  0  0  0  0  0  0
  -36.6081   63.2583   65.9413 O   0  0  0  0  0  0  0  0  0  0  0  0
  -35.6884   63.0102   67.0242 C   0  0  0  0  0  0  0  0  0  0  0  0
  -33.4174   63.3816   67.6925 O   0  0  0  0  0  0  0  0  0  0  0  0
  -34.4253   63.7937   66.7644 C   0  0  0  0  0  0  0  0  0  0  0  0
  -33.7474   63.4914   68.5980 H   0  0  0  0  0  0  0  0  0  0  0  0
  -34.1957   64.7975   64.5831 O   0  0  0  0  0  0  0  0  0  0  0  0
  -33.9279   63.6294   65.3483 C   0  0  0  0  0  0  0  0  0  0  0  0
  -33.8696   64.6730   63.6781 H   0  0  0  0  0  0  0  0  0  0  0  0
  -40.3808   60.7512   64.0117 O   0  0  0  0  0  0  0  0  0  0  0  0
  -41.3787   60.4899   62.0126 O   0  0  0  0  0  0  0  0  0  0  0  0
  -41.0289   60.0397   63.0693 C   0  0  0  0  0  0  0  0  0  0  0  0
  -41.2440   58.6186   63.4892 C   0  0  0  0  0  0  0  0  0  0  0  0
  -40.0081   57.7646   63.2247 C   0  0  0  0  0  0  0  0  0  0  0  0
  -40.2739   56.5498   62.3507 C   0  0  0  0  0  0  0  0  0  0  0  0
  -41.5306   56.6761   61.4970 C   0  0  0  0  0  0  0  0  0  0  0  0
  -41.2646   56.6714   60.0032 C   0  0  0  0  0  0  0  0  0  0  0  0
  -40.9771   58.0508   59.4032 C   0  0  0  0  0  0  0  0  0  0  0  0
  -39.5132   58.3121   59.0426 C   0  0  0  0  0  0  0  0  0  0  0  0
  -38.9808   59.5485   59.7029 C   0  0  0  0  0  0  0  0  0  0  0  0
  -38.0299   59.6069   60.6148 C   0  0  0  0  0  0  0  0  0  0  0  0
  -37.2788   58.4442   61.1825 C   0  0  0  0  0  0  0  0  0  0  0  0
  -36.6681   58.7549   62.5459 C   0  0  0  0  0  0  0  0  0  0  0  0
  -35.5719   57.7879   62.9575 C   0  0  0  0  0  0  0  0  0  0  0  0
  -35.2235   57.8536   64.4345 C   0  0  0  0  0  0  0  0  0  0  0  0
  -33.7557   58.1207   64.7239 C   0  0  0  0  0  0  0  0  0  0  0  0
  -32.9459   58.4621   63.4824 C   0  0  0  0  0  0  0  0  0  0  0  0
  -32.8044   59.9485   63.2213 C   0  0  0  0  0  0  0  0  0  0  0  0
  -32.0507   60.2473   61.9554 C   0  0  0  0  0  0  0  0  0  0  0  0
 21 22  1  0  0  0
  4  5  2  0  0  0
 25 24  1  0  0  0
 25 26  2  0  0  0
 25 27  1  0  0  0
 25 29  1  0  0  0
 22 20  1  0  0  0
  3  5  1  0  0  0
  3  2  1  0  0  0
 20 19  1  0  0  0
 24 23  1  0  0  0
 19 18  1  0  0  0
 18 17  1  0  0  0
 27 28  1  0  0  0
 17 16  1  0  0  0
 29 30  1  0  0  0
 16 15  1  0  0  0
 34 35  1  0  0  0
 34 36  1  0  0  0
 15 14  1  0  0  0
 31 32  1  0  0  0
 31 33  1  0  0  0
 14 13  1  0  0  0
 37  1  1  0  0  0
 37 39  1  0  0  0
 13 12  1  0  0  0
 38 39  2  0  0  0
 12 11  1  0  0  0
 11 10  1  0  0  0
 10  9  1  0  0  0
  9  8  1  0  0  0
  8  7  1  0  0  0
  7  6  1  0  0  0
  6  5  1  0  0  0
  2  1  1  0  0  0
  1 23  1  0  0  0
 30 32  1  0  0  0
 32 35  1  0  0  0
 39 40  1  0  0  0
 40 41  1  0  0  0
 41 42  1  0  0  0
 42 43  1  0  0  0
 43 44  1  0  0  0
 44 45  1  0  0  0
 45 46  1  0  0  0
 46 47  1  0  0  0
 47 48  2  0  0  0
 48 49  1  0  0  0
 49 50  1  0  0  0
 50 51  1  0  0  0
 51 52  1  0  0  0
 52 53  1  0  0  0
 53 54  1  0  0  0
 54 55  1  0  0  0
 55 56  1  0  0  0
M  CHG 1  26  -1
M  END
> <minimizedAffinity>
-8.51047

> <CNNscore>
0.4659692943

> <CNNaffinity>
7.5033645630

> <CNN_VS>
3.4963374138

> <CNNaffinity_variance>
0.9489847422

$$$$
/media/chris/experiments/cd1a-new-docking/inputs/ligands/7sh4_ligand.pdb


 56 55  0  0  0  0  0  0  0  0999 V2000
  -40.3993   59.4722   64.6835 C   0  0  0  0  0  0  0  0  0  0  0  0
  -40.2354   57.9990   64.4372 C   0  0  0  0  0  0  0  0  0  0  0  0
  -40.3282   57.8724   63.0024 O   0  0  0  0  0  0  0  0  0  0  0  0
  -41.4229   55.9288   63.1547 O   0  0  0  0  0  0  0  0  0  0  0  0
  -41.1223   56.9107   62.5309 C   0  0  0  0  0  0  0  0  0  0  0  0
  -41.6807   57.2786   61.1864 C   0  0  0  0  0  0  0  0  0  0  0  0
  -41.2993   58.6721   60.7163 C   0  0  0  0  0  0  0  0  0  0  0  0
  -40.8727   58.7045   59.2639 C   0  0  0  0  0  0  0  0  0  0  0  0
  -39.4016   58.4336   59.0442 C   0  0  0  0  0  0  0  0  0  0  0  0
  -38.5076   59.2117   59.9882 C   0  0  0  0  0  0  0  0  0  0  0  0
  -37.5454   58.3356   60.7525 C   0  0  0  0  0  0  0  0  0  0  0  0
  -37.2033   58.8842   62.1125 C   0  0  0  0  0  0  0  0  0  0  0  0
  -36.7147   57.8291   63.0799 C   0  0  0  0  0  0  0  0  0  0  0  0
  -35.2029   57.7667   63.1638 C   0  0  0  0  0  0  0  0  0  0  0  0
  -34.6514   57.9898   64.5564 C   0  0  0  0  0  0  0  0  0  0  0  0
  -33.2444   58.5763   64.5750 C   0  0  0  0  0  0  0  0  0  0  0  0
  -32.5666   58.5950   63.2184 C   0  0  0  0  0  0  0  0  0  0  0  0
  -32.0505   59.9632   62.8223 C   0  0  0  0  0  0  0  0  0  0  0  0
  -32.9431   61.1082   63.2804 C   0  0  0  0  0  0  0  0  0  0  0  0
  -32.6608   62.4201   62.5703 C   0  0  0  0  0  0  0  0  0  0  0  0
  -33.9861   64.2159   61.4064 C   0  0  0  0  0  0  0  0  0  0  0  0
  -33.7593   63.4588   62.6952 C   0  0  0  0  0  0  0  0  0  0  0  0
  -39.2575   60.0426   65.4851 C   0  0  0  0  0  0  0  0  0  0  0  0
  -38.8996   61.3297   64.9340 O   0  0  0  0  0  0  0  0  0  0  0  0
  -37.3815   61.7963   64.7353 P   0  0  0  0  0  0  0  0  0  0  0  0
  -36.5017   60.7044   65.2048 O   0  0  0  0  0  0  0  0  0  0  0  0
  -37.2278   62.2869   63.3445 O   0  0  0  0  0  0  0  0  0  0  0  0
  -37.3407   61.5478   62.7265 H   0  0  0  0  0  0  0  0  0  0  0  0
  -37.1893   63.0382   65.7168 O   0  0  0  0  0  0  0  0  0  0  0  0
  -36.1779   64.0280   65.4387 C   0  0  0  0  0  0  0  0  0  0  0  0
  -36.2017   63.8945   67.8311 O   0  0  0  0  0  0  0  0  0  0  0  0
  -35.4073   64.2907   66.7091 C   0  0  0  0  0  0  0  0  0  0  0  0
  -37.0524   64.3597   67.8054 H   0  0  0  0  0  0  0  0  0  0  0  0
  -34.2583   62.1742   66.5712 O   0  0  0  0  0  0  0  0  0  0  0  0
  -34.0779   63.5752   66.7334 C   0  0  0  0  0  0  0  0  0  0  0  0
  -33.3949   61.7327   66.5895 H   0  0  0  0  0  0  0  0  0  0  0  0
  -41.6886   59.6885   65.3475 O   0  0  0  0  0  0  0  0  0  0  0  0
  -42.4705   61.7944   65.2308 O   0  0  0  0  0  0  0  0  0  0  0  0
  -42.4787   60.6571   64.8459 C   0  0  0  0  0  0  0  0  0  0  0  0
  -43.3533   60.1509   63.7410 C   0  0  0  0  0  0  0  0  0  0  0  0
  -44.0675   58.8632   64.1389 C   0  0  0  0  0  0  0  0  0  0  0  0
  -45.0548   59.0339   65.2818 C   0  0  0  0  0  0  0  0  0  0  0  0
  -46.4548   59.4274   64.8245 C   0  0  0  0  0  0  0  0  0  0  0  0
  -47.5190   59.2757   65.8953 C   0  0  0  0  0  0  0  0  0  0  0  0
  -48.6623   60.2907   65.8052 C   0  0  0  0  0  0  0  0  0  0  0  0
  -48.9298   60.8480   64.4055 C   0  0  0  0  0  0  0  0  0  0  0  0
  -50.3763   60.7473   64.0243 C   0  0  0  0  0  0  0  0  0  0  0  0
  -50.9995   59.6752   63.5751 C   0  0  0  0  0  0  0  0  0  0  0  0
  -50.3887   58.3276   63.3528 C   0  0  0  0  0  0  0  0  0  0  0  0
  -49.5247   58.2800   62.0959 C   0  0  0  0  0  0  0  0  0  0  0  0
  -50.1333   57.4645   60.9685 C   0  0  0  0  0  0  0  0  0  0  0  0
  -50.2554   58.2275   59.6608 C   0  0  0  0  0  0  0  0  0  0  0  0
  -49.3341   57.7361   58.5567 C   0  0  0  0  0  0  0  0  0  0  0  0
  -48.1059   57.0032   59.0742 C   0  0  0  0  0  0  0  0  0  0  0  0
  -46.9079   57.0652   58.1474 C   0  0  0  0  0  0  0  0  0  0  0  0
  -46.9878   58.2039   57.1693 C   0  0  0  0  0  0  0  0  0  0  0  0
 21 22  1  0  0  0
  4  5  2  0  0  0
 25 24  1  0  0  0
 25 26  2  0  0  0
 25 27  1  0  0  0
 25 29  1  0  0  0
 22 20  1  0  0  0
  3  5  1  0  0  0
  3  2  1  0  0  0
 20 19  1  0  0  0
 24 23  1  0  0  0
 19 18  1  0  0  0
 18 17  1  0  0  0
 27 28  1  0  0  0
 17 16  1  0  0  0
 29 30  1  0  0  0
 16 15  1  0  0  0
 34 35  1  0  0  0
 34 36  1  0  0  0
 15 14  1  0  0  0
 31 32  1  0  0  0
 31 33  1  0  0  0
 14 13  1  0  0  0
 37  1  1  0  0  0
 37 39  1  0  0  0
 13 12  1  0  0  0
 38 39  2  0  0  0
 12 11  1  0  0  0
 11 10  1  0  0  0
 10  9  1  0  0  0
  9  8  1  0  0  0
  8  7  1  0  0  0
  7  6  1  0  0  0
  6  5  1  0  0  0
  2  1  1  0  0  0
  1 23  1  0  0  0
 30 32  1  0  0  0
 32 35  1  0  0  0
 39 40  1  0  0  0
 40 41  1  0  0  0
 41 42  1  0  0  0
 42 43  1  0  0  0
 43 44  1  0  0  0
 44 45  1  0  0  0
 45 46  1  0  0  0
 46 47  1  0  0  0
 47 48  2  0  0  0
 48 49  1  0  0  0
 49 50  1  0  0  0
 50 51  1  0  0  0
 51 52  1  0  0  0
 52 53  1  0  0  0
 53 54  1  0  0  0
 54 55  1  0  0  0
 55 56  1  0  0  0
M  CHG 1  26  -1
M  END
> <minimizedAffinity>
-8.47869

> <CNNscore>
0.4283851087

> <CNNaffinity>
7.3640022278

> <CNN_VS>
3.1546289921

> <CNNaffinity_variance>
1.2999296188

$$$$
/media/chris/experiments/cd1a-new-docking/inputs/ligands/7sh4_ligand.pdb


 56 55  0  0  0  0  0  0  0  0999 V2000
  -40.3673   60.1536   64.9734 C   0  0  0  0  0  0  0  0  0  0  0  0
  -40.1534   58.9614   64.0843 C   0  0  0  0  0  0  0  0  0  0  0  0
  -41.0413   59.1928   62.9703 O   0  0  0  0  0  0  0  0  0  0  0  0
  -42.0486   57.2010   62.8384 O   0  0  0  0  0  0  0  0  0  0  0  0
  -41.4781   58.1184   62.3125 C   0  0  0  0  0  0  0  0  0  0  0  0
  -41.2754   58.2689   60.8323 C   0  0  0  0  0  0  0  0  0  0  0  0
  -40.7550   59.6332   60.4126 C   0  0  0  0  0  0  0  0  0  0  0  0
  -39.4619   59.5519   59.6292 C   0  0  0  0  0  0  0  0  0  0  0  0
  -38.6223   58.3347   59.9444 C   0  0  0  0  0  0  0  0  0  0  0  0
  -37.5659   58.5991   60.9979 C   0  0  0  0  0  0  0  0  0  0  0  0
  -37.5204   57.5404   62.0724 C   0  0  0  0  0  0  0  0  0  0  0  0
  -36.5018   57.8316   63.1426 C   0  0  0  0  0  0  0  0  0  0  0  0
  -35.0820   57.8792   62.6230 C   0  0  0  0  0  0  0  0  0  0  0  0
  -34.0964   58.3829   63.6579 C   0  0  0  0  0  0  0  0  0  0  0  0
  -32.6455   58.2541   63.2438 C   0  0  0  0  0  0  0  0  0  0  0  0
  -31.9632   59.5889   62.9668 C   0  0  0  0  0  0  0  0  0  0  0  0
  -32.9018   60.7797   63.0021 C   0  0  0  0  0  0  0  0  0  0  0  0
  -32.2286   62.0877   62.6396 C   0  0  0  0  0  0  0  0  0  0  0  0
  -32.4703   63.1993   63.6514 C   0  0  0  0  0  0  0  0  0  0  0  0
  -32.1515   64.5850   63.1194 C   0  0  0  0  0  0  0  0  0  0  0  0
  -32.5844   66.0837   61.1440 C   0  0  0  0  0  0  0  0  0  0  0  0
  -32.1725   64.7048   61.6073 C   0  0  0  0  0  0  0  0  0  0  0  0
  -39.0954   60.5852   65.6575 C   0  0  0  0  0  0  0  0  0  0  0  0
  -38.4108   61.5348   64.8102 O   0  0  0  0  0  0  0  0  0  0  0  0
  -36.9313   62.0625   65.1177 P   0  0  0  0  0  0  0  0  0  0  0  0
  -36.9020   62.5571   66.5110 O   0  0  0  0  0  0  0  0  0  0  0  0
  -35.9717   61.0057   64.7166 O   0  0  0  0  0  0  0  0  0  0  0  0
  -36.0819   60.2332   65.2928 H   0  0  0  0  0  0  0  0  0  0  0  0
  -36.7182   63.3110   64.1489 O   0  0  0  0  0  0  0  0  0  0  0  0
  -36.7827   63.1340   62.7190 C   0  0  0  0  0  0  0  0  0  0  0  0
  -35.7005   63.7856   60.6827 O   0  0  0  0  0  0  0  0  0  0  0  0
  -35.8060   64.0884   62.0771 C   0  0  0  0  0  0  0  0  0  0  0  0
  -35.4449   62.8565   60.5721 H   0  0  0  0  0  0  0  0  0  0  0  0
  -36.2243   66.2168   61.0218 O   0  0  0  0  0  0  0  0  0  0  0  0
  -36.2036   65.5325   62.2679 C   0  0  0  0  0  0  0  0  0  0  0  0
  -36.4813   67.1411   61.1647 H   0  0  0  0  0  0  0  0  0  0  0  0
  -41.4182   59.8247   65.9416 O   0  0  0  0  0  0  0  0  0  0  0  0
  -42.2367   61.8261   66.5618 O   0  0  0  0  0  0  0  0  0  0  0  0
  -42.4034   60.7287   66.1039 C   0  0  0  0  0  0  0  0  0  0  0  0
  -43.7249   60.2089   65.6289 C   0  0  0  0  0  0  0  0  0  0  0  0
  -43.7363   58.6849   65.5668 C   0  0  0  0  0  0  0  0  0  0  0  0
  -44.8888   58.0458   66.3239 C   0  0  0  0  0  0  0  0  0  0  0  0
  -45.8900   59.0546   66.8753 C   0  0  0  0  0  0  0  0  0  0  0  0
  -47.2563   58.9899   66.2184 C   0  0  0  0  0  0  0  0  0  0  0  0
  -47.8351   60.3499   65.8175 C   0  0  0  0  0  0  0  0  0  0  0  0
  -48.1678   60.5040   64.3319 C   0  0  0  0  0  0  0  0  0  0  0  0
  -49.5927   60.9149   64.1118 C   0  0  0  0  0  0  0  0  0  0  0  0
  -50.6040   60.1221   63.8148 C   0  0  0  0  0  0  0  0  0  0  0  0
  -50.5391   58.6380   63.6363 C   0  0  0  0  0  0  0  0  0  0  0  0
  -50.9087   58.2050   62.2206 C   0  0  0  0  0  0  0  0  0  0  0  0
  -50.0234   58.8126   61.1466 C   0  0  0  0  0  0  0  0  0  0  0  0
  -49.9984   58.0157   59.8538 C   0  0  0  0  0  0  0  0  0  0  0  0
  -49.0829   56.8030   59.8792 C   0  0  0  0  0  0  0  0  0  0  0  0
  -47.9734   56.8599   58.8402 C   0  0  0  0  0  0  0  0  0  0  0  0
  -47.7292   58.2414   58.2659 C   0  0  0  0  0  0  0  0  0  0  0  0
  -46.8934   58.2124   57.0168 C   0  0  0  0  0  0  0  0  0  0  0  0
 21 22  1  0  0  0
  4  5  2  0  0  0
 25 24  1  0  0  0
 25 26  2  0  0  0
 25 27  1  0  0  0
 25 29  1  0  0  0
 22 20  1  0  0  0
  3  5  1  0  0  0
  3  2  1  0  0  0
 20 19  1  0  0  0
 24 23  1  0  0  0
 19 18  1  0  0  0
 18 17  1  0  0  0
 27 28  1  0  0  0
 17 16  1  0  0  0
 29 30  1  0  0  0
 16 15  1  0  0  0
 34 35  1  0  0  0
 34 36  1  0  0  0
 15 14  1  0  0  0
 31 32  1  0  0  0
 31 33  1  0  0  0
 14 13  1  0  0  0
 37  1  1  0  0  0
 37 39  1  0  0  0
 13 12  1  0  0  0
 38 39  2  0  0  0
 12 11  1  0  0  0
 11 10  1  0  0  0
 10  9  1  0  0  0
  9  8  1  0  0  0
  8  7  1  0  0  0
  7  6  1  0  0  0
  6  5  1  0  0  0
  2  1  1  0  0  0
  1 23  1  0  0  0
 30 32  1  0  0  0
 32 35  1  0  0  0
 39 40  1  0  0  0
 40 41  1  0  0  0
 41 42  1  0  0  0
 42 43  1  0  0  0
 43 44  1  0  0  0
 44 45  1  0  0  0
 45 46  1  0  0  0
 46 47  1  0  0  0
 47 48  2  0  0  0
 48 49  1  0  0  0
 49 50  1  0  0  0
 50 51  1  0  0  0
 51 52  1  0  0  0
 52 53  1  0  0  0
 53 54  1  0  0  0
 54 55  1  0  0  0
 55 56  1  0  0  0
M  CHG 1  26  -1
M  END
> <minimizedAffinity>
-8.14902

> <CNNscore>
0.3984544277

> <CNNaffinity>
7.2734785080

> <CNN_VS>
2.8981497288

> <CNNaffinity_variance>
0.8579765558

$$$$
/media/chris/experiments/cd1a-new-docking/inputs/ligands/7sh4_ligand.pdb


 56 55  0  0  0  0  0  0  0  0999 V2000
  -39.2280   60.7705   62.6334 C   0  0  0  0  0  0  0  0  0  0  0  0
  -39.8091   61.2552   63.9315 C   0  0  0  0  0  0  0  0  0  0  0  0
  -41.2346   61.2305   63.7068 O   0  0  0  0  0  0  0  0  0  0  0  0
  -41.5980   61.0878   65.9083 O   0  0  0  0  0  0  0  0  0  0  0  0
  -42.0159   61.1911   64.7866 C   0  0  0  0  0  0  0  0  0  0  0  0
  -43.4552   61.4174   64.4235 C   0  0  0  0  0  0  0  0  0  0  0  0
  -44.4400   60.6271   65.2684 C   0  0  0  0  0  0  0  0  0  0  0  0
  -44.8144   59.2994   64.6443 C   0  0  0  0  0  0  0  0  0  0  0  0
  -46.2896   59.1474   64.3502 C   0  0  0  0  0  0  0  0  0  0  0  0
  -47.1343   60.2412   64.9712 C   0  0  0  0  0  0  0  0  0  0  0  0
  -48.0550   59.7374   66.0557 C   0  0  0  0  0  0  0  0  0  0  0  0
  -49.3224   59.1292   65.5160 C   0  0  0  0  0  0  0  0  0  0  0  0
  -50.4467   60.1283   65.3555 C   0  0  0  0  0  0  0  0  0  0  0  0
  -51.1778   59.9800   64.0365 C   0  0  0  0  0  0  0  0  0  0  0  0
  -50.3175   59.4483   62.9094 C   0  0  0  0  0  0  0  0  0  0  0  0
  -50.9175   58.2447   62.1916 C   0  0  0  0  0  0  0  0  0  0  0  0
  -50.0149   57.6480   61.1289 C   0  0  0  0  0  0  0  0  0  0  0  0
  -50.3774   58.0763   59.7216 C   0  0  0  0  0  0  0  0  0  0  0  0
  -49.1926   58.0971   58.7658 C   0  0  0  0  0  0  0  0  0  0  0  0
  -48.0829   57.1359   59.1527 C   0  0  0  0  0  0  0  0  0  0  0  0
  -47.0296   58.1465   57.1021 C   0  0  0  0  0  0  0  0  0  0  0  0
  -46.8871   57.1379   58.2193 C   0  0  0  0  0  0  0  0  0  0  0  0
  -38.0188   61.5701   62.2208 C   0  0  0  0  0  0  0  0  0  0  0  0
  -37.6162   62.4088   63.3267 O   0  0  0  0  0  0  0  0  0  0  0  0
  -36.3970   63.4415   63.2332 P   0  0  0  0  0  0  0  0  0  0  0  0
  -35.7988   63.3229   61.8861 O   0  0  0  0  0  0  0  0  0  0  0  0
  -36.8810   64.7688   63.6834 O   0  0  0  0  0  0  0  0  0  0  0  0
  -37.5368   65.1049   63.0525 H   0  0  0  0  0  0  0  0  0  0  0  0
  -35.3241   62.9257   64.2941 O   0  0  0  0  0  0  0  0  0  0  0  0
  -35.6929   62.7798   65.6807 C   0  0  0  0  0  0  0  0  0  0  0  0
  -36.0618   64.1070   67.6415 O   0  0  0  0  0  0  0  0  0  0  0  0
  -35.3499   64.0604   66.4014 C   0  0  0  0  0  0  0  0  0  0  0  0
  -37.0124   64.0148   67.4723 H   0  0  0  0  0  0  0  0  0  0  0  0
  -33.4777   63.4800   67.8073 O   0  0  0  0  0  0  0  0  0  0  0  0
  -33.8668   64.2027   66.6463 C   0  0  0  0  0  0  0  0  0  0  0  0
  -32.5236   63.5834   67.9479 H   0  0  0  0  0  0  0  0  0  0  0  0
  -40.2796   60.8131   61.6125 O   0  0  0  0  0  0  0  0  0  0  0  0
  -40.2945   60.5811   59.3751 O   0  0  0  0  0  0  0  0  0  0  0  0
  -40.0450   60.1462   60.4661 C   0  0  0  0  0  0  0  0  0  0  0  0
  -39.4201   58.8082   60.7139 C   0  0  0  0  0  0  0  0  0  0  0  0
  -40.1902   57.6934   60.0135 C   0  0  0  0  0  0  0  0  0  0  0  0
  -41.5381   57.3848   60.6444 C   0  0  0  0  0  0  0  0  0  0  0  0
  -41.4332   56.6931   61.9988 C   0  0  0  0  0  0  0  0  0  0  0  0
  -41.9206   57.5370   63.1619 C   0  0  0  0  0  0  0  0  0  0  0  0
  -40.8761   57.7777   64.2557 C   0  0  0  0  0  0  0  0  0  0  0  0
  -39.4438   57.3853   63.8865 C   0  0  0  0  0  0  0  0  0  0  0  0
  -38.4299   58.0630   64.7585 C   0  0  0  0  0  0  0  0  0  0  0  0
  -37.1749   58.3253   64.4492 C   0  0  0  0  0  0  0  0  0  0  0  0
  -36.4984   58.0004   63.1549 C   0  0  0  0  0  0  0  0  0  0  0  0
  -35.0067   57.7306   63.3291 C   0  0  0  0  0  0  0  0  0  0  0  0
  -34.4348   58.2813   64.6236 C   0  0  0  0  0  0  0  0  0  0  0  0
  -33.1841   59.1211   64.4293 C   0  0  0  0  0  0  0  0  0  0  0  0
  -32.3132   58.6925   63.2599 C   0  0  0  0  0  0  0  0  0  0  0  0
  -31.3007   59.7471   62.8404 C   0  0  0  0  0  0  0  0  0  0  0  0
  -31.6102   60.4142   61.5149 C   0  0  0  0  0  0  0  0  0  0  0  0
  -30.9865   61.7762   61.3897 C   0  0  0  0  0  0  0  0  0  0  0  0
 21 22  1  0  0  0
  4  5  2  0  0  0
 25 24  1  0  0  0
 25 26  2  0  0  0
 25 27  1  0  0  0
 25 29  1  0  0  0
 22 20  1  0  0  0
  3  5  1  0  0  0
  3  2  1  0  0  0
 20 19  1  0  0  0
 24 23  1  0  0  0
 19 18  1  0  0  0
 18 17  1  0  0  0
 27 28  1  0  0  0
 17 16  1  0  0  0
 29 30  1  0  0  0
 16 15  1  0  0  0
 34 35  1  0  0  0
 34 36  1  0  0  0
 15 14  1  0  0  0
 31 32  1  0  0  0
 31 33  1  0  0  0
 14 13  1  0  0  0
 37  1  1  0  0  0
 37 39  1  0  0  0
 13 12  1  0  0  0
 38 39  2  0  0  0
 12 11  1  0  0  0
 11 10  1  0  0  0
 10  9  1  0  0  0
  9  8  1  0  0  0
  8  7  1  0  0  0
  7  6  1  0  0  0
  6  5  1  0  0  0
  2  1  1  0  0  0
  1 23  1  0  0  0
 30 32  1  0  0  0
 32 35  1  0  0  0
 39 40  1  0  0  0
 40 41  1  0  0  0
 41 42  1  0  0  0
 42 43  1  0  0  0
 43 44  1  0  0  0
 44 45  1  0  0  0
 45 46  1  0  0  0
 46 47  1  0  0  0
 47 48  2  0  0  0
 48 49  1  0  0  0
 49 50  1  0  0  0
 50 51  1  0  0  0
 51 52  1  0  0  0
 52 53  1  0  0  0
 53 54  1  0  0  0
 54 55  1  0  0  0
 55 56  1  0  0  0
M  CHG 1  26  -1
M  END
> <minimizedAffinity>
-8.49983

> <CNNscore>
0.3735434115

> <CNNaffinity>
7.3122949600

> <CNN_VS>
2.7314596176

> <CNNaffinity_variance>
0.9955102801

$$$$
/media/chris/experiments/cd1a-new-docking/inputs/ligands/7sh4_ligand.pdb


 56 55  0  0  0  0  0  0  0  0999 V2000
  -37.7061   59.4973   65.5789 C   0  0  0  0  0  0  0  0  0  0  0  0
  -39.0778   59.1703   65.0601 C   0  0  0  0  0  0  0  0  0  0  0  0
  -39.8117   60.4038   65.2119 O   0  0  0  0  0  0  0  0  0  0  0  0
  -41.5077   61.3788   64.1292 O   0  0  0  0  0  0  0  0  0  0  0  0
  -41.0488   60.4358   64.7154 C   0  0  0  0  0  0  0  0  0  0  0  0
  -41.7323   59.1083   64.8757 C   0  0  0  0  0  0  0  0  0  0  0  0
  -42.5211   58.6651   63.6552 C   0  0  0  0  0  0  0  0  0  0  0  0
  -44.0184   58.7203   63.8730 C   0  0  0  0  0  0  0  0  0  0  0  0
  -44.4390   58.5914   65.3195 C   0  0  0  0  0  0  0  0  0  0  0  0
  -45.6143   59.4782   65.6771 C   0  0  0  0  0  0  0  0  0  0  0  0
  -46.2141   60.1797   64.4830 C   0  0  0  0  0  0  0  0  0  0  0  0
  -47.5907   59.6775   64.1358 C   0  0  0  0  0  0  0  0  0  0  0  0
  -48.5865   60.7862   63.8768 C   0  0  0  0  0  0  0  0  0  0  0  0
  -50.0147   60.2851   63.8034 C   0  0  0  0  0  0  0  0  0  0  0  0
  -50.1361   58.7813   63.6730 C   0  0  0  0  0  0  0  0  0  0  0  0
  -50.7710   58.3258   62.3640 C   0  0  0  0  0  0  0  0  0  0  0  0
  -49.9473   58.6527   61.1332 C   0  0  0  0  0  0  0  0  0  0  0  0
  -49.7761   57.4765   60.1938 C   0  0  0  0  0  0  0  0  0  0  0  0
  -49.4589   57.8812   58.7608 C   0  0  0  0  0  0  0  0  0  0  0  0
  -48.0462   58.4055   58.5760 C   0  0  0  0  0  0  0  0  0  0  0  0
  -47.2867   56.4145   57.2364 C   0  0  0  0  0  0  0  0  0  0  0  0
  -47.3493   57.9228   57.3181 C   0  0  0  0  0  0  0  0  0  0  0  0
  -37.6648   60.8394   66.2636 C   0  0  0  0  0  0  0  0  0  0  0  0
  -36.4126   61.4861   65.9444 O   0  0  0  0  0  0  0  0  0  0  0  0
  -35.9864   62.9018   66.5576 P   0  0  0  0  0  0  0  0  0  0  0  0
  -36.8257   63.9444   65.9289 O   0  0  0  0  0  0  0  0  0  0  0  0
  -35.9857   62.7832   68.0356 O   0  0  0  0  0  0  0  0  0  0  0  0
  -36.8929   62.6426   68.3491 H   0  0  0  0  0  0  0  0  0  0  0  0
  -34.4812   63.1315   66.0839 O   0  0  0  0  0  0  0  0  0  0  0  0
  -33.5154   63.6928   66.9961 C   0  0  0  0  0  0  0  0  0  0  0  0
  -33.3208   65.8309   68.0604 O   0  0  0  0  0  0  0  0  0  0  0  0
  -33.4818   65.1876   66.7927 C   0  0  0  0  0  0  0  0  0  0  0  0
  -34.0308   65.5495   68.6583 H   0  0  0  0  0  0  0  0  0  0  0  0
  -31.5394   64.5159   65.5299 O   0  0  0  0  0  0  0  0  0  0  0  0
  -32.3836   65.6147   65.8485 C   0  0  0  0  0  0  0  0  0  0  0  0
  -30.8415   64.8095   64.9237 H   0  0  0  0  0  0  0  0  0  0  0  0
  -36.7614   59.4310   64.4596 O   0  0  0  0  0  0  0  0  0  0  0  0
  -36.2457   57.2957   64.9441 O   0  0  0  0  0  0  0  0  0  0  0  0
  -36.2202   58.2280   64.1878 C   0  0  0  0  0  0  0  0  0  0  0  0
  -35.6008   58.1870   62.8251 C   0  0  0  0  0  0  0  0  0  0  0  0
  -34.1461   57.7320   62.8859 C   0  0  0  0  0  0  0  0  0  0  0  0
  -33.2132   58.7363   63.5425 C   0  0  0  0  0  0  0  0  0  0  0  0
  -32.8897   59.9359   62.6592 C   0  0  0  0  0  0  0  0  0  0  0  0
  -33.1508   61.2768   63.3198 C   0  0  0  0  0  0  0  0  0  0  0  0
  -32.7554   62.4909   62.4744 C   0  0  0  0  0  0  0  0  0  0  0  0
  -33.5400   63.7717   62.7668 C   0  0  0  0  0  0  0  0  0  0  0  0
  -34.3213   64.2398   61.5759 C   0  0  0  0  0  0  0  0  0  0  0  0
  -35.6346   64.2783   61.4613 C   0  0  0  0  0  0  0  0  0  0  0  0
  -36.6240   63.8614   62.5034 C   0  0  0  0  0  0  0  0  0  0  0  0
  -36.6899   62.3462   62.6709 C   0  0  0  0  0  0  0  0  0  0  0  0
  -38.0762   61.7679   62.4474 C   0  0  0  0  0  0  0  0  0  0  0  0
  -38.0943   60.5710   61.5124 C   0  0  0  0  0  0  0  0  0  0  0  0
  -39.3358   59.7019   61.6260 C   0  0  0  0  0  0  0  0  0  0  0  0
  -39.1049   58.2582   61.2064 C   0  0  0  0  0  0  0  0  0  0  0  0
  -40.0505   57.7645   60.1295 C   0  0  0  0  0  0  0  0  0  0  0  0
  -41.0563   58.8032   59.7180 C   0  0  0  0  0  0  0  0  0  0  0  0
 21 22  1  0  0  0
  4  5  2  0  0  0
 25 24  1  0  0  0
 25 26  2  0  0  0
 25 27  1  0  0  0
 25 29  1  0  0  0
 22 20  1  0  0  0
  3  5  1  0  0  0
  3  2  1  0  0  0
 20 19  1  0  0  0
 24 23  1  0  0  0
 19 18  1  0  0  0
 18 17  1  0  0  0
 27 28  1  0  0  0
 17 16  1  0  0  0
 29 30  1  0  0  0
 16 15  1  0  0  0
 34 35  1  0  0  0
 34 36  1  0  0  0
 15 14  1  0  0  0
 31 32  1  0  0  0
 31 33  1  0  0  0
 14 13  1  0  0  0
 37  1  1  0  0  0
 37 39  1  0  0  0
 13 12  1  0  0  0
 38 39  2  0  0  0
 12 11  1  0  0  0
 11 10  1  0  0  0
 10  9  1  0  0  0
  9  8  1  0  0  0
  8  7  1  0  0  0
  7  6  1  0  0  0
  6  5  1  0  0  0
  2  1  1  0  0  0
  1 23  1  0  0  0
 30 32  1  0  0  0
 32 35  1  0  0  0
 39 40  1  0  0  0
 40 41  1  0  0  0
 41 42  1  0  0  0
 42 43  1  0  0  0
 43 44  1  0  0  0
 44 45  1  0  0  0
 45 46  1  0  0  0
 46 47  1  0  0  0
 47 48  2  0  0  0
 48 49  1  0  0  0
 49 50  1  0  0  0
 50 51  1  0  0  0
 51 52  1  0  0  0
 52 53  1  0  0  0
 53 54  1  0  0  0
 54 55  1  0  0  0
 55 56  1  0  0  0
M  CHG 1  26  -1
M  END
> <minimizedAffinity>
-7.73889

> <CNNscore>
0.3402796984

> <CNNaffinity>
7.3069219589

> <CNN_VS>
2.4863972664

> <CNNaffinity_variance>
0.6806990504

$$$$
/media/chris/experiments/cd1a-new-docking/inputs/ligands/7sh4_ligand.pdb


 56 55  0  0  0  0  0  0  0  0999 V2000
  -42.1166   58.1724   62.9296 C   0  0  0  0  0  0  0  0  0  0  0  0
  -43.4052   58.8222   63.3481 C   0  0  0  0  0  0  0  0  0  0  0  0
  -44.0400   57.8321   64.1846 O   0  0  0  0  0  0  0  0  0  0  0  0
  -43.6189   57.5411   66.3611 O   0  0  0  0  0  0  0  0  0  0  0  0
  -44.1781   58.1314   65.4765 C   0  0  0  0  0  0  0  0  0  0  0  0
  -45.0132   59.3656   65.6612 C   0  0  0  0  0  0  0  0  0  0  0  0
  -46.1679   59.1938   66.6336 C   0  0  0  0  0  0  0  0  0  0  0  0
  -47.1342   58.1077   66.2102 C   0  0  0  0  0  0  0  0  0  0  0  0
  -48.3128   58.6066   65.4053 C   0  0  0  0  0  0  0  0  0  0  0  0
  -48.7231   60.0196   65.7673 C   0  0  0  0  0  0  0  0  0  0  0  0
  -49.4426   60.7340   64.6495 C   0  0  0  0  0  0  0  0  0  0  0  0
  -50.8670   60.2759   64.4791 C   0  0  0  0  0  0  0  0  0  0  0  0
  -51.1778   59.7889   63.0812 C   0  0  0  0  0  0  0  0  0  0  0  0
  -49.9345   59.4029   62.3057 C   0  0  0  0  0  0  0  0  0  0  0  0
  -49.7357   60.1877   61.0260 C   0  0  0  0  0  0  0  0  0  0  0  0
  -49.3587   59.3252   59.8268 C   0  0  0  0  0  0  0  0  0  0  0  0
  -50.1233   58.0181   59.7432 C   0  0  0  0  0  0  0  0  0  0  0  0
  -49.2483   56.7959   59.9323 C   0  0  0  0  0  0  0  0  0  0  0  0
  -47.8218   56.9837   59.4350 C   0  0  0  0  0  0  0  0  0  0  0  0
  -47.4947   56.1603   58.2021 C   0  0  0  0  0  0  0  0  0  0  0  0
  -47.0880   58.4199   57.1702 C   0  0  0  0  0  0  0  0  0  0  0  0
  -46.8261   56.9336   57.0813 C   0  0  0  0  0  0  0  0  0  0  0  0
  -40.9780   58.5276   63.8510 C   0  0  0  0  0  0  0  0  0  0  0  0
  -41.0804   59.9265   64.1992 O   0  0  0  0  0  0  0  0  0  0  0  0
  -41.0951   60.4446   65.7135 P   0  0  0  0  0  0  0  0  0  0  0  0
  -42.0721   61.5505   65.8095 O   0  0  0  0  0  0  0  0  0  0  0  0
  -41.2604   59.2689   66.6019 O   0  0  0  0  0  0  0  0  0  0  0  0
  -42.1394   58.8819   66.4659 H   0  0  0  0  0  0  0  0  0  0  0  0
  -39.6418   61.0498   65.9670 O   0  0  0  0  0  0  0  0  0  0  0  0
  -38.4716   60.3111   65.5607 C   0  0  0  0  0  0  0  0  0  0  0  0
  -38.7082   61.6436   63.5831 O   0  0  0  0  0  0  0  0  0  0  0  0
  -37.7506   61.1076   64.5011 C   0  0  0  0  0  0  0  0  0  0  0  0
  -39.2404   60.9221   63.2130 H   0  0  0  0  0  0  0  0  0  0  0  0
  -37.2338   63.4636   64.4813 O   0  0  0  0  0  0  0  0  0  0  0  0
  -36.9126   62.2183   65.0875 C   0  0  0  0  0  0  0  0  0  0  0  0
  -36.6863   64.1634   64.8703 H   0  0  0  0  0  0  0  0  0  0  0  0
  -41.8332   58.5597   61.5441 O   0  0  0  0  0  0  0  0  0  0  0  0
  -41.3293   56.4328   61.0125 O   0  0  0  0  0  0  0  0  0  0  0  0
  -41.3676   57.5977   60.7243 C   0  0  0  0  0  0  0  0  0  0  0  0
  -40.9216   58.1518   59.4066 C   0  0  0  0  0  0  0  0  0  0  0  0
  -39.7086   59.0629   59.5652 C   0  0  0  0  0  0  0  0  0  0  0  0
  -38.4595   58.3470   60.0521 C   0  0  0  0  0  0  0  0  0  0  0  0
  -38.1155   58.6426   61.5075 C   0  0  0  0  0  0  0  0  0  0  0  0
  -36.6689   58.3614   61.8689 C   0  0  0  0  0  0  0  0  0  0  0  0
  -36.4690   57.7271   63.2484 C   0  0  0  0  0  0  0  0  0  0  0  0
  -35.1028   57.9795   63.8897 C   0  0  0  0  0  0  0  0  0  0  0  0
  -33.9961   57.9835   62.8782 C   0  0  0  0  0  0  0  0  0  0  0  0
  -32.9790   58.8215   62.8272 C   0  0  0  0  0  0  0  0  0  0  0  0
  -32.7157   59.9486   63.7753 C   0  0  0  0  0  0  0  0  0  0  0  0
  -33.5440   61.1883   63.4505 C   0  0  0  0  0  0  0  0  0  0  0  0
  -32.8128   62.2008   62.5865 C   0  0  0  0  0  0  0  0  0  0  0  0
  -32.9056   63.6254   63.1053 C   0  0  0  0  0  0  0  0  0  0  0  0
  -31.8111   64.0108   64.0866 C   0  0  0  0  0  0  0  0  0  0  0  0
  -32.2831   64.0598   65.5317 C   0  0  0  0  0  0  0  0  0  0  0  0
  -33.3712   65.0814   65.7964 C   0  0  0  0  0  0  0  0  0  0  0  0
  -34.4769   64.5426   66.6607 C   0  0  0  0  0  0  0  0  0  0  0  0
 21 22  1  0  0  0
  4  5  2  0  0  0
 25 24  1  0  0  0
 25 26  2  0  0  0
 25 27  1  0  0  0
 25 29  1  0  0  0
 22 20  1  0  0  0
  3  5  1  0  0  0
  3  2  1  0  0  0
 20 19  1  0  0  0
 24 23  1  0  0  0
 19 18  1  0  0  0
 18 17  1  0  0  0
 27 28  1  0  0  0
 17 16  1  0  0  0
 29 30  1  0  0  0
 16 15  1  0  0  0
 34 35  1  0  0  0
 34 36  1  0  0  0
 15 14  1  0  0  0
 31 32  1  0  0  0
 31 33  1  0  0  0
 14 13  1  0  0  0
 37  1  1  0  0  0
 37 39  1  0  0  0
 13 12  1  0  0  0
 38 39  2  0  0  0
 12 11  1  0  0  0
 11 10  1  0  0  0
 10  9  1  0  0  0
  9  8  1  0  0  0
  8  7  1  0  0  0
  7  6  1  0  0  0
  6  5  1  0  0  0
  2  1  1  0  0  0
  1 23  1  0  0  0
 30 32  1  0  0  0
 32 35  1  0  0  0
 39 40  1  0  0  0
 40 41  1  0  0  0
 41 42  1  0  0  0
 42 43  1  0  0  0
 43 44  1  0  0  0
 44 45  1  0  0  0
 45 46  1  0  0  0
 46 47  1  0  0  0
 47 48  2  0  0  0
 48 49  1  0  0  0
 49 50  1  0  0  0
 50 51  1  0  0  0
 51 52  1  0  0  0
 52 53  1  0  0  0
 53 54  1  0  0  0
 54 55  1  0  0  0
 55 56  1  0  0  0
M  CHG 1  26  -1
M  END
> <minimizedAffinity>
-7.95841

> <CNNscore>
0.3236230016

> <CNNaffinity>
6.9400420189

> <CNN_VS>
2.2459571362

> <CNNaffinity_variance>
1.2986900806

$$$$
/media/chris/experiments/cd1a-new-docking/inputs/ligands/7sh4_ligand.pdb


 56 55  0  0  0  0  0  0  0  0999 V2000
  -38.4613   60.8692   64.6368 C   0  0  0  0  0  0  0  0  0  0  0  0
  -39.2972   60.2678   65.7309 C   0  0  0  0  0  0  0  0  0  0  0  0
  -40.3995   61.1884   65.8744 O   0  0  0  0  0  0  0  0  0  0  0  0
  -42.3806   61.3753   66.8939 O   0  0  0  0  0  0  0  0  0  0  0  0
  -41.5344   60.6988   66.3744 C   0  0  0  0  0  0  0  0  0  0  0  0
  -41.6636   59.2301   66.0898 C   0  0  0  0  0  0  0  0  0  0  0  0
  -43.0943   58.7607   65.8872 C   0  0  0  0  0  0  0  0  0  0  0  0
  -43.5998   59.0105   64.4820 C   0  0  0  0  0  0  0  0  0  0  0  0
  -45.0418   59.4597   64.4132 C   0  0  0  0  0  0  0  0  0  0  0  0
  -45.5947   59.8877   65.7574 C   0  0  0  0  0  0  0  0  0  0  0  0
  -47.0997   59.9981   65.7728 C   0  0  0  0  0  0  0  0  0  0  0  0
  -47.7343   59.5717   64.4755 C   0  0  0  0  0  0  0  0  0  0  0  0
  -48.5455   60.6649   63.8161 C   0  0  0  0  0  0  0  0  0  0  0  0
  -49.9905   60.6777   64.2721 C   0  0  0  0  0  0  0  0  0  0  0  0
  -50.8181   59.5284   63.7360 C   0  0  0  0  0  0  0  0  0  0  0  0
  -50.6367   59.2828   62.2425 C   0  0  0  0  0  0  0  0  0  0  0  0
  -50.2326   57.8626   61.8961 C   0  0  0  0  0  0  0  0  0  0  0  0
  -50.1482   57.6075   60.4051 C   0  0  0  0  0  0  0  0  0  0  0  0
  -49.0893   56.5836   60.0202 C   0  0  0  0  0  0  0  0  0  0  0  0
  -47.8103   57.2035   59.4866 C   0  0  0  0  0  0  0  0  0  0  0  0
  -47.0407   58.1661   57.2919 C   0  0  0  0  0  0  0  0  0  0  0  0
  -48.0161   58.2830   58.4410 C   0  0  0  0  0  0  0  0  0  0  0  0
  -37.5158   61.9203   65.1594 C   0  0  0  0  0  0  0  0  0  0  0  0
  -36.3108   61.8998   64.3621 O   0  0  0  0  0  0  0  0  0  0  0  0
  -35.7638   63.1870   63.5836 P   0  0  0  0  0  0  0  0  0  0  0  0
  -34.5170   62.8048   62.8864 O   0  0  0  0  0  0  0  0  0  0  0  0
  -36.8795   63.7541   62.7885 O   0  0  0  0  0  0  0  0  0  0  0  0
  -37.1273   63.1303   62.0883 H   0  0  0  0  0  0  0  0  0  0  0  0
  -35.3876   64.2400   64.7204 O   0  0  0  0  0  0  0  0  0  0  0  0
  -34.1564   64.0968   65.4578 C   0  0  0  0  0  0  0  0  0  0  0  0
  -33.3074   63.4253   67.5957 O   0  0  0  0  0  0  0  0  0  0  0  0
  -34.4536   63.3620   66.7418 C   0  0  0  0  0  0  0  0  0  0  0  0
  -32.5361   63.0677   67.1286 H   0  0  0  0  0  0  0  0  0  0  0  0
  -36.2022   62.9536   68.3524 O   0  0  0  0  0  0  0  0  0  0  0  0
  -35.6647   63.9154   67.4537 C   0  0  0  0  0  0  0  0  0  0  0  0
  -36.9780   63.3267   68.7993 H   0  0  0  0  0  0  0  0  0  0  0  0
  -39.3608   61.4107   63.6133 O   0  0  0  0  0  0  0  0  0  0  0  0
  -38.0395   61.0316   61.8328 O   0  0  0  0  0  0  0  0  0  0  0  0
  -39.1282   61.0418   62.3390 C   0  0  0  0  0  0  0  0  0  0  0  0
  -40.3847   60.6293   61.6367 C   0  0  0  0  0  0  0  0  0  0  0  0
  -40.1588   60.4662   60.1370 C   0  0  0  0  0  0  0  0  0  0  0  0
  -39.9234   59.0291   59.7018 C   0  0  0  0  0  0  0  0  0  0  0  0
  -41.2036   58.2835   59.3422 C   0  0  0  0  0  0  0  0  0  0  0  0
  -41.8220   57.5248   60.5016 C   0  0  0  0  0  0  0  0  0  0  0  0
  -41.2632   56.1143   60.7100 C   0  0  0  0  0  0  0  0  0  0  0  0
  -41.0262   55.7163   62.1684 C   0  0  0  0  0  0  0  0  0  0  0  0
  -40.9487   56.9087   63.0739 C   0  0  0  0  0  0  0  0  0  0  0  0
  -39.8820   57.6457   63.3158 C   0  0  0  0  0  0  0  0  0  0  0  0
  -38.5193   57.4445   62.7318 C   0  0  0  0  0  0  0  0  0  0  0  0
  -37.4100   57.6391   63.7614 C   0  0  0  0  0  0  0  0  0  0  0  0
  -36.1967   58.3737   63.2187 C   0  0  0  0  0  0  0  0  0  0  0  0
  -35.0134   57.4664   62.9292 C   0  0  0  0  0  0  0  0  0  0  0  0
  -33.8383   58.1586   62.2588 C   0  0  0  0  0  0  0  0  0  0  0  0
  -32.7453   58.5748   63.2313 C   0  0  0  0  0  0  0  0  0  0  0  0
  -32.9799   59.9183   63.8930 C   0  0  0  0  0  0  0  0  0  0  0  0
  -33.5805   59.7935   65.2653 C   0  0  0  0  0  0  0  0  0  0  0  0
 21 22  1  0  0  0
  4  5  2  0  0  0
 25 24  1  0  0  0
 25 26  2  0  0  0
 25 27  1  0  0  0
 25 29  1  0  0  0
 22 20  1  0  0  0
  3  5  1  0  0  0
  3  2  1  0  0  0
 20 19  1  0  0  0
 24 23  1  0  0  0
 19 18  1  0  0  0
 18 17  1  0  0  0
 27 28  1  0  0  0
 17 16  1  0  0  0
 29 30  1  0  0  0
 16 15  1  0  0  0
 34 35  1  0  0  0
 34 36  1  0  0  0
 15 14  1  0  0  0
 31 32  1  0  0  0
 31 33  1  0  0  0
 14 13  1  0  0  0
 37  1  1  0  0  0
 37 39  1  0  0  0
 13 12  1  0  0  0
 38 39  2  0  0  0
 12 11  1  0  0  0
 11 10  1  0  0  0
 10  9  1  0  0  0
  9  8  1  0  0  0
  8  7  1  0  0  0
  7  6  1  0  0  0
  6  5  1  0  0  0
  2  1  1  0  0  0
  1 23  1  0  0  0
 30 32  1  0  0  0
 32 35  1  0  0  0
 39 40  1  0  0  0
 40 41  1  0  0  0
 41 42  1  0  0  0
 42 43  1  0  0  0
 43 44  1  0  0  0
 44 45  1  0  0  0
 45 46  1  0  0  0
 46 47  1  0  0  0
 47 48  2  0  0  0
 48 49  1  0  0  0
 49 50  1  0  0  0
 50 51  1  0  0  0
 51 52  1  0  0  0
 52 53  1  0  0  0
 53 54  1  0  0  0
 54 55  1  0  0  0
 55 56  1  0  0  0
M  CHG 1  26  -1
M  END
> <minimizedAffinity>
-8.40855

> <CNNscore>
0.2573222816

> <CNNaffinity>
7.3698205948

> <CNN_VS>
1.8964190483

> <CNNaffinity_variance>
1.1115794182

$$$$
/media/chris/experiments/cd1a-new-docking/inputs/ligands/7sh4_ligand.pdb


 56 55  0  0  0  0  0  0  0  0999 V2000
  -36.3718   62.4021   64.0227 C   0  0  0  0  0  0  0  0  0  0  0  0
  -37.5827   61.6609   63.5308 C   0  0  0  0  0  0  0  0  0  0  0  0
  -38.5446   61.8179   64.5954 O   0  0  0  0  0  0  0  0  0  0  0  0
  -37.6192   60.9035   66.4139 O   0  0  0  0  0  0  0  0  0  0  0  0
  -38.4940   60.9322   65.5908 C   0  0  0  0  0  0  0  0  0  0  0  0
  -39.7250   60.0726   65.6153 C   0  0  0  0  0  0  0  0  0  0  0  0
  -40.8267   60.5395   64.6790 C   0  0  0  0  0  0  0  0  0  0  0  0
  -42.1908   60.5459   65.3360 C   0  0  0  0  0  0  0  0  0  0  0  0
  -43.1460   61.5722   64.7701 C   0  0  0  0  0  0  0  0  0  0  0  0
  -44.4708   60.9760   64.3398 C   0  0  0  0  0  0  0  0  0  0  0  0
  -44.4569   59.4676   64.2951 C   0  0  0  0  0  0  0  0  0  0  0  0
  -45.5144   58.8434   65.1667 C   0  0  0  0  0  0  0  0  0  0  0  0
  -46.9072   59.3618   64.8853 C   0  0  0  0  0  0  0  0  0  0  0  0
  -47.6708   59.7042   66.1485 C   0  0  0  0  0  0  0  0  0  0  0  0
  -49.1465   59.9627   65.9279 C   0  0  0  0  0  0  0  0  0  0  0  0
  -49.4874   60.4176   64.5133 C   0  0  0  0  0  0  0  0  0  0  0  0
  -50.9490   60.2461   64.1464 C   0  0  0  0  0  0  0  0  0  0  0  0
  -51.1758   59.2495   63.0280 C   0  0  0  0  0  0  0  0  0  0  0  0
  -50.1385   59.3327   61.9168 C   0  0  0  0  0  0  0  0  0  0  0  0
  -49.9424   58.0258   61.1695 C   0  0  0  0  0  0  0  0  0  0  0  0
  -48.6384   58.5498   59.0813 C   0  0  0  0  0  0  0  0  0  0  0  0
  -49.9768   58.1475   59.6579 C   0  0  0  0  0  0  0  0  0  0  0  0
  -36.4749   63.8847   63.7718 C   0  0  0  0  0  0  0  0  0  0  0  0
  -35.2367   64.3445   63.1855 O   0  0  0  0  0  0  0  0  0  0  0  0
  -35.1525   64.9669   61.7133 P   0  0  0  0  0  0  0  0  0  0  0  0
  -35.5180   63.9087   60.7473 O   0  0  0  0  0  0  0  0  0  0  0  0
  -35.9198   66.2358   61.7042 O   0  0  0  0  0  0  0  0  0  0  0  0
  -36.8616   66.0451   61.8370 H   0  0  0  0  0  0  0  0  0  0  0  0
  -33.6140   65.3232   61.4926 O   0  0  0  0  0  0  0  0  0  0  0  0
  -32.7755   65.6328   62.6245 C   0  0  0  0  0  0  0  0  0  0  0  0
  -31.6614   63.9049   63.8554 O   0  0  0  0  0  0  0  0  0  0  0  0
  -31.6214   64.6608   62.6414 C   0  0  0  0  0  0  0  0  0  0  0  0
  -31.6534   64.5100   64.6135 H   0  0  0  0  0  0  0  0  0  0  0  0
  -31.0359   64.3586   60.3209 O   0  0  0  0  0  0  0  0  0  0  0  0
  -31.6332   63.7336   61.4497 C   0  0  0  0  0  0  0  0  0  0  0  0
  -31.0529   63.7486   59.5669 H   0  0  0  0  0  0  0  0  0  0  0  0
  -35.1858   61.8255   63.3817 O   0  0  0  0  0  0  0  0  0  0  0  0
  -34.3699   61.2098   65.3855 O   0  0  0  0  0  0  0  0  0  0  0  0
  -34.2719   61.2545   64.1896 C   0  0  0  0  0  0  0  0  0  0  0  0
  -33.1309   60.6670   63.4181 C   0  0  0  0  0  0  0  0  0  0  0  0
  -32.7712   59.2744   63.9258 C   0  0  0  0  0  0  0  0  0  0  0  0
  -33.0388   58.1645   62.9225 C   0  0  0  0  0  0  0  0  0  0  0  0
  -34.4725   58.1431   62.4050 C   0  0  0  0  0  0  0  0  0  0  0  0
  -35.4403   57.3915   63.2999 C   0  0  0  0  0  0  0  0  0  0  0  0
  -36.5954   58.2386   63.8418 C   0  0  0  0  0  0  0  0  0  0  0  0
  -37.9347   58.0473   63.1270 C   0  0  0  0  0  0  0  0  0  0  0  0
  -37.7579   57.6229   61.6999 C   0  0  0  0  0  0  0  0  0  0  0  0
  -38.0928   58.3118   60.6263 C   0  0  0  0  0  0  0  0  0  0  0  0
  -38.7214   59.6694   60.6093 C   0  0  0  0  0  0  0  0  0  0  0  0
  -40.1008   59.6644   59.9569 C   0  0  0  0  0  0  0  0  0  0  0  0
  -41.2119   60.1390   60.8770 C   0  0  0  0  0  0  0  0  0  0  0  0
  -41.7027   59.0727   61.8411 C   0  0  0  0  0  0  0  0  0  0  0  0
  -41.7792   57.6753   61.2487 C   0  0  0  0  0  0  0  0  0  0  0  0
  -41.2625   56.5922   62.1832 C   0  0  0  0  0  0  0  0  0  0  0  0
  -41.2784   56.9762   63.6496 C   0  0  0  0  0  0  0  0  0  0  0  0
  -42.4535   56.3999   64.3888 C   0  0  0  0  0  0  0  0  0  0  0  0
 21 22  1  0  0  0
  4  5  2  0  0  0
 25 24  1  0  0  0
 25 26  2  0  0  0
 25 27  1  0  0  0
 25 29  1  0  0  0
 22 20  1  0  0  0
  3  5  1  0  0  0
  3  2  1  0  0  0
 20 19  1  0  0  0
 24 23  1  0  0  0
 19 18  1  0  0  0
 18 17  1  0  0  0
 27 28  1  0  0  0
 17 16  1  0  0  0
 29 30  1  0  0  0
 16 15  1  0  0  0
 34 35  1  0  0  0
 34 36  1  0  0  0
 15 14  1  0  0  0
 31 32  1  0  0  0
 31 33  1  0  0  0
 14 13  1  0  0  0
 37  1  1  0  0  0
 37 39  1  0  0  0
 13 12  1  0  0  0
 38 39  2  0  0  0
 12 11  1  0  0  0
 11 10  1  0  0  0
 10  9  1  0  0  0
  9  8  1  0  0  0
  8  7  1  0  0  0
  7  6  1  0  0  0
  6  5  1  0  0  0
  2  1  1  0  0  0
  1 23  1  0  0  0
 30 32  1  0  0  0
 32 35  1  0  0  0
 39 40  1  0  0  0
 40 41  1  0  0  0
 41 42  1  0  0  0
 42 43  1  0  0  0
 43 44  1  0  0  0
 44 45  1  0  0  0
 45 46  1  0  0  0
 46 47  1  0  0  0
 47 48  2  0  0  0
 48 49  1  0  0  0
 49 50  1  0  0  0
 50 51  1  0  0  0
 51 52  1  0  0  0
 52 53  1  0  0  0
 53 54  1  0  0  0
 54 55  1  0  0  0
 55 56  1  0  0  0
M  CHG 1  26  -1
M  END
> <minimizedAffinity>
-7.66896

> <CNNscore>
0.2550938129

> <CNNaffinity>
7.1504311562

> <CNN_VS>
1.8240307570

> <CNNaffinity_variance>
1.1442717314

$$$$
/media/chris/experiments/cd1a-new-docking/inputs/ligands/7sh4_ligand.pdb


 56 55  0  0  0  0  0  0  0  0999 V2000
  -40.2838   59.9333   63.2944 C   0  0  0  0  0  0  0  0  0  0  0  0
  -41.3675   60.9578   63.1109 C   0  0  0  0  0  0  0  0  0  0  0  0
  -42.4910   60.4109   63.8332 O   0  0  0  0  0  0  0  0  0  0  0  0
  -42.4751   61.7791   65.6015 O   0  0  0  0  0  0  0  0  0  0  0  0
  -43.0738   61.2029   64.7337 C   0  0  0  0  0  0  0  0  0  0  0  0
  -44.5367   61.3730   64.4407 C   0  0  0  0  0  0  0  0  0  0  0  0
  -45.3624   60.1155   64.6531 C   0  0  0  0  0  0  0  0  0  0  0  0
  -45.2805   59.5929   66.0718 C   0  0  0  0  0  0  0  0  0  0  0  0
  -46.6241   59.3450   66.7191 C   0  0  0  0  0  0  0  0  0  0  0  0
  -47.7618   59.2843   65.7203 C   0  0  0  0  0  0  0  0  0  0  0  0
  -49.0099   59.9854   66.1982 C   0  0  0  0  0  0  0  0  0  0  0  0
  -50.2748   59.3519   65.6821 C   0  0  0  0  0  0  0  0  0  0  0  0
  -51.1346   60.2993   64.8751 C   0  0  0  0  0  0  0  0  0  0  0  0
  -51.1777   59.9413   63.4033 C   0  0  0  0  0  0  0  0  0  0  0  0
  -50.5551   58.6005   63.0748 C   0  0  0  0  0  0  0  0  0  0  0  0
  -49.2990   58.6984   62.2165 C   0  0  0  0  0  0  0  0  0  0  0  0
  -49.5353   58.4199   60.7445 C   0  0  0  0  0  0  0  0  0  0  0  0
  -49.6307   56.9434   60.4190 C   0  0  0  0  0  0  0  0  0  0  0  0
  -48.4515   56.4192   59.6112 C   0  0  0  0  0  0  0  0  0  0  0  0
  -47.5599   57.5155   59.0562 C   0  0  0  0  0  0  0  0  0  0  0  0
  -47.3049   56.0161   57.0506 C   0  0  0  0  0  0  0  0  0  0  0  0
  -47.3155   57.4391   57.5611 C   0  0  0  0  0  0  0  0  0  0  0  0
  -39.5176   60.1428   64.5753 C   0  0  0  0  0  0  0  0  0  0  0  0
  -38.8667   61.4320   64.5223 O   0  0  0  0  0  0  0  0  0  0  0  0
  -37.3222   61.6395   64.8875 P   0  0  0  0  0  0  0  0  0  0  0  0
  -36.9375   60.5950   65.8610 O   0  0  0  0  0  0  0  0  0  0  0  0
  -36.5591   61.7484   63.6207 O   0  0  0  0  0  0  0  0  0  0  0  0
  -36.5889   60.9000   63.1514 H   0  0  0  0  0  0  0  0  0  0  0  0
  -37.2487   63.0506   65.6264 O   0  0  0  0  0  0  0  0  0  0  0  0
  -36.1671   63.9603   65.3387 C   0  0  0  0  0  0  0  0  0  0  0  0
  -36.3249   63.9559   67.7298 O   0  0  0  0  0  0  0  0  0  0  0  0
  -35.4694   64.2945   66.6342 C   0  0  0  0  0  0  0  0  0  0  0  0
  -37.1734   64.4152   67.6314 H   0  0  0  0  0  0  0  0  0  0  0  0
  -34.3061   62.1814   66.6375 O   0  0  0  0  0  0  0  0  0  0  0  0
  -34.1423   63.5874   66.7715 C   0  0  0  0  0  0  0  0  0  0  0  0
  -33.4445   61.7453   66.7285 H   0  0  0  0  0  0  0  0  0  0  0  0
  -39.4032   59.9783   62.1229 O   0  0  0  0  0  0  0  0  0  0  0  0
  -40.5083   58.5949   60.7354 O   0  0  0  0  0  0  0  0  0  0  0  0
  -39.4867   58.9504   61.2565 C   0  0  0  0  0  0  0  0  0  0  0  0
  -38.1527   58.3174   61.0076 C   0  0  0  0  0  0  0  0  0  0  0  0
  -37.6748   57.5256   62.2205 C   0  0  0  0  0  0  0  0  0  0  0  0
  -36.3802   58.0447   62.8244 C   0  0  0  0  0  0  0  0  0  0  0  0
  -36.1772   57.6327   64.2780 C   0  0  0  0  0  0  0  0  0  0  0  0
  -34.8046   57.9710   64.8292 C   0  0  0  0  0  0  0  0  0  0  0  0
  -34.1651   59.2227   64.2213 C   0  0  0  0  0  0  0  0  0  0  0  0
  -32.6922   59.0784   63.8324 C   0  0  0  0  0  0  0  0  0  0  0  0
  -32.4748   59.2711   62.3616 C   0  0  0  0  0  0  0  0  0  0  0  0
  -31.9134   60.3123   61.7783 C   0  0  0  0  0  0  0  0  0  0  0  0
  -31.3719   61.5246   62.4679 C   0  0  0  0  0  0  0  0  0  0  0  0
  -32.2035   62.7732   62.1893 C   0  0  0  0  0  0  0  0  0  0  0  0
  -32.7488   63.4346   63.4430 C   0  0  0  0  0  0  0  0  0  0  0  0
  -32.3626   64.8974   63.5781 C   0  0  0  0  0  0  0  0  0  0  0  0
  -33.5382   65.8603   63.5921 C   0  0  0  0  0  0  0  0  0  0  0  0
  -34.0995   66.1510   62.2086 C   0  0  0  0  0  0  0  0  0  0  0  0
  -35.5570   65.7717   62.0363 C   0  0  0  0  0  0  0  0  0  0  0  0
  -35.7353   64.4354   61.3713 C   0  0  0  0  0  0  0  0  0  0  0  0
 21 22  1  0  0  0
  4  5  2  0  0  0
 25 24  1  0  0  0
 25 26  2  0  0  0
 25 27  1  0  0  0
 25 29  1  0  0  0
 22 20  1  0  0  0
  3  5  1  0  0  0
  3  2  1  0  0  0
 20 19  1  0  0  0
 24 23  1  0  0  0
 19 18  1  0  0  0
 18 17  1  0  0  0
 27 28  1  0  0  0
 17 16  1  0  0  0
 29 30  1  0  0  0
 16 15  1  0  0  0
 34 35  1  0  0  0
 34 36  1  0  0  0
 15 14  1  0  0  0
 31 32  1  0  0  0
 31 33  1  0  0  0
 14 13  1  0  0  0
 37  1  1  0  0  0
 37 39  1  0  0  0
 13 12  1  0  0  0
 38 39  2  0  0  0
 12 11  1  0  0  0
 11 10  1  0  0  0
 10  9  1  0  0  0
  9  8  1  0  0  0
  8  7  1  0  0  0
  7  6  1  0  0  0
  6  5  1  0  0  0
  2  1  1  0  0  0
  1 23  1  0  0  0
 30 32  1  0  0  0
 32 35  1  0  0  0
 39 40  1  0  0  0
 40 41  1  0  0  0
 41 42  1  0  0  0
 42 43  1  0  0  0
 43 44  1  0  0  0
 44 45  1  0  0  0
 45 46  1  0  0  0
 46 47  1  0  0  0
 47 48  2  0  0  0
 48 49  1  0  0  0
 49 50  1  0  0  0
 50 51  1  0  0  0
 51 52  1  0  0  0
 52 53  1  0  0  0
 53 54  1  0  0  0
 54 55  1  0  0  0
 55 56  1  0  0  0
M  CHG 1  26  -1
M  END
> <minimizedAffinity>
-8.18511

> <CNNscore>
0.2237766683

> <CNNaffinity>
6.6232500076

> <CNN_VS>
1.4821288586

> <CNNaffinity_variance>
0.6975604892

$$$$
