/media/chris/experiments/cd1a-new-docking/inputs/ligands/7sh4_ligand.pdb


 56 55  0  0  0  0  0  0  0  0999 V2000
  -42.1022   59.8811   65.9201 C   0  0  0  0  0  0  0  0  0  0  0  0
  -43.2017   60.8820   65.7034 C   0  0  0  0  0  0  0  0  0  0  0  0
  -43.4201   60.8575   64.2770 O   0  0  0  0  0  0  0  0  0  0  0  0
  -42.5686   62.9147   64.0717 O   0  0  0  0  0  0  0  0  0  0  0  0
  -42.9466   61.8879   63.5755 C   0  0  0  0  0  0  0  0  0  0  0  0
  -42.8344   61.5459   62.1177 C   0  0  0  0  0  0  0  0  0  0  0  0
  -41.4589   61.0542   61.6997 C   0  0  0  0  0  0  0  0  0  0  0  0
  -41.4230   59.5627   61.4412 C   0  0  0  0  0  0  0  0  0  0  0  0
  -40.8200   59.1794   60.1088 C   0  0  0  0  0  0  0  0  0  0  0  0
  -40.0883   57.8530   60.1482 C   0  0  0  0  0  0  0  0  0  0  0  0
  -39.9758   57.2779   61.5390 C   0  0  0  0  0  0  0  0  0  0  0  0
  -38.5626   57.2676   62.0589 C   0  0  0  0  0  0  0  0  0  0  0  0
  -37.6361   58.1891   61.2970 C   0  0  0  0  0  0  0  0  0  0  0  0
  -36.2534   58.2682   61.9120 C   0  0  0  0  0  0  0  0  0  0  0  0
  -36.2069   57.8927   63.3783 C   0  0  0  0  0  0  0  0  0  0  0  0
  -35.2883   58.7785   64.2123 C   0  0  0  0  0  0  0  0  0  0  0  0
  -34.1543   58.0293   64.8853 C   0  0  0  0  0  0  0  0  0  0  0  0
  -32.7876   58.6107   64.5865 C   0  0  0  0  0  0  0  0  0  0  0  0
  -32.7728   59.5505   63.3889 C   0  0  0  0  0  0  0  0  0  0  0  0
  -31.4170   59.6525   62.7132 C   0  0  0  0  0  0  0  0  0  0  0  0
  -31.4632   62.0411   61.9205 C   0  0  0  0  0  0  0  0  0  0  0  0
  -31.3716   60.5865   61.5188 C   0  0  0  0  0  0  0  0  0  0  0  0
  -40.8280   60.5331   66.3924 C   0  0  0  0  0  0  0  0  0  0  0  0
  -40.0985   61.0159   65.2422 O   0  0  0  0  0  0  0  0  0  0  0  0
  -38.5300   60.7669   65.0427 P   0  0  0  0  0  0  0  0  0  0  0  0
  -38.1492   59.5821   65.8413 O   0  0  0  0  0  0  0  0  0  0  0  0
  -38.2441   60.7672   63.5877 O   0  0  0  0  0  0  0  0  0  0  0  0
  -38.6693   59.9995   63.1745 H   0  0  0  0  0  0  0  0  0  0  0  0
  -37.8154   62.0408   65.6827 O   0  0  0  0  0  0  0  0  0  0  0  0
  -36.3785   62.0788   65.8001 C   0  0  0  0  0  0  0  0  0  0  0  0
  -36.1968   62.7118   68.1042 O   0  0  0  0  0  0  0  0  0  0  0  0
  -36.0089   63.1786   66.7649 C   0  0  0  0  0  0  0  0  0  0  0  0
  -37.1110   62.4069   68.2150 H   0  0  0  0  0  0  0  0  0  0  0  0
  -33.8414   63.5007   67.7731 O   0  0  0  0  0  0  0  0  0  0  0  0
  -34.5898   63.6576   66.5744 C   0  0  0  0  0  0  0  0  0  0  0  0
  -32.9341   63.8133   67.6312 H   0  0  0  0  0  0  0  0  0  0  0  0
  -41.9005   59.1395   64.6714 O   0  0  0  0  0  0  0  0  0  0  0  0
  -40.7487   57.2414   65.0329 O   0  0  0  0  0  0  0  0  0  0  0  0
  -41.7773   57.8018   64.7689 C   0  0  0  0  0  0  0  0  0  0  0  0
  -43.0778   57.1000   64.5272 C   0  0  0  0  0  0  0  0  0  0  0  0
  -44.0175   57.2383   65.7206 C   0  0  0  0  0  0  0  0  0  0  0  0
  -45.3184   57.9564   65.4007 C   0  0  0  0  0  0  0  0  0  0  0  0
  -45.9965   58.5634   66.6236 C   0  0  0  0  0  0  0  0  0  0  0  0
  -46.8252   59.7977   66.3204 C   0  0  0  0  0  0  0  0  0  0  0  0
  -47.7404   59.6661   65.0996 C   0  0  0  0  0  0  0  0  0  0  0  0
  -48.9461   58.7426   65.2858 C   0  0  0  0  0  0  0  0  0  0  0  0
  -50.2216   59.5089   65.4695 C   0  0  0  0  0  0  0  0  0  0  0  0
  -50.9879   60.0024   64.5162 C   0  0  0  0  0  0  0  0  0  0  0  0
  -50.7430   59.8981   63.0440 C   0  0  0  0  0  0  0  0  0  0  0  0
  -51.0827   58.5159   62.4937 C   0  0  0  0  0  0  0  0  0  0  0  0
  -50.0892   58.0092   61.4630 C   0  0  0  0  0  0  0  0  0  0  0  0
  -50.4723   58.3424   60.0314 C   0  0  0  0  0  0  0  0  0  0  0  0
  -49.6364   57.6381   58.9757 C   0  0  0  0  0  0  0  0  0  0  0  0
  -48.1404   57.8566   59.1426 C   0  0  0  0  0  0  0  0  0  0  0  0
  -47.4734   58.5266   57.9576 C   0  0  0  0  0  0  0  0  0  0  0  0
  -47.1039   57.5545   56.8722 C   0  0  0  0  0  0  0  0  0  0  0  0
 21 22  1  0  0  0
  4  5  2  0  0  0
 25 24  1  0  0  0
 25 26  2  0  0  0
 25 27  1  0  0  0
 25 29  1  0  0  0
 22 20  1  0  0  0
  3  5  1  0  0  0
  3  2  1  0  0  0
 20 19  1  0  0  0
 24 23  1  0  0  0
 19 18  1  0  0  0
 18 17  1  0  0  0
 27 28  1  0  0  0
 17 16  1  0  0  0
 29 30  1  0  0  0
 16 15  1  0  0  0
 34 35  1  0  0  0
 34 36  1  0  0  0
 15 14  1  0  0  0
 31 32  1  0  0  0
 31 33  1  0  0  0
 14 13  1  0  0  0
 37  1  1  0  0  0
 37 39  1  0  0  0
 13 12  1  0  0  0
 38 39  2  0  0  0
 12 11  1  0  0  0
 11 10  1  0  0  0
 10  9  1  0  0  0
  9  8  1  0  0  0
  8  7  1  0  0  0
  7  6  1  0  0  0
  6  5  1  0  0  0
  2  1  1  0  0  0
  1 23  1  0  0  0
 30 32  1  0  0  0
 32 35  1  0  0  0
 39 40  1  0  0  0
 40 41  1  0  0  0
 41 42  1  0  0  0
 42 43  1  0  0  0
 43 44  1  0  0  0
 44 45  1  0  0  0
 45 46  1  0  0  0
 46 47  1  0  0  0
 47 48  2  0  0  0
 48 49  1  0  0  0
 49 50  1  0  0  0
 50 51  1  0  0  0
 51 52  1  0  0  0
 52 53  1  0  0  0
 53 54  1  0  0  0
 54 55  1  0  0  0
 55 56  1  0  0  0
M  CHG 1  26  -1
M  END
> <minimizedAffinity>
-8.35446

> <CNNscore>
0.6216509342

> <CNNaffinity>
7.5896368027

> <CNN_VS>
4.7181048393

> <CNNaffinity_variance>
0.8683875799

$$$$
/media/chris/experiments/cd1a-new-docking/inputs/ligands/7sh4_ligand.pdb


 56 55  0  0  0  0  0  0  0  0999 V2000
  -39.2013   59.8906   65.6956 C   0  0  0  0  0  0  0  0  0  0  0  0
  -40.2243   60.9291   65.3311 C   0  0  0  0  0  0  0  0  0  0  0  0
  -40.9634   61.1353   66.5535 O   0  0  0  0  0  0  0  0  0  0  0  0
  -42.4028   62.8462   66.5363 O   0  0  0  0  0  0  0  0  0  0  0  0
  -42.1800   61.6694   66.4410 C   0  0  0  0  0  0  0  0  0  0  0  0
  -43.1953   60.6309   66.0597 C   0  0  0  0  0  0  0  0  0  0  0  0
  -44.1785   61.0860   64.9945 C   0  0  0  0  0  0  0  0  0  0  0  0
  -43.7808   60.6437   63.6021 C   0  0  0  0  0  0  0  0  0  0  0  0
  -43.1717   61.7381   62.7552 C   0  0  0  0  0  0  0  0  0  0  0  0
  -41.8980   61.3078   62.0561 C   0  0  0  0  0  0  0  0  0  0  0  0
  -41.8425   61.7320   60.6087 C   0  0  0  0  0  0  0  0  0  0  0  0
  -41.1985   60.7024   59.7182 C   0  0  0  0  0  0  0  0  0  0  0  0
  -39.8406   60.2503   60.2079 C   0  0  0  0  0  0  0  0  0  0  0  0
  -39.2623   59.1254   59.3733 C   0  0  0  0  0  0  0  0  0  0  0  0
  -37.9934   58.5243   59.9407 C   0  0  0  0  0  0  0  0  0  0  0  0
  -37.8717   58.6580   61.4544 C   0  0  0  0  0  0  0  0  0  0  0  0
  -37.2821   57.4378   62.1353 C   0  0  0  0  0  0  0  0  0  0  0  0
  -35.9032   57.6788   62.7143 C   0  0  0  0  0  0  0  0  0  0  0  0
  -35.8834   57.7485   64.2350 C   0  0  0  0  0  0  0  0  0  0  0  0
  -34.5003   57.5649   64.8338 C   0  0  0  0  0  0  0  0  0  0  0  0
  -32.5931   58.8887   63.8611 C   0  0  0  0  0  0  0  0  0  0  0  0
  -33.6719   58.8328   64.9189 C   0  0  0  0  0  0  0  0  0  0  0  0
  -37.8211   60.4800   65.8351 C   0  0  0  0  0  0  0  0  0  0  0  0
  -37.8043   61.7797   65.2037 O   0  0  0  0  0  0  0  0  0  0  0  0
  -36.7656   62.1704   64.0503 P   0  0  0  0  0  0  0  0  0  0  0  0
  -36.1704   60.9217   63.5278 O   0  0  0  0  0  0  0  0  0  0  0  0
  -37.4493   63.0842   63.1036 O   0  0  0  0  0  0  0  0  0  0  0  0
  -38.1568   62.6044   62.6451 H   0  0  0  0  0  0  0  0  0  0  0  0
  -35.6132   62.9952   64.7815 O   0  0  0  0  0  0  0  0  0  0  0  0
  -34.7095   62.3265   65.6848 C   0  0  0  0  0  0  0  0  0  0  0  0
  -33.3734   63.1609   67.4907 O   0  0  0  0  0  0  0  0  0  0  0  0
  -34.7135   63.0692   66.9984 C   0  0  0  0  0  0  0  0  0  0  0  0
  -32.9942   62.2710   67.5639 H   0  0  0  0  0  0  0  0  0  0  0  0
  -36.7385   64.3687   66.8274 O   0  0  0  0  0  0  0  0  0  0  0  0
  -35.3197   64.4468   66.8780 C   0  0  0  0  0  0  0  0  0  0  0  0
  -37.1090   65.2618   66.7503 H   0  0  0  0  0  0  0  0  0  0  0  0
  -39.2380   58.8311   64.6827 O   0  0  0  0  0  0  0  0  0  0  0  0
  -40.8440   58.4897   63.1450 O   0  0  0  0  0  0  0  0  0  0  0  0
  -40.4535   58.4151   64.2780 C   0  0  0  0  0  0  0  0  0  0  0  0
  -41.2503   57.8330   65.4041 C   0  0  0  0  0  0  0  0  0  0  0  0
  -42.2076   56.7526   64.9114 C   0  0  0  0  0  0  0  0  0  0  0  0
  -43.6647   57.1843   64.8881 C   0  0  0  0  0  0  0  0  0  0  0  0
  -44.2472   57.4398   66.2735 C   0  0  0  0  0  0  0  0  0  0  0  0
  -45.7618   57.5261   66.2997 C   0  0  0  0  0  0  0  0  0  0  0  0
  -46.3150   58.8482   66.8393 C   0  0  0  0  0  0  0  0  0  0  0  0
  -47.5459   59.3868   66.1070 C   0  0  0  0  0  0  0  0  0  0  0  0
  -48.3681   58.2891   65.5013 C   0  0  0  0  0  0  0  0  0  0  0  0
  -49.0518   58.3473   64.3750 C   0  0  0  0  0  0  0  0  0  0  0  0
  -49.1484   59.5278   63.4610 C   0  0  0  0  0  0  0  0  0  0  0  0
  -50.1925   59.3320   62.3655 C   0  0  0  0  0  0  0  0  0  0  0  0
  -49.6720   59.6222   60.9687 C   0  0  0  0  0  0  0  0  0  0  0  0
  -48.9022   58.4667   60.3525 C   0  0  0  0  0  0  0  0  0  0  0  0
  -48.9905   58.3879   58.8375 C   0  0  0  0  0  0  0  0  0  0  0  0
  -47.6331   58.3188   58.1545 C   0  0  0  0  0  0  0  0  0  0  0  0
  -47.6165   57.4889   56.8861 C   0  0  0  0  0  0  0  0  0  0  0  0
  -47.4925   56.0155   57.1569 C   0  0  0  0  0  0  0  0  0  0  0  0
 21 22  1  0  0  0
  4  5  2  0  0  0
 25 24  1  0  0  0
 25 26  2  0  0  0
 25 27  1  0  0  0
 25 29  1  0  0  0
 22 20  1  0  0  0
  3  5  1  0  0  0
  3  2  1  0  0  0
 20 19  1  0  0  0
 24 23  1  0  0  0
 19 18  1  0  0  0
 18 17  1  0  0  0
 27 28  1  0  0  0
 17 16  1  0  0  0
 29 30  1  0  0  0
 16 15  1  0  0  0
 34 35  1  0  0  0
 34 36  1  0  0  0
 15 14  1  0  0  0
 31 32  1  0  0  0
 31 33  1  0  0  0
 14 13  1  0  0  0
 37  1  1  0  0  0
 37 39  1  0  0  0
 13 12  1  0  0  0
 38 39  2  0  0  0
 12 11  1  0  0  0
 11 10  1  0  0  0
 10  9  1  0  0  0
  9  8  1  0  0  0
  8  7  1  0  0  0
  7  6  1  0  0  0
  6  5  1  0  0  0
  2  1  1  0  0  0
  1 23  1  0  0  0
 30 32  1  0  0  0
 32 35  1  0  0  0
 39 40  1  0  0  0
 40 41  1  0  0  0
 41 42  1  0  0  0
 42 43  1  0  0  0
 43 44  1  0  0  0
 44 45  1  0  0  0
 45 46  1  0  0  0
 46 47  1  0  0  0
 47 48  2  0  0  0
 48 49  1  0  0  0
 49 50  1  0  0  0
 50 51  1  0  0  0
 51 52  1  0  0  0
 52 53  1  0  0  0
 53 54  1  0  0  0
 54 55  1  0  0  0
 55 56  1  0  0  0
M  CHG 1  26  -1
M  END
> <minimizedAffinity>
-8.02090

> <CNNscore>
0.5576269031

> <CNNaffinity>
7.7492089272

> <CNN_VS>
4.3211674690

> <CNNaffinity_variance>
0.9536710978

$$$$
/media/chris/experiments/cd1a-new-docking/inputs/ligands/7sh4_ligand.pdb


 56 55  0  0  0  0  0  0  0  0999 V2000
  -40.0370   59.3508   65.2036 C   0  0  0  0  0  0  0  0  0  0  0  0
  -40.5921   60.4049   66.1192 C   0  0  0  0  0  0  0  0  0  0  0  0
  -42.0171   60.3446   65.8977 O   0  0  0  0  0  0  0  0  0  0  0  0
  -42.5284   62.4084   66.5896 O   0  0  0  0  0  0  0  0  0  0  0  0
  -42.6640   61.5070   65.8068 C   0  0  0  0  0  0  0  0  0  0  0  0
  -43.4737   61.5800   64.5443 C   0  0  0  0  0  0  0  0  0  0  0  0
  -42.7045   62.1035   63.3432 C   0  0  0  0  0  0  0  0  0  0  0  0
  -42.5477   61.0674   62.2504 C   0  0  0  0  0  0  0  0  0  0  0  0
  -41.9976   61.6144   60.9527 C   0  0  0  0  0  0  0  0  0  0  0  0
  -40.9894   60.6908   60.2995 C   0  0  0  0  0  0  0  0  0  0  0  0
  -41.3318   59.2296   60.4591 C   0  0  0  0  0  0  0  0  0  0  0  0
  -40.4035   58.3212   59.6972 C   0  0  0  0  0  0  0  0  0  0  0  0
  -39.0795   58.9672   59.3536 C   0  0  0  0  0  0  0  0  0  0  0  0
  -37.9725   58.5788   60.3128 C   0  0  0  0  0  0  0  0  0  0  0  0
  -38.3923   57.5774   61.3682 C   0  0  0  0  0  0  0  0  0  0  0  0
  -37.3138   57.2872   62.4058 C   0  0  0  0  0  0  0  0  0  0  0  0
  -36.1773   58.2915   62.4107 C   0  0  0  0  0  0  0  0  0  0  0  0
  -34.8919   57.7432   62.9957 C   0  0  0  0  0  0  0  0  0  0  0  0
  -34.5637   58.2980   64.3749 C   0  0  0  0  0  0  0  0  0  0  0  0
  -33.1922   58.9438   64.4595 C   0  0  0  0  0  0  0  0  0  0  0  0
  -31.9685   60.1552   62.6236 C   0  0  0  0  0  0  0  0  0  0  0  0
  -32.3502   58.8127   63.2046 C   0  0  0  0  0  0  0  0  0  0  0  0
  -38.6959   59.7416   64.6375 C   0  0  0  0  0  0  0  0  0  0  0  0
  -38.5218   61.1674   64.7962 O   0  0  0  0  0  0  0  0  0  0  0  0
  -37.0920   61.8450   65.0380 P   0  0  0  0  0  0  0  0  0  0  0  0
  -37.3136   63.1899   65.6114 O   0  0  0  0  0  0  0  0  0  0  0  0
  -36.2456   60.8831   65.7843 O   0  0  0  0  0  0  0  0  0  0  0  0
  -36.6102   60.7542   66.6739 H   0  0  0  0  0  0  0  0  0  0  0  0
  -36.4605   62.0286   63.5852 O   0  0  0  0  0  0  0  0  0  0  0  0
  -35.0388   62.2185   63.4353 C   0  0  0  0  0  0  0  0  0  0  0  0
  -33.7941   63.4270   61.7821 O   0  0  0  0  0  0  0  0  0  0  0  0
  -34.8038   63.5607   62.7869 C   0  0  0  0  0  0  0  0  0  0  0  0
  -32.9904   63.0559   62.1787 H   0  0  0  0  0  0  0  0  0  0  0  0
  -36.7296   64.9734   63.1239 O   0  0  0  0  0  0  0  0  0  0  0  0
  -36.0632   64.1375   62.1865 C   0  0  0  0  0  0  0  0  0  0  0  0
  -37.5348   65.3340   62.7206 H   0  0  0  0  0  0  0  0  0  0  0  0
  -41.0185   59.0960   64.1445 O   0  0  0  0  0  0  0  0  0  0  0  0
  -40.7383   56.8772   63.9024 O   0  0  0  0  0  0  0  0  0  0  0  0
  -41.4601   57.8304   64.0128 C   0  0  0  0  0  0  0  0  0  0  0  0
  -42.9552   57.7528   64.0390 C   0  0  0  0  0  0  0  0  0  0  0  0
  -43.4685   57.3220   65.4093 C   0  0  0  0  0  0  0  0  0  0  0  0
  -44.9738   57.4539   65.5728 C   0  0  0  0  0  0  0  0  0  0  0  0
  -45.4979   58.8561   65.2852 C   0  0  0  0  0  0  0  0  0  0  0  0
  -46.7310   59.2302   66.0863 C   0  0  0  0  0  0  0  0  0  0  0  0
  -47.9172   59.7075   65.2435 C   0  0  0  0  0  0  0  0  0  0  0  0
  -49.1773   58.8453   65.3450 C   0  0  0  0  0  0  0  0  0  0  0  0
  -50.4246   59.6741   65.4168 C   0  0  0  0  0  0  0  0  0  0  0  0
  -51.0826   60.1962   64.4000 C   0  0  0  0  0  0  0  0  0  0  0  0
  -50.7198   60.0678   62.9543 C   0  0  0  0  0  0  0  0  0  0  0  0
  -51.0260   58.6802   62.3981 C   0  0  0  0  0  0  0  0  0  0  0  0
  -49.8133   57.9758   61.8156 C   0  0  0  0  0  0  0  0  0  0  0  0
  -50.1048   57.2231   60.5289 C   0  0  0  0  0  0  0  0  0  0  0  0
  -49.8941   58.0360   59.2623 C   0  0  0  0  0  0  0  0  0  0  0  0
  -48.5195   58.6819   59.1789 C   0  0  0  0  0  0  0  0  0  0  0  0
  -47.6778   58.2049   58.0118 C   0  0  0  0  0  0  0  0  0  0  0  0
  -48.3874   57.1900   57.1596 C   0  0  0  0  0  0  0  0  0  0  0  0
 21 22  1  0  0  0
  4  5  2  0  0  0
 25 24  1  0  0  0
 25 26  2  0  0  0
 25 27  1  0  0  0
 25 29  1  0  0  0
 22 20  1  0  0  0
  3  5  1  0  0  0
  3  2  1  0  0  0
 20 19  1  0  0  0
 24 23  1  0  0  0
 19 18  1  0  0  0
 18 17  1  0  0  0
 27 28  1  0  0  0
 17 16  1  0  0  0
 29 30  1  0  0  0
 16 15  1  0  0  0
 34 35  1  0  0  0
 34 36  1  0  0  0
 15 14  1  0  0  0
 31 32  1  0  0  0
 31 33  1  0  0  0
 14 13  1  0  0  0
 37  1  1  0  0  0
 37 39  1  0  0  0
 13 12  1  0  0  0
 38 39  2  0  0  0
 12 11  1  0  0  0
 11 10  1  0  0  0
 10  9  1  0  0  0
  9  8  1  0  0  0
  8  7  1  0  0  0
  7  6  1  0  0  0
  6  5  1  0  0  0
  2  1  1  0  0  0
  1 23  1  0  0  0
 30 32  1  0  0  0
 32 35  1  0  0  0
 39 40  1  0  0  0
 40 41  1  0  0  0
 41 42  1  0  0  0
 42 43  1  0  0  0
 43 44  1  0  0  0
 44 45  1  0  0  0
 45 46  1  0  0  0
 46 47  1  0  0  0
 47 48  2  0  0  0
 48 49  1  0  0  0
 49 50  1  0  0  0
 50 51  1  0  0  0
 51 52  1  0  0  0
 52 53  1  0  0  0
 53 54  1  0  0  0
 54 55  1  0  0  0
 55 56  1  0  0  0
M  CHG 1  26  -1
M  END
> <minimizedAffinity>
-8.42866

> <CNNscore>
0.4773958325

> <CNNaffinity>
7.6070036888

> <CNN_VS>
3.6315517426

> <CNNaffinity_variance>
1.1920535564

$$$$
/media/chris/experiments/cd1a-new-docking/inputs/ligands/7sh4_ligand.pdb


 56 55  0  0  0  0  0  0  0  0999 V2000
  -40.4114   60.1449   65.2751 C   0  0  0  0  0  0  0  0  0  0  0  0
  -40.7446   60.8145   63.9719 C   0  0  0  0  0  0  0  0  0  0  0  0
  -41.9682   61.5280   64.2487 O   0  0  0  0  0  0  0  0  0  0  0  0
  -42.6797   61.3172   62.1395 O   0  0  0  0  0  0  0  0  0  0  0  0
  -42.9090   61.5030   63.3041 C   0  0  0  0  0  0  0  0  0  0  0  0
  -44.2819   61.6104   63.9029 C   0  0  0  0  0  0  0  0  0  0  0  0
  -44.7720   60.3335   64.5645 C   0  0  0  0  0  0  0  0  0  0  0  0
  -46.2792   60.2853   64.7014 C   0  0  0  0  0  0  0  0  0  0  0  0
  -46.7644   59.6505   65.9848 C   0  0  0  0  0  0  0  0  0  0  0  0
  -47.4101   58.2966   65.7700 C   0  0  0  0  0  0  0  0  0  0  0  0
  -48.5793   58.3407   64.8166 C   0  0  0  0  0  0  0  0  0  0  0  0
  -49.8583   58.7865   65.4745 C   0  0  0  0  0  0  0  0  0  0  0  0
  -50.6646   59.7478   64.6295 C   0  0  0  0  0  0  0  0  0  0  0  0
  -49.8549   60.3578   63.5031 C   0  0  0  0  0  0  0  0  0  0  0  0
  -50.4499   60.1423   62.1274 C   0  0  0  0  0  0  0  0  0  0  0  0
  -50.1544   58.7683   61.5367 C   0  0  0  0  0  0  0  0  0  0  0  0
  -49.3537   58.8101   60.2494 C   0  0  0  0  0  0  0  0  0  0  0  0
  -49.5042   57.5609   59.4058 C   0  0  0  0  0  0  0  0  0  0  0  0
  -48.4083   56.5306   59.6401 C   0  0  0  0  0  0  0  0  0  0  0  0
  -47.4633   56.3701   58.4625 C   0  0  0  0  0  0  0  0  0  0  0  0
  -46.8631   58.3441   57.0207 C   0  0  0  0  0  0  0  0  0  0  0  0
  -47.8227   57.1972   57.2428 C   0  0  0  0  0  0  0  0  0  0  0  0
  -39.0277   60.4992   65.7562 C   0  0  0  0  0  0  0  0  0  0  0  0
  -38.4128   61.3840   64.7932 O   0  0  0  0  0  0  0  0  0  0  0  0
  -36.9498   62.0018   64.9932 P   0  0  0  0  0  0  0  0  0  0  0  0
  -37.1010   63.3791   65.5095 O   0  0  0  0  0  0  0  0  0  0  0  0
  -36.1426   61.0331   65.7735 O   0  0  0  0  0  0  0  0  0  0  0  0
  -36.5035   60.9603   66.6709 H   0  0  0  0  0  0  0  0  0  0  0  0
  -36.3256   62.0921   63.5286 O   0  0  0  0  0  0  0  0  0  0  0  0
  -35.4451   63.1816   63.1856 C   0  0  0  0  0  0  0  0  0  0  0  0
  -36.7599   65.1736   62.9707 O   0  0  0  0  0  0  0  0  0  0  0  0
  -36.1716   64.0985   62.2324 C   0  0  0  0  0  0  0  0  0  0  0  0
  -37.3395   64.8133   63.6600 H   0  0  0  0  0  0  0  0  0  0  0  0
  -34.1378   63.7947   60.9715 O   0  0  0  0  0  0  0  0  0  0  0  0
  -35.2652   64.6417   61.1540 C   0  0  0  0  0  0  0  0  0  0  0  0
  -33.5684   64.1596   60.2761 H   0  0  0  0  0  0  0  0  0  0  0  0
  -40.5714   58.6974   65.1044 O   0  0  0  0  0  0  0  0  0  0  0  0
  -42.4348   58.5033   66.3495 O   0  0  0  0  0  0  0  0  0  0  0  0
  -41.7788   58.1777   65.3980 C   0  0  0  0  0  0  0  0  0  0  0  0
  -42.2121   57.1611   64.3876 C   0  0  0  0  0  0  0  0  0  0  0  0
  -42.4574   57.7982   63.0236 C   0  0  0  0  0  0  0  0  0  0  0  0
  -41.2990   57.6402   62.0523 C   0  0  0  0  0  0  0  0  0  0  0  0
  -41.7287   57.6143   60.5900 C   0  0  0  0  0  0  0  0  0  0  0  0
  -40.5950   57.3426   59.6186 C   0  0  0  0  0  0  0  0  0  0  0  0
  -39.8547   58.5941   59.1380 C   0  0  0  0  0  0  0  0  0  0  0  0
  -38.3982   58.7048   59.5938 C   0  0  0  0  0  0  0  0  0  0  0  0
  -38.2376   59.6482   60.7480 C   0  0  0  0  0  0  0  0  0  0  0  0
  -37.9178   59.3292   61.9870 C   0  0  0  0  0  0  0  0  0  0  0  0
  -37.6455   57.9510   62.5015 C   0  0  0  0  0  0  0  0  0  0  0  0
  -36.7582   57.9576   63.7430 C   0  0  0  0  0  0  0  0  0  0  0  0
  -35.2829   57.7654   63.4387 C   0  0  0  0  0  0  0  0  0  0  0  0
  -34.3688   58.1338   64.5946 C   0  0  0  0  0  0  0  0  0  0  0  0
  -33.1866   59.0072   64.2088 C   0  0  0  0  0  0  0  0  0  0  0  0
  -33.5028   59.9989   63.0996 C   0  0  0  0  0  0  0  0  0  0  0  0
  -32.2827   60.6617   62.4912 C   0  0  0  0  0  0  0  0  0  0  0  0
  -31.0232   59.8698   62.7055 C   0  0  0  0  0  0  0  0  0  0  0  0
 21 22  1  0  0  0
  4  5  2  0  0  0
 25 24  1  0  0  0
 25 26  2  0  0  0
 25 27  1  0  0  0
 25 29  1  0  0  0
 22 20  1  0  0  0
  3  5  1  0  0  0
  3  2  1  0  0  0
 20 19  1  0  0  0
 24 23  1  0  0  0
 19 18  1  0  0  0
 18 17  1  0  0  0
 27 28  1  0  0  0
 17 16  1  0  0  0
 29 30  1  0  0  0
 16 15  1  0  0  0
 34 35  1  0  0  0
 34 36  1  0  0  0
 15 14  1  0  0  0
 31 32  1  0  0  0
 31 33  1  0  0  0
 14 13  1  0  0  0
 37  1  1  0  0  0
 37 39  1  0  0  0
 13 12  1  0  0  0
 38 39  2  0  0  0
 12 11  1  0  0  0
 11 10  1  0  0  0
 10  9  1  0  0  0
  9  8  1  0  0  0
  8  7  1  0  0  0
  7  6  1  0  0  0
  6  5  1  0  0  0
  2  1  1  0  0  0
  1 23  1  0  0  0
 30 32  1  0  0  0
 32 35  1  0  0  0
 39 40  1  0  0  0
 40 41  1  0  0  0
 41 42  1  0  0  0
 42 43  1  0  0  0
 43 44  1  0  0  0
 44 45  1  0  0  0
 45 46  1  0  0  0
 46 47  1  0  0  0
 47 48  2  0  0  0
 48 49  1  0  0  0
 49 50  1  0  0  0
 50 51  1  0  0  0
 51 52  1  0  0  0
 52 53  1  0  0  0
 53 54  1  0  0  0
 54 55  1  0  0  0
 55 56  1  0  0  0
M  CHG 1  26  -1
M  END
> <minimizedAffinity>
-8.36775

> <CNNscore>
0.4740580916

> <CNNaffinity>
7.5942215919

> <CNN_VS>
3.6001021862

> <CNNaffinity_variance>
1.3844845295

$$$$
/media/chris/experiments/cd1a-new-docking/inputs/ligands/7sh4_ligand.pdb


 56 55  0  0  0  0  0  0  0  0999 V2000
  -40.1030   60.1767   64.6509 C   0  0  0  0  0  0  0  0  0  0  0  0
  -40.8034   60.5160   65.9362 C   0  0  0  0  0  0  0  0  0  0  0  0
  -41.6159   59.3546   66.2083 O   0  0  0  0  0  0  0  0  0  0  0  0
  -43.5258   60.5151   66.1399 O   0  0  0  0  0  0  0  0  0  0  0  0
  -42.9300   59.4789   66.0191 C   0  0  0  0  0  0  0  0  0  0  0  0
  -43.5299   58.1961   65.5197 C   0  0  0  0  0  0  0  0  0  0  0  0
  -44.5810   57.6022   66.4421 C   0  0  0  0  0  0  0  0  0  0  0  0
  -45.9936   57.9478   66.0205 C   0  0  0  0  0  0  0  0  0  0  0  0
  -46.6691   58.9742   66.9014 C   0  0  0  0  0  0  0  0  0  0  0  0
  -47.4573   60.0031   66.1164 C   0  0  0  0  0  0  0  0  0  0  0  0
  -47.3497   59.8203   64.6221 C   0  0  0  0  0  0  0  0  0  0  0  0
  -48.3595   60.6330   63.8557 C   0  0  0  0  0  0  0  0  0  0  0  0
  -49.7629   60.5237   64.4094 C   0  0  0  0  0  0  0  0  0  0  0  0
  -50.4683   59.2565   63.9702 C   0  0  0  0  0  0  0  0  0  0  0  0
  -50.9980   59.3038   62.5524 C   0  0  0  0  0  0  0  0  0  0  0  0
  -51.0822   57.9380   61.8803 C   0  0  0  0  0  0  0  0  0  0  0  0
  -49.7599   57.4398   61.3292 C   0  0  0  0  0  0  0  0  0  0  0  0
  -48.8670   58.5489   60.8120 C   0  0  0  0  0  0  0  0  0  0  0  0
  -48.8995   58.7025   59.2977 C   0  0  0  0  0  0  0  0  0  0  0  0
  -48.8174   57.3829   58.5512 C   0  0  0  0  0  0  0  0  0  0  0  0
  -46.7881   57.9299   57.1661 C   0  0  0  0  0  0  0  0  0  0  0  0
  -48.2310   57.4785   57.1555 C   0  0  0  0  0  0  0  0  0  0  0  0
  -39.1306   61.2507   64.2353 C   0  0  0  0  0  0  0  0  0  0  0  0
  -38.3154   61.6062   65.3744 O   0  0  0  0  0  0  0  0  0  0  0  0
  -36.8843   62.3085   65.2315 P   0  0  0  0  0  0  0  0  0  0  0  0
  -36.9608   63.6385   65.8731 O   0  0  0  0  0  0  0  0  0  0  0  0
  -35.8519   61.3513   65.6970 O   0  0  0  0  0  0  0  0  0  0  0  0
  -35.9574   61.1999   66.6493 H   0  0  0  0  0  0  0  0  0  0  0  0
  -36.6769   62.5297   63.6659 O   0  0  0  0  0  0  0  0  0  0  0  0
  -36.6073   63.8665   63.1292 C   0  0  0  0  0  0  0  0  0  0  0  0
  -35.1863   65.3526   61.8984 O   0  0  0  0  0  0  0  0  0  0  0  0
  -35.2464   64.0589   62.5063 C   0  0  0  0  0  0  0  0  0  0  0  0
  -35.9086   65.4424   61.2571 H   0  0  0  0  0  0  0  0  0  0  0  0
  -34.3669   64.7038   64.6579 O   0  0  0  0  0  0  0  0  0  0  0  0
  -34.1280   63.9018   63.5084 C   0  0  0  0  0  0  0  0  0  0  0  0
  -33.6391   64.5896   65.2889 H   0  0  0  0  0  0  0  0  0  0  0  0
  -41.1189   59.9378   63.6209 O   0  0  0  0  0  0  0  0  0  0  0  0
  -42.0023   62.0064   63.5943 O   0  0  0  0  0  0  0  0  0  0  0  0
  -41.6379   61.0215   63.0122 C   0  0  0  0  0  0  0  0  0  0  0  0
  -41.6887   60.8583   61.5247 C   0  0  0  0  0  0  0  0  0  0  0  0
  -40.4024   60.2402   60.9861 C   0  0  0  0  0  0  0  0  0  0  0  0
  -40.5105   59.7422   59.5541 C   0  0  0  0  0  0  0  0  0  0  0  0
  -40.1112   58.2808   59.3850 C   0  0  0  0  0  0  0  0  0  0  0  0
  -40.9395   57.3152   60.2120 C   0  0  0  0  0  0  0  0  0  0  0  0
  -40.2592   56.8305   61.4955 C   0  0  0  0  0  0  0  0  0  0  0  0
  -38.7569   57.1080   61.5814 C   0  0  0  0  0  0  0  0  0  0  0  0
  -38.3573   57.6436   62.9236 C   0  0  0  0  0  0  0  0  0  0  0  0
  -37.1776   58.1295   63.2579 C   0  0  0  0  0  0  0  0  0  0  0  0
  -35.9860   58.2495   62.3613 C   0  0  0  0  0  0  0  0  0  0  0  0
  -34.7308   57.6372   62.9762 C   0  0  0  0  0  0  0  0  0  0  0  0
  -34.4469   58.1183   64.3883 C   0  0  0  0  0  0  0  0  0  0  0  0
  -33.0041   58.5377   64.6113 C   0  0  0  0  0  0  0  0  0  0  0  0
  -32.3188   59.1137   63.3833 C   0  0  0  0  0  0  0  0  0  0  0  0
  -32.7206   60.5498   63.0832 C   0  0  0  0  0  0  0  0  0  0  0  0
  -31.6266   61.3810   62.4427 C   0  0  0  0  0  0  0  0  0  0  0  0
  -30.9472   60.6708   61.3054 C   0  0  0  0  0  0  0  0  0  0  0  0
 21 22  1  0  0  0
  4  5  2  0  0  0
 25 24  1  0  0  0
 25 26  2  0  0  0
 25 27  1  0  0  0
 25 29  1  0  0  0
 22 20  1  0  0  0
  3  5  1  0  0  0
  3  2  1  0  0  0
 20 19  1  0  0  0
 24 23  1  0  0  0
 19 18  1  0  0  0
 18 17  1  0  0  0
 27 28  1  0  0  0
 17 16  1  0  0  0
 29 30  1  0  0  0
 16 15  1  0  0  0
 34 35  1  0  0  0
 34 36  1  0  0  0
 15 14  1  0  0  0
 31 32  1  0  0  0
 31 33  1  0  0  0
 14 13  1  0  0  0
 37  1  1  0  0  0
 37 39  1  0  0  0
 13 12  1  0  0  0
 38 39  2  0  0  0
 12 11  1  0  0  0
 11 10  1  0  0  0
 10  9  1  0  0  0
  9  8  1  0  0  0
  8  7  1  0  0  0
  7  6  1  0  0  0
  6  5  1  0  0  0
  2  1  1  0  0  0
  1 23  1  0  0  0
 30 32  1  0  0  0
 32 35  1  0  0  0
 39 40  1  0  0  0
 40 41  1  0  0  0
 41 42  1  0  0  0
 42 43  1  0  0  0
 43 44  1  0  0  0
 44 45  1  0  0  0
 45 46  1  0  0  0
 46 47  1  0  0  0
 47 48  2  0  0  0
 48 49  1  0  0  0
 49 50  1  0  0  0
 50 51  1  0  0  0
 51 52  1  0  0  0
 52 53  1  0  0  0
 53 54  1  0  0  0
 54 55  1  0  0  0
 55 56  1  0  0  0
M  CHG 1  26  -1
M  END
> <minimizedAffinity>
-8.10809

> <CNNscore>
0.4506600201

> <CNNaffinity>
7.4645218849

> <CNN_VS>
3.3639616966

> <CNNaffinity_variance>
0.9070667028

$$$$
/media/chris/experiments/cd1a-new-docking/inputs/ligands/7sh4_ligand.pdb


 56 55  0  0  0  0  0  0  0  0999 V2000
  -39.8523   60.5274   64.7351 C   0  0  0  0  0  0  0  0  0  0  0  0
  -40.3116   60.4804   63.3052 C   0  0  0  0  0  0  0  0  0  0  0  0
  -41.1640   61.6378   63.1741 O   0  0  0  0  0  0  0  0  0  0  0  0
  -42.3786   61.8974   61.3150 O   0  0  0  0  0  0  0  0  0  0  0  0
  -42.2688   61.4945   62.4415 C   0  0  0  0  0  0  0  0  0  0  0  0
  -43.2926   60.6639   63.1604 C   0  0  0  0  0  0  0  0  0  0  0  0
  -44.0480   61.4124   64.2455 C   0  0  0  0  0  0  0  0  0  0  0  0
  -45.4252   60.8384   64.5036 C   0  0  0  0  0  0  0  0  0  0  0  0
  -45.5467   60.0826   65.8074 C   0  0  0  0  0  0  0  0  0  0  0  0
  -46.9665   59.6494   66.1119 C   0  0  0  0  0  0  0  0  0  0  0  0
  -47.9310   59.9431   64.9889 C   0  0  0  0  0  0  0  0  0  0  0  0
  -48.4481   58.6986   64.3169 C   0  0  0  0  0  0  0  0  0  0  0  0
  -49.9197   58.4506   64.5636 C   0  0  0  0  0  0  0  0  0  0  0  0
  -50.8118   59.3722   63.7566 C   0  0  0  0  0  0  0  0  0  0  0  0
  -50.5600   59.3252   62.2641 C   0  0  0  0  0  0  0  0  0  0  0  0
  -50.9908   58.0186   61.6074 C   0  0  0  0  0  0  0  0  0  0  0  0
  -50.3171   57.7466   60.2761 C   0  0  0  0  0  0  0  0  0  0  0  0
  -49.1695   56.7624   60.3720 C   0  0  0  0  0  0  0  0  0  0  0  0
  -47.8892   57.2513   59.7092 C   0  0  0  0  0  0  0  0  0  0  0  0
  -48.1289   58.2215   58.5661 C   0  0  0  0  0  0  0  0  0  0  0  0
  -47.1966   56.3102   57.2194 C   0  0  0  0  0  0  0  0  0  0  0  0
  -47.5746   57.7741   57.2269 C   0  0  0  0  0  0  0  0  0  0  0  0
  -38.3558   60.6696   64.8446 C   0  0  0  0  0  0  0  0  0  0  0  0
  -38.0036   62.0553   64.6343 O   0  0  0  0  0  0  0  0  0  0  0  0
  -36.8881   62.5169   63.5835 P   0  0  0  0  0  0  0  0  0  0  0  0
  -37.0357   61.6905   62.3662 O   0  0  0  0  0  0  0  0  0  0  0  0
  -36.9573   63.9926   63.4553 O   0  0  0  0  0  0  0  0  0  0  0  0
  -37.8000   64.2423   63.0449 H   0  0  0  0  0  0  0  0  0  0  0  0
  -35.4920   62.1489   64.2606 O   0  0  0  0  0  0  0  0  0  0  0  0
  -34.7992   63.1270   65.0627 C   0  0  0  0  0  0  0  0  0  0  0  0
  -33.5653   62.9036   67.1048 O   0  0  0  0  0  0  0  0  0  0  0  0
  -34.8436   62.6790   66.5029 C   0  0  0  0  0  0  0  0  0  0  0  0
  -32.8811   62.4470   66.5907 H   0  0  0  0  0  0  0  0  0  0  0  0
  -36.7064   64.2102   66.4413 O   0  0  0  0  0  0  0  0  0  0  0  0
  -35.9216   63.3834   67.2911 C   0  0  0  0  0  0  0  0  0  0  0  0
  -37.3922   64.6536   66.9648 H   0  0  0  0  0  0  0  0  0  0  0  0
  -40.3327   59.3198   65.4141 O   0  0  0  0  0  0  0  0  0  0  0  0
  -41.7855   60.4682   66.6911 O   0  0  0  0  0  0  0  0  0  0  0  0
  -41.4421   59.4436   66.1677 C   0  0  0  0  0  0  0  0  0  0  0  0
  -42.2038   58.1577   66.2592 C   0  0  0  0  0  0  0  0  0  0  0  0
  -42.7005   57.7038   64.8903 C   0  0  0  0  0  0  0  0  0  0  0  0
  -42.0051   56.4590   64.3640 C   0  0  0  0  0  0  0  0  0  0  0  0
  -41.0876   56.7288   63.1770 C   0  0  0  0  0  0  0  0  0  0  0  0
  -41.1992   55.7023   62.0651 C   0  0  0  0  0  0  0  0  0  0  0  0
  -41.4979   56.2906   60.6831 C   0  0  0  0  0  0  0  0  0  0  0  0
  -41.1437   57.7696   60.5142 C   0  0  0  0  0  0  0  0  0  0  0  0
  -40.1688   57.9930   59.3973 C   0  0  0  0  0  0  0  0  0  0  0  0
  -38.9237   58.4127   59.5112 C   0  0  0  0  0  0  0  0  0  0  0  0
  -38.2204   58.7539   60.7869 C   0  0  0  0  0  0  0  0  0  0  0  0
  -37.9032   57.5189   61.6252 C   0  0  0  0  0  0  0  0  0  0  0  0
  -37.3646   57.8427   63.0077 C   0  0  0  0  0  0  0  0  0  0  0  0
  -35.8994   57.4861   63.1903 C   0  0  0  0  0  0  0  0  0  0  0  0
  -34.9437   58.2851   62.3200 C   0  0  0  0  0  0  0  0  0  0  0  0
  -33.5692   58.4726   62.9440 C   0  0  0  0  0  0  0  0  0  0  0  0
  -33.5268   58.2304   64.4398 C   0  0  0  0  0  0  0  0  0  0  0  0
  -33.4809   59.5057   65.2343 C   0  0  0  0  0  0  0  0  0  0  0  0
 21 22  1  0  0  0
  4  5  2  0  0  0
 25 24  1  0  0  0
 25 26  2  0  0  0
 25 27  1  0  0  0
 25 29  1  0  0  0
 22 20  1  0  0  0
  3  5  1  0  0  0
  3  2  1  0  0  0
 20 19  1  0  0  0
 24 23  1  0  0  0
 19 18  1  0  0  0
 18 17  1  0  0  0
 27 28  1  0  0  0
 17 16  1  0  0  0
 29 30  1  0  0  0
 16 15  1  0  0  0
 34 35  1  0  0  0
 34 36  1  0  0  0
 15 14  1  0  0  0
 31 32  1  0  0  0
 31 33  1  0  0  0
 14 13  1  0  0  0
 37  1  1  0  0  0
 37 39  1  0  0  0
 13 12  1  0  0  0
 38 39  2  0  0  0
 12 11  1  0  0  0
 11 10  1  0  0  0
 10  9  1  0  0  0
  9  8  1  0  0  0
  8  7  1  0  0  0
  7  6  1  0  0  0
  6  5  1  0  0  0
  2  1  1  0  0  0
  1 23  1  0  0  0
 30 32  1  0  0  0
 32 35  1  0  0  0
 39 40  1  0  0  0
 40 41  1  0  0  0
 41 42  1  0  0  0
 42 43  1  0  0  0
 43 44  1  0  0  0
 44 45  1  0  0  0
 45 46  1  0  0  0
 46 47  1  0  0  0
 47 48  2  0  0  0
 48 49  1  0  0  0
 49 50  1  0  0  0
 50 51  1  0  0  0
 51 52  1  0  0  0
 52 53  1  0  0  0
 53 54  1  0  0  0
 54 55  1  0  0  0
 55 56  1  0  0  0
M  CHG 1  26  -1
M  END
> <minimizedAffinity>
-8.73933

> <CNNscore>
0.4265553355

> <CNNaffinity>
7.6264333725

> <CNN_VS>
3.2530958652

> <CNNaffinity_variance>
1.5592429638

$$$$
/media/chris/experiments/cd1a-new-docking/inputs/ligands/7sh4_ligand.pdb


 56 55  0  0  0  0  0  0  0  0999 V2000
  -40.6571   60.0655   64.2534 C   0  0  0  0  0  0  0  0  0  0  0  0
  -40.3481   58.7105   64.8246 C   0  0  0  0  0  0  0  0  0  0  0  0
  -41.5752   57.9706   64.6515 O   0  0  0  0  0  0  0  0  0  0  0  0
  -41.8819   55.7567   64.5882 O   0  0  0  0  0  0  0  0  0  0  0  0
  -41.4809   56.7692   64.0807 C   0  0  0  0  0  0  0  0  0  0  0  0
  -40.9296   56.8721   62.6878 C   0  0  0  0  0  0  0  0  0  0  0  0
  -41.8345   57.6094   61.7152 C   0  0  0  0  0  0  0  0  0  0  0  0
  -41.4336   57.4029   60.2698 C   0  0  0  0  0  0  0  0  0  0  0  0
  -40.7521   58.5963   59.6397 C   0  0  0  0  0  0  0  0  0  0  0  0
  -39.4571   58.2385   58.9388 C   0  0  0  0  0  0  0  0  0  0  0  0
  -38.2974   59.1118   59.3514 C   0  0  0  0  0  0  0  0  0  0  0  0
  -38.0282   59.0712   60.8325 C   0  0  0  0  0  0  0  0  0  0  0  0
  -37.7577   57.6779   61.3554 C   0  0  0  0  0  0  0  0  0  0  0  0
  -37.1918   57.6800   62.7612 C   0  0  0  0  0  0  0  0  0  0  0  0
  -35.6810   57.7651   62.8190 C   0  0  0  0  0  0  0  0  0  0  0  0
  -35.1169   57.7506   64.2352 C   0  0  0  0  0  0  0  0  0  0  0  0
  -33.8658   58.5902   64.4088 C   0  0  0  0  0  0  0  0  0  0  0  0
  -32.7474   58.2071   63.4616 C   0  0  0  0  0  0  0  0  0  0  0  0
  -31.7789   59.3446   63.1689 C   0  0  0  0  0  0  0  0  0  0  0  0
  -32.1590   60.1684   61.9514 C   0  0  0  0  0  0  0  0  0  0  0  0
  -33.0563   62.1145   63.2717 C   0  0  0  0  0  0  0  0  0  0  0  0
  -32.1268   61.6697   62.1654 C   0  0  0  0  0  0  0  0  0  0  0  0
  -39.4876   60.6408   63.4964 C   0  0  0  0  0  0  0  0  0  0  0  0
  -38.6222   61.3268   64.4286 O   0  0  0  0  0  0  0  0  0  0  0  0
  -37.2362   61.9981   63.9926 P   0  0  0  0  0  0  0  0  0  0  0  0
  -36.3310   60.9229   63.5334 O   0  0  0  0  0  0  0  0  0  0  0  0
  -37.5365   63.1191   63.0696 O   0  0  0  0  0  0  0  0  0  0  0  0
  -37.9097   62.7685   62.2458 H   0  0  0  0  0  0  0  0  0  0  0  0
  -36.6265   62.6152   65.3307 O   0  0  0  0  0  0  0  0  0  0  0  0
  -36.1081   63.9610   65.3336 C   0  0  0  0  0  0  0  0  0  0  0  0
  -36.1565   64.1004   67.7254 O   0  0  0  0  0  0  0  0  0  0  0  0
  -35.2909   64.1535   66.5875 C   0  0  0  0  0  0  0  0  0  0  0  0
  -36.8581   64.7634   67.6292 H   0  0  0  0  0  0  0  0  0  0  0  0
  -33.3547   63.4282   67.8298 O   0  0  0  0  0  0  0  0  0  0  0  0
  -34.1918   63.1269   66.7207 C   0  0  0  0  0  0  0  0  0  0  0  0
  -32.6560   62.7589   67.8988 H   0  0  0  0  0  0  0  0  0  0  0  0
  -41.0774   60.9436   65.3498 O   0  0  0  0  0  0  0  0  0  0  0  0
  -42.9607   61.4043   66.4905 O   0  0  0  0  0  0  0  0  0  0  0  0
  -42.3945   61.2073   65.4502 C   0  0  0  0  0  0  0  0  0  0  0  0
  -43.0625   61.2434   64.1107 C   0  0  0  0  0  0  0  0  0  0  0  0
  -44.5508   61.5527   64.2366 C   0  0  0  0  0  0  0  0  0  0  0  0
  -45.3676   60.4184   64.8336 C   0  0  0  0  0  0  0  0  0  0  0  0
  -46.8389   60.4518   64.4364 C   0  0  0  0  0  0  0  0  0  0  0  0
  -47.6568   59.3056   65.0019 C   0  0  0  0  0  0  0  0  0  0  0  0
  -48.8750   59.7372   65.8233 C   0  0  0  0  0  0  0  0  0  0  0  0
  -50.2064   59.1224   65.3863 C   0  0  0  0  0  0  0  0  0  0  0  0
  -51.0370   60.0824   64.5884 C   0  0  0  0  0  0  0  0  0  0  0  0
  -51.0357   60.2232   63.2771 C   0  0  0  0  0  0  0  0  0  0  0  0
  -50.2011   59.4484   62.3068 C   0  0  0  0  0  0  0  0  0  0  0  0
  -50.9106   58.1969   61.7982 C   0  0  0  0  0  0  0  0  0  0  0  0
  -50.6409   57.8958   60.3343 C   0  0  0  0  0  0  0  0  0  0  0  0
  -49.5394   58.7490   59.7292 C   0  0  0  0  0  0  0  0  0  0  0  0
  -48.2981   57.9752   59.3171 C   0  0  0  0  0  0  0  0  0  0  0  0
  -47.6890   58.4590   58.0100 C   0  0  0  0  0  0  0  0  0  0  0  0
  -47.8266   57.4811   56.8599 C   0  0  0  0  0  0  0  0  0  0  0  0
  -47.5317   56.0634   57.2638 C   0  0  0  0  0  0  0  0  0  0  0  0
 21 22  1  0  0  0
  4  5  2  0  0  0
 25 24  1  0  0  0
 25 26  2  0  0  0
 25 27  1  0  0  0
 25 29  1  0  0  0
 22 20  1  0  0  0
  3  5  1  0  0  0
  3  2  1  0  0  0
 20 19  1  0  0  0
 24 23  1  0  0  0
 19 18  1  0  0  0
 18 17  1  0  0  0
 27 28  1  0  0  0
 17 16  1  0  0  0
 29 30  1  0  0  0
 16 15  1  0  0  0
 34 35  1  0  0  0
 34 36  1  0  0  0
 15 14  1  0  0  0
 31 32  1  0  0  0
 31 33  1  0  0  0
 14 13  1  0  0  0
 37  1  1  0  0  0
 37 39  1  0  0  0
 13 12  1  0  0  0
 38 39  2  0  0  0
 12 11  1  0  0  0
 11 10  1  0  0  0
 10  9  1  0  0  0
  9  8  1  0  0  0
  8  7  1  0  0  0
  7  6  1  0  0  0
  6  5  1  0  0  0
  2  1  1  0  0  0
  1 23  1  0  0  0
 30 32  1  0  0  0
 32 35  1  0  0  0
 39 40  1  0  0  0
 40 41  1  0  0  0
 41 42  1  0  0  0
 42 43  1  0  0  0
 43 44  1  0  0  0
 44 45  1  0  0  0
 45 46  1  0  0  0
 46 47  1  0  0  0
 47 48  2  0  0  0
 48 49  1  0  0  0
 49 50  1  0  0  0
 50 51  1  0  0  0
 51 52  1  0  0  0
 52 53  1  0  0  0
 53 54  1  0  0  0
 54 55  1  0  0  0
 55 56  1  0  0  0
M  CHG 1  26  -1
M  END
> <minimizedAffinity>
-9.21060

> <CNNscore>
0.3468189836

> <CNNaffinity>
7.2956075668

> <CNN_VS>
2.5302553177

> <CNNaffinity_variance>
1.1852972507

$$$$
/media/chris/experiments/cd1a-new-docking/inputs/ligands/7sh4_ligand.pdb


 56 55  0  0  0  0  0  0  0  0999 V2000
  -40.5164   59.7608   64.9571 C   0  0  0  0  0  0  0  0  0  0  0  0
  -41.5640   59.0561   65.7716 C   0  0  0  0  0  0  0  0  0  0  0  0
  -41.5918   57.7207   65.2246 O   0  0  0  0  0  0  0  0  0  0  0  0
  -42.9900   56.0512   64.7177 O   0  0  0  0  0  0  0  0  0  0  0  0
  -42.7882   57.2187   64.9170 C   0  0  0  0  0  0  0  0  0  0  0  0
  -43.8524   58.2763   64.9780 C   0  0  0  0  0  0  0  0  0  0  0  0
  -45.1543   57.8111   65.6081 C   0  0  0  0  0  0  0  0  0  0  0  0
  -46.0329   58.9604   66.0548 C   0  0  0  0  0  0  0  0  0  0  0  0
  -46.3455   59.9608   64.9652 C   0  0  0  0  0  0  0  0  0  0  0  0
  -47.7928   60.4098   64.9693 C   0  0  0  0  0  0  0  0  0  0  0  0
  -48.5898   59.8348   66.1147 C   0  0  0  0  0  0  0  0  0  0  0  0
  -49.9535   59.3507   65.6980 C   0  0  0  0  0  0  0  0  0  0  0  0
  -50.6694   60.3028   64.7657 C   0  0  0  0  0  0  0  0  0  0  0  0
  -51.1776   59.6219   63.5109 C   0  0  0  0  0  0  0  0  0  0  0  0
  -50.4860   58.3123   63.1952 C   0  0  0  0  0  0  0  0  0  0  0  0
  -49.3239   58.4492   62.2181 C   0  0  0  0  0  0  0  0  0  0  0  0
  -49.3310   59.7448   61.4296 C   0  0  0  0  0  0  0  0  0  0  0  0
  -49.6743   59.5571   59.9662 C   0  0  0  0  0  0  0  0  0  0  0  0
  -49.8752   58.1014   59.5682 C   0  0  0  0  0  0  0  0  0  0  0  0
  -48.6752   57.4927   58.8647 C   0  0  0  0  0  0  0  0  0  0  0  0
  -47.0954   57.9415   56.9572 C   0  0  0  0  0  0  0  0  0  0  0  0
  -47.7518   58.4965   58.2009 C   0  0  0  0  0  0  0  0  0  0  0  0
  -39.2412   59.9692   65.7331 C   0  0  0  0  0  0  0  0  0  0  0  0
  -38.8304   61.3474   65.5913 O   0  0  0  0  0  0  0  0  0  0  0  0
  -37.4103   61.7714   64.9868 P   0  0  0  0  0  0  0  0  0  0  0  0
  -36.3746   60.9198   65.6101 O   0  0  0  0  0  0  0  0  0  0  0  0
  -37.5243   61.7878   63.5085 O   0  0  0  0  0  0  0  0  0  0  0  0
  -37.6693   60.8847   63.1854 H   0  0  0  0  0  0  0  0  0  0  0  0
  -37.1734   63.2705   65.4766 O   0  0  0  0  0  0  0  0  0  0  0  0
  -35.9602   63.9631   65.1186 C   0  0  0  0  0  0  0  0  0  0  0  0
  -36.0462   64.0822   67.5105 O   0  0  0  0  0  0  0  0  0  0  0  0
  -35.1832   64.2453   66.3810 C   0  0  0  0  0  0  0  0  0  0  0  0
  -36.8215   64.6566   67.4106 H   0  0  0  0  0  0  0  0  0  0  0  0
  -33.4765   63.3860   67.8531 O   0  0  0  0  0  0  0  0  0  0  0  0
  -33.9699   63.3576   66.5199 C   0  0  0  0  0  0  0  0  0  0  0  0
  -32.6985   62.8108   67.9224 H   0  0  0  0  0  0  0  0  0  0  0  0
  -41.0764   61.0308   64.4844 O   0  0  0  0  0  0  0  0  0  0  0  0
  -43.0134   61.4066   63.4040 O   0  0  0  0  0  0  0  0  0  0  0  0
  -41.8919   60.9777   63.4137 C   0  0  0  0  0  0  0  0  0  0  0  0
  -41.2275   60.3377   62.2343 C   0  0  0  0  0  0  0  0  0  0  0  0
  -41.4319   61.1579   60.9646 C   0  0  0  0  0  0  0  0  0  0  0  0
  -41.1107   60.4032   59.6850 C   0  0  0  0  0  0  0  0  0  0  0  0
  -41.1209   58.8880   59.8519 C   0  0  0  0  0  0  0  0  0  0  0  0
  -39.9860   58.1807   59.1349 C   0  0  0  0  0  0  0  0  0  0  0  0
  -38.6507   58.9300   59.1619 C   0  0  0  0  0  0  0  0  0  0  0  0
  -37.7978   58.6966   60.4107 C   0  0  0  0  0  0  0  0  0  0  0  0
  -38.3512   57.6050   61.2768 C   0  0  0  0  0  0  0  0  0  0  0  0
  -37.9989   57.3294   62.5175 C   0  0  0  0  0  0  0  0  0  0  0  0
  -36.9684   58.0544   63.3243 C   0  0  0  0  0  0  0  0  0  0  0  0
  -35.5521   57.8175   62.8078 C   0  0  0  0  0  0  0  0  0  0  0  0
  -34.4749   58.4515   63.6703 C   0  0  0  0  0  0  0  0  0  0  0  0
  -33.0832   58.3676   63.0676 C   0  0  0  0  0  0  0  0  0  0  0  0
  -32.1746   59.5347   63.4162 C   0  0  0  0  0  0  0  0  0  0  0  0
  -31.3321   60.0172   62.2452 C   0  0  0  0  0  0  0  0  0  0  0  0
  -31.5905   61.4560   61.8439 C   0  0  0  0  0  0  0  0  0  0  0  0
  -32.5578   62.1507   62.7612 C   0  0  0  0  0  0  0  0  0  0  0  0
 21 22  1  0  0  0
  4  5  2  0  0  0
 25 24  1  0  0  0
 25 26  2  0  0  0
 25 27  1  0  0  0
 25 29  1  0  0  0
 22 20  1  0  0  0
  3  5  1  0  0  0
  3  2  1  0  0  0
 20 19  1  0  0  0
 24 23  1  0  0  0
 19 18  1  0  0  0
 18 17  1  0  0  0
 27 28  1  0  0  0
 17 16  1  0  0  0
 29 30  1  0  0  0
 16 15  1  0  0  0
 34 35  1  0  0  0
 34 36  1  0  0  0
 15 14  1  0  0  0
 31 32  1  0  0  0
 31 33  1  0  0  0
 14 13  1  0  0  0
 37  1  1  0  0  0
 37 39  1  0  0  0
 13 12  1  0  0  0
 38 39  2  0  0  0
 12 11  1  0  0  0
 11 10  1  0  0  0
 10  9  1  0  0  0
  9  8  1  0  0  0
  8  7  1  0  0  0
  7  6  1  0  0  0
  6  5  1  0  0  0
  2  1  1  0  0  0
  1 23  1  0  0  0
 30 32  1  0  0  0
 32 35  1  0  0  0
 39 40  1  0  0  0
 40 41  1  0  0  0
 41 42  1  0  0  0
 42 43  1  0  0  0
 43 44  1  0  0  0
 44 45  1  0  0  0
 45 46  1  0  0  0
 46 47  1  0  0  0
 47 48  2  0  0  0
 48 49  1  0  0  0
 49 50  1  0  0  0
 50 51  1  0  0  0
 51 52  1  0  0  0
 52 53  1  0  0  0
 53 54  1  0  0  0
 54 55  1  0  0  0
 55 56  1  0  0  0
M  CHG 1  26  -1
M  END
> <minimizedAffinity>
-8.85633

> <CNNscore>
0.3259204328

> <CNNaffinity>
7.2307562828

> <CNN_VS>
2.3566513062

> <CNNaffinity_variance>
1.4305562973

$$$$
/media/chris/experiments/cd1a-new-docking/inputs/ligands/7sh4_ligand.pdb


 56 55  0  0  0  0  0  0  0  0999 V2000
  -40.2798   59.8120   65.2286 C   0  0  0  0  0  0  0  0  0  0  0  0
  -40.6041   60.5511   63.9612 C   0  0  0  0  0  0  0  0  0  0  0  0
  -41.7826   61.3149   64.2942 O   0  0  0  0  0  0  0  0  0  0  0  0
  -42.9085   61.7343   62.4086 O   0  0  0  0  0  0  0  0  0  0  0  0
  -42.8309   61.1943   63.4790 C   0  0  0  0  0  0  0  0  0  0  0  0
  -43.8264   60.2077   64.0178 C   0  0  0  0  0  0  0  0  0  0  0  0
  -44.8604   60.8157   64.9503 C   0  0  0  0  0  0  0  0  0  0  0  0
  -46.2820   60.5035   64.5329 C   0  0  0  0  0  0  0  0  0  0  0  0
  -46.5913   59.0262   64.4450 C   0  0  0  0  0  0  0  0  0  0  0  0
  -47.7403   58.6063   65.3391 C   0  0  0  0  0  0  0  0  0  0  0  0
  -48.1067   59.6506   66.3653 C   0  0  0  0  0  0  0  0  0  0  0  0
  -49.5515   60.0683   66.2897 C   0  0  0  0  0  0  0  0  0  0  0  0
  -50.3714   59.2241   65.3393 C   0  0  0  0  0  0  0  0  0  0  0  0
  -51.0905   60.0516   64.2931 C   0  0  0  0  0  0  0  0  0  0  0  0
  -51.0820   59.4395   62.9080 C   0  0  0  0  0  0  0  0  0  0  0  0
  -50.1772   58.2193   62.7793 C   0  0  0  0  0  0  0  0  0  0  0  0
  -49.2270   58.2786   61.5987 C   0  0  0  0  0  0  0  0  0  0  0  0
  -49.5679   57.2916   60.5013 C   0  0  0  0  0  0  0  0  0  0  0  0
  -49.9564   57.9518   59.1857 C   0  0  0  0  0  0  0  0  0  0  0  0
  -49.0469   57.5812   58.0278 C   0  0  0  0  0  0  0  0  0  0  0  0
  -46.8311   58.3500   57.1140 C   0  0  0  0  0  0  0  0  0  0  0  0
  -47.5660   57.7663   58.2993 C   0  0  0  0  0  0  0  0  0  0  0  0
  -39.1629   60.4699   65.9977 C   0  0  0  0  0  0  0  0  0  0  0  0
  -38.7593   61.6681   65.2980 O   0  0  0  0  0  0  0  0  0  0  0  0
  -37.2312   61.9999   64.9563 P   0  0  0  0  0  0  0  0  0  0  0  0
  -36.3816   61.0028   65.6422 O   0  0  0  0  0  0  0  0  0  0  0  0
  -37.1089   62.1491   63.4861 O   0  0  0  0  0  0  0  0  0  0  0  0
  -37.2762   61.2942   63.0593 H   0  0  0  0  0  0  0  0  0  0  0  0
  -36.9498   63.4232   65.6182 O   0  0  0  0  0  0  0  0  0  0  0  0
  -35.6535   64.0398   65.4793 C   0  0  0  0  0  0  0  0  0  0  0  0
  -35.3848   63.1544   67.6898 O   0  0  0  0  0  0  0  0  0  0  0  0
  -35.0913   64.2813   66.8586 C   0  0  0  0  0  0  0  0  0  0  0  0
  -36.3422   62.9985   67.6968 H   0  0  0  0  0  0  0  0  0  0  0  0
  -33.2530   65.5415   67.7812 O   0  0  0  0  0  0  0  0  0  0  0  0
  -33.6037   64.5387   66.8361 C   0  0  0  0  0  0  0  0  0  0  0  0
  -32.2953   65.6926   67.7519 H   0  0  0  0  0  0  0  0  0  0  0  0
  -39.9557   58.4243   64.8836 O   0  0  0  0  0  0  0  0  0  0  0  0
  -42.0178   57.5760   65.1814 O   0  0  0  0  0  0  0  0  0  0  0  0
  -40.9866   57.6169   64.5677 C   0  0  0  0  0  0  0  0  0  0  0  0
  -40.7000   56.7918   63.3515 C   0  0  0  0  0  0  0  0  0  0  0  0
  -41.7972   56.9426   62.3027 C   0  0  0  0  0  0  0  0  0  0  0  0
  -41.7227   58.2404   61.5151 C   0  0  0  0  0  0  0  0  0  0  0  0
  -41.4493   58.0371   60.0293 C   0  0  0  0  0  0  0  0  0  0  0  0
  -40.0442   57.5544   59.7209 C   0  0  0  0  0  0  0  0  0  0  0  0
  -39.1837   58.5545   58.9434 C   0  0  0  0  0  0  0  0  0  0  0  0
  -37.8906   58.9819   59.6411 C   0  0  0  0  0  0  0  0  0  0  0  0
  -38.1409   59.5036   61.0243 C   0  0  0  0  0  0  0  0  0  0  0  0
  -37.7997   58.9232   62.1584 C   0  0  0  0  0  0  0  0  0  0  0  0
  -37.0860   57.6161   62.3013 C   0  0  0  0  0  0  0  0  0  0  0  0
  -35.6136   57.7929   62.6608 C   0  0  0  0  0  0  0  0  0  0  0  0
  -35.3745   58.0621   64.1361 C   0  0  0  0  0  0  0  0  0  0  0  0
  -34.0946   58.8306   64.4163 C   0  0  0  0  0  0  0  0  0  0  0  0
  -32.8403   58.1971   63.8378 C   0  0  0  0  0  0  0  0  0  0  0  0
  -31.8794   59.2053   63.2262 C   0  0  0  0  0  0  0  0  0  0  0  0
  -32.5050   60.1048   62.1787 C   0  0  0  0  0  0  0  0  0  0  0  0
  -32.3850   61.5641   62.5187 C   0  0  0  0  0  0  0  0  0  0  0  0
 21 22  1  0  0  0
  4  5  2  0  0  0
 25 24  1  0  0  0
 25 26  2  0  0  0
 25 27  1  0  0  0
 25 29  1  0  0  0
 22 20  1  0  0  0
  3  5  1  0  0  0
  3  2  1  0  0  0
 20 19  1  0  0  0
 24 23  1  0  0  0
 19 18  1  0  0  0
 18 17  1  0  0  0
 27 28  1  0  0  0
 17 16  1  0  0  0
 29 30  1  0  0  0
 16 15  1  0  0  0
 34 35  1  0  0  0
 34 36  1  0  0  0
 15 14  1  0  0  0
 31 32  1  0  0  0
 31 33  1  0  0  0
 14 13  1  0  0  0
 37  1  1  0  0  0
 37 39  1  0  0  0
 13 12  1  0  0  0
 38 39  2  0  0  0
 12 11  1  0  0  0
 11 10  1  0  0  0
 10  9  1  0  0  0
  9  8  1  0  0  0
  8  7  1  0  0  0
  7  6  1  0  0  0
  6  5  1  0  0  0
  2  1  1  0  0  0
  1 23  1  0  0  0
 30 32  1  0  0  0
 32 35  1  0  0  0
 39 40  1  0  0  0
 40 41  1  0  0  0
 41 42  1  0  0  0
 42 43  1  0  0  0
 43 44  1  0  0  0
 44 45  1  0  0  0
 45 46  1  0  0  0
 46 47  1  0  0  0
 47 48  2  0  0  0
 48 49  1  0  0  0
 49 50  1  0  0  0
 50 51  1  0  0  0
 51 52  1  0  0  0
 52 53  1  0  0  0
 53 54  1  0  0  0
 54 55  1  0  0  0
 55 56  1  0  0  0
M  CHG 1  26  -1
M  END
> <minimizedAffinity>
-8.55179

> <CNNscore>
0.3228309751

> <CNNaffinity>
7.2717847824

> <CNN_VS>
2.3475573063

> <CNNaffinity_variance>
1.0590684414

$$$$
