/media/chris/experiments/cd1a-new-docking/inputs/ligands/7sh4_ligand.pdb


 56 55  0  0  0  0  0  0  0  0999 V2000
  -39.2016   61.0888   64.6320 C   0  0  0  0  0  0  0  0  0  0  0  0
  -39.6896   60.6417   63.2831 C   0  0  0  0  0  0  0  0  0  0  0  0
  -40.7364   61.5818   62.9612 O   0  0  0  0  0  0  0  0  0  0  0  0
  -41.7027   61.1553   60.9906 O   0  0  0  0  0  0  0  0  0  0  0  0
  -41.7309   61.1384   62.1916 C   0  0  0  0  0  0  0  0  0  0  0  0
  -42.8167   60.5098   63.0166 C   0  0  0  0  0  0  0  0  0  0  0  0
  -43.6934   61.5085   63.7530 C   0  0  0  0  0  0  0  0  0  0  0  0
  -44.6593   60.8452   64.7121 C   0  0  0  0  0  0  0  0  0  0  0  0
  -44.9127   59.3830   64.4234 C   0  0  0  0  0  0  0  0  0  0  0  0
  -45.7162   58.6946   65.5082 C   0  0  0  0  0  0  0  0  0  0  0  0
  -46.4264   59.6604   66.4248 C   0  0  0  0  0  0  0  0  0  0  0  0
  -47.9150   59.6981   66.2004 C   0  0  0  0  0  0  0  0  0  0  0  0
  -48.4137   58.5944   65.2941 C   0  0  0  0  0  0  0  0  0  0  0  0
  -48.9299   59.1147   63.9678 C   0  0  0  0  0  0  0  0  0  0  0  0
  -50.4180   58.9198   63.7646 C   0  0  0  0  0  0  0  0  0  0  0  0
  -50.7956   58.4908   62.3513 C   0  0  0  0  0  0  0  0  0  0  0  0
  -49.6085   58.1310   61.4787 C   0  0  0  0  0  0  0  0  0  0  0  0
  -49.5191   58.9586   60.2128 C   0  0  0  0  0  0  0  0  0  0  0  0
  -49.8551   58.1790   58.9491 C   0  0  0  0  0  0  0  0  0  0  0  0
  -48.8030   57.1517   58.5711 C   0  0  0  0  0  0  0  0  0  0  0  0
  -47.0616   58.2494   57.1224 C   0  0  0  0  0  0  0  0  0  0  0  0
  -47.3881   57.6927   58.4897 C   0  0  0  0  0  0  0  0  0  0  0  0
  -37.7003   61.2132   64.6783 C   0  0  0  0  0  0  0  0  0  0  0  0
  -37.3495   62.6151   64.6831 O   0  0  0  0  0  0  0  0  0  0  0  0
  -36.1231   63.1995   65.5293 P   0  0  0  0  0  0  0  0  0  0  0  0
  -36.6708   64.0956   66.5703 O   0  0  0  0  0  0  0  0  0  0  0  0
  -35.2668   62.0631   65.9462 O   0  0  0  0  0  0  0  0  0  0  0  0
  -35.7533   61.5043   66.5723 H   0  0  0  0  0  0  0  0  0  0  0  0
  -35.2889   64.0909   64.5035 O   0  0  0  0  0  0  0  0  0  0  0  0
  -33.9052   63.7817   64.2385 C   0  0  0  0  0  0  0  0  0  0  0  0
  -34.1408   65.4901   62.5747 O   0  0  0  0  0  0  0  0  0  0  0  0
  -33.2658   64.9831   63.5867 C   0  0  0  0  0  0  0  0  0  0  0  0
  -34.3461   64.7845   61.9415 H   0  0  0  0  0  0  0  0  0  0  0  0
  -33.1532   65.6153   65.9118 O   0  0  0  0  0  0  0  0  0  0  0  0
  -32.9355   66.0694   64.5820 C   0  0  0  0  0  0  0  0  0  0  0  0
  -32.9360   66.3256   66.5356 H   0  0  0  0  0  0  0  0  0  0  0  0
  -39.6983   60.1453   65.6385 O   0  0  0  0  0  0  0  0  0  0  0  0
  -41.2692   61.5136   66.4872 O   0  0  0  0  0  0  0  0  0  0  0  0
  -40.9004   60.4117   66.1846 C   0  0  0  0  0  0  0  0  0  0  0  0
  -41.7268   59.1744   66.3514 C   0  0  0  0  0  0  0  0  0  0  0  0
  -41.2632   58.0623   65.4159 C   0  0  0  0  0  0  0  0  0  0  0  0
  -42.3360   57.0318   65.1042 C   0  0  0  0  0  0  0  0  0  0  0  0
  -42.1061   56.2899   63.7926 C   0  0  0  0  0  0  0  0  0  0  0  0
  -41.1201   56.9720   62.8625 C   0  0  0  0  0  0  0  0  0  0  0  0
  -41.3165   56.6490   61.3786 C   0  0  0  0  0  0  0  0  0  0  0  0
  -41.4145   57.8648   60.4546 C   0  0  0  0  0  0  0  0  0  0  0  0
  -40.4832   57.7613   59.2841 C   0  0  0  0  0  0  0  0  0  0  0  0
  -39.3086   58.3477   59.1581 C   0  0  0  0  0  0  0  0  0  0  0  0
  -38.6564   59.2424   60.1643 C   0  0  0  0  0  0  0  0  0  0  0  0
  -37.4861   58.5664   60.8727 C   0  0  0  0  0  0  0  0  0  0  0  0
  -37.9113   57.5573   61.9249 C   0  0  0  0  0  0  0  0  0  0  0  0
  -37.1530   57.6858   63.2347 C   0  0  0  0  0  0  0  0  0  0  0  0
  -35.6819   58.0337   63.0793 C   0  0  0  0  0  0  0  0  0  0  0  0
  -35.0312   58.5051   64.3708 C   0  0  0  0  0  0  0  0  0  0  0  0
  -33.7232   59.2454   64.1742 C   0  0  0  0  0  0  0  0  0  0  0  0
  -33.0765   58.9423   62.8514 C   0  0  0  0  0  0  0  0  0  0  0  0
 21 22  1  0  0  0
  4  5  2  0  0  0
 25 24  1  0  0  0
 25 26  2  0  0  0
 25 27  1  0  0  0
 25 29  1  0  0  0
 22 20  1  0  0  0
  3  5  1  0  0  0
  3  2  1  0  0  0
 20 19  1  0  0  0
 24 23  1  0  0  0
 19 18  1  0  0  0
 18 17  1  0  0  0
 27 28  1  0  0  0
 17 16  1  0  0  0
 29 30  1  0  0  0
 16 15  1  0  0  0
 34 35  1  0  0  0
 34 36  1  0  0  0
 15 14  1  0  0  0
 31 32  1  0  0  0
 31 33  1  0  0  0
 14 13  1  0  0  0
 37  1  1  0  0  0
 37 39  1  0  0  0
 13 12  1  0  0  0
 38 39  2  0  0  0
 12 11  1  0  0  0
 11 10  1  0  0  0
 10  9  1  0  0  0
  9  8  1  0  0  0
  8  7  1  0  0  0
  7  6  1  0  0  0
  6  5  1  0  0  0
  2  1  1  0  0  0
  1 23  1  0  0  0
 30 32  1  0  0  0
 32 35  1  0  0  0
 39 40  1  0  0  0
 40 41  1  0  0  0
 41 42  1  0  0  0
 42 43  1  0  0  0
 43 44  1  0  0  0
 44 45  1  0  0  0
 45 46  1  0  0  0
 46 47  1  0  0  0
 47 48  2  0  0  0
 48 49  1  0  0  0
 49 50  1  0  0  0
 50 51  1  0  0  0
 51 52  1  0  0  0
 52 53  1  0  0  0
 53 54  1  0  0  0
 54 55  1  0  0  0
 55 56  1  0  0  0
M  CHG 1  26  -1
M  END
> <minimizedAffinity>
-8.20669

> <CNNscore>
0.5286211371

> <CNNaffinity>
7.6827039719

> <CNN_VS>
4.0612397194

> <CNNaffinity_variance>
1.1441011429

$$$$
/media/chris/experiments/cd1a-new-docking/inputs/ligands/7sh4_ligand.pdb


 56 55  0  0  0  0  0  0  0  0999 V2000
  -38.3882   60.8611   65.7076 C   0  0  0  0  0  0  0  0  0  0  0  0
  -39.7752   60.3561   65.4266 C   0  0  0  0  0  0  0  0  0  0  0  0
  -40.6142   61.1299   66.3101 O   0  0  0  0  0  0  0  0  0  0  0  0
  -42.6186   61.9652   65.7777 O   0  0  0  0  0  0  0  0  0  0  0  0
  -41.9314   61.0421   66.1230 C   0  0  0  0  0  0  0  0  0  0  0  0
  -42.4083   59.6266   66.2771 C   0  0  0  0  0  0  0  0  0  0  0  0
  -43.9165   59.4668   66.1888 C   0  0  0  0  0  0  0  0  0  0  0  0
  -44.3504   58.0171   66.1352 C   0  0  0  0  0  0  0  0  0  0  0  0
  -45.8320   57.8058   66.3494 C   0  0  0  0  0  0  0  0  0  0  0  0
  -46.6186   59.1007   66.3740 C   0  0  0  0  0  0  0  0  0  0  0  0
  -47.7847   59.1055   65.4160 C   0  0  0  0  0  0  0  0  0  0  0  0
  -48.9681   59.8798   65.9335 C   0  0  0  0  0  0  0  0  0  0  0  0
  -50.2986   59.2872   65.5249 C   0  0  0  0  0  0  0  0  0  0  0  0
  -51.0567   60.1666   64.5512 C   0  0  0  0  0  0  0  0  0  0  0  0
  -50.7637   59.8716   63.0950 C   0  0  0  0  0  0  0  0  0  0  0  0
  -50.8340   58.3906   62.7404 C   0  0  0  0  0  0  0  0  0  0  0  0
  -50.8003   58.1116   61.2500 C   0  0  0  0  0  0  0  0  0  0  0  0
  -49.7952   57.0474   60.8593 C   0  0  0  0  0  0  0  0  0  0  0  0
  -48.4793   57.6116   60.3420 C   0  0  0  0  0  0  0  0  0  0  0  0
  -48.6059   58.3212   59.0058 C   0  0  0  0  0  0  0  0  0  0  0  0
  -46.9371   58.4399   57.1249 C   0  0  0  0  0  0  0  0  0  0  0  0
  -47.9676   57.5936   57.8377 C   0  0  0  0  0  0  0  0  0  0  0  0
  -37.8480   61.6933   64.5730 C   0  0  0  0  0  0  0  0  0  0  0  0
  -36.4278   61.8779   64.7667 O   0  0  0  0  0  0  0  0  0  0  0  0
  -35.7789   63.2952   65.1301 P   0  0  0  0  0  0  0  0  0  0  0  0
  -35.8998   64.1715   63.9450 O   0  0  0  0  0  0  0  0  0  0  0  0
  -36.3586   63.7523   66.4160 O   0  0  0  0  0  0  0  0  0  0  0  0
  -37.3033   63.9377   66.2971 H   0  0  0  0  0  0  0  0  0  0  0  0
  -34.2297   63.0019   65.3678 O   0  0  0  0  0  0  0  0  0  0  0  0
  -33.2332   63.7861   64.6806 C   0  0  0  0  0  0  0  0  0  0  0  0
  -31.0187   64.5130   65.2374 O   0  0  0  0  0  0  0  0  0  0  0  0
  -32.3672   64.4653   65.7130 C   0  0  0  0  0  0  0  0  0  0  0  0
  -30.7179   63.6151   65.0273 H   0  0  0  0  0  0  0  0  0  0  0  0
  -32.3361   66.8027   65.1181 O   0  0  0  0  0  0  0  0  0  0  0  0
  -32.8522   65.8560   66.0451 C   0  0  0  0  0  0  0  0  0  0  0  0
  -32.6580   67.6884   65.3475 H   0  0  0  0  0  0  0  0  0  0  0  0
  -37.5266   59.7094   65.9926 O   0  0  0  0  0  0  0  0  0  0  0  0
  -38.8415   58.1437   65.0546 O   0  0  0  0  0  0  0  0  0  0  0  0
  -37.7492   58.5890   65.2789 C   0  0  0  0  0  0  0  0  0  0  0  0
  -36.4753   57.9771   64.7844 C   0  0  0  0  0  0  0  0  0  0  0  0
  -36.0674   58.5520   63.4316 C   0  0  0  0  0  0  0  0  0  0  0  0
  -36.4718   57.6888   62.2478 C   0  0  0  0  0  0  0  0  0  0  0  0
  -37.8326   58.0522   61.6648 C   0  0  0  0  0  0  0  0  0  0  0  0
  -38.1378   59.5384   61.6905 C   0  0  0  0  0  0  0  0  0  0  0  0
  -38.6694   60.1021   60.3696 C   0  0  0  0  0  0  0  0  0  0  0  0
  -39.0814   59.0546   59.3330 C   0  0  0  0  0  0  0  0  0  0  0  0
  -40.5710   58.9393   59.2078 C   0  0  0  0  0  0  0  0  0  0  0  0
  -41.3113   57.9003   59.5424 C   0  0  0  0  0  0  0  0  0  0  0  0
  -40.8154   56.6133   60.1220 C   0  0  0  0  0  0  0  0  0  0  0  0
  -41.6969   56.1096   61.2612 C   0  0  0  0  0  0  0  0  0  0  0  0
  -41.0681   56.2687   62.6343 C   0  0  0  0  0  0  0  0  0  0  0  0
  -41.8450   57.1911   63.5577 C   0  0  0  0  0  0  0  0  0  0  0  0
  -42.5873   58.3121   62.8492 C   0  0  0  0  0  0  0  0  0  0  0  0
  -41.7615   59.5794   62.6900 C   0  0  0  0  0  0  0  0  0  0  0  0
  -42.5841   60.8373   62.4929 C   0  0  0  0  0  0  0  0  0  0  0  0
  -42.1349   61.6461   61.3080 C   0  0  0  0  0  0  0  0  0  0  0  0
 21 22  1  0  0  0
  4  5  2  0  0  0
 25 24  1  0  0  0
 25 26  2  0  0  0
 25 27  1  0  0  0
 25 29  1  0  0  0
 22 20  1  0  0  0
  3  5  1  0  0  0
  3  2  1  0  0  0
 20 19  1  0  0  0
 24 23  1  0  0  0
 19 18  1  0  0  0
 18 17  1  0  0  0
 27 28  1  0  0  0
 17 16  1  0  0  0
 29 30  1  0  0  0
 16 15  1  0  0  0
 34 35  1  0  0  0
 34 36  1  0  0  0
 15 14  1  0  0  0
 31 32  1  0  0  0
 31 33  1  0  0  0
 14 13  1  0  0  0
 37  1  1  0  0  0
 37 39  1  0  0  0
 13 12  1  0  0  0
 38 39  2  0  0  0
 12 11  1  0  0  0
 11 10  1  0  0  0
 10  9  1  0  0  0
  9  8  1  0  0  0
  8  7  1  0  0  0
  7  6  1  0  0  0
  6  5  1  0  0  0
  2  1  1  0  0  0
  1 23  1  0  0  0
 30 32  1  0  0  0
 32 35  1  0  0  0
 39 40  1  0  0  0
 40 41  1  0  0  0
 41 42  1  0  0  0
 42 43  1  0  0  0
 43 44  1  0  0  0
 44 45  1  0  0  0
 45 46  1  0  0  0
 46 47  1  0  0  0
 47 48  2  0  0  0
 48 49  1  0  0  0
 49 50  1  0  0  0
 50 51  1  0  0  0
 51 52  1  0  0  0
 52 53  1  0  0  0
 53 54  1  0  0  0
 54 55  1  0  0  0
 55 56  1  0  0  0
M  CHG 1  26  -1
M  END
> <minimizedAffinity>
-8.22843

> <CNNscore>
0.4139993489

> <CNNaffinity>
7.5075621605

> <CNN_VS>
3.1081259251

> <CNNaffinity_variance>
1.0777879953

$$$$
/media/chris/experiments/cd1a-new-docking/inputs/ligands/7sh4_ligand.pdb


 56 55  0  0  0  0  0  0  0  0999 V2000
  -39.7418   60.1681   65.0138 C   0  0  0  0  0  0  0  0  0  0  0  0
  -40.1341   60.7157   63.6707 C   0  0  0  0  0  0  0  0  0  0  0  0
  -41.3495   61.4483   63.9337 O   0  0  0  0  0  0  0  0  0  0  0  0
  -42.2030   61.8694   61.9105 O   0  0  0  0  0  0  0  0  0  0  0  0
  -42.3051   61.3863   63.0058 C   0  0  0  0  0  0  0  0  0  0  0  0
  -43.4538   60.5356   63.4659 C   0  0  0  0  0  0  0  0  0  0  0  0
  -44.4316   61.2548   64.3796 C   0  0  0  0  0  0  0  0  0  0  0  0
  -45.0819   60.3298   65.3866 C   0  0  0  0  0  0  0  0  0  0  0  0
  -45.6776   59.0780   64.7833 C   0  0  0  0  0  0  0  0  0  0  0  0
  -47.1203   59.2545   64.3548 C   0  0  0  0  0  0  0  0  0  0  0  0
  -48.0839   58.4081   65.1501 C   0  0  0  0  0  0  0  0  0  0  0  0
  -49.2372   59.1980   65.7101 C   0  0  0  0  0  0  0  0  0  0  0  0
  -49.6235   60.3847   64.8551 C   0  0  0  0  0  0  0  0  0  0  0  0
  -51.0797   60.3555   64.4372 C   0  0  0  0  0  0  0  0  0  0  0  0
  -51.3062   59.8726   63.0198 C   0  0  0  0  0  0  0  0  0  0  0  0
  -50.0861   60.0178   62.1173 C   0  0  0  0  0  0  0  0  0  0  0  0
  -49.6256   58.7161   61.4897 C   0  0  0  0  0  0  0  0  0  0  0  0
  -49.9435   58.6147   60.0119 C   0  0  0  0  0  0  0  0  0  0  0  0
  -48.7090   58.6113   59.1211 C   0  0  0  0  0  0  0  0  0  0  0  0
  -47.8337   57.3838   59.3002 C   0  0  0  0  0  0  0  0  0  0  0  0
  -46.9160   58.1474   57.0842 C   0  0  0  0  0  0  0  0  0  0  0  0
  -46.9928   57.0218   58.0907 C   0  0  0  0  0  0  0  0  0  0  0  0
  -38.3053   60.4737   65.3523 C   0  0  0  0  0  0  0  0  0  0  0  0
  -38.1382   61.9076   65.4195 O   0  0  0  0  0  0  0  0  0  0  0  0
  -36.7450   62.6338   65.1139 P   0  0  0  0  0  0  0  0  0  0  0  0
  -36.6664   63.8467   65.9563 O   0  0  0  0  0  0  0  0  0  0  0  0
  -35.6650   61.6231   65.2179 O   0  0  0  0  0  0  0  0  0  0  0  0
  -35.5897   61.3239   66.1375 H   0  0  0  0  0  0  0  0  0  0  0  0
  -36.8360   63.0985   63.5913 O   0  0  0  0  0  0  0  0  0  0  0  0
  -36.4093   64.4237   63.2147 C   0  0  0  0  0  0  0  0  0  0  0  0
  -36.2004   65.5596   61.1151 O   0  0  0  0  0  0  0  0  0  0  0  0
  -35.8477   64.3629   61.8154 C   0  0  0  0  0  0  0  0  0  0  0  0
  -37.1639   65.6701   61.1282 H   0  0  0  0  0  0  0  0  0  0  0  0
  -34.0017   62.8846   62.2897 O   0  0  0  0  0  0  0  0  0  0  0  0
  -34.3496   64.1752   61.8048 C   0  0  0  0  0  0  0  0  0  0  0  0
  -33.0372   62.7830   62.2754 H   0  0  0  0  0  0  0  0  0  0  0  0
  -40.0043   58.7255   65.0185 O   0  0  0  0  0  0  0  0  0  0  0  0
  -41.9497   58.7698   66.1470 O   0  0  0  0  0  0  0  0  0  0  0  0
  -41.2716   58.3362   65.2559 C   0  0  0  0  0  0  0  0  0  0  0  0
  -41.7387   57.3140   64.2666 C   0  0  0  0  0  0  0  0  0  0  0  0
  -40.6523   56.9853   63.2475 C   0  0  0  0  0  0  0  0  0  0  0  0
  -41.1654   56.2690   62.0090 C   0  0  0  0  0  0  0  0  0  0  0  0
  -41.9498   57.1717   61.0637 C   0  0  0  0  0  0  0  0  0  0  0  0
  -41.3072   58.5261   60.8289 C   0  0  0  0  0  0  0  0  0  0  0  0
  -40.5815   58.6625   59.4874 C   0  0  0  0  0  0  0  0  0  0  0  0
  -39.3654   59.5913   59.4960 C   0  0  0  0  0  0  0  0  0  0  0  0
  -38.0735   58.8304   59.4978 C   0  0  0  0  0  0  0  0  0  0  0  0
  -37.3754   58.4666   60.5560 C   0  0  0  0  0  0  0  0  0  0  0  0
  -37.7308   58.7377   61.9838 C   0  0  0  0  0  0  0  0  0  0  0  0
  -37.0733   57.7516   62.9450 C   0  0  0  0  0  0  0  0  0  0  0  0
  -35.5632   57.8918   63.0232 C   0  0  0  0  0  0  0  0  0  0  0  0
  -35.0161   57.8154   64.4381 C   0  0  0  0  0  0  0  0  0  0  0  0
  -33.7317   58.5969   64.6597 C   0  0  0  0  0  0  0  0  0  0  0  0
  -32.7752   58.5376   63.4786 C   0  0  0  0  0  0  0  0  0  0  0  0
  -32.3680   59.8944   62.9391 C   0  0  0  0  0  0  0  0  0  0  0  0
  -30.9142   59.9577   62.5617 C   0  0  0  0  0  0  0  0  0  0  0  0
 21 22  1  0  0  0
  4  5  2  0  0  0
 25 24  1  0  0  0
 25 26  2  0  0  0
 25 27  1  0  0  0
 25 29  1  0  0  0
 22 20  1  0  0  0
  3  5  1  0  0  0
  3  2  1  0  0  0
 20 19  1  0  0  0
 24 23  1  0  0  0
 19 18  1  0  0  0
 18 17  1  0  0  0
 27 28  1  0  0  0
 17 16  1  0  0  0
 29 30  1  0  0  0
 16 15  1  0  0  0
 34 35  1  0  0  0
 34 36  1  0  0  0
 15 14  1  0  0  0
 31 32  1  0  0  0
 31 33  1  0  0  0
 14 13  1  0  0  0
 37  1  1  0  0  0
 37 39  1  0  0  0
 13 12  1  0  0  0
 38 39  2  0  0  0
 12 11  1  0  0  0
 11 10  1  0  0  0
 10  9  1  0  0  0
  9  8  1  0  0  0
  8  7  1  0  0  0
  7  6  1  0  0  0
  6  5  1  0  0  0
  2  1  1  0  0  0
  1 23  1  0  0  0
 30 32  1  0  0  0
 32 35  1  0  0  0
 39 40  1  0  0  0
 40 41  1  0  0  0
 41 42  1  0  0  0
 42 43  1  0  0  0
 43 44  1  0  0  0
 44 45  1  0  0  0
 45 46  1  0  0  0
 46 47  1  0  0  0
 47 48  2  0  0  0
 48 49  1  0  0  0
 49 50  1  0  0  0
 50 51  1  0  0  0
 51 52  1  0  0  0
 52 53  1  0  0  0
 53 54  1  0  0  0
 54 55  1  0  0  0
 55 56  1  0  0  0
M  CHG 1  26  -1
M  END
> <minimizedAffinity>
-8.51288

> <CNNscore>
0.4121250212

> <CNNaffinity>
7.5242629051

> <CNN_VS>
3.1009371281

> <CNNaffinity_variance>
1.3490327597

$$$$
/media/chris/experiments/cd1a-new-docking/inputs/ligands/7sh4_ligand.pdb


 56 55  0  0  0  0  0  0  0  0999 V2000
  -37.8697   61.0887   64.9798 C   0  0  0  0  0  0  0  0  0  0  0  0
  -39.3165   60.7840   65.2474 C   0  0  0  0  0  0  0  0  0  0  0  0
  -39.7823   60.1926   64.0160 O   0  0  0  0  0  0  0  0  0  0  0  0
  -41.6153   61.4215   63.6573 O   0  0  0  0  0  0  0  0  0  0  0  0
  -41.0726   60.3515   63.7197 C   0  0  0  0  0  0  0  0  0  0  0  0
  -41.7112   59.0418   63.3568 C   0  0  0  0  0  0  0  0  0  0  0  0
  -43.2302   59.0714   63.3557 C   0  0  0  0  0  0  0  0  0  0  0  0
  -43.8292   58.4714   64.6103 C   0  0  0  0  0  0  0  0  0  0  0  0
  -44.5026   59.4765   65.5168 C   0  0  0  0  0  0  0  0  0  0  0  0
  -45.4460   60.4037   64.7776 C   0  0  0  0  0  0  0  0  0  0  0  0
  -46.8918   60.2129   65.1659 C   0  0  0  0  0  0  0  0  0  0  0  0
  -47.7454   59.7149   64.0296 C   0  0  0  0  0  0  0  0  0  0  0  0
  -48.7946   60.7101   63.5858 C   0  0  0  0  0  0  0  0  0  0  0  0
  -50.1079   60.5438   64.3233 C   0  0  0  0  0  0  0  0  0  0  0  0
  -51.0722   59.5833   63.6592 C   0  0  0  0  0  0  0  0  0  0  0  0
  -50.7895   59.3517   62.1791 C   0  0  0  0  0  0  0  0  0  0  0  0
  -50.5416   57.8994   61.8191 C   0  0  0  0  0  0  0  0  0  0  0  0
  -50.0894   57.7031   60.3865 C   0  0  0  0  0  0  0  0  0  0  0  0
  -49.1857   56.4935   60.1923 C   0  0  0  0  0  0  0  0  0  0  0  0
  -48.0444   56.7374   59.2212 C   0  0  0  0  0  0  0  0  0  0  0  0
  -47.0814   58.1464   57.3709 C   0  0  0  0  0  0  0  0  0  0  0  0
  -48.1333   58.0418   58.4520 C   0  0  0  0  0  0  0  0  0  0  0  0
  -37.0643   61.1731   66.2511 C   0  0  0  0  0  0  0  0  0  0  0  0
  -35.9596   62.0810   66.0424 O   0  0  0  0  0  0  0  0  0  0  0  0
  -35.7140   63.3725   66.9554 P   0  0  0  0  0  0  0  0  0  0  0  0
  -36.4353   64.5094   66.3439 O   0  0  0  0  0  0  0  0  0  0  0  0
  -36.0177   63.0091   68.3605 O   0  0  0  0  0  0  0  0  0  0  0  0
  -36.9655   62.8224   68.4486 H   0  0  0  0  0  0  0  0  0  0  0  0
  -34.1509   63.6708   66.8534 O   0  0  0  0  0  0  0  0  0  0  0  0
  -33.6715   65.0304   66.8968 C   0  0  0  0  0  0  0  0  0  0  0  0
  -32.8941   66.6749   65.3368 O   0  0  0  0  0  0  0  0  0  0  0  0
  -32.8431   65.2823   65.6609 C   0  0  0  0  0  0  0  0  0  0  0  0
  -33.8186   66.9487   65.2311 H   0  0  0  0  0  0  0  0  0  0  0  0
  -30.7140   65.7111   66.7105 O   0  0  0  0  0  0  0  0  0  0  0  0
  -31.4098   64.8385   65.8293 C   0  0  0  0  0  0  0  0  0  0  0  0
  -29.7969   65.4103   66.8059 H   0  0  0  0  0  0  0  0  0  0  0  0
  -37.7952   62.3331   64.2079 O   0  0  0  0  0  0  0  0  0  0  0  0
  -37.3956   61.3125   62.2435 O   0  0  0  0  0  0  0  0  0  0  0  0
  -37.2598   62.2553   62.9744 C   0  0  0  0  0  0  0  0  0  0  0  0
  -36.4922   63.4904   62.6178 C   0  0  0  0  0  0  0  0  0  0  0  0
  -35.1249   63.5134   63.2936 C   0  0  0  0  0  0  0  0  0  0  0  0
  -34.2792   62.2814   63.0157 C   0  0  0  0  0  0  0  0  0  0  0  0
  -32.7898   62.4968   63.2587 C   0  0  0  0  0  0  0  0  0  0  0  0
  -31.9060   61.4097   62.6760 C   0  0  0  0  0  0  0  0  0  0  0  0
  -32.6461   60.1256   62.2908 C   0  0  0  0  0  0  0  0  0  0  0  0
  -32.3100   58.8995   63.1425 C   0  0  0  0  0  0  0  0  0  0  0  0
  -32.9184   58.9781   64.5106 C   0  0  0  0  0  0  0  0  0  0  0  0
  -34.2014   58.9041   64.8073 C   0  0  0  0  0  0  0  0  0  0  0  0
  -35.3233   58.7235   63.8341 C   0  0  0  0  0  0  0  0  0  0  0  0
  -36.3554   57.7086   64.3171 C   0  0  0  0  0  0  0  0  0  0  0  0
  -37.6284   57.6929   63.4891 C   0  0  0  0  0  0  0  0  0  0  0  0
  -37.3863   57.8284   61.9957 C   0  0  0  0  0  0  0  0  0  0  0  0
  -38.6419   57.7429   61.1439 C   0  0  0  0  0  0  0  0  0  0  0  0
  -38.5592   58.5543   59.8600 C   0  0  0  0  0  0  0  0  0  0  0  0
  -39.4137   59.8064   59.8593 C   0  0  0  0  0  0  0  0  0  0  0  0
  -40.8850   59.5062   59.7891 C   0  0  0  0  0  0  0  0  0  0  0  0
 21 22  1  0  0  0
  4  5  2  0  0  0
 25 24  1  0  0  0
 25 26  2  0  0  0
 25 27  1  0  0  0
 25 29  1  0  0  0
 22 20  1  0  0  0
  3  5  1  0  0  0
  3  2  1  0  0  0
 20 19  1  0  0  0
 24 23  1  0  0  0
 19 18  1  0  0  0
 18 17  1  0  0  0
 27 28  1  0  0  0
 17 16  1  0  0  0
 29 30  1  0  0  0
 16 15  1  0  0  0
 34 35  1  0  0  0
 34 36  1  0  0  0
 15 14  1  0  0  0
 31 32  1  0  0  0
 31 33  1  0  0  0
 14 13  1  0  0  0
 37  1  1  0  0  0
 37 39  1  0  0  0
 13 12  1  0  0  0
 38 39  2  0  0  0
 12 11  1  0  0  0
 11 10  1  0  0  0
 10  9  1  0  0  0
  9  8  1  0  0  0
  8  7  1  0  0  0
  7  6  1  0  0  0
  6  5  1  0  0  0
  2  1  1  0  0  0
  1 23  1  0  0  0
 30 32  1  0  0  0
 32 35  1  0  0  0
 39 40  1  0  0  0
 40 41  1  0  0  0
 41 42  1  0  0  0
 42 43  1  0  0  0
 43 44  1  0  0  0
 44 45  1  0  0  0
 45 46  1  0  0  0
 46 47  1  0  0  0
 47 48  2  0  0  0
 48 49  1  0  0  0
 49 50  1  0  0  0
 50 51  1  0  0  0
 51 52  1  0  0  0
 52 53  1  0  0  0
 53 54  1  0  0  0
 54 55  1  0  0  0
 55 56  1  0  0  0
M  CHG 1  26  -1
M  END
> <minimizedAffinity>
-8.19164

> <CNNscore>
0.4117014110

> <CNNaffinity>
7.1742143631

> <CNN_VS>
2.9536342621

> <CNNaffinity_variance>
0.6268414259

$$$$
/media/chris/experiments/cd1a-new-docking/inputs/ligands/7sh4_ligand.pdb


 56 55  0  0  0  0  0  0  0  0999 V2000
  -39.1075   60.4514   62.1225 C   0  0  0  0  0  0  0  0  0  0  0  0
  -40.4562   60.9428   61.6786 C   0  0  0  0  0  0  0  0  0  0  0  0
  -41.1960   61.0912   62.9090 O   0  0  0  0  0  0  0  0  0  0  0  0
  -42.9375   61.9257   61.7822 O   0  0  0  0  0  0  0  0  0  0  0  0
  -42.4105   61.6346   62.8219 C   0  0  0  0  0  0  0  0  0  0  0  0
  -43.0677   61.7133   64.1698 C   0  0  0  0  0  0  0  0  0  0  0  0
  -44.5697   61.4862   64.1419 C   0  0  0  0  0  0  0  0  0  0  0  0
  -44.9508   60.0490   64.4277 C   0  0  0  0  0  0  0  0  0  0  0  0
  -45.7170   59.8560   65.7166 C   0  0  0  0  0  0  0  0  0  0  0  0
  -46.7625   58.7627   65.6274 C   0  0  0  0  0  0  0  0  0  0  0  0
  -48.1630   59.2569   65.8956 C   0  0  0  0  0  0  0  0  0  0  0  0
  -48.3802   60.6792   65.4512 C   0  0  0  0  0  0  0  0  0  0  0  0
  -49.2121   60.7948   64.1931 C   0  0  0  0  0  0  0  0  0  0  0  0
  -50.6825   60.5212   64.4366 C   0  0  0  0  0  0  0  0  0  0  0  0
  -51.3930   59.8749   63.2657 C   0  0  0  0  0  0  0  0  0  0  0  0
  -50.4523   59.2296   62.2545 C   0  0  0  0  0  0  0  0  0  0  0  0
  -50.9511   57.9065   61.7059 C   0  0  0  0  0  0  0  0  0  0  0  0
  -50.2867   57.5054   60.4048 C   0  0  0  0  0  0  0  0  0  0  0  0
  -48.8273   57.9281   60.3092 C   0  0  0  0  0  0  0  0  0  0  0  0
  -48.4859   58.6453   59.0154 C   0  0  0  0  0  0  0  0  0  0  0  0
  -46.8772   58.2687   57.1163 C   0  0  0  0  0  0  0  0  0  0  0  0
  -48.0708   57.7346   57.8754 C   0  0  0  0  0  0  0  0  0  0  0  0
  -38.4792   61.3659   63.1426 C   0  0  0  0  0  0  0  0  0  0  0  0
  -37.5013   62.1990   62.4808 O   0  0  0  0  0  0  0  0  0  0  0  0
  -36.5229   63.1860   63.2748 P   0  0  0  0  0  0  0  0  0  0  0  0
  -35.1457   62.6613   63.1529 O   0  0  0  0  0  0  0  0  0  0  0  0
  -36.7998   64.5713   62.8246 O   0  0  0  0  0  0  0  0  0  0  0  0
  -36.5428   64.6664   61.8941 H   0  0  0  0  0  0  0  0  0  0  0  0
  -36.9582   63.0718   64.8045 O   0  0  0  0  0  0  0  0  0  0  0  0
  -36.0365   62.5423   65.7794 C   0  0  0  0  0  0  0  0  0  0  0  0
  -36.0019   63.2314   68.0742 O   0  0  0  0  0  0  0  0  0  0  0  0
  -35.6780   63.6461   66.7438 C   0  0  0  0  0  0  0  0  0  0  0  0
  -36.9392   62.9853   68.1171 H   0  0  0  0  0  0  0  0  0  0  0  0
  -33.4937   63.4955   67.7559 O   0  0  0  0  0  0  0  0  0  0  0  0
  -34.2210   64.0331   66.6587 C   0  0  0  0  0  0  0  0  0  0  0  0
  -32.5617   63.7544   67.6838 H   0  0  0  0  0  0  0  0  0  0  0  0
  -38.2588   60.2985   60.9366 O   0  0  0  0  0  0  0  0  0  0  0  0
  -37.5443   58.1781   61.1681 O   0  0  0  0  0  0  0  0  0  0  0  0
  -38.0406   59.0433   60.4996 C   0  0  0  0  0  0  0  0  0  0  0  0
  -38.5069   58.8517   59.0898 C   0  0  0  0  0  0  0  0  0  0  0  0
  -39.9934   58.5142   59.0337 C   0  0  0  0  0  0  0  0  0  0  0  0
  -40.3987   57.3634   59.9401 C   0  0  0  0  0  0  0  0  0  0  0  0
  -41.5960   57.6798   60.8289 C   0  0  0  0  0  0  0  0  0  0  0  0
  -41.5286   57.0434   62.2047 C   0  0  0  0  0  0  0  0  0  0  0  0
  -42.4838   57.6519   63.2353 C   0  0  0  0  0  0  0  0  0  0  0  0
  -42.1138   57.3954   64.6978 C   0  0  0  0  0  0  0  0  0  0  0  0
  -41.5257   58.6090   65.3529 C   0  0  0  0  0  0  0  0  0  0  0  0
  -40.2499   58.9404   65.3961 C   0  0  0  0  0  0  0  0  0  0  0  0
  -39.1171   58.1699   64.7948 C   0  0  0  0  0  0  0  0  0  0  0  0
  -37.7733   58.5222   65.4260 C   0  0  0  0  0  0  0  0  0  0  0  0
  -36.6860   57.4968   65.1567 C   0  0  0  0  0  0  0  0  0  0  0  0
  -35.8627   57.7926   63.9150 C   0  0  0  0  0  0  0  0  0  0  0  0
  -35.4569   59.2490   63.7607 C   0  0  0  0  0  0  0  0  0  0  0  0
  -34.2304   59.6258   64.5777 C   0  0  0  0  0  0  0  0  0  0  0  0
  -33.1519   58.5611   64.6079 C   0  0  0  0  0  0  0  0  0  0  0  0
  -32.1434   58.7235   63.5051 C   0  0  0  0  0  0  0  0  0  0  0  0
 21 22  1  0  0  0
  4  5  2  0  0  0
 25 24  1  0  0  0
 25 26  2  0  0  0
 25 27  1  0  0  0
 25 29  1  0  0  0
 22 20  1  0  0  0
  3  5  1  0  0  0
  3  2  1  0  0  0
 20 19  1  0  0  0
 24 23  1  0  0  0
 19 18  1  0  0  0
 18 17  1  0  0  0
 27 28  1  0  0  0
 17 16  1  0  0  0
 29 30  1  0  0  0
 16 15  1  0  0  0
 34 35  1  0  0  0
 34 36  1  0  0  0
 15 14  1  0  0  0
 31 32  1  0  0  0
 31 33  1  0  0  0
 14 13  1  0  0  0
 37  1  1  0  0  0
 37 39  1  0  0  0
 13 12  1  0  0  0
 38 39  2  0  0  0
 12 11  1  0  0  0
 11 10  1  0  0  0
 10  9  1  0  0  0
  9  8  1  0  0  0
  8  7  1  0  0  0
  7  6  1  0  0  0
  6  5  1  0  0  0
  2  1  1  0  0  0
  1 23  1  0  0  0
 30 32  1  0  0  0
 32 35  1  0  0  0
 39 40  1  0  0  0
 40 41  1  0  0  0
 41 42  1  0  0  0
 42 43  1  0  0  0
 43 44  1  0  0  0
 44 45  1  0  0  0
 45 46  1  0  0  0
 46 47  1  0  0  0
 47 48  2  0  0  0
 48 49  1  0  0  0
 49 50  1  0  0  0
 50 51  1  0  0  0
 51 52  1  0  0  0
 52 53  1  0  0  0
 53 54  1  0  0  0
 54 55  1  0  0  0
 55 56  1  0  0  0
M  CHG 1  26  -1
M  END
> <minimizedAffinity>
-9.00212

> <CNNscore>
0.3655498922

> <CNNaffinity>
7.3754348755

> <CNN_VS>
2.6960895061

> <CNNaffinity_variance>
1.3585973978

$$$$
/media/chris/experiments/cd1a-new-docking/inputs/ligands/7sh4_ligand.pdb


 56 55  0  0  0  0  0  0  0  0999 V2000
  -39.6230   60.7736   63.5401 C   0  0  0  0  0  0  0  0  0  0  0  0
  -39.3764   60.4558   64.9879 C   0  0  0  0  0  0  0  0  0  0  0  0
  -40.4885   61.0686   65.6741 O   0  0  0  0  0  0  0  0  0  0  0  0
  -42.1481   60.6381   67.1092 O   0  0  0  0  0  0  0  0  0  0  0  0
  -41.3128   60.2552   66.3352 C   0  0  0  0  0  0  0  0  0  0  0  0
  -41.1415   58.8311   65.8910 C   0  0  0  0  0  0  0  0  0  0  0  0
  -42.4101   57.9991   65.9717 C   0  0  0  0  0  0  0  0  0  0  0  0
  -42.4797   56.9309   64.9008 C   0  0  0  0  0  0  0  0  0  0  0  0
  -41.4882   57.1172   63.7748 C   0  0  0  0  0  0  0  0  0  0  0  0
  -41.4532   55.9452   62.8150 C   0  0  0  0  0  0  0  0  0  0  0  0
  -41.2277   56.3583   61.3811 C   0  0  0  0  0  0  0  0  0  0  0  0
  -41.6705   57.7696   61.0988 C   0  0  0  0  0  0  0  0  0  0  0  0
  -41.2857   58.2550   59.7187 C   0  0  0  0  0  0  0  0  0  0  0  0
  -39.9829   57.6554   59.2297 C   0  0  0  0  0  0  0  0  0  0  0  0
  -38.8825   58.6706   59.0020 C   0  0  0  0  0  0  0  0  0  0  0  0
  -38.3380   59.2871   60.2856 C   0  0  0  0  0  0  0  0  0  0  0  0
  -37.3838   58.3859   61.0455 C   0  0  0  0  0  0  0  0  0  0  0  0
  -38.0018   57.7578   62.2780 C   0  0  0  0  0  0  0  0  0  0  0  0
  -37.0813   57.7597   63.4905 C   0  0  0  0  0  0  0  0  0  0  0  0
  -35.6969   58.3120   63.2016 C   0  0  0  0  0  0  0  0  0  0  0  0
  -33.4956   58.6018   64.3875 C   0  0  0  0  0  0  0  0  0  0  0  0
  -34.9797   58.8897   64.4070 C   0  0  0  0  0  0  0  0  0  0  0  0
  -38.4576   61.4941   62.9122 C   0  0  0  0  0  0  0  0  0  0  0  0
  -37.7601   62.2339   63.9391 O   0  0  0  0  0  0  0  0  0  0  0  0
  -36.4852   63.1519   63.6326 P   0  0  0  0  0  0  0  0  0  0  0  0
  -36.1720   63.0342   62.1922 O   0  0  0  0  0  0  0  0  0  0  0  0
  -36.7394   64.4986   64.1986 O   0  0  0  0  0  0  0  0  0  0  0  0
  -37.4676   64.9201   63.7159 H   0  0  0  0  0  0  0  0  0  0  0  0
  -35.2850   62.4950   64.4514 O   0  0  0  0  0  0  0  0  0  0  0  0
  -34.4595   63.3146   65.3040 C   0  0  0  0  0  0  0  0  0  0  0  0
  -33.5684   63.4289   67.5255 O   0  0  0  0  0  0  0  0  0  0  0  0
  -34.5467   62.7760   66.7109 C   0  0  0  0  0  0  0  0  0  0  0  0
  -32.6895   63.3111   67.1324 H   0  0  0  0  0  0  0  0  0  0  0  0
  -36.1394   64.3034   67.6848 O   0  0  0  0  0  0  0  0  0  0  0  0
  -35.9223   62.9495   67.3086 C   0  0  0  0  0  0  0  0  0  0  0  0
  -37.0266   64.3948   68.0660 H   0  0  0  0  0  0  0  0  0  0  0  0
  -40.8593   61.5560   63.4434 O   0  0  0  0  0  0  0  0  0  0  0  0
  -41.6086   61.3346   61.3340 O   0  0  0  0  0  0  0  0  0  0  0  0
  -41.7549   61.1701   62.5143 C   0  0  0  0  0  0  0  0  0  0  0  0
  -42.9434   60.4965   63.1272 C   0  0  0  0  0  0  0  0  0  0  0  0
  -43.8654   61.5020   63.8097 C   0  0  0  0  0  0  0  0  0  0  0  0
  -44.7940   60.8846   64.8424 C   0  0  0  0  0  0  0  0  0  0  0  0
  -45.2596   59.4788   64.4807 C   0  0  0  0  0  0  0  0  0  0  0  0
  -46.7082   59.1984   64.8348 C   0  0  0  0  0  0  0  0  0  0  0  0
  -47.7131   59.5572   63.7365 C   0  0  0  0  0  0  0  0  0  0  0  0
  -48.6540   60.7175   64.0681 C   0  0  0  0  0  0  0  0  0  0  0  0
  -49.8919   60.2560   64.7770 C   0  0  0  0  0  0  0  0  0  0  0  0
  -50.9811   59.7634   64.2198 C   0  0  0  0  0  0  0  0  0  0  0  0
  -51.2085   59.5598   62.7552 C   0  0  0  0  0  0  0  0  0  0  0  0
  -50.8157   58.1593   62.2940 C   0  0  0  0  0  0  0  0  0  0  0  0
  -50.5184   58.0682   60.8075 C   0  0  0  0  0  0  0  0  0  0  0  0
  -49.5183   59.1027   60.3210 C   0  0  0  0  0  0  0  0  0  0  0  0
  -48.5855   58.6110   59.2267 C   0  0  0  0  0  0  0  0  0  0  0  0
  -47.9053   57.2916   59.5584 C   0  0  0  0  0  0  0  0  0  0  0  0
  -47.2592   56.6086   58.3693 C   0  0  0  0  0  0  0  0  0  0  0  0
  -47.7878   57.1083   57.0537 C   0  0  0  0  0  0  0  0  0  0  0  0
 21 22  1  0  0  0
  4  5  2  0  0  0
 25 24  1  0  0  0
 25 26  2  0  0  0
 25 27  1  0  0  0
 25 29  1  0  0  0
 22 20  1  0  0  0
  3  5  1  0  0  0
  3  2  1  0  0  0
 20 19  1  0  0  0
 24 23  1  0  0  0
 19 18  1  0  0  0
 18 17  1  0  0  0
 27 28  1  0  0  0
 17 16  1  0  0  0
 29 30  1  0  0  0
 16 15  1  0  0  0
 34 35  1  0  0  0
 34 36  1  0  0  0
 15 14  1  0  0  0
 31 32  1  0  0  0
 31 33  1  0  0  0
 14 13  1  0  0  0
 37  1  1  0  0  0
 37 39  1  0  0  0
 13 12  1  0  0  0
 38 39  2  0  0  0
 12 11  1  0  0  0
 11 10  1  0  0  0
 10  9  1  0  0  0
  9  8  1  0  0  0
  8  7  1  0  0  0
  7  6  1  0  0  0
  6  5  1  0  0  0
  2  1  1  0  0  0
  1 23  1  0  0  0
 30 32  1  0  0  0
 32 35  1  0  0  0
 39 40  1  0  0  0
 40 41  1  0  0  0
 41 42  1  0  0  0
 42 43  1  0  0  0
 43 44  1  0  0  0
 44 45  1  0  0  0
 45 46  1  0  0  0
 46 47  1  0  0  0
 47 48  2  0  0  0
 48 49  1  0  0  0
 49 50  1  0  0  0
 50 51  1  0  0  0
 51 52  1  0  0  0
 52 53  1  0  0  0
 53 54  1  0  0  0
 54 55  1  0  0  0
 55 56  1  0  0  0
M  CHG 1  26  -1
M  END
> <minimizedAffinity>
-8.83857

> <CNNscore>
0.3591478467

> <CNNaffinity>
7.5718469620

> <CNN_VS>
2.7194125652

> <CNNaffinity_variance>
1.5960410833

$$$$
/media/chris/experiments/cd1a-new-docking/inputs/ligands/7sh4_ligand.pdb


 56 55  0  0  0  0  0  0  0  0999 V2000
  -40.1139   60.3556   64.8761 C   0  0  0  0  0  0  0  0  0  0  0  0
  -40.5913   60.3171   63.4520 C   0  0  0  0  0  0  0  0  0  0  0  0
  -41.2598   61.5837   63.2734 O   0  0  0  0  0  0  0  0  0  0  0  0
  -42.5683   62.0643   61.5253 O   0  0  0  0  0  0  0  0  0  0  0  0
  -42.4157   61.5684   62.6090 C   0  0  0  0  0  0  0  0  0  0  0  0
  -43.4465   60.7504   63.3323 C   0  0  0  0  0  0  0  0  0  0  0  0
  -44.5097   61.5750   64.0378 C   0  0  0  0  0  0  0  0  0  0  0  0
  -45.3347   60.7592   65.0107 C   0  0  0  0  0  0  0  0  0  0  0  0
  -46.7024   60.3758   64.4932 C   0  0  0  0  0  0  0  0  0  0  0  0
  -46.9018   58.8767   64.3974 C   0  0  0  0  0  0  0  0  0  0  0  0
  -48.1216   58.3910   65.1416 C   0  0  0  0  0  0  0  0  0  0  0  0
  -48.9395   59.5123   65.7260 C   0  0  0  0  0  0  0  0  0  0  0  0
  -50.4162   59.4027   65.4166 C   0  0  0  0  0  0  0  0  0  0  0  0
  -50.9134   60.5267   64.5303 C   0  0  0  0  0  0  0  0  0  0  0  0
  -51.4792   60.0636   63.2041 C   0  0  0  0  0  0  0  0  0  0  0  0
  -50.9514   58.7077   62.7490 C   0  0  0  0  0  0  0  0  0  0  0  0
  -50.1135   58.7649   61.4862 C   0  0  0  0  0  0  0  0  0  0  0  0
  -50.5727   57.7973   60.4146 C   0  0  0  0  0  0  0  0  0  0  0  0
  -49.8737   57.9923   59.0764 C   0  0  0  0  0  0  0  0  0  0  0  0
  -48.5033   58.6349   59.1945 C   0  0  0  0  0  0  0  0  0  0  0  0
  -47.7309   57.1502   57.3143 C   0  0  0  0  0  0  0  0  0  0  0  0
  -47.6378   58.5168   57.9543 C   0  0  0  0  0  0  0  0  0  0  0  0
  -38.6153   60.4881   64.9676 C   0  0  0  0  0  0  0  0  0  0  0  0
  -38.2248   61.7564   64.3955 O   0  0  0  0  0  0  0  0  0  0  0  0
  -36.7060   62.1178   64.0424 P   0  0  0  0  0  0  0  0  0  0  0  0
  -36.2545   61.2024   62.9723 O   0  0  0  0  0  0  0  0  0  0  0  0
  -36.6212   63.5801   63.8117 O   0  0  0  0  0  0  0  0  0  0  0  0
  -37.1209   63.8110   63.0130 H   0  0  0  0  0  0  0  0  0  0  0  0
  -35.8742   61.7807   65.3603 O   0  0  0  0  0  0  0  0  0  0  0  0
  -34.6146   62.4387   65.6065 C   0  0  0  0  0  0  0  0  0  0  0  0
  -33.3596   63.2107   67.4963 O   0  0  0  0  0  0  0  0  0  0  0  0
  -34.6815   63.1031   66.9597 C   0  0  0  0  0  0  0  0  0  0  0  0
  -32.9515   62.3314   67.5297 H   0  0  0  0  0  0  0  0  0  0  0  0
  -36.7383   64.3416   66.7271 O   0  0  0  0  0  0  0  0  0  0  0  0
  -35.3323   64.4642   66.9004 C   0  0  0  0  0  0  0  0  0  0  0  0
  -37.1379   65.2246   66.6914 H   0  0  0  0  0  0  0  0  0  0  0  0
  -40.5933   59.1484   65.5564 O   0  0  0  0  0  0  0  0  0  0  0  0
  -42.2474   60.2843   66.5734 O   0  0  0  0  0  0  0  0  0  0  0  0
  -41.7614   59.2447   66.2201 C   0  0  0  0  0  0  0  0  0  0  0  0
  -42.3889   57.9044   66.4476 C   0  0  0  0  0  0  0  0  0  0  0  0
  -43.5605   57.6676   65.4999 C   0  0  0  0  0  0  0  0  0  0  0  0
  -43.1443   57.3263   64.0785 C   0  0  0  0  0  0  0  0  0  0  0  0
  -42.0350   56.2836   64.0018 C   0  0  0  0  0  0  0  0  0  0  0  0
  -40.8741   56.6823   63.1098 C   0  0  0  0  0  0  0  0  0  0  0  0
  -40.7703   55.8860   61.8059 C   0  0  0  0  0  0  0  0  0  0  0  0
  -41.5560   56.4625   60.6261 C   0  0  0  0  0  0  0  0  0  0  0  0
  -41.5542   57.9618   60.6249 C   0  0  0  0  0  0  0  0  0  0  0  0
  -40.7294   58.7477   59.9605 C   0  0  0  0  0  0  0  0  0  0  0  0
  -39.6180   58.3035   59.0628 C   0  0  0  0  0  0  0  0  0  0  0  0
  -38.2613   58.8447   59.5041 C   0  0  0  0  0  0  0  0  0  0  0  0
  -38.1033   58.9377   61.0116 C   0  0  0  0  0  0  0  0  0  0  0  0
  -37.5809   57.6623   61.6499 C   0  0  0  0  0  0  0  0  0  0  0  0
  -37.1094   57.8239   63.0855 C   0  0  0  0  0  0  0  0  0  0  0  0
  -35.6050   57.6712   63.2498 C   0  0  0  0  0  0  0  0  0  0  0  0
  -35.0713   58.1643   64.5801 C   0  0  0  0  0  0  0  0  0  0  0  0
  -33.7993   58.9530   64.4400 C   0  0  0  0  0  0  0  0  0  0  0  0
 21 22  1  0  0  0
  4  5  2  0  0  0
 25 24  1  0  0  0
 25 26  2  0  0  0
 25 27  1  0  0  0
 25 29  1  0  0  0
 22 20  1  0  0  0
  3  5  1  0  0  0
  3  2  1  0  0  0
 20 19  1  0  0  0
 24 23  1  0  0  0
 19 18  1  0  0  0
 18 17  1  0  0  0
 27 28  1  0  0  0
 17 16  1  0  0  0
 29 30  1  0  0  0
 16 15  1  0  0  0
 34 35  1  0  0  0
 34 36  1  0  0  0
 15 14  1  0  0  0
 31 32  1  0  0  0
 31 33  1  0  0  0
 14 13  1  0  0  0
 37  1  1  0  0  0
 37 39  1  0  0  0
 13 12  1  0  0  0
 38 39  2  0  0  0
 12 11  1  0  0  0
 11 10  1  0  0  0
 10  9  1  0  0  0
  9  8  1  0  0  0
  8  7  1  0  0  0
  7  6  1  0  0  0
  6  5  1  0  0  0
  2  1  1  0  0  0
  1 23  1  0  0  0
 30 32  1  0  0  0
 32 35  1  0  0  0
 39 40  1  0  0  0
 40 41  1  0  0  0
 41 42  1  0  0  0
 42 43  1  0  0  0
 43 44  1  0  0  0
 44 45  1  0  0  0
 45 46  1  0  0  0
 46 47  1  0  0  0
 47 48  2  0  0  0
 48 49  1  0  0  0
 49 50  1  0  0  0
 50 51  1  0  0  0
 51 52  1  0  0  0
 52 53  1  0  0  0
 53 54  1  0  0  0
 54 55  1  0  0  0
 55 56  1  0  0  0
M  CHG 1  26  -1
M  END
> <minimizedAffinity>
-8.89878

> <CNNscore>
0.3104282618

> <CNNaffinity>
7.4898757935

> <CNN_VS>
2.3250691891

> <CNNaffinity_variance>
1.5520693064

$$$$
/media/chris/experiments/cd1a-new-docking/inputs/ligands/7sh4_ligand.pdb


 56 55  0  0  0  0  0  0  0  0999 V2000
  -40.5737   60.1130   65.1092 C   0  0  0  0  0  0  0  0  0  0  0  0
  -40.4489   58.7844   64.4186 C   0  0  0  0  0  0  0  0  0  0  0  0
  -41.3646   57.9303   65.1365 O   0  0  0  0  0  0  0  0  0  0  0  0
  -42.7763   56.2412   64.7454 O   0  0  0  0  0  0  0  0  0  0  0  0
  -41.7332   56.7989   64.5349 C   0  0  0  0  0  0  0  0  0  0  0  0
  -40.7394   56.3943   63.4843 C   0  0  0  0  0  0  0  0  0  0  0  0
  -41.3662   55.9839   62.1626 C   0  0  0  0  0  0  0  0  0  0  0  0
  -41.6805   57.1663   61.2706 C   0  0  0  0  0  0  0  0  0  0  0  0
  -41.0847   57.0719   59.8843 C   0  0  0  0  0  0  0  0  0  0  0  0
  -41.0159   58.4095   59.1757 C   0  0  0  0  0  0  0  0  0  0  0  0
  -40.8926   59.5779   60.1230 C   0  0  0  0  0  0  0  0  0  0  0  0
  -39.4718   60.0443   60.3003 C   0  0  0  0  0  0  0  0  0  0  0  0
  -38.4673   59.2153   59.5309 C   0  0  0  0  0  0  0  0  0  0  0  0
  -37.4771   58.5086   60.4344 C   0  0  0  0  0  0  0  0  0  0  0  0
  -38.0941   57.9188   61.6854 C   0  0  0  0  0  0  0  0  0  0  0  0
  -37.0759   57.5432   62.7561 C   0  0  0  0  0  0  0  0  0  0  0  0
  -35.8770   58.4700   62.8185 C   0  0  0  0  0  0  0  0  0  0  0  0
  -34.5498   57.7434   62.7430 C   0  0  0  0  0  0  0  0  0  0  0  0
  -33.4022   58.6179   62.2572 C   0  0  0  0  0  0  0  0  0  0  0  0
  -32.3935   58.9540   63.3409 C   0  0  0  0  0  0  0  0  0  0  0  0
  -31.5550   60.5745   61.6068 C   0  0  0  0  0  0  0  0  0  0  0  0
  -31.2434   59.8330   62.8871 C   0  0  0  0  0  0  0  0  0  0  0  0
  -39.2712   60.5555   65.7250 C   0  0  0  0  0  0  0  0  0  0  0  0
  -38.5980   61.4416   64.8029 O   0  0  0  0  0  0  0  0  0  0  0  0
  -37.0933   61.9412   65.0220 P   0  0  0  0  0  0  0  0  0  0  0  0
  -37.1421   63.3039   65.5943 O   0  0  0  0  0  0  0  0  0  0  0  0
  -36.3589   60.8849   65.7593 O   0  0  0  0  0  0  0  0  0  0  0  0
  -36.7234   60.8024   66.6545 H   0  0  0  0  0  0  0  0  0  0  0  0
  -36.4655   62.0447   63.5599 O   0  0  0  0  0  0  0  0  0  0  0  0
  -36.8427   63.1299   62.6880 C   0  0  0  0  0  0  0  0  0  0  0  0
  -35.7512   64.0979   60.7870 O   0  0  0  0  0  0  0  0  0  0  0  0
  -35.5849   63.7857   62.1732 C   0  0  0  0  0  0  0  0  0  0  0  0
  -35.9807   63.2916   60.2991 H   0  0  0  0  0  0  0  0  0  0  0  0
  -34.7471   64.6952   64.2443 O   0  0  0  0  0  0  0  0  0  0  0  0
  -35.2271   65.0309   62.9486 C   0  0  0  0  0  0  0  0  0  0  0  0
  -34.5229   65.5065   64.7262 H   0  0  0  0  0  0  0  0  0  0  0  0
  -41.6403   60.0143   66.1105 O   0  0  0  0  0  0  0  0  0  0  0  0
  -42.3572   62.1214   66.4363 O   0  0  0  0  0  0  0  0  0  0  0  0
  -42.5722   60.9867   66.1078 C   0  0  0  0  0  0  0  0  0  0  0  0
  -43.9008   60.4885   65.6296 C   0  0  0  0  0  0  0  0  0  0  0  0
  -44.2423   59.1332   66.2406 C   0  0  0  0  0  0  0  0  0  0  0  0
  -45.5612   58.5535   65.7562 C   0  0  0  0  0  0  0  0  0  0  0  0
  -46.7478   58.9143   66.6425 C   0  0  0  0  0  0  0  0  0  0  0  0
  -47.6150   60.0296   66.0886 C   0  0  0  0  0  0  0  0  0  0  0  0
  -47.5030   60.2312   64.5747 C   0  0  0  0  0  0  0  0  0  0  0  0
  -48.6776   60.9675   63.9268 C   0  0  0  0  0  0  0  0  0  0  0  0
  -49.9390   60.8323   64.7259 C   0  0  0  0  0  0  0  0  0  0  0  0
  -51.0914   60.3505   64.3027 C   0  0  0  0  0  0  0  0  0  0  0  0
  -51.3809   59.8338   62.9288 C   0  0  0  0  0  0  0  0  0  0  0  0
  -50.9636   58.3764   62.7548 C   0  0  0  0  0  0  0  0  0  0  0  0
  -49.7737   58.1894   61.8299 C   0  0  0  0  0  0  0  0  0  0  0  0
  -50.0927   57.3869   60.5804 C   0  0  0  0  0  0  0  0  0  0  0  0
  -49.9297   58.1556   59.2796 C   0  0  0  0  0  0  0  0  0  0  0  0
  -48.4844   58.5057   58.9599 C   0  0  0  0  0  0  0  0  0  0  0  0
  -47.8764   57.6795   57.8439 C   0  0  0  0  0  0  0  0  0  0  0  0
  -46.8390   58.4343   57.0605 C   0  0  0  0  0  0  0  0  0  0  0  0
 21 22  1  0  0  0
  4  5  2  0  0  0
 25 24  1  0  0  0
 25 26  2  0  0  0
 25 27  1  0  0  0
 25 29  1  0  0  0
 22 20  1  0  0  0
  3  5  1  0  0  0
  3  2  1  0  0  0
 20 19  1  0  0  0
 24 23  1  0  0  0
 19 18  1  0  0  0
 18 17  1  0  0  0
 27 28  1  0  0  0
 17 16  1  0  0  0
 29 30  1  0  0  0
 16 15  1  0  0  0
 34 35  1  0  0  0
 34 36  1  0  0  0
 15 14  1  0  0  0
 31 32  1  0  0  0
 31 33  1  0  0  0
 14 13  1  0  0  0
 37  1  1  0  0  0
 37 39  1  0  0  0
 13 12  1  0  0  0
 38 39  2  0  0  0
 12 11  1  0  0  0
 11 10  1  0  0  0
 10  9  1  0  0  0
  9  8  1  0  0  0
  8  7  1  0  0  0
  7  6  1  0  0  0
  6  5  1  0  0  0
  2  1  1  0  0  0
  1 23  1  0  0  0
 30 32  1  0  0  0
 32 35  1  0  0  0
 39 40  1  0  0  0
 40 41  1  0  0  0
 41 42  1  0  0  0
 42 43  1  0  0  0
 43 44  1  0  0  0
 44 45  1  0  0  0
 45 46  1  0  0  0
 46 47  1  0  0  0
 47 48  2  0  0  0
 48 49  1  0  0  0
 49 50  1  0  0  0
 50 51  1  0  0  0
 51 52  1  0  0  0
 52 53  1  0  0  0
 53 54  1  0  0  0
 54 55  1  0  0  0
 55 56  1  0  0  0
M  CHG 1  26  -1
M  END
> <minimizedAffinity>
-8.58524

> <CNNscore>
0.3027755618

> <CNNaffinity>
7.3877477646

> <CNN_VS>
2.2368295193

> <CNNaffinity_variance>
1.2029100657

$$$$
/media/chris/experiments/cd1a-new-docking/inputs/ligands/7sh4_ligand.pdb


 56 55  0  0  0  0  0  0  0  0999 V2000
  -40.7749   60.4163   63.0252 C   0  0  0  0  0  0  0  0  0  0  0  0
  -41.9394   61.2657   63.4495 C   0  0  0  0  0  0  0  0  0  0  0  0
  -43.0272   60.3263   63.5810 O   0  0  0  0  0  0  0  0  0  0  0  0
  -44.4523   61.0511   65.1440 O   0  0  0  0  0  0  0  0  0  0  0  0
  -43.6286   60.2609   64.7693 C   0  0  0  0  0  0  0  0  0  0  0  0
  -43.2348   59.0147   65.5088 C   0  0  0  0  0  0  0  0  0  0  0  0
  -44.1400   57.8237   65.2436 C   0  0  0  0  0  0  0  0  0  0  0  0
  -45.2604   57.7022   66.2548 C   0  0  0  0  0  0  0  0  0  0  0  0
  -46.6220   58.0827   65.7191 C   0  0  0  0  0  0  0  0  0  0  0  0
  -47.2766   59.2019   66.5034 C   0  0  0  0  0  0  0  0  0  0  0  0
  -47.8627   60.2794   65.6241 C   0  0  0  0  0  0  0  0  0  0  0  0
  -47.7133   59.9856   64.1547 C   0  0  0  0  0  0  0  0  0  0  0  0
  -48.8080   60.5941   63.3064 C   0  0  0  0  0  0  0  0  0  0  0  0
  -50.1503   60.6141   64.0094 C   0  0  0  0  0  0  0  0  0  0  0  0
  -51.0887   59.5053   63.5810 C   0  0  0  0  0  0  0  0  0  0  0  0
  -50.3924   58.3475   62.8749 C   0  0  0  0  0  0  0  0  0  0  0  0
  -51.0242   57.9640   61.5505 C   0  0  0  0  0  0  0  0  0  0  0  0
  -50.0721   57.2487   60.6140 C   0  0  0  0  0  0  0  0  0  0  0  0
  -49.9042   57.9411   59.2687 C   0  0  0  0  0  0  0  0  0  0  0  0
  -48.6050   58.7163   59.1422 C   0  0  0  0  0  0  0  0  0  0  0  0
  -48.3360   57.2519   57.1126 C   0  0  0  0  0  0  0  0  0  0  0  0
  -47.6570   58.1971   58.0779 C   0  0  0  0  0  0  0  0  0  0  0  0
  -39.5448   60.6877   63.8529 C   0  0  0  0  0  0  0  0  0  0  0  0
  -38.8485   61.8233   63.2927 O   0  0  0  0  0  0  0  0  0  0  0  0
  -37.3528   62.2144   63.7072 P   0  0  0  0  0  0  0  0  0  0  0  0
  -36.4626   61.1010   63.3138 O   0  0  0  0  0  0  0  0  0  0  0  0
  -37.0689   63.5723   63.1838 O   0  0  0  0  0  0  0  0  0  0  0  0
  -37.0572   63.5492   62.2141 H   0  0  0  0  0  0  0  0  0  0  0  0
  -37.3633   62.2955   65.2996 O   0  0  0  0  0  0  0  0  0  0  0  0
  -36.1370   62.1232   66.0390 C   0  0  0  0  0  0  0  0  0  0  0  0
  -36.1013   63.1827   68.1880 O   0  0  0  0  0  0  0  0  0  0  0  0
  -35.8544   63.3980   66.7953 C   0  0  0  0  0  0  0  0  0  0  0  0
  -37.0105   62.8675   68.3103 H   0  0  0  0  0  0  0  0  0  0  0  0
  -33.5921   63.4343   67.6314 O   0  0  0  0  0  0  0  0  0  0  0  0
  -34.4421   63.8893   66.5863 C   0  0  0  0  0  0  0  0  0  0  0  0
  -32.6909   63.7595   67.4799 H   0  0  0  0  0  0  0  0  0  0  0  0
  -40.5297   60.6486   61.5984 O   0  0  0  0  0  0  0  0  0  0  0  0
  -41.1215   59.8579   59.5773 O   0  0  0  0  0  0  0  0  0  0  0  0
  -40.9157   59.6792   60.7467 C   0  0  0  0  0  0  0  0  0  0  0  0
  -41.0391   58.3514   61.4276 C   0  0  0  0  0  0  0  0  0  0  0  0
  -39.8428   57.4548   61.1250 C   0  0  0  0  0  0  0  0  0  0  0  0
  -38.7730   58.1205   60.2749 C   0  0  0  0  0  0  0  0  0  0  0  0
  -37.5227   58.5035   61.0582 C   0  0  0  0  0  0  0  0  0  0  0  0
  -37.3609   57.7536   62.3674 C   0  0  0  0  0  0  0  0  0  0  0  0
  -35.9218   57.6805   62.8858 C   0  0  0  0  0  0  0  0  0  0  0  0
  -35.7574   57.9214   64.3879 C   0  0  0  0  0  0  0  0  0  0  0  0
  -34.3572   57.6543   64.8529 C   0  0  0  0  0  0  0  0  0  0  0  0
  -33.3744   58.5300   64.9354 C   0  0  0  0  0  0  0  0  0  0  0  0
  -33.4536   59.9815   64.5817 C   0  0  0  0  0  0  0  0  0  0  0  0
  -33.2194   60.2322   63.0948 C   0  0  0  0  0  0  0  0  0  0  0  0
  -31.9156   59.6511   62.5767 C   0  0  0  0  0  0  0  0  0  0  0  0
  -30.7859   60.6632   62.4968 C   0  0  0  0  0  0  0  0  0  0  0  0
  -31.2179   62.1063   62.6973 C   0  0  0  0  0  0  0  0  0  0  0  0
  -31.5401   62.8282   61.3978 C   0  0  0  0  0  0  0  0  0  0  0  0
  -32.8536   63.5846   61.4156 C   0  0  0  0  0  0  0  0  0  0  0  0
  -33.2702   63.9940   62.8007 C   0  0  0  0  0  0  0  0  0  0  0  0
 21 22  1  0  0  0
  4  5  2  0  0  0
 25 24  1  0  0  0
 25 26  2  0  0  0
 25 27  1  0  0  0
 25 29  1  0  0  0
 22 20  1  0  0  0
  3  5  1  0  0  0
  3  2  1  0  0  0
 20 19  1  0  0  0
 24 23  1  0  0  0
 19 18  1  0  0  0
 18 17  1  0  0  0
 27 28  1  0  0  0
 17 16  1  0  0  0
 29 30  1  0  0  0
 16 15  1  0  0  0
 34 35  1  0  0  0
 34 36  1  0  0  0
 15 14  1  0  0  0
 31 32  1  0  0  0
 31 33  1  0  0  0
 14 13  1  0  0  0
 37  1  1  0  0  0
 37 39  1  0  0  0
 13 12  1  0  0  0
 38 39  2  0  0  0
 12 11  1  0  0  0
 11 10  1  0  0  0
 10  9  1  0  0  0
  9  8  1  0  0  0
  8  7  1  0  0  0
  7  6  1  0  0  0
  6  5  1  0  0  0
  2  1  1  0  0  0
  1 23  1  0  0  0
 30 32  1  0  0  0
 32 35  1  0  0  0
 39 40  1  0  0  0
 40 41  1  0  0  0
 41 42  1  0  0  0
 42 43  1  0  0  0
 43 44  1  0  0  0
 44 45  1  0  0  0
 45 46  1  0  0  0
 46 47  1  0  0  0
 47 48  2  0  0  0
 48 49  1  0  0  0
 49 50  1  0  0  0
 50 51  1  0  0  0
 51 52  1  0  0  0
 52 53  1  0  0  0
 53 54  1  0  0  0
 54 55  1  0  0  0
 55 56  1  0  0  0
M  CHG 1  26  -1
M  END
> <minimizedAffinity>
-8.40266

> <CNNscore>
0.2891845405

> <CNNaffinity>
6.9625449181

> <CNN_VS>
2.0134603977

> <CNNaffinity_variance>
0.9110875130

$$$$
