/media/chris/experiments/cd1a-new-docking/inputs/ligands/7sh4_ligand.pdb


 56 55  0  0  0  0  0  0  0  0999 V2000
  -39.3112   60.6386   63.4212 C   0  0  0  0  0  0  0  0  0  0  0  0
  -39.2360   60.2609   64.8736 C   0  0  0  0  0  0  0  0  0  0  0  0
  -39.3260   58.8204   64.8648 O   0  0  0  0  0  0  0  0  0  0  0  0
  -40.8109   57.2827   64.2094 O   0  0  0  0  0  0  0  0  0  0  0  0
  -40.5487   58.2919   64.8063 C   0  0  0  0  0  0  0  0  0  0  0  0
  -41.5091   59.0483   65.6783 C   0  0  0  0  0  0  0  0  0  0  0  0
  -42.7727   58.2784   66.0232 C   0  0  0  0  0  0  0  0  0  0  0  0
  -43.9185   58.5797   65.0803 C   0  0  0  0  0  0  0  0  0  0  0  0
  -44.9548   59.5237   65.6468 C   0  0  0  0  0  0  0  0  0  0  0  0
  -46.2890   59.4370   64.9338 C   0  0  0  0  0  0  0  0  0  0  0  0
  -47.4090   58.9590   65.8252 C   0  0  0  0  0  0  0  0  0  0  0  0
  -48.5081   59.9757   65.9856 C   0  0  0  0  0  0  0  0  0  0  0  0
  -48.8642   60.6833   64.6970 C   0  0  0  0  0  0  0  0  0  0  0  0
  -50.3240   60.5215   64.3244 C   0  0  0  0  0  0  0  0  0  0  0  0
  -50.6961   59.1236   63.8764 C   0  0  0  0  0  0  0  0  0  0  0  0
  -50.8326   58.9769   62.3652 C   0  0  0  0  0  0  0  0  0  0  0  0
  -49.5843   58.4525   61.6817 C   0  0  0  0  0  0  0  0  0  0  0  0
  -49.8734   57.6775   60.4125 C   0  0  0  0  0  0  0  0  0  0  0  0
  -48.9622   56.4747   60.2111 C   0  0  0  0  0  0  0  0  0  0  0  0
  -47.9739   56.6451   59.0712 C   0  0  0  0  0  0  0  0  0  0  0  0
  -47.0242   58.1142   57.2613 C   0  0  0  0  0  0  0  0  0  0  0  0
  -47.9491   58.0308   58.4545 C   0  0  0  0  0  0  0  0  0  0  0  0
  -38.0648   61.3463   62.9549 C   0  0  0  0  0  0  0  0  0  0  0  0
  -37.2496   61.6597   64.1063 O   0  0  0  0  0  0  0  0  0  0  0  0
  -36.5787   63.0957   64.3291 P   0  0  0  0  0  0  0  0  0  0  0  0
  -36.8427   63.9159   63.1272 O   0  0  0  0  0  0  0  0  0  0  0  0
  -37.0135   63.6082   65.6508 O   0  0  0  0  0  0  0  0  0  0  0  0
  -37.9676   63.7829   65.6320 H   0  0  0  0  0  0  0  0  0  0  0  0
  -35.0095   62.8221   64.4019 O   0  0  0  0  0  0  0  0  0  0  0  0
  -34.0854   63.9284   64.4476 C   0  0  0  0  0  0  0  0  0  0  0  0
  -31.8539   64.3101   65.2334 O   0  0  0  0  0  0  0  0  0  0  0  0
  -33.0943   63.6750   65.5569 C   0  0  0  0  0  0  0  0  0  0  0  0
  -31.5424   63.9912   64.3718 H   0  0  0  0  0  0  0  0  0  0  0  0
  -34.5773   63.2743   67.4168 O   0  0  0  0  0  0  0  0  0  0  0  0
  -33.5944   64.1603   66.8965 C   0  0  0  0  0  0  0  0  0  0  0  0
  -34.8858   63.6023   68.2759 H   0  0  0  0  0  0  0  0  0  0  0  0
  -40.5084   61.4608   63.2196 O   0  0  0  0  0  0  0  0  0  0  0  0
  -42.6571   60.9401   62.8047 O   0  0  0  0  0  0  0  0  0  0  0  0
  -41.5004   60.9246   62.4830 C   0  0  0  0  0  0  0  0  0  0  0  0
  -40.9911   60.3243   61.2093 C   0  0  0  0  0  0  0  0  0  0  0  0
  -41.3638   58.8494   61.0984 C   0  0  0  0  0  0  0  0  0  0  0  0
  -40.4547   58.0515   60.1781 C   0  0  0  0  0  0  0  0  0  0  0  0
  -39.4282   58.9065   59.4439 C   0  0  0  0  0  0  0  0  0  0  0  0
  -37.9969   58.6703   59.8888 C   0  0  0  0  0  0  0  0  0  0  0  0
  -37.8585   57.9718   61.2444 C   0  0  0  0  0  0  0  0  0  0  0  0
  -36.5818   58.3024   62.0204 C   0  0  0  0  0  0  0  0  0  0  0  0
  -36.5402   57.6219   63.3558 C   0  0  0  0  0  0  0  0  0  0  0  0
  -35.8065   57.9707   64.3948 C   0  0  0  0  0  0  0  0  0  0  0  0
  -34.8584   59.1264   64.4578 C   0  0  0  0  0  0  0  0  0  0  0  0
  -33.4148   58.6839   64.6780 C   0  0  0  0  0  0  0  0  0  0  0  0
  -32.6617   58.3986   63.3906 C   0  0  0  0  0  0  0  0  0  0  0  0
  -31.6054   59.4387   63.0586 C   0  0  0  0  0  0  0  0  0  0  0  0
  -31.9995   60.4063   61.9551 C   0  0  0  0  0  0  0  0  0  0  0  0
  -31.4298   61.8041   62.1434 C   0  0  0  0  0  0  0  0  0  0  0  0
  -32.2783   62.9077   61.5434 C   0  0  0  0  0  0  0  0  0  0  0  0
  -31.5060   64.1775   61.3178 C   0  0  0  0  0  0  0  0  0  0  0  0
 21 22  1  0  0  0
  4  5  2  0  0  0
 25 24  1  0  0  0
 25 26  2  0  0  0
 25 27  1  0  0  0
 25 29  1  0  0  0
 22 20  1  0  0  0
  3  5  1  0  0  0
  3  2  1  0  0  0
 20 19  1  0  0  0
 24 23  1  0  0  0
 19 18  1  0  0  0
 18 17  1  0  0  0
 27 28  1  0  0  0
 17 16  1  0  0  0
 29 30  1  0  0  0
 16 15  1  0  0  0
 34 35  1  0  0  0
 34 36  1  0  0  0
 15 14  1  0  0  0
 31 32  1  0  0  0
 31 33  1  0  0  0
 14 13  1  0  0  0
 37  1  1  0  0  0
 37 39  1  0  0  0
 13 12  1  0  0  0
 38 39  2  0  0  0
 12 11  1  0  0  0
 11 10  1  0  0  0
 10  9  1  0  0  0
  9  8  1  0  0  0
  8  7  1  0  0  0
  7  6  1  0  0  0
  6  5  1  0  0  0
  2  1  1  0  0  0
  1 23  1  0  0  0
 30 32  1  0  0  0
 32 35  1  0  0  0
 39 40  1  0  0  0
 40 41  1  0  0  0
 41 42  1  0  0  0
 42 43  1  0  0  0
 43 44  1  0  0  0
 44 45  1  0  0  0
 45 46  1  0  0  0
 46 47  1  0  0  0
 47 48  2  0  0  0
 48 49  1  0  0  0
 49 50  1  0  0  0
 50 51  1  0  0  0
 51 52  1  0  0  0
 52 53  1  0  0  0
 53 54  1  0  0  0
 54 55  1  0  0  0
 55 56  1  0  0  0
M  CHG 1  26  -1
M  END
> <minimizedAffinity>
-8.06575

> <CNNscore>
0.6804165840

> <CNNaffinity>
7.5688695908

> <CNN_VS>
5.1499843597

> <CNNaffinity_variance>
1.0648090839

$$$$
/media/chris/experiments/cd1a-new-docking/inputs/ligands/7sh4_ligand.pdb


 56 55  0  0  0  0  0  0  0  0999 V2000
  -36.4470   62.6416   65.1339 C   0  0  0  0  0  0  0  0  0  0  0  0
  -35.4365   61.5356   65.0189 C   0  0  0  0  0  0  0  0  0  0  0  0
  -35.0601   61.5501   63.6256 O   0  0  0  0  0  0  0  0  0  0  0  0
  -33.1409   61.6673   62.4845 O   0  0  0  0  0  0  0  0  0  0  0  0
  -33.8220   61.1531   63.3302 C   0  0  0  0  0  0  0  0  0  0  0  0
  -33.3584   60.0774   64.2698 C   0  0  0  0  0  0  0  0  0  0  0  0
  -33.1484   58.7251   63.6098 C   0  0  0  0  0  0  0  0  0  0  0  0
  -34.4330   58.1279   63.0752 C   0  0  0  0  0  0  0  0  0  0  0  0
  -35.2703   57.4244   64.1192 C   0  0  0  0  0  0  0  0  0  0  0  0
  -36.4929   58.2183   64.5328 C   0  0  0  0  0  0  0  0  0  0  0  0
  -37.7650   57.7320   63.8826 C   0  0  0  0  0  0  0  0  0  0  0  0
  -38.1587   58.5458   62.6783 C   0  0  0  0  0  0  0  0  0  0  0  0
  -38.0970   57.7686   61.3821 C   0  0  0  0  0  0  0  0  0  0  0  0
  -37.7687   58.6440   60.1898 C   0  0  0  0  0  0  0  0  0  0  0  0
  -38.8050   58.5995   59.0864 C   0  0  0  0  0  0  0  0  0  0  0  0
  -40.2112   58.9662   59.5470 C   0  0  0  0  0  0  0  0  0  0  0  0
  -41.1287   57.7733   59.7352 C   0  0  0  0  0  0  0  0  0  0  0  0
  -41.6417   57.6261   61.1530 C   0  0  0  0  0  0  0  0  0  0  0  0
  -41.2412   56.3145   61.8138 C   0  0  0  0  0  0  0  0  0  0  0  0
  -41.5307   56.2715   63.3036 C   0  0  0  0  0  0  0  0  0  0  0  0
  -42.8874   57.1277   65.2432 C   0  0  0  0  0  0  0  0  0  0  0  0
  -42.5206   57.3137   63.7883 C   0  0  0  0  0  0  0  0  0  0  0  0
  -35.8916   63.8433   65.8545 C   0  0  0  0  0  0  0  0  0  0  0  0
  -34.4530   63.7226   65.9198 O   0  0  0  0  0  0  0  0  0  0  0  0
  -33.4637   64.6960   65.1225 P   0  0  0  0  0  0  0  0  0  0  0  0
  -33.1207   65.8277   66.0105 O   0  0  0  0  0  0  0  0  0  0  0  0
  -32.3654   63.8757   64.5572 O   0  0  0  0  0  0  0  0  0  0  0  0
  -31.8267   63.5153   65.2789 H   0  0  0  0  0  0  0  0  0  0  0  0
  -34.3231   65.2683   63.9073 O   0  0  0  0  0  0  0  0  0  0  0  0
  -33.7997   65.2137   62.5645 C   0  0  0  0  0  0  0  0  0  0  0  0
  -34.6965   63.7345   60.9061 O   0  0  0  0  0  0  0  0  0  0  0  0
  -34.9450   64.9504   61.6179 C   0  0  0  0  0  0  0  0  0  0  0  0
  -33.8411   63.7943   60.4527 H   0  0  0  0  0  0  0  0  0  0  0  0
  -36.8584   66.1662   62.4418 O   0  0  0  0  0  0  0  0  0  0  0  0
  -36.2740   64.8748   62.3304 C   0  0  0  0  0  0  0  0  0  0  0  0
  -37.7099   66.0973   62.9014 H   0  0  0  0  0  0  0  0  0  0  0  0
  -37.6380   62.1107   65.8044 O   0  0  0  0  0  0  0  0  0  0  0  0
  -38.7145   61.6958   63.8733 O   0  0  0  0  0  0  0  0  0  0  0  0
  -38.5315   61.4586   65.0361 C   0  0  0  0  0  0  0  0  0  0  0  0
  -39.2546   60.3925   65.7993 C   0  0  0  0  0  0  0  0  0  0  0  0
  -40.6863   60.2221   65.3015 C   0  0  0  0  0  0  0  0  0  0  0  0
  -41.7404   60.7345   66.2691 C   0  0  0  0  0  0  0  0  0  0  0  0
  -42.9623   61.3310   65.5799 C   0  0  0  0  0  0  0  0  0  0  0  0
  -44.1834   60.4305   65.6007 C   0  0  0  0  0  0  0  0  0  0  0  0
  -45.1927   60.7003   64.4812 C   0  0  0  0  0  0  0  0  0  0  0  0
  -46.4194   59.7855   64.4755 C   0  0  0  0  0  0  0  0  0  0  0  0
  -47.6983   60.5548   64.6181 C   0  0  0  0  0  0  0  0  0  0  0  0
  -48.8403   60.3042   64.0076 C   0  0  0  0  0  0  0  0  0  0  0  0
  -49.0988   59.1919   63.0410 C   0  0  0  0  0  0  0  0  0  0  0  0
  -50.4464   59.3317   62.3391 C   0  0  0  0  0  0  0  0  0  0  0  0
  -50.9801   58.0252   61.7784 C   0  0  0  0  0  0  0  0  0  0  0  0
  -50.0284   57.3429   60.8109 C   0  0  0  0  0  0  0  0  0  0  0  0
  -50.0091   57.9458   59.4161 C   0  0  0  0  0  0  0  0  0  0  0  0
  -48.6730   58.5714   59.0452 C   0  0  0  0  0  0  0  0  0  0  0  0
  -47.7596   57.6608   58.2487 C   0  0  0  0  0  0  0  0  0  0  0  0
  -46.9592   58.4011   57.2138 C   0  0  0  0  0  0  0  0  0  0  0  0
 21 22  1  0  0  0
  4  5  2  0  0  0
 25 24  1  0  0  0
 25 26  2  0  0  0
 25 27  1  0  0  0
 25 29  1  0  0  0
 22 20  1  0  0  0
  3  5  1  0  0  0
  3  2  1  0  0  0
 20 19  1  0  0  0
 24 23  1  0  0  0
 19 18  1  0  0  0
 18 17  1  0  0  0
 27 28  1  0  0  0
 17 16  1  0  0  0
 29 30  1  0  0  0
 16 15  1  0  0  0
 34 35  1  0  0  0
 34 36  1  0  0  0
 15 14  1  0  0  0
 31 32  1  0  0  0
 31 33  1  0  0  0
 14 13  1  0  0  0
 37  1  1  0  0  0
 37 39  1  0  0  0
 13 12  1  0  0  0
 38 39  2  0  0  0
 12 11  1  0  0  0
 11 10  1  0  0  0
 10  9  1  0  0  0
  9  8  1  0  0  0
  8  7  1  0  0  0
  7  6  1  0  0  0
  6  5  1  0  0  0
  2  1  1  0  0  0
  1 23  1  0  0  0
 30 32  1  0  0  0
 32 35  1  0  0  0
 39 40  1  0  0  0
 40 41  1  0  0  0
 41 42  1  0  0  0
 42 43  1  0  0  0
 43 44  1  0  0  0
 44 45  1  0  0  0
 45 46  1  0  0  0
 46 47  1  0  0  0
 47 48  2  0  0  0
 48 49  1  0  0  0
 49 50  1  0  0  0
 50 51  1  0  0  0
 51 52  1  0  0  0
 52 53  1  0  0  0
 53 54  1  0  0  0
 54 55  1  0  0  0
 55 56  1  0  0  0
M  CHG 1  26  -1
M  END
> <minimizedAffinity>
-8.26752

> <CNNscore>
0.4108318686

> <CNNaffinity>
7.4071059227

> <CNN_VS>
3.0430750847

> <CNNaffinity_variance>
1.0023351908

$$$$
/media/chris/experiments/cd1a-new-docking/inputs/ligands/7sh4_ligand.pdb


 56 55  0  0  0  0  0  0  0  0999 V2000
  -41.3899   59.2136   63.1074 C   0  0  0  0  0  0  0  0  0  0  0  0
  -42.5364   59.2473   64.0779 C   0  0  0  0  0  0  0  0  0  0  0  0
  -43.2428   58.0139   63.8270 O   0  0  0  0  0  0  0  0  0  0  0  0
  -42.5773   56.0629   64.6930 O   0  0  0  0  0  0  0  0  0  0  0  0
  -43.1989   57.0871   64.7844 C   0  0  0  0  0  0  0  0  0  0  0  0
  -43.9164   57.5489   66.0200 C   0  0  0  0  0  0  0  0  0  0  0  0
  -45.4311   57.5265   65.9030 C   0  0  0  0  0  0  0  0  0  0  0  0
  -46.1046   58.5277   66.8177 C   0  0  0  0  0  0  0  0  0  0  0  0
  -46.2965   59.8960   66.2038 C   0  0  0  0  0  0  0  0  0  0  0  0
  -46.3585   59.8637   64.6901 C   0  0  0  0  0  0  0  0  0  0  0  0
  -47.7689   59.8561   64.1533 C   0  0  0  0  0  0  0  0  0  0  0  0
  -48.7489   60.5468   65.0643 C   0  0  0  0  0  0  0  0  0  0  0  0
  -49.8945   59.6591   65.4974 C   0  0  0  0  0  0  0  0  0  0  0  0
  -50.2878   58.6515   64.4363 C   0  0  0  0  0  0  0  0  0  0  0  0
  -51.0353   59.2497   63.2629 C   0  0  0  0  0  0  0  0  0  0  0  0
  -50.5440   58.7601   61.9054 C   0  0  0  0  0  0  0  0  0  0  0  0
  -49.8549   59.8279   61.0777 C   0  0  0  0  0  0  0  0  0  0  0  0
  -49.1324   59.2771   59.8655 C   0  0  0  0  0  0  0  0  0  0  0  0
  -49.2245   57.7630   59.7360 C   0  0  0  0  0  0  0  0  0  0  0  0
  -47.8827   57.0898   59.5096 C   0  0  0  0  0  0  0  0  0  0  0  0
  -47.2870   56.1395   57.2561 C   0  0  0  0  0  0  0  0  0  0  0  0
  -47.2595   57.3567   58.1525 C   0  0  0  0  0  0  0  0  0  0  0  0
  -40.5705   60.4777   63.1549 C   0  0  0  0  0  0  0  0  0  0  0  0
  -39.2790   60.1736   63.7276 O   0  0  0  0  0  0  0  0  0  0  0  0
  -38.8733   60.5853   65.2202 P   0  0  0  0  0  0  0  0  0  0  0  0
  -40.1163   60.8536   65.9750 O   0  0  0  0  0  0  0  0  0  0  0  0
  -37.9301   59.5661   65.7399 O   0  0  0  0  0  0  0  0  0  0  0  0
  -38.3911   58.7179   65.8356 H   0  0  0  0  0  0  0  0  0  0  0  0
  -38.0788   61.9606   65.0778 O   0  0  0  0  0  0  0  0  0  0  0  0
  -37.1864   62.1663   63.9637 C   0  0  0  0  0  0  0  0  0  0  0  0
  -36.7243   64.5167   63.8954 O   0  0  0  0  0  0  0  0  0  0  0  0
  -36.2090   63.2555   64.3318 C   0  0  0  0  0  0  0  0  0  0  0  0
  -36.9042   64.4804   62.9429 H   0  0  0  0  0  0  0  0  0  0  0  0
  -36.6697   64.3278   66.4429 O   0  0  0  0  0  0  0  0  0  0  0  0
  -35.9229   63.2942   65.8139 C   0  0  0  0  0  0  0  0  0  0  0  0
  -36.4728   64.3368   67.3927 H   0  0  0  0  0  0  0  0  0  0  0  0
  -41.9280   58.9671   61.7659 O   0  0  0  0  0  0  0  0  0  0  0  0
  -41.3477   56.8002   61.5984 O   0  0  0  0  0  0  0  0  0  0  0  0
  -41.4571   57.8906   61.1075 C   0  0  0  0  0  0  0  0  0  0  0  0
  -41.1044   58.2115   59.6882 C   0  0  0  0  0  0  0  0  0  0  0  0
  -39.9853   59.2450   59.6103 C   0  0  0  0  0  0  0  0  0  0  0  0
  -38.5958   58.6410   59.4893 C   0  0  0  0  0  0  0  0  0  0  0  0
  -37.7738   58.7416   60.7691 C   0  0  0  0  0  0  0  0  0  0  0  0
  -37.9849   57.5867   61.7304 C   0  0  0  0  0  0  0  0  0  0  0  0
  -36.9760   57.5230   62.8806 C   0  0  0  0  0  0  0  0  0  0  0  0
  -35.8023   58.4988   62.7724 C   0  0  0  0  0  0  0  0  0  0  0  0
  -34.4787   57.7945   62.7903 C   0  0  0  0  0  0  0  0  0  0  0  0
  -33.2905   58.3543   62.9092 C   0  0  0  0  0  0  0  0  0  0  0  0
  -33.0146   59.8177   63.0535 C   0  0  0  0  0  0  0  0  0  0  0  0
  -32.0210   60.3283   62.0141 C   0  0  0  0  0  0  0  0  0  0  0  0
  -31.4785   61.7137   62.3184 C   0  0  0  0  0  0  0  0  0  0  0  0
  -32.5094   62.6539   62.9190 C   0  0  0  0  0  0  0  0  0  0  0  0
  -31.9243   63.7719   63.7657 C   0  0  0  0  0  0  0  0  0  0  0  0
  -32.7154   65.0688   63.6869 C   0  0  0  0  0  0  0  0  0  0  0  0
  -33.1361   65.6236   65.0334 C   0  0  0  0  0  0  0  0  0  0  0  0
  -32.5068   64.8921   66.1860 C   0  0  0  0  0  0  0  0  0  0  0  0
 21 22  1  0  0  0
  4  5  2  0  0  0
 25 24  1  0  0  0
 25 26  2  0  0  0
 25 27  1  0  0  0
 25 29  1  0  0  0
 22 20  1  0  0  0
  3  5  1  0  0  0
  3  2  1  0  0  0
 20 19  1  0  0  0
 24 23  1  0  0  0
 19 18  1  0  0  0
 18 17  1  0  0  0
 27 28  1  0  0  0
 17 16  1  0  0  0
 29 30  1  0  0  0
 16 15  1  0  0  0
 34 35  1  0  0  0
 34 36  1  0  0  0
 15 14  1  0  0  0
 31 32  1  0  0  0
 31 33  1  0  0  0
 14 13  1  0  0  0
 37  1  1  0  0  0
 37 39  1  0  0  0
 13 12  1  0  0  0
 38 39  2  0  0  0
 12 11  1  0  0  0
 11 10  1  0  0  0
 10  9  1  0  0  0
  9  8  1  0  0  0
  8  7  1  0  0  0
  7  6  1  0  0  0
  6  5  1  0  0  0
  2  1  1  0  0  0
  1 23  1  0  0  0
 30 32  1  0  0  0
 32 35  1  0  0  0
 39 40  1  0  0  0
 40 41  1  0  0  0
 41 42  1  0  0  0
 42 43  1  0  0  0
 43 44  1  0  0  0
 44 45  1  0  0  0
 45 46  1  0  0  0
 46 47  1  0  0  0
 47 48  2  0  0  0
 48 49  1  0  0  0
 49 50  1  0  0  0
 50 51  1  0  0  0
 51 52  1  0  0  0
 52 53  1  0  0  0
 53 54  1  0  0  0
 54 55  1  0  0  0
 55 56  1  0  0  0
M  CHG 1  26  -1
M  END
> <minimizedAffinity>
-8.36740

> <CNNscore>
0.3788176477

> <CNNaffinity>
7.1015534401

> <CNN_VS>
2.6901936531

> <CNNaffinity_variance>
1.0573965311

$$$$
/media/chris/experiments/cd1a-new-docking/inputs/ligands/7sh4_ligand.pdb


 56 55  0  0  0  0  0  0  0  0999 V2000
  -41.9676   57.6829   64.8513 C   0  0  0  0  0  0  0  0  0  0  0  0
  -41.9354   56.3140   64.2327 C   0  0  0  0  0  0  0  0  0  0  0  0
  -42.1230   56.5632   62.8235 O   0  0  0  0  0  0  0  0  0  0  0  0
  -40.8463   54.8172   62.2573 O   0  0  0  0  0  0  0  0  0  0  0  0
  -41.3600   55.8673   61.9801 C   0  0  0  0  0  0  0  0  0  0  0  0
  -41.3362   56.5026   60.6196 C   0  0  0  0  0  0  0  0  0  0  0  0
  -41.6204   57.9951   60.6266 C   0  0  0  0  0  0  0  0  0  0  0  0
  -40.7926   58.7542   59.6112 C   0  0  0  0  0  0  0  0  0  0  0  0
  -39.4260   58.1593   59.3572 C   0  0  0  0  0  0  0  0  0  0  0  0
  -38.3449   58.7619   60.2313 C   0  0  0  0  0  0  0  0  0  0  0  0
  -37.9819   57.8935   61.4109 C   0  0  0  0  0  0  0  0  0  0  0  0
  -36.6378   58.2321   61.9994 C   0  0  0  0  0  0  0  0  0  0  0  0
  -36.4840   57.7911   63.4381 C   0  0  0  0  0  0  0  0  0  0  0  0
  -35.0761   57.9865   63.9629 C   0  0  0  0  0  0  0  0  0  0  0  0
  -34.0130   58.0146   62.8847 C   0  0  0  0  0  0  0  0  0  0  0  0
  -32.6088   58.2886   63.4112 C   0  0  0  0  0  0  0  0  0  0  0  0
  -32.1472   59.7205   63.2190 C   0  0  0  0  0  0  0  0  0  0  0  0
  -31.9304   60.0933   61.7668 C   0  0  0  0  0  0  0  0  0  0  0  0
  -31.2809   61.4570   61.5773 C   0  0  0  0  0  0  0  0  0  0  0  0
  -32.0184   62.5840   62.2780 C   0  0  0  0  0  0  0  0  0  0  0  0
  -33.8314   64.0819   61.3806 C   0  0  0  0  0  0  0  0  0  0  0  0
  -32.3519   63.7707   61.3940 C   0  0  0  0  0  0  0  0  0  0  0  0
  -40.5833   58.2208   65.1082 C   0  0  0  0  0  0  0  0  0  0  0  0
  -40.1807   59.0275   63.9787 O   0  0  0  0  0  0  0  0  0  0  0  0
  -39.8448   60.5875   64.1027 P   0  0  0  0  0  0  0  0  0  0  0  0
  -40.8348   61.3345   63.2973 O   0  0  0  0  0  0  0  0  0  0  0  0
  -39.7033   60.9162   65.5417 O   0  0  0  0  0  0  0  0  0  0  0  0
  -40.5613   60.8137   65.9826 H   0  0  0  0  0  0  0  0  0  0  0  0
  -38.4168   60.7679   63.4163 O   0  0  0  0  0  0  0  0  0  0  0  0
  -37.6971   62.0090   63.5635 C   0  0  0  0  0  0  0  0  0  0  0  0
  -35.3825   61.4319   63.3347 O   0  0  0  0  0  0  0  0  0  0  0  0
  -36.4054   61.7266   64.2906 C   0  0  0  0  0  0  0  0  0  0  0  0
  -35.6669   60.6929   62.7743 H   0  0  0  0  0  0  0  0  0  0  0  0
  -37.0976   63.4260   65.8563 O   0  0  0  0  0  0  0  0  0  0  0  0
  -35.9790   62.8757   65.1724 C   0  0  0  0  0  0  0  0  0  0  0  0
  -36.8042   64.1615   66.4166 H   0  0  0  0  0  0  0  0  0  0  0  0
  -42.7591   57.6139   66.0837 O   0  0  0  0  0  0  0  0  0  0  0  0
  -44.9025   57.5484   66.7631 O   0  0  0  0  0  0  0  0  0  0  0  0
  -44.0662   57.9244   65.9879 C   0  0  0  0  0  0  0  0  0  0  0  0
  -44.3478   58.8076   64.8120 C   0  0  0  0  0  0  0  0  0  0  0  0
  -44.9163   60.1542   65.2479 C   0  0  0  0  0  0  0  0  0  0  0  0
  -46.3181   60.4287   64.7286 C   0  0  0  0  0  0  0  0  0  0  0  0
  -47.0739   59.1699   64.3191 C   0  0  0  0  0  0  0  0  0  0  0  0
  -48.0081   58.6356   65.3889 C   0  0  0  0  0  0  0  0  0  0  0  0
  -48.9879   59.6687   65.9525 C   0  0  0  0  0  0  0  0  0  0  0  0
  -50.4505   59.4664   65.5508 C   0  0  0  0  0  0  0  0  0  0  0  0
  -50.8580   60.3716   64.4272 C   0  0  0  0  0  0  0  0  0  0  0  0
  -51.1433   60.0125   63.1906 C   0  0  0  0  0  0  0  0  0  0  0  0
  -51.1210   58.6180   62.6491 C   0  0  0  0  0  0  0  0  0  0  0  0
  -49.7557   58.2336   62.0865 C   0  0  0  0  0  0  0  0  0  0  0  0
  -49.3718   59.0064   60.8369 C   0  0  0  0  0  0  0  0  0  0  0  0
  -50.0948   58.5398   59.5851 C   0  0  0  0  0  0  0  0  0  0  0  0
  -49.2355   57.7339   58.6252 C   0  0  0  0  0  0  0  0  0  0  0  0
  -47.8766   58.3621   58.3555 C   0  0  0  0  0  0  0  0  0  0  0  0
  -47.1568   57.7932   57.1487 C   0  0  0  0  0  0  0  0  0  0  0  0
  -47.0682   56.2929   57.1785 C   0  0  0  0  0  0  0  0  0  0  0  0
 21 22  1  0  0  0
  4  5  2  0  0  0
 25 24  1  0  0  0
 25 26  2  0  0  0
 25 27  1  0  0  0
 25 29  1  0  0  0
 22 20  1  0  0  0
  3  5  1  0  0  0
  3  2  1  0  0  0
 20 19  1  0  0  0
 24 23  1  0  0  0
 19 18  1  0  0  0
 18 17  1  0  0  0
 27 28  1  0  0  0
 17 16  1  0  0  0
 29 30  1  0  0  0
 16 15  1  0  0  0
 34 35  1  0  0  0
 34 36  1  0  0  0
 15 14  1  0  0  0
 31 32  1  0  0  0
 31 33  1  0  0  0
 14 13  1  0  0  0
 37  1  1  0  0  0
 37 39  1  0  0  0
 13 12  1  0  0  0
 38 39  2  0  0  0
 12 11  1  0  0  0
 11 10  1  0  0  0
 10  9  1  0  0  0
  9  8  1  0  0  0
  8  7  1  0  0  0
  7  6  1  0  0  0
  6  5  1  0  0  0
  2  1  1  0  0  0
  1 23  1  0  0  0
 30 32  1  0  0  0
 32 35  1  0  0  0
 39 40  1  0  0  0
 40 41  1  0  0  0
 41 42  1  0  0  0
 42 43  1  0  0  0
 43 44  1  0  0  0
 44 45  1  0  0  0
 45 46  1  0  0  0
 46 47  1  0  0  0
 47 48  2  0  0  0
 48 49  1  0  0  0
 49 50  1  0  0  0
 50 51  1  0  0  0
 51 52  1  0  0  0
 52 53  1  0  0  0
 53 54  1  0  0  0
 54 55  1  0  0  0
 55 56  1  0  0  0
M  CHG 1  26  -1
M  END
> <minimizedAffinity>
-8.75755

> <CNNscore>
0.3715873063

> <CNNaffinity>
7.2514848709

> <CNN_VS>
2.6945598125

> <CNNaffinity_variance>
1.3315833807

$$$$
/media/chris/experiments/cd1a-new-docking/inputs/ligands/7sh4_ligand.pdb


 56 55  0  0  0  0  0  0  0  0999 V2000
  -40.5420   58.2895   64.4720 C   0  0  0  0  0  0  0  0  0  0  0  0
  -41.0352   57.0716   63.7432 C   0  0  0  0  0  0  0  0  0  0  0  0
  -40.6074   57.2827   62.3810 O   0  0  0  0  0  0  0  0  0  0  0  0
  -41.3488   55.2695   61.7516 O   0  0  0  0  0  0  0  0  0  0  0  0
  -41.0068   56.3879   61.4768 C   0  0  0  0  0  0  0  0  0  0  0  0
  -41.0900   56.9998   60.1080 C   0  0  0  0  0  0  0  0  0  0  0  0
  -40.4255   58.3615   59.9955 C   0  0  0  0  0  0  0  0  0  0  0  0
  -39.2775   58.3738   59.0083 C   0  0  0  0  0  0  0  0  0  0  0  0
  -37.9695   58.8655   59.5858 C   0  0  0  0  0  0  0  0  0  0  0  0
  -37.9855   58.9562   61.0982 C   0  0  0  0  0  0  0  0  0  0  0  0
  -37.1581   57.8856   61.7665 C   0  0  0  0  0  0  0  0  0  0  0  0
  -35.8183   58.3858   62.2379 C   0  0  0  0  0  0  0  0  0  0  0  0
  -35.5112   58.0184   63.6727 C   0  0  0  0  0  0  0  0  0  0  0  0
  -34.3421   58.7982   64.2393 C   0  0  0  0  0  0  0  0  0  0  0  0
  -33.6488   59.6914   63.2319 C   0  0  0  0  0  0  0  0  0  0  0  0
  -33.6314   61.1645   63.6241 C   0  0  0  0  0  0  0  0  0  0  0  0
  -33.1299   62.0875   62.5301 C   0  0  0  0  0  0  0  0  0  0  0  0
  -33.6582   63.5025   62.6471 C   0  0  0  0  0  0  0  0  0  0  0  0
  -35.0718   63.5817   63.2064 C   0  0  0  0  0  0  0  0  0  0  0  0
  -36.1314   63.8287   62.1474 C   0  0  0  0  0  0  0  0  0  0  0  0
  -36.2206   66.3093   61.7297 C   0  0  0  0  0  0  0  0  0  0  0  0
  -35.8159   64.9581   61.1852 C   0  0  0  0  0  0  0  0  0  0  0  0
  -39.0508   58.2546   64.6884 C   0  0  0  0  0  0  0  0  0  0  0  0
  -38.7141   59.1692   65.7555 O   0  0  0  0  0  0  0  0  0  0  0  0
  -38.7518   60.7595   65.5790 P   0  0  0  0  0  0  0  0  0  0  0  0
  -38.3630   61.0752   64.1876 O   0  0  0  0  0  0  0  0  0  0  0  0
  -40.0579   61.2490   66.0822 O   0  0  0  0  0  0  0  0  0  0  0  0
  -40.7686   60.9212   65.5091 H   0  0  0  0  0  0  0  0  0  0  0  0
  -37.6136   61.3188   66.5458 O   0  0  0  0  0  0  0  0  0  0  0  0
  -36.3212   61.6704   66.0110 C   0  0  0  0  0  0  0  0  0  0  0  0
  -36.1551   62.7438   68.1471 O   0  0  0  0  0  0  0  0  0  0  0  0
  -35.8044   62.8704   66.7659 C   0  0  0  0  0  0  0  0  0  0  0  0
  -37.1156   62.6347   68.2281 H   0  0  0  0  0  0  0  0  0  0  0  0
  -33.7239   63.4026   67.8646 O   0  0  0  0  0  0  0  0  0  0  0  0
  -34.3111   63.0412   66.6211 C   0  0  0  0  0  0  0  0  0  0  0  0
  -32.7662   63.5076   67.7515 H   0  0  0  0  0  0  0  0  0  0  0  0
  -41.2709   58.3954   65.7398 O   0  0  0  0  0  0  0  0  0  0  0  0
  -43.4001   57.9040   66.2738 O   0  0  0  0  0  0  0  0  0  0  0  0
  -42.6048   58.5659   65.6647 C   0  0  0  0  0  0  0  0  0  0  0  0
  -42.9755   59.6893   64.7467 C   0  0  0  0  0  0  0  0  0  0  0  0
  -43.9652   60.6454   65.4047 C   0  0  0  0  0  0  0  0  0  0  0  0
  -45.3776   60.5471   64.8520 C   0  0  0  0  0  0  0  0  0  0  0  0
  -46.3319   59.7709   65.7523 C   0  0  0  0  0  0  0  0  0  0  0  0
  -47.7920   59.8990   65.3597 C   0  0  0  0  0  0  0  0  0  0  0  0
  -48.5456   58.5692   65.2675 C   0  0  0  0  0  0  0  0  0  0  0  0
  -50.0490   58.6519   65.5407 C   0  0  0  0  0  0  0  0  0  0  0  0
  -50.6568   59.9027   64.9804 C   0  0  0  0  0  0  0  0  0  0  0  0
  -51.1233   60.0725   63.7584 C   0  0  0  0  0  0  0  0  0  0  0  0
  -51.1444   59.0450   62.6711 C   0  0  0  0  0  0  0  0  0  0  0  0
  -49.8189   58.9653   61.9194 C   0  0  0  0  0  0  0  0  0  0  0  0
  -49.8403   59.6625   60.5705 C   0  0  0  0  0  0  0  0  0  0  0  0
  -48.8680   59.0724   59.5635 C   0  0  0  0  0  0  0  0  0  0  0  0
  -48.6692   57.5708   59.6856 C   0  0  0  0  0  0  0  0  0  0  0  0
  -47.3892   57.0742   59.0307 C   0  0  0  0  0  0  0  0  0  0  0  0
  -47.0923   57.7076   57.6859 C   0  0  0  0  0  0  0  0  0  0  0  0
  -48.1317   57.3849   56.6490 C   0  0  0  0  0  0  0  0  0  0  0  0
 21 22  1  0  0  0
  4  5  2  0  0  0
 25 24  1  0  0  0
 25 26  2  0  0  0
 25 27  1  0  0  0
 25 29  1  0  0  0
 22 20  1  0  0  0
  3  5  1  0  0  0
  3  2  1  0  0  0
 20 19  1  0  0  0
 24 23  1  0  0  0
 19 18  1  0  0  0
 18 17  1  0  0  0
 27 28  1  0  0  0
 17 16  1  0  0  0
 29 30  1  0  0  0
 16 15  1  0  0  0
 34 35  1  0  0  0
 34 36  1  0  0  0
 15 14  1  0  0  0
 31 32  1  0  0  0
 31 33  1  0  0  0
 14 13  1  0  0  0
 37  1  1  0  0  0
 37 39  1  0  0  0
 13 12  1  0  0  0
 38 39  2  0  0  0
 12 11  1  0  0  0
 11 10  1  0  0  0
 10  9  1  0  0  0
  9  8  1  0  0  0
  8  7  1  0  0  0
  7  6  1  0  0  0
  6  5  1  0  0  0
  2  1  1  0  0  0
  1 23  1  0  0  0
 30 32  1  0  0  0
 32 35  1  0  0  0
 39 40  1  0  0  0
 40 41  1  0  0  0
 41 42  1  0  0  0
 42 43  1  0  0  0
 43 44  1  0  0  0
 44 45  1  0  0  0
 45 46  1  0  0  0
 46 47  1  0  0  0
 47 48  2  0  0  0
 48 49  1  0  0  0
 49 50  1  0  0  0
 50 51  1  0  0  0
 51 52  1  0  0  0
 52 53  1  0  0  0
 53 54  1  0  0  0
 54 55  1  0  0  0
 55 56  1  0  0  0
M  CHG 1  26  -1
M  END
> <minimizedAffinity>
-8.37589

> <CNNscore>
0.3531509340

> <CNNaffinity>
7.1857023239

> <CNN_VS>
2.5376374722

> <CNNaffinity_variance>
1.2657473087

$$$$
/media/chris/experiments/cd1a-new-docking/inputs/ligands/7sh4_ligand.pdb


 56 55  0  0  0  0  0  0  0  0999 V2000
  -40.0933   60.5850   63.9390 C   0  0  0  0  0  0  0  0  0  0  0  0
  -39.8125   60.1101   65.3366 C   0  0  0  0  0  0  0  0  0  0  0  0
  -40.4838   58.8348   65.4136 O   0  0  0  0  0  0  0  0  0  0  0  0
  -42.1081   59.7335   66.6598 O   0  0  0  0  0  0  0  0  0  0  0  0
  -41.6647   58.8100   66.0320 C   0  0  0  0  0  0  0  0  0  0  0  0
  -42.4063   57.5385   65.7348 C   0  0  0  0  0  0  0  0  0  0  0  0
  -43.5139   57.6920   64.7062 C   0  0  0  0  0  0  0  0  0  0  0  0
  -44.8889   57.7800   65.3340 C   0  0  0  0  0  0  0  0  0  0  0  0
  -45.5263   59.1478   65.2399 C   0  0  0  0  0  0  0  0  0  0  0  0
  -46.6541   59.2085   64.2297 C   0  0  0  0  0  0  0  0  0  0  0  0
  -47.5561   60.4038   64.4174 C   0  0  0  0  0  0  0  0  0  0  0  0
  -48.9501   60.0276   64.8449 C   0  0  0  0  0  0  0  0  0  0  0  0
  -50.0251   60.8724   64.1978 C   0  0  0  0  0  0  0  0  0  0  0  0
  -51.1461   60.0416   63.6071 C   0  0  0  0  0  0  0  0  0  0  0  0
  -50.7881   58.5863   63.3893 C   0  0  0  0  0  0  0  0  0  0  0  0
  -50.7493   58.1745   61.9220 C   0  0  0  0  0  0  0  0  0  0  0  0
  -49.4273   58.4615   61.2363 C   0  0  0  0  0  0  0  0  0  0  0  0
  -49.5816   58.9335   59.8050 C   0  0  0  0  0  0  0  0  0  0  0  0
  -49.0051   57.9682   58.7786 C   0  0  0  0  0  0  0  0  0  0  0  0
  -47.7166   58.4569   58.1415 C   0  0  0  0  0  0  0  0  0  0  0  0
  -47.1976   56.1719   57.2221 C   0  0  0  0  0  0  0  0  0  0  0  0
  -47.2602   57.6554   56.9372 C   0  0  0  0  0  0  0  0  0  0  0  0
  -38.8706   61.1766   63.2857 C   0  0  0  0  0  0  0  0  0  0  0  0
  -38.1243   61.9154   64.2785 O   0  0  0  0  0  0  0  0  0  0  0  0
  -36.6664   62.5143   63.9994 P   0  0  0  0  0  0  0  0  0  0  0  0
  -35.8183   61.4258   63.4677 O   0  0  0  0  0  0  0  0  0  0  0  0
  -36.8216   63.7525   63.1985 O   0  0  0  0  0  0  0  0  0  0  0  0
  -37.1675   63.5282   62.3203 H   0  0  0  0  0  0  0  0  0  0  0  0
  -36.0975   62.9253   65.4313 O   0  0  0  0  0  0  0  0  0  0  0  0
  -34.7026   62.7250   65.7381 C   0  0  0  0  0  0  0  0  0  0  0  0
  -33.3824   63.2646   67.6638 O   0  0  0  0  0  0  0  0  0  0  0  0
  -34.2608   63.8183   66.6797 C   0  0  0  0  0  0  0  0  0  0  0  0
  -33.8278   62.5336   68.1202 H   0  0  0  0  0  0  0  0  0  0  0  0
  -33.8491   64.8999   64.5633 O   0  0  0  0  0  0  0  0  0  0  0  0
  -33.5830   64.9588   65.9588 C   0  0  0  0  0  0  0  0  0  0  0  0
  -33.4061   65.6392   64.1182 H   0  0  0  0  0  0  0  0  0  0  0  0
  -41.1984   61.5472   63.9918 O   0  0  0  0  0  0  0  0  0  0  0  0
  -43.4362   61.4203   63.8021 O   0  0  0  0  0  0  0  0  0  0  0  0
  -42.3394   61.2014   63.3653 C   0  0  0  0  0  0  0  0  0  0  0  0
  -42.0769   60.5293   62.0533 C   0  0  0  0  0  0  0  0  0  0  0  0
  -41.8627   61.5466   60.9371 C   0  0  0  0  0  0  0  0  0  0  0  0
  -41.2520   60.9583   59.6758 C   0  0  0  0  0  0  0  0  0  0  0  0
  -40.0551   60.0530   59.9429 C   0  0  0  0  0  0  0  0  0  0  0  0
  -40.1606   58.6839   59.2972 C   0  0  0  0  0  0  0  0  0  0  0  0
  -41.4017   57.8832   59.7014 C   0  0  0  0  0  0  0  0  0  0  0  0
  -41.1304   56.6606   60.5807 C   0  0  0  0  0  0  0  0  0  0  0  0
  -40.8526   57.0394   62.0045 C   0  0  0  0  0  0  0  0  0  0  0  0
  -39.6669   57.1862   62.5632 C   0  0  0  0  0  0  0  0  0  0  0  0
  -38.3443   57.0057   61.8875 C   0  0  0  0  0  0  0  0  0  0  0  0
  -37.3041   58.0151   62.3644 C   0  0  0  0  0  0  0  0  0  0  0  0
  -37.1259   58.0402   63.8723 C   0  0  0  0  0  0  0  0  0  0  0  0
  -35.7242   57.6712   64.3270 C   0  0  0  0  0  0  0  0  0  0  0  0
  -34.6828   57.6715   63.2203 C   0  0  0  0  0  0  0  0  0  0  0  0
  -33.4631   58.5237   63.5368 C   0  0  0  0  0  0  0  0  0  0  0  0
  -32.8528   59.2086   62.3300 C   0  0  0  0  0  0  0  0  0  0  0  0
  -31.6284   60.0100   62.6737 C   0  0  0  0  0  0  0  0  0  0  0  0
 21 22  1  0  0  0
  4  5  2  0  0  0
 25 24  1  0  0  0
 25 26  2  0  0  0
 25 27  1  0  0  0
 25 29  1  0  0  0
 22 20  1  0  0  0
  3  5  1  0  0  0
  3  2  1  0  0  0
 20 19  1  0  0  0
 24 23  1  0  0  0
 19 18  1  0  0  0
 18 17  1  0  0  0
 27 28  1  0  0  0
 17 16  1  0  0  0
 29 30  1  0  0  0
 16 15  1  0  0  0
 34 35  1  0  0  0
 34 36  1  0  0  0
 15 14  1  0  0  0
 31 32  1  0  0  0
 31 33  1  0  0  0
 14 13  1  0  0  0
 37  1  1  0  0  0
 37 39  1  0  0  0
 13 12  1  0  0  0
 38 39  2  0  0  0
 12 11  1  0  0  0
 11 10  1  0  0  0
 10  9  1  0  0  0
  9  8  1  0  0  0
  8  7  1  0  0  0
  7  6  1  0  0  0
  6  5  1  0  0  0
  2  1  1  0  0  0
  1 23  1  0  0  0
 30 32  1  0  0  0
 32 35  1  0  0  0
 39 40  1  0  0  0
 40 41  1  0  0  0
 41 42  1  0  0  0
 42 43  1  0  0  0
 43 44  1  0  0  0
 44 45  1  0  0  0
 45 46  1  0  0  0
 46 47  1  0  0  0
 47 48  2  0  0  0
 48 49  1  0  0  0
 49 50  1  0  0  0
 50 51  1  0  0  0
 51 52  1  0  0  0
 52 53  1  0  0  0
 53 54  1  0  0  0
 54 55  1  0  0  0
 55 56  1  0  0  0
M  CHG 1  26  -1
M  END
> <minimizedAffinity>
-8.59850

> <CNNscore>
0.3162469864

> <CNNaffinity>
7.4335279465

> <CNN_VS>
2.3508307934

> <CNNaffinity_variance>
1.4027420282

$$$$
/media/chris/experiments/cd1a-new-docking/inputs/ligands/7sh4_ligand.pdb


 56 55  0  0  0  0  0  0  0  0999 V2000
  -41.0651   58.1129   63.9920 C   0  0  0  0  0  0  0  0  0  0  0  0
  -41.5095   56.8261   64.6280 C   0  0  0  0  0  0  0  0  0  0  0  0
  -42.9489   56.9289   64.6548 O   0  0  0  0  0  0  0  0  0  0  0  0
  -42.8500   58.3177   66.4042 O   0  0  0  0  0  0  0  0  0  0  0  0
  -43.4864   57.6241   65.6576 C   0  0  0  0  0  0  0  0  0  0  0  0
  -44.9846   57.5231   65.6461 C   0  0  0  0  0  0  0  0  0  0  0  0
  -45.6400   57.8687   66.9725 C   0  0  0  0  0  0  0  0  0  0  0  0
  -46.7068   58.9349   66.8390 C   0  0  0  0  0  0  0  0  0  0  0  0
  -46.7742   59.5757   65.4712 C   0  0  0  0  0  0  0  0  0  0  0  0
  -48.1351   60.1639   65.1580 C   0  0  0  0  0  0  0  0  0  0  0  0
  -49.2162   59.6949   66.1006 C   0  0  0  0  0  0  0  0  0  0  0  0
  -50.5917   59.7448   65.4898 C   0  0  0  0  0  0  0  0  0  0  0  0
  -50.6464   60.5276   64.1967 C   0  0  0  0  0  0  0  0  0  0  0  0
  -51.1769   59.7077   63.0381 C   0  0  0  0  0  0  0  0  0  0  0  0
  -50.4851   58.3727   62.8578 C   0  0  0  0  0  0  0  0  0  0  0  0
  -49.2102   58.4470   62.0253 C   0  0  0  0  0  0  0  0  0  0  0  0
  -49.3674   59.2107   60.7244 C   0  0  0  0  0  0  0  0  0  0  0  0
  -50.1962   58.4756   59.6911 C   0  0  0  0  0  0  0  0  0  0  0  0
  -49.3649   57.8098   58.6034 C   0  0  0  0  0  0  0  0  0  0  0  0
  -48.0494   58.5154   58.3264 C   0  0  0  0  0  0  0  0  0  0  0  0
  -47.0165   56.2219   58.2334 C   0  0  0  0  0  0  0  0  0  0  0  0
  -46.9768   57.6390   57.7079 C   0  0  0  0  0  0  0  0  0  0  0  0
  -41.4465   58.1859   62.5357 C   0  0  0  0  0  0  0  0  0  0  0  0
  -42.0906   59.4554   62.2866 O   0  0  0  0  0  0  0  0  0  0  0  0
  -41.2736   60.7974   61.9810 P   0  0  0  0  0  0  0  0  0  0  0  0
  -41.9805   61.5296   60.9081 O   0  0  0  0  0  0  0  0  0  0  0  0
  -41.0223   61.4882   63.2688 O   0  0  0  0  0  0  0  0  0  0  0  0
  -41.8643   61.7927   63.6420 H   0  0  0  0  0  0  0  0  0  0  0  0
  -39.8686   60.3140   61.4022 O   0  0  0  0  0  0  0  0  0  0  0  0
  -39.7429   59.9691   60.0075 C   0  0  0  0  0  0  0  0  0  0  0  0
  -38.3134   58.6073   58.6493 O   0  0  0  0  0  0  0  0  0  0  0  0
  -38.9948   58.6625   59.9060 C   0  0  0  0  0  0  0  0  0  0  0  0
  -38.9519   58.7310   57.9296 H   0  0  0  0  0  0  0  0  0  0  0  0
  -38.1950   57.2005   61.6500 O   0  0  0  0  0  0  0  0  0  0  0  0
  -38.0149   58.4716   61.0389 C   0  0  0  0  0  0  0  0  0  0  0  0
  -37.5579   57.0966   62.3740 H   0  0  0  0  0  0  0  0  0  0  0  0
  -39.6169   58.2444   64.1799 O   0  0  0  0  0  0  0  0  0  0  0  0
  -39.9036   60.0530   65.4864 O   0  0  0  0  0  0  0  0  0  0  0  0
  -39.1965   59.1908   65.0412 C   0  0  0  0  0  0  0  0  0  0  0  0
  -37.7495   59.0281   65.3901 C   0  0  0  0  0  0  0  0  0  0  0  0
  -37.2447   57.6310   65.0437 C   0  0  0  0  0  0  0  0  0  0  0  0
  -35.8818   57.6174   64.3711 C   0  0  0  0  0  0  0  0  0  0  0  0
  -35.2719   59.0040   64.2010 C   0  0  0  0  0  0  0  0  0  0  0  0
  -33.8038   59.0827   64.5767 C   0  0  0  0  0  0  0  0  0  0  0  0
  -32.8845   59.5711   63.4537 C   0  0  0  0  0  0  0  0  0  0  0  0
  -32.9566   61.0708   63.1586 C   0  0  0  0  0  0  0  0  0  0  0  0
  -31.9317   61.4982   62.1511 C   0  0  0  0  0  0  0  0  0  0  0  0
  -31.9239   62.6245   61.4650 C   0  0  0  0  0  0  0  0  0  0  0  0
  -32.9418   63.7175   61.5510 C   0  0  0  0  0  0  0  0  0  0  0  0
  -32.9084   64.4400   62.8947 C   0  0  0  0  0  0  0  0  0  0  0  0
  -34.2155   65.1263   63.2503 C   0  0  0  0  0  0  0  0  0  0  0  0
  -35.4474   64.3023   62.9170 C   0  0  0  0  0  0  0  0  0  0  0  0
  -36.3224   63.9658   64.1130 C   0  0  0  0  0  0  0  0  0  0  0  0
  -36.2528   62.5021   64.5215 C   0  0  0  0  0  0  0  0  0  0  0  0
  -35.7952   62.2758   65.9488 C   0  0  0  0  0  0  0  0  0  0  0  0
  -34.3490   62.6281   66.1585 C   0  0  0  0  0  0  0  0  0  0  0  0
 21 22  1  0  0  0
  4  5  2  0  0  0
 25 24  1  0  0  0
 25 26  2  0  0  0
 25 27  1  0  0  0
 25 29  1  0  0  0
 22 20  1  0  0  0
  3  5  1  0  0  0
  3  2  1  0  0  0
 20 19  1  0  0  0
 24 23  1  0  0  0
 19 18  1  0  0  0
 18 17  1  0  0  0
 27 28  1  0  0  0
 17 16  1  0  0  0
 29 30  1  0  0  0
 16 15  1  0  0  0
 34 35  1  0  0  0
 34 36  1  0  0  0
 15 14  1  0  0  0
 31 32  1  0  0  0
 31 33  1  0  0  0
 14 13  1  0  0  0
 37  1  1  0  0  0
 37 39  1  0  0  0
 13 12  1  0  0  0
 38 39  2  0  0  0
 12 11  1  0  0  0
 11 10  1  0  0  0
 10  9  1  0  0  0
  9  8  1  0  0  0
  8  7  1  0  0  0
  7  6  1  0  0  0
  6  5  1  0  0  0
  2  1  1  0  0  0
  1 23  1  0  0  0
 30 32  1  0  0  0
 32 35  1  0  0  0
 39 40  1  0  0  0
 40 41  1  0  0  0
 41 42  1  0  0  0
 42 43  1  0  0  0
 43 44  1  0  0  0
 44 45  1  0  0  0
 45 46  1  0  0  0
 46 47  1  0  0  0
 47 48  2  0  0  0
 48 49  1  0  0  0
 49 50  1  0  0  0
 50 51  1  0  0  0
 51 52  1  0  0  0
 52 53  1  0  0  0
 53 54  1  0  0  0
 54 55  1  0  0  0
 55 56  1  0  0  0
M  CHG 1  26  -1
M  END
> <minimizedAffinity>
-7.92906

> <CNNscore>
0.3156201243

> <CNNaffinity>
6.9595260620

> <CNN_VS>
2.1965665817

> <CNNaffinity_variance>
0.7793501616

$$$$
/media/chris/experiments/cd1a-new-docking/inputs/ligands/7sh4_ligand.pdb


 56 55  0  0  0  0  0  0  0  0999 V2000
  -40.6813   57.1173   61.8540 C   0  0  0  0  0  0  0  0  0  0  0  0
  -40.9583   57.0983   60.3773 C   0  0  0  0  0  0  0  0  0  0  0  0
  -41.4839   58.4143   60.1036 O   0  0  0  0  0  0  0  0  0  0  0  0
  -39.7206   59.0345   58.8766 O   0  0  0  0  0  0  0  0  0  0  0  0
  -40.6337   59.3129   59.6062 C   0  0  0  0  0  0  0  0  0  0  0  0
  -41.0438   60.7098   59.9744 C   0  0  0  0  0  0  0  0  0  0  0  0
  -41.5882   60.8450   61.3864 C   0  0  0  0  0  0  0  0  0  0  0  0
  -42.5640   61.9937   61.5310 C   0  0  0  0  0  0  0  0  0  0  0  0
  -43.3915   61.9479   62.7955 C   0  0  0  0  0  0  0  0  0  0  0  0
  -42.8771   60.9417   63.8050 C   0  0  0  0  0  0  0  0  0  0  0  0
  -43.1438   61.3449   65.2346 C   0  0  0  0  0  0  0  0  0  0  0  0
  -42.4694   60.4444   66.2355 C   0  0  0  0  0  0  0  0  0  0  0  0
  -40.9622   60.5722   66.2383 C   0  0  0  0  0  0  0  0  0  0  0  0
  -40.2795   59.4659   65.4599 C   0  0  0  0  0  0  0  0  0  0  0  0
  -38.7672   59.5449   65.4709 C   0  0  0  0  0  0  0  0  0  0  0  0
  -38.2211   60.8078   66.1271 C   0  0  0  0  0  0  0  0  0  0  0  0
  -37.3315   61.6376   65.2214 C   0  0  0  0  0  0  0  0  0  0  0  0
  -36.0961   62.1721   65.9165 C   0  0  0  0  0  0  0  0  0  0  0  0
  -35.8745   63.6634   65.7059 C   0  0  0  0  0  0  0  0  0  0  0  0
  -35.1298   64.3342   66.8463 C   0  0  0  0  0  0  0  0  0  0  0  0
  -33.2218   65.2517   65.4849 C   0  0  0  0  0  0  0  0  0  0  0  0
  -33.6248   64.4021   66.6688 C   0  0  0  0  0  0  0  0  0  0  0  0
  -39.2047   57.1651   62.1525 C   0  0  0  0  0  0  0  0  0  0  0  0
  -38.8354   58.5290   62.4556 O   0  0  0  0  0  0  0  0  0  0  0  0
  -37.5495   59.2407   61.8219 P   0  0  0  0  0  0  0  0  0  0  0  0
  -37.1502   58.4783   60.6193 O   0  0  0  0  0  0  0  0  0  0  0  0
  -37.8440   60.6873   61.6830 O   0  0  0  0  0  0  0  0  0  0  0  0
  -38.5443   60.8128   61.0236 H   0  0  0  0  0  0  0  0  0  0  0  0
  -36.3967   59.0779   62.9116 O   0  0  0  0  0  0  0  0  0  0  0  0
  -35.4086   58.0374   62.7668 C   0  0  0  0  0  0  0  0  0  0  0  0
  -33.0223   57.9559   62.9702 O   0  0  0  0  0  0  0  0  0  0  0  0
  -34.2182   58.3890   63.6250 C   0  0  0  0  0  0  0  0  0  0  0  0
  -33.0822   57.0061   62.7826 H   0  0  0  0  0  0  0  0  0  0  0  0
  -33.6962   60.5887   62.7840 O   0  0  0  0  0  0  0  0  0  0  0  0
  -34.1422   59.8669   63.9250 C   0  0  0  0  0  0  0  0  0  0  0  0
  -33.6539   61.5343   62.9959 H   0  0  0  0  0  0  0  0  0  0  0  0
  -41.3183   55.9429   62.4582 O   0  0  0  0  0  0  0  0  0  0  0  0
  -41.4475   55.3666   64.6287 O   0  0  0  0  0  0  0  0  0  0  0  0
  -41.7756   56.0769   63.7179 C   0  0  0  0  0  0  0  0  0  0  0  0
  -42.7259   57.2264   63.8500 C   0  0  0  0  0  0  0  0  0  0  0  0
  -43.5608   57.1181   65.1219 C   0  0  0  0  0  0  0  0  0  0  0  0
  -44.8077   57.9873   65.1167 C   0  0  0  0  0  0  0  0  0  0  0  0
  -45.4891   58.0841   66.4768 C   0  0  0  0  0  0  0  0  0  0  0  0
  -46.3896   59.2956   66.6310 C   0  0  0  0  0  0  0  0  0  0  0  0
  -46.5299   60.1495   65.3677 C   0  0  0  0  0  0  0  0  0  0  0  0
  -47.8697   60.0207   64.6396 C   0  0  0  0  0  0  0  0  0  0  0  0
  -48.8607   59.2100   65.4198 C   0  0  0  0  0  0  0  0  0  0  0  0
  -50.1692   59.1947   65.2549 C   0  0  0  0  0  0  0  0  0  0  0  0
  -50.9412   59.9870   64.2476 C   0  0  0  0  0  0  0  0  0  0  0  0
  -51.1719   59.2147   62.9520 C   0  0  0  0  0  0  0  0  0  0  0  0
  -50.2034   59.5834   61.8420 C   0  0  0  0  0  0  0  0  0  0  0  0
  -49.3346   58.4257   61.3811 C   0  0  0  0  0  0  0  0  0  0  0  0
  -49.5492   58.0146   59.9339 C   0  0  0  0  0  0  0  0  0  0  0  0
  -48.5436   58.6316   58.9737 C   0  0  0  0  0  0  0  0  0  0  0  0
  -47.6290   57.6273   58.3008 C   0  0  0  0  0  0  0  0  0  0  0  0
  -46.8955   58.2064   57.1234 C   0  0  0  0  0  0  0  0  0  0  0  0
 21 22  1  0  0  0
  4  5  2  0  0  0
 25 24  1  0  0  0
 25 26  2  0  0  0
 25 27  1  0  0  0
 25 29  1  0  0  0
 22 20  1  0  0  0
  3  5  1  0  0  0
  3  2  1  0  0  0
 20 19  1  0  0  0
 24 23  1  0  0  0
 19 18  1  0  0  0
 18 17  1  0  0  0
 27 28  1  0  0  0
 17 16  1  0  0  0
 29 30  1  0  0  0
 16 15  1  0  0  0
 34 35  1  0  0  0
 34 36  1  0  0  0
 15 14  1  0  0  0
 31 32  1  0  0  0
 31 33  1  0  0  0
 14 13  1  0  0  0
 37  1  1  0  0  0
 37 39  1  0  0  0
 13 12  1  0  0  0
 38 39  2  0  0  0
 12 11  1  0  0  0
 11 10  1  0  0  0
 10  9  1  0  0  0
  9  8  1  0  0  0
  8  7  1  0  0  0
  7  6  1  0  0  0
  6  5  1  0  0  0
  2  1  1  0  0  0
  1 23  1  0  0  0
 30 32  1  0  0  0
 32 35  1  0  0  0
 39 40  1  0  0  0
 40 41  1  0  0  0
 41 42  1  0  0  0
 42 43  1  0  0  0
 43 44  1  0  0  0
 44 45  1  0  0  0
 45 46  1  0  0  0
 46 47  1  0  0  0
 47 48  2  0  0  0
 48 49  1  0  0  0
 49 50  1  0  0  0
 50 51  1  0  0  0
 51 52  1  0  0  0
 52 53  1  0  0  0
 53 54  1  0  0  0
 54 55  1  0  0  0
 55 56  1  0  0  0
M  CHG 1  26  -1
M  END
> <minimizedAffinity>
-8.04919

> <CNNscore>
0.3065370917

> <CNNaffinity>
7.2668886185

> <CNN_VS>
2.2275710106

> <CNNaffinity_variance>
1.8837139606

$$$$
/media/chris/experiments/cd1a-new-docking/inputs/ligands/7sh4_ligand.pdb


 56 55  0  0  0  0  0  0  0  0999 V2000
  -41.1277   58.9865   65.0619 C   0  0  0  0  0  0  0  0  0  0  0  0
  -40.7368   60.3244   64.5009 C   0  0  0  0  0  0  0  0  0  0  0  0
  -39.6804   60.7746   65.3752 O   0  0  0  0  0  0  0  0  0  0  0  0
  -38.4438   61.9222   63.9080 O   0  0  0  0  0  0  0  0  0  0  0  0
  -38.5286   61.1232   64.8012 C   0  0  0  0  0  0  0  0  0  0  0  0
  -37.3606   60.4867   65.4980 C   0  0  0  0  0  0  0  0  0  0  0  0
  -37.3615   58.9681   65.4498 C   0  0  0  0  0  0  0  0  0  0  0  0
  -36.8092   58.4225   64.1499 C   0  0  0  0  0  0  0  0  0  0  0  0
  -35.3700   57.9667   64.2314 C   0  0  0  0  0  0  0  0  0  0  0  0
  -34.4310   59.0510   64.7197 C   0  0  0  0  0  0  0  0  0  0  0  0
  -32.9743   58.7046   64.5315 C   0  0  0  0  0  0  0  0  0  0  0  0
  -32.6504   58.2659   63.1278 C   0  0  0  0  0  0  0  0  0  0  0  0
  -32.5481   59.4141   62.1484 C   0  0  0  0  0  0  0  0  0  0  0  0
  -31.8094   60.6071   62.7202 C   0  0  0  0  0  0  0  0  0  0  0  0
  -32.3904   61.9457   62.3154 C   0  0  0  0  0  0  0  0  0  0  0  0
  -33.0793   62.6881   63.4548 C   0  0  0  0  0  0  0  0  0  0  0  0
  -32.1957   63.7059   64.1503 C   0  0  0  0  0  0  0  0  0  0  0  0
  -32.8965   65.0191   64.4318 C   0  0  0  0  0  0  0  0  0  0  0  0
  -33.4806   65.1107   65.8346 C   0  0  0  0  0  0  0  0  0  0  0  0
  -33.3775   63.8163   66.6214 C   0  0  0  0  0  0  0  0  0  0  0  0
  -35.8882   63.9454   66.7471 C   0  0  0  0  0  0  0  0  0  0  0  0
  -34.6762   63.0416   66.7420 C   0  0  0  0  0  0  0  0  0  0  0  0
  -40.4265   57.8517   64.3602 C   0  0  0  0  0  0  0  0  0  0  0  0
  -40.2726   58.1921   62.9642 O   0  0  0  0  0  0  0  0  0  0  0  0
  -41.1983   57.5748   61.8137 P   0  0  0  0  0  0  0  0  0  0  0  0
  -40.9783   56.1127   61.7841 O   0  0  0  0  0  0  0  0  0  0  0  0
  -42.5773   58.0839   62.0080 O   0  0  0  0  0  0  0  0  0  0  0  0
  -42.9404   57.7268   62.8336 H   0  0  0  0  0  0  0  0  0  0  0  0
  -40.6391   58.1831   60.4498 O   0  0  0  0  0  0  0  0  0  0  0  0
  -40.5135   59.6115   60.2948 C   0  0  0  0  0  0  0  0  0  0  0  0
  -38.5141   60.2204   61.4670 O   0  0  0  0  0  0  0  0  0  0  0  0
  -39.0483   59.9492   60.1679 C   0  0  0  0  0  0  0  0  0  0  0  0
  -39.0274   60.9287   61.8862 H   0  0  0  0  0  0  0  0  0  0  0  0
  -38.9075   58.4182   58.3091 O   0  0  0  0  0  0  0  0  0  0  0  0
  -38.2603   58.8479   59.5000 C   0  0  0  0  0  0  0  0  0  0  0  0
  -38.3873   57.7119   57.8952 H   0  0  0  0  0  0  0  0  0  0  0  0
  -42.5858   58.8580   64.9759 O   0  0  0  0  0  0  0  0  0  0  0  0
  -42.6386   57.5823   66.8279 O   0  0  0  0  0  0  0  0  0  0  0  0
  -43.1771   58.0184   65.8473 C   0  0  0  0  0  0  0  0  0  0  0  0
  -44.5893   57.7091   65.4572 C   0  0  0  0  0  0  0  0  0  0  0  0
  -45.5078   57.6625   66.6741 C   0  0  0  0  0  0  0  0  0  0  0  0
  -46.2340   58.9692   66.9486 C   0  0  0  0  0  0  0  0  0  0  0  0
  -46.4253   59.8328   65.7071 C   0  0  0  0  0  0  0  0  0  0  0  0
  -47.8621   59.9120   65.2260 C   0  0  0  0  0  0  0  0  0  0  0  0
  -48.5489   58.5553   65.0455 C   0  0  0  0  0  0  0  0  0  0  0  0
  -50.0475   58.5374   65.3541 C   0  0  0  0  0  0  0  0  0  0  0  0
  -50.7145   59.8301   64.9905 C   0  0  0  0  0  0  0  0  0  0  0  0
  -51.1090   60.2016   63.7881 C   0  0  0  0  0  0  0  0  0  0  0  0
  -50.9735   59.4046   62.5292 C   0  0  0  0  0  0  0  0  0  0  0  0
  -49.7245   59.7769   61.7358 C   0  0  0  0  0  0  0  0  0  0  0  0
  -49.7188   59.2338   60.3176 C   0  0  0  0  0  0  0  0  0  0  0  0
  -50.1375   57.7768   60.2209 C   0  0  0  0  0  0  0  0  0  0  0  0
  -49.0351   56.8335   59.7692 C   0  0  0  0  0  0  0  0  0  0  0  0
  -47.7788   57.5511   59.2995 C   0  0  0  0  0  0  0  0  0  0  0  0
  -47.5536   57.4949   57.8015 C   0  0  0  0  0  0  0  0  0  0  0  0
  -47.5363   56.0895   57.2684 C   0  0  0  0  0  0  0  0  0  0  0  0
 21 22  1  0  0  0
  4  5  2  0  0  0
 25 24  1  0  0  0
 25 26  2  0  0  0
 25 27  1  0  0  0
 25 29  1  0  0  0
 22 20  1  0  0  0
  3  5  1  0  0  0
  3  2  1  0  0  0
 20 19  1  0  0  0
 24 23  1  0  0  0
 19 18  1  0  0  0
 18 17  1  0  0  0
 27 28  1  0  0  0
 17 16  1  0  0  0
 29 30  1  0  0  0
 16 15  1  0  0  0
 34 35  1  0  0  0
 34 36  1  0  0  0
 15 14  1  0  0  0
 31 32  1  0  0  0
 31 33  1  0  0  0
 14 13  1  0  0  0
 37  1  1  0  0  0
 37 39  1  0  0  0
 13 12  1  0  0  0
 38 39  2  0  0  0
 12 11  1  0  0  0
 11 10  1  0  0  0
 10  9  1  0  0  0
  9  8  1  0  0  0
  8  7  1  0  0  0
  7  6  1  0  0  0
  6  5  1  0  0  0
  2  1  1  0  0  0
  1 23  1  0  0  0
 30 32  1  0  0  0
 32 35  1  0  0  0
 39 40  1  0  0  0
 40 41  1  0  0  0
 41 42  1  0  0  0
 42 43  1  0  0  0
 43 44  1  0  0  0
 44 45  1  0  0  0
 45 46  1  0  0  0
 46 47  1  0  0  0
 47 48  2  0  0  0
 48 49  1  0  0  0
 49 50  1  0  0  0
 50 51  1  0  0  0
 51 52  1  0  0  0
 52 53  1  0  0  0
 53 54  1  0  0  0
 54 55  1  0  0  0
 55 56  1  0  0  0
M  CHG 1  26  -1
M  END
> <minimizedAffinity>
-8.07920

> <CNNscore>
0.2654458582

> <CNNaffinity>
6.8868637085

> <CNN_VS>
1.8280894756

> <CNNaffinity_variance>
0.6561370492

$$$$
