/media/chris/experiments/cd1a-new-docking/inputs/ligands/7sh4_ligand.pdb


 56 55  0  0  0  0  0  0  0  0999 V2000
  -39.8583   59.9986   65.2977 C   0  0  0  0  0  0  0  0  0  0  0  0
  -39.6036   58.6176   64.7632 C   0  0  0  0  0  0  0  0  0  0  0  0
  -40.8772   57.9516   64.8955 O   0  0  0  0  0  0  0  0  0  0  0  0
  -40.6604   56.7048   63.0522 O   0  0  0  0  0  0  0  0  0  0  0  0
  -41.3482   57.3285   63.8149 C   0  0  0  0  0  0  0  0  0  0  0  0
  -42.8465   57.4060   63.7537 C   0  0  0  0  0  0  0  0  0  0  0  0
  -43.5335   57.2057   65.0940 C   0  0  0  0  0  0  0  0  0  0  0  0
  -44.8973   57.8604   65.1574 C   0  0  0  0  0  0  0  0  0  0  0  0
  -45.6129   57.6743   66.4761 C   0  0  0  0  0  0  0  0  0  0  0  0
  -46.3252   58.9262   66.9466 C   0  0  0  0  0  0  0  0  0  0  0  0
  -47.2515   59.5088   65.9074 C   0  0  0  0  0  0  0  0  0  0  0  0
  -48.4911   60.1229   66.5021 C   0  0  0  0  0  0  0  0  0  0  0  0
  -49.7654   59.6942   65.8088 C   0  0  0  0  0  0  0  0  0  0  0  0
  -49.5860   58.4399   64.9777 C   0  0  0  0  0  0  0  0  0  0  0  0
  -50.3821   58.4331   63.6895 C   0  0  0  0  0  0  0  0  0  0  0  0
  -50.7040   59.8248   63.1569 C   0  0  0  0  0  0  0  0  0  0  0  0
  -49.8886   60.2234   61.9418 C   0  0  0  0  0  0  0  0  0  0  0  0
  -49.1749   59.0585   61.2872 C   0  0  0  0  0  0  0  0  0  0  0  0
  -49.5811   58.8305   59.8379 C   0  0  0  0  0  0  0  0  0  0  0  0
  -48.4032   58.6293   58.9012 C   0  0  0  0  0  0  0  0  0  0  0  0
  -48.0394   56.1666   59.2733 C   0  0  0  0  0  0  0  0  0  0  0  0
  -48.3264   57.2550   58.2639 C   0  0  0  0  0  0  0  0  0  0  0  0
  -38.6869   60.5253   66.0866 C   0  0  0  0  0  0  0  0  0  0  0  0
  -37.5407   60.6180   65.2114 O   0  0  0  0  0  0  0  0  0  0  0  0
  -37.2114   61.9253   64.3487 P   0  0  0  0  0  0  0  0  0  0  0  0
  -35.8673   61.7561   63.7558 O   0  0  0  0  0  0  0  0  0  0  0  0
  -38.3599   62.1850   63.4475 O   0  0  0  0  0  0  0  0  0  0  0  0
  -38.4270   61.4704   62.7951 H   0  0  0  0  0  0  0  0  0  0  0  0
  -37.1363   63.1193   65.4030 O   0  0  0  0  0  0  0  0  0  0  0  0
  -36.0268   64.0402   65.3723 C   0  0  0  0  0  0  0  0  0  0  0  0
  -36.1397   63.2597   67.6352 O   0  0  0  0  0  0  0  0  0  0  0  0
  -35.3287   63.9886   66.7090 C   0  0  0  0  0  0  0  0  0  0  0  0
  -37.0183   63.6676   67.6863 H   0  0  0  0  0  0  0  0  0  0  0  0
  -33.3061   63.3944   67.8814 O   0  0  0  0  0  0  0  0  0  0  0  0
  -33.9558   63.3668   66.6170 C   0  0  0  0  0  0  0  0  0  0  0  0
  -32.4273   62.9915   67.8022 H   0  0  0  0  0  0  0  0  0  0  0  0
  -41.0823   59.9629   66.1042 O   0  0  0  0  0  0  0  0  0  0  0  0
  -43.2156   60.6732   66.1749 O   0  0  0  0  0  0  0  0  0  0  0  0
  -42.1568   60.6089   65.6121 C   0  0  0  0  0  0  0  0  0  0  0  0
  -41.8679   61.2515   64.2909 C   0  0  0  0  0  0  0  0  0  0  0  0
  -43.0622   61.1507   63.3474 C   0  0  0  0  0  0  0  0  0  0  0  0
  -42.8227   61.7724   61.9814 C   0  0  0  0  0  0  0  0  0  0  0  0
  -41.5699   61.2522   61.2859 C   0  0  0  0  0  0  0  0  0  0  0  0
  -41.4696   59.7387   61.2463 C   0  0  0  0  0  0  0  0  0  0  0  0
  -41.2276   59.1528   59.8523 C   0  0  0  0  0  0  0  0  0  0  0  0
  -40.2384   57.9866   59.7984 C   0  0  0  0  0  0  0  0  0  0  0  0
  -38.9024   58.4034   59.2605 C   0  0  0  0  0  0  0  0  0  0  0  0
  -37.8834   58.8682   59.9570 C   0  0  0  0  0  0  0  0  0  0  0  0
  -37.8482   59.0760   61.4382 C   0  0  0  0  0  0  0  0  0  0  0  0
  -37.1697   57.9229   62.1720 C   0  0  0  0  0  0  0  0  0  0  0  0
  -35.7130   58.1881   62.5093 C   0  0  0  0  0  0  0  0  0  0  0  0
  -35.4291   58.2240   64.0011 C   0  0  0  0  0  0  0  0  0  0  0  0
  -33.9688   58.4447   64.3590 C   0  0  0  0  0  0  0  0  0  0  0  0
  -33.0201   58.2365   63.1883 C   0  0  0  0  0  0  0  0  0  0  0  0
  -31.9299   59.2839   63.0773 C   0  0  0  0  0  0  0  0  0  0  0  0
  -32.3181   60.4356   62.1927 C   0  0  0  0  0  0  0  0  0  0  0  0
 21 22  1  0  0  0
  4  5  2  0  0  0
 25 24  1  0  0  0
 25 26  2  0  0  0
 25 27  1  0  0  0
 25 29  1  0  0  0
 22 20  1  0  0  0
  3  5  1  0  0  0
  3  2  1  0  0  0
 20 19  1  0  0  0
 24 23  1  0  0  0
 19 18  1  0  0  0
 18 17  1  0  0  0
 27 28  1  0  0  0
 17 16  1  0  0  0
 29 30  1  0  0  0
 16 15  1  0  0  0
 34 35  1  0  0  0
 34 36  1  0  0  0
 15 14  1  0  0  0
 31 32  1  0  0  0
 31 33  1  0  0  0
 14 13  1  0  0  0
 37  1  1  0  0  0
 37 39  1  0  0  0
 13 12  1  0  0  0
 38 39  2  0  0  0
 12 11  1  0  0  0
 11 10  1  0  0  0
 10  9  1  0  0  0
  9  8  1  0  0  0
  8  7  1  0  0  0
  7  6  1  0  0  0
  6  5  1  0  0  0
  2  1  1  0  0  0
  1 23  1  0  0  0
 30 32  1  0  0  0
 32 35  1  0  0  0
 39 40  1  0  0  0
 40 41  1  0  0  0
 41 42  1  0  0  0
 42 43  1  0  0  0
 43 44  1  0  0  0
 44 45  1  0  0  0
 45 46  1  0  0  0
 46 47  1  0  0  0
 47 48  2  0  0  0
 48 49  1  0  0  0
 49 50  1  0  0  0
 50 51  1  0  0  0
 51 52  1  0  0  0
 52 53  1  0  0  0
 53 54  1  0  0  0
 54 55  1  0  0  0
 55 56  1  0  0  0
M  CHG 1  26  -1
M  END
> <minimizedAffinity>
-8.52371

> <CNNscore>
0.5015218854

> <CNNaffinity>
7.6074972153

> <CNN_VS>
3.8153264523

> <CNNaffinity_variance>
1.3999340534

$$$$
/media/chris/experiments/cd1a-new-docking/inputs/ligands/7sh4_ligand.pdb


 56 55  0  0  0  0  0  0  0  0999 V2000
  -40.4053   59.4138   64.3694 C   0  0  0  0  0  0  0  0  0  0  0  0
  -40.8089   57.9844   64.5963 C   0  0  0  0  0  0  0  0  0  0  0  0
  -41.8511   58.0695   65.5911 O   0  0  0  0  0  0  0  0  0  0  0  0
  -42.9870   56.4133   64.6080 O   0  0  0  0  0  0  0  0  0  0  0  0
  -42.9365   57.3202   65.3945 C   0  0  0  0  0  0  0  0  0  0  0  0
  -44.0257   57.6781   66.3643 C   0  0  0  0  0  0  0  0  0  0  0  0
  -45.1693   58.4671   65.7495 C   0  0  0  0  0  0  0  0  0  0  0  0
  -44.7209   59.7896   65.1639 C   0  0  0  0  0  0  0  0  0  0  0  0
  -45.8251   60.5771   64.4959 C   0  0  0  0  0  0  0  0  0  0  0  0
  -47.1651   59.8708   64.5352 C   0  0  0  0  0  0  0  0  0  0  0  0
  -48.2324   60.6609   65.2522 C   0  0  0  0  0  0  0  0  0  0  0  0
  -49.1172   59.8038   66.1181 C   0  0  0  0  0  0  0  0  0  0  0  0
  -50.2495   59.1497   65.3577 C   0  0  0  0  0  0  0  0  0  0  0  0
  -51.0450   60.1375   64.5284 C   0  0  0  0  0  0  0  0  0  0  0  0
  -51.1778   59.7537   63.0695 C   0  0  0  0  0  0  0  0  0  0  0  0
  -50.6901   58.3436   62.7566 C   0  0  0  0  0  0  0  0  0  0  0  0
  -50.8860   57.9306   61.3105 C   0  0  0  0  0  0  0  0  0  0  0  0
  -49.7666   57.0612   60.7757 C   0  0  0  0  0  0  0  0  0  0  0  0
  -48.5762   57.8526   60.2521 C   0  0  0  0  0  0  0  0  0  0  0  0
  -48.7131   58.2647   58.7972 C   0  0  0  0  0  0  0  0  0  0  0  0
  -47.1180   56.5369   57.8993 C   0  0  0  0  0  0  0  0  0  0  0  0
  -47.4858   58.0027   57.9451 C   0  0  0  0  0  0  0  0  0  0  0  0
  -40.4572   60.2251   65.6387 C   0  0  0  0  0  0  0  0  0  0  0  0
  -39.4472   61.2565   65.5731 O   0  0  0  0  0  0  0  0  0  0  0  0
  -37.8933   60.9367   65.3609 P   0  0  0  0  0  0  0  0  0  0  0  0
  -37.6160   59.6060   65.9434 O   0  0  0  0  0  0  0  0  0  0  0  0
  -37.5642   61.1723   63.9344 O   0  0  0  0  0  0  0  0  0  0  0  0
  -38.0266   60.5211   63.3840 H   0  0  0  0  0  0  0  0  0  0  0  0
  -37.1156   62.0246   66.2293 O   0  0  0  0  0  0  0  0  0  0  0  0
  -36.5407   63.1821   65.5892 C   0  0  0  0  0  0  0  0  0  0  0  0
  -36.2080   63.9606   67.8310 O   0  0  0  0  0  0  0  0  0  0  0  0
  -35.5774   63.8296   66.5534 C   0  0  0  0  0  0  0  0  0  0  0  0
  -37.0341   64.4597   67.7341 H   0  0  0  0  0  0  0  0  0  0  0  0
  -33.4761   63.6028   67.7159 O   0  0  0  0  0  0  0  0  0  0  0  0
  -34.2884   63.0546   66.6857 C   0  0  0  0  0  0  0  0  0  0  0  0
  -32.6541   63.0926   67.7855 H   0  0  0  0  0  0  0  0  0  0  0  0
  -41.2715   59.9786   63.3299 O   0  0  0  0  0  0  0  0  0  0  0  0
  -39.6437   61.0529   62.2091 O   0  0  0  0  0  0  0  0  0  0  0  0
  -40.6700   60.4295   62.2124 C   0  0  0  0  0  0  0  0  0  0  0  0
  -41.4228   60.0452   60.9765 C   0  0  0  0  0  0  0  0  0  0  0  0
  -40.9046   58.7356   60.3909 C   0  0  0  0  0  0  0  0  0  0  0  0
  -39.7056   58.9030   59.4721 C   0  0  0  0  0  0  0  0  0  0  0  0
  -38.3975   58.4112   60.0808 C   0  0  0  0  0  0  0  0  0  0  0  0
  -38.5784   57.5308   61.3034 C   0  0  0  0  0  0  0  0  0  0  0  0
  -37.7655   57.9647   62.5264 C   0  0  0  0  0  0  0  0  0  0  0  0
  -36.2498   58.0061   62.3202 C   0  0  0  0  0  0  0  0  0  0  0  0
  -35.4997   57.8321   63.6068 C   0  0  0  0  0  0  0  0  0  0  0  0
  -34.2221   58.0854   63.8137 C   0  0  0  0  0  0  0  0  0  0  0  0
  -33.2498   58.6037   62.8017 C   0  0  0  0  0  0  0  0  0  0  0  0
  -31.9418   59.0684   63.4355 C   0  0  0  0  0  0  0  0  0  0  0  0
  -31.1392   60.0108   62.5558 C   0  0  0  0  0  0  0  0  0  0  0  0
  -31.9847   61.0631   61.8590 C   0  0  0  0  0  0  0  0  0  0  0  0
  -32.0417   62.4014   62.5765 C   0  0  0  0  0  0  0  0  0  0  0  0
  -32.9348   63.4211   61.8864 C   0  0  0  0  0  0  0  0  0  0  0  0
  -32.6960   64.8531   62.3222 C   0  0  0  0  0  0  0  0  0  0  0  0
  -33.7269   65.3427   63.3008 C   0  0  0  0  0  0  0  0  0  0  0  0
 21 22  1  0  0  0
  4  5  2  0  0  0
 25 24  1  0  0  0
 25 26  2  0  0  0
 25 27  1  0  0  0
 25 29  1  0  0  0
 22 20  1  0  0  0
  3  5  1  0  0  0
  3  2  1  0  0  0
 20 19  1  0  0  0
 24 23  1  0  0  0
 19 18  1  0  0  0
 18 17  1  0  0  0
 27 28  1  0  0  0
 17 16  1  0  0  0
 29 30  1  0  0  0
 16 15  1  0  0  0
 34 35  1  0  0  0
 34 36  1  0  0  0
 15 14  1  0  0  0
 31 32  1  0  0  0
 31 33  1  0  0  0
 14 13  1  0  0  0
 37  1  1  0  0  0
 37 39  1  0  0  0
 13 12  1  0  0  0
 38 39  2  0  0  0
 12 11  1  0  0  0
 11 10  1  0  0  0
 10  9  1  0  0  0
  9  8  1  0  0  0
  8  7  1  0  0  0
  7  6  1  0  0  0
  6  5  1  0  0  0
  2  1  1  0  0  0
  1 23  1  0  0  0
 30 32  1  0  0  0
 32 35  1  0  0  0
 39 40  1  0  0  0
 40 41  1  0  0  0
 41 42  1  0  0  0
 42 43  1  0  0  0
 43 44  1  0  0  0
 44 45  1  0  0  0
 45 46  1  0  0  0
 46 47  1  0  0  0
 47 48  2  0  0  0
 48 49  1  0  0  0
 49 50  1  0  0  0
 50 51  1  0  0  0
 51 52  1  0  0  0
 52 53  1  0  0  0
 53 54  1  0  0  0
 54 55  1  0  0  0
 55 56  1  0  0  0
M  CHG 1  26  -1
M  END
> <minimizedAffinity>
-8.66544

> <CNNscore>
0.4395557046

> <CNNaffinity>
7.1709718704

> <CNN_VS>
3.1520416737

> <CNNaffinity_variance>
0.9903534055

$$$$
/media/chris/experiments/cd1a-new-docking/inputs/ligands/7sh4_ligand.pdb


 56 55  0  0  0  0  0  0  0  0999 V2000
  -39.1527   60.6879   63.6685 C   0  0  0  0  0  0  0  0  0  0  0  0
  -39.1184   60.1605   65.0750 C   0  0  0  0  0  0  0  0  0  0  0  0
  -40.0762   60.9795   65.7785 O   0  0  0  0  0  0  0  0  0  0  0  0
  -41.8687   60.8844   67.1117 O   0  0  0  0  0  0  0  0  0  0  0  0
  -41.0953   60.3495   66.3638 C   0  0  0  0  0  0  0  0  0  0  0  0
  -41.2161   58.9369   65.8691 C   0  0  0  0  0  0  0  0  0  0  0  0
  -42.5895   58.3217   66.0776 C   0  0  0  0  0  0  0  0  0  0  0  0
  -42.8200   57.0969   65.2175 C   0  0  0  0  0  0  0  0  0  0  0  0
  -41.6273   56.6953   64.3797 C   0  0  0  0  0  0  0  0  0  0  0  0
  -41.8053   57.0048   62.9071 C   0  0  0  0  0  0  0  0  0  0  0  0
  -41.3192   55.8974   62.0043 C   0  0  0  0  0  0  0  0  0  0  0  0
  -41.3323   56.2777   60.5474 C   0  0  0  0  0  0  0  0  0  0  0  0
  -41.0847   57.7508   60.3091 C   0  0  0  0  0  0  0  0  0  0  0  0
  -40.0589   58.0036   59.2228 C   0  0  0  0  0  0  0  0  0  0  0  0
  -38.6986   58.4196   59.7423 C   0  0  0  0  0  0  0  0  0  0  0  0
  -38.4416   58.0149   61.1895 C   0  0  0  0  0  0  0  0  0  0  0  0
  -37.0385   58.3230   61.6756 C   0  0  0  0  0  0  0  0  0  0  0  0
  -36.7226   57.7158   63.0270 C   0  0  0  0  0  0  0  0  0  0  0  0
  -35.4532   58.2665   63.6618 C   0  0  0  0  0  0  0  0  0  0  0  0
  -34.2236   58.1259   62.7822 C   0  0  0  0  0  0  0  0  0  0  0  0
  -33.0781   58.6216   64.9680 C   0  0  0  0  0  0  0  0  0  0  0  0
  -32.9075   58.4105   63.4806 C   0  0  0  0  0  0  0  0  0  0  0  0
  -38.0481   61.6798   63.4086 C   0  0  0  0  0  0  0  0  0  0  0  0
  -36.9735   61.4346   64.3433 O   0  0  0  0  0  0  0  0  0  0  0  0
  -36.0910   62.6094   64.9780 P   0  0  0  0  0  0  0  0  0  0  0  0
  -37.0050   63.5527   65.6575 O   0  0  0  0  0  0  0  0  0  0  0  0
  -34.9943   61.9911   65.7614 O   0  0  0  0  0  0  0  0  0  0  0  0
  -35.3665   61.5231   66.5252 H   0  0  0  0  0  0  0  0  0  0  0  0
  -35.4389   63.3665   63.7354 O   0  0  0  0  0  0  0  0  0  0  0  0
  -36.0668   64.5497   63.2010 C   0  0  0  0  0  0  0  0  0  0  0  0
  -36.2140   65.9029   61.2287 O   0  0  0  0  0  0  0  0  0  0  0  0
  -35.6439   64.7034   61.7606 C   0  0  0  0  0  0  0  0  0  0  0  0
  -37.1777   65.8781   61.3361 H   0  0  0  0  0  0  0  0  0  0  0  0
  -33.6344   63.4057   61.4499 O   0  0  0  0  0  0  0  0  0  0  0  0
  -34.1425   64.7250   61.6016 C   0  0  0  0  0  0  0  0  0  0  0  0
  -32.6703   63.4401   61.3493 H   0  0  0  0  0  0  0  0  0  0  0  0
  -40.4749   61.2743   63.4276 O   0  0  0  0  0  0  0  0  0  0  0  0
  -40.5360   60.9012   61.2100 O   0  0  0  0  0  0  0  0  0  0  0  0
  -41.0887   60.9436   62.2753 C   0  0  0  0  0  0  0  0  0  0  0  0
  -42.5352   60.6179   62.4841 C   0  0  0  0  0  0  0  0  0  0  0  0
  -43.2817   61.7795   63.1322 C   0  0  0  0  0  0  0  0  0  0  0  0
  -43.9428   61.4263   64.4544 C   0  0  0  0  0  0  0  0  0  0  0  0
  -45.4132   61.0478   64.3190 C   0  0  0  0  0  0  0  0  0  0  0  0
  -45.7285   59.6303   64.7591 C   0  0  0  0  0  0  0  0  0  0  0  0
  -46.3767   59.5224   66.1423 C   0  0  0  0  0  0  0  0  0  0  0  0
  -47.7616   58.8720   66.1639 C   0  0  0  0  0  0  0  0  0  0  0  0
  -48.8623   59.8884   66.2209 C   0  0  0  0  0  0  0  0  0  0  0  0
  -49.9787   59.8803   65.5187 C   0  0  0  0  0  0  0  0  0  0  0  0
  -50.3820   58.8477   64.5141 C   0  0  0  0  0  0  0  0  0  0  0  0
  -51.1772   59.4421   63.3552 C   0  0  0  0  0  0  0  0  0  0  0  0
  -50.3278   60.2325   62.3753 C   0  0  0  0  0  0  0  0  0  0  0  0
  -49.3199   59.3840   61.6194 C   0  0  0  0  0  0  0  0  0  0  0  0
  -49.9361   58.3135   60.7341 C   0  0  0  0  0  0  0  0  0  0  0  0
  -49.5181   58.4196   59.2754 C   0  0  0  0  0  0  0  0  0  0  0  0
  -48.2883   57.6077   58.9200 C   0  0  0  0  0  0  0  0  0  0  0  0
  -47.4609   58.2479   57.8406 C   0  0  0  0  0  0  0  0  0  0  0  0
 21 22  1  0  0  0
  4  5  2  0  0  0
 25 24  1  0  0  0
 25 26  2  0  0  0
 25 27  1  0  0  0
 25 29  1  0  0  0
 22 20  1  0  0  0
  3  5  1  0  0  0
  3  2  1  0  0  0
 20 19  1  0  0  0
 24 23  1  0  0  0
 19 18  1  0  0  0
 18 17  1  0  0  0
 27 28  1  0  0  0
 17 16  1  0  0  0
 29 30  1  0  0  0
 16 15  1  0  0  0
 34 35  1  0  0  0
 34 36  1  0  0  0
 15 14  1  0  0  0
 31 32  1  0  0  0
 31 33  1  0  0  0
 14 13  1  0  0  0
 37  1  1  0  0  0
 37 39  1  0  0  0
 13 12  1  0  0  0
 38 39  2  0  0  0
 12 11  1  0  0  0
 11 10  1  0  0  0
 10  9  1  0  0  0
  9  8  1  0  0  0
  8  7  1  0  0  0
  7  6  1  0  0  0
  6  5  1  0  0  0
  2  1  1  0  0  0
  1 23  1  0  0  0
 30 32  1  0  0  0
 32 35  1  0  0  0
 39 40  1  0  0  0
 40 41  1  0  0  0
 41 42  1  0  0  0
 42 43  1  0  0  0
 43 44  1  0  0  0
 44 45  1  0  0  0
 45 46  1  0  0  0
 46 47  1  0  0  0
 47 48  2  0  0  0
 48 49  1  0  0  0
 49 50  1  0  0  0
 50 51  1  0  0  0
 51 52  1  0  0  0
 52 53  1  0  0  0
 53 54  1  0  0  0
 54 55  1  0  0  0
 55 56  1  0  0  0
M  CHG 1  26  -1
M  END
> <minimizedAffinity>
-8.44892

> <CNNscore>
0.4270105362

> <CNNaffinity>
7.5944061279

> <CNN_VS>
3.2428915501

> <CNNaffinity_variance>
1.4044779539

$$$$
/media/chris/experiments/cd1a-new-docking/inputs/ligands/7sh4_ligand.pdb


 56 55  0  0  0  0  0  0  0  0999 V2000
  -41.2797   59.5713   65.4008 C   0  0  0  0  0  0  0  0  0  0  0  0
  -41.7233   60.9833   65.1420 C   0  0  0  0  0  0  0  0  0  0  0  0
  -41.3708   61.2125   63.7613 O   0  0  0  0  0  0  0  0  0  0  0  0
  -43.3199   62.2119   63.3125 O   0  0  0  0  0  0  0  0  0  0  0  0
  -42.3490   61.6069   62.9454 C   0  0  0  0  0  0  0  0  0  0  0  0
  -42.0143   61.3072   61.5126 C   0  0  0  0  0  0  0  0  0  0  0  0
  -40.8146   60.3923   61.3339 C   0  0  0  0  0  0  0  0  0  0  0  0
  -40.5685   60.0243   59.8858 C   0  0  0  0  0  0  0  0  0  0  0  0
  -41.2298   58.7353   59.4535 C   0  0  0  0  0  0  0  0  0  0  0  0
  -40.4238   57.5044   59.8156 C   0  0  0  0  0  0  0  0  0  0  0  0
  -40.8842   56.8476   61.0939 C   0  0  0  0  0  0  0  0  0  0  0  0
  -39.8150   56.8083   62.1534 C   0  0  0  0  0  0  0  0  0  0  0  0
  -38.4802   57.3392   61.6795 C   0  0  0  0  0  0  0  0  0  0  0  0
  -37.6766   57.9800   62.7930 C   0  0  0  0  0  0  0  0  0  0  0  0
  -36.1777   57.9247   62.5840 C   0  0  0  0  0  0  0  0  0  0  0  0
  -35.4000   57.4765   63.8162 C   0  0  0  0  0  0  0  0  0  0  0  0
  -34.1553   58.2980   64.0918 C   0  0  0  0  0  0  0  0  0  0  0  0
  -33.2421   58.4288   62.8902 C   0  0  0  0  0  0  0  0  0  0  0  0
  -32.1118   59.4290   63.0888 C   0  0  0  0  0  0  0  0  0  0  0  0
  -31.8366   60.2857   61.8658 C   0  0  0  0  0  0  0  0  0  0  0  0
  -32.9058   62.0628   63.2921 C   0  0  0  0  0  0  0  0  0  0  0  0
  -32.0725   61.7708   62.0648 C   0  0  0  0  0  0  0  0  0  0  0  0
  -39.7785   59.4376   65.3850 C   0  0  0  0  0  0  0  0  0  0  0  0
  -39.1943   60.7130   65.7319 O   0  0  0  0  0  0  0  0  0  0  0  0
  -37.9127   61.3124   64.9834 P   0  0  0  0  0  0  0  0  0  0  0  0
  -36.8002   60.3507   65.1391 O   0  0  0  0  0  0  0  0  0  0  0  0
  -38.3222   61.7124   63.6156 O   0  0  0  0  0  0  0  0  0  0  0  0
  -38.5582   60.9225   63.1046 H   0  0  0  0  0  0  0  0  0  0  0  0
  -37.5340   62.6359   65.7882 O   0  0  0  0  0  0  0  0  0  0  0  0
  -36.3322   63.3617   65.4586 C   0  0  0  0  0  0  0  0  0  0  0  0
  -36.0207   62.9137   67.7920 O   0  0  0  0  0  0  0  0  0  0  0  0
  -35.6911   63.8284   66.7424 C   0  0  0  0  0  0  0  0  0  0  0  0
  -36.9851   62.8349   67.8612 H   0  0  0  0  0  0  0  0  0  0  0  0
  -33.5476   63.4844   67.7939 O   0  0  0  0  0  0  0  0  0  0  0  0
  -34.1922   63.9634   66.6206 C   0  0  0  0  0  0  0  0  0  0  0  0
  -32.5872   63.5794   67.6969 H   0  0  0  0  0  0  0  0  0  0  0  0
  -41.9116   58.6992   64.4058 O   0  0  0  0  0  0  0  0  0  0  0  0
  -41.9662   56.5173   64.9504 O   0  0  0  0  0  0  0  0  0  0  0  0
  -42.5112   57.5838   64.8645 C   0  0  0  0  0  0  0  0  0  0  0  0
  -43.9299   57.8367   65.2709 C   0  0  0  0  0  0  0  0  0  0  0  0
  -44.6479   58.7323   64.2663 C   0  0  0  0  0  0  0  0  0  0  0  0
  -45.2435   59.9899   64.8774 C   0  0  0  0  0  0  0  0  0  0  0  0
  -46.7053   60.2143   64.5076 C   0  0  0  0  0  0  0  0  0  0  0  0
  -47.5692   58.9724   64.6257 C   0  0  0  0  0  0  0  0  0  0  0  0
  -48.6490   59.0487   65.7088 C   0  0  0  0  0  0  0  0  0  0  0  0
  -50.0648   58.7023   65.2429 C   0  0  0  0  0  0  0  0  0  0  0  0
  -50.8302   59.9169   64.8105 C   0  0  0  0  0  0  0  0  0  0  0  0
  -50.9904   60.3478   63.5744 C   0  0  0  0  0  0  0  0  0  0  0  0
  -50.4393   59.7093   62.3386 C   0  0  0  0  0  0  0  0  0  0  0  0
  -50.9600   58.2895   62.1351 C   0  0  0  0  0  0  0  0  0  0  0  0
  -50.6410   57.7137   60.7665 C   0  0  0  0  0  0  0  0  0  0  0  0
  -49.6666   58.5569   59.9621 C   0  0  0  0  0  0  0  0  0  0  0  0
  -48.6816   57.7561   59.1268 C   0  0  0  0  0  0  0  0  0  0  0  0
  -47.8119   58.6180   58.2243 C   0  0  0  0  0  0  0  0  0  0  0  0
  -46.8591   57.8331   57.3446 C   0  0  0  0  0  0  0  0  0  0  0  0
  -47.2221   56.3775   57.2482 C   0  0  0  0  0  0  0  0  0  0  0  0
 21 22  1  0  0  0
  4  5  2  0  0  0
 25 24  1  0  0  0
 25 26  2  0  0  0
 25 27  1  0  0  0
 25 29  1  0  0  0
 22 20  1  0  0  0
  3  5  1  0  0  0
  3  2  1  0  0  0
 20 19  1  0  0  0
 24 23  1  0  0  0
 19 18  1  0  0  0
 18 17  1  0  0  0
 27 28  1  0  0  0
 17 16  1  0  0  0
 29 30  1  0  0  0
 16 15  1  0  0  0
 34 35  1  0  0  0
 34 36  1  0  0  0
 15 14  1  0  0  0
 31 32  1  0  0  0
 31 33  1  0  0  0
 14 13  1  0  0  0
 37  1  1  0  0  0
 37 39  1  0  0  0
 13 12  1  0  0  0
 38 39  2  0  0  0
 12 11  1  0  0  0
 11 10  1  0  0  0
 10  9  1  0  0  0
  9  8  1  0  0  0
  8  7  1  0  0  0
  7  6  1  0  0  0
  6  5  1  0  0  0
  2  1  1  0  0  0
  1 23  1  0  0  0
 30 32  1  0  0  0
 32 35  1  0  0  0
 39 40  1  0  0  0
 40 41  1  0  0  0
 41 42  1  0  0  0
 42 43  1  0  0  0
 43 44  1  0  0  0
 44 45  1  0  0  0
 45 46  1  0  0  0
 46 47  1  0  0  0
 47 48  2  0  0  0
 48 49  1  0  0  0
 49 50  1  0  0  0
 50 51  1  0  0  0
 51 52  1  0  0  0
 52 53  1  0  0  0
 53 54  1  0  0  0
 54 55  1  0  0  0
 55 56  1  0  0  0
M  CHG 1  26  -1
M  END
> <minimizedAffinity>
-8.94921

> <CNNscore>
0.4028424621

> <CNNaffinity>
7.2973823547

> <CNN_VS>
2.9396953583

> <CNNaffinity_variance>
1.4149186611

$$$$
/media/chris/experiments/cd1a-new-docking/inputs/ligands/7sh4_ligand.pdb


 56 55  0  0  0  0  0  0  0  0999 V2000
  -37.5567   61.3493   64.6945 C   0  0  0  0  0  0  0  0  0  0  0  0
  -36.5593   60.2729   65.0173 C   0  0  0  0  0  0  0  0  0  0  0  0
  -36.0663   59.8552   63.7267 O   0  0  0  0  0  0  0  0  0  0  0  0
  -34.6827   58.1544   63.2882 O   0  0  0  0  0  0  0  0  0  0  0  0
  -35.7742   58.5624   63.5811 C   0  0  0  0  0  0  0  0  0  0  0  0
  -36.9442   57.6968   63.9512 C   0  0  0  0  0  0  0  0  0  0  0  0
  -38.1778   57.9210   63.0933 C   0  0  0  0  0  0  0  0  0  0  0  0
  -37.9720   57.5079   61.6511 C   0  0  0  0  0  0  0  0  0  0  0  0
  -37.4952   58.6237   60.7493 C   0  0  0  0  0  0  0  0  0  0  0  0
  -38.4176   58.8711   59.5729 C   0  0  0  0  0  0  0  0  0  0  0  0
  -39.4327   59.9573   59.8319 C   0  0  0  0  0  0  0  0  0  0  0  0
  -40.8426   59.5321   59.5180 C   0  0  0  0  0  0  0  0  0  0  0  0
  -41.0337   58.0315   59.5289 C   0  0  0  0  0  0  0  0  0  0  0  0
  -41.6669   57.5315   60.8115 C   0  0  0  0  0  0  0  0  0  0  0  0
  -41.4357   56.0595   61.0819 C   0  0  0  0  0  0  0  0  0  0  0  0
  -41.1130   55.7438   62.5380 C   0  0  0  0  0  0  0  0  0  0  0  0
  -42.0837   56.3541   63.5306 C   0  0  0  0  0  0  0  0  0  0  0  0
  -41.4339   56.7566   64.8385 C   0  0  0  0  0  0  0  0  0  0  0  0
  -42.3639   57.5176   65.7732 C   0  0  0  0  0  0  0  0  0  0  0  0
  -43.8270   57.4318   65.3769 C   0  0  0  0  0  0  0  0  0  0  0  0
  -46.1332   57.2411   66.3673 C   0  0  0  0  0  0  0  0  0  0  0  0
  -44.7988   57.9498   66.4201 C   0  0  0  0  0  0  0  0  0  0  0  0
  -36.9191   62.7140   64.6399 C   0  0  0  0  0  0  0  0  0  0  0  0
  -35.5766   62.6215   65.1667 O   0  0  0  0  0  0  0  0  0  0  0  0
  -35.0197   63.6051   66.2999 P   0  0  0  0  0  0  0  0  0  0  0  0
  -36.1713   64.3182   66.8935 O   0  0  0  0  0  0  0  0  0  0  0  0
  -34.1289   62.8243   67.1917 O   0  0  0  0  0  0  0  0  0  0  0  0
  -34.6515   62.1646   67.6739 H   0  0  0  0  0  0  0  0  0  0  0  0
  -34.1244   64.6752   65.5279 O   0  0  0  0  0  0  0  0  0  0  0  0
  -32.8537   64.2840   64.9691 C   0  0  0  0  0  0  0  0  0  0  0  0
  -32.2002   64.9796   62.7710 O   0  0  0  0  0  0  0  0  0  0  0  0
  -33.0334   64.0633   63.4872 C   0  0  0  0  0  0  0  0  0  0  0  0
  -32.4090   65.8870   63.0432 H   0  0  0  0  0  0  0  0  0  0  0  0
  -33.9125   61.8715   62.9954 O   0  0  0  0  0  0  0  0  0  0  0  0
  -32.7217   62.6444   63.0754 C   0  0  0  0  0  0  0  0  0  0  0  0
  -33.6922   60.9649   62.7301 H   0  0  0  0  0  0  0  0  0  0  0  0
  -38.6334   61.2939   65.6881 O   0  0  0  0  0  0  0  0  0  0  0  0
  -40.7796   60.6833   65.9738 O   0  0  0  0  0  0  0  0  0  0  0  0
  -39.8491   60.9138   65.2505 C   0  0  0  0  0  0  0  0  0  0  0  0
  -39.9065   60.8313   63.7565 C   0  0  0  0  0  0  0  0  0  0  0  0
  -41.1902   60.1571   63.2830 C   0  0  0  0  0  0  0  0  0  0  0  0
  -42.1244   61.0793   62.5170 C   0  0  0  0  0  0  0  0  0  0  0  0
  -43.1717   61.7533   63.3959 C   0  0  0  0  0  0  0  0  0  0  0  0
  -44.1005   60.7837   64.1028 C   0  0  0  0  0  0  0  0  0  0  0  0
  -45.5542   61.2541   64.2049 C   0  0  0  0  0  0  0  0  0  0  0  0
  -46.5914   60.1386   64.3508 C   0  0  0  0  0  0  0  0  0  0  0  0
  -47.9695   60.6768   64.5942 C   0  0  0  0  0  0  0  0  0  0  0  0
  -49.0794   60.3024   63.9882 C   0  0  0  0  0  0  0  0  0  0  0  0
  -49.1950   59.2552   62.9260 C   0  0  0  0  0  0  0  0  0  0  0  0
  -50.5995   59.1785   62.3343 C   0  0  0  0  0  0  0  0  0  0  0  0
  -50.8434   57.9312   61.5031 C   0  0  0  0  0  0  0  0  0  0  0  0
  -50.0054   57.8680   60.2378 C   0  0  0  0  0  0  0  0  0  0  0  0
  -48.9095   56.8155   60.2603 C   0  0  0  0  0  0  0  0  0  0  0  0
  -48.1786   56.6737   58.9339 C   0  0  0  0  0  0  0  0  0  0  0  0
  -48.2080   57.9198   58.0711 C   0  0  0  0  0  0  0  0  0  0  0  0
  -46.9505   58.1003   57.2674 C   0  0  0  0  0  0  0  0  0  0  0  0
 21 22  1  0  0  0
  4  5  2  0  0  0
 25 24  1  0  0  0
 25 26  2  0  0  0
 25 27  1  0  0  0
 25 29  1  0  0  0
 22 20  1  0  0  0
  3  5  1  0  0  0
  3  2  1  0  0  0
 20 19  1  0  0  0
 24 23  1  0  0  0
 19 18  1  0  0  0
 18 17  1  0  0  0
 27 28  1  0  0  0
 17 16  1  0  0  0
 29 30  1  0  0  0
 16 15  1  0  0  0
 34 35  1  0  0  0
 34 36  1  0  0  0
 15 14  1  0  0  0
 31 32  1  0  0  0
 31 33  1  0  0  0
 14 13  1  0  0  0
 37  1  1  0  0  0
 37 39  1  0  0  0
 13 12  1  0  0  0
 38 39  2  0  0  0
 12 11  1  0  0  0
 11 10  1  0  0  0
 10  9  1  0  0  0
  9  8  1  0  0  0
  8  7  1  0  0  0
  7  6  1  0  0  0
  6  5  1  0  0  0
  2  1  1  0  0  0
  1 23  1  0  0  0
 30 32  1  0  0  0
 32 35  1  0  0  0
 39 40  1  0  0  0
 40 41  1  0  0  0
 41 42  1  0  0  0
 42 43  1  0  0  0
 43 44  1  0  0  0
 44 45  1  0  0  0
 45 46  1  0  0  0
 46 47  1  0  0  0
 47 48  2  0  0  0
 48 49  1  0  0  0
 49 50  1  0  0  0
 50 51  1  0  0  0
 51 52  1  0  0  0
 52 53  1  0  0  0
 53 54  1  0  0  0
 54 55  1  0  0  0
 55 56  1  0  0  0
M  CHG 1  26  -1
M  END
> <minimizedAffinity>
-8.12072

> <CNNscore>
0.3549339175

> <CNNaffinity>
7.6044263840

> <CNN_VS>
2.6990687847

> <CNNaffinity_variance>
0.7948441505

$$$$
/media/chris/experiments/cd1a-new-docking/inputs/ligands/7sh4_ligand.pdb


 56 55  0  0  0  0  0  0  0  0999 V2000
  -41.4011   59.4208   62.4668 C   0  0  0  0  0  0  0  0  0  0  0  0
  -42.1784   58.1833   62.8162 C   0  0  0  0  0  0  0  0  0  0  0  0
  -42.2160   58.1904   64.2590 O   0  0  0  0  0  0  0  0  0  0  0  0
  -42.5123   56.0003   64.5986 O   0  0  0  0  0  0  0  0  0  0  0  0
  -42.7864   57.1420   64.8536 C   0  0  0  0  0  0  0  0  0  0  0  0
  -43.7092   57.5786   65.9548 C   0  0  0  0  0  0  0  0  0  0  0  0
  -44.9562   58.2988   65.4705 C   0  0  0  0  0  0  0  0  0  0  0  0
  -46.2333   57.6770   65.9952 C   0  0  0  0  0  0  0  0  0  0  0  0
  -47.4697   58.5169   65.7681 C   0  0  0  0  0  0  0  0  0  0  0  0
  -47.3159   59.5031   64.6280 C   0  0  0  0  0  0  0  0  0  0  0  0
  -48.4310   60.5181   64.5659 C   0  0  0  0  0  0  0  0  0  0  0  0
  -49.7612   59.9577   64.9947 C   0  0  0  0  0  0  0  0  0  0  0  0
  -50.9302   60.5285   64.2228 C   0  0  0  0  0  0  0  0  0  0  0  0
  -51.1605   59.8218   62.9023 C   0  0  0  0  0  0  0  0  0  0  0  0
  -50.7628   58.3606   62.9059 C   0  0  0  0  0  0  0  0  0  0  0  0
  -49.6531   58.0217   61.9170 C   0  0  0  0  0  0  0  0  0  0  0  0
  -49.6170   58.9239   60.6985 C   0  0  0  0  0  0  0  0  0  0  0  0
  -49.2387   58.1987   59.4233 C   0  0  0  0  0  0  0  0  0  0  0  0
  -48.2375   57.0719   59.6363 C   0  0  0  0  0  0  0  0  0  0  0  0
  -47.5842   56.5890   58.3535 C   0  0  0  0  0  0  0  0  0  0  0  0
  -46.6974   58.4798   56.9484 C   0  0  0  0  0  0  0  0  0  0  0  0
  -47.8149   57.4813   57.1487 C   0  0  0  0  0  0  0  0  0  0  0  0
  -41.4663   60.4576   63.5589 C   0  0  0  0  0  0  0  0  0  0  0  0
  -40.1341   60.9625   63.8011 O   0  0  0  0  0  0  0  0  0  0  0  0
  -39.2169   60.4466   65.0071 P   0  0  0  0  0  0  0  0  0  0  0  0
  -39.5085   61.2803   66.1931 O   0  0  0  0  0  0  0  0  0  0  0  0
  -39.3777   58.9764   65.1130 O   0  0  0  0  0  0  0  0  0  0  0  0
  -40.2846   58.7691   65.3878 H   0  0  0  0  0  0  0  0  0  0  0  0
  -37.7172   60.7441   64.5545 O   0  0  0  0  0  0  0  0  0  0  0  0
  -37.4606   61.6252   63.4420 C   0  0  0  0  0  0  0  0  0  0  0  0
  -36.2613   63.6585   63.0296 O   0  0  0  0  0  0  0  0  0  0  0  0
  -36.2123   62.4185   63.7415 C   0  0  0  0  0  0  0  0  0  0  0  0
  -36.3762   63.4833   62.0825 H   0  0  0  0  0  0  0  0  0  0  0  0
  -37.1773   63.3217   65.7593 O   0  0  0  0  0  0  0  0  0  0  0  0
  -36.0334   62.6726   65.2191 C   0  0  0  0  0  0  0  0  0  0  0  0
  -37.0437   63.4763   66.7075 H   0  0  0  0  0  0  0  0  0  0  0  0
  -41.9104   59.9418   61.1943 O   0  0  0  0  0  0  0  0  0  0  0  0
  -40.3550   60.9450   59.9157 O   0  0  0  0  0  0  0  0  0  0  0  0
  -41.0434   59.9932   60.1649 C   0  0  0  0  0  0  0  0  0  0  0  0
  -41.0274   58.7173   59.3813 C   0  0  0  0  0  0  0  0  0  0  0  0
  -39.8022   57.8721   59.7146 C   0  0  0  0  0  0  0  0  0  0  0  0
  -38.4809   58.5385   59.3681 C   0  0  0  0  0  0  0  0  0  0  0  0
  -37.5013   58.5936   60.5347 C   0  0  0  0  0  0  0  0  0  0  0  0
  -38.1142   58.2250   61.8730 C   0  0  0  0  0  0  0  0  0  0  0  0
  -37.1855   57.4405   62.8042 C   0  0  0  0  0  0  0  0  0  0  0  0
  -35.9194   58.1822   63.2379 C   0  0  0  0  0  0  0  0  0  0  0  0
  -34.6753   57.5315   62.7118 C   0  0  0  0  0  0  0  0  0  0  0  0
  -33.4926   58.0965   62.5658 C   0  0  0  0  0  0  0  0  0  0  0  0
  -33.1439   59.5129   62.8983 C   0  0  0  0  0  0  0  0  0  0  0  0
  -31.6448   59.7814   62.8028 C   0  0  0  0  0  0  0  0  0  0  0  0
  -31.3056   61.1938   62.3598 C   0  0  0  0  0  0  0  0  0  0  0  0
  -32.4881   62.1465   62.4011 C   0  0  0  0  0  0  0  0  0  0  0  0
  -32.3472   63.3642   61.5030 C   0  0  0  0  0  0  0  0  0  0  0  0
  -32.7374   64.6673   62.1837 C   0  0  0  0  0  0  0  0  0  0  0  0
  -32.7413   65.8725   61.2644 C   0  0  0  0  0  0  0  0  0  0  0  0
  -31.4696   66.0047   60.4738 C   0  0  0  0  0  0  0  0  0  0  0  0
 21 22  1  0  0  0
  4  5  2  0  0  0
 25 24  1  0  0  0
 25 26  2  0  0  0
 25 27  1  0  0  0
 25 29  1  0  0  0
 22 20  1  0  0  0
  3  5  1  0  0  0
  3  2  1  0  0  0
 20 19  1  0  0  0
 24 23  1  0  0  0
 19 18  1  0  0  0
 18 17  1  0  0  0
 27 28  1  0  0  0
 17 16  1  0  0  0
 29 30  1  0  0  0
 16 15  1  0  0  0
 34 35  1  0  0  0
 34 36  1  0  0  0
 15 14  1  0  0  0
 31 32  1  0  0  0
 31 33  1  0  0  0
 14 13  1  0  0  0
 37  1  1  0  0  0
 37 39  1  0  0  0
 13 12  1  0  0  0
 38 39  2  0  0  0
 12 11  1  0  0  0
 11 10  1  0  0  0
 10  9  1  0  0  0
  9  8  1  0  0  0
  8  7  1  0  0  0
  7  6  1  0  0  0
  6  5  1  0  0  0
  2  1  1  0  0  0
  1 23  1  0  0  0
 30 32  1  0  0  0
 32 35  1  0  0  0
 39 40  1  0  0  0
 40 41  1  0  0  0
 41 42  1  0  0  0
 42 43  1  0  0  0
 43 44  1  0  0  0
 44 45  1  0  0  0
 45 46  1  0  0  0
 46 47  1  0  0  0
 47 48  2  0  0  0
 48 49  1  0  0  0
 49 50  1  0  0  0
 50 51  1  0  0  0
 51 52  1  0  0  0
 52 53  1  0  0  0
 53 54  1  0  0  0
 54 55  1  0  0  0
 55 56  1  0  0  0
M  CHG 1  26  -1
M  END
> <minimizedAffinity>
-8.00205

> <CNNscore>
0.3091332316

> <CNNaffinity>
7.0454125404

> <CNN_VS>
2.1779711246

> <CNNaffinity_variance>
0.8360828161

$$$$
/media/chris/experiments/cd1a-new-docking/inputs/ligands/7sh4_ligand.pdb


 56 55  0  0  0  0  0  0  0  0999 V2000
  -42.7959   60.4980   65.6383 C   0  0  0  0  0  0  0  0  0  0  0  0
  -43.4217   61.3891   64.6029 C   0  0  0  0  0  0  0  0  0  0  0  0
  -42.3197   61.7565   63.7463 O   0  0  0  0  0  0  0  0  0  0  0  0
  -43.2121   62.3766   61.7922 O   0  0  0  0  0  0  0  0  0  0  0  0
  -42.5112   61.6396   62.4319 C   0  0  0  0  0  0  0  0  0  0  0  0
  -41.6462   60.5580   61.8517 C   0  0  0  0  0  0  0  0  0  0  0  0
  -41.2695   60.7784   60.3964 C   0  0  0  0  0  0  0  0  0  0  0  0
  -40.1357   59.8834   59.9423 C   0  0  0  0  0  0  0  0  0  0  0  0
  -40.5449   58.8237   58.9446 C   0  0  0  0  0  0  0  0  0  0  0  0
  -40.5090   57.4221   59.5193 C   0  0  0  0  0  0  0  0  0  0  0  0
  -41.6413   57.1436   60.4773 C   0  0  0  0  0  0  0  0  0  0  0  0
  -41.4001   55.9311   61.3369 C   0  0  0  0  0  0  0  0  0  0  0  0
  -41.3402   56.2454   62.8154 C   0  0  0  0  0  0  0  0  0  0  0  0
  -40.2512   57.2417   63.1582 C   0  0  0  0  0  0  0  0  0  0  0  0
  -38.9642   57.0405   62.3859 C   0  0  0  0  0  0  0  0  0  0  0  0
  -38.0197   58.2360   62.4406 C   0  0  0  0  0  0  0  0  0  0  0  0
  -36.7597   58.0640   61.6142 C   0  0  0  0  0  0  0  0  0  0  0  0
  -35.4974   58.4628   62.3508 C   0  0  0  0  0  0  0  0  0  0  0  0
  -35.5914   58.2899   63.8604 C   0  0  0  0  0  0  0  0  0  0  0  0
  -34.2476   58.0687   64.5315 C   0  0  0  0  0  0  0  0  0  0  0  0
  -32.1738   59.1045   63.5506 C   0  0  0  0  0  0  0  0  0  0  0  0
  -33.3247   59.2724   64.5166 C   0  0  0  0  0  0  0  0  0  0  0  0
  -41.5950   61.1387   66.2854 C   0  0  0  0  0  0  0  0  0  0  0  0
  -40.5122   60.1819   66.3065 O   0  0  0  0  0  0  0  0  0  0  0  0
  -39.1836   60.3559   65.4310 P   0  0  0  0  0  0  0  0  0  0  0  0
  -38.3892   59.1146   65.5528 O   0  0  0  0  0  0  0  0  0  0  0  0
  -39.5792   60.8187   64.0790 O   0  0  0  0  0  0  0  0  0  0  0  0
  -40.0789   60.1185   63.6309 H   0  0  0  0  0  0  0  0  0  0  0  0
  -38.3668   61.5323   66.1320 O   0  0  0  0  0  0  0  0  0  0  0  0
  -36.9410   61.6340   65.9412 C   0  0  0  0  0  0  0  0  0  0  0  0
  -36.6187   64.0041   66.0873 O   0  0  0  0  0  0  0  0  0  0  0  0
  -36.6527   62.9020   65.1756 C   0  0  0  0  0  0  0  0  0  0  0  0
  -37.4546   64.0438   66.5778 H   0  0  0  0  0  0  0  0  0  0  0  0
  -35.6047   62.5016   63.0402 O   0  0  0  0  0  0  0  0  0  0  0  0
  -35.3579   62.8251   64.4026 C   0  0  0  0  0  0  0  0  0  0  0  0
  -34.7626   62.4568   62.5609 H   0  0  0  0  0  0  0  0  0  0  0  0
  -42.4524   59.2222   65.0024 O   0  0  0  0  0  0  0  0  0  0  0  0
  -43.9516   58.2976   63.6032 O   0  0  0  0  0  0  0  0  0  0  0  0
  -43.4725   58.3965   64.6998 C   0  0  0  0  0  0  0  0  0  0  0  0
  -43.9244   57.6051   65.8879 C   0  0  0  0  0  0  0  0  0  0  0  0
  -45.4459   57.5676   65.9886 C   0  0  0  0  0  0  0  0  0  0  0  0
  -46.0945   58.9413   66.0346 C   0  0  0  0  0  0  0  0  0  0  0  0
  -47.2008   59.1281   65.0025 C   0  0  0  0  0  0  0  0  0  0  0  0
  -48.1159   60.3051   65.2851 C   0  0  0  0  0  0  0  0  0  0  0  0
  -49.3634   59.9595   66.1032 C   0  0  0  0  0  0  0  0  0  0  0  0
  -50.4573   59.2110   65.3387 C   0  0  0  0  0  0  0  0  0  0  0  0
  -51.1595   60.0924   64.3496 C   0  0  0  0  0  0  0  0  0  0  0  0
  -51.1372   59.9756   63.0362 C   0  0  0  0  0  0  0  0  0  0  0  0
  -50.4031   58.9318   62.2551 C   0  0  0  0  0  0  0  0  0  0  0  0
  -49.6416   59.5192   61.0704 C   0  0  0  0  0  0  0  0  0  0  0  0
  -49.8470   58.7548   59.7744 C   0  0  0  0  0  0  0  0  0  0  0  0
  -49.2946   57.3401   59.8066 C   0  0  0  0  0  0  0  0  0  0  0  0
  -47.7961   57.2438   59.5727 C   0  0  0  0  0  0  0  0  0  0  0  0
  -47.4146   56.2407   58.4948 C   0  0  0  0  0  0  0  0  0  0  0  0
  -47.2062   56.8509   57.1229 C   0  0  0  0  0  0  0  0  0  0  0  0
  -46.9215   58.3259   57.1798 C   0  0  0  0  0  0  0  0  0  0  0  0
 21 22  1  0  0  0
  4  5  2  0  0  0
 25 24  1  0  0  0
 25 26  2  0  0  0
 25 27  1  0  0  0
 25 29  1  0  0  0
 22 20  1  0  0  0
  3  5  1  0  0  0
  3  2  1  0  0  0
 20 19  1  0  0  0
 24 23  1  0  0  0
 19 18  1  0  0  0
 18 17  1  0  0  0
 27 28  1  0  0  0
 17 16  1  0  0  0
 29 30  1  0  0  0
 16 15  1  0  0  0
 34 35  1  0  0  0
 34 36  1  0  0  0
 15 14  1  0  0  0
 31 32  1  0  0  0
 31 33  1  0  0  0
 14 13  1  0  0  0
 37  1  1  0  0  0
 37 39  1  0  0  0
 13 12  1  0  0  0
 38 39  2  0  0  0
 12 11  1  0  0  0
 11 10  1  0  0  0
 10  9  1  0  0  0
  9  8  1  0  0  0
  8  7  1  0  0  0
  7  6  1  0  0  0
  6  5  1  0  0  0
  2  1  1  0  0  0
  1 23  1  0  0  0
 30 32  1  0  0  0
 32 35  1  0  0  0
 39 40  1  0  0  0
 40 41  1  0  0  0
 41 42  1  0  0  0
 42 43  1  0  0  0
 43 44  1  0  0  0
 44 45  1  0  0  0
 45 46  1  0  0  0
 46 47  1  0  0  0
 47 48  2  0  0  0
 48 49  1  0  0  0
 49 50  1  0  0  0
 50 51  1  0  0  0
 51 52  1  0  0  0
 52 53  1  0  0  0
 53 54  1  0  0  0
 54 55  1  0  0  0
 55 56  1  0  0  0
M  CHG 1  26  -1
M  END
> <minimizedAffinity>
-8.36493

> <CNNscore>
0.3030550778

> <CNNaffinity>
7.4139089584

> <CNN_VS>
2.2468228340

> <CNNaffinity_variance>
1.6708141565

$$$$
/media/chris/experiments/cd1a-new-docking/inputs/ligands/7sh4_ligand.pdb


 56 55  0  0  0  0  0  0  0  0999 V2000
  -41.2975   60.3355   63.6762 C   0  0  0  0  0  0  0  0  0  0  0  0
  -40.7657   60.9535   62.4141 C   0  0  0  0  0  0  0  0  0  0  0  0
  -40.4142   59.8206   61.5918 O   0  0  0  0  0  0  0  0  0  0  0  0
  -40.9653   60.6599   59.5939 O   0  0  0  0  0  0  0  0  0  0  0  0
  -40.1999   60.0572   60.2971 C   0  0  0  0  0  0  0  0  0  0  0  0
  -38.8373   59.5857   59.8778 C   0  0  0  0  0  0  0  0  0  0  0  0
  -38.4335   58.2473   60.4727 C   0  0  0  0  0  0  0  0  0  0  0  0
  -37.2789   58.3627   61.4456 C   0  0  0  0  0  0  0  0  0  0  0  0
  -37.5943   57.8746   62.8414 C   0  0  0  0  0  0  0  0  0  0  0  0
  -36.3563   57.5177   63.6390 C   0  0  0  0  0  0  0  0  0  0  0  0
  -35.1256   58.2689   63.1936 C   0  0  0  0  0  0  0  0  0  0  0  0
  -34.4259   58.9752   64.3245 C   0  0  0  0  0  0  0  0  0  0  0  0
  -32.9732   58.5801   64.4720 C   0  0  0  0  0  0  0  0  0  0  0  0
  -32.1463   58.9238   63.2496 C   0  0  0  0  0  0  0  0  0  0  0  0
  -32.1504   60.3960   62.8946 C   0  0  0  0  0  0  0  0  0  0  0  0
  -31.5148   60.7058   61.5440 C   0  0  0  0  0  0  0  0  0  0  0  0
  -31.2416   62.1800   61.3153 C   0  0  0  0  0  0  0  0  0  0  0  0
  -31.9124   63.0814   62.3315 C   0  0  0  0  0  0  0  0  0  0  0  0
  -32.5009   64.3491   61.7281 C   0  0  0  0  0  0  0  0  0  0  0  0
  -33.9237   64.1793   61.2260 C   0  0  0  0  0  0  0  0  0  0  0  0
  -36.0044   64.7865   62.5057 C   0  0  0  0  0  0  0  0  0  0  0  0
  -34.8767   65.2874   61.6321 C   0  0  0  0  0  0  0  0  0  0  0  0
  -40.2165   60.1345   64.7072 C   0  0  0  0  0  0  0  0  0  0  0  0
  -39.3306   61.2760   64.6808 O   0  0  0  0  0  0  0  0  0  0  0  0
  -37.7651   61.1664   64.9951 P   0  0  0  0  0  0  0  0  0  0  0  0
  -37.5613   60.0253   65.9135 O   0  0  0  0  0  0  0  0  0  0  0  0
  -37.0332   61.1824   63.7057 O   0  0  0  0  0  0  0  0  0  0  0  0
  -37.2405   60.3773   63.2061 H   0  0  0  0  0  0  0  0  0  0  0  0
  -37.3979   62.5029   65.7835 O   0  0  0  0  0  0  0  0  0  0  0  0
  -36.0792   63.0737   65.6609 C   0  0  0  0  0  0  0  0  0  0  0  0
  -36.0849   63.1295   68.0566 O   0  0  0  0  0  0  0  0  0  0  0  0
  -35.8056   63.9072   66.8887 C   0  0  0  0  0  0  0  0  0  0  0  0
  -36.9986   62.8060   68.0187 H   0  0  0  0  0  0  0  0  0  0  0  0
  -33.5428   63.5065   67.6220 O   0  0  0  0  0  0  0  0  0  0  0  0
  -34.3859   64.4194   66.9311 C   0  0  0  0  0  0  0  0  0  0  0  0
  -32.6367   63.8523   67.6388 H   0  0  0  0  0  0  0  0  0  0  0  0
  -41.9568   59.0725   63.3295 O   0  0  0  0  0  0  0  0  0  0  0  0
  -42.9526   57.5928   64.7002 O   0  0  0  0  0  0  0  0  0  0  0  0
  -42.9460   58.6566   64.1434 C   0  0  0  0  0  0  0  0  0  0  0  0
  -44.0250   59.6851   64.2851 C   0  0  0  0  0  0  0  0  0  0  0  0
  -44.8503   59.4589   65.5478 C   0  0  0  0  0  0  0  0  0  0  0  0
  -46.3006   59.0923   65.2787 C   0  0  0  0  0  0  0  0  0  0  0  0
  -47.0187   60.0774   64.3634 C   0  0  0  0  0  0  0  0  0  0  0  0
  -48.2475   60.7143   64.9853 C   0  0  0  0  0  0  0  0  0  0  0  0
  -48.9812   59.8286   65.9963 C   0  0  0  0  0  0  0  0  0  0  0  0
  -50.3539   59.3246   65.5455 C   0  0  0  0  0  0  0  0  0  0  0  0
  -50.9725   60.2182   64.5126 C   0  0  0  0  0  0  0  0  0  0  0  0
  -51.1746   59.9301   63.2416 C   0  0  0  0  0  0  0  0  0  0  0  0
  -50.8279   58.6430   62.5623 C   0  0  0  0  0  0  0  0  0  0  0  0
  -49.4639   58.6938   61.8799 C   0  0  0  0  0  0  0  0  0  0  0  0
  -49.5181   59.1890   60.4454 C   0  0  0  0  0  0  0  0  0  0  0  0
  -49.7670   58.0879   59.4290 C   0  0  0  0  0  0  0  0  0  0  0  0
  -48.9463   56.8284   59.6515 C   0  0  0  0  0  0  0  0  0  0  0  0
  -47.5886   56.8614   58.9666 C   0  0  0  0  0  0  0  0  0  0  0  0
  -47.6494   57.1409   57.4780 C   0  0  0  0  0  0  0  0  0  0  0  0
  -46.8841   58.3740   57.0861 C   0  0  0  0  0  0  0  0  0  0  0  0
 21 22  1  0  0  0
  4  5  2  0  0  0
 25 24  1  0  0  0
 25 26  2  0  0  0
 25 27  1  0  0  0
 25 29  1  0  0  0
 22 20  1  0  0  0
  3  5  1  0  0  0
  3  2  1  0  0  0
 20 19  1  0  0  0
 24 23  1  0  0  0
 19 18  1  0  0  0
 18 17  1  0  0  0
 27 28  1  0  0  0
 17 16  1  0  0  0
 29 30  1  0  0  0
 16 15  1  0  0  0
 34 35  1  0  0  0
 34 36  1  0  0  0
 15 14  1  0  0  0
 31 32  1  0  0  0
 31 33  1  0  0  0
 14 13  1  0  0  0
 37  1  1  0  0  0
 37 39  1  0  0  0
 13 12  1  0  0  0
 38 39  2  0  0  0
 12 11  1  0  0  0
 11 10  1  0  0  0
 10  9  1  0  0  0
  9  8  1  0  0  0
  8  7  1  0  0  0
  7  6  1  0  0  0
  6  5  1  0  0  0
  2  1  1  0  0  0
  1 23  1  0  0  0
 30 32  1  0  0  0
 32 35  1  0  0  0
 39 40  1  0  0  0
 40 41  1  0  0  0
 41 42  1  0  0  0
 42 43  1  0  0  0
 43 44  1  0  0  0
 44 45  1  0  0  0
 45 46  1  0  0  0
 46 47  1  0  0  0
 47 48  2  0  0  0
 48 49  1  0  0  0
 49 50  1  0  0  0
 50 51  1  0  0  0
 51 52  1  0  0  0
 52 53  1  0  0  0
 53 54  1  0  0  0
 54 55  1  0  0  0
 55 56  1  0  0  0
M  CHG 1  26  -1
M  END
> <minimizedAffinity>
-8.51638

> <CNNscore>
0.2793708742

> <CNNaffinity>
6.8957571983

> <CNN_VS>
1.9264737368

> <CNNaffinity_variance>
0.7461133599

$$$$
/media/chris/experiments/cd1a-new-docking/inputs/ligands/7sh4_ligand.pdb


 56 55  0  0  0  0  0  0  0  0999 V2000
  -36.8016   62.3027   64.0830 C   0  0  0  0  0  0  0  0  0  0  0  0
  -36.1824   60.9381   64.1924 C   0  0  0  0  0  0  0  0  0  0  0  0
  -34.9025   61.0821   63.5410 O   0  0  0  0  0  0  0  0  0  0  0  0
  -33.6111   60.3146   65.1971 O   0  0  0  0  0  0  0  0  0  0  0  0
  -33.8916   60.3631   64.0297 C   0  0  0  0  0  0  0  0  0  0  0  0
  -33.2435   59.5379   62.9555 C   0  0  0  0  0  0  0  0  0  0  0  0
  -33.5054   58.0462   63.0760 C   0  0  0  0  0  0  0  0  0  0  0  0
  -34.7886   57.6194   62.3948 C   0  0  0  0  0  0  0  0  0  0  0  0
  -35.9923   57.5827   63.3088 C   0  0  0  0  0  0  0  0  0  0  0  0
  -37.3083   57.6059   62.5582 C   0  0  0  0  0  0  0  0  0  0  0  0
  -37.4133   58.7491   61.5785 C   0  0  0  0  0  0  0  0  0  0  0  0
  -37.8730   58.3130   60.2125 C   0  0  0  0  0  0  0  0  0  0  0  0
  -38.6715   59.3698   59.4819 C   0  0  0  0  0  0  0  0  0  0  0  0
  -40.1467   59.3308   59.8261 C   0  0  0  0  0  0  0  0  0  0  0  0
  -40.8111   57.9987   59.5482 C   0  0  0  0  0  0  0  0  0  0  0  0
  -41.5746   57.4307   60.7392 C   0  0  0  0  0  0  0  0  0  0  0  0
  -40.7160   56.6223   61.6928 C   0  0  0  0  0  0  0  0  0  0  0  0
  -41.4995   56.0067   62.8340 C   0  0  0  0  0  0  0  0  0  0  0  0
  -41.6254   56.9162   64.0482 C   0  0  0  0  0  0  0  0  0  0  0  0
  -42.8879   56.6781   64.8574 C   0  0  0  0  0  0  0  0  0  0  0  0
  -41.9092   58.5669   66.2030 C   0  0  0  0  0  0  0  0  0  0  0  0
  -43.0442   57.5770   66.0692 C   0  0  0  0  0  0  0  0  0  0  0  0
  -36.5696   63.1306   65.3210 C   0  0  0  0  0  0  0  0  0  0  0  0
  -35.4194   63.9784   65.1047 O   0  0  0  0  0  0  0  0  0  0  0  0
  -34.0826   63.8663   65.9778 P   0  0  0  0  0  0  0  0  0  0  0  0
  -33.8774   65.1576   66.6686 O   0  0  0  0  0  0  0  0  0  0  0  0
  -34.1647   62.6288   66.7905 O   0  0  0  0  0  0  0  0  0  0  0  0
  -34.8775   62.7167   67.4425 H   0  0  0  0  0  0  0  0  0  0  0  0
  -32.9024   63.6814   64.9216 O   0  0  0  0  0  0  0  0  0  0  0  0
  -32.7287   64.6404   63.8586 C   0  0  0  0  0  0  0  0  0  0  0  0
  -31.2733   62.8609   63.1821 O   0  0  0  0  0  0  0  0  0  0  0  0
  -32.0691   63.9446   62.6933 C   0  0  0  0  0  0  0  0  0  0  0  0
  -30.6337   63.1960   63.8299 H   0  0  0  0  0  0  0  0  0  0  0  0
  -34.3977   63.5915   62.1721 O   0  0  0  0  0  0  0  0  0  0  0  0
  -33.0713   63.4407   61.6826 C   0  0  0  0  0  0  0  0  0  0  0  0
  -35.0259   63.2628   61.5102 H   0  0  0  0  0  0  0  0  0  0  0  0
  -38.2311   62.1396   63.8007 O   0  0  0  0  0  0  0  0  0  0  0  0
  -38.8825   61.2547   65.7636 O   0  0  0  0  0  0  0  0  0  0  0  0
  -38.9075   61.2591   64.5630 C   0  0  0  0  0  0  0  0  0  0  0  0
  -39.7072   60.3003   63.7365 C   0  0  0  0  0  0  0  0  0  0  0  0
  -40.7776   61.0213   62.9233 C   0  0  0  0  0  0  0  0  0  0  0  0
  -42.0982   60.2734   62.8425 C   0  0  0  0  0  0  0  0  0  0  0  0
  -43.2157   60.9201   63.6529 C   0  0  0  0  0  0  0  0  0  0  0  0
  -44.3983   60.0055   63.9126 C   0  0  0  0  0  0  0  0  0  0  0  0
  -45.4506   60.5803   64.8651 C   0  0  0  0  0  0  0  0  0  0  0  0
  -46.8913   60.5286   64.3522 C   0  0  0  0  0  0  0  0  0  0  0  0
  -47.4719   59.1488   64.4369 C   0  0  0  0  0  0  0  0  0  0  0  0
  -48.7487   58.8262   64.3660 C   0  0  0  0  0  0  0  0  0  0  0  0
  -49.8903   59.7758   64.1837 C   0  0  0  0  0  0  0  0  0  0  0  0
  -50.5193   59.6710   62.7973 C   0  0  0  0  0  0  0  0  0  0  0  0
  -50.9076   58.2549   62.4097 C   0  0  0  0  0  0  0  0  0  0  0  0
  -50.6207   57.9201   60.9561 C   0  0  0  0  0  0  0  0  0  0  0  0
  -49.4304   58.6560   60.3636 C   0  0  0  0  0  0  0  0  0  0  0  0
  -49.1778   58.3208   58.9015 C   0  0  0  0  0  0  0  0  0  0  0  0
  -47.8387   57.6617   58.6368 C   0  0  0  0  0  0  0  0  0  0  0  0
  -47.1174   58.2618   57.4623 C   0  0  0  0  0  0  0  0  0  0  0  0
 21 22  1  0  0  0
  4  5  2  0  0  0
 25 24  1  0  0  0
 25 26  2  0  0  0
 25 27  1  0  0  0
 25 29  1  0  0  0
 22 20  1  0  0  0
  3  5  1  0  0  0
  3  2  1  0  0  0
 20 19  1  0  0  0
 24 23  1  0  0  0
 19 18  1  0  0  0
 18 17  1  0  0  0
 27 28  1  0  0  0
 17 16  1  0  0  0
 29 30  1  0  0  0
 16 15  1  0  0  0
 34 35  1  0  0  0
 34 36  1  0  0  0
 15 14  1  0  0  0
 31 32  1  0  0  0
 31 33  1  0  0  0
 14 13  1  0  0  0
 37  1  1  0  0  0
 37 39  1  0  0  0
 13 12  1  0  0  0
 38 39  2  0  0  0
 12 11  1  0  0  0
 11 10  1  0  0  0
 10  9  1  0  0  0
  9  8  1  0  0  0
  8  7  1  0  0  0
  7  6  1  0  0  0
  6  5  1  0  0  0
  2  1  1  0  0  0
  1 23  1  0  0  0
 30 32  1  0  0  0
 32 35  1  0  0  0
 39 40  1  0  0  0
 40 41  1  0  0  0
 41 42  1  0  0  0
 42 43  1  0  0  0
 43 44  1  0  0  0
 44 45  1  0  0  0
 45 46  1  0  0  0
 46 47  1  0  0  0
 47 48  2  0  0  0
 48 49  1  0  0  0
 49 50  1  0  0  0
 50 51  1  0  0  0
 51 52  1  0  0  0
 52 53  1  0  0  0
 53 54  1  0  0  0
 54 55  1  0  0  0
 55 56  1  0  0  0
M  CHG 1  26  -1
M  END
> <minimizedAffinity>
-7.89624

> <CNNscore>
0.2748092413

> <CNNaffinity>
7.2233948708

> <CNN_VS>
1.9850556850

> <CNNaffinity_variance>
1.0545215607

$$$$
