/media/chris/experiments/cd1a-new-docking/inputs/ligands/7sh4_ligand.pdb


 56 55  0  0  0  0  0  0  0  0999 V2000
  -41.2816   60.8631   63.3425 C   0  0  0  0  0  0  0  0  0  0  0  0
  -41.6646   61.1029   61.9095 C   0  0  0  0  0  0  0  0  0  0  0  0
  -41.3679   59.8515   61.2546 O   0  0  0  0  0  0  0  0  0  0  0  0
  -40.7970   60.9452   59.3899 O   0  0  0  0  0  0  0  0  0  0  0  0
  -40.9345   59.9166   59.9953 C   0  0  0  0  0  0  0  0  0  0  0  0
  -40.5285   58.5618   59.4905 C   0  0  0  0  0  0  0  0  0  0  0  0
  -39.0728   58.4686   59.0655 C   0  0  0  0  0  0  0  0  0  0  0  0
  -38.1162   58.5032   60.2387 C   0  0  0  0  0  0  0  0  0  0  0  0
  -38.4848   57.5656   61.3660 C   0  0  0  0  0  0  0  0  0  0  0  0
  -37.4578   57.5445   62.4800 C   0  0  0  0  0  0  0  0  0  0  0  0
  -36.2035   58.3145   62.1463 C   0  0  0  0  0  0  0  0  0  0  0  0
  -35.0620   58.0136   63.0812 C   0  0  0  0  0  0  0  0  0  0  0  0
  -33.7043   58.3201   62.4890 C   0  0  0  0  0  0  0  0  0  0  0  0
  -33.0078   59.4711   63.1865 C   0  0  0  0  0  0  0  0  0  0  0  0
  -31.5308   59.5819   62.8715 C   0  0  0  0  0  0  0  0  0  0  0  0
  -31.2123   60.5617   61.7479 C   0  0  0  0  0  0  0  0  0  0  0  0
  -29.7689   61.0266   61.7264 C   0  0  0  0  0  0  0  0  0  0  0  0
  -29.6093   62.5079   62.0014 C   0  0  0  0  0  0  0  0  0  0  0  0
  -30.9149   63.2075   62.3524 C   0  0  0  0  0  0  0  0  0  0  0  0
  -31.0438   63.5499   63.8260 C   0  0  0  0  0  0  0  0  0  0  0  0
  -30.8505   65.3428   65.5822 C   0  0  0  0  0  0  0  0  0  0  0  0
  -31.1257   65.0342   64.1280 C   0  0  0  0  0  0  0  0  0  0  0  0
  -39.8372   60.4559   63.4820 C   0  0  0  0  0  0  0  0  0  0  0  0
  -39.1310   61.4875   64.2069 O   0  0  0  0  0  0  0  0  0  0  0  0
  -37.6180   61.3193   64.7015 P   0  0  0  0  0  0  0  0  0  0  0  0
  -37.5335   60.0796   65.5031 O   0  0  0  0  0  0  0  0  0  0  0  0
  -36.7284   61.4687   63.5246 O   0  0  0  0  0  0  0  0  0  0  0  0
  -36.8716   60.7279   62.9151 H   0  0  0  0  0  0  0  0  0  0  0  0
  -37.3526   62.5534   65.6760 O   0  0  0  0  0  0  0  0  0  0  0  0
  -36.2166   63.4144   65.4567 C   0  0  0  0  0  0  0  0  0  0  0  0
  -36.0362   63.0487   67.8181 O   0  0  0  0  0  0  0  0  0  0  0  0
  -35.8070   64.0084   66.7820 C   0  0  0  0  0  0  0  0  0  0  0  0
  -36.9656   62.7716   67.8022 H   0  0  0  0  0  0  0  0  0  0  0  0
  -33.5718   63.5659   67.5738 O   0  0  0  0  0  0  0  0  0  0  0  0
  -34.3635   64.4511   66.7919 C   0  0  0  0  0  0  0  0  0  0  0  0
  -32.6496   63.8663   67.5682 H   0  0  0  0  0  0  0  0  0  0  0  0
  -42.1856   59.8515   63.8987 O   0  0  0  0  0  0  0  0  0  0  0  0
  -43.6072   61.4380   64.6213 O   0  0  0  0  0  0  0  0  0  0  0  0
  -43.2307   60.2978   64.6216 C   0  0  0  0  0  0  0  0  0  0  0  0
  -43.8768   59.2006   65.4095 C   0  0  0  0  0  0  0  0  0  0  0  0
  -44.9219   59.7476   66.3766 C   0  0  0  0  0  0  0  0  0  0  0  0
  -46.3134   59.1717   66.1707 C   0  0  0  0  0  0  0  0  0  0  0  0
  -46.7425   59.1220   64.7088 C   0  0  0  0  0  0  0  0  0  0  0  0
  -47.6227   60.2828   64.2844 C   0  0  0  0  0  0  0  0  0  0  0  0
  -48.7817   60.5852   65.2385 C   0  0  0  0  0  0  0  0  0  0  0  0
  -49.9286   59.5725   65.2120 C   0  0  0  0  0  0  0  0  0  0  0  0
  -51.1582   60.1287   64.5589 C   0  0  0  0  0  0  0  0  0  0  0  0
  -51.4259   60.1432   63.2676 C   0  0  0  0  0  0  0  0  0  0  0  0
  -50.5533   59.6027   62.1792 C   0  0  0  0  0  0  0  0  0  0  0  0
  -50.8540   58.1403   61.8639 C   0  0  0  0  0  0  0  0  0  0  0  0
  -50.4521   57.7245   60.4596 C   0  0  0  0  0  0  0  0  0  0  0  0
  -48.9492   57.6662   60.2475 C   0  0  0  0  0  0  0  0  0  0  0  0
  -48.4403   56.3394   59.7087 C   0  0  0  0  0  0  0  0  0  0  0  0
  -47.3749   56.4911   58.6336 C   0  0  0  0  0  0  0  0  0  0  0  0
  -47.8172   57.2984   57.4292 C   0  0  0  0  0  0  0  0  0  0  0  0
  -46.9246   58.4777   57.1602 C   0  0  0  0  0  0  0  0  0  0  0  0
 21 22  1  0  0  0
  4  5  2  0  0  0
 25 24  1  0  0  0
 25 26  2  0  0  0
 25 27  1  0  0  0
 25 29  1  0  0  0
 22 20  1  0  0  0
  3  5  1  0  0  0
  3  2  1  0  0  0
 20 19  1  0  0  0
 24 23  1  0  0  0
 19 18  1  0  0  0
 18 17  1  0  0  0
 27 28  1  0  0  0
 17 16  1  0  0  0
 29 30  1  0  0  0
 16 15  1  0  0  0
 34 35  1  0  0  0
 34 36  1  0  0  0
 15 14  1  0  0  0
 31 32  1  0  0  0
 31 33  1  0  0  0
 14 13  1  0  0  0
 37  1  1  0  0  0
 37 39  1  0  0  0
 13 12  1  0  0  0
 38 39  2  0  0  0
 12 11  1  0  0  0
 11 10  1  0  0  0
 10  9  1  0  0  0
  9  8  1  0  0  0
  8  7  1  0  0  0
  7  6  1  0  0  0
  6  5  1  0  0  0
  2  1  1  0  0  0
  1 23  1  0  0  0
 30 32  1  0  0  0
 32 35  1  0  0  0
 39 40  1  0  0  0
 40 41  1  0  0  0
 41 42  1  0  0  0
 42 43  1  0  0  0
 43 44  1  0  0  0
 44 45  1  0  0  0
 45 46  1  0  0  0
 46 47  1  0  0  0
 47 48  2  0  0  0
 48 49  1  0  0  0
 49 50  1  0  0  0
 50 51  1  0  0  0
 51 52  1  0  0  0
 52 53  1  0  0  0
 53 54  1  0  0  0
 54 55  1  0  0  0
 55 56  1  0  0  0
M  CHG 1  26  -1
M  END
> <minimizedAffinity>
-8.77135

> <CNNscore>
0.5482577085

> <CNNaffinity>
7.0111007690

> <CNN_VS>
3.8438899517

> <CNNaffinity_variance>
0.5220429897

$$$$
/media/chris/experiments/cd1a-new-docking/inputs/ligands/7sh4_ligand.pdb


 56 55  0  0  0  0  0  0  0  0999 V2000
  -40.6624   60.2352   65.4455 C   0  0  0  0  0  0  0  0  0  0  0  0
  -40.9331   60.5887   64.0104 C   0  0  0  0  0  0  0  0  0  0  0  0
  -41.8661   61.6868   64.0912 O   0  0  0  0  0  0  0  0  0  0  0  0
  -42.8921   61.7103   62.1048 O   0  0  0  0  0  0  0  0  0  0  0  0
  -42.9394   61.6270   63.3025 C   0  0  0  0  0  0  0  0  0  0  0  0
  -44.1779   61.3192   64.0939 C   0  0  0  0  0  0  0  0  0  0  0  0
  -44.4405   59.8348   64.2831 C   0  0  0  0  0  0  0  0  0  0  0  0
  -44.6302   59.4536   65.7361 C   0  0  0  0  0  0  0  0  0  0  0  0
  -45.4045   58.1718   65.9440 C   0  0  0  0  0  0  0  0  0  0  0  0
  -46.9038   58.3587   65.8277 C   0  0  0  0  0  0  0  0  0  0  0  0
  -47.3944   59.6358   66.4649 C   0  0  0  0  0  0  0  0  0  0  0  0
  -48.5616   60.2467   65.7355 C   0  0  0  0  0  0  0  0  0  0  0  0
  -49.8650   59.5155   65.9696 C   0  0  0  0  0  0  0  0  0  0  0  0
  -50.4346   58.9137   64.7009 C   0  0  0  0  0  0  0  0  0  0  0  0
  -50.9884   59.9332   63.7278 C   0  0  0  0  0  0  0  0  0  0  0  0
  -50.7103   59.6037   62.2655 C   0  0  0  0  0  0  0  0  0  0  0  0
  -50.8116   58.1267   61.9366 C   0  0  0  0  0  0  0  0  0  0  0  0
  -50.2564   57.7743   60.5718 C   0  0  0  0  0  0  0  0  0  0  0  0
  -49.2226   58.7670   60.0587 C   0  0  0  0  0  0  0  0  0  0  0  0
  -48.4813   58.2883   58.8231 C   0  0  0  0  0  0  0  0  0  0  0  0
  -47.2481   56.3362   57.8208 C   0  0  0  0  0  0  0  0  0  0  0  0
  -47.5083   57.1505   59.0678 C   0  0  0  0  0  0  0  0  0  0  0  0
  -39.1900   60.2592   65.7666 C   0  0  0  0  0  0  0  0  0  0  0  0
  -38.7113   61.6180   65.6530 O   0  0  0  0  0  0  0  0  0  0  0  0
  -37.3577   61.9998   64.8888 P   0  0  0  0  0  0  0  0  0  0  0  0
  -36.2891   61.0997   65.3730 O   0  0  0  0  0  0  0  0  0  0  0  0
  -37.6458   62.0461   63.4350 O   0  0  0  0  0  0  0  0  0  0  0  0
  -37.8629   61.1547   63.1200 H   0  0  0  0  0  0  0  0  0  0  0  0
  -37.0064   63.4803   65.3659 O   0  0  0  0  0  0  0  0  0  0  0  0
  -35.6402   63.9416   65.3400 C   0  0  0  0  0  0  0  0  0  0  0  0
  -35.6608   63.2107   67.6221 O   0  0  0  0  0  0  0  0  0  0  0  0
  -35.2180   64.2581   66.7537 C   0  0  0  0  0  0  0  0  0  0  0  0
  -36.6203   63.1007   67.5327 H   0  0  0  0  0  0  0  0  0  0  0  0
  -33.1545   63.4048   67.6661 O   0  0  0  0  0  0  0  0  0  0  0  0
  -33.7249   64.4433   66.8799 C   0  0  0  0  0  0  0  0  0  0  0  0
  -32.1966   63.5409   67.7356 H   0  0  0  0  0  0  0  0  0  0  0  0
  -41.2545   58.9215   65.7168 O   0  0  0  0  0  0  0  0  0  0  0  0
  -39.7206   57.8270   64.4882 O   0  0  0  0  0  0  0  0  0  0  0  0
  -40.8190   57.8893   64.9692 C   0  0  0  0  0  0  0  0  0  0  0  0
  -41.8601   56.8227   64.8256 C   0  0  0  0  0  0  0  0  0  0  0  0
  -42.3664   56.7255   63.3899 C   0  0  0  0  0  0  0  0  0  0  0  0
  -41.4865   55.8820   62.4819 C   0  0  0  0  0  0  0  0  0  0  0  0
  -41.1092   56.5789   61.1797 C   0  0  0  0  0  0  0  0  0  0  0  0
  -41.6546   57.9894   61.0543 C   0  0  0  0  0  0  0  0  0  0  0  0
  -41.0030   58.8283   59.9512 C   0  0  0  0  0  0  0  0  0  0  0  0
  -39.9621   58.0942   59.1032 C   0  0  0  0  0  0  0  0  0  0  0  0
  -38.6506   58.8198   59.0657 C   0  0  0  0  0  0  0  0  0  0  0  0
  -37.7196   58.8121   59.9997 C   0  0  0  0  0  0  0  0  0  0  0  0
  -37.7783   58.0718   61.2985 C   0  0  0  0  0  0  0  0  0  0  0  0
  -36.8269   58.6502   62.3420 C   0  0  0  0  0  0  0  0  0  0  0  0
  -35.9762   57.6026   63.0384 C   0  0  0  0  0  0  0  0  0  0  0  0
  -35.6464   57.9453   64.4810 C   0  0  0  0  0  0  0  0  0  0  0  0
  -34.1602   58.0620   64.7765 C   0  0  0  0  0  0  0  0  0  0  0  0
  -33.4999   59.2534   64.0993 C   0  0  0  0  0  0  0  0  0  0  0  0
  -32.4991   58.8813   63.0234 C   0  0  0  0  0  0  0  0  0  0  0  0
  -31.7837   60.0758   62.4566 C   0  0  0  0  0  0  0  0  0  0  0  0
 21 22  1  0  0  0
  4  5  2  0  0  0
 25 24  1  0  0  0
 25 26  2  0  0  0
 25 27  1  0  0  0
 25 29  1  0  0  0
 22 20  1  0  0  0
  3  5  1  0  0  0
  3  2  1  0  0  0
 20 19  1  0  0  0
 24 23  1  0  0  0
 19 18  1  0  0  0
 18 17  1  0  0  0
 27 28  1  0  0  0
 17 16  1  0  0  0
 29 30  1  0  0  0
 16 15  1  0  0  0
 34 35  1  0  0  0
 34 36  1  0  0  0
 15 14  1  0  0  0
 31 32  1  0  0  0
 31 33  1  0  0  0
 14 13  1  0  0  0
 37  1  1  0  0  0
 37 39  1  0  0  0
 13 12  1  0  0  0
 38 39  2  0  0  0
 12 11  1  0  0  0
 11 10  1  0  0  0
 10  9  1  0  0  0
  9  8  1  0  0  0
  8  7  1  0  0  0
  7  6  1  0  0  0
  6  5  1  0  0  0
  2  1  1  0  0  0
  1 23  1  0  0  0
 30 32  1  0  0  0
 32 35  1  0  0  0
 39 40  1  0  0  0
 40 41  1  0  0  0
 41 42  1  0  0  0
 42 43  1  0  0  0
 43 44  1  0  0  0
 44 45  1  0  0  0
 45 46  1  0  0  0
 46 47  1  0  0  0
 47 48  2  0  0  0
 48 49  1  0  0  0
 49 50  1  0  0  0
 50 51  1  0  0  0
 51 52  1  0  0  0
 52 53  1  0  0  0
 53 54  1  0  0  0
 54 55  1  0  0  0
 55 56  1  0  0  0
M  CHG 1  26  -1
M  END
> <minimizedAffinity>
-8.87528

> <CNNscore>
0.5442759395

> <CNNaffinity>
7.5624785423

> <CNN_VS>
4.1160750389

> <CNNaffinity_variance>
1.5036287308

$$$$
/media/chris/experiments/cd1a-new-docking/inputs/ligands/7sh4_ligand.pdb


 56 55  0  0  0  0  0  0  0  0999 V2000
  -40.6721   59.9181   65.1450 C   0  0  0  0  0  0  0  0  0  0  0  0
  -41.6622   59.6818   66.2503 C   0  0  0  0  0  0  0  0  0  0  0  0
  -42.0208   58.2912   66.1064 O   0  0  0  0  0  0  0  0  0  0  0  0
  -43.1264   57.1031   64.5685 O   0  0  0  0  0  0  0  0  0  0  0  0
  -43.0824   58.0164   65.3479 C   0  0  0  0  0  0  0  0  0  0  0  0
  -44.2389   58.9118   65.6881 C   0  0  0  0  0  0  0  0  0  0  0  0
  -45.3267   58.9502   64.6282 C   0  0  0  0  0  0  0  0  0  0  0  0
  -46.3206   60.0710   64.8486 C   0  0  0  0  0  0  0  0  0  0  0  0
  -47.5326   59.6732   65.6600 C   0  0  0  0  0  0  0  0  0  0  0  0
  -48.4259   58.6801   64.9446 C   0  0  0  0  0  0  0  0  0  0  0  0
  -49.8111   58.5926   65.5372 C   0  0  0  0  0  0  0  0  0  0  0  0
  -50.5549   59.9011   65.4901 C   0  0  0  0  0  0  0  0  0  0  0  0
  -50.6909   60.4644   64.0929 C   0  0  0  0  0  0  0  0  0  0  0  0
  -51.5542   59.6011   63.1953 C   0  0  0  0  0  0  0  0  0  0  0  0
  -50.7895   58.8953   62.0952 C   0  0  0  0  0  0  0  0  0  0  0  0
  -49.6903   59.7443   61.4666 C   0  0  0  0  0  0  0  0  0  0  0  0
  -49.3448   59.3498   60.0435 C   0  0  0  0  0  0  0  0  0  0  0  0
  -50.0605   58.0996   59.5746 C   0  0  0  0  0  0  0  0  0  0  0  0
  -49.1611   56.8737   59.4987 C   0  0  0  0  0  0  0  0  0  0  0  0
  -47.6803   57.2076   59.4661 C   0  0  0  0  0  0  0  0  0  0  0  0
  -47.0629   58.2034   57.2383 C   0  0  0  0  0  0  0  0  0  0  0  0
  -47.0078   56.9805   58.1254 C   0  0  0  0  0  0  0  0  0  0  0  0
  -39.2509   59.9097   65.6467 C   0  0  0  0  0  0  0  0  0  0  0  0
  -38.7702   61.2713   65.7051 O   0  0  0  0  0  0  0  0  0  0  0  0
  -37.5901   61.8154   64.7706 P   0  0  0  0  0  0  0  0  0  0  0  0
  -36.3956   60.9763   65.0062 O   0  0  0  0  0  0  0  0  0  0  0  0
  -38.1143   61.9367   63.3888 O   0  0  0  0  0  0  0  0  0  0  0  0
  -38.3161   61.0540   63.0411 H   0  0  0  0  0  0  0  0  0  0  0  0
  -37.2717   63.2840   65.3043 O   0  0  0  0  0  0  0  0  0  0  0  0
  -35.9064   63.7409   65.3881 C   0  0  0  0  0  0  0  0  0  0  0  0
  -35.8671   62.9268   67.6416 O   0  0  0  0  0  0  0  0  0  0  0  0
  -35.6038   64.0742   66.8284 C   0  0  0  0  0  0  0  0  0  0  0  0
  -36.7836   62.6391   67.5075 H   0  0  0  0  0  0  0  0  0  0  0  0
  -33.4213   63.5486   67.7110 O   0  0  0  0  0  0  0  0  0  0  0  0
  -34.1798   64.5362   67.0246 C   0  0  0  0  0  0  0  0  0  0  0  0
  -32.5111   63.8631   67.8275 H   0  0  0  0  0  0  0  0  0  0  0  0
  -41.0073   61.1856   64.4884 O   0  0  0  0  0  0  0  0  0  0  0  0
  -42.9698   61.7446   63.5417 O   0  0  0  0  0  0  0  0  0  0  0  0
  -41.9324   61.1408   63.5106 C   0  0  0  0  0  0  0  0  0  0  0  0
  -41.5049   60.2644   62.3742 C   0  0  0  0  0  0  0  0  0  0  0  0
  -41.5570   61.0090   61.0439 C   0  0  0  0  0  0  0  0  0  0  0  0
  -40.7927   60.3231   59.9234 C   0  0  0  0  0  0  0  0  0  0  0  0
  -41.1590   58.8541   59.7458 C   0  0  0  0  0  0  0  0  0  0  0  0
  -39.9925   57.9009   59.9287 C   0  0  0  0  0  0  0  0  0  0  0  0
  -40.0341   57.0847   61.2237 C   0  0  0  0  0  0  0  0  0  0  0  0
  -38.8238   57.2600   62.1434 C   0  0  0  0  0  0  0  0  0  0  0  0
  -37.9884   58.4439   61.7583 C   0  0  0  0  0  0  0  0  0  0  0  0
  -36.7038   58.6144   62.0034 C   0  0  0  0  0  0  0  0  0  0  0  0
  -35.8071   57.6548   62.7199 C   0  0  0  0  0  0  0  0  0  0  0  0
  -35.7432   57.9269   64.2201 C   0  0  0  0  0  0  0  0  0  0  0  0
  -34.3291   57.9710   64.7719 C   0  0  0  0  0  0  0  0  0  0  0  0
  -33.4719   59.0688   64.1657 C   0  0  0  0  0  0  0  0  0  0  0  0
  -32.3240   58.5684   63.3047 C   0  0  0  0  0  0  0  0  0  0  0  0
  -31.3013   59.6448   62.9740 C   0  0  0  0  0  0  0  0  0  0  0  0
  -31.8812   60.8621   62.2815 C   0  0  0  0  0  0  0  0  0  0  0  0
  -31.0564   61.3111   61.1076 C   0  0  0  0  0  0  0  0  0  0  0  0
 21 22  1  0  0  0
  4  5  2  0  0  0
 25 24  1  0  0  0
 25 26  2  0  0  0
 25 27  1  0  0  0
 25 29  1  0  0  0
 22 20  1  0  0  0
  3  5  1  0  0  0
  3  2  1  0  0  0
 20 19  1  0  0  0
 24 23  1  0  0  0
 19 18  1  0  0  0
 18 17  1  0  0  0
 27 28  1  0  0  0
 17 16  1  0  0  0
 29 30  1  0  0  0
 16 15  1  0  0  0
 34 35  1  0  0  0
 34 36  1  0  0  0
 15 14  1  0  0  0
 31 32  1  0  0  0
 31 33  1  0  0  0
 14 13  1  0  0  0
 37  1  1  0  0  0
 37 39  1  0  0  0
 13 12  1  0  0  0
 38 39  2  0  0  0
 12 11  1  0  0  0
 11 10  1  0  0  0
 10  9  1  0  0  0
  9  8  1  0  0  0
  8  7  1  0  0  0
  7  6  1  0  0  0
  6  5  1  0  0  0
  2  1  1  0  0  0
  1 23  1  0  0  0
 30 32  1  0  0  0
 32 35  1  0  0  0
 39 40  1  0  0  0
 40 41  1  0  0  0
 41 42  1  0  0  0
 42 43  1  0  0  0
 43 44  1  0  0  0
 44 45  1  0  0  0
 45 46  1  0  0  0
 46 47  1  0  0  0
 47 48  2  0  0  0
 48 49  1  0  0  0
 49 50  1  0  0  0
 50 51  1  0  0  0
 51 52  1  0  0  0
 52 53  1  0  0  0
 53 54  1  0  0  0
 54 55  1  0  0  0
 55 56  1  0  0  0
M  CHG 1  26  -1
M  END
> <minimizedAffinity>
-8.83591

> <CNNscore>
0.4053018391

> <CNNaffinity>
7.3190193176

> <CNN_VS>
2.9664120674

> <CNNaffinity_variance>
1.1572539806

$$$$
/media/chris/experiments/cd1a-new-docking/inputs/ligands/7sh4_ligand.pdb


 56 55  0  0  0  0  0  0  0  0999 V2000
  -41.2586   56.9909   63.9867 C   0  0  0  0  0  0  0  0  0  0  0  0
  -42.3171   56.6372   64.9928 C   0  0  0  0  0  0  0  0  0  0  0  0
  -43.5273   57.1930   64.4364 O   0  0  0  0  0  0  0  0  0  0  0  0
  -44.5832   57.5571   66.3733 O   0  0  0  0  0  0  0  0  0  0  0  0
  -44.2992   57.9042   65.2587 C   0  0  0  0  0  0  0  0  0  0  0  0
  -44.6534   59.2334   64.6565 C   0  0  0  0  0  0  0  0  0  0  0  0
  -45.8524   59.9074   65.3019 C   0  0  0  0  0  0  0  0  0  0  0  0
  -47.0317   60.0323   64.3606 C   0  0  0  0  0  0  0  0  0  0  0  0
  -48.2920   60.5539   65.0128 C   0  0  0  0  0  0  0  0  0  0  0  0
  -49.0019   59.5103   65.8512 C   0  0  0  0  0  0  0  0  0  0  0  0
  -50.4374   59.2932   65.4390 C   0  0  0  0  0  0  0  0  0  0  0  0
  -50.9727   60.3978   64.5667 C   0  0  0  0  0  0  0  0  0  0  0  0
  -51.5593   59.9027   63.2633 C   0  0  0  0  0  0  0  0  0  0  0  0
  -50.5711   59.0955   62.4460 C   0  0  0  0  0  0  0  0  0  0  0  0
  -49.6737   59.9324   61.5586 C   0  0  0  0  0  0  0  0  0  0  0  0
  -49.4434   59.3338   60.1756 C   0  0  0  0  0  0  0  0  0  0  0  0
  -50.1606   58.0173   59.9466 C   0  0  0  0  0  0  0  0  0  0  0  0
  -49.2504   56.8104   60.0468 C   0  0  0  0  0  0  0  0  0  0  0  0
  -47.8590   57.0464   59.4762 C   0  0  0  0  0  0  0  0  0  0  0  0
  -47.5514   56.1989   58.2546 C   0  0  0  0  0  0  0  0  0  0  0  0
  -47.0814   58.4681   57.2718 C   0  0  0  0  0  0  0  0  0  0  0  0
  -47.0167   56.9721   57.0639 C   0  0  0  0  0  0  0  0  0  0  0  0
  -40.6338   58.3329   64.2702 C   0  0  0  0  0  0  0  0  0  0  0  0
  -41.1632   59.2993   63.3352 O   0  0  0  0  0  0  0  0  0  0  0  0
  -40.5975   60.7919   63.2171 P   0  0  0  0  0  0  0  0  0  0  0  0
  -40.2789   61.0497   61.7963 O   0  0  0  0  0  0  0  0  0  0  0  0
  -41.5421   61.6998   63.9114 O   0  0  0  0  0  0  0  0  0  0  0  0
  -42.3850   61.7176   63.4317 H   0  0  0  0  0  0  0  0  0  0  0  0
  -39.2285   60.7908   64.0350 O   0  0  0  0  0  0  0  0  0  0  0  0
  -38.0328   61.3358   63.4409 C   0  0  0  0  0  0  0  0  0  0  0  0
  -37.8766   61.9741   65.7454 O   0  0  0  0  0  0  0  0  0  0  0  0
  -37.3958   62.2782   64.4326 C   0  0  0  0  0  0  0  0  0  0  0  0
  -38.8454   62.0196   65.7534 H   0  0  0  0  0  0  0  0  0  0  0  0
  -35.4298   61.7825   63.1258 O   0  0  0  0  0  0  0  0  0  0  0  0
  -35.8877   62.2120   64.4016 C   0  0  0  0  0  0  0  0  0  0  0  0
  -34.4605   61.7463   63.1255 H   0  0  0  0  0  0  0  0  0  0  0  0
  -41.8587   56.9445   62.6497 O   0  0  0  0  0  0  0  0  0  0  0  0
  -41.0368   54.9269   62.0890 O   0  0  0  0  0  0  0  0  0  0  0  0
  -41.3533   56.0445   61.7845 C   0  0  0  0  0  0  0  0  0  0  0  0
  -41.2511   56.5972   60.3966 C   0  0  0  0  0  0  0  0  0  0  0  0
  -40.5794   57.9667   60.3885 C   0  0  0  0  0  0  0  0  0  0  0  0
  -39.1078   57.9292   60.0103 C   0  0  0  0  0  0  0  0  0  0  0  0
  -38.1786   58.3831   61.1304 C   0  0  0  0  0  0  0  0  0  0  0  0
  -37.8652   57.3021   62.1481 C   0  0  0  0  0  0  0  0  0  0  0  0
  -37.1240   57.7960   63.3938 C   0  0  0  0  0  0  0  0  0  0  0  0
  -35.5979   57.8040   63.2835 C   0  0  0  0  0  0  0  0  0  0  0  0
  -34.9539   58.5530   64.4115 C   0  0  0  0  0  0  0  0  0  0  0  0
  -33.6771   58.8637   64.5229 C   0  0  0  0  0  0  0  0  0  0  0  0
  -32.5991   58.5327   63.5396 C   0  0  0  0  0  0  0  0  0  0  0  0
  -32.6549   59.4147   62.2956 C   0  0  0  0  0  0  0  0  0  0  0  0
  -31.4356   60.3034   62.1233 C   0  0  0  0  0  0  0  0  0  0  0  0
  -31.7419   61.7871   62.2332 C   0  0  0  0  0  0  0  0  0  0  0  0
  -31.0310   62.6545   61.2076 C   0  0  0  0  0  0  0  0  0  0  0  0
  -29.6413   63.0926   61.6443 C   0  0  0  0  0  0  0  0  0  0  0  0
  -29.4959   63.3017   63.1386 C   0  0  0  0  0  0  0  0  0  0  0  0
  -29.0528   64.6945   63.4904 C   0  0  0  0  0  0  0  0  0  0  0  0
 21 22  1  0  0  0
  4  5  2  0  0  0
 25 24  1  0  0  0
 25 26  2  0  0  0
 25 27  1  0  0  0
 25 29  1  0  0  0
 22 20  1  0  0  0
  3  5  1  0  0  0
  3  2  1  0  0  0
 20 19  1  0  0  0
 24 23  1  0  0  0
 19 18  1  0  0  0
 18 17  1  0  0  0
 27 28  1  0  0  0
 17 16  1  0  0  0
 29 30  1  0  0  0
 16 15  1  0  0  0
 34 35  1  0  0  0
 34 36  1  0  0  0
 15 14  1  0  0  0
 31 32  1  0  0  0
 31 33  1  0  0  0
 14 13  1  0  0  0
 37  1  1  0  0  0
 37 39  1  0  0  0
 13 12  1  0  0  0
 38 39  2  0  0  0
 12 11  1  0  0  0
 11 10  1  0  0  0
 10  9  1  0  0  0
  9  8  1  0  0  0
  8  7  1  0  0  0
  7  6  1  0  0  0
  6  5  1  0  0  0
  2  1  1  0  0  0
  1 23  1  0  0  0
 30 32  1  0  0  0
 32 35  1  0  0  0
 39 40  1  0  0  0
 40 41  1  0  0  0
 41 42  1  0  0  0
 42 43  1  0  0  0
 43 44  1  0  0  0
 44 45  1  0  0  0
 45 46  1  0  0  0
 46 47  1  0  0  0
 47 48  2  0  0  0
 48 49  1  0  0  0
 49 50  1  0  0  0
 50 51  1  0  0  0
 51 52  1  0  0  0
 52 53  1  0  0  0
 53 54  1  0  0  0
 54 55  1  0  0  0
 55 56  1  0  0  0
M  CHG 1  26  -1
M  END
> <minimizedAffinity>
-8.55149

> <CNNscore>
0.4036985338

> <CNNaffinity>
6.8907799721

> <CNN_VS>
2.7817978859

> <CNNaffinity_variance>
1.1070140600

$$$$
/media/chris/experiments/cd1a-new-docking/inputs/ligands/7sh4_ligand.pdb


 56 55  0  0  0  0  0  0  0  0999 V2000
  -40.6928   60.4796   63.4258 C   0  0  0  0  0  0  0  0  0  0  0  0
  -40.2366   59.4518   64.4223 C   0  0  0  0  0  0  0  0  0  0  0  0
  -41.3977   59.2282   65.2499 O   0  0  0  0  0  0  0  0  0  0  0  0
  -42.8951   57.6834   65.8585 O   0  0  0  0  0  0  0  0  0  0  0  0
  -41.8807   57.9861   65.2903 C   0  0  0  0  0  0  0  0  0  0  0  0
  -41.0647   57.0585   64.4367 C   0  0  0  0  0  0  0  0  0  0  0  0
  -41.8762   56.2810   63.4142 C   0  0  0  0  0  0  0  0  0  0  0  0
  -41.0452   55.8165   62.2368 C   0  0  0  0  0  0  0  0  0  0  0  0
  -41.4172   56.4643   60.9224 C   0  0  0  0  0  0  0  0  0  0  0  0
  -41.7900   57.9260   61.0658 C   0  0  0  0  0  0  0  0  0  0  0  0
  -41.0347   58.8273   60.1199 C   0  0  0  0  0  0  0  0  0  0  0  0
  -40.2435   58.0671   59.0886 C   0  0  0  0  0  0  0  0  0  0  0  0
  -38.8313   58.5810   58.9166 C   0  0  0  0  0  0  0  0  0  0  0  0
  -38.3417   59.3610   60.1200 C   0  0  0  0  0  0  0  0  0  0  0  0
  -37.3429   58.6122   60.9772 C   0  0  0  0  0  0  0  0  0  0  0  0
  -37.9845   57.6810   61.9996 C   0  0  0  0  0  0  0  0  0  0  0  0
  -37.2379   57.6048   63.3176 C   0  0  0  0  0  0  0  0  0  0  0  0
  -35.7473   57.8377   63.1795 C   0  0  0  0  0  0  0  0  0  0  0  0
  -35.0258   57.9797   64.5124 C   0  0  0  0  0  0  0  0  0  0  0  0
  -33.6112   58.5159   64.3836 C   0  0  0  0  0  0  0  0  0  0  0  0
  -31.8148   59.4978   62.9191 C   0  0  0  0  0  0  0  0  0  0  0  0
  -33.2173   58.9368   62.9804 C   0  0  0  0  0  0  0  0  0  0  0  0
  -39.5460   61.2996   62.8928 C   0  0  0  0  0  0  0  0  0  0  0  0
  -38.3541   60.9750   63.6428 O   0  0  0  0  0  0  0  0  0  0  0  0
  -37.1664   62.0216   63.8795 P   0  0  0  0  0  0  0  0  0  0  0  0
  -35.8841   61.3069   63.7016 O   0  0  0  0  0  0  0  0  0  0  0  0
  -37.4350   63.2202   63.0488 O   0  0  0  0  0  0  0  0  0  0  0  0
  -37.3712   62.9839   62.1102 H   0  0  0  0  0  0  0  0  0  0  0  0
  -37.2809   62.4512   65.4109 O   0  0  0  0  0  0  0  0  0  0  0  0
  -36.1080   62.4500   66.2501 C   0  0  0  0  0  0  0  0  0  0  0  0
  -36.2243   64.2899   67.7811 O   0  0  0  0  0  0  0  0  0  0  0  0
  -35.7081   63.8815   66.5108 C   0  0  0  0  0  0  0  0  0  0  0  0
  -37.1854   64.1600   67.7964 H   0  0  0  0  0  0  0  0  0  0  0  0
  -33.5961   63.4878   67.6077 O   0  0  0  0  0  0  0  0  0  0  0  0
  -34.2115   64.0769   66.4693 C   0  0  0  0  0  0  0  0  0  0  0  0
  -32.6367   63.6235   67.5632 H   0  0  0  0  0  0  0  0  0  0  0  0
  -41.7100   61.3212   64.0636 O   0  0  0  0  0  0  0  0  0  0  0  0
  -42.8429   61.7261   62.1629 O   0  0  0  0  0  0  0  0  0  0  0  0
  -42.8264   61.5736   63.3538 C   0  0  0  0  0  0  0  0  0  0  0  0
  -44.0444   61.6228   64.2233 C   0  0  0  0  0  0  0  0  0  0  0  0
  -44.7175   60.2573   64.3202 C   0  0  0  0  0  0  0  0  0  0  0  0
  -46.0770   60.2871   64.9992 C   0  0  0  0  0  0  0  0  0  0  0  0
  -47.1485   59.5004   64.2531 C   0  0  0  0  0  0  0  0  0  0  0  0
  -48.2049   58.8890   65.1546 C   0  0  0  0  0  0  0  0  0  0  0  0
  -49.1061   59.9062   65.8604 C   0  0  0  0  0  0  0  0  0  0  0  0
  -50.5946   59.8041   65.5206 C   0  0  0  0  0  0  0  0  0  0  0  0
  -50.9199   60.4511   64.2078 C   0  0  0  0  0  0  0  0  0  0  0  0
  -51.1096   59.8402   63.0545 C   0  0  0  0  0  0  0  0  0  0  0  0
  -51.0407   58.3649   62.8153 C   0  0  0  0  0  0  0  0  0  0  0  0
  -50.7392   58.0247   61.3586 C   0  0  0  0  0  0  0  0  0  0  0  0
  -49.6502   58.8866   60.7443 C   0  0  0  0  0  0  0  0  0  0  0  0
  -48.4712   58.0911   60.2108 C   0  0  0  0  0  0  0  0  0  0  0  0
  -48.8298   56.7132   59.6797 C   0  0  0  0  0  0  0  0  0  0  0  0
  -48.1375   56.3702   58.3694 C   0  0  0  0  0  0  0  0  0  0  0  0
  -46.8629   57.1507   58.1165 C   0  0  0  0  0  0  0  0  0  0  0  0
  -47.0202   58.1881   57.0399 C   0  0  0  0  0  0  0  0  0  0  0  0
 21 22  1  0  0  0
  4  5  2  0  0  0
 25 24  1  0  0  0
 25 26  2  0  0  0
 25 27  1  0  0  0
 25 29  1  0  0  0
 22 20  1  0  0  0
  3  5  1  0  0  0
  3  2  1  0  0  0
 20 19  1  0  0  0
 24 23  1  0  0  0
 19 18  1  0  0  0
 18 17  1  0  0  0
 27 28  1  0  0  0
 17 16  1  0  0  0
 29 30  1  0  0  0
 16 15  1  0  0  0
 34 35  1  0  0  0
 34 36  1  0  0  0
 15 14  1  0  0  0
 31 32  1  0  0  0
 31 33  1  0  0  0
 14 13  1  0  0  0
 37  1  1  0  0  0
 37 39  1  0  0  0
 13 12  1  0  0  0
 38 39  2  0  0  0
 12 11  1  0  0  0
 11 10  1  0  0  0
 10  9  1  0  0  0
  9  8  1  0  0  0
  8  7  1  0  0  0
  7  6  1  0  0  0
  6  5  1  0  0  0
  2  1  1  0  0  0
  1 23  1  0  0  0
 30 32  1  0  0  0
 32 35  1  0  0  0
 39 40  1  0  0  0
 40 41  1  0  0  0
 41 42  1  0  0  0
 42 43  1  0  0  0
 43 44  1  0  0  0
 44 45  1  0  0  0
 45 46  1  0  0  0
 46 47  1  0  0  0
 47 48  2  0  0  0
 48 49  1  0  0  0
 49 50  1  0  0  0
 50 51  1  0  0  0
 51 52  1  0  0  0
 52 53  1  0  0  0
 53 54  1  0  0  0
 54 55  1  0  0  0
 55 56  1  0  0  0
M  CHG 1  26  -1
M  END
> <minimizedAffinity>
-9.02358

> <CNNscore>
0.3934233785

> <CNNaffinity>
7.4667816162

> <CNN_VS>
2.9376063347

> <CNNaffinity_variance>
1.6443210840

$$$$
/media/chris/experiments/cd1a-new-docking/inputs/ligands/7sh4_ligand.pdb


 56 55  0  0  0  0  0  0  0  0999 V2000
  -41.2236   56.8211   64.2779 C   0  0  0  0  0  0  0  0  0  0  0  0
  -42.2939   56.8367   65.3323 C   0  0  0  0  0  0  0  0  0  0  0  0
  -43.5061   57.1028   64.5956 O   0  0  0  0  0  0  0  0  0  0  0  0
  -44.6538   57.8614   66.3581 O   0  0  0  0  0  0  0  0  0  0  0  0
  -44.4094   57.8889   65.1821 C   0  0  0  0  0  0  0  0  0  0  0  0
  -44.9770   58.8825   64.2098 C   0  0  0  0  0  0  0  0  0  0  0  0
  -45.4652   60.1700   64.8521 C   0  0  0  0  0  0  0  0  0  0  0  0
  -46.9732   60.3036   64.8247 C   0  0  0  0  0  0  0  0  0  0  0  0
  -47.6860   59.4917   65.8822 C   0  0  0  0  0  0  0  0  0  0  0  0
  -48.5422   58.3839   65.3027 C   0  0  0  0  0  0  0  0  0  0  0  0
  -50.0200   58.6853   65.3566 C   0  0  0  0  0  0  0  0  0  0  0  0
  -50.3480   60.0968   64.9471 C   0  0  0  0  0  0  0  0  0  0  0  0
  -51.5299   60.1900   64.0077 C   0  0  0  0  0  0  0  0  0  0  0  0
  -51.2567   59.5567   62.6585 C   0  0  0  0  0  0  0  0  0  0  0  0
  -49.8980   59.8941   62.0812 C   0  0  0  0  0  0  0  0  0  0  0  0
  -49.0783   58.6727   61.6807 C   0  0  0  0  0  0  0  0  0  0  0  0
  -49.9058   57.5317   61.1209 C   0  0  0  0  0  0  0  0  0  0  0  0
  -49.1040   56.5666   60.2718 C   0  0  0  0  0  0  0  0  0  0  0  0
  -47.9877   57.2328   59.4798 C   0  0  0  0  0  0  0  0  0  0  0  0
  -47.3023   56.3022   58.4951 C   0  0  0  0  0  0  0  0  0  0  0  0
  -46.9691   58.3851   57.1215 C   0  0  0  0  0  0  0  0  0  0  0  0
  -47.1078   56.8797   57.1059 C   0  0  0  0  0  0  0  0  0  0  0  0
  -40.3240   58.0272   64.3665 C   0  0  0  0  0  0  0  0  0  0  0  0
  -41.0257   59.0807   65.0638 O   0  0  0  0  0  0  0  0  0  0  0  0
  -41.3252   60.5078   64.4038 P   0  0  0  0  0  0  0  0  0  0  0  0
  -41.8211   60.2816   63.0293 O   0  0  0  0  0  0  0  0  0  0  0  0
  -42.1667   61.2844   65.3459 O   0  0  0  0  0  0  0  0  0  0  0  0
  -43.0366   60.8627   65.4253 H   0  0  0  0  0  0  0  0  0  0  0  0
  -39.9081   61.2318   64.3018 O   0  0  0  0  0  0  0  0  0  0  0  0
  -39.1860   61.2316   63.0534 C   0  0  0  0  0  0  0  0  0  0  0  0
  -37.3041   62.7118   62.9535 O   0  0  0  0  0  0  0  0  0  0  0  0
  -37.7169   61.4016   63.3535 C   0  0  0  0  0  0  0  0  0  0  0  0
  -37.5134   62.8444   62.0158 H   0  0  0  0  0  0  0  0  0  0  0  0
  -37.6503   62.3552   65.5681 O   0  0  0  0  0  0  0  0  0  0  0  0
  -37.3985   61.1775   64.8123 C   0  0  0  0  0  0  0  0  0  0  0  0
  -37.4402   62.1920   66.5009 H   0  0  0  0  0  0  0  0  0  0  0  0
  -41.8701   56.7228   62.9655 O   0  0  0  0  0  0  0  0  0  0  0  0
  -40.9739   54.7399   62.3952 O   0  0  0  0  0  0  0  0  0  0  0  0
  -41.3483   55.8399   62.0925 C   0  0  0  0  0  0  0  0  0  0  0  0
  -41.3082   56.3865   60.6989 C   0  0  0  0  0  0  0  0  0  0  0  0
  -41.4184   57.9078   60.6919 C   0  0  0  0  0  0  0  0  0  0  0  0
  -40.9592   58.5529   59.3945 C   0  0  0  0  0  0  0  0  0  0  0  0
  -39.7228   59.4302   59.5540 C   0  0  0  0  0  0  0  0  0  0  0  0
  -38.4125   58.6681   59.4844 C   0  0  0  0  0  0  0  0  0  0  0  0
  -37.5873   58.7014   60.7740 C   0  0  0  0  0  0  0  0  0  0  0  0
  -37.7234   57.4661   61.6667 C   0  0  0  0  0  0  0  0  0  0  0  0
  -37.3476   57.7533   63.0895 C   0  0  0  0  0  0  0  0  0  0  0  0
  -36.1261   57.8494   63.5772 C   0  0  0  0  0  0  0  0  0  0  0  0
  -34.8532   57.6926   62.8068 C   0  0  0  0  0  0  0  0  0  0  0  0
  -33.6572   58.3089   63.5266 C   0  0  0  0  0  0  0  0  0  0  0  0
  -32.7454   59.1123   62.6158 C   0  0  0  0  0  0  0  0  0  0  0  0
  -32.7577   60.6039   62.9023 C   0  0  0  0  0  0  0  0  0  0  0  0
  -33.6793   61.0197   64.0369 C   0  0  0  0  0  0  0  0  0  0  0  0
  -33.9420   62.5172   64.0858 C   0  0  0  0  0  0  0  0  0  0  0  0
  -34.2267   63.0537   65.4746 C   0  0  0  0  0  0  0  0  0  0  0  0
  -33.5368   64.3617   65.7452 C   0  0  0  0  0  0  0  0  0  0  0  0
 21 22  1  0  0  0
  4  5  2  0  0  0
 25 24  1  0  0  0
 25 26  2  0  0  0
 25 27  1  0  0  0
 25 29  1  0  0  0
 22 20  1  0  0  0
  3  5  1  0  0  0
  3  2  1  0  0  0
 20 19  1  0  0  0
 24 23  1  0  0  0
 19 18  1  0  0  0
 18 17  1  0  0  0
 27 28  1  0  0  0
 17 16  1  0  0  0
 29 30  1  0  0  0
 16 15  1  0  0  0
 34 35  1  0  0  0
 34 36  1  0  0  0
 15 14  1  0  0  0
 31 32  1  0  0  0
 31 33  1  0  0  0
 14 13  1  0  0  0
 37  1  1  0  0  0
 37 39  1  0  0  0
 13 12  1  0  0  0
 38 39  2  0  0  0
 12 11  1  0  0  0
 11 10  1  0  0  0
 10  9  1  0  0  0
  9  8  1  0  0  0
  8  7  1  0  0  0
  7  6  1  0  0  0
  6  5  1  0  0  0
  2  1  1  0  0  0
  1 23  1  0  0  0
 30 32  1  0  0  0
 32 35  1  0  0  0
 39 40  1  0  0  0
 40 41  1  0  0  0
 41 42  1  0  0  0
 42 43  1  0  0  0
 43 44  1  0  0  0
 44 45  1  0  0  0
 45 46  1  0  0  0
 46 47  1  0  0  0
 47 48  2  0  0  0
 48 49  1  0  0  0
 49 50  1  0  0  0
 50 51  1  0  0  0
 51 52  1  0  0  0
 52 53  1  0  0  0
 53 54  1  0  0  0
 54 55  1  0  0  0
 55 56  1  0  0  0
M  CHG 1  26  -1
M  END
> <minimizedAffinity>
-8.51312

> <CNNscore>
0.3647345304

> <CNNaffinity>
7.1862425804

> <CNN_VS>
2.6210708618

> <CNNaffinity_variance>
2.0116977692

$$$$
/media/chris/experiments/cd1a-new-docking/inputs/ligands/7sh4_ligand.pdb


 56 55  0  0  0  0  0  0  0  0999 V2000
  -41.7495   59.8838   65.7068 C   0  0  0  0  0  0  0  0  0  0  0  0
  -41.9986   58.4299   65.9930 C   0  0  0  0  0  0  0  0  0  0  0  0
  -42.5207   57.9138   64.7504 O   0  0  0  0  0  0  0  0  0  0  0  0
  -41.8703   55.7809   64.5857 O   0  0  0  0  0  0  0  0  0  0  0  0
  -41.8483   56.9124   64.1821 C   0  0  0  0  0  0  0  0  0  0  0  0
  -41.1742   57.3603   62.9172 C   0  0  0  0  0  0  0  0  0  0  0  0
  -40.8864   56.2366   61.9360 C   0  0  0  0  0  0  0  0  0  0  0  0
  -40.9946   56.6776   60.4915 C   0  0  0  0  0  0  0  0  0  0  0  0
  -41.5444   58.0742   60.3100 C   0  0  0  0  0  0  0  0  0  0  0  0
  -40.4866   59.0801   59.9034 C   0  0  0  0  0  0  0  0  0  0  0  0
  -39.4185   58.4921   59.0139 C   0  0  0  0  0  0  0  0  0  0  0  0
  -38.0419   58.5659   59.6197 C   0  0  0  0  0  0  0  0  0  0  0  0
  -38.0480   58.9750   61.0759 C   0  0  0  0  0  0  0  0  0  0  0  0
  -37.4063   57.9398   61.9774 C   0  0  0  0  0  0  0  0  0  0  0  0
  -35.9744   58.2535   62.3572 C   0  0  0  0  0  0  0  0  0  0  0  0
  -35.6325   57.9155   63.8039 C   0  0  0  0  0  0  0  0  0  0  0  0
  -34.9410   59.0388   64.5523 C   0  0  0  0  0  0  0  0  0  0  0  0
  -33.4919   58.7418   64.8793 C   0  0  0  0  0  0  0  0  0  0  0  0
  -32.6529   58.3816   63.6613 C   0  0  0  0  0  0  0  0  0  0  0  0
  -32.4124   59.5499   62.7219 C   0  0  0  0  0  0  0  0  0  0  0  0
  -30.7731   61.4301   62.3844 C   0  0  0  0  0  0  0  0  0  0  0  0
  -30.9559   59.9388   62.5525 C   0  0  0  0  0  0  0  0  0  0  0  0
  -40.7446   60.4837   66.6565 C   0  0  0  0  0  0  0  0  0  0  0  0
  -39.6722   61.0730   65.8877 O   0  0  0  0  0  0  0  0  0  0  0  0
  -39.0808   60.3960   64.5634 P   0  0  0  0  0  0  0  0  0  0  0  0
  -38.7944   58.9767   64.8634 O   0  0  0  0  0  0  0  0  0  0  0  0
  -39.9891   60.7166   63.4360 O   0  0  0  0  0  0  0  0  0  0  0  0
  -40.8436   60.2793   63.5751 H   0  0  0  0  0  0  0  0  0  0  0  0
  -37.6912   61.1318   64.2973 O   0  0  0  0  0  0  0  0  0  0  0  0
  -37.5886   62.1253   63.2570 C   0  0  0  0  0  0  0  0  0  0  0  0
  -36.7698   64.3759   63.1724 O   0  0  0  0  0  0  0  0  0  0  0  0
  -36.4421   63.0477   63.5914 C   0  0  0  0  0  0  0  0  0  0  0  0
  -36.9852   64.3726   62.2267 H   0  0  0  0  0  0  0  0  0  0  0  0
  -37.2569   63.3134   65.8462 O   0  0  0  0  0  0  0  0  0  0  0  0
  -36.1037   63.0341   65.0628 C   0  0  0  0  0  0  0  0  0  0  0  0
  -37.0200   63.3003   66.7866 H   0  0  0  0  0  0  0  0  0  0  0  0
  -43.0330   60.5908   65.7586 O   0  0  0  0  0  0  0  0  0  0  0  0
  -42.5611   62.1074   64.1656 O   0  0  0  0  0  0  0  0  0  0  0  0
  -43.3420   61.3731   64.7067 C   0  0  0  0  0  0  0  0  0  0  0  0
  -44.7679   61.2039   64.2820 C   0  0  0  0  0  0  0  0  0  0  0  0
  -45.3002   59.8223   64.6490 C   0  0  0  0  0  0  0  0  0  0  0  0
  -46.7766   59.6295   64.3433 C   0  0  0  0  0  0  0  0  0  0  0  0
  -47.5556   58.9821   65.4825 C   0  0  0  0  0  0  0  0  0  0  0  0
  -48.6306   58.0147   65.0230 C   0  0  0  0  0  0  0  0  0  0  0  0
  -50.0627   58.4608   65.3314 C   0  0  0  0  0  0  0  0  0  0  0  0
  -50.3050   59.9699   65.2584 C   0  0  0  0  0  0  0  0  0  0  0  0
  -51.4428   60.3157   64.3452 C   0  0  0  0  0  0  0  0  0  0  0  0
  -51.4544   60.2189   63.0301 C   0  0  0  0  0  0  0  0  0  0  0  0
  -50.3278   59.7392   62.1704 C   0  0  0  0  0  0  0  0  0  0  0  0
  -50.5836   58.3479   61.5981 C   0  0  0  0  0  0  0  0  0  0  0  0
  -49.3147   57.5699   61.2971 C   0  0  0  0  0  0  0  0  0  0  0  0
  -49.2580   57.0191   59.8826 C   0  0  0  0  0  0  0  0  0  0  0  0
  -47.8931   56.4984   59.4638 C   0  0  0  0  0  0  0  0  0  0  0  0
  -47.7878   56.2049   57.9750 C   0  0  0  0  0  0  0  0  0  0  0  0
  -48.0667   57.3993   57.0843 C   0  0  0  0  0  0  0  0  0  0  0  0
  -46.9549   58.4110   57.1033 C   0  0  0  0  0  0  0  0  0  0  0  0
 21 22  1  0  0  0
  4  5  2  0  0  0
 25 24  1  0  0  0
 25 26  2  0  0  0
 25 27  1  0  0  0
 25 29  1  0  0  0
 22 20  1  0  0  0
  3  5  1  0  0  0
  3  2  1  0  0  0
 20 19  1  0  0  0
 24 23  1  0  0  0
 19 18  1  0  0  0
 18 17  1  0  0  0
 27 28  1  0  0  0
 17 16  1  0  0  0
 29 30  1  0  0  0
 16 15  1  0  0  0
 34 35  1  0  0  0
 34 36  1  0  0  0
 15 14  1  0  0  0
 31 32  1  0  0  0
 31 33  1  0  0  0
 14 13  1  0  0  0
 37  1  1  0  0  0
 37 39  1  0  0  0
 13 12  1  0  0  0
 38 39  2  0  0  0
 12 11  1  0  0  0
 11 10  1  0  0  0
 10  9  1  0  0  0
  9  8  1  0  0  0
  8  7  1  0  0  0
  7  6  1  0  0  0
  6  5  1  0  0  0
  2  1  1  0  0  0
  1 23  1  0  0  0
 30 32  1  0  0  0
 32 35  1  0  0  0
 39 40  1  0  0  0
 40 41  1  0  0  0
 41 42  1  0  0  0
 42 43  1  0  0  0
 43 44  1  0  0  0
 44 45  1  0  0  0
 45 46  1  0  0  0
 46 47  1  0  0  0
 47 48  2  0  0  0
 48 49  1  0  0  0
 49 50  1  0  0  0
 50 51  1  0  0  0
 51 52  1  0  0  0
 52 53  1  0  0  0
 53 54  1  0  0  0
 54 55  1  0  0  0
 55 56  1  0  0  0
M  CHG 1  26  -1
M  END
> <minimizedAffinity>
-8.75721

> <CNNscore>
0.3646816611

> <CNNaffinity>
7.3555145264

> <CNN_VS>
2.6824212074

> <CNNaffinity_variance>
1.1511147022

$$$$
/media/chris/experiments/cd1a-new-docking/inputs/ligands/7sh4_ligand.pdb


 56 55  0  0  0  0  0  0  0  0999 V2000
  -41.0000   60.5384   64.2083 C   0  0  0  0  0  0  0  0  0  0  0  0
  -42.1215   60.5259   63.2085 C   0  0  0  0  0  0  0  0  0  0  0  0
  -43.2356   59.9725   63.9403 O   0  0  0  0  0  0  0  0  0  0  0  0
  -44.5517   61.7780   63.8571 O   0  0  0  0  0  0  0  0  0  0  0  0
  -44.1075   60.8377   64.4588 C   0  0  0  0  0  0  0  0  0  0  0  0
  -44.5464   60.4102   65.8298 C   0  0  0  0  0  0  0  0  0  0  0  0
  -46.0183   60.0458   65.9247 C   0  0  0  0  0  0  0  0  0  0  0  0
  -46.2596   58.7849   66.7276 C   0  0  0  0  0  0  0  0  0  0  0  0
  -47.0339   57.7181   65.9874 C   0  0  0  0  0  0  0  0  0  0  0  0
  -47.9534   58.2827   64.9236 C   0  0  0  0  0  0  0  0  0  0  0  0
  -49.2577   58.7999   65.4794 C   0  0  0  0  0  0  0  0  0  0  0  0
  -49.6847   60.1049   64.8610 C   0  0  0  0  0  0  0  0  0  0  0  0
  -51.1791   60.2096   64.6519 C   0  0  0  0  0  0  0  0  0  0  0  0
  -51.5682   60.1887   63.1876 C   0  0  0  0  0  0  0  0  0  0  0  0
  -50.4692   59.7088   62.2629 C   0  0  0  0  0  0  0  0  0  0  0  0
  -50.7424   58.3460   61.6366 C   0  0  0  0  0  0  0  0  0  0  0  0
  -49.5269   57.4409   61.5758 C   0  0  0  0  0  0  0  0  0  0  0  0
  -49.2843   56.8503   60.2020 C   0  0  0  0  0  0  0  0  0  0  0  0
  -47.9282   57.2126   59.6127 C   0  0  0  0  0  0  0  0  0  0  0  0
  -48.0051   58.2405   58.4979 C   0  0  0  0  0  0  0  0  0  0  0  0
  -47.1940   56.2693   57.1591 C   0  0  0  0  0  0  0  0  0  0  0  0
  -47.6242   57.7182   57.1256 C   0  0  0  0  0  0  0  0  0  0  0  0
  -39.6493   60.4508   63.5452 C   0  0  0  0  0  0  0  0  0  0  0  0
  -38.8657   61.6018   63.9320 O   0  0  0  0  0  0  0  0  0  0  0  0
  -37.5166   61.4856   64.7854 P   0  0  0  0  0  0  0  0  0  0  0  0
  -37.4528   62.6449   65.7011 O   0  0  0  0  0  0  0  0  0  0  0  0
  -37.4497   60.1200   65.3593 O   0  0  0  0  0  0  0  0  0  0  0  0
  -38.1617   60.0069   66.0083 H   0  0  0  0  0  0  0  0  0  0  0  0
  -36.3331   61.6304   63.7265 O   0  0  0  0  0  0  0  0  0  0  0  0
  -35.5349   62.8311   63.6965 C   0  0  0  0  0  0  0  0  0  0  0  0
  -36.8401   64.8330   63.5186 O   0  0  0  0  0  0  0  0  0  0  0  0
  -36.1882   63.8134   62.7555 C   0  0  0  0  0  0  0  0  0  0  0  0
  -37.4708   64.4243   64.1318 H   0  0  0  0  0  0  0  0  0  0  0  0
  -34.2060   63.4887   61.4197 O   0  0  0  0  0  0  0  0  0  0  0  0
  -35.2015   64.4322   61.7946 C   0  0  0  0  0  0  0  0  0  0  0  0
  -33.5826   63.9040   60.8034 H   0  0  0  0  0  0  0  0  0  0  0  0
  -41.2118   59.4375   65.1533 O   0  0  0  0  0  0  0  0  0  0  0  0
  -39.4733   58.1389   64.5605 O   0  0  0  0  0  0  0  0  0  0  0  0
  -40.6303   58.2591   64.8581 C   0  0  0  0  0  0  0  0  0  0  0  0
  -41.5930   57.1170   64.9634 C   0  0  0  0  0  0  0  0  0  0  0  0
  -42.2207   56.7887   63.6125 C   0  0  0  0  0  0  0  0  0  0  0  0
  -41.4299   55.7813   62.7940 C   0  0  0  0  0  0  0  0  0  0  0  0
  -40.6573   56.4068   61.6383 C   0  0  0  0  0  0  0  0  0  0  0  0
  -41.1902   57.7582   61.1998 C   0  0  0  0  0  0  0  0  0  0  0  0
  -41.3010   57.9373   59.6830 C   0  0  0  0  0  0  0  0  0  0  0  0
  -39.9823   58.2275   58.9632 C   0  0  0  0  0  0  0  0  0  0  0  0
  -39.3278   59.4792   59.4661 C   0  0  0  0  0  0  0  0  0  0  0  0
  -38.2802   59.5541   60.2637 C   0  0  0  0  0  0  0  0  0  0  0  0
  -37.5211   58.3982   60.8347 C   0  0  0  0  0  0  0  0  0  0  0  0
  -36.7505   58.7742   62.0970 C   0  0  0  0  0  0  0  0  0  0  0  0
  -36.3326   57.5785   62.9348 C   0  0  0  0  0  0  0  0  0  0  0  0
  -34.8368   57.5047   63.1888 C   0  0  0  0  0  0  0  0  0  0  0  0
  -34.3496   58.3727   64.3372 C   0  0  0  0  0  0  0  0  0  0  0  0
  -32.9038   58.8207   64.1865 C   0  0  0  0  0  0  0  0  0  0  0  0
  -32.6788   59.8351   63.0827 C   0  0  0  0  0  0  0  0  0  0  0  0
  -31.2481   59.8878   62.6242 C   0  0  0  0  0  0  0  0  0  0  0  0
 21 22  1  0  0  0
  4  5  2  0  0  0
 25 24  1  0  0  0
 25 26  2  0  0  0
 25 27  1  0  0  0
 25 29  1  0  0  0
 22 20  1  0  0  0
  3  5  1  0  0  0
  3  2  1  0  0  0
 20 19  1  0  0  0
 24 23  1  0  0  0
 19 18  1  0  0  0
 18 17  1  0  0  0
 27 28  1  0  0  0
 17 16  1  0  0  0
 29 30  1  0  0  0
 16 15  1  0  0  0
 34 35  1  0  0  0
 34 36  1  0  0  0
 15 14  1  0  0  0
 31 32  1  0  0  0
 31 33  1  0  0  0
 14 13  1  0  0  0
 37  1  1  0  0  0
 37 39  1  0  0  0
 13 12  1  0  0  0
 38 39  2  0  0  0
 12 11  1  0  0  0
 11 10  1  0  0  0
 10  9  1  0  0  0
  9  8  1  0  0  0
  8  7  1  0  0  0
  7  6  1  0  0  0
  6  5  1  0  0  0
  2  1  1  0  0  0
  1 23  1  0  0  0
 30 32  1  0  0  0
 32 35  1  0  0  0
 39 40  1  0  0  0
 40 41  1  0  0  0
 41 42  1  0  0  0
 42 43  1  0  0  0
 43 44  1  0  0  0
 44 45  1  0  0  0
 45 46  1  0  0  0
 46 47  1  0  0  0
 47 48  2  0  0  0
 48 49  1  0  0  0
 49 50  1  0  0  0
 50 51  1  0  0  0
 51 52  1  0  0  0
 52 53  1  0  0  0
 53 54  1  0  0  0
 54 55  1  0  0  0
 55 56  1  0  0  0
M  CHG 1  26  -1
M  END
> <minimizedAffinity>
-8.37196

> <CNNscore>
0.3576087058

> <CNNaffinity>
7.3999376297

> <CNN_VS>
2.6462821960

> <CNNaffinity_variance>
1.3023059368

$$$$
/media/chris/experiments/cd1a-new-docking/inputs/ligands/7sh4_ligand.pdb


 56 55  0  0  0  0  0  0  0  0999 V2000
  -40.6676   60.2519   63.5463 C   0  0  0  0  0  0  0  0  0  0  0  0
  -40.5653   58.9972   64.3666 C   0  0  0  0  0  0  0  0  0  0  0  0
  -41.7449   58.2475   64.0068 O   0  0  0  0  0  0  0  0  0  0  0  0
  -41.3265   56.1853   63.2511 O   0  0  0  0  0  0  0  0  0  0  0  0
  -41.6103   57.3343   63.0447 C   0  0  0  0  0  0  0  0  0  0  0  0
  -41.9803   57.9002   61.7038 C   0  0  0  0  0  0  0  0  0  0  0  0
  -41.2650   57.2445   60.5347 C   0  0  0  0  0  0  0  0  0  0  0  0
  -40.9810   58.2112   59.4044 C   0  0  0  0  0  0  0  0  0  0  0  0
  -39.8404   59.1651   59.6773 C   0  0  0  0  0  0  0  0  0  0  0  0
  -38.4779   58.5179   59.5324 C   0  0  0  0  0  0  0  0  0  0  0  0
  -37.6394   58.6121   60.7836 C   0  0  0  0  0  0  0  0  0  0  0  0
  -37.9279   57.5111   61.7696 C   0  0  0  0  0  0  0  0  0  0  0  0
  -37.3057   57.7440   63.1285 C   0  0  0  0  0  0  0  0  0  0  0  0
  -35.8087   57.9676   63.0563 C   0  0  0  0  0  0  0  0  0  0  0  0
  -35.1643   58.2731   64.3921 C   0  0  0  0  0  0  0  0  0  0  0  0
  -33.8259   58.9943   64.2799 C   0  0  0  0  0  0  0  0  0  0  0  0
  -33.3818   59.2508   62.8527 C   0  0  0  0  0  0  0  0  0  0  0  0
  -31.8768   59.3209   62.6938 C   0  0  0  0  0  0  0  0  0  0  0  0
  -31.4104   60.4558   61.7927 C   0  0  0  0  0  0  0  0  0  0  0  0
  -30.6489   61.5431   62.5297 C   0  0  0  0  0  0  0  0  0  0  0  0
  -32.6250   62.9855   61.9374 C   0  0  0  0  0  0  0  0  0  0  0  0
  -31.1527   62.9519   62.2793 C   0  0  0  0  0  0  0  0  0  0  0  0
  -39.3149   60.7597   63.1173 C   0  0  0  0  0  0  0  0  0  0  0  0
  -38.8517   61.7258   64.0871 O   0  0  0  0  0  0  0  0  0  0  0  0
  -37.4268   61.6165   64.8079 P   0  0  0  0  0  0  0  0  0  0  0  0
  -37.5063   60.5401   65.8186 O   0  0  0  0  0  0  0  0  0  0  0  0
  -36.3836   61.5319   63.7576 O   0  0  0  0  0  0  0  0  0  0  0  0
  -36.4791   60.6966   63.2738 H   0  0  0  0  0  0  0  0  0  0  0  0
  -37.2357   62.9999   65.5778 O   0  0  0  0  0  0  0  0  0  0  0  0
  -36.1090   63.8464   65.2713 C   0  0  0  0  0  0  0  0  0  0  0  0
  -36.2176   64.0129   67.6594 O   0  0  0  0  0  0  0  0  0  0  0  0
  -35.3271   64.0760   66.5413 C   0  0  0  0  0  0  0  0  0  0  0  0
  -36.9342   64.6553   67.5385 H   0  0  0  0  0  0  0  0  0  0  0  0
  -33.3342   63.4822   67.7638 O   0  0  0  0  0  0  0  0  0  0  0  0
  -34.2041   63.0815   66.7128 C   0  0  0  0  0  0  0  0  0  0  0  0
  -32.6206   62.8322   67.8585 H   0  0  0  0  0  0  0  0  0  0  0  0
  -41.4003   61.2545   64.3259 O   0  0  0  0  0  0  0  0  0  0  0  0
  -42.9833   61.8668   62.8497 O   0  0  0  0  0  0  0  0  0  0  0  0
  -42.6686   61.5110   63.9525 C   0  0  0  0  0  0  0  0  0  0  0  0
  -43.6391   61.2819   65.0696 C   0  0  0  0  0  0  0  0  0  0  0  0
  -45.0415   60.9962   64.5419 C   0  0  0  0  0  0  0  0  0  0  0  0
  -45.6720   59.7384   65.1169 C   0  0  0  0  0  0  0  0  0  0  0  0
  -47.0040   59.3742   64.4712 C   0  0  0  0  0  0  0  0  0  0  0  0
  -48.0825   60.4272   64.6458 C   0  0  0  0  0  0  0  0  0  0  0  0
  -49.0026   60.2029   65.8491 C   0  0  0  0  0  0  0  0  0  0  0  0
  -50.3364   59.5233   65.5318 C   0  0  0  0  0  0  0  0  0  0  0  0
  -51.1058   60.2556   64.4736 C   0  0  0  0  0  0  0  0  0  0  0  0
  -51.3603   59.8330   63.2506 C   0  0  0  0  0  0  0  0  0  0  0  0
  -50.9329   58.5258   62.6615 C   0  0  0  0  0  0  0  0  0  0  0  0
  -49.5690   58.6114   61.9825 C   0  0  0  0  0  0  0  0  0  0  0  0
  -49.5484   59.5246   60.7693 C   0  0  0  0  0  0  0  0  0  0  0  0
  -49.1710   58.8168   59.4794 C   0  0  0  0  0  0  0  0  0  0  0  0
  -48.8983   57.3297   59.6338 C   0  0  0  0  0  0  0  0  0  0  0  0
  -47.6288   56.8710   58.9324 C   0  0  0  0  0  0  0  0  0  0  0  0
  -47.6446   57.0633   57.4289 C   0  0  0  0  0  0  0  0  0  0  0  0
  -46.8178   58.2374   56.9842 C   0  0  0  0  0  0  0  0  0  0  0  0
 21 22  1  0  0  0
  4  5  2  0  0  0
 25 24  1  0  0  0
 25 26  2  0  0  0
 25 27  1  0  0  0
 25 29  1  0  0  0
 22 20  1  0  0  0
  3  5  1  0  0  0
  3  2  1  0  0  0
 20 19  1  0  0  0
 24 23  1  0  0  0
 19 18  1  0  0  0
 18 17  1  0  0  0
 27 28  1  0  0  0
 17 16  1  0  0  0
 29 30  1  0  0  0
 16 15  1  0  0  0
 34 35  1  0  0  0
 34 36  1  0  0  0
 15 14  1  0  0  0
 31 32  1  0  0  0
 31 33  1  0  0  0
 14 13  1  0  0  0
 37  1  1  0  0  0
 37 39  1  0  0  0
 13 12  1  0  0  0
 38 39  2  0  0  0
 12 11  1  0  0  0
 11 10  1  0  0  0
 10  9  1  0  0  0
  9  8  1  0  0  0
  8  7  1  0  0  0
  7  6  1  0  0  0
  6  5  1  0  0  0
  2  1  1  0  0  0
  1 23  1  0  0  0
 30 32  1  0  0  0
 32 35  1  0  0  0
 39 40  1  0  0  0
 40 41  1  0  0  0
 41 42  1  0  0  0
 42 43  1  0  0  0
 43 44  1  0  0  0
 44 45  1  0  0  0
 45 46  1  0  0  0
 46 47  1  0  0  0
 47 48  2  0  0  0
 48 49  1  0  0  0
 49 50  1  0  0  0
 50 51  1  0  0  0
 51 52  1  0  0  0
 52 53  1  0  0  0
 53 54  1  0  0  0
 54 55  1  0  0  0
 55 56  1  0  0  0
M  CHG 1  26  -1
M  END
> <minimizedAffinity>
-9.05742

> <CNNscore>
0.3067449033

> <CNNaffinity>
7.0677347183

> <CNN_VS>
2.1679916382

> <CNNaffinity_variance>
1.2667238712

$$$$
