/media/chris/experiments/cd1a-new-docking/inputs/ligands/7sh4_ligand.pdb


 56 55  0  0  0  0  0  0  0  0999 V2000
  -41.1124   60.0842   64.1896 C   0  0  0  0  0  0  0  0  0  0  0  0
  -40.6545   59.0996   63.1511 C   0  0  0  0  0  0  0  0  0  0  0  0
  -41.6560   59.1927   62.1160 O   0  0  0  0  0  0  0  0  0  0  0  0
  -41.1986   60.6384   60.4728 O   0  0  0  0  0  0  0  0  0  0  0  0
  -41.2326   59.5133   60.8929 C   0  0  0  0  0  0  0  0  0  0  0  0
  -40.6951   58.3105   60.1723 C   0  0  0  0  0  0  0  0  0  0  0  0
  -39.6030   58.6275   59.1648 C   0  0  0  0  0  0  0  0  0  0  0  0
  -38.2239   58.6685   59.7886 C   0  0  0  0  0  0  0  0  0  0  0  0
  -38.1062   57.8949   61.0823 C   0  0  0  0  0  0  0  0  0  0  0  0
  -37.1452   58.5290   62.0674 C   0  0  0  0  0  0  0  0  0  0  0  0
  -36.7137   57.5882   63.1657 C   0  0  0  0  0  0  0  0  0  0  0  0
  -35.2985   57.8264   63.6220 C   0  0  0  0  0  0  0  0  0  0  0  0
  -34.4052   58.3895   62.5389 C   0  0  0  0  0  0  0  0  0  0  0  0
  -32.9372   58.1048   62.7843 C   0  0  0  0  0  0  0  0  0  0  0  0
  -32.1291   59.3230   63.1796 C   0  0  0  0  0  0  0  0  0  0  0  0
  -31.8547   60.2810   62.0258 C   0  0  0  0  0  0  0  0  0  0  0  0
  -31.6166   61.7148   62.4588 C   0  0  0  0  0  0  0  0  0  0  0  0
  -32.8459   62.3787   63.0449 C   0  0  0  0  0  0  0  0  0  0  0  0
  -33.3909   63.5154   62.1916 C   0  0  0  0  0  0  0  0  0  0  0  0
  -33.8212   64.7280   62.9976 C   0  0  0  0  0  0  0  0  0  0  0  0
  -36.1782   65.1570   62.2253 C   0  0  0  0  0  0  0  0  0  0  0  0
  -34.7581   65.6738   62.2703 C   0  0  0  0  0  0  0  0  0  0  0  0
  -40.3353   59.9544   65.4745 C   0  0  0  0  0  0  0  0  0  0  0  0
  -39.5630   61.1593   65.6748 O   0  0  0  0  0  0  0  0  0  0  0  0
  -38.0979   61.3623   65.0632 P   0  0  0  0  0  0  0  0  0  0  0  0
  -37.3094   60.1446   65.3494 O   0  0  0  0  0  0  0  0  0  0  0  0
  -38.2427   61.8025   63.6546 O   0  0  0  0  0  0  0  0  0  0  0  0
  -38.6309   61.0848   63.1299 H   0  0  0  0  0  0  0  0  0  0  0  0
  -37.4584   62.5670   65.8896 O   0  0  0  0  0  0  0  0  0  0  0  0
  -36.2109   63.1519   65.4636 C   0  0  0  0  0  0  0  0  0  0  0  0
  -35.9275   62.9651   67.8358 O   0  0  0  0  0  0  0  0  0  0  0  0
  -35.4981   63.6904   66.6797 C   0  0  0  0  0  0  0  0  0  0  0  0
  -36.8930   63.0200   67.9118 H   0  0  0  0  0  0  0  0  0  0  0  0
  -33.3886   63.4038   67.8138 O   0  0  0  0  0  0  0  0  0  0  0  0
  -33.9961   63.6155   66.5459 C   0  0  0  0  0  0  0  0  0  0  0  0
  -32.4255   63.3586   67.7075 H   0  0  0  0  0  0  0  0  0  0  0  0
  -42.5502   59.8930   64.4046 O   0  0  0  0  0  0  0  0  0  0  0  0
  -42.9111   62.0629   64.8755 O   0  0  0  0  0  0  0  0  0  0  0  0
  -43.2214   60.9079   64.9823 C   0  0  0  0  0  0  0  0  0  0  0  0
  -44.4089   60.4257   65.7564 C   0  0  0  0  0  0  0  0  0  0  0  0
  -44.5898   58.9173   65.6202 C   0  0  0  0  0  0  0  0  0  0  0  0
  -45.6618   58.3404   66.5302 C   0  0  0  0  0  0  0  0  0  0  0  0
  -46.9735   59.1164   66.4953 C   0  0  0  0  0  0  0  0  0  0  0  0
  -47.8451   58.8012   65.2939 C   0  0  0  0  0  0  0  0  0  0  0  0
  -47.7944   59.8487   64.1780 C   0  0  0  0  0  0  0  0  0  0  0  0
  -48.8770   60.9279   64.2477 C   0  0  0  0  0  0  0  0  0  0  0  0
  -50.2109   60.3655   64.6380 C   0  0  0  0  0  0  0  0  0  0  0  0
  -51.1027   59.8226   63.8323 C   0  0  0  0  0  0  0  0  0  0  0  0
  -50.9671   59.6523   62.3520 C   0  0  0  0  0  0  0  0  0  0  0  0
  -50.9475   58.1850   61.9340 C   0  0  0  0  0  0  0  0  0  0  0  0
  -49.5498   57.6300   61.7223 C   0  0  0  0  0  0  0  0  0  0  0  0
  -49.4047   56.8121   60.4506 C   0  0  0  0  0  0  0  0  0  0  0  0
  -48.5238   57.4497   59.3890 C   0  0  0  0  0  0  0  0  0  0  0  0
  -47.5197   56.4853   58.7761 C   0  0  0  0  0  0  0  0  0  0  0  0
  -47.1158   56.8275   57.3556 C   0  0  0  0  0  0  0  0  0  0  0  0
  -46.9535   58.3058   57.1373 C   0  0  0  0  0  0  0  0  0  0  0  0
 21 22  1  0  0  0
  4  5  2  0  0  0
 25 24  1  0  0  0
 25 26  2  0  0  0
 25 27  1  0  0  0
 25 29  1  0  0  0
 22 20  1  0  0  0
  3  5  1  0  0  0
  3  2  1  0  0  0
 20 19  1  0  0  0
 24 23  1  0  0  0
 19 18  1  0  0  0
 18 17  1  0  0  0
 27 28  1  0  0  0
 17 16  1  0  0  0
 29 30  1  0  0  0
 16 15  1  0  0  0
 34 35  1  0  0  0
 34 36  1  0  0  0
 15 14  1  0  0  0
 31 32  1  0  0  0
 31 33  1  0  0  0
 14 13  1  0  0  0
 37  1  1  0  0  0
 37 39  1  0  0  0
 13 12  1  0  0  0
 38 39  2  0  0  0
 12 11  1  0  0  0
 11 10  1  0  0  0
 10  9  1  0  0  0
  9  8  1  0  0  0
  8  7  1  0  0  0
  7  6  1  0  0  0
  6  5  1  0  0  0
  2  1  1  0  0  0
  1 23  1  0  0  0
 30 32  1  0  0  0
 32 35  1  0  0  0
 39 40  1  0  0  0
 40 41  1  0  0  0
 41 42  1  0  0  0
 42 43  1  0  0  0
 43 44  1  0  0  0
 44 45  1  0  0  0
 45 46  1  0  0  0
 46 47  1  0  0  0
 47 48  2  0  0  0
 48 49  1  0  0  0
 49 50  1  0  0  0
 50 51  1  0  0  0
 51 52  1  0  0  0
 52 53  1  0  0  0
 53 54  1  0  0  0
 54 55  1  0  0  0
 55 56  1  0  0  0
M  CHG 1  26  -1
M  END
> <minimizedAffinity>
-8.51070

> <CNNscore>
0.4854033887

> <CNNaffinity>
7.3335657120

> <CNN_VS>
3.5597376823

> <CNNaffinity_variance>
1.0064123869

$$$$
/media/chris/experiments/cd1a-new-docking/inputs/ligands/7sh4_ligand.pdb


 56 55  0  0  0  0  0  0  0  0999 V2000
  -40.8173   59.7770   64.3625 C   0  0  0  0  0  0  0  0  0  0  0  0
  -40.3851   58.4012   63.9405 C   0  0  0  0  0  0  0  0  0  0  0  0
  -41.4587   57.9429   63.0917 O   0  0  0  0  0  0  0  0  0  0  0  0
  -41.6608   55.7161   63.0808 O   0  0  0  0  0  0  0  0  0  0  0  0
  -41.3215   56.7355   62.5428 C   0  0  0  0  0  0  0  0  0  0  0  0
  -40.8111   56.8347   61.1341 C   0  0  0  0  0  0  0  0  0  0  0  0
  -41.5446   57.8539   60.2787 C   0  0  0  0  0  0  0  0  0  0  0  0
  -40.6249   58.9161   59.7144 C   0  0  0  0  0  0  0  0  0  0  0  0
  -39.3351   58.3763   59.1389 C   0  0  0  0  0  0  0  0  0  0  0  0
  -38.1075   59.1032   59.6494 C   0  0  0  0  0  0  0  0  0  0  0  0
  -37.9662   59.0482   61.1510 C   0  0  0  0  0  0  0  0  0  0  0  0
  -36.8724   58.1183   61.6053 C   0  0  0  0  0  0  0  0  0  0  0  0
  -36.9051   57.8332   63.0905 C   0  0  0  0  0  0  0  0  0  0  0  0
  -35.5214   57.7723   63.7053 C   0  0  0  0  0  0  0  0  0  0  0  0
  -34.8321   59.1165   63.8105 C   0  0  0  0  0  0  0  0  0  0  0  0
  -33.3357   59.0215   64.0860 C   0  0  0  0  0  0  0  0  0  0  0  0
  -32.4910   58.8290   62.8412 C   0  0  0  0  0  0  0  0  0  0  0  0
  -31.2857   59.7452   62.7840 C   0  0  0  0  0  0  0  0  0  0  0  0
  -31.3457   60.7626   61.6532 C   0  0  0  0  0  0  0  0  0  0  0  0
  -31.4166   62.2012   62.1333 C   0  0  0  0  0  0  0  0  0  0  0  0
  -32.1705   64.5228   61.5186 C   0  0  0  0  0  0  0  0  0  0  0  0
  -32.4809   63.0444   61.4569 C   0  0  0  0  0  0  0  0  0  0  0  0
  -40.3297   60.1241   65.7458 C   0  0  0  0  0  0  0  0  0  0  0  0
  -39.4341   61.2545   65.6533 O   0  0  0  0  0  0  0  0  0  0  0  0
  -37.8637   61.0974   65.3869 P   0  0  0  0  0  0  0  0  0  0  0  0
  -37.4283   59.8070   65.9631 O   0  0  0  0  0  0  0  0  0  0  0  0
  -37.6112   61.3568   63.9490 O   0  0  0  0  0  0  0  0  0  0  0  0
  -38.0220   60.6572   63.4172 H   0  0  0  0  0  0  0  0  0  0  0  0
  -37.1743   62.2665   66.2241 O   0  0  0  0  0  0  0  0  0  0  0  0
  -36.1838   63.1111   65.6032 C   0  0  0  0  0  0  0  0  0  0  0  0
  -36.2877   63.8271   67.8877 O   0  0  0  0  0  0  0  0  0  0  0  0
  -35.7637   64.1635   66.5996 C   0  0  0  0  0  0  0  0  0  0  0  0
  -37.2510   63.7288   67.8293 H   0  0  0  0  0  0  0  0  0  0  0  0
  -33.7268   63.5343   67.7281 O   0  0  0  0  0  0  0  0  0  0  0  0
  -34.2638   64.3205   66.6721 C   0  0  0  0  0  0  0  0  0  0  0  0
  -32.7640   63.6481   67.7587 H   0  0  0  0  0  0  0  0  0  0  0  0
  -42.2787   59.8506   64.2690 O   0  0  0  0  0  0  0  0  0  0  0  0
  -42.7386   62.0403   64.5014 O   0  0  0  0  0  0  0  0  0  0  0  0
  -42.8761   60.9028   64.8606 C   0  0  0  0  0  0  0  0  0  0  0  0
  -43.7448   60.4831   66.0058 C   0  0  0  0  0  0  0  0  0  0  0  0
  -44.0066   58.9806   65.9871 C   0  0  0  0  0  0  0  0  0  0  0  0
  -45.4592   58.6111   65.7351 C   0  0  0  0  0  0  0  0  0  0  0  0
  -46.4451   59.3904   66.5979 C   0  0  0  0  0  0  0  0  0  0  0  0
  -47.6634   59.8905   65.8442 C   0  0  0  0  0  0  0  0  0  0  0  0
  -47.3933   60.2902   64.3908 C   0  0  0  0  0  0  0  0  0  0  0  0
  -48.5703   60.9468   63.6661 C   0  0  0  0  0  0  0  0  0  0  0  0
  -49.8456   60.8392   64.4472 C   0  0  0  0  0  0  0  0  0  0  0  0
  -50.9516   60.2287   64.0686 C   0  0  0  0  0  0  0  0  0  0  0  0
  -51.1644   59.5106   62.7734 C   0  0  0  0  0  0  0  0  0  0  0  0
  -50.6157   58.0870   62.7999 C   0  0  0  0  0  0  0  0  0  0  0  0
  -49.7751   57.7350   61.5852 C   0  0  0  0  0  0  0  0  0  0  0  0
  -50.1488   58.5169   60.3377 C   0  0  0  0  0  0  0  0  0  0  0  0
  -49.5135   58.0009   59.0572 C   0  0  0  0  0  0  0  0  0  0  0  0
  -48.2041   58.6923   58.7094 C   0  0  0  0  0  0  0  0  0  0  0  0
  -47.3008   57.8897   57.7941 C   0  0  0  0  0  0  0  0  0  0  0  0
  -48.0660   57.0923   56.7752 C   0  0  0  0  0  0  0  0  0  0  0  0
 21 22  1  0  0  0
  4  5  2  0  0  0
 25 24  1  0  0  0
 25 26  2  0  0  0
 25 27  1  0  0  0
 25 29  1  0  0  0
 22 20  1  0  0  0
  3  5  1  0  0  0
  3  2  1  0  0  0
 20 19  1  0  0  0
 24 23  1  0  0  0
 19 18  1  0  0  0
 18 17  1  0  0  0
 27 28  1  0  0  0
 17 16  1  0  0  0
 29 30  1  0  0  0
 16 15  1  0  0  0
 34 35  1  0  0  0
 34 36  1  0  0  0
 15 14  1  0  0  0
 31 32  1  0  0  0
 31 33  1  0  0  0
 14 13  1  0  0  0
 37  1  1  0  0  0
 37 39  1  0  0  0
 13 12  1  0  0  0
 38 39  2  0  0  0
 12 11  1  0  0  0
 11 10  1  0  0  0
 10  9  1  0  0  0
  9  8  1  0  0  0
  8  7  1  0  0  0
  7  6  1  0  0  0
  6  5  1  0  0  0
  2  1  1  0  0  0
  1 23  1  0  0  0
 30 32  1  0  0  0
 32 35  1  0  0  0
 39 40  1  0  0  0
 40 41  1  0  0  0
 41 42  1  0  0  0
 42 43  1  0  0  0
 43 44  1  0  0  0
 44 45  1  0  0  0
 45 46  1  0  0  0
 46 47  1  0  0  0
 47 48  2  0  0  0
 48 49  1  0  0  0
 49 50  1  0  0  0
 50 51  1  0  0  0
 51 52  1  0  0  0
 52 53  1  0  0  0
 53 54  1  0  0  0
 54 55  1  0  0  0
 55 56  1  0  0  0
M  CHG 1  26  -1
M  END
> <minimizedAffinity>
-8.60961

> <CNNscore>
0.4291040897

> <CNNaffinity>
7.3485512733

> <CNN_VS>
3.1532933712

> <CNNaffinity_variance>
0.9611417651

$$$$
/media/chris/experiments/cd1a-new-docking/inputs/ligands/7sh4_ligand.pdb


 56 55  0  0  0  0  0  0  0  0999 V2000
  -38.9181   60.3997   64.9540 C   0  0  0  0  0  0  0  0  0  0  0  0
  -37.8053   59.7145   65.6955 C   0  0  0  0  0  0  0  0  0  0  0  0
  -37.9589   58.3223   65.3470 O   0  0  0  0  0  0  0  0  0  0  0  0
  -36.3235   56.8351   65.6833 O   0  0  0  0  0  0  0  0  0  0  0  0
  -36.8553   57.6628   64.9935 C   0  0  0  0  0  0  0  0  0  0  0  0
  -36.4490   57.9992   63.5876 C   0  0  0  0  0  0  0  0  0  0  0  0
  -37.4621   57.5862   62.5333 C   0  0  0  0  0  0  0  0  0  0  0  0
  -37.9709   58.7570   61.7189 C   0  0  0  0  0  0  0  0  0  0  0  0
  -37.6910   58.6488   60.2371 C   0  0  0  0  0  0  0  0  0  0  0  0
  -38.7881   59.2480   59.3807 C   0  0  0  0  0  0  0  0  0  0  0  0
  -39.7198   58.2131   58.7991 C   0  0  0  0  0  0  0  0  0  0  0  0
  -41.1077   58.2785   59.3795 C   0  0  0  0  0  0  0  0  0  0  0  0
  -41.5665   56.9714   59.9872 C   0  0  0  0  0  0  0  0  0  0  0  0
  -40.6623   56.4974   61.1070 C   0  0  0  0  0  0  0  0  0  0  0  0
  -41.3205   55.5249   62.0632 C   0  0  0  0  0  0  0  0  0  0  0  0
  -41.2412   55.9496   63.5252 C   0  0  0  0  0  0  0  0  0  0  0  0
  -41.3498   57.4472   63.7385 C   0  0  0  0  0  0  0  0  0  0  0  0
  -42.7558   57.9810   63.5555 C   0  0  0  0  0  0  0  0  0  0  0  0
  -42.8299   59.2119   62.6629 C   0  0  0  0  0  0  0  0  0  0  0  0
  -41.5036   59.9362   62.5154 C   0  0  0  0  0  0  0  0  0  0  0  0
  -42.7256   61.9890   61.7225 C   0  0  0  0  0  0  0  0  0  0  0  0
  -41.5192   61.0965   61.5384 C   0  0  0  0  0  0  0  0  0  0  0  0
  -38.4005   61.4200   63.9728 C   0  0  0  0  0  0  0  0  0  0  0  0
  -36.9664   61.5209   64.1197 O   0  0  0  0  0  0  0  0  0  0  0  0
  -36.1806   62.9122   64.0264 P   0  0  0  0  0  0  0  0  0  0  0  0
  -35.4388   62.9343   62.7474 O   0  0  0  0  0  0  0  0  0  0  0  0
  -37.1414   64.0050   64.3116 O   0  0  0  0  0  0  0  0  0  0  0  0
  -37.8021   64.0478   63.6026 H   0  0  0  0  0  0  0  0  0  0  0  0
  -35.1145   62.8754   65.2117 O   0  0  0  0  0  0  0  0  0  0  0  0
  -35.3646   63.6059   66.4298 C   0  0  0  0  0  0  0  0  0  0  0  0
  -33.2687   63.5434   67.5901 O   0  0  0  0  0  0  0  0  0  0  0  0
  -34.1159   64.3730   66.7895 C   0  0  0  0  0  0  0  0  0  0  0  0
  -33.7588   63.2375   68.3693 H   0  0  0  0  0  0  0  0  0  0  0  0
  -32.5743   63.8159   65.0199 O   0  0  0  0  0  0  0  0  0  0  0  0
  -33.3684   64.8587   65.5708 C   0  0  0  0  0  0  0  0  0  0  0  0
  -32.1026   64.1465   64.2394 H   0  0  0  0  0  0  0  0  0  0  0  0
  -39.8239   61.0037   65.9362 O   0  0  0  0  0  0  0  0  0  0  0  0
  -41.0491   59.1359   66.2011 O   0  0  0  0  0  0  0  0  0  0  0  0
  -40.9585   60.3331   66.2138 C   0  0  0  0  0  0  0  0  0  0  0  0
  -42.0858   61.2569   66.5573 C   0  0  0  0  0  0  0  0  0  0  0  0
  -42.8262   61.7236   65.3080 C   0  0  0  0  0  0  0  0  0  0  0  0
  -44.2130   61.1215   65.1526 C   0  0  0  0  0  0  0  0  0  0  0  0
  -44.5074   60.0036   66.1463 C   0  0  0  0  0  0  0  0  0  0  0  0
  -45.7571   59.2053   65.8247 C   0  0  0  0  0  0  0  0  0  0  0  0
  -46.5654   59.7383   64.6383 C   0  0  0  0  0  0  0  0  0  0  0  0
  -48.0335   59.3081   64.6043 C   0  0  0  0  0  0  0  0  0  0  0  0
  -48.9657   60.4822   64.5804 C   0  0  0  0  0  0  0  0  0  0  0  0
  -50.0582   60.6053   63.8520 C   0  0  0  0  0  0  0  0  0  0  0  0
  -50.5988   59.5919   62.8932 C   0  0  0  0  0  0  0  0  0  0  0  0
  -49.9785   59.7151   61.5045 C   0  0  0  0  0  0  0  0  0  0  0  0
  -49.0458   58.5704   61.1498 C   0  0  0  0  0  0  0  0  0  0  0  0
  -49.5674   57.6824   60.0334 C   0  0  0  0  0  0  0  0  0  0  0  0
  -48.8070   56.3782   59.8587 C   0  0  0  0  0  0  0  0  0  0  0  0
  -47.9029   56.3635   58.6356 C   0  0  0  0  0  0  0  0  0  0  0  0
  -48.2013   57.4562   57.6283 C   0  0  0  0  0  0  0  0  0  0  0  0
  -46.9655   58.1814   57.1739 C   0  0  0  0  0  0  0  0  0  0  0  0
 21 22  1  0  0  0
  4  5  2  0  0  0
 25 24  1  0  0  0
 25 26  2  0  0  0
 25 27  1  0  0  0
 25 29  1  0  0  0
 22 20  1  0  0  0
  3  5  1  0  0  0
  3  2  1  0  0  0
 20 19  1  0  0  0
 24 23  1  0  0  0
 19 18  1  0  0  0
 18 17  1  0  0  0
 27 28  1  0  0  0
 17 16  1  0  0  0
 29 30  1  0  0  0
 16 15  1  0  0  0
 34 35  1  0  0  0
 34 36  1  0  0  0
 15 14  1  0  0  0
 31 32  1  0  0  0
 31 33  1  0  0  0
 14 13  1  0  0  0
 37  1  1  0  0  0
 37 39  1  0  0  0
 13 12  1  0  0  0
 38 39  2  0  0  0
 12 11  1  0  0  0
 11 10  1  0  0  0
 10  9  1  0  0  0
  9  8  1  0  0  0
  8  7  1  0  0  0
  7  6  1  0  0  0
  6  5  1  0  0  0
  2  1  1  0  0  0
  1 23  1  0  0  0
 30 32  1  0  0  0
 32 35  1  0  0  0
 39 40  1  0  0  0
 40 41  1  0  0  0
 41 42  1  0  0  0
 42 43  1  0  0  0
 43 44  1  0  0  0
 44 45  1  0  0  0
 45 46  1  0  0  0
 46 47  1  0  0  0
 47 48  2  0  0  0
 48 49  1  0  0  0
 49 50  1  0  0  0
 50 51  1  0  0  0
 51 52  1  0  0  0
 52 53  1  0  0  0
 53 54  1  0  0  0
 54 55  1  0  0  0
 55 56  1  0  0  0
M  CHG 1  26  -1
M  END
> <minimizedAffinity>
-8.06077

> <CNNscore>
0.2362422496

> <CNNaffinity>
7.4071326256

> <CNN_VS>
1.7498776913

> <CNNaffinity_variance>
1.4456319809

$$$$
/media/chris/experiments/cd1a-new-docking/inputs/ligands/7sh4_ligand.pdb


 56 55  0  0  0  0  0  0  0  0999 V2000
  -40.8075   59.0666   65.2020 C   0  0  0  0  0  0  0  0  0  0  0  0
  -39.3515   59.3758   64.9966 C   0  0  0  0  0  0  0  0  0  0  0  0
  -38.7471   58.0830   64.7809 O   0  0  0  0  0  0  0  0  0  0  0  0
  -37.5485   57.7224   62.9281 O   0  0  0  0  0  0  0  0  0  0  0  0
  -37.6126   58.0558   64.0807 C   0  0  0  0  0  0  0  0  0  0  0  0
  -36.4685   58.6104   64.8795 C   0  0  0  0  0  0  0  0  0  0  0  0
  -35.2346   58.9339   64.0542 C   0  0  0  0  0  0  0  0  0  0  0  0
  -33.9443   58.6792   64.8044 C   0  0  0  0  0  0  0  0  0  0  0  0
  -32.7087   58.6909   63.9331 C   0  0  0  0  0  0  0  0  0  0  0  0
  -32.9205   59.4035   62.6127 C   0  0  0  0  0  0  0  0  0  0  0  0
  -32.2832   60.7708   62.5667 C   0  0  0  0  0  0  0  0  0  0  0  0
  -32.9820   61.7753   63.4443 C   0  0  0  0  0  0  0  0  0  0  0  0
  -33.0432   63.1607   62.8399 C   0  0  0  0  0  0  0  0  0  0  0  0
  -31.9047   64.0497   63.2977 C   0  0  0  0  0  0  0  0  0  0  0  0
  -31.9390   64.3870   64.7736 C   0  0  0  0  0  0  0  0  0  0  0  0
  -33.3209   64.7798   65.2837 C   0  0  0  0  0  0  0  0  0  0  0  0
  -33.7145   64.1011   66.5815 C   0  0  0  0  0  0  0  0  0  0  0  0
  -35.1830   63.7341   66.6477 C   0  0  0  0  0  0  0  0  0  0  0  0
  -35.4993   62.3723   66.0455 C   0  0  0  0  0  0  0  0  0  0  0  0
  -36.8068   62.3377   65.2744 C   0  0  0  0  0  0  0  0  0  0  0  0
  -36.5492   63.7893   63.2342 C   0  0  0  0  0  0  0  0  0  0  0  0
  -36.6552   62.3779   63.7656 C   0  0  0  0  0  0  0  0  0  0  0  0
  -41.1905   57.7309   64.6180 C   0  0  0  0  0  0  0  0  0  0  0  0
  -41.8504   57.9491   63.3510 O   0  0  0  0  0  0  0  0  0  0  0  0
  -41.1367   57.6804   61.9437 P   0  0  0  0  0  0  0  0  0  0  0  0
  -40.3193   56.4548   62.0714 O   0  0  0  0  0  0  0  0  0  0  0  0
  -42.1712   57.7394   60.8830 O   0  0  0  0  0  0  0  0  0  0  0  0
  -42.7880   56.9986   60.9913 H   0  0  0  0  0  0  0  0  0  0  0  0
  -40.1459   58.9116   61.7308 O   0  0  0  0  0  0  0  0  0  0  0  0
  -40.1984   59.6770   60.5097 C   0  0  0  0  0  0  0  0  0  0  0  0
  -37.9967   60.2789   61.2395 O   0  0  0  0  0  0  0  0  0  0  0  0
  -38.7852   59.9879   60.0817 C   0  0  0  0  0  0  0  0  0  0  0  0
  -38.4067   61.0045   61.7359 H   0  0  0  0  0  0  0  0  0  0  0  0
  -39.0852   58.3324   58.3532 O   0  0  0  0  0  0  0  0  0  0  0  0
  -38.1610   58.8595   59.2964 C   0  0  0  0  0  0  0  0  0  0  0  0
  -38.6667   57.6099   57.8594 H   0  0  0  0  0  0  0  0  0  0  0  0
  -41.5973   60.1575   64.6224 O   0  0  0  0  0  0  0  0  0  0  0  0
  -41.8018   61.3892   66.4936 O   0  0  0  0  0  0  0  0  0  0  0  0
  -42.2714   60.9464   65.4811 C   0  0  0  0  0  0  0  0  0  0  0  0
  -43.6674   61.2194   65.0135 C   0  0  0  0  0  0  0  0  0  0  0  0
  -44.5372   59.9687   65.0908 C   0  0  0  0  0  0  0  0  0  0  0  0
  -46.0212   60.2586   65.2453 C   0  0  0  0  0  0  0  0  0  0  0  0
  -46.9161   59.2622   64.5173 C   0  0  0  0  0  0  0  0  0  0  0  0
  -48.0595   58.7291   65.3605 C   0  0  0  0  0  0  0  0  0  0  0  0
  -49.0175   59.8021   65.8857 C   0  0  0  0  0  0  0  0  0  0  0  0
  -50.5031   59.5206   65.6507 C   0  0  0  0  0  0  0  0  0  0  0  0
  -51.0583   60.3276   64.5155 C   0  0  0  0  0  0  0  0  0  0  0  0
  -51.1761   59.9426   63.2596 C   0  0  0  0  0  0  0  0  0  0  0  0
  -50.7794   58.6115   62.7034 C   0  0  0  0  0  0  0  0  0  0  0  0
  -49.4480   58.6646   61.9598 C   0  0  0  0  0  0  0  0  0  0  0  0
  -49.5528   59.2515   60.5631 C   0  0  0  0  0  0  0  0  0  0  0  0
  -49.2927   58.2435   59.4570 C   0  0  0  0  0  0  0  0  0  0  0  0
  -48.1413   57.2904   59.7317 C   0  0  0  0  0  0  0  0  0  0  0  0
  -47.6273   56.5863   58.4852 C   0  0  0  0  0  0  0  0  0  0  0  0
  -47.8022   57.3800   57.2057 C   0  0  0  0  0  0  0  0  0  0  0  0
  -46.7030   58.3819   56.9880 C   0  0  0  0  0  0  0  0  0  0  0  0
 21 22  1  0  0  0
  4  5  2  0  0  0
 25 24  1  0  0  0
 25 26  2  0  0  0
 25 27  1  0  0  0
 25 29  1  0  0  0
 22 20  1  0  0  0
  3  5  1  0  0  0
  3  2  1  0  0  0
 20 19  1  0  0  0
 24 23  1  0  0  0
 19 18  1  0  0  0
 18 17  1  0  0  0
 27 28  1  0  0  0
 17 16  1  0  0  0
 29 30  1  0  0  0
 16 15  1  0  0  0
 34 35  1  0  0  0
 34 36  1  0  0  0
 15 14  1  0  0  0
 31 32  1  0  0  0
 31 33  1  0  0  0
 14 13  1  0  0  0
 37  1  1  0  0  0
 37 39  1  0  0  0
 13 12  1  0  0  0
 38 39  2  0  0  0
 12 11  1  0  0  0
 11 10  1  0  0  0
 10  9  1  0  0  0
  9  8  1  0  0  0
  8  7  1  0  0  0
  7  6  1  0  0  0
  6  5  1  0  0  0
  2  1  1  0  0  0
  1 23  1  0  0  0
 30 32  1  0  0  0
 32 35  1  0  0  0
 39 40  1  0  0  0
 40 41  1  0  0  0
 41 42  1  0  0  0
 42 43  1  0  0  0
 43 44  1  0  0  0
 44 45  1  0  0  0
 45 46  1  0  0  0
 46 47  1  0  0  0
 47 48  2  0  0  0
 48 49  1  0  0  0
 49 50  1  0  0  0
 50 51  1  0  0  0
 51 52  1  0  0  0
 52 53  1  0  0  0
 53 54  1  0  0  0
 54 55  1  0  0  0
 55 56  1  0  0  0
M  CHG 1  26  -1
M  END
> <minimizedAffinity>
-8.03627

> <CNNscore>
0.2300079912

> <CNNaffinity>
6.7572631836

> <CNN_VS>
1.5542244911

> <CNNaffinity_variance>
0.9755821228

$$$$
/media/chris/experiments/cd1a-new-docking/inputs/ligands/7sh4_ligand.pdb


 56 55  0  0  0  0  0  0  0  0999 V2000
  -39.8427   60.6168   65.1873 C   0  0  0  0  0  0  0  0  0  0  0  0
  -39.9861   60.6350   63.6917 C   0  0  0  0  0  0  0  0  0  0  0  0
  -41.1788   61.4155   63.4647 O   0  0  0  0  0  0  0  0  0  0  0  0
  -42.7960   61.6415   61.9373 O   0  0  0  0  0  0  0  0  0  0  0  0
  -42.0467   60.9456   62.5682 C   0  0  0  0  0  0  0  0  0  0  0  0
  -41.8729   59.4676   62.3676 C   0  0  0  0  0  0  0  0  0  0  0  0
  -42.9665   58.6229   62.9992 C   0  0  0  0  0  0  0  0  0  0  0  0
  -42.4968   57.2290   63.3583 C   0  0  0  0  0  0  0  0  0  0  0  0
  -41.0579   56.9463   62.9901 C   0  0  0  0  0  0  0  0  0  0  0  0
  -40.9205   55.9596   61.8483 C   0  0  0  0  0  0  0  0  0  0  0  0
  -41.4964   56.4697   60.5499 C   0  0  0  0  0  0  0  0  0  0  0  0
  -40.4704   57.1380   59.6735 C   0  0  0  0  0  0  0  0  0  0  0  0
  -40.7760   58.5928   59.3937 C   0  0  0  0  0  0  0  0  0  0  0  0
  -39.5562   59.4826   59.5240 C   0  0  0  0  0  0  0  0  0  0  0  0
  -38.2862   58.7411   59.8851 C   0  0  0  0  0  0  0  0  0  0  0  0
  -37.8126   58.9897   61.3128 C   0  0  0  0  0  0  0  0  0  0  0  0
  -37.5611   57.7229   62.1078 C   0  0  0  0  0  0  0  0  0  0  0  0
  -37.3789   57.9696   63.5915 C   0  0  0  0  0  0  0  0  0  0  0  0
  -35.9315   57.8722   64.0530 C   0  0  0  0  0  0  0  0  0  0  0  0
  -34.9306   57.8398   62.9117 C   0  0  0  0  0  0  0  0  0  0  0  0
  -33.3947   58.5894   64.7597 C   0  0  0  0  0  0  0  0  0  0  0  0
  -33.5125   58.2129   63.3002 C   0  0  0  0  0  0  0  0  0  0  0  0
  -38.4386   60.9456   65.6255 C   0  0  0  0  0  0  0  0  0  0  0  0
  -37.7242   61.5174   64.5070 O   0  0  0  0  0  0  0  0  0  0  0  0
  -36.1563   61.8361   64.5508 P   0  0  0  0  0  0  0  0  0  0  0  0
  -35.5917   61.1930   65.7567 O   0  0  0  0  0  0  0  0  0  0  0  0
  -35.5795   61.4984   63.2271 O   0  0  0  0  0  0  0  0  0  0  0  0
  -35.6317   60.5400   63.0867 H   0  0  0  0  0  0  0  0  0  0  0  0
  -36.0516   63.4159   64.7421 O   0  0  0  0  0  0  0  0  0  0  0  0
  -34.7599   64.0413   64.8842 C   0  0  0  0  0  0  0  0  0  0  0  0
  -35.6795   64.0352   67.0971 O   0  0  0  0  0  0  0  0  0  0  0  0
  -34.6579   64.6113   66.2777 C   0  0  0  0  0  0  0  0  0  0  0  0
  -36.5463   64.1909   66.6905 H   0  0  0  0  0  0  0  0  0  0  0  0
  -33.3082   63.2028   67.6964 O   0  0  0  0  0  0  0  0  0  0  0  0
  -33.3005   64.3781   66.8962 C   0  0  0  0  0  0  0  0  0  0  0  0
  -32.4292   63.0701   68.0846 H   0  0  0  0  0  0  0  0  0  0  0  0
  -40.2685   59.3015   65.6758 O   0  0  0  0  0  0  0  0  0  0  0  0
  -42.0413   58.1795   66.4874 O   0  0  0  0  0  0  0  0  0  0  0  0
  -41.5084   59.2149   66.1948 C   0  0  0  0  0  0  0  0  0  0  0  0
  -42.1338   60.5627   66.3800 C   0  0  0  0  0  0  0  0  0  0  0  0
  -43.6544   60.4910   66.2848 C   0  0  0  0  0  0  0  0  0  0  0  0
  -44.2415   61.3266   65.1591 C   0  0  0  0  0  0  0  0  0  0  0  0
  -45.4188   60.6611   64.4557 C   0  0  0  0  0  0  0  0  0  0  0  0
  -46.1521   59.6430   65.3091 C   0  0  0  0  0  0  0  0  0  0  0  0
  -47.5003   60.1222   65.8546 C   0  0  0  0  0  0  0  0  0  0  0  0
  -48.5543   60.4465   64.7937 C   0  0  0  0  0  0  0  0  0  0  0  0
  -49.8951   59.8685   65.1343 C   0  0  0  0  0  0  0  0  0  0  0  0
  -50.8862   59.6318   64.2970 C   0  0  0  0  0  0  0  0  0  0  0  0
  -50.8778   59.8909   62.8234 C   0  0  0  0  0  0  0  0  0  0  0  0
  -50.4792   58.6581   62.0176 C   0  0  0  0  0  0  0  0  0  0  0  0
  -49.7445   58.9835   60.7289 C   0  0  0  0  0  0  0  0  0  0  0  0
  -50.2953   58.2583   59.5132 C   0  0  0  0  0  0  0  0  0  0  0  0
  -49.2385   57.6089   58.6351 C   0  0  0  0  0  0  0  0  0  0  0  0
  -47.9998   58.4700   58.4409 C   0  0  0  0  0  0  0  0  0  0  0  0
  -46.9833   57.8894   57.4779 C   0  0  0  0  0  0  0  0  0  0  0  0
  -47.2020   56.4258   57.2141 C   0  0  0  0  0  0  0  0  0  0  0  0
 21 22  1  0  0  0
  4  5  2  0  0  0
 25 24  1  0  0  0
 25 26  2  0  0  0
 25 27  1  0  0  0
 25 29  1  0  0  0
 22 20  1  0  0  0
  3  5  1  0  0  0
  3  2  1  0  0  0
 20 19  1  0  0  0
 24 23  1  0  0  0
 19 18  1  0  0  0
 18 17  1  0  0  0
 27 28  1  0  0  0
 17 16  1  0  0  0
 29 30  1  0  0  0
 16 15  1  0  0  0
 34 35  1  0  0  0
 34 36  1  0  0  0
 15 14  1  0  0  0
 31 32  1  0  0  0
 31 33  1  0  0  0
 14 13  1  0  0  0
 37  1  1  0  0  0
 37 39  1  0  0  0
 13 12  1  0  0  0
 38 39  2  0  0  0
 12 11  1  0  0  0
 11 10  1  0  0  0
 10  9  1  0  0  0
  9  8  1  0  0  0
  8  7  1  0  0  0
  7  6  1  0  0  0
  6  5  1  0  0  0
  2  1  1  0  0  0
  1 23  1  0  0  0
 30 32  1  0  0  0
 32 35  1  0  0  0
 39 40  1  0  0  0
 40 41  1  0  0  0
 41 42  1  0  0  0
 42 43  1  0  0  0
 43 44  1  0  0  0
 44 45  1  0  0  0
 45 46  1  0  0  0
 46 47  1  0  0  0
 47 48  2  0  0  0
 48 49  1  0  0  0
 49 50  1  0  0  0
 50 51  1  0  0  0
 51 52  1  0  0  0
 52 53  1  0  0  0
 53 54  1  0  0  0
 54 55  1  0  0  0
 55 56  1  0  0  0
M  CHG 1  26  -1
M  END
> <minimizedAffinity>
-8.39827

> <CNNscore>
0.2208220214

> <CNNaffinity>
7.3097505569

> <CNN_VS>
1.6141538620

> <CNNaffinity_variance>
1.2971408367

$$$$
/media/chris/experiments/cd1a-new-docking/inputs/ligands/7sh4_ligand.pdb


 56 55  0  0  0  0  0  0  0  0999 V2000
  -39.3054   60.1111   61.6058 C   0  0  0  0  0  0  0  0  0  0  0  0
  -40.3645   60.7512   60.7535 C   0  0  0  0  0  0  0  0  0  0  0  0
  -41.5736   60.6002   61.5271 O   0  0  0  0  0  0  0  0  0  0  0  0
  -42.6070   62.4838   60.9077 O   0  0  0  0  0  0  0  0  0  0  0  0
  -42.2818   61.7052   61.7630 C   0  0  0  0  0  0  0  0  0  0  0  0
  -42.7168   61.7746   63.1985 C   0  0  0  0  0  0  0  0  0  0  0  0
  -43.6857   60.6779   63.6070 C   0  0  0  0  0  0  0  0  0  0  0  0
  -44.8746   61.2050   64.3826 C   0  0  0  0  0  0  0  0  0  0  0  0
  -45.3855   60.2626   65.4488 C   0  0  0  0  0  0  0  0  0  0  0  0
  -46.0322   59.0165   64.8789 C   0  0  0  0  0  0  0  0  0  0  0  0
  -47.3497   59.2904   64.1956 C   0  0  0  0  0  0  0  0  0  0  0  0
  -48.3145   60.0549   65.0630 C   0  0  0  0  0  0  0  0  0  0  0  0
  -49.2385   60.9605   64.2792 C   0  0  0  0  0  0  0  0  0  0  0  0
  -49.6208   60.3818   62.9319 C   0  0  0  0  0  0  0  0  0  0  0  0
  -50.9913   59.7383   62.9021 C   0  0  0  0  0  0  0  0  0  0  0  0
  -50.9847   58.2979   62.4025 C   0  0  0  0  0  0  0  0  0  0  0  0
  -49.6806   57.8770   61.7529 C   0  0  0  0  0  0  0  0  0  0  0  0
  -49.8293   57.5005   60.2930 C   0  0  0  0  0  0  0  0  0  0  0  0
  -48.8608   56.4165   59.8407 C   0  0  0  0  0  0  0  0  0  0  0  0
  -47.6089   56.9594   59.1751 C   0  0  0  0  0  0  0  0  0  0  0  0
  -47.0000   58.2363   57.0930 C   0  0  0  0  0  0  0  0  0  0  0  0
  -47.8186   58.2241   58.3640 C   0  0  0  0  0  0  0  0  0  0  0  0
  -38.0786   60.9778   61.7304 C   0  0  0  0  0  0  0  0  0  0  0  0
  -38.1725   61.7439   62.9521 O   0  0  0  0  0  0  0  0  0  0  0  0
  -36.9353   62.5533   63.5656 P   0  0  0  0  0  0  0  0  0  0  0  0
  -35.7392   61.6872   63.4908 O   0  0  0  0  0  0  0  0  0  0  0  0
  -36.8905   63.8872   62.9196 O   0  0  0  0  0  0  0  0  0  0  0  0
  -36.6749   63.7840   61.9795 H   0  0  0  0  0  0  0  0  0  0  0  0
  -37.2919   62.7663   65.1053 O   0  0  0  0  0  0  0  0  0  0  0  0
  -36.5807   62.0276   66.1193 C   0  0  0  0  0  0  0  0  0  0  0  0
  -36.0712   62.8747   68.3023 O   0  0  0  0  0  0  0  0  0  0  0  0
  -35.7428   62.9979   66.9153 C   0  0  0  0  0  0  0  0  0  0  0  0
  -37.0235   63.0146   68.4228 H   0  0  0  0  0  0  0  0  0  0  0  0
  -33.5108   63.5014   67.6787 O   0  0  0  0  0  0  0  0  0  0  0  0
  -34.2626   62.7828   66.7092 C   0  0  0  0  0  0  0  0  0  0  0  0
  -32.5640   63.3510   67.5303 H   0  0  0  0  0  0  0  0  0  0  0  0
  -38.9856   58.7984   61.0362 O   0  0  0  0  0  0  0  0  0  0  0  0
  -38.0953   58.9959   58.9798 O   0  0  0  0  0  0  0  0  0  0  0  0
  -39.0118   58.6926   59.6937 C   0  0  0  0  0  0  0  0  0  0  0  0
  -40.3112   58.1353   59.2007 C   0  0  0  0  0  0  0  0  0  0  0  0
  -40.7518   56.9308   60.0264 C   0  0  0  0  0  0  0  0  0  0  0  0
  -42.0291   57.1599   60.8176 C   0  0  0  0  0  0  0  0  0  0  0  0
  -41.7869   57.4678   62.2908 C   0  0  0  0  0  0  0  0  0  0  0  0
  -41.2901   56.2812   63.0956 C   0  0  0  0  0  0  0  0  0  0  0  0
  -41.8329   56.2096   64.5257 C   0  0  0  0  0  0  0  0  0  0  0  0
  -42.7834   57.3424   64.9193 C   0  0  0  0  0  0  0  0  0  0  0  0
  -42.3109   58.0789   66.1368 C   0  0  0  0  0  0  0  0  0  0  0  0
  -41.3688   59.0006   66.1831 C   0  0  0  0  0  0  0  0  0  0  0  0
  -40.5718   59.5074   65.0228 C   0  0  0  0  0  0  0  0  0  0  0  0
  -39.0691   59.4602   65.2834 C   0  0  0  0  0  0  0  0  0  0  0  0
  -38.4548   58.0891   65.0624 C   0  0  0  0  0  0  0  0  0  0  0  0
  -37.4670   58.0421   63.9095 C   0  0  0  0  0  0  0  0  0  0  0  0
  -36.0119   57.9232   64.3315 C   0  0  0  0  0  0  0  0  0  0  0  0
  -35.0304   58.1478   63.1913 C   0  0  0  0  0  0  0  0  0  0  0  0
  -33.5880   58.2972   63.6326 C   0  0  0  0  0  0  0  0  0  0  0  0
  -33.4599   58.8519   65.0238 C   0  0  0  0  0  0  0  0  0  0  0  0
 21 22  1  0  0  0
  4  5  2  0  0  0
 25 24  1  0  0  0
 25 26  2  0  0  0
 25 27  1  0  0  0
 25 29  1  0  0  0
 22 20  1  0  0  0
  3  5  1  0  0  0
  3  2  1  0  0  0
 20 19  1  0  0  0
 24 23  1  0  0  0
 19 18  1  0  0  0
 18 17  1  0  0  0
 27 28  1  0  0  0
 17 16  1  0  0  0
 29 30  1  0  0  0
 16 15  1  0  0  0
 34 35  1  0  0  0
 34 36  1  0  0  0
 15 14  1  0  0  0
 31 32  1  0  0  0
 31 33  1  0  0  0
 14 13  1  0  0  0
 37  1  1  0  0  0
 37 39  1  0  0  0
 13 12  1  0  0  0
 38 39  2  0  0  0
 12 11  1  0  0  0
 11 10  1  0  0  0
 10  9  1  0  0  0
  9  8  1  0  0  0
  8  7  1  0  0  0
  7  6  1  0  0  0
  6  5  1  0  0  0
  2  1  1  0  0  0
  1 23  1  0  0  0
 30 32  1  0  0  0
 32 35  1  0  0  0
 39 40  1  0  0  0
 40 41  1  0  0  0
 41 42  1  0  0  0
 42 43  1  0  0  0
 43 44  1  0  0  0
 44 45  1  0  0  0
 45 46  1  0  0  0
 46 47  1  0  0  0
 47 48  2  0  0  0
 48 49  1  0  0  0
 49 50  1  0  0  0
 50 51  1  0  0  0
 51 52  1  0  0  0
 52 53  1  0  0  0
 53 54  1  0  0  0
 54 55  1  0  0  0
 55 56  1  0  0  0
M  CHG 1  26  -1
M  END
> <minimizedAffinity>
-8.75812

> <CNNscore>
0.2195721865

> <CNNaffinity>
7.3916101456

> <CNN_VS>
1.6229920387

> <CNNaffinity_variance>
1.6425157785

$$$$
/media/chris/experiments/cd1a-new-docking/inputs/ligands/7sh4_ligand.pdb


 56 55  0  0  0  0  0  0  0  0999 V2000
  -38.7319   59.9402   65.6510 C   0  0  0  0  0  0  0  0  0  0  0  0
  -39.9966   60.7018   65.3717 C   0  0  0  0  0  0  0  0  0  0  0  0
  -40.8917   60.2913   66.4268 O   0  0  0  0  0  0  0  0  0  0  0  0
  -42.1809   62.1099   66.2538 O   0  0  0  0  0  0  0  0  0  0  0  0
  -42.0480   60.9476   66.5276 C   0  0  0  0  0  0  0  0  0  0  0  0
  -43.1677   60.0197   66.9019 C   0  0  0  0  0  0  0  0  0  0  0  0
  -44.5091   60.3875   66.2906 C   0  0  0  0  0  0  0  0  0  0  0  0
  -45.5531   59.3062   66.4739 C   0  0  0  0  0  0  0  0  0  0  0  0
  -46.9761   59.7806   66.2842 C   0  0  0  0  0  0  0  0  0  0  0  0
  -47.5653   59.3704   64.9498 C   0  0  0  0  0  0  0  0  0  0  0  0
  -48.6125   58.2903   65.0698 C   0  0  0  0  0  0  0  0  0  0  0  0
  -49.9764   58.8286   65.4126 C   0  0  0  0  0  0  0  0  0  0  0  0
  -50.2976   60.1348   64.7206 C   0  0  0  0  0  0  0  0  0  0  0  0
  -51.1778   59.9499   63.5010 C   0  0  0  0  0  0  0  0  0  0  0  0
  -50.8890   58.6875   62.7161 C   0  0  0  0  0  0  0  0  0  0  0  0
  -50.0896   58.9250   61.4398 C   0  0  0  0  0  0  0  0  0  0  0  0
  -50.2857   57.8561   60.3820 C   0  0  0  0  0  0  0  0  0  0  0  0
  -49.3092   57.9642   59.2287 C   0  0  0  0  0  0  0  0  0  0  0  0
  -47.9298   57.4019   59.5424 C   0  0  0  0  0  0  0  0  0  0  0  0
  -47.4627   56.3503   58.5518 C   0  0  0  0  0  0  0  0  0  0  0  0
  -46.7973   58.2205   57.0040 C   0  0  0  0  0  0  0  0  0  0  0  0
  -47.3737   56.8272   57.1145 C   0  0  0  0  0  0  0  0  0  0  0  0
  -37.7546   60.7457   66.4682 C   0  0  0  0  0  0  0  0  0  0  0  0
  -37.3996   61.9355   65.7287 O   0  0  0  0  0  0  0  0  0  0  0  0
  -36.1857   62.8894   66.1511 P   0  0  0  0  0  0  0  0  0  0  0  0
  -36.4391   64.2313   65.5839 O   0  0  0  0  0  0  0  0  0  0  0  0
  -35.9854   62.7609   67.6147 O   0  0  0  0  0  0  0  0  0  0  0  0
  -36.7559   63.1231   68.0795 H   0  0  0  0  0  0  0  0  0  0  0  0
  -34.9009   62.2843   65.4257 O   0  0  0  0  0  0  0  0  0  0  0  0
  -34.8321   62.2558   63.9855 C   0  0  0  0  0  0  0  0  0  0  0  0
  -33.1278   61.9006   62.3387 O   0  0  0  0  0  0  0  0  0  0  0  0
  -33.4154   62.5689   63.5706 C   0  0  0  0  0  0  0  0  0  0  0  0
  -33.2871   60.9493   62.4421 H   0  0  0  0  0  0  0  0  0  0  0  0
  -33.6910   64.7564   64.5488 O   0  0  0  0  0  0  0  0  0  0  0  0
  -33.1727   64.0522   63.4276 C   0  0  0  0  0  0  0  0  0  0  0  0
  -33.5258   65.7060   64.4389 H   0  0  0  0  0  0  0  0  0  0  0  0
  -38.1523   59.5226   64.3705 O   0  0  0  0  0  0  0  0  0  0  0  0
  -37.3165   57.6191   65.2299 O   0  0  0  0  0  0  0  0  0  0  0  0
  -37.7031   58.2555   64.2879 C   0  0  0  0  0  0  0  0  0  0  0  0
  -37.7609   57.7306   62.8868 C   0  0  0  0  0  0  0  0  0  0  0  0
  -38.2657   58.7908   61.9133 C   0  0  0  0  0  0  0  0  0  0  0  0
  -37.6668   58.6838   60.5205 C   0  0  0  0  0  0  0  0  0  0  0  0
  -38.5679   59.2414   59.4247 C   0  0  0  0  0  0  0  0  0  0  0  0
  -39.7181   58.3267   59.0468 C   0  0  0  0  0  0  0  0  0  0  0  0
  -41.0560   58.6823   59.7015 C   0  0  0  0  0  0  0  0  0  0  0  0
  -41.7392   57.5369   60.4517 C   0  0  0  0  0  0  0  0  0  0  0  0
  -40.7860   56.4255   60.7750 C   0  0  0  0  0  0  0  0  0  0  0  0
  -40.7617   55.7056   61.8797 C   0  0  0  0  0  0  0  0  0  0  0  0
  -41.6870   55.8480   63.0467 C   0  0  0  0  0  0  0  0  0  0  0  0
  -41.1779   56.8548   64.0741 C   0  0  0  0  0  0  0  0  0  0  0  0
  -42.2565   57.7831   64.6043 C   0  0  0  0  0  0  0  0  0  0  0  0
  -43.3931   58.0194   63.6247 C   0  0  0  0  0  0  0  0  0  0  0  0
  -43.7006   59.4837   63.3582 C   0  0  0  0  0  0  0  0  0  0  0  0
  -42.4869   60.2866   62.9156 C   0  0  0  0  0  0  0  0  0  0  0  0
  -42.7922   61.7260   62.5516 C   0  0  0  0  0  0  0  0  0  0  0  0
  -42.4123   62.0611   61.1364 C   0  0  0  0  0  0  0  0  0  0  0  0
 21 22  1  0  0  0
  4  5  2  0  0  0
 25 24  1  0  0  0
 25 26  2  0  0  0
 25 27  1  0  0  0
 25 29  1  0  0  0
 22 20  1  0  0  0
  3  5  1  0  0  0
  3  2  1  0  0  0
 20 19  1  0  0  0
 24 23  1  0  0  0
 19 18  1  0  0  0
 18 17  1  0  0  0
 27 28  1  0  0  0
 17 16  1  0  0  0
 29 30  1  0  0  0
 16 15  1  0  0  0
 34 35  1  0  0  0
 34 36  1  0  0  0
 15 14  1  0  0  0
 31 32  1  0  0  0
 31 33  1  0  0  0
 14 13  1  0  0  0
 37  1  1  0  0  0
 37 39  1  0  0  0
 13 12  1  0  0  0
 38 39  2  0  0  0
 12 11  1  0  0  0
 11 10  1  0  0  0
 10  9  1  0  0  0
  9  8  1  0  0  0
  8  7  1  0  0  0
  7  6  1  0  0  0
  6  5  1  0  0  0
  2  1  1  0  0  0
  1 23  1  0  0  0
 30 32  1  0  0  0
 32 35  1  0  0  0
 39 40  1  0  0  0
 40 41  1  0  0  0
 41 42  1  0  0  0
 42 43  1  0  0  0
 43 44  1  0  0  0
 44 45  1  0  0  0
 45 46  1  0  0  0
 46 47  1  0  0  0
 47 48  2  0  0  0
 48 49  1  0  0  0
 49 50  1  0  0  0
 50 51  1  0  0  0
 51 52  1  0  0  0
 52 53  1  0  0  0
 53 54  1  0  0  0
 54 55  1  0  0  0
 55 56  1  0  0  0
M  CHG 1  26  -1
M  END
> <minimizedAffinity>
-8.21055

> <CNNscore>
0.1892544627

> <CNNaffinity>
7.4067163467

> <CNN_VS>
1.4017541409

> <CNNaffinity_variance>
1.3183555603

$$$$
/media/chris/experiments/cd1a-new-docking/inputs/ligands/7sh4_ligand.pdb


 56 55  0  0  0  0  0  0  0  0999 V2000
  -37.9756   58.6468   61.9955 C   0  0  0  0  0  0  0  0  0  0  0  0
  -38.6608   57.3152   62.1182 C   0  0  0  0  0  0  0  0  0  0  0  0
  -39.7491   57.5655   63.0326 O   0  0  0  0  0  0  0  0  0  0  0  0
  -41.3719   56.7744   61.7135 O   0  0  0  0  0  0  0  0  0  0  0  0
  -40.8907   56.9151   62.8054 C   0  0  0  0  0  0  0  0  0  0  0  0
  -41.4160   56.2854   64.0634 C   0  0  0  0  0  0  0  0  0  0  0  0
  -42.1614   57.2465   64.9739 C   0  0  0  0  0  0  0  0  0  0  0  0
  -43.6448   56.9522   65.0482 C   0  0  0  0  0  0  0  0  0  0  0  0
  -44.3688   57.6933   66.1495 C   0  0  0  0  0  0  0  0  0  0  0  0
  -45.8499   57.8613   65.8773 C   0  0  0  0  0  0  0  0  0  0  0  0
  -46.3706   59.2285   66.2480 C   0  0  0  0  0  0  0  0  0  0  0  0
  -47.8366   59.4003   65.9499 C   0  0  0  0  0  0  0  0  0  0  0  0
  -48.3898   58.3383   65.0257 C   0  0  0  0  0  0  0  0  0  0  0  0
  -48.8835   58.9064   63.7105 C   0  0  0  0  0  0  0  0  0  0  0  0
  -50.3502   58.6474   63.4370 C   0  0  0  0  0  0  0  0  0  0  0  0
  -50.6194   57.9988   62.0839 C   0  0  0  0  0  0  0  0  0  0  0  0
  -50.0072   58.7415   60.9119 C   0  0  0  0  0  0  0  0  0  0  0  0
  -49.6931   57.8470   59.7301 C   0  0  0  0  0  0  0  0  0  0  0  0
  -48.2163   57.5002   59.6030 C   0  0  0  0  0  0  0  0  0  0  0  0
  -47.9458   56.3207   58.6860 C   0  0  0  0  0  0  0  0  0  0  0  0
  -47.0484   58.1410   57.1969 C   0  0  0  0  0  0  0  0  0  0  0  0
  -47.1356   56.6525   57.4471 C   0  0  0  0  0  0  0  0  0  0  0  0
  -38.3356   59.3528   60.7134 C   0  0  0  0  0  0  0  0  0  0  0  0
  -39.4483   60.2392   60.9672 O   0  0  0  0  0  0  0  0  0  0  0  0
  -40.8647   60.0841   60.2380 P   0  0  0  0  0  0  0  0  0  0  0  0
  -41.0406   61.2371   59.3291 O   0  0  0  0  0  0  0  0  0  0  0  0
  -40.9466   58.7146   59.6754 O   0  0  0  0  0  0  0  0  0  0  0  0
  -40.2927   58.6170   58.9656 H   0  0  0  0  0  0  0  0  0  0  0  0
  -41.9523   60.2030   61.3982 O   0  0  0  0  0  0  0  0  0  0  0  0
  -42.1236   61.4505   62.1013 C   0  0  0  0  0  0  0  0  0  0  0  0
  -43.5408   60.0190   63.3994 O   0  0  0  0  0  0  0  0  0  0  0  0
  -42.6690   61.1509   63.4760 C   0  0  0  0  0  0  0  0  0  0  0  0
  -44.2386   60.1918   62.7481 H   0  0  0  0  0  0  0  0  0  0  0  0
  -40.4773   60.2286   63.8809 O   0  0  0  0  0  0  0  0  0  0  0  0
  -41.5755   60.8989   64.4860 C   0  0  0  0  0  0  0  0  0  0  0  0
  -39.7863   60.0759   64.5443 H   0  0  0  0  0  0  0  0  0  0  0  0
  -36.5293   58.4338   62.1088 O   0  0  0  0  0  0  0  0  0  0  0  0
  -36.5405   58.9909   64.2882 O   0  0  0  0  0  0  0  0  0  0  0  0
  -36.0011   58.4761   63.3471 C   0  0  0  0  0  0  0  0  0  0  0  0
  -34.6720   57.7897   63.4132 C   0  0  0  0  0  0  0  0  0  0  0  0
  -33.6148   58.6798   64.0586 C   0  0  0  0  0  0  0  0  0  0  0  0
  -32.3713   58.8765   63.2071 C   0  0  0  0  0  0  0  0  0  0  0  0
  -32.1030   60.3332   62.8469 C   0  0  0  0  0  0  0  0  0  0  0  0
  -33.2391   61.2753   63.1993 C   0  0  0  0  0  0  0  0  0  0  0  0
  -32.9771   62.7448   62.8573 C   0  0  0  0  0  0  0  0  0  0  0  0
  -32.1587   63.5189   63.8929 C   0  0  0  0  0  0  0  0  0  0  0  0
  -32.8732   64.7457   64.3751 C   0  0  0  0  0  0  0  0  0  0  0  0
  -33.4664   64.9036   65.5424 C   0  0  0  0  0  0  0  0  0  0  0  0
  -33.5488   63.8855   66.6356 C   0  0  0  0  0  0  0  0  0  0  0  0
  -34.9798   63.4237   66.8946 C   0  0  0  0  0  0  0  0  0  0  0  0
  -35.4899   62.4191   65.8764 C   0  0  0  0  0  0  0  0  0  0  0  0
  -36.6536   62.9308   65.0450 C   0  0  0  0  0  0  0  0  0  0  0  0
  -36.7072   62.3789   63.6300 C   0  0  0  0  0  0  0  0  0  0  0  0
  -36.6238   63.4540   62.5572 C   0  0  0  0  0  0  0  0  0  0  0  0
  -36.2662   64.8303   63.0822 C   0  0  0  0  0  0  0  0  0  0  0  0
  -36.1777   65.8630   61.9935 C   0  0  0  0  0  0  0  0  0  0  0  0
 21 22  1  0  0  0
  4  5  2  0  0  0
 25 24  1  0  0  0
 25 26  2  0  0  0
 25 27  1  0  0  0
 25 29  1  0  0  0
 22 20  1  0  0  0
  3  5  1  0  0  0
  3  2  1  0  0  0
 20 19  1  0  0  0
 24 23  1  0  0  0
 19 18  1  0  0  0
 18 17  1  0  0  0
 27 28  1  0  0  0
 17 16  1  0  0  0
 29 30  1  0  0  0
 16 15  1  0  0  0
 34 35  1  0  0  0
 34 36  1  0  0  0
 15 14  1  0  0  0
 31 32  1  0  0  0
 31 33  1  0  0  0
 14 13  1  0  0  0
 37  1  1  0  0  0
 37 39  1  0  0  0
 13 12  1  0  0  0
 38 39  2  0  0  0
 12 11  1  0  0  0
 11 10  1  0  0  0
 10  9  1  0  0  0
  9  8  1  0  0  0
  8  7  1  0  0  0
  7  6  1  0  0  0
  6  5  1  0  0  0
  2  1  1  0  0  0
  1 23  1  0  0  0
 30 32  1  0  0  0
 32 35  1  0  0  0
 39 40  1  0  0  0
 40 41  1  0  0  0
 41 42  1  0  0  0
 42 43  1  0  0  0
 43 44  1  0  0  0
 44 45  1  0  0  0
 45 46  1  0  0  0
 46 47  1  0  0  0
 47 48  2  0  0  0
 48 49  1  0  0  0
 49 50  1  0  0  0
 50 51  1  0  0  0
 51 52  1  0  0  0
 52 53  1  0  0  0
 53 54  1  0  0  0
 54 55  1  0  0  0
 55 56  1  0  0  0
M  CHG 1  26  -1
M  END
> <minimizedAffinity>
-7.35865

> <CNNscore>
0.1603701711

> <CNNaffinity>
6.7842001915

> <CNN_VS>
1.0879833698

> <CNNaffinity_variance>
0.8652200699

$$$$
/media/chris/experiments/cd1a-new-docking/inputs/ligands/7sh4_ligand.pdb


 56 55  0  0  0  0  0  0  0  0999 V2000
  -36.6149   62.4019   64.4894 C   0  0  0  0  0  0  0  0  0  0  0  0
  -35.4519   61.4668   64.6640 C   0  0  0  0  0  0  0  0  0  0  0  0
  -35.4380   60.6954   63.4442 O   0  0  0  0  0  0  0  0  0  0  0  0
  -33.8081   59.4471   62.5582 O   0  0  0  0  0  0  0  0  0  0  0  0
  -34.6341   59.6320   63.4110 C   0  0  0  0  0  0  0  0  0  0  0  0
  -34.8133   58.7780   64.6330 C   0  0  0  0  0  0  0  0  0  0  0  0
  -35.7431   57.5935   64.4313 C   0  0  0  0  0  0  0  0  0  0  0  0
  -37.1770   57.9034   64.8058 C   0  0  0  0  0  0  0  0  0  0  0  0
  -38.1215   57.9824   63.6278 C   0  0  0  0  0  0  0  0  0  0  0  0
  -37.5526   57.3610   62.3684 C   0  0  0  0  0  0  0  0  0  0  0  0
  -37.3320   58.3610   61.2599 C   0  0  0  0  0  0  0  0  0  0  0  0
  -38.4196   59.3993   61.1792 C   0  0  0  0  0  0  0  0  0  0  0  0
  -38.7994   59.7620   59.7606 C   0  0  0  0  0  0  0  0  0  0  0  0
  -40.2921   59.6760   59.5142 C   0  0  0  0  0  0  0  0  0  0  0  0
  -40.8010   58.2678   59.2876 C   0  0  0  0  0  0  0  0  0  0  0  0
  -41.4632   57.6477   60.5128 C   0  0  0  0  0  0  0  0  0  0  0  0
  -40.7906   56.3792   61.0010 C   0  0  0  0  0  0  0  0  0  0  0  0
  -41.3941   55.8309   62.2780 C   0  0  0  0  0  0  0  0  0  0  0  0
  -41.5276   56.8682   63.3841 C   0  0  0  0  0  0  0  0  0  0  0  0
  -42.2195   56.3431   64.6294 C   0  0  0  0  0  0  0  0  0  0  0  0
  -43.4432   57.5189   66.4884 C   0  0  0  0  0  0  0  0  0  0  0  0
  -43.4656   57.1080   65.0336 C   0  0  0  0  0  0  0  0  0  0  0  0
  -36.2142   63.8437   64.6699 C   0  0  0  0  0  0  0  0  0  0  0  0
  -35.2249   64.1800   63.6716 O   0  0  0  0  0  0  0  0  0  0  0  0
  -35.6056   64.5323   62.1574 P   0  0  0  0  0  0  0  0  0  0  0  0
  -36.4986   63.4684   61.6503 O   0  0  0  0  0  0  0  0  0  0  0  0
  -36.0764   65.9378   62.1150 O   0  0  0  0  0  0  0  0  0  0  0  0
  -36.9116   66.0138   62.6025 H   0  0  0  0  0  0  0  0  0  0  0  0
  -34.2346   64.4502   61.3471 O   0  0  0  0  0  0  0  0  0  0  0  0
  -33.1207   65.2835   61.7278 C   0  0  0  0  0  0  0  0  0  0  0  0
  -32.2598   64.1760   63.6707 O   0  0  0  0  0  0  0  0  0  0  0  0
  -32.0293   64.3974   62.2761 C   0  0  0  0  0  0  0  0  0  0  0  0
  -32.3161   65.0293   64.1286 H   0  0  0  0  0  0  0  0  0  0  0  0
  -32.8548   62.1383   62.0939 O   0  0  0  0  0  0  0  0  0  0  0  0
  -31.9389   63.0784   61.5471 C   0  0  0  0  0  0  0  0  0  0  0  0
  -32.7821   61.2988   61.6133 H   0  0  0  0  0  0  0  0  0  0  0  0
  -37.6675   62.0103   65.4320 O   0  0  0  0  0  0  0  0  0  0  0  0
  -39.0595   61.4010   63.7733 O   0  0  0  0  0  0  0  0  0  0  0  0
  -38.7254   61.3482   64.9254 C   0  0  0  0  0  0  0  0  0  0  0  0
  -39.4220   60.5258   65.9648 C   0  0  0  0  0  0  0  0  0  0  0  0
  -40.8345   60.1517   65.5271 C   0  0  0  0  0  0  0  0  0  0  0  0
  -41.9287   60.8974   66.2734 C   0  0  0  0  0  0  0  0  0  0  0  0
  -43.0938   61.3193   65.3855 C   0  0  0  0  0  0  0  0  0  0  0  0
  -44.4057   60.6354   65.7224 C   0  0  0  0  0  0  0  0  0  0  0  0
  -45.4256   60.6164   64.5803 C   0  0  0  0  0  0  0  0  0  0  0  0
  -46.4553   59.4864   64.6450 C   0  0  0  0  0  0  0  0  0  0  0  0
  -47.4360   59.6790   65.7626 C   0  0  0  0  0  0  0  0  0  0  0  0
  -48.6396   60.2103   65.6711 C   0  0  0  0  0  0  0  0  0  0  0  0
  -49.2814   60.7330   64.4248 C   0  0  0  0  0  0  0  0  0  0  0  0
  -50.7614   60.3723   64.3366 C   0  0  0  0  0  0  0  0  0  0  0  0
  -51.1751   59.8220   62.9829 C   0  0  0  0  0  0  0  0  0  0  0  0
  -50.6943   58.4039   62.7283 C   0  0  0  0  0  0  0  0  0  0  0  0
  -50.5169   58.0532   61.2603 C   0  0  0  0  0  0  0  0  0  0  0  0
  -49.6519   59.0472   60.5004 C   0  0  0  0  0  0  0  0  0  0  0  0
  -49.0731   58.5071   59.2077 C   0  0  0  0  0  0  0  0  0  0  0  0
  -48.0358   57.4432   59.4348 C   0  0  0  0  0  0  0  0  0  0  0  0
 21 22  1  0  0  0
  4  5  2  0  0  0
 25 24  1  0  0  0
 25 26  2  0  0  0
 25 27  1  0  0  0
 25 29  1  0  0  0
 22 20  1  0  0  0
  3  5  1  0  0  0
  3  2  1  0  0  0
 20 19  1  0  0  0
 24 23  1  0  0  0
 19 18  1  0  0  0
 18 17  1  0  0  0
 27 28  1  0  0  0
 17 16  1  0  0  0
 29 30  1  0  0  0
 16 15  1  0  0  0
 34 35  1  0  0  0
 34 36  1  0  0  0
 15 14  1  0  0  0
 31 32  1  0  0  0
 31 33  1  0  0  0
 14 13  1  0  0  0
 37  1  1  0  0  0
 37 39  1  0  0  0
 13 12  1  0  0  0
 38 39  2  0  0  0
 12 11  1  0  0  0
 11 10  1  0  0  0
 10  9  1  0  0  0
  9  8  1  0  0  0
  8  7  1  0  0  0
  7  6  1  0  0  0
  6  5  1  0  0  0
  2  1  1  0  0  0
  1 23  1  0  0  0
 30 32  1  0  0  0
 32 35  1  0  0  0
 39 40  1  0  0  0
 40 41  1  0  0  0
 41 42  1  0  0  0
 42 43  1  0  0  0
 43 44  1  0  0  0
 44 45  1  0  0  0
 45 46  1  0  0  0
 46 47  1  0  0  0
 47 48  2  0  0  0
 48 49  1  0  0  0
 49 50  1  0  0  0
 50 51  1  0  0  0
 51 52  1  0  0  0
 52 53  1  0  0  0
 53 54  1  0  0  0
 54 55  1  0  0  0
 55 56  1  0  0  0
M  CHG 1  26  -1
M  END
> <minimizedAffinity>
-8.15799

> <CNNscore>
0.1521384865

> <CNNaffinity>
7.1619248390

> <CNN_VS>
1.0896043777

> <CNNaffinity_variance>
1.1148170233

$$$$
