/media/chris/experiments/cd1a-new-docking/inputs/ligands/7sh4_ligand.pdb


 56 55  0  0  0  0  0  0  0  0999 V2000
  -37.0092   62.3747   63.3867 C   0  0  0  0  0  0  0  0  0  0  0  0
  -37.9718   61.4539   62.6915 C   0  0  0  0  0  0  0  0  0  0  0  0
  -39.1677   61.5267   63.4961 O   0  0  0  0  0  0  0  0  0  0  0  0
  -40.4285   60.7798   61.8072 O   0  0  0  0  0  0  0  0  0  0  0  0
  -40.2767   60.9966   62.9793 C   0  0  0  0  0  0  0  0  0  0  0  0
  -41.2415   60.5978   64.0586 C   0  0  0  0  0  0  0  0  0  0  0  0
  -42.6848   60.9758   63.7714 C   0  0  0  0  0  0  0  0  0  0  0  0
  -43.5735   60.8668   64.9925 C   0  0  0  0  0  0  0  0  0  0  0  0
  -45.0518   60.9712   64.6938 C   0  0  0  0  0  0  0  0  0  0  0  0
  -45.8265   59.7310   65.0910 C   0  0  0  0  0  0  0  0  0  0  0  0
  -46.8441   59.9881   66.1754 C   0  0  0  0  0  0  0  0  0  0  0  0
  -48.2000   60.3574   65.6343 C   0  0  0  0  0  0  0  0  0  0  0  0
  -49.2366   59.2715   65.8198 C   0  0  0  0  0  0  0  0  0  0  0  0
  -50.6251   59.7100   65.4004 C   0  0  0  0  0  0  0  0  0  0  0  0
  -50.7058   60.2327   63.9814 C   0  0  0  0  0  0  0  0  0  0  0  0
  -51.1900   59.1992   62.9707 C   0  0  0  0  0  0  0  0  0  0  0  0
  -50.0802   58.3584   62.3694 C   0  0  0  0  0  0  0  0  0  0  0  0
  -50.3357   57.9658   60.9286 C   0  0  0  0  0  0  0  0  0  0  0  0
  -49.6219   58.8533   59.9185 C   0  0  0  0  0  0  0  0  0  0  0  0
  -49.2035   58.1218   58.6556 C   0  0  0  0  0  0  0  0  0  0  0  0
  -47.3252   57.2968   57.1971 C   0  0  0  0  0  0  0  0  0  0  0  0
  -47.7207   57.8158   58.5608 C   0  0  0  0  0  0  0  0  0  0  0  0
  -36.6485   63.5646   62.5349 C   0  0  0  0  0  0  0  0  0  0  0  0
  -35.5806   64.2928   63.1813 O   0  0  0  0  0  0  0  0  0  0  0  0
  -34.1423   64.5004   62.5106 P   0  0  0  0  0  0  0  0  0  0  0  0
  -34.0325   63.5709   61.3657 O   0  0  0  0  0  0  0  0  0  0  0  0
  -33.9494   65.9509   62.2715 O   0  0  0  0  0  0  0  0  0  0  0  0
  -34.5800   66.2546   61.5999 H   0  0  0  0  0  0  0  0  0  0  0  0
  -33.0900   64.0422   63.6176 O   0  0  0  0  0  0  0  0  0  0  0  0
  -32.4402   65.0271   64.4469 C   0  0  0  0  0  0  0  0  0  0  0  0
  -31.3438   65.2575   66.5653 O   0  0  0  0  0  0  0  0  0  0  0  0
  -32.2584   64.4425   65.8261 C   0  0  0  0  0  0  0  0  0  0  0  0
  -30.5093   65.3321   66.0762 H   0  0  0  0  0  0  0  0  0  0  0  0
  -33.4400   63.3932   67.6485 O   0  0  0  0  0  0  0  0  0  0  0  0
  -33.5642   64.3154   66.5734 C   0  0  0  0  0  0  0  0  0  0  0  0
  -34.2873   63.3252   68.1157 H   0  0  0  0  0  0  0  0  0  0  0  0
  -35.8231   61.6010   63.7666 O   0  0  0  0  0  0  0  0  0  0  0  0
  -36.3743   61.7594   65.9417 O   0  0  0  0  0  0  0  0  0  0  0  0
  -35.5999   61.4329   65.0841 C   0  0  0  0  0  0  0  0  0  0  0  0
  -34.2814   60.7747   65.3498 C   0  0  0  0  0  0  0  0  0  0  0  0
  -33.6126   60.3209   64.0562 C   0  0  0  0  0  0  0  0  0  0  0  0
  -33.5544   58.8112   63.8893 C   0  0  0  0  0  0  0  0  0  0  0  0
  -34.8945   58.1206   64.1153 C   0  0  0  0  0  0  0  0  0  0  0  0
  -35.7555   58.0218   62.8698 C   0  0  0  0  0  0  0  0  0  0  0  0
  -37.2497   57.8278   63.1425 C   0  0  0  0  0  0  0  0  0  0  0  0
  -38.1528   57.9071   61.9097 C   0  0  0  0  0  0  0  0  0  0  0  0
  -37.3986   58.3250   60.6831 C   0  0  0  0  0  0  0  0  0  0  0  0
  -37.9024   58.8913   59.6038 C   0  0  0  0  0  0  0  0  0  0  0  0
  -39.3403   59.2380   59.3783 C   0  0  0  0  0  0  0  0  0  0  0  0
  -40.1896   58.0139   59.0488 C   0  0  0  0  0  0  0  0  0  0  0  0
  -41.4907   57.9468   59.8291 C   0  0  0  0  0  0  0  0  0  0  0  0
  -41.4749   56.9270   60.9547 C   0  0  0  0  0  0  0  0  0  0  0  0
  -41.9150   57.4712   62.3036 C   0  0  0  0  0  0  0  0  0  0  0  0
  -41.1607   56.8641   63.4768 C   0  0  0  0  0  0  0  0  0  0  0  0
  -42.0522   56.3382   64.5844 C   0  0  0  0  0  0  0  0  0  0  0  0
  -43.2631   57.1987   64.8140 C   0  0  0  0  0  0  0  0  0  0  0  0
 21 22  1  0  0  0
  4  5  2  0  0  0
 25 24  1  0  0  0
 25 26  2  0  0  0
 25 27  1  0  0  0
 25 29  1  0  0  0
 22 20  1  0  0  0
  3  5  1  0  0  0
  3  2  1  0  0  0
 20 19  1  0  0  0
 24 23  1  0  0  0
 19 18  1  0  0  0
 18 17  1  0  0  0
 27 28  1  0  0  0
 17 16  1  0  0  0
 29 30  1  0  0  0
 16 15  1  0  0  0
 34 35  1  0  0  0
 34 36  1  0  0  0
 15 14  1  0  0  0
 31 32  1  0  0  0
 31 33  1  0  0  0
 14 13  1  0  0  0
 37  1  1  0  0  0
 37 39  1  0  0  0
 13 12  1  0  0  0
 38 39  2  0  0  0
 12 11  1  0  0  0
 11 10  1  0  0  0
 10  9  1  0  0  0
  9  8  1  0  0  0
  8  7  1  0  0  0
  7  6  1  0  0  0
  6  5  1  0  0  0
  2  1  1  0  0  0
  1 23  1  0  0  0
 30 32  1  0  0  0
 32 35  1  0  0  0
 39 40  1  0  0  0
 40 41  1  0  0  0
 41 42  1  0  0  0
 42 43  1  0  0  0
 43 44  1  0  0  0
 44 45  1  0  0  0
 45 46  1  0  0  0
 46 47  1  0  0  0
 47 48  2  0  0  0
 48 49  1  0  0  0
 49 50  1  0  0  0
 50 51  1  0  0  0
 51 52  1  0  0  0
 52 53  1  0  0  0
 53 54  1  0  0  0
 54 55  1  0  0  0
 55 56  1  0  0  0
M  CHG 1  26  -1
M  END
> <minimizedAffinity>
-8.40650

> <CNNscore>
0.5403396487

> <CNNaffinity>
7.4585714340

> <CNN_VS>
4.0301618576

> <CNNaffinity_variance>
0.6883013248

$$$$
/media/chris/experiments/cd1a-new-docking/inputs/ligands/7sh4_ligand.pdb


 56 55  0  0  0  0  0  0  0  0999 V2000
  -35.4626   63.0437   64.5842 C   0  0  0  0  0  0  0  0  0  0  0  0
  -36.6129   63.4417   63.7032 C   0  0  0  0  0  0  0  0  0  0  0  0
  -37.6477   62.4897   64.0286 O   0  0  0  0  0  0  0  0  0  0  0  0
  -37.5544   61.6476   61.9593 O   0  0  0  0  0  0  0  0  0  0  0  0
  -38.0694   61.6957   63.0439 C   0  0  0  0  0  0  0  0  0  0  0  0
  -39.1762   60.7944   63.5099 C   0  0  0  0  0  0  0  0  0  0  0  0
  -40.4701   60.9453   62.7279 C   0  0  0  0  0  0  0  0  0  0  0  0
  -41.6524   61.2853   63.6107 C   0  0  0  0  0  0  0  0  0  0  0  0
  -42.9577   61.4426   62.8643 C   0  0  0  0  0  0  0  0  0  0  0  0
  -44.1574   61.5525   63.7834 C   0  0  0  0  0  0  0  0  0  0  0  0
  -44.2232   60.4473   64.8089 C   0  0  0  0  0  0  0  0  0  0  0  0
  -45.4634   59.6023   64.6844 C   0  0  0  0  0  0  0  0  0  0  0  0
  -46.7160   60.4091   64.4235 C   0  0  0  0  0  0  0  0  0  0  0  0
  -47.9841   59.6263   64.6980 C   0  0  0  0  0  0  0  0  0  0  0  0
  -48.5111   58.8637   63.5005 C   0  0  0  0  0  0  0  0  0  0  0  0
  -50.0266   58.6991   63.4931 C   0  0  0  0  0  0  0  0  0  0  0  0
  -50.6437   58.7359   62.1082 C   0  0  0  0  0  0  0  0  0  0  0  0
  -49.6718   59.1622   61.0272 C   0  0  0  0  0  0  0  0  0  0  0  0
  -49.7683   58.3290   59.7567 C   0  0  0  0  0  0  0  0  0  0  0  0
  -48.4272   57.8166   59.2626 C   0  0  0  0  0  0  0  0  0  0  0  0
  -46.9928   57.8634   57.1947 C   0  0  0  0  0  0  0  0  0  0  0  0
  -47.7693   58.6798   58.2027 C   0  0  0  0  0  0  0  0  0  0  0  0
  -34.8323   64.2322   65.2638 C   0  0  0  0  0  0  0  0  0  0  0  0
  -33.6993   64.6691   64.4804 O   0  0  0  0  0  0  0  0  0  0  0  0
  -32.4331   65.4075   65.1234 P   0  0  0  0  0  0  0  0  0  0  0  0
  -32.7364   66.8527   65.2009 O   0  0  0  0  0  0  0  0  0  0  0  0
  -32.0625   64.6898   66.3669 O   0  0  0  0  0  0  0  0  0  0  0  0
  -32.7684   64.7953   67.0238 H   0  0  0  0  0  0  0  0  0  0  0  0
  -31.2502   65.2096   64.0726 O   0  0  0  0  0  0  0  0  0  0  0  0
  -30.6876   63.8992   63.8578 C   0  0  0  0  0  0  0  0  0  0  0  0
  -32.3653   63.6533   62.1643 O   0  0  0  0  0  0  0  0  0  0  0  0
  -30.9698   63.4878   62.4336 C   0  0  0  0  0  0  0  0  0  0  0  0
  -32.8815   63.1466   62.8106 H   0  0  0  0  0  0  0  0  0  0  0  0
  -30.8136   64.3334   60.1800 O   0  0  0  0  0  0  0  0  0  0  0  0
  -30.1502   64.2706   61.4360 C   0  0  0  0  0  0  0  0  0  0  0  0
  -30.2727   64.8393   59.5536 H   0  0  0  0  0  0  0  0  0  0  0  0
  -34.4909   62.3071   63.7699 O   0  0  0  0  0  0  0  0  0  0  0  0
  -34.0875   60.8752   65.4573 O   0  0  0  0  0  0  0  0  0  0  0  0
  -33.9784   61.1806   64.3012 C   0  0  0  0  0  0  0  0  0  0  0  0
  -33.2739   60.3474   63.2757 C   0  0  0  0  0  0  0  0  0  0  0  0
  -32.9630   58.9518   63.8071 C   0  0  0  0  0  0  0  0  0  0  0  0
  -33.9614   57.8908   63.3738 C   0  0  0  0  0  0  0  0  0  0  0  0
  -35.2029   57.8253   64.2560 C   0  0  0  0  0  0  0  0  0  0  0  0
  -36.4939   57.6077   63.4890 C   0  0  0  0  0  0  0  0  0  0  0  0
  -36.5626   58.3294   62.1402 C   0  0  0  0  0  0  0  0  0  0  0  0
  -37.8937   58.1967   61.3973 C   0  0  0  0  0  0  0  0  0  0  0  0
  -37.7993   58.6749   59.9794 C   0  0  0  0  0  0  0  0  0  0  0  0
  -38.7846   59.1456   59.2398 C   0  0  0  0  0  0  0  0  0  0  0  0
  -40.2104   59.3027   59.6653 C   0  0  0  0  0  0  0  0  0  0  0  0
  -41.0104   58.0129   59.5081 C   0  0  0  0  0  0  0  0  0  0  0  0
  -41.6960   57.5613   60.7857 C   0  0  0  0  0  0  0  0  0  0  0  0
  -41.2318   56.2019   61.2793 C   0  0  0  0  0  0  0  0  0  0  0  0
  -41.1247   56.0836   62.7906 C   0  0  0  0  0  0  0  0  0  0  0  0
  -40.7259   57.3833   63.4730 C   0  0  0  0  0  0  0  0  0  0  0  0
  -41.5722   57.7374   64.6797 C   0  0  0  0  0  0  0  0  0  0  0  0
  -42.8350   56.9262   64.7625 C   0  0  0  0  0  0  0  0  0  0  0  0
 21 22  1  0  0  0
  4  5  2  0  0  0
 25 24  1  0  0  0
 25 26  2  0  0  0
 25 27  1  0  0  0
 25 29  1  0  0  0
 22 20  1  0  0  0
  3  5  1  0  0  0
  3  2  1  0  0  0
 20 19  1  0  0  0
 24 23  1  0  0  0
 19 18  1  0  0  0
 18 17  1  0  0  0
 27 28  1  0  0  0
 17 16  1  0  0  0
 29 30  1  0  0  0
 16 15  1  0  0  0
 34 35  1  0  0  0
 34 36  1  0  0  0
 15 14  1  0  0  0
 31 32  1  0  0  0
 31 33  1  0  0  0
 14 13  1  0  0  0
 37  1  1  0  0  0
 37 39  1  0  0  0
 13 12  1  0  0  0
 38 39  2  0  0  0
 12 11  1  0  0  0
 11 10  1  0  0  0
 10  9  1  0  0  0
  9  8  1  0  0  0
  8  7  1  0  0  0
  7  6  1  0  0  0
  6  5  1  0  0  0
  2  1  1  0  0  0
  1 23  1  0  0  0
 30 32  1  0  0  0
 32 35  1  0  0  0
 39 40  1  0  0  0
 40 41  1  0  0  0
 41 42  1  0  0  0
 42 43  1  0  0  0
 43 44  1  0  0  0
 44 45  1  0  0  0
 45 46  1  0  0  0
 46 47  1  0  0  0
 47 48  2  0  0  0
 48 49  1  0  0  0
 49 50  1  0  0  0
 50 51  1  0  0  0
 51 52  1  0  0  0
 52 53  1  0  0  0
 53 54  1  0  0  0
 54 55  1  0  0  0
 55 56  1  0  0  0
M  CHG 1  26  -1
M  END
> <minimizedAffinity>
-8.00813

> <CNNscore>
0.4835534692

> <CNNaffinity>
7.3095993996

> <CNN_VS>
3.5345821381

> <CNNaffinity_variance>
0.7976736426

$$$$
/media/chris/experiments/cd1a-new-docking/inputs/ligands/7sh4_ligand.pdb


 56 55  0  0  0  0  0  0  0  0999 V2000
  -39.9219   59.9710   64.5247 C   0  0  0  0  0  0  0  0  0  0  0  0
  -41.2474   59.6892   65.1737 C   0  0  0  0  0  0  0  0  0  0  0  0
  -41.1404   58.3158   65.6044 O   0  0  0  0  0  0  0  0  0  0  0  0
  -42.1083   56.6380   64.4872 O   0  0  0  0  0  0  0  0  0  0  0  0
  -42.1617   57.5098   65.3124 C   0  0  0  0  0  0  0  0  0  0  0  0
  -43.3253   57.7546   66.2293 C   0  0  0  0  0  0  0  0  0  0  0  0
  -44.6710   57.8016   65.5253 C   0  0  0  0  0  0  0  0  0  0  0  0
  -45.4531   59.0596   65.8391 C   0  0  0  0  0  0  0  0  0  0  0  0
  -45.7067   59.9461   64.6410 C   0  0  0  0  0  0  0  0  0  0  0  0
  -47.1801   60.1914   64.3856 C   0  0  0  0  0  0  0  0  0  0  0  0
  -48.0623   59.7515   65.5283 C   0  0  0  0  0  0  0  0  0  0  0  0
  -48.8573   58.5118   65.2143 C   0  0  0  0  0  0  0  0  0  0  0  0
  -50.3460   58.7618   65.1176 C   0  0  0  0  0  0  0  0  0  0  0  0
  -50.6835   59.9594   64.2527 C   0  0  0  0  0  0  0  0  0  0  0  0
  -51.2142   59.6007   62.8805 C   0  0  0  0  0  0  0  0  0  0  0  0
  -50.9153   58.1662   62.4599 C   0  0  0  0  0  0  0  0  0  0  0  0
  -50.6295   58.0049   60.9793 C   0  0  0  0  0  0  0  0  0  0  0  0
  -49.3374   57.2679   60.6924 C   0  0  0  0  0  0  0  0  0  0  0  0
  -48.9949   57.1906   59.2110 C   0  0  0  0  0  0  0  0  0  0  0  0
  -48.2359   58.4017   58.6988 C   0  0  0  0  0  0  0  0  0  0  0  0
  -47.2805   56.6577   57.1556 C   0  0  0  0  0  0  0  0  0  0  0  0
  -47.2667   58.1120   57.5684 C   0  0  0  0  0  0  0  0  0  0  0  0
  -38.8415   60.2448   65.5393 C   0  0  0  0  0  0  0  0  0  0  0  0
  -38.5004   61.6482   65.4884 O   0  0  0  0  0  0  0  0  0  0  0  0
  -37.1032   62.1811   64.9175 P   0  0  0  0  0  0  0  0  0  0  0  0
  -36.0502   61.2222   65.3159 O   0  0  0  0  0  0  0  0  0  0  0  0
  -37.2796   62.4876   63.4776 O   0  0  0  0  0  0  0  0  0  0  0  0
  -37.4469   61.6659   62.9902 H   0  0  0  0  0  0  0  0  0  0  0  0
  -36.8312   63.5543   65.6810 O   0  0  0  0  0  0  0  0  0  0  0  0
  -35.5752   64.2409   65.5053 C   0  0  0  0  0  0  0  0  0  0  0  0
  -34.8001   63.0790   67.4526 O   0  0  0  0  0  0  0  0  0  0  0  0
  -34.9128   64.3740   66.8546 C   0  0  0  0  0  0  0  0  0  0  0  0
  -35.6778   62.6693   67.5041 H   0  0  0  0  0  0  0  0  0  0  0  0
  -33.2790   65.7747   67.9440 O   0  0  0  0  0  0  0  0  0  0  0  0
  -33.5544   65.0272   66.7663 C   0  0  0  0  0  0  0  0  0  0  0  0
  -32.4037   66.1859   67.8686 H   0  0  0  0  0  0  0  0  0  0  0  0
  -40.0914   61.0942   63.5976 O   0  0  0  0  0  0  0  0  0  0  0  0
  -38.8938   60.9245   61.7010 O   0  0  0  0  0  0  0  0  0  0  0  0
  -39.9385   60.8314   62.2855 C   0  0  0  0  0  0  0  0  0  0  0  0
  -41.2206   60.3922   61.6487 C   0  0  0  0  0  0  0  0  0  0  0  0
  -41.0024   59.9363   60.2096 C   0  0  0  0  0  0  0  0  0  0  0  0
  -41.1854   58.4418   60.0021 C   0  0  0  0  0  0  0  0  0  0  0  0
  -40.9787   57.6203   61.2695 C   0  0  0  0  0  0  0  0  0  0  0  0
  -39.5921   57.0170   61.3944 C   0  0  0  0  0  0  0  0  0  0  0  0
  -38.7949   57.4995   62.6094 C   0  0  0  0  0  0  0  0  0  0  0  0
  -37.3448   57.8946   62.3222 C   0  0  0  0  0  0  0  0  0  0  0  0
  -36.5793   58.1855   63.5782 C   0  0  0  0  0  0  0  0  0  0  0  0
  -35.2780   58.0621   63.7536 C   0  0  0  0  0  0  0  0  0  0  0  0
  -34.2886   57.6047   62.7287 C   0  0  0  0  0  0  0  0  0  0  0  0
  -32.8646   58.0436   63.0575 C   0  0  0  0  0  0  0  0  0  0  0  0
  -32.7908   59.3652   63.8020 C   0  0  0  0  0  0  0  0  0  0  0  0
  -32.5130   60.5573   62.9026 C   0  0  0  0  0  0  0  0  0  0  0  0
  -31.8742   60.2049   61.5695 C   0  0  0  0  0  0  0  0  0  0  0  0
  -30.4421   60.6998   61.4346 C   0  0  0  0  0  0  0  0  0  0  0  0
  -29.7102   60.8534   62.7531 C   0  0  0  0  0  0  0  0  0  0  0  0
  -28.3091   61.3708   62.5836 C   0  0  0  0  0  0  0  0  0  0  0  0
 21 22  1  0  0  0
  4  5  2  0  0  0
 25 24  1  0  0  0
 25 26  2  0  0  0
 25 27  1  0  0  0
 25 29  1  0  0  0
 22 20  1  0  0  0
  3  5  1  0  0  0
  3  2  1  0  0  0
 20 19  1  0  0  0
 24 23  1  0  0  0
 19 18  1  0  0  0
 18 17  1  0  0  0
 27 28  1  0  0  0
 17 16  1  0  0  0
 29 30  1  0  0  0
 16 15  1  0  0  0
 34 35  1  0  0  0
 34 36  1  0  0  0
 15 14  1  0  0  0
 31 32  1  0  0  0
 31 33  1  0  0  0
 14 13  1  0  0  0
 37  1  1  0  0  0
 37 39  1  0  0  0
 13 12  1  0  0  0
 38 39  2  0  0  0
 12 11  1  0  0  0
 11 10  1  0  0  0
 10  9  1  0  0  0
  9  8  1  0  0  0
  8  7  1  0  0  0
  7  6  1  0  0  0
  6  5  1  0  0  0
  2  1  1  0  0  0
  1 23  1  0  0  0
 30 32  1  0  0  0
 32 35  1  0  0  0
 39 40  1  0  0  0
 40 41  1  0  0  0
 41 42  1  0  0  0
 42 43  1  0  0  0
 43 44  1  0  0  0
 44 45  1  0  0  0
 45 46  1  0  0  0
 46 47  1  0  0  0
 47 48  2  0  0  0
 48 49  1  0  0  0
 49 50  1  0  0  0
 50 51  1  0  0  0
 51 52  1  0  0  0
 52 53  1  0  0  0
 53 54  1  0  0  0
 54 55  1  0  0  0
 55 56  1  0  0  0
M  CHG 1  26  -1
M  END
> <minimizedAffinity>
-8.65067

> <CNNscore>
0.4771814942

> <CNNaffinity>
7.2184448242

> <CNN_VS>
3.4445083141

> <CNNaffinity_variance>
0.8208748102

$$$$
/media/chris/experiments/cd1a-new-docking/inputs/ligands/7sh4_ligand.pdb


 56 55  0  0  0  0  0  0  0  0999 V2000
  -38.6340   58.2693   63.5383 C   0  0  0  0  0  0  0  0  0  0  0  0
  -39.7903   58.1233   64.4866 C   0  0  0  0  0  0  0  0  0  0  0  0
  -40.7935   57.4344   63.7107 O   0  0  0  0  0  0  0  0  0  0  0  0
  -41.8480   55.6441   64.5370 O   0  0  0  0  0  0  0  0  0  0  0  0
  -41.7733   56.8339   64.3870 C   0  0  0  0  0  0  0  0  0  0  0  0
  -42.6836   57.8396   65.0310 C   0  0  0  0  0  0  0  0  0  0  0  0
  -44.0450   57.2866   65.4173 C   0  0  0  0  0  0  0  0  0  0  0  0
  -45.0487   58.3730   65.7411 C   0  0  0  0  0  0  0  0  0  0  0  0
  -45.2966   59.3443   64.6093 C   0  0  0  0  0  0  0  0  0  0  0  0
  -46.7692   59.5633   64.3272 C   0  0  0  0  0  0  0  0  0  0  0  0
  -47.6677   58.6320   65.1036 C   0  0  0  0  0  0  0  0  0  0  0  0
  -48.8582   59.3297   65.7065 C   0  0  0  0  0  0  0  0  0  0  0  0
  -49.4844   60.3532   64.7854 C   0  0  0  0  0  0  0  0  0  0  0  0
  -50.9620   60.1079   64.5562 C   0  0  0  0  0  0  0  0  0  0  0  0
  -51.3052   59.6755   63.1461 C   0  0  0  0  0  0  0  0  0  0  0  0
  -50.6805   58.3455   62.7402 C   0  0  0  0  0  0  0  0  0  0  0  0
  -50.7660   58.0522   61.2547 C   0  0  0  0  0  0  0  0  0  0  0  0
  -49.6018   58.6114   60.4628 C   0  0  0  0  0  0  0  0  0  0  0  0
  -49.5166   58.0736   59.0411 C   0  0  0  0  0  0  0  0  0  0  0  0
  -48.6281   56.8498   58.9065 C   0  0  0  0  0  0  0  0  0  0  0  0
  -47.0887   58.1084   57.3632 C   0  0  0  0  0  0  0  0  0  0  0  0
  -47.1901   57.1480   58.5263 C   0  0  0  0  0  0  0  0  0  0  0  0
  -38.7766   57.3791   62.3304 C   0  0  0  0  0  0  0  0  0  0  0  0
  -38.0971   57.9968   61.2145 O   0  0  0  0  0  0  0  0  0  0  0  0
  -38.7132   59.2274   60.3973 P   0  0  0  0  0  0  0  0  0  0  0  0
  -38.0483   60.4641   60.8616 O   0  0  0  0  0  0  0  0  0  0  0  0
  -38.6663   58.8925   58.9536 O   0  0  0  0  0  0  0  0  0  0  0  0
  -37.7422   58.8425   58.6631 H   0  0  0  0  0  0  0  0  0  0  0  0
  -40.2451   59.2999   60.8339 O   0  0  0  0  0  0  0  0  0  0  0  0
  -41.0980   60.3352   60.3043 C   0  0  0  0  0  0  0  0  0  0  0  0
  -42.4843   62.1678   60.9847 O   0  0  0  0  0  0  0  0  0  0  0  0
  -41.4538   61.2790   61.4267 C   0  0  0  0  0  0  0  0  0  0  0  0
  -42.1908   62.6303   60.1841 H   0  0  0  0  0  0  0  0  0  0  0  0
  -41.7581   61.3832   63.8173 O   0  0  0  0  0  0  0  0  0  0  0  0
  -41.8940   60.5498   62.6733 C   0  0  0  0  0  0  0  0  0  0  0  0
  -42.0453   60.8981   64.6066 H   0  0  0  0  0  0  0  0  0  0  0  0
  -37.3962   57.9907   64.2733 O   0  0  0  0  0  0  0  0  0  0  0  0
  -36.2988   59.8699   63.7039 O   0  0  0  0  0  0  0  0  0  0  0  0
  -36.3017   58.6874   63.9120 C   0  0  0  0  0  0  0  0  0  0  0  0
  -35.0877   57.8157   63.8195 C   0  0  0  0  0  0  0  0  0  0  0  0
  -34.1744   58.2489   62.6772 C   0  0  0  0  0  0  0  0  0  0  0  0
  -32.8729   58.8857   63.1362 C   0  0  0  0  0  0  0  0  0  0  0  0
  -32.6471   60.2846   62.5743 C   0  0  0  0  0  0  0  0  0  0  0  0
  -31.4138   60.4061   61.6987 C   0  0  0  0  0  0  0  0  0  0  0  0
  -30.0872   60.2009   62.4354 C   0  0  0  0  0  0  0  0  0  0  0  0
  -28.9376   61.0968   61.9693 C   0  0  0  0  0  0  0  0  0  0  0  0
  -28.8002   62.3260   62.8166 C   0  0  0  0  0  0  0  0  0  0  0  0
  -29.2496   63.5328   62.5321 C   0  0  0  0  0  0  0  0  0  0  0  0
  -29.9961   63.9283   61.2972 C   0  0  0  0  0  0  0  0  0  0  0  0
  -31.4790   64.1682   61.5651 C   0  0  0  0  0  0  0  0  0  0  0  0
  -31.9041   63.8331   62.9840 C   0  0  0  0  0  0  0  0  0  0  0  0
  -32.8313   64.8649   63.6027 C   0  0  0  0  0  0  0  0  0  0  0  0
  -33.7120   64.3306   64.7199 C   0  0  0  0  0  0  0  0  0  0  0  0
  -33.7259   62.8119   64.8064 C   0  0  0  0  0  0  0  0  0  0  0  0
  -34.6700   62.2572   65.8546 C   0  0  0  0  0  0  0  0  0  0  0  0
  -35.1280   63.3005   66.8351 C   0  0  0  0  0  0  0  0  0  0  0  0
 21 22  1  0  0  0
  4  5  2  0  0  0
 25 24  1  0  0  0
 25 26  2  0  0  0
 25 27  1  0  0  0
 25 29  1  0  0  0
 22 20  1  0  0  0
  3  5  1  0  0  0
  3  2  1  0  0  0
 20 19  1  0  0  0
 24 23  1  0  0  0
 19 18  1  0  0  0
 18 17  1  0  0  0
 27 28  1  0  0  0
 17 16  1  0  0  0
 29 30  1  0  0  0
 16 15  1  0  0  0
 34 35  1  0  0  0
 34 36  1  0  0  0
 15 14  1  0  0  0
 31 32  1  0  0  0
 31 33  1  0  0  0
 14 13  1  0  0  0
 37  1  1  0  0  0
 37 39  1  0  0  0
 13 12  1  0  0  0
 38 39  2  0  0  0
 12 11  1  0  0  0
 11 10  1  0  0  0
 10  9  1  0  0  0
  9  8  1  0  0  0
  8  7  1  0  0  0
  7  6  1  0  0  0
  6  5  1  0  0  0
  2  1  1  0  0  0
  1 23  1  0  0  0
 30 32  1  0  0  0
 32 35  1  0  0  0
 39 40  1  0  0  0
 40 41  1  0  0  0
 41 42  1  0  0  0
 42 43  1  0  0  0
 43 44  1  0  0  0
 44 45  1  0  0  0
 45 46  1  0  0  0
 46 47  1  0  0  0
 47 48  2  0  0  0
 48 49  1  0  0  0
 49 50  1  0  0  0
 50 51  1  0  0  0
 51 52  1  0  0  0
 52 53  1  0  0  0
 53 54  1  0  0  0
 54 55  1  0  0  0
 55 56  1  0  0  0
M  CHG 1  26  -1
M  END
> <minimizedAffinity>
-8.03590

> <CNNscore>
0.3175858259

> <CNNaffinity>
6.7356400490

> <CNN_VS>
2.1391437054

> <CNNaffinity_variance>
0.4911085069

$$$$
/media/chris/experiments/cd1a-new-docking/inputs/ligands/7sh4_ligand.pdb


 56 55  0  0  0  0  0  0  0  0999 V2000
  -38.1425   60.5565   63.1023 C   0  0  0  0  0  0  0  0  0  0  0  0
  -38.9735   60.6751   64.3485 C   0  0  0  0  0  0  0  0  0  0  0  0
  -40.3110   60.9024   63.8560 O   0  0  0  0  0  0  0  0  0  0  0  0
  -42.2234   61.2201   64.9703 O   0  0  0  0  0  0  0  0  0  0  0  0
  -41.3173   60.5054   64.6355 C   0  0  0  0  0  0  0  0  0  0  0  0
  -41.2302   59.0351   64.9273 C   0  0  0  0  0  0  0  0  0  0  0  0
  -42.0274   58.5956   66.1438 C   0  0  0  0  0  0  0  0  0  0  0  0
  -43.0041   57.4809   65.8331 C   0  0  0  0  0  0  0  0  0  0  0  0
  -44.3754   57.9586   65.4123 C   0  0  0  0  0  0  0  0  0  0  0  0
  -45.4374   57.7158   66.4655 C   0  0  0  0  0  0  0  0  0  0  0  0
  -46.1373   58.9784   66.9054 C   0  0  0  0  0  0  0  0  0  0  0  0
  -47.4212   59.2299   66.1597 C   0  0  0  0  0  0  0  0  0  0  0  0
  -47.2555   60.1539   64.9736 C   0  0  0  0  0  0  0  0  0  0  0  0
  -48.5711   60.7340   64.4953 C   0  0  0  0  0  0  0  0  0  0  0  0
  -49.7889   59.9481   64.9341 C   0  0  0  0  0  0  0  0  0  0  0  0
  -51.0948   60.4432   64.3229 C   0  0  0  0  0  0  0  0  0  0  0  0
  -51.5267   59.6764   63.0878 C   0  0  0  0  0  0  0  0  0  0  0  0
  -50.6764   58.4538   62.8101 C   0  0  0  0  0  0  0  0  0  0  0  0
  -50.8961   57.8591   61.4260 C   0  0  0  0  0  0  0  0  0  0  0  0
  -49.8793   58.3214   60.3976 C   0  0  0  0  0  0  0  0  0  0  0  0
  -47.8903   57.5670   59.0520 C   0  0  0  0  0  0  0  0  0  0  0  0
  -49.2661   57.2100   59.5670 C   0  0  0  0  0  0  0  0  0  0  0  0
  -37.8594   61.9001   62.4806 C   0  0  0  0  0  0  0  0  0  0  0  0
  -37.3917   62.7998   63.5102 O   0  0  0  0  0  0  0  0  0  0  0  0
  -36.1272   63.7611   63.3132 P   0  0  0  0  0  0  0  0  0  0  0  0
  -35.1437   63.0556   62.4635 O   0  0  0  0  0  0  0  0  0  0  0  0
  -36.6208   65.0899   62.8782 O   0  0  0  0  0  0  0  0  0  0  0  0
  -37.0132   65.0156   61.9942 H   0  0  0  0  0  0  0  0  0  0  0  0
  -35.4917   63.9262   64.7663 O   0  0  0  0  0  0  0  0  0  0  0  0
  -36.3404   63.9010   65.9320 C   0  0  0  0  0  0  0  0  0  0  0  0
  -36.1848   62.8710   68.0902 O   0  0  0  0  0  0  0  0  0  0  0  0
  -35.4736   63.6782   67.1469 C   0  0  0  0  0  0  0  0  0  0  0  0
  -37.0306   63.2946   68.3052 H   0  0  0  0  0  0  0  0  0  0  0  0
  -33.1201   63.5159   67.6502 O   0  0  0  0  0  0  0  0  0  0  0  0
  -34.1530   63.0334   66.8005 C   0  0  0  0  0  0  0  0  0  0  0  0
  -32.2812   63.0909   67.4128 H   0  0  0  0  0  0  0  0  0  0  0  0
  -38.8353   59.6629   62.1688 O   0  0  0  0  0  0  0  0  0  0  0  0
  -37.7290   58.8495   60.3871 O   0  0  0  0  0  0  0  0  0  0  0  0
  -38.0837   58.7462   61.5296 C   0  0  0  0  0  0  0  0  0  0  0  0
  -37.7286   57.5943   62.4180 C   0  0  0  0  0  0  0  0  0  0  0  0
  -36.2481   57.6068   62.7845 C   0  0  0  0  0  0  0  0  0  0  0  0
  -35.9812   57.8337   64.2635 C   0  0  0  0  0  0  0  0  0  0  0  0
  -35.0132   58.9784   64.5399 C   0  0  0  0  0  0  0  0  0  0  0  0
  -33.5527   58.6082   64.3608 C   0  0  0  0  0  0  0  0  0  0  0  0
  -32.9804   58.9261   62.9765 C   0  0  0  0  0  0  0  0  0  0  0  0
  -31.5857   59.5556   62.9768 C   0  0  0  0  0  0  0  0  0  0  0  0
  -31.3868   60.4883   61.8199 C   0  0  0  0  0  0  0  0  0  0  0  0
  -30.2337   60.9023   61.3315 C   0  0  0  0  0  0  0  0  0  0  0  0
  -28.8758   60.5236   61.8327 C   0  0  0  0  0  0  0  0  0  0  0  0
  -28.3713   61.4696   62.9185 C   0  0  0  0  0  0  0  0  0  0  0  0
  -28.5866   62.9379   62.5959 C   0  0  0  0  0  0  0  0  0  0  0  0
  -29.6089   63.6156   63.4919 C   0  0  0  0  0  0  0  0  0  0  0  0
  -30.2881   64.8244   62.8700 C   0  0  0  0  0  0  0  0  0  0  0  0
  -31.7878   64.6485   62.6863 C   0  0  0  0  0  0  0  0  0  0  0  0
  -32.2648   64.8269   61.2585 C   0  0  0  0  0  0  0  0  0  0  0  0
  -31.8274   66.1339   60.6585 C   0  0  0  0  0  0  0  0  0  0  0  0
 21 22  1  0  0  0
  4  5  2  0  0  0
 25 24  1  0  0  0
 25 26  2  0  0  0
 25 27  1  0  0  0
 25 29  1  0  0  0
 22 20  1  0  0  0
  3  5  1  0  0  0
  3  2  1  0  0  0
 20 19  1  0  0  0
 24 23  1  0  0  0
 19 18  1  0  0  0
 18 17  1  0  0  0
 27 28  1  0  0  0
 17 16  1  0  0  0
 29 30  1  0  0  0
 16 15  1  0  0  0
 34 35  1  0  0  0
 34 36  1  0  0  0
 15 14  1  0  0  0
 31 32  1  0  0  0
 31 33  1  0  0  0
 14 13  1  0  0  0
 37  1  1  0  0  0
 37 39  1  0  0  0
 13 12  1  0  0  0
 38 39  2  0  0  0
 12 11  1  0  0  0
 11 10  1  0  0  0
 10  9  1  0  0  0
  9  8  1  0  0  0
  8  7  1  0  0  0
  7  6  1  0  0  0
  6  5  1  0  0  0
  2  1  1  0  0  0
  1 23  1  0  0  0
 30 32  1  0  0  0
 32 35  1  0  0  0
 39 40  1  0  0  0
 40 41  1  0  0  0
 41 42  1  0  0  0
 42 43  1  0  0  0
 43 44  1  0  0  0
 44 45  1  0  0  0
 45 46  1  0  0  0
 46 47  1  0  0  0
 47 48  2  0  0  0
 48 49  1  0  0  0
 49 50  1  0  0  0
 50 51  1  0  0  0
 51 52  1  0  0  0
 52 53  1  0  0  0
 53 54  1  0  0  0
 54 55  1  0  0  0
 55 56  1  0  0  0
M  CHG 1  26  -1
M  END
> <minimizedAffinity>
-8.38686

> <CNNscore>
0.2964739203

> <CNNaffinity>
6.6378822327

> <CNN_VS>
1.9679589272

> <CNNaffinity_variance>
0.5691654086

$$$$
/media/chris/experiments/cd1a-new-docking/inputs/ligands/7sh4_ligand.pdb


 56 55  0  0  0  0  0  0  0  0999 V2000
  -40.3218   59.1747   62.1697 C   0  0  0  0  0  0  0  0  0  0  0  0
  -41.6413   58.5080   62.4384 C   0  0  0  0  0  0  0  0  0  0  0  0
  -41.3177   57.4576   63.3737 O   0  0  0  0  0  0  0  0  0  0  0  0
  -42.3040   55.8155   64.5272 O   0  0  0  0  0  0  0  0  0  0  0  0
  -42.3319   56.9182   64.0509 C   0  0  0  0  0  0  0  0  0  0  0  0
  -43.4445   57.9084   64.2415 C   0  0  0  0  0  0  0  0  0  0  0  0
  -44.2484   57.7010   65.5141 C   0  0  0  0  0  0  0  0  0  0  0  0
  -45.2356   58.8197   65.7726 C   0  0  0  0  0  0  0  0  0  0  0  0
  -46.6795   58.4380   65.5378 C   0  0  0  0  0  0  0  0  0  0  0  0
  -47.3238   59.2186   64.4102 C   0  0  0  0  0  0  0  0  0  0  0  0
  -48.1549   60.3823   64.8925 C   0  0  0  0  0  0  0  0  0  0  0  0
  -49.0996   60.0099   66.0044 C   0  0  0  0  0  0  0  0  0  0  0  0
  -50.4664   59.5861   65.5144 C   0  0  0  0  0  0  0  0  0  0  0  0
  -51.0012   60.4875   64.4199 C   0  0  0  0  0  0  0  0  0  0  0  0
  -51.5848   59.7436   63.2369 C   0  0  0  0  0  0  0  0  0  0  0  0
  -50.5397   59.2514   62.2422 C   0  0  0  0  0  0  0  0  0  0  0  0
  -50.9009   57.9430   61.5657 C   0  0  0  0  0  0  0  0  0  0  0  0
  -50.2823   57.7847   60.1919 C   0  0  0  0  0  0  0  0  0  0  0  0
  -49.1424   56.7765   60.1483 C   0  0  0  0  0  0  0  0  0  0  0  0
  -47.9149   57.2787   59.4093 C   0  0  0  0  0  0  0  0  0  0  0  0
  -46.9144   58.1368   57.2649 C   0  0  0  0  0  0  0  0  0  0  0  0
  -48.1858   57.8047   58.0125 C   0  0  0  0  0  0  0  0  0  0  0  0
  -40.2610   60.5643   62.7501 C   0  0  0  0  0  0  0  0  0  0  0  0
  -39.0197   60.7116   63.4753 O   0  0  0  0  0  0  0  0  0  0  0  0
  -38.8475   60.2588   65.0009 P   0  0  0  0  0  0  0  0  0  0  0  0
  -39.6606   61.1637   65.8416 O   0  0  0  0  0  0  0  0  0  0  0  0
  -39.0951   58.7990   65.0798 O   0  0  0  0  0  0  0  0  0  0  0  0
  -40.0251   58.6171   64.8729 H   0  0  0  0  0  0  0  0  0  0  0  0
  -37.3121   60.5147   65.3466 O   0  0  0  0  0  0  0  0  0  0  0  0
  -36.6465   61.6923   64.8465 C   0  0  0  0  0  0  0  0  0  0  0  0
  -34.4886   61.7460   65.8875 O   0  0  0  0  0  0  0  0  0  0  0  0
  -35.8147   62.2782   65.9610 C   0  0  0  0  0  0  0  0  0  0  0  0
  -34.5270   60.7772   65.9173 H   0  0  0  0  0  0  0  0  0  0  0  0
  -36.7635   64.3419   66.7729 O   0  0  0  0  0  0  0  0  0  0  0  0
  -35.7740   63.7869   65.9159 C   0  0  0  0  0  0  0  0  0  0  0  0
  -36.7218   65.3100   66.7305 H   0  0  0  0  0  0  0  0  0  0  0  0
  -40.0951   59.1824   60.7211 O   0  0  0  0  0  0  0  0  0  0  0  0
  -38.4739   58.8988   59.1876 O   0  0  0  0  0  0  0  0  0  0  0  0
  -38.9175   58.6957   60.2847 C   0  0  0  0  0  0  0  0  0  0  0  0
  -38.2207   57.8883   61.3358 C   0  0  0  0  0  0  0  0  0  0  0  0
  -36.8218   58.4268   61.6183 C   0  0  0  0  0  0  0  0  0  0  0  0
  -36.2748   58.0364   62.9816 C   0  0  0  0  0  0  0  0  0  0  0  0
  -34.8666   57.4548   62.9298 C   0  0  0  0  0  0  0  0  0  0  0  0
  -33.8082   58.4411   62.4723 C   0  0  0  0  0  0  0  0  0  0  0  0
  -33.0721   59.1574   63.6080 C   0  0  0  0  0  0  0  0  0  0  0  0
  -31.6680   59.6573   63.2612 C   0  0  0  0  0  0  0  0  0  0  0  0
  -31.6521   60.4654   61.9984 C   0  0  0  0  0  0  0  0  0  0  0  0
  -30.5861   60.8621   61.3308 C   0  0  0  0  0  0  0  0  0  0  0  0
  -29.1620   60.5852   61.6965 C   0  0  0  0  0  0  0  0  0  0  0  0
  -28.6328   61.5530   62.7509 C   0  0  0  0  0  0  0  0  0  0  0  0
  -28.7448   63.0132   62.3487 C   0  0  0  0  0  0  0  0  0  0  0  0
  -29.5944   63.8432   63.2956 C   0  0  0  0  0  0  0  0  0  0  0  0
  -30.8738   64.3865   62.6816 C   0  0  0  0  0  0  0  0  0  0  0  0
  -32.1359   63.8696   63.3554 C   0  0  0  0  0  0  0  0  0  0  0  0
  -32.2224   64.1806   64.8364 C   0  0  0  0  0  0  0  0  0  0  0  0
  -32.4806   65.6358   65.1109 C   0  0  0  0  0  0  0  0  0  0  0  0
 21 22  1  0  0  0
  4  5  2  0  0  0
 25 24  1  0  0  0
 25 26  2  0  0  0
 25 27  1  0  0  0
 25 29  1  0  0  0
 22 20  1  0  0  0
  3  5  1  0  0  0
  3  2  1  0  0  0
 20 19  1  0  0  0
 24 23  1  0  0  0
 19 18  1  0  0  0
 18 17  1  0  0  0
 27 28  1  0  0  0
 17 16  1  0  0  0
 29 30  1  0  0  0
 16 15  1  0  0  0
 34 35  1  0  0  0
 34 36  1  0  0  0
 15 14  1  0  0  0
 31 32  1  0  0  0
 31 33  1  0  0  0
 14 13  1  0  0  0
 37  1  1  0  0  0
 37 39  1  0  0  0
 13 12  1  0  0  0
 38 39  2  0  0  0
 12 11  1  0  0  0
 11 10  1  0  0  0
 10  9  1  0  0  0
  9  8  1  0  0  0
  8  7  1  0  0  0
  7  6  1  0  0  0
  6  5  1  0  0  0
  2  1  1  0  0  0
  1 23  1  0  0  0
 30 32  1  0  0  0
 32 35  1  0  0  0
 39 40  1  0  0  0
 40 41  1  0  0  0
 41 42  1  0  0  0
 42 43  1  0  0  0
 43 44  1  0  0  0
 44 45  1  0  0  0
 45 46  1  0  0  0
 46 47  1  0  0  0
 47 48  2  0  0  0
 48 49  1  0  0  0
 49 50  1  0  0  0
 50 51  1  0  0  0
 51 52  1  0  0  0
 52 53  1  0  0  0
 53 54  1  0  0  0
 54 55  1  0  0  0
 55 56  1  0  0  0
M  CHG 1  26  -1
M  END
> <minimizedAffinity>
-8.42482

> <CNNscore>
0.2534679174

> <CNNaffinity>
6.4190764427

> <CNN_VS>
1.6270298958

> <CNNaffinity_variance>
0.6351710558

$$$$
/media/chris/experiments/cd1a-new-docking/inputs/ligands/7sh4_ligand.pdb


 56 55  0  0  0  0  0  0  0  0999 V2000
  -36.4226   62.4219   65.1700 C   0  0  0  0  0  0  0  0  0  0  0  0
  -35.4430   62.2531   64.0432 C   0  0  0  0  0  0  0  0  0  0  0  0
  -34.3904   61.4468   64.6134 O   0  0  0  0  0  0  0  0  0  0  0  0
  -33.2590   61.0581   62.7244 O   0  0  0  0  0  0  0  0  0  0  0  0
  -33.6993   60.6745   63.7745 C   0  0  0  0  0  0  0  0  0  0  0  0
  -33.4429   59.3202   64.3702 C   0  0  0  0  0  0  0  0  0  0  0  0
  -33.5124   58.1789   63.3696 C   0  0  0  0  0  0  0  0  0  0  0  0
  -34.9203   57.6583   63.1711 C   0  0  0  0  0  0  0  0  0  0  0  0
  -35.9177   58.1672   64.1870 C   0  0  0  0  0  0  0  0  0  0  0  0
  -37.2843   57.5272   64.0491 C   0  0  0  0  0  0  0  0  0  0  0  0
  -38.1711   58.2297   63.0503 C   0  0  0  0  0  0  0  0  0  0  0  0
  -38.1615   57.5767   61.6934 C   0  0  0  0  0  0  0  0  0  0  0  0
  -37.5660   58.4499   60.6112 C   0  0  0  0  0  0  0  0  0  0  0  0
  -38.6167   59.2158   59.8330 C   0  0  0  0  0  0  0  0  0  0  0  0
  -39.6555   58.3373   59.1676 C   0  0  0  0  0  0  0  0  0  0  0  0
  -41.0855   58.6365   59.6029 C   0  0  0  0  0  0  0  0  0  0  0  0
  -41.1855   59.5959   60.7732 C   0  0  0  0  0  0  0  0  0  0  0  0
  -41.6557   58.9366   62.0536 C   0  0  0  0  0  0  0  0  0  0  0  0
  -42.1012   57.4927   61.8685 C   0  0  0  0  0  0  0  0  0  0  0  0
  -41.5222   56.5411   62.9001 C   0  0  0  0  0  0  0  0  0  0  0  0
  -43.0133   56.9059   64.8949 C   0  0  0  0  0  0  0  0  0  0  0  0
  -41.6145   57.0268   64.3343 C   0  0  0  0  0  0  0  0  0  0  0  0
  -35.7523   62.8834   66.4386 C   0  0  0  0  0  0  0  0  0  0  0  0
  -35.0808   64.1367   66.1805 O   0  0  0  0  0  0  0  0  0  0  0  0
  -33.5549   64.4024   66.5839 P   0  0  0  0  0  0  0  0  0  0  0  0
  -33.4351   65.8102   67.0205 O   0  0  0  0  0  0  0  0  0  0  0  0
  -33.1300   63.3293   67.5149 O   0  0  0  0  0  0  0  0  0  0  0  0
  -33.6219   63.4097   68.3470 H   0  0  0  0  0  0  0  0  0  0  0  0
  -32.7254   64.2352   65.2324 O   0  0  0  0  0  0  0  0  0  0  0  0
  -32.6700   65.3178   64.2812 C   0  0  0  0  0  0  0  0  0  0  0  0
  -31.6626   63.4515   63.1656 O   0  0  0  0  0  0  0  0  0  0  0  0
  -32.1842   64.7682   62.9625 C   0  0  0  0  0  0  0  0  0  0  0  0
  -30.9657   63.4803   63.8399 H   0  0  0  0  0  0  0  0  0  0  0  0
  -33.4124   63.4367   61.3698 O   0  0  0  0  0  0  0  0  0  0  0  0
  -33.2713   64.7423   61.9150 C   0  0  0  0  0  0  0  0  0  0  0  0
  -34.1140   63.4401   60.7001 H   0  0  0  0  0  0  0  0  0  0  0  0
  -37.1288   61.1513   65.3618 O   0  0  0  0  0  0  0  0  0  0  0  0
  -38.8446   61.6416   63.9923 O   0  0  0  0  0  0  0  0  0  0  0  0
  -38.4194   61.1062   64.9793 C   0  0  0  0  0  0  0  0  0  0  0  0
  -39.2549   60.2947   65.9204 C   0  0  0  0  0  0  0  0  0  0  0  0
  -40.6960   60.1823   65.4333 C   0  0  0  0  0  0  0  0  0  0  0  0
  -41.7197   60.7547   66.4000 C   0  0  0  0  0  0  0  0  0  0  0  0
  -42.9702   61.2941   65.7152 C   0  0  0  0  0  0  0  0  0  0  0  0
  -44.1650   60.3617   65.7891 C   0  0  0  0  0  0  0  0  0  0  0  0
  -44.8803   60.1363   64.4541 C   0  0  0  0  0  0  0  0  0  0  0  0
  -46.3149   59.6153   64.5633 C   0  0  0  0  0  0  0  0  0  0  0  0
  -46.8625   59.7554   65.9520 C   0  0  0  0  0  0  0  0  0  0  0  0
  -48.0999   60.0703   66.2824 C   0  0  0  0  0  0  0  0  0  0  0  0
  -49.2219   60.3534   65.3341 C   0  0  0  0  0  0  0  0  0  0  0  0
  -50.1890   59.1797   65.2092 C   0  0  0  0  0  0  0  0  0  0  0  0
  -49.9891   58.3568   63.9486 C   0  0  0  0  0  0  0  0  0  0  0  0
  -50.8142   58.8393   62.7680 C   0  0  0  0  0  0  0  0  0  0  0  0
  -50.8327   57.8889   61.5824 C   0  0  0  0  0  0  0  0  0  0  0  0
  -50.1674   58.4589   60.3389 C   0  0  0  0  0  0  0  0  0  0  0  0
  -48.7758   57.9189   60.0751 C   0  0  0  0  0  0  0  0  0  0  0  0
  -48.2267   58.3520   58.7444 C   0  0  0  0  0  0  0  0  0  0  0  0
 21 22  1  0  0  0
  4  5  2  0  0  0
 25 24  1  0  0  0
 25 26  2  0  0  0
 25 27  1  0  0  0
 25 29  1  0  0  0
 22 20  1  0  0  0
  3  5  1  0  0  0
  3  2  1  0  0  0
 20 19  1  0  0  0
 24 23  1  0  0  0
 19 18  1  0  0  0
 18 17  1  0  0  0
 27 28  1  0  0  0
 17 16  1  0  0  0
 29 30  1  0  0  0
 16 15  1  0  0  0
 34 35  1  0  0  0
 34 36  1  0  0  0
 15 14  1  0  0  0
 31 32  1  0  0  0
 31 33  1  0  0  0
 14 13  1  0  0  0
 37  1  1  0  0  0
 37 39  1  0  0  0
 13 12  1  0  0  0
 38 39  2  0  0  0
 12 11  1  0  0  0
 11 10  1  0  0  0
 10  9  1  0  0  0
  9  8  1  0  0  0
  8  7  1  0  0  0
  7  6  1  0  0  0
  6  5  1  0  0  0
  2  1  1  0  0  0
  1 23  1  0  0  0
 30 32  1  0  0  0
 32 35  1  0  0  0
 39 40  1  0  0  0
 40 41  1  0  0  0
 41 42  1  0  0  0
 42 43  1  0  0  0
 43 44  1  0  0  0
 44 45  1  0  0  0
 45 46  1  0  0  0
 46 47  1  0  0  0
 47 48  2  0  0  0
 48 49  1  0  0  0
 49 50  1  0  0  0
 50 51  1  0  0  0
 51 52  1  0  0  0
 52 53  1  0  0  0
 53 54  1  0  0  0
 54 55  1  0  0  0
 55 56  1  0  0  0
M  CHG 1  26  -1
M  END
> <minimizedAffinity>
-8.02273

> <CNNscore>
0.2311762720

> <CNNaffinity>
7.1736021042

> <CNN_VS>
1.6583665609

> <CNNaffinity_variance>
1.1009786129

$$$$
/media/chris/experiments/cd1a-new-docking/inputs/ligands/7sh4_ligand.pdb


 56 55  0  0  0  0  0  0  0  0999 V2000
  -38.2586   60.6472   65.0213 C   0  0  0  0  0  0  0  0  0  0  0  0
  -39.4361   59.8890   65.5655 C   0  0  0  0  0  0  0  0  0  0  0  0
  -40.2889   60.9157   66.1149 O   0  0  0  0  0  0  0  0  0  0  0  0
  -42.3402   61.2785   66.9276 O   0  0  0  0  0  0  0  0  0  0  0  0
  -41.5709   60.6000   66.3018 C   0  0  0  0  0  0  0  0  0  0  0  0
  -41.9442   59.3674   65.5299 C   0  0  0  0  0  0  0  0  0  0  0  0
  -43.4192   59.2800   65.1759 C   0  0  0  0  0  0  0  0  0  0  0  0
  -43.8300   60.2874   64.1227 C   0  0  0  0  0  0  0  0  0  0  0  0
  -45.1281   61.0021   64.4224 C   0  0  0  0  0  0  0  0  0  0  0  0
  -46.0842   60.1719   65.2546 C   0  0  0  0  0  0  0  0  0  0  0  0
  -47.3593   59.8252   64.5255 C   0  0  0  0  0  0  0  0  0  0  0  0
  -48.2415   58.8814   65.2991 C   0  0  0  0  0  0  0  0  0  0  0  0
  -49.7170   59.1781   65.1473 C   0  0  0  0  0  0  0  0  0  0  0  0
  -50.0271   59.9819   63.9007 C   0  0  0  0  0  0  0  0  0  0  0  0
  -51.1710   59.4283   63.0771 C   0  0  0  0  0  0  0  0  0  0  0  0
  -50.7504   58.3500   62.0849 C   0  0  0  0  0  0  0  0  0  0  0  0
  -49.9997   58.8813   60.8790 C   0  0  0  0  0  0  0  0  0  0  0  0
  -49.9855   57.9207   59.7076 C   0  0  0  0  0  0  0  0  0  0  0  0
  -48.5939   57.4213   59.3447 C   0  0  0  0  0  0  0  0  0  0  0  0
  -47.8402   58.3493   58.4088 C   0  0  0  0  0  0  0  0  0  0  0  0
  -47.2178   56.2394   57.1853 C   0  0  0  0  0  0  0  0  0  0  0  0
  -47.4482   57.7299   57.0806 C   0  0  0  0  0  0  0  0  0  0  0  0
  -37.4549   61.3051   66.1136 C   0  0  0  0  0  0  0  0  0  0  0  0
  -36.2559   61.8670   65.5348 O   0  0  0  0  0  0  0  0  0  0  0  0
  -35.5682   63.2016   66.0895 P   0  0  0  0  0  0  0  0  0  0  0  0
  -36.5961   64.2640   66.1290 O   0  0  0  0  0  0  0  0  0  0  0  0
  -34.8451   62.8633   67.3390 O   0  0  0  0  0  0  0  0  0  0  0  0
  -35.4839   62.6127   68.0245 H   0  0  0  0  0  0  0  0  0  0  0  0
  -34.4854   63.6067   64.9912 O   0  0  0  0  0  0  0  0  0  0  0  0
  -34.4471   62.9149   63.7263 C   0  0  0  0  0  0  0  0  0  0  0  0
  -33.7619   63.6330   61.5451 O   0  0  0  0  0  0  0  0  0  0  0  0
  -34.6538   63.9255   62.6249 C   0  0  0  0  0  0  0  0  0  0  0  0
  -32.8496   63.6181   61.8744 H   0  0  0  0  0  0  0  0  0  0  0  0
  -36.9893   63.7695   63.2076 O   0  0  0  0  0  0  0  0  0  0  0  0
  -36.0800   63.9528   62.1300 C   0  0  0  0  0  0  0  0  0  0  0  0
  -37.8986   63.7901   62.8704 H   0  0  0  0  0  0  0  0  0  0  0  0
  -38.7504   61.6258   64.0464 O   0  0  0  0  0  0  0  0  0  0  0  0
  -38.0382   61.0210   62.0001 O   0  0  0  0  0  0  0  0  0  0  0  0
  -38.9314   61.1922   62.7842 C   0  0  0  0  0  0  0  0  0  0  0  0
  -40.3748   60.9321   62.4824 C   0  0  0  0  0  0  0  0  0  0  0  0
  -40.5388   60.0840   61.2253 C   0  0  0  0  0  0  0  0  0  0  0  0
  -41.2994   58.7876   61.4513 C   0  0  0  0  0  0  0  0  0  0  0  0
  -40.5411   57.5476   60.9918 C   0  0  0  0  0  0  0  0  0  0  0  0
  -39.0397   57.7439   60.8934 C   0  0  0  0  0  0  0  0  0  0  0  0
  -38.2556   57.2863   62.1265 C   0  0  0  0  0  0  0  0  0  0  0  0
  -36.8405   57.8559   62.2471 C   0  0  0  0  0  0  0  0  0  0  0  0
  -36.3186   57.7795   63.6506 C   0  0  0  0  0  0  0  0  0  0  0  0
  -35.0700   57.9551   64.0371 C   0  0  0  0  0  0  0  0  0  0  0  0
  -33.9074   58.2706   63.1497 C   0  0  0  0  0  0  0  0  0  0  0  0
  -32.8384   59.0947   63.8614 C   0  0  0  0  0  0  0  0  0  0  0  0
  -31.6281   59.4001   62.9965 C   0  0  0  0  0  0  0  0  0  0  0  0
  -31.8260   60.5849   62.0669 C   0  0  0  0  0  0  0  0  0  0  0  0
  -30.6209   60.9151   61.2021 C   0  0  0  0  0  0  0  0  0  0  0  0
  -29.2916   60.5902   61.8665 C   0  0  0  0  0  0  0  0  0  0  0  0
  -28.6869   61.7423   62.6443 C   0  0  0  0  0  0  0  0  0  0  0  0
  -28.7917   63.0535   61.9168 C   0  0  0  0  0  0  0  0  0  0  0  0
 21 22  1  0  0  0
  4  5  2  0  0  0
 25 24  1  0  0  0
 25 26  2  0  0  0
 25 27  1  0  0  0
 25 29  1  0  0  0
 22 20  1  0  0  0
  3  5  1  0  0  0
  3  2  1  0  0  0
 20 19  1  0  0  0
 24 23  1  0  0  0
 19 18  1  0  0  0
 18 17  1  0  0  0
 27 28  1  0  0  0
 17 16  1  0  0  0
 29 30  1  0  0  0
 16 15  1  0  0  0
 34 35  1  0  0  0
 34 36  1  0  0  0
 15 14  1  0  0  0
 31 32  1  0  0  0
 31 33  1  0  0  0
 14 13  1  0  0  0
 37  1  1  0  0  0
 37 39  1  0  0  0
 13 12  1  0  0  0
 38 39  2  0  0  0
 12 11  1  0  0  0
 11 10  1  0  0  0
 10  9  1  0  0  0
  9  8  1  0  0  0
  8  7  1  0  0  0
  7  6  1  0  0  0
  6  5  1  0  0  0
  2  1  1  0  0  0
  1 23  1  0  0  0
 30 32  1  0  0  0
 32 35  1  0  0  0
 39 40  1  0  0  0
 40 41  1  0  0  0
 41 42  1  0  0  0
 42 43  1  0  0  0
 43 44  1  0  0  0
 44 45  1  0  0  0
 45 46  1  0  0  0
 46 47  1  0  0  0
 47 48  2  0  0  0
 48 49  1  0  0  0
 49 50  1  0  0  0
 50 51  1  0  0  0
 51 52  1  0  0  0
 52 53  1  0  0  0
 53 54  1  0  0  0
 54 55  1  0  0  0
 55 56  1  0  0  0
M  CHG 1  26  -1
M  END
> <minimizedAffinity>
-8.63419

> <CNNscore>
0.2122330666

> <CNNaffinity>
6.8925170898

> <CNN_VS>
1.4628200531

> <CNNaffinity_variance>
1.1012847424

$$$$
/media/chris/experiments/cd1a-new-docking/inputs/ligands/7sh4_ligand.pdb


 56 55  0  0  0  0  0  0  0  0999 V2000
  -37.6178   60.2999   65.2739 C   0  0  0  0  0  0  0  0  0  0  0  0
  -39.0329   59.8064   65.3820 C   0  0  0  0  0  0  0  0  0  0  0  0
  -39.7442   60.9130   65.9757 O   0  0  0  0  0  0  0  0  0  0  0  0
  -41.7794   61.6180   66.5765 O   0  0  0  0  0  0  0  0  0  0  0  0
  -41.0473   60.7422   66.2012 C   0  0  0  0  0  0  0  0  0  0  0  0
  -41.4899   59.3626   65.8068 C   0  0  0  0  0  0  0  0  0  0  0  0
  -42.9980   59.1808   65.7729 C   0  0  0  0  0  0  0  0  0  0  0  0
  -43.5208   58.8777   64.3846 C   0  0  0  0  0  0  0  0  0  0  0  0
  -45.0290   58.8578   64.2815 C   0  0  0  0  0  0  0  0  0  0  0  0
  -45.6685   60.1722   64.6807 C   0  0  0  0  0  0  0  0  0  0  0  0
  -47.1531   60.2161   64.4128 C   0  0  0  0  0  0  0  0  0  0  0  0
  -47.9355   59.2642   65.2784 C   0  0  0  0  0  0  0  0  0  0  0  0
  -49.4099   59.2212   64.9429 C   0  0  0  0  0  0  0  0  0  0  0  0
  -49.8932   60.4879   64.2661 C   0  0  0  0  0  0  0  0  0  0  0  0
  -50.6339   60.2502   62.9667 C   0  0  0  0  0  0  0  0  0  0  0  0
  -51.0710   58.8041   62.7624 C   0  0  0  0  0  0  0  0  0  0  0  0
  -50.1692   58.0129   61.8346 C   0  0  0  0  0  0  0  0  0  0  0  0
  -49.5576   58.8508   60.7305 C   0  0  0  0  0  0  0  0  0  0  0  0
  -50.0152   58.4494   59.3351 C   0  0  0  0  0  0  0  0  0  0  0  0
  -49.0119   57.5859   58.5915 C   0  0  0  0  0  0  0  0  0  0  0  0
  -47.2907   57.9957   56.8011 C   0  0  0  0  0  0  0  0  0  0  0  0
  -47.7204   58.2899   58.2204 C   0  0  0  0  0  0  0  0  0  0  0  0
  -37.3943   61.5580   66.0733 C   0  0  0  0  0  0  0  0  0  0  0  0
  -35.9935   61.9072   66.0089 O   0  0  0  0  0  0  0  0  0  0  0  0
  -35.4515   63.3803   66.3223 P   0  0  0  0  0  0  0  0  0  0  0  0
  -36.5998   64.3108   66.2726 O   0  0  0  0  0  0  0  0  0  0  0  0
  -34.6374   63.3190   67.5601 O   0  0  0  0  0  0  0  0  0  0  0  0
  -35.2094   63.1022   68.3129 H   0  0  0  0  0  0  0  0  0  0  0  0
  -34.4768   63.7381   65.1121 O   0  0  0  0  0  0  0  0  0  0  0  0
  -34.7029   63.1624   63.8092 C   0  0  0  0  0  0  0  0  0  0  0  0
  -34.2117   63.5531   61.4964 O   0  0  0  0  0  0  0  0  0  0  0  0
  -34.3584   64.1967   62.7658 C   0  0  0  0  0  0  0  0  0  0  0  0
  -33.5447   62.8521   61.5646 H   0  0  0  0  0  0  0  0  0  0  0  0
  -36.6313   64.8585   63.2287 O   0  0  0  0  0  0  0  0  0  0  0  0
  -35.3941   65.2919   62.6782 C   0  0  0  0  0  0  0  0  0  0  0  0
  -37.2826   65.5743   63.1635 H   0  0  0  0  0  0  0  0  0  0  0  0
  -37.3048   60.4969   63.8550 O   0  0  0  0  0  0  0  0  0  0  0  0
  -38.0885   62.5705   63.4724 O   0  0  0  0  0  0  0  0  0  0  0  0
  -38.0423   61.4049   63.1875 C   0  0  0  0  0  0  0  0  0  0  0  0
  -38.7815   60.7915   62.0388 C   0  0  0  0  0  0  0  0  0  0  0  0
  -40.2916   60.9029   62.2227 C   0  0  0  0  0  0  0  0  0  0  0  0
  -41.0944   60.4581   61.0111 C   0  0  0  0  0  0  0  0  0  0  0  0
  -40.2503   59.7891   59.9324 C   0  0  0  0  0  0  0  0  0  0  0  0
  -40.9794   58.7029   59.1637 C   0  0  0  0  0  0  0  0  0  0  0  0
  -41.1945   57.4042   59.9460 C   0  0  0  0  0  0  0  0  0  0  0  0
  -41.9313   57.5603   61.2780 C   0  0  0  0  0  0  0  0  0  0  0  0
  -41.5422   56.5019   62.2661 C   0  0  0  0  0  0  0  0  0  0  0  0
  -40.4286   56.4541   62.9711 C   0  0  0  0  0  0  0  0  0  0  0  0
  -39.3157   57.4532   62.9322 C   0  0  0  0  0  0  0  0  0  0  0  0
  -38.3144   57.1663   61.8171 C   0  0  0  0  0  0  0  0  0  0  0  0
  -36.9009   57.6218   62.1350 C   0  0  0  0  0  0  0  0  0  0  0  0
  -36.5525   57.5436   63.6114 C   0  0  0  0  0  0  0  0  0  0  0  0
  -35.0697   57.6767   63.9163 C   0  0  0  0  0  0  0  0  0  0  0  0
  -34.2336   58.0557   62.7034 C   0  0  0  0  0  0  0  0  0  0  0  0
  -32.8561   58.5912   63.0401 C   0  0  0  0  0  0  0  0  0  0  0  0
  -32.7669   60.0865   62.9147 C   0  0  0  0  0  0  0  0  0  0  0  0
 21 22  1  0  0  0
  4  5  2  0  0  0
 25 24  1  0  0  0
 25 26  2  0  0  0
 25 27  1  0  0  0
 25 29  1  0  0  0
 22 20  1  0  0  0
  3  5  1  0  0  0
  3  2  1  0  0  0
 20 19  1  0  0  0
 24 23  1  0  0  0
 19 18  1  0  0  0
 18 17  1  0  0  0
 27 28  1  0  0  0
 17 16  1  0  0  0
 29 30  1  0  0  0
 16 15  1  0  0  0
 34 35  1  0  0  0
 34 36  1  0  0  0
 15 14  1  0  0  0
 31 32  1  0  0  0
 31 33  1  0  0  0
 14 13  1  0  0  0
 37  1  1  0  0  0
 37 39  1  0  0  0
 13 12  1  0  0  0
 38 39  2  0  0  0
 12 11  1  0  0  0
 11 10  1  0  0  0
 10  9  1  0  0  0
  9  8  1  0  0  0
  8  7  1  0  0  0
  7  6  1  0  0  0
  6  5  1  0  0  0
  2  1  1  0  0  0
  1 23  1  0  0  0
 30 32  1  0  0  0
 32 35  1  0  0  0
 39 40  1  0  0  0
 40 41  1  0  0  0
 41 42  1  0  0  0
 42 43  1  0  0  0
 43 44  1  0  0  0
 44 45  1  0  0  0
 45 46  1  0  0  0
 46 47  1  0  0  0
 47 48  2  0  0  0
 48 49  1  0  0  0
 49 50  1  0  0  0
 50 51  1  0  0  0
 51 52  1  0  0  0
 52 53  1  0  0  0
 53 54  1  0  0  0
 54 55  1  0  0  0
 55 56  1  0  0  0
M  CHG 1  26  -1
M  END
> <minimizedAffinity>
-8.14206

> <CNNscore>
0.2112319916

> <CNNaffinity>
7.3874268532

> <CNN_VS>
1.5604609251

> <CNNaffinity_variance>
1.2281570435

$$$$
