/media/chris/experiments/cd1a-new-docking/inputs/ligands/7sh4_ligand.pdb


 56 55  0  0  0  0  0  0  0  0999 V2000
  -39.2384   60.5446   62.1869 C   0  0  0  0  0  0  0  0  0  0  0  0
  -40.6189   60.9632   61.7666 C   0  0  0  0  0  0  0  0  0  0  0  0
  -41.2657   61.3267   63.0046 O   0  0  0  0  0  0  0  0  0  0  0  0
  -43.0643   62.0407   61.8846 O   0  0  0  0  0  0  0  0  0  0  0  0
  -42.5164   61.7812   62.9220 C   0  0  0  0  0  0  0  0  0  0  0  0
  -43.1762   61.8024   64.2707 C   0  0  0  0  0  0  0  0  0  0  0  0
  -44.5579   61.1709   64.2954 C   0  0  0  0  0  0  0  0  0  0  0  0
  -44.5105   59.6575   64.3087 C   0  0  0  0  0  0  0  0  0  0  0  0
  -45.6861   59.0071   65.0020 C   0  0  0  0  0  0  0  0  0  0  0  0
  -46.9726   59.7937   64.8524 C   0  0  0  0  0  0  0  0  0  0  0  0
  -47.7162   59.9695   66.1538 C   0  0  0  0  0  0  0  0  0  0  0  0
  -49.2076   59.8268   66.0034 C   0  0  0  0  0  0  0  0  0  0  0  0
  -49.7741   60.6275   64.8518 C   0  0  0  0  0  0  0  0  0  0  0  0
  -51.1669   60.1797   64.4567 C   0  0  0  0  0  0  0  0  0  0  0  0
  -51.3155   59.8479   62.9867 C   0  0  0  0  0  0  0  0  0  0  0  0
  -50.6576   58.5335   62.5822 C   0  0  0  0  0  0  0  0  0  0  0  0
  -49.3541   58.7040   61.8260 C   0  0  0  0  0  0  0  0  0  0  0  0
  -49.5198   59.3985   60.4898 C   0  0  0  0  0  0  0  0  0  0  0  0
  -49.4624   58.4520   59.2988 C   0  0  0  0  0  0  0  0  0  0  0  0
  -48.1549   57.6877   59.1925 C   0  0  0  0  0  0  0  0  0  0  0  0
  -47.1565   56.6809   57.1127 C   0  0  0  0  0  0  0  0  0  0  0  0
  -47.3727   57.9421   57.9180 C   0  0  0  0  0  0  0  0  0  0  0  0
  -38.6225   61.5189   63.1580 C   0  0  0  0  0  0  0  0  0  0  0  0
  -37.4190   62.0626   62.5712 O   0  0  0  0  0  0  0  0  0  0  0  0
  -36.4649   63.0898   63.3435 P   0  0  0  0  0  0  0  0  0  0  0  0
  -35.0934   62.5365   63.3341 O   0  0  0  0  0  0  0  0  0  0  0  0
  -36.6910   64.4426   62.7802 O   0  0  0  0  0  0  0  0  0  0  0  0
  -36.3835   64.4655   61.8605 H   0  0  0  0  0  0  0  0  0  0  0  0
  -36.9821   63.0944   64.8519 O   0  0  0  0  0  0  0  0  0  0  0  0
  -36.2725   62.3463   65.8602 C   0  0  0  0  0  0  0  0  0  0  0  0
  -35.9591   63.0454   68.1308 O   0  0  0  0  0  0  0  0  0  0  0  0
  -35.5814   63.3235   66.7792 C   0  0  0  0  0  0  0  0  0  0  0  0
  -36.9254   63.0757   68.2092 H   0  0  0  0  0  0  0  0  0  0  0  0
  -33.4504   63.4768   67.8990 O   0  0  0  0  0  0  0  0  0  0  0  0
  -34.0786   63.2805   66.6387 C   0  0  0  0  0  0  0  0  0  0  0  0
  -32.4873   63.4459   67.7886 H   0  0  0  0  0  0  0  0  0  0  0  0
  -38.4169   60.3880   60.9825 O   0  0  0  0  0  0  0  0  0  0  0  0
  -39.0049   59.6473   58.9415 O   0  0  0  0  0  0  0  0  0  0  0  0
  -38.7946   59.4385   60.1051 C   0  0  0  0  0  0  0  0  0  0  0  0
  -38.9024   58.0911   60.7491 C   0  0  0  0  0  0  0  0  0  0  0  0
  -40.1844   57.3751   60.3360 C   0  0  0  0  0  0  0  0  0  0  0  0
  -41.2923   57.4467   61.3739 C   0  0  0  0  0  0  0  0  0  0  0  0
  -40.8626   56.9740   62.7581 C   0  0  0  0  0  0  0  0  0  0  0  0
  -41.2907   57.8954   63.8851 C   0  0  0  0  0  0  0  0  0  0  0  0
  -40.1617   58.3082   64.8338 C   0  0  0  0  0  0  0  0  0  0  0  0
  -38.7527   57.9264   64.3749 C   0  0  0  0  0  0  0  0  0  0  0  0
  -37.6909   58.5824   65.2056 C   0  0  0  0  0  0  0  0  0  0  0  0
  -36.5017   58.9777   64.7945 C   0  0  0  0  0  0  0  0  0  0  0  0
  -35.9622   58.8543   63.4045 C   0  0  0  0  0  0  0  0  0  0  0  0
  -35.0978   57.6100   63.2236 C   0  0  0  0  0  0  0  0  0  0  0  0
  -33.7214   57.9019   62.6522 C   0  0  0  0  0  0  0  0  0  0  0  0
  -33.0120   59.0604   63.3319 C   0  0  0  0  0  0  0  0  0  0  0  0
  -32.2898   60.0011   62.3817 C   0  0  0  0  0  0  0  0  0  0  0  0
  -30.7776   59.9830   62.5446 C   0  0  0  0  0  0  0  0  0  0  0  0
  -30.0640   61.1298   61.8566 C   0  0  0  0  0  0  0  0  0  0  0  0
  -30.9972   62.0073   61.0700 C   0  0  0  0  0  0  0  0  0  0  0  0
 21 22  1  0  0  0
  4  5  2  0  0  0
 25 24  1  0  0  0
 25 26  2  0  0  0
 25 27  1  0  0  0
 25 29  1  0  0  0
 22 20  1  0  0  0
  3  5  1  0  0  0
  3  2  1  0  0  0
 20 19  1  0  0  0
 24 23  1  0  0  0
 19 18  1  0  0  0
 18 17  1  0  0  0
 27 28  1  0  0  0
 17 16  1  0  0  0
 29 30  1  0  0  0
 16 15  1  0  0  0
 34 35  1  0  0  0
 34 36  1  0  0  0
 15 14  1  0  0  0
 31 32  1  0  0  0
 31 33  1  0  0  0
 14 13  1  0  0  0
 37  1  1  0  0  0
 37 39  1  0  0  0
 13 12  1  0  0  0
 38 39  2  0  0  0
 12 11  1  0  0  0
 11 10  1  0  0  0
 10  9  1  0  0  0
  9  8  1  0  0  0
  8  7  1  0  0  0
  7  6  1  0  0  0
  6  5  1  0  0  0
  2  1  1  0  0  0
  1 23  1  0  0  0
 30 32  1  0  0  0
 32 35  1  0  0  0
 39 40  1  0  0  0
 40 41  1  0  0  0
 41 42  1  0  0  0
 42 43  1  0  0  0
 43 44  1  0  0  0
 44 45  1  0  0  0
 45 46  1  0  0  0
 46 47  1  0  0  0
 47 48  2  0  0  0
 48 49  1  0  0  0
 49 50  1  0  0  0
 50 51  1  0  0  0
 51 52  1  0  0  0
 52 53  1  0  0  0
 53 54  1  0  0  0
 54 55  1  0  0  0
 55 56  1  0  0  0
M  CHG 1  26  -1
M  END
> <minimizedAffinity>
-8.75579

> <CNNscore>
0.4726405144

> <CNNaffinity>
7.2768769264

> <CNN_VS>
3.4393467903

> <CNNaffinity_variance>
1.0937755108

$$$$
/media/chris/experiments/cd1a-new-docking/inputs/ligands/7sh4_ligand.pdb


 56 55  0  0  0  0  0  0  0  0999 V2000
  -40.1230   59.8768   63.6599 C   0  0  0  0  0  0  0  0  0  0  0  0
  -41.4503   60.5145   63.9590 C   0  0  0  0  0  0  0  0  0  0  0  0
  -41.7600   60.0660   65.2954 O   0  0  0  0  0  0  0  0  0  0  0  0
  -42.4348   61.8835   66.4091 O   0  0  0  0  0  0  0  0  0  0  0  0
  -42.6514   60.7817   65.9814 C   0  0  0  0  0  0  0  0  0  0  0  0
  -43.9809   60.0857   66.0346 C   0  0  0  0  0  0  0  0  0  0  0  0
  -43.9129   58.5953   65.7471 C   0  0  0  0  0  0  0  0  0  0  0  0
  -45.0125   57.8146   66.4358 C   0  0  0  0  0  0  0  0  0  0  0  0
  -46.2257   58.6411   66.7971 C   0  0  0  0  0  0  0  0  0  0  0  0
  -47.3546   58.5076   65.7951 C   0  0  0  0  0  0  0  0  0  0  0  0
  -48.0075   59.8254   65.4567 C   0  0  0  0  0  0  0  0  0  0  0  0
  -49.3044   60.0450   66.1897 C   0  0  0  0  0  0  0  0  0  0  0  0
  -50.5214   59.6265   65.3948 C   0  0  0  0  0  0  0  0  0  0  0  0
  -50.8641   60.6055   64.2901 C   0  0  0  0  0  0  0  0  0  0  0  0
  -51.0698   59.9612   62.9352 C   0  0  0  0  0  0  0  0  0  0  0  0
  -50.9882   58.4390   62.9581 C   0  0  0  0  0  0  0  0  0  0  0  0
  -49.7987   57.8743   62.2056 C   0  0  0  0  0  0  0  0  0  0  0  0
  -50.0841   57.6074   60.7418 C   0  0  0  0  0  0  0  0  0  0  0  0
  -48.8347   57.3326   59.9167 C   0  0  0  0  0  0  0  0  0  0  0  0
  -48.8756   57.9471   58.5288 C   0  0  0  0  0  0  0  0  0  0  0  0
  -47.0879   57.9665   56.7570 C   0  0  0  0  0  0  0  0  0  0  0  0
  -47.5658   58.5553   58.0650 C   0  0  0  0  0  0  0  0  0  0  0  0
  -39.1632   60.8433   63.0147 C   0  0  0  0  0  0  0  0  0  0  0  0
  -38.7600   61.8239   63.9967 O   0  0  0  0  0  0  0  0  0  0  0  0
  -37.4180   61.6875   64.8583 P   0  0  0  0  0  0  0  0  0  0  0  0
  -37.6615   60.6998   65.9317 O   0  0  0  0  0  0  0  0  0  0  0  0
  -36.2902   61.4596   63.9231 O   0  0  0  0  0  0  0  0  0  0  0  0
  -36.3956   60.5961   63.4938 H   0  0  0  0  0  0  0  0  0  0  0  0
  -37.2078   63.1130   65.5412 O   0  0  0  0  0  0  0  0  0  0  0  0
  -35.9332   63.7803   65.4406 C   0  0  0  0  0  0  0  0  0  0  0  0
  -35.8075   63.1007   67.7351 O   0  0  0  0  0  0  0  0  0  0  0  0
  -35.4844   64.1607   66.8301 C   0  0  0  0  0  0  0  0  0  0  0  0
  -36.7578   62.9121   67.6862 H   0  0  0  0  0  0  0  0  0  0  0  0
  -33.3072   63.4311   67.5692 O   0  0  0  0  0  0  0  0  0  0  0  0
  -34.0074   64.4677   66.8933 C   0  0  0  0  0  0  0  0  0  0  0  0
  -32.3619   63.6459   67.5996 H   0  0  0  0  0  0  0  0  0  0  0  0
  -40.3559   58.7003   62.8164 O   0  0  0  0  0  0  0  0  0  0  0  0
  -42.5680   58.4379   62.5041 O   0  0  0  0  0  0  0  0  0  0  0  0
  -41.4780   58.6954   62.0715 C   0  0  0  0  0  0  0  0  0  0  0  0
  -41.2064   59.0671   60.6466 C   0  0  0  0  0  0  0  0  0  0  0  0
  -40.3901   57.9931   59.9347 C   0  0  0  0  0  0  0  0  0  0  0  0
  -39.2957   58.5452   59.0362 C   0  0  0  0  0  0  0  0  0  0  0  0
  -37.9559   58.7181   59.7427 C   0  0  0  0  0  0  0  0  0  0  0  0
  -37.8272   57.9181   61.0256 C   0  0  0  0  0  0  0  0  0  0  0  0
  -36.8257   58.4885   62.0339 C   0  0  0  0  0  0  0  0  0  0  0  0
  -36.4652   57.5564   63.1927 C   0  0  0  0  0  0  0  0  0  0  0  0
  -35.5175   58.1990   64.1607 C   0  0  0  0  0  0  0  0  0  0  0  0
  -34.2118   58.3207   64.0210 C   0  0  0  0  0  0  0  0  0  0  0  0
  -33.3998   57.8412   62.8595 C   0  0  0  0  0  0  0  0  0  0  0  0
  -32.7625   58.9886   62.0811 C   0  0  0  0  0  0  0  0  0  0  0  0
  -31.9600   59.9420   62.9489 C   0  0  0  0  0  0  0  0  0  0  0  0
  -30.5809   60.2567   62.3951 C   0  0  0  0  0  0  0  0  0  0  0  0
  -30.3005   61.7385   62.2081 C   0  0  0  0  0  0  0  0  0  0  0  0
  -31.3522   62.4532   61.3735 C   0  0  0  0  0  0  0  0  0  0  0  0
  -32.0647   63.5768   62.0999 C   0  0  0  0  0  0  0  0  0  0  0  0
  -33.2198   64.1352   61.3166 C   0  0  0  0  0  0  0  0  0  0  0  0
 21 22  1  0  0  0
  4  5  2  0  0  0
 25 24  1  0  0  0
 25 26  2  0  0  0
 25 27  1  0  0  0
 25 29  1  0  0  0
 22 20  1  0  0  0
  3  5  1  0  0  0
  3  2  1  0  0  0
 20 19  1  0  0  0
 24 23  1  0  0  0
 19 18  1  0  0  0
 18 17  1  0  0  0
 27 28  1  0  0  0
 17 16  1  0  0  0
 29 30  1  0  0  0
 16 15  1  0  0  0
 34 35  1  0  0  0
 34 36  1  0  0  0
 15 14  1  0  0  0
 31 32  1  0  0  0
 31 33  1  0  0  0
 14 13  1  0  0  0
 37  1  1  0  0  0
 37 39  1  0  0  0
 13 12  1  0  0  0
 38 39  2  0  0  0
 12 11  1  0  0  0
 11 10  1  0  0  0
 10  9  1  0  0  0
  9  8  1  0  0  0
  8  7  1  0  0  0
  7  6  1  0  0  0
  6  5  1  0  0  0
  2  1  1  0  0  0
  1 23  1  0  0  0
 30 32  1  0  0  0
 32 35  1  0  0  0
 39 40  1  0  0  0
 40 41  1  0  0  0
 41 42  1  0  0  0
 42 43  1  0  0  0
 43 44  1  0  0  0
 44 45  1  0  0  0
 45 46  1  0  0  0
 46 47  1  0  0  0
 47 48  2  0  0  0
 48 49  1  0  0  0
 49 50  1  0  0  0
 50 51  1  0  0  0
 51 52  1  0  0  0
 52 53  1  0  0  0
 53 54  1  0  0  0
 54 55  1  0  0  0
 55 56  1  0  0  0
M  CHG 1  26  -1
M  END
> <minimizedAffinity>
-8.54352

> <CNNscore>
0.4584431648

> <CNNaffinity>
7.2615613937

> <CNN_VS>
3.3290131092

> <CNNaffinity_variance>
0.6190003157

$$$$
/media/chris/experiments/cd1a-new-docking/inputs/ligands/7sh4_ligand.pdb


 56 55  0  0  0  0  0  0  0  0999 V2000
  -39.9692   60.3864   64.9222 C   0  0  0  0  0  0  0  0  0  0  0  0
  -40.3931   60.4029   63.4808 C   0  0  0  0  0  0  0  0  0  0  0  0
  -41.2112   61.5869   63.3709 O   0  0  0  0  0  0  0  0  0  0  0  0
  -42.3537   61.9291   61.4797 O   0  0  0  0  0  0  0  0  0  0  0  0
  -42.2966   61.5019   62.6013 C   0  0  0  0  0  0  0  0  0  0  0  0
  -43.3756   60.7007   63.2713 C   0  0  0  0  0  0  0  0  0  0  0  0
  -44.2620   61.5104   64.2026 C   0  0  0  0  0  0  0  0  0  0  0  0
  -45.2150   60.6473   65.0022 C   0  0  0  0  0  0  0  0  0  0  0  0
  -46.5798   60.4844   64.3725 C   0  0  0  0  0  0  0  0  0  0  0  0
  -47.1131   59.0694   64.4696 C   0  0  0  0  0  0  0  0  0  0  0  0
  -47.8649   58.8045   65.7511 C   0  0  0  0  0  0  0  0  0  0  0  0
  -49.1010   59.6524   65.8942 C   0  0  0  0  0  0  0  0  0  0  0  0
  -50.2992   59.0959   65.1575 C   0  0  0  0  0  0  0  0  0  0  0  0
  -50.9985   60.1368   64.3066 C   0  0  0  0  0  0  0  0  0  0  0  0
  -51.0087   59.8193   62.8260 C   0  0  0  0  0  0  0  0  0  0  0  0
  -50.3829   58.4728   62.4803 C   0  0  0  0  0  0  0  0  0  0  0  0
  -49.2694   58.5562   61.4540 C   0  0  0  0  0  0  0  0  0  0  0  0
  -49.7612   58.8749   60.0569 C   0  0  0  0  0  0  0  0  0  0  0  0
  -49.2221   57.9320   58.9902 C   0  0  0  0  0  0  0  0  0  0  0  0
  -47.8779   58.3573   58.4264 C   0  0  0  0  0  0  0  0  0  0  0  0
  -47.2801   56.2072   57.2622 C   0  0  0  0  0  0  0  0  0  0  0  0
  -47.5017   57.6954   57.1145 C   0  0  0  0  0  0  0  0  0  0  0  0
  -38.4712   60.4570   65.0727 C   0  0  0  0  0  0  0  0  0  0  0  0
  -38.0425   61.8150   64.8267 O   0  0  0  0  0  0  0  0  0  0  0  0
  -36.8745   62.1827   63.7959 P   0  0  0  0  0  0  0  0  0  0  0  0
  -35.7094   61.3238   64.0988 O   0  0  0  0  0  0  0  0  0  0  0  0
  -37.4422   62.1559   62.4264 O   0  0  0  0  0  0  0  0  0  0  0  0
  -37.6943   61.2473   62.1985 H   0  0  0  0  0  0  0  0  0  0  0  0
  -36.4742   63.6894   64.1310 O   0  0  0  0  0  0  0  0  0  0  0  0
  -35.1752   63.9849   64.6834 C   0  0  0  0  0  0  0  0  0  0  0  0
  -36.7098   64.2523   66.5044 O   0  0  0  0  0  0  0  0  0  0  0  0
  -35.3207   64.1566   66.1755 C   0  0  0  0  0  0  0  0  0  0  0  0
  -37.1117   64.9784   66.0023 H   0  0  0  0  0  0  0  0  0  0  0  0
  -33.5460   63.4979   67.6705 O   0  0  0  0  0  0  0  0  0  0  0  0
  -34.6784   63.0302   66.9491 C   0  0  0  0  0  0  0  0  0  0  0  0
  -33.1477   62.7615   68.1602 H   0  0  0  0  0  0  0  0  0  0  0  0
  -40.5206   59.1823   65.5516 O   0  0  0  0  0  0  0  0  0  0  0  0
  -42.0967   60.3463   66.6567 O   0  0  0  0  0  0  0  0  0  0  0  0
  -41.6976   59.3131   66.1930 C   0  0  0  0  0  0  0  0  0  0  0  0
  -42.4556   58.0226   66.2420 C   0  0  0  0  0  0  0  0  0  0  0  0
  -42.9851   57.6329   64.8655 C   0  0  0  0  0  0  0  0  0  0  0  0
  -42.3958   56.3419   64.3214 C   0  0  0  0  0  0  0  0  0  0  0  0
  -41.2567   56.5610   63.3321 C   0  0  0  0  0  0  0  0  0  0  0  0
  -41.6476   57.3724   62.1110 C   0  0  0  0  0  0  0  0  0  0  0  0
  -41.4183   56.6617   60.7741 C   0  0  0  0  0  0  0  0  0  0  0  0
  -41.2373   57.5855   59.5677 C   0  0  0  0  0  0  0  0  0  0  0  0
  -40.8593   58.9782   59.9744 C   0  0  0  0  0  0  0  0  0  0  0  0
  -39.6555   59.5144   59.9221 C   0  0  0  0  0  0  0  0  0  0  0  0
  -38.4092   58.8405   59.4416 C   0  0  0  0  0  0  0  0  0  0  0  0
  -37.4014   58.6110   60.5641 C   0  0  0  0  0  0  0  0  0  0  0  0
  -38.0177   58.0406   61.8293 C   0  0  0  0  0  0  0  0  0  0  0  0
  -37.0191   57.8356   62.9554 C   0  0  0  0  0  0  0  0  0  0  0  0
  -35.5634   57.9527   62.5352 C   0  0  0  0  0  0  0  0  0  0  0  0
  -34.5925   57.9428   63.7060 C   0  0  0  0  0  0  0  0  0  0  0  0
  -33.1605   58.2670   63.3294 C   0  0  0  0  0  0  0  0  0  0  0  0
  -33.0374   59.5571   62.5676 C   0  0  0  0  0  0  0  0  0  0  0  0
 21 22  1  0  0  0
  4  5  2  0  0  0
 25 24  1  0  0  0
 25 26  2  0  0  0
 25 27  1  0  0  0
 25 29  1  0  0  0
 22 20  1  0  0  0
  3  5  1  0  0  0
  3  2  1  0  0  0
 20 19  1  0  0  0
 24 23  1  0  0  0
 19 18  1  0  0  0
 18 17  1  0  0  0
 27 28  1  0  0  0
 17 16  1  0  0  0
 29 30  1  0  0  0
 16 15  1  0  0  0
 34 35  1  0  0  0
 34 36  1  0  0  0
 15 14  1  0  0  0
 31 32  1  0  0  0
 31 33  1  0  0  0
 14 13  1  0  0  0
 37  1  1  0  0  0
 37 39  1  0  0  0
 13 12  1  0  0  0
 38 39  2  0  0  0
 12 11  1  0  0  0
 11 10  1  0  0  0
 10  9  1  0  0  0
  9  8  1  0  0  0
  8  7  1  0  0  0
  7  6  1  0  0  0
  6  5  1  0  0  0
  2  1  1  0  0  0
  1 23  1  0  0  0
 30 32  1  0  0  0
 32 35  1  0  0  0
 39 40  1  0  0  0
 40 41  1  0  0  0
 41 42  1  0  0  0
 42 43  1  0  0  0
 43 44  1  0  0  0
 44 45  1  0  0  0
 45 46  1  0  0  0
 46 47  1  0  0  0
 47 48  2  0  0  0
 48 49  1  0  0  0
 49 50  1  0  0  0
 50 51  1  0  0  0
 51 52  1  0  0  0
 52 53  1  0  0  0
 53 54  1  0  0  0
 54 55  1  0  0  0
 55 56  1  0  0  0
M  CHG 1  26  -1
M  END
> <minimizedAffinity>
-8.86886

> <CNNscore>
0.4363673627

> <CNNaffinity>
7.5669555664

> <CNN_VS>
3.3019723892

> <CNNaffinity_variance>
1.9043693542

$$$$
/media/chris/experiments/cd1a-new-docking/inputs/ligands/7sh4_ligand.pdb


 56 55  0  0  0  0  0  0  0  0999 V2000
  -39.7076   59.1097   65.0932 C   0  0  0  0  0  0  0  0  0  0  0  0
  -41.0993   59.4493   65.5464 C   0  0  0  0  0  0  0  0  0  0  0  0
  -41.4709   60.5734   64.7208 O   0  0  0  0  0  0  0  0  0  0  0  0
  -42.5073   61.8060   66.2718 O   0  0  0  0  0  0  0  0  0  0  0  0
  -42.4639   61.3455   65.1628 C   0  0  0  0  0  0  0  0  0  0  0  0
  -43.4381   61.6587   64.0639 C   0  0  0  0  0  0  0  0  0  0  0  0
  -44.8280   61.0862   64.2852 C   0  0  0  0  0  0  0  0  0  0  0  0
  -44.8082   59.6067   64.6069 C   0  0  0  0  0  0  0  0  0  0  0  0
  -46.1547   59.0392   64.9949 C   0  0  0  0  0  0  0  0  0  0  0  0
  -47.3017   59.6430   64.2100 C   0  0  0  0  0  0  0  0  0  0  0  0
  -48.2676   60.4191   65.0715 C   0  0  0  0  0  0  0  0  0  0  0  0
  -49.1708   59.5330   65.8879 C   0  0  0  0  0  0  0  0  0  0  0  0
  -50.6365   59.6984   65.5529 C   0  0  0  0  0  0  0  0  0  0  0  0
  -50.8596   60.4583   64.2609 C   0  0  0  0  0  0  0  0  0  0  0  0
  -51.4209   59.6137   63.1363 C   0  0  0  0  0  0  0  0  0  0  0  0
  -50.3666   59.1176   62.1531 C   0  0  0  0  0  0  0  0  0  0  0  0
  -50.8048   57.9200   61.3322 C   0  0  0  0  0  0  0  0  0  0  0  0
  -50.4694   58.0443   59.8600 C   0  0  0  0  0  0  0  0  0  0  0  0
  -49.0946   58.6421   59.5956 C   0  0  0  0  0  0  0  0  0  0  0  0
  -47.9792   57.6123   59.5676 C   0  0  0  0  0  0  0  0  0  0  0  0
  -47.0679   58.2246   57.3026 C   0  0  0  0  0  0  0  0  0  0  0  0
  -47.6052   57.1190   58.1828 C   0  0  0  0  0  0  0  0  0  0  0  0
  -39.1318   60.1699   64.1898 C   0  0  0  0  0  0  0  0  0  0  0  0
  -37.9268   60.6912   64.7936 O   0  0  0  0  0  0  0  0  0  0  0  0
  -37.0185   61.8075   64.0931 P   0  0  0  0  0  0  0  0  0  0  0  0
  -36.7479   61.3731   62.7056 O   0  0  0  0  0  0  0  0  0  0  0  0
  -37.6566   63.1275   64.3145 O   0  0  0  0  0  0  0  0  0  0  0  0
  -38.5007   63.1626   63.8378 H   0  0  0  0  0  0  0  0  0  0  0  0
  -35.6380   61.7906   64.8909 O   0  0  0  0  0  0  0  0  0  0  0  0
  -35.5746   62.3119   66.2341 C   0  0  0  0  0  0  0  0  0  0  0  0
  -36.4893   64.4533   66.8001 O   0  0  0  0  0  0  0  0  0  0  0  0
  -35.3874   63.8071   66.1557 C   0  0  0  0  0  0  0  0  0  0  0  0
  -37.3195   64.1574   66.3950 H   0  0  0  0  0  0  0  0  0  0  0  0
  -33.5028   63.2075   67.5369 O   0  0  0  0  0  0  0  0  0  0  0  0
  -34.0854   64.2567   66.7744 C   0  0  0  0  0  0  0  0  0  0  0  0
  -32.6690   63.5148   67.9255 H   0  0  0  0  0  0  0  0  0  0  0  0
  -39.7430   57.7992   64.4364 O   0  0  0  0  0  0  0  0  0  0  0  0
  -41.7598   56.8271   64.6547 O   0  0  0  0  0  0  0  0  0  0  0  0
  -40.9370   57.3789   63.9763 C   0  0  0  0  0  0  0  0  0  0  0  0
  -41.1225   57.6983   62.5252 C   0  0  0  0  0  0  0  0  0  0  0  0
  -39.9708   57.1595   61.6826 C   0  0  0  0  0  0  0  0  0  0  0  0
  -39.2600   58.2213   60.8595 C   0  0  0  0  0  0  0  0  0  0  0  0
  -37.7711   58.3353   61.1662 C   0  0  0  0  0  0  0  0  0  0  0  0
  -37.2754   57.3383   62.1970 C   0  0  0  0  0  0  0  0  0  0  0  0
  -36.2641   57.9060   63.1971 C   0  0  0  0  0  0  0  0  0  0  0  0
  -34.9216   58.3292   62.5969 C   0  0  0  0  0  0  0  0  0  0  0  0
  -33.8812   58.5653   63.6504 C   0  0  0  0  0  0  0  0  0  0  0  0
  -32.7573   59.2408   63.5097 C   0  0  0  0  0  0  0  0  0  0  0  0
  -32.2845   59.9176   62.2620 C   0  0  0  0  0  0  0  0  0  0  0  0
  -31.6390   61.2714   62.5427 C   0  0  0  0  0  0  0  0  0  0  0  0
  -32.6002   62.2979   63.1158 C   0  0  0  0  0  0  0  0  0  0  0  0
  -33.2659   63.1655   62.0614 C   0  0  0  0  0  0  0  0  0  0  0  0
  -34.1902   64.2354   62.6183 C   0  0  0  0  0  0  0  0  0  0  0  0
  -35.3146   64.6187   61.6683 C   0  0  0  0  0  0  0  0  0  0  0  0
  -36.2483   65.6842   62.2072 C   0  0  0  0  0  0  0  0  0  0  0  0
  -36.4735   66.8068   61.2332 C   0  0  0  0  0  0  0  0  0  0  0  0
 21 22  1  0  0  0
  4  5  2  0  0  0
 25 24  1  0  0  0
 25 26  2  0  0  0
 25 27  1  0  0  0
 25 29  1  0  0  0
 22 20  1  0  0  0
  3  5  1  0  0  0
  3  2  1  0  0  0
 20 19  1  0  0  0
 24 23  1  0  0  0
 19 18  1  0  0  0
 18 17  1  0  0  0
 27 28  1  0  0  0
 17 16  1  0  0  0
 29 30  1  0  0  0
 16 15  1  0  0  0
 34 35  1  0  0  0
 34 36  1  0  0  0
 15 14  1  0  0  0
 31 32  1  0  0  0
 31 33  1  0  0  0
 14 13  1  0  0  0
 37  1  1  0  0  0
 37 39  1  0  0  0
 13 12  1  0  0  0
 38 39  2  0  0  0
 12 11  1  0  0  0
 11 10  1  0  0  0
 10  9  1  0  0  0
  9  8  1  0  0  0
  8  7  1  0  0  0
  7  6  1  0  0  0
  6  5  1  0  0  0
  2  1  1  0  0  0
  1 23  1  0  0  0
 30 32  1  0  0  0
 32 35  1  0  0  0
 39 40  1  0  0  0
 40 41  1  0  0  0
 41 42  1  0  0  0
 42 43  1  0  0  0
 43 44  1  0  0  0
 44 45  1  0  0  0
 45 46  1  0  0  0
 46 47  1  0  0  0
 47 48  2  0  0  0
 48 49  1  0  0  0
 49 50  1  0  0  0
 50 51  1  0  0  0
 51 52  1  0  0  0
 52 53  1  0  0  0
 53 54  1  0  0  0
 54 55  1  0  0  0
 55 56  1  0  0  0
M  CHG 1  26  -1
M  END
> <minimizedAffinity>
-8.36259

> <CNNscore>
0.4232203662

> <CNNaffinity>
7.2167267799

> <CNN_VS>
3.0542657375

> <CNNaffinity_variance>
0.9246156812

$$$$
/media/chris/experiments/cd1a-new-docking/inputs/ligands/7sh4_ligand.pdb


 56 55  0  0  0  0  0  0  0  0999 V2000
  -41.3839   57.3102   63.9298 C   0  0  0  0  0  0  0  0  0  0  0  0
  -42.8568   57.5914   63.8338 C   0  0  0  0  0  0  0  0  0  0  0  0
  -43.4032   57.0042   65.0337 O   0  0  0  0  0  0  0  0  0  0  0  0
  -45.4692   57.0975   65.8835 O   0  0  0  0  0  0  0  0  0  0  0  0
  -44.4325   57.6346   65.6001 C   0  0  0  0  0  0  0  0  0  0  0  0
  -44.0773   59.0523   65.9451 C   0  0  0  0  0  0  0  0  0  0  0  0
  -45.2548   60.0120   65.9142 C   0  0  0  0  0  0  0  0  0  0  0  0
  -45.7187   60.3256   64.5074 C   0  0  0  0  0  0  0  0  0  0  0  0
  -47.2202   60.4165   64.3563 C   0  0  0  0  0  0  0  0  0  0  0  0
  -47.9603   59.3419   65.1267 C   0  0  0  0  0  0  0  0  0  0  0  0
  -49.1000   59.8829   65.9549 C   0  0  0  0  0  0  0  0  0  0  0  0
  -50.4508   59.4426   65.4559 C   0  0  0  0  0  0  0  0  0  0  0  0
  -51.0880   60.4272   64.5006 C   0  0  0  0  0  0  0  0  0  0  0  0
  -51.4374   59.8037   63.1643 C   0  0  0  0  0  0  0  0  0  0  0  0
  -50.7074   58.5084   62.8770 C   0  0  0  0  0  0  0  0  0  0  0  0
  -51.0975   57.8622   61.5524 C   0  0  0  0  0  0  0  0  0  0  0  0
  -50.1348   58.1539   60.4174 C   0  0  0  0  0  0  0  0  0  0  0  0
  -49.3171   56.9497   59.9972 C   0  0  0  0  0  0  0  0  0  0  0  0
  -47.9080   57.2987   59.5389 C   0  0  0  0  0  0  0  0  0  0  0  0
  -47.8712   58.2766   58.3781 C   0  0  0  0  0  0  0  0  0  0  0  0
  -47.1200   56.2055   57.1608 C   0  0  0  0  0  0  0  0  0  0  0  0
  -47.5188   57.6587   57.0384 C   0  0  0  0  0  0  0  0  0  0  0  0
  -40.6800   58.2831   64.8408 C   0  0  0  0  0  0  0  0  0  0  0  0
  -39.8716   59.1714   64.0372 O   0  0  0  0  0  0  0  0  0  0  0  0
  -40.2047   60.7270   63.8619 P   0  0  0  0  0  0  0  0  0  0  0  0
  -40.1482   61.0477   62.4193 O   0  0  0  0  0  0  0  0  0  0  0  0
  -41.4525   61.0188   64.6080 O   0  0  0  0  0  0  0  0  0  0  0  0
  -42.1958   60.5592   64.1871 H   0  0  0  0  0  0  0  0  0  0  0  0
  -39.0105   61.4988   64.5835 O   0  0  0  0  0  0  0  0  0  0  0  0
  -37.6773   60.9492   64.5591 C   0  0  0  0  0  0  0  0  0  0  0  0
  -37.2796   61.9836   62.4344 O   0  0  0  0  0  0  0  0  0  0  0  0
  -36.7910   61.8859   63.7755 C   0  0  0  0  0  0  0  0  0  0  0  0
  -37.3284   61.0976   62.0426 H   0  0  0  0  0  0  0  0  0  0  0  0
  -37.1599   63.2227   65.7492 O   0  0  0  0  0  0  0  0  0  0  0  0
  -36.7085   63.2575   64.4013 C   0  0  0  0  0  0  0  0  0  0  0  0
  -37.0995   64.1112   66.1335 H   0  0  0  0  0  0  0  0  0  0  0  0
  -40.8208   57.3314   62.5761 O   0  0  0  0  0  0  0  0  0  0  0  0
  -40.9845   55.1113   62.2532 O   0  0  0  0  0  0  0  0  0  0  0  0
  -41.0048   56.2314   61.8211 C   0  0  0  0  0  0  0  0  0  0  0  0
  -41.2555   56.5728   60.3849 C   0  0  0  0  0  0  0  0  0  0  0  0
  -41.7614   58.0035   60.2306 C   0  0  0  0  0  0  0  0  0  0  0  0
  -40.7264   58.9664   59.6723 C   0  0  0  0  0  0  0  0  0  0  0  0
  -39.5329   58.2717   59.0266 C   0  0  0  0  0  0  0  0  0  0  0  0
  -38.1893   58.8446   59.4374 C   0  0  0  0  0  0  0  0  0  0  0  0
  -37.9384   58.8596   60.9480 C   0  0  0  0  0  0  0  0  0  0  0  0
  -37.6012   57.5009   61.5660 C   0  0  0  0  0  0  0  0  0  0  0  0
  -37.1233   57.6272   62.9815 C   0  0  0  0  0  0  0  0  0  0  0  0
  -35.9302   58.0266   63.3770 C   0  0  0  0  0  0  0  0  0  0  0  0
  -34.7990   58.4408   62.4898 C   0  0  0  0  0  0  0  0  0  0  0  0
  -33.5307   57.6323   62.7473 C   0  0  0  0  0  0  0  0  0  0  0  0
  -32.4381   58.4196   63.4490 C   0  0  0  0  0  0  0  0  0  0  0  0
  -32.5233   59.9188   63.2197 C   0  0  0  0  0  0  0  0  0  0  0  0
  -31.7246   60.4200   62.0280 C   0  0  0  0  0  0  0  0  0  0  0  0
  -31.8667   61.9155   61.7895 C   0  0  0  0  0  0  0  0  0  0  0  0
  -32.8337   62.6064   62.7304 C   0  0  0  0  0  0  0  0  0  0  0  0
  -32.2995   63.9076   63.2608 C   0  0  0  0  0  0  0  0  0  0  0  0
 21 22  1  0  0  0
  4  5  2  0  0  0
 25 24  1  0  0  0
 25 26  2  0  0  0
 25 27  1  0  0  0
 25 29  1  0  0  0
 22 20  1  0  0  0
  3  5  1  0  0  0
  3  2  1  0  0  0
 20 19  1  0  0  0
 24 23  1  0  0  0
 19 18  1  0  0  0
 18 17  1  0  0  0
 27 28  1  0  0  0
 17 16  1  0  0  0
 29 30  1  0  0  0
 16 15  1  0  0  0
 34 35  1  0  0  0
 34 36  1  0  0  0
 15 14  1  0  0  0
 31 32  1  0  0  0
 31 33  1  0  0  0
 14 13  1  0  0  0
 37  1  1  0  0  0
 37 39  1  0  0  0
 13 12  1  0  0  0
 38 39  2  0  0  0
 12 11  1  0  0  0
 11 10  1  0  0  0
 10  9  1  0  0  0
  9  8  1  0  0  0
  8  7  1  0  0  0
  7  6  1  0  0  0
  6  5  1  0  0  0
  2  1  1  0  0  0
  1 23  1  0  0  0
 30 32  1  0  0  0
 32 35  1  0  0  0
 39 40  1  0  0  0
 40 41  1  0  0  0
 41 42  1  0  0  0
 42 43  1  0  0  0
 43 44  1  0  0  0
 44 45  1  0  0  0
 45 46  1  0  0  0
 46 47  1  0  0  0
 47 48  2  0  0  0
 48 49  1  0  0  0
 49 50  1  0  0  0
 50 51  1  0  0  0
 51 52  1  0  0  0
 52 53  1  0  0  0
 53 54  1  0  0  0
 54 55  1  0  0  0
 55 56  1  0  0  0
M  CHG 1  26  -1
M  END
> <minimizedAffinity>
-8.69875

> <CNNscore>
0.3586072028

> <CNNaffinity>
7.1766471863

> <CNN_VS>
2.5735974312

> <CNNaffinity_variance>
1.4549608231

$$$$
/media/chris/experiments/cd1a-new-docking/inputs/ligands/7sh4_ligand.pdb


 56 55  0  0  0  0  0  0  0  0999 V2000
  -39.2343   60.4428   61.8403 C   0  0  0  0  0  0  0  0  0  0  0  0
  -40.5762   60.8530   61.3030 C   0  0  0  0  0  0  0  0  0  0  0  0
  -41.4536   60.7576   62.4450 O   0  0  0  0  0  0  0  0  0  0  0  0
  -42.9307   62.1594   61.5217 O   0  0  0  0  0  0  0  0  0  0  0  0
  -42.4826   61.6042   62.4885 C   0  0  0  0  0  0  0  0  0  0  0  0
  -43.0743   61.6687   63.8672 C   0  0  0  0  0  0  0  0  0  0  0  0
  -44.5836   61.4972   63.9032 C   0  0  0  0  0  0  0  0  0  0  0  0
  -45.0401   60.5507   64.9934 C   0  0  0  0  0  0  0  0  0  0  0  0
  -45.8357   59.3668   64.4925 C   0  0  0  0  0  0  0  0  0  0  0  0
  -47.0341   59.0461   65.3627 C   0  0  0  0  0  0  0  0  0  0  0  0
  -47.9637   60.2201   65.5496 C   0  0  0  0  0  0  0  0  0  0  0  0
  -49.3059   59.8252   66.1064 C   0  0  0  0  0  0  0  0  0  0  0  0
  -50.1155   58.9610   65.1652 C   0  0  0  0  0  0  0  0  0  0  0  0
  -50.8565   59.7696   64.1195 C   0  0  0  0  0  0  0  0  0  0  0  0
  -50.4454   59.4621   62.6948 C   0  0  0  0  0  0  0  0  0  0  0  0
  -51.0046   58.1475   62.1624 C   0  0  0  0  0  0  0  0  0  0  0  0
  -50.1339   57.4888   61.1099 C   0  0  0  0  0  0  0  0  0  0  0  0
  -50.2262   58.1523   59.7510 C   0  0  0  0  0  0  0  0  0  0  0  0
  -48.8819   58.6111   59.2033 C   0  0  0  0  0  0  0  0  0  0  0  0
  -47.9180   57.4715   58.9253 C   0  0  0  0  0  0  0  0  0  0  0  0
  -46.6686   58.4652   56.9792 C   0  0  0  0  0  0  0  0  0  0  0  0
  -47.5209   57.3167   57.4696 C   0  0  0  0  0  0  0  0  0  0  0  0
  -38.7128   61.4172   62.8652 C   0  0  0  0  0  0  0  0  0  0  0  0
  -37.3000   61.6194   62.6381 O   0  0  0  0  0  0  0  0  0  0  0  0
  -36.4137   62.6176   63.5213 P   0  0  0  0  0  0  0  0  0  0  0  0
  -34.9922   62.2556   63.3337 O   0  0  0  0  0  0  0  0  0  0  0  0
  -36.8413   64.0048   63.2188 O   0  0  0  0  0  0  0  0  0  0  0  0
  -36.6136   64.2205   62.3009 H   0  0  0  0  0  0  0  0  0  0  0  0
  -36.8049   62.3033   65.0348 O   0  0  0  0  0  0  0  0  0  0  0  0
  -35.7975   62.3533   66.0656 C   0  0  0  0  0  0  0  0  0  0  0  0
  -36.2899   64.0071   67.7285 O   0  0  0  0  0  0  0  0  0  0  0  0
  -35.6167   63.7916   66.4846 C   0  0  0  0  0  0  0  0  0  0  0  0
  -37.2228   63.7569   67.6389 H   0  0  0  0  0  0  0  0  0  0  0  0
  -33.4912   63.3226   67.5244 O   0  0  0  0  0  0  0  0  0  0  0  0
  -34.1617   64.1764   66.6061 C   0  0  0  0  0  0  0  0  0  0  0  0
  -32.5596   63.5849   67.5888 H   0  0  0  0  0  0  0  0  0  0  0  0
  -38.3099   60.2976   60.7114 O   0  0  0  0  0  0  0  0  0  0  0  0
  -37.9103   59.0315   58.8956 O   0  0  0  0  0  0  0  0  0  0  0  0
  -38.4181   59.1758   59.9740 C   0  0  0  0  0  0  0  0  0  0  0  0
  -39.2301   58.1257   60.6670 C   0  0  0  0  0  0  0  0  0  0  0  0
  -40.3272   57.5784   59.7595 C   0  0  0  0  0  0  0  0  0  0  0  0
  -41.4800   56.9302   60.5084 C   0  0  0  0  0  0  0  0  0  0  0  0
  -41.4467   57.1783   62.0122 C   0  0  0  0  0  0  0  0  0  0  0  0
  -41.4326   55.9110   62.8464 C   0  0  0  0  0  0  0  0  0  0  0  0
  -42.0911   56.0470   64.2223 C   0  0  0  0  0  0  0  0  0  0  0  0
  -42.8068   57.3760   64.4736 C   0  0  0  0  0  0  0  0  0  0  0  0
  -42.5921   57.8779   65.8700 C   0  0  0  0  0  0  0  0  0  0  0  0
  -41.6958   58.7637   66.2591 C   0  0  0  0  0  0  0  0  0  0  0  0
  -40.7017   59.4573   65.3822 C   0  0  0  0  0  0  0  0  0  0  0  0
  -39.5853   58.5266   64.9180 C   0  0  0  0  0  0  0  0  0  0  0  0
  -38.2077   58.9343   65.4100 C   0  0  0  0  0  0  0  0  0  0  0  0
  -37.1508   57.8592   65.2243 C   0  0  0  0  0  0  0  0  0  0  0  0
  -36.3643   57.9666   63.9284 C   0  0  0  0  0  0  0  0  0  0  0  0
  -34.8715   58.1670   64.1409 C   0  0  0  0  0  0  0  0  0  0  0  0
  -34.1381   58.7088   62.9300 C   0  0  0  0  0  0  0  0  0  0  0  0
  -32.6496   58.7704   63.1312 C   0  0  0  0  0  0  0  0  0  0  0  0
 21 22  1  0  0  0
  4  5  2  0  0  0
 25 24  1  0  0  0
 25 26  2  0  0  0
 25 27  1  0  0  0
 25 29  1  0  0  0
 22 20  1  0  0  0
  3  5  1  0  0  0
  3  2  1  0  0  0
 20 19  1  0  0  0
 24 23  1  0  0  0
 19 18  1  0  0  0
 18 17  1  0  0  0
 27 28  1  0  0  0
 17 16  1  0  0  0
 29 30  1  0  0  0
 16 15  1  0  0  0
 34 35  1  0  0  0
 34 36  1  0  0  0
 15 14  1  0  0  0
 31 32  1  0  0  0
 31 33  1  0  0  0
 14 13  1  0  0  0
 37  1  1  0  0  0
 37 39  1  0  0  0
 13 12  1  0  0  0
 38 39  2  0  0  0
 12 11  1  0  0  0
 11 10  1  0  0  0
 10  9  1  0  0  0
  9  8  1  0  0  0
  8  7  1  0  0  0
  7  6  1  0  0  0
  6  5  1  0  0  0
  2  1  1  0  0  0
  1 23  1  0  0  0
 30 32  1  0  0  0
 32 35  1  0  0  0
 39 40  1  0  0  0
 40 41  1  0  0  0
 41 42  1  0  0  0
 42 43  1  0  0  0
 43 44  1  0  0  0
 44 45  1  0  0  0
 45 46  1  0  0  0
 46 47  1  0  0  0
 47 48  2  0  0  0
 48 49  1  0  0  0
 49 50  1  0  0  0
 50 51  1  0  0  0
 51 52  1  0  0  0
 52 53  1  0  0  0
 53 54  1  0  0  0
 54 55  1  0  0  0
 55 56  1  0  0  0
M  CHG 1  26  -1
M  END
> <minimizedAffinity>
-9.09303

> <CNNscore>
0.3295400441

> <CNNaffinity>
7.4302902222

> <CNN_VS>
2.4485781193

> <CNNaffinity_variance>
1.6070806980

$$$$
/media/chris/experiments/cd1a-new-docking/inputs/ligands/7sh4_ligand.pdb


 56 55  0  0  0  0  0  0  0  0999 V2000
  -42.0468   59.0919   63.4073 C   0  0  0  0  0  0  0  0  0  0  0  0
  -41.3317   58.3820   62.2927 C   0  0  0  0  0  0  0  0  0  0  0  0
  -41.7027   59.1238   61.1115 O   0  0  0  0  0  0  0  0  0  0  0  0
  -40.5841   60.4016   59.6572 O   0  0  0  0  0  0  0  0  0  0  0  0
  -40.7434   59.3485   60.2132 C   0  0  0  0  0  0  0  0  0  0  0  0
  -39.8282   58.1645   60.0890 C   0  0  0  0  0  0  0  0  0  0  0  0
  -38.3850   58.5256   59.7803 C   0  0  0  0  0  0  0  0  0  0  0  0
  -37.5646   58.7796   61.0274 C   0  0  0  0  0  0  0  0  0  0  0  0
  -37.6123   57.6573   62.0392 C   0  0  0  0  0  0  0  0  0  0  0  0
  -36.4532   57.6881   63.0148 C   0  0  0  0  0  0  0  0  0  0  0  0
  -35.2486   58.4254   62.4830 C   0  0  0  0  0  0  0  0  0  0  0  0
  -33.9500   57.7247   62.7829 C   0  0  0  0  0  0  0  0  0  0  0  0
  -32.9350   58.6103   63.4709 C   0  0  0  0  0  0  0  0  0  0  0  0
  -32.5227   59.7966   62.6228 C   0  0  0  0  0  0  0  0  0  0  0  0
  -31.0246   59.9924   62.5207 C   0  0  0  0  0  0  0  0  0  0  0  0
  -30.6034   60.9602   61.4207 C   0  0  0  0  0  0  0  0  0  0  0  0
  -29.6015   62.0061   61.8706 C   0  0  0  0  0  0  0  0  0  0  0  0
  -30.1343   62.9244   62.9513 C   0  0  0  0  0  0  0  0  0  0  0  0
  -31.4283   63.6296   62.5696 C   0  0  0  0  0  0  0  0  0  0  0  0
  -32.5120   63.5258   63.6280 C   0  0  0  0  0  0  0  0  0  0  0  0
  -32.9809   65.0418   65.5819 C   0  0  0  0  0  0  0  0  0  0  0  0
  -33.0823   64.8550   64.0850 C   0  0  0  0  0  0  0  0  0  0  0  0
  -41.4978   60.4759   63.6414 C   0  0  0  0  0  0  0  0  0  0  0  0
  -40.0573   60.4287   63.5366 O   0  0  0  0  0  0  0  0  0  0  0  0
  -39.0982   60.3088   64.8123 P   0  0  0  0  0  0  0  0  0  0  0  0
  -39.6190   61.2098   65.8630 O   0  0  0  0  0  0  0  0  0  0  0  0
  -38.9279   58.8701   65.1281 O   0  0  0  0  0  0  0  0  0  0  0  0
  -39.7754   58.5010   65.4220 H   0  0  0  0  0  0  0  0  0  0  0  0
  -37.6866   60.8760   64.3345 O   0  0  0  0  0  0  0  0  0  0  0  0
  -37.6232   61.8583   63.2804 C   0  0  0  0  0  0  0  0  0  0  0  0
  -36.7673   64.0869   63.0728 O   0  0  0  0  0  0  0  0  0  0  0  0
  -36.4574   62.7762   63.5551 C   0  0  0  0  0  0  0  0  0  0  0  0
  -36.9938   64.0397   62.1308 H   0  0  0  0  0  0  0  0  0  0  0  0
  -37.2168   63.2601   65.7930 O   0  0  0  0  0  0  0  0  0  0  0  0
  -36.1020   62.8310   65.0216 C   0  0  0  0  0  0  0  0  0  0  0  0
  -36.9695   63.2889   66.7304 H   0  0  0  0  0  0  0  0  0  0  0  0
  -41.9588   58.2631   64.6137 O   0  0  0  0  0  0  0  0  0  0  0  0
  -42.5488   56.0995   64.7888 O   0  0  0  0  0  0  0  0  0  0  0  0
  -42.8502   57.2604   64.7320 C   0  0  0  0  0  0  0  0  0  0  0  0
  -44.2575   57.7668   64.8027 C   0  0  0  0  0  0  0  0  0  0  0  0
  -44.7171   57.9407   66.2468 C   0  0  0  0  0  0  0  0  0  0  0  0
  -45.5649   59.1806   66.4787 C   0  0  0  0  0  0  0  0  0  0  0  0
  -46.1175   59.7903   65.1953 C   0  0  0  0  0  0  0  0  0  0  0  0
  -47.6324   59.7810   65.1104 C   0  0  0  0  0  0  0  0  0  0  0  0
  -48.2765   58.4168   65.3732 C   0  0  0  0  0  0  0  0  0  0  0  0
  -49.8067   58.4093   65.3805 C   0  0  0  0  0  0  0  0  0  0  0  0
  -50.3784   59.7954   65.3848 C   0  0  0  0  0  0  0  0  0  0  0  0
  -51.0684   60.3654   64.4161 C   0  0  0  0  0  0  0  0  0  0  0  0
  -51.4278   59.7430   63.1040 C   0  0  0  0  0  0  0  0  0  0  0  0
  -50.3211   59.8950   62.0646 C   0  0  0  0  0  0  0  0  0  0  0  0
  -49.5242   58.6234   61.8324 C   0  0  0  0  0  0  0  0  0  0  0  0
  -50.2138   57.6309   60.9122 C   0  0  0  0  0  0  0  0  0  0  0  0
  -49.2930   56.9593   59.9071 C   0  0  0  0  0  0  0  0  0  0  0  0
  -49.1095   57.7582   58.6258 C   0  0  0  0  0  0  0  0  0  0  0  0
  -47.9352   57.3122   57.7773 C   0  0  0  0  0  0  0  0  0  0  0  0
  -47.0777   58.4598   57.3219 C   0  0  0  0  0  0  0  0  0  0  0  0
 21 22  1  0  0  0
  4  5  2  0  0  0
 25 24  1  0  0  0
 25 26  2  0  0  0
 25 27  1  0  0  0
 25 29  1  0  0  0
 22 20  1  0  0  0
  3  5  1  0  0  0
  3  2  1  0  0  0
 20 19  1  0  0  0
 24 23  1  0  0  0
 19 18  1  0  0  0
 18 17  1  0  0  0
 27 28  1  0  0  0
 17 16  1  0  0  0
 29 30  1  0  0  0
 16 15  1  0  0  0
 34 35  1  0  0  0
 34 36  1  0  0  0
 15 14  1  0  0  0
 31 32  1  0  0  0
 31 33  1  0  0  0
 14 13  1  0  0  0
 37  1  1  0  0  0
 37 39  1  0  0  0
 13 12  1  0  0  0
 38 39  2  0  0  0
 12 11  1  0  0  0
 11 10  1  0  0  0
 10  9  1  0  0  0
  9  8  1  0  0  0
  8  7  1  0  0  0
  7  6  1  0  0  0
  6  5  1  0  0  0
  2  1  1  0  0  0
  1 23  1  0  0  0
 30 32  1  0  0  0
 32 35  1  0  0  0
 39 40  1  0  0  0
 40 41  1  0  0  0
 41 42  1  0  0  0
 42 43  1  0  0  0
 43 44  1  0  0  0
 44 45  1  0  0  0
 45 46  1  0  0  0
 46 47  1  0  0  0
 47 48  2  0  0  0
 48 49  1  0  0  0
 49 50  1  0  0  0
 50 51  1  0  0  0
 51 52  1  0  0  0
 52 53  1  0  0  0
 53 54  1  0  0  0
 54 55  1  0  0  0
 55 56  1  0  0  0
M  CHG 1  26  -1
M  END
> <minimizedAffinity>
-8.26535

> <CNNscore>
0.3018092215

> <CNNaffinity>
6.8555021286

> <CNN_VS>
2.0690536499

> <CNNaffinity_variance>
0.8790743947

$$$$
/media/chris/experiments/cd1a-new-docking/inputs/ligands/7sh4_ligand.pdb


 56 55  0  0  0  0  0  0  0  0999 V2000
  -45.8171   59.7351   64.9804 C   0  0  0  0  0  0  0  0  0  0  0  0
  -45.1367   60.9652   64.4496 C   0  0  0  0  0  0  0  0  0  0  0  0
  -43.8850   60.4734   63.9257 O   0  0  0  0  0  0  0  0  0  0  0  0
  -42.4310   61.5411   65.2466 O   0  0  0  0  0  0  0  0  0  0  0  0
  -42.8019   61.2177   64.1505 C   0  0  0  0  0  0  0  0  0  0  0  0
  -42.0524   61.4837   62.8767 C   0  0  0  0  0  0  0  0  0  0  0  0
  -40.9291   60.4986   62.6006 C   0  0  0  0  0  0  0  0  0  0  0  0
  -39.7330   60.7047   63.5059 C   0  0  0  0  0  0  0  0  0  0  0  0
  -38.5965   61.4694   62.8661 C   0  0  0  0  0  0  0  0  0  0  0  0
  -37.5603   61.9399   63.8667 C   0  0  0  0  0  0  0  0  0  0  0  0
  -36.6105   62.9666   63.3000 C   0  0  0  0  0  0  0  0  0  0  0  0
  -36.0604   63.9000   64.3457 C   0  0  0  0  0  0  0  0  0  0  0  0
  -36.4749   63.5348   65.7539 C   0  0  0  0  0  0  0  0  0  0  0  0
  -35.4518   63.9507   66.7916 C   0  0  0  0  0  0  0  0  0  0  0  0
  -34.0512   63.4454   66.5158 C   0  0  0  0  0  0  0  0  0  0  0  0
  -33.0090   64.5519   66.3987 C   0  0  0  0  0  0  0  0  0  0  0  0
  -32.4728   64.7471   64.9935 C   0  0  0  0  0  0  0  0  0  0  0  0
  -32.9009   66.0562   64.3624 C   0  0  0  0  0  0  0  0  0  0  0  0
  -33.2353   65.9394   62.8819 C   0  0  0  0  0  0  0  0  0  0  0  0
  -34.3270   66.8923   62.4285 C   0  0  0  0  0  0  0  0  0  0  0  0
  -36.6226   66.9734   61.3993 C   0  0  0  0  0  0  0  0  0  0  0  0
  -35.2517   66.3370   61.3620 C   0  0  0  0  0  0  0  0  0  0  0  0
  -47.2697   59.9834   65.2964 C   0  0  0  0  0  0  0  0  0  0  0  0
  -48.0824   59.1920   64.4011 O   0  0  0  0  0  0  0  0  0  0  0  0
  -49.6797   59.2883   64.3658 P   0  0  0  0  0  0  0  0  0  0  0  0
  -50.2041   58.6510   65.5930 O   0  0  0  0  0  0  0  0  0  0  0  0
  -50.0511   60.6949   64.0793 O   0  0  0  0  0  0  0  0  0  0  0  0
  -49.7873   61.2572   64.8244 H   0  0  0  0  0  0  0  0  0  0  0  0
  -50.1291   58.3995   63.1205 O   0  0  0  0  0  0  0  0  0  0  0  0
  -49.2131   58.1689   62.0307 C   0  0  0  0  0  0  0  0  0  0  0  0
  -51.3690   57.4934   61.2318 O   0  0  0  0  0  0  0  0  0  0  0  0
  -49.9961   57.6369   60.8556 C   0  0  0  0  0  0  0  0  0  0  0  0
  -51.4320   56.9229   62.0138 H   0  0  0  0  0  0  0  0  0  0  0  0
  -49.4520   57.7715   58.5094 O   0  0  0  0  0  0  0  0  0  0  0  0
  -49.8792   58.5228   59.6385 C   0  0  0  0  0  0  0  0  0  0  0  0
  -49.3830   58.3566   57.7389 H   0  0  0  0  0  0  0  0  0  0  0  0
  -45.0781   59.2710   66.1586 O   0  0  0  0  0  0  0  0  0  0  0  0
  -45.7287   57.3259   67.0824 O   0  0  0  0  0  0  0  0  0  0  0  0
  -45.0040   57.9395   66.3475 C   0  0  0  0  0  0  0  0  0  0  0  0
  -43.9242   57.3151   65.5191 C   0  0  0  0  0  0  0  0  0  0  0  0
  -42.5423   57.8031   65.9421 C   0  0  0  0  0  0  0  0  0  0  0  0
  -41.4783   57.6473   64.8681 C   0  0  0  0  0  0  0  0  0  0  0  0
  -42.0196   57.1153   63.5460 C   0  0  0  0  0  0  0  0  0  0  0  0
  -40.9548   56.5421   62.6294 C   0  0  0  0  0  0  0  0  0  0  0  0
  -41.3685   56.4403   61.1585 C   0  0  0  0  0  0  0  0  0  0  0  0
  -41.4213   57.7699   60.4030 C   0  0  0  0  0  0  0  0  0  0  0  0
  -40.5168   57.7765   59.2073 C   0  0  0  0  0  0  0  0  0  0  0  0
  -39.3552   58.3921   59.1022 C   0  0  0  0  0  0  0  0  0  0  0  0
  -38.6937   59.2158   60.1615 C   0  0  0  0  0  0  0  0  0  0  0  0
  -37.4889   58.5119   60.7791 C   0  0  0  0  0  0  0  0  0  0  0  0
  -37.8405   57.6265   61.9616 C   0  0  0  0  0  0  0  0  0  0  0  0
  -37.0528   57.9483   63.2200 C   0  0  0  0  0  0  0  0  0  0  0  0
  -35.5468   58.0023   63.0236 C   0  0  0  0  0  0  0  0  0  0  0  0
  -34.9286   59.3272   63.4431 C   0  0  0  0  0  0  0  0  0  0  0  0
  -33.4742   59.2309   63.8593 C   0  0  0  0  0  0  0  0  0  0  0  0
  -33.2920   58.5363   65.1800 C   0  0  0  0  0  0  0  0  0  0  0  0
 21 22  1  0  0  0
  4  5  2  0  0  0
 25 24  1  0  0  0
 25 26  2  0  0  0
 25 27  1  0  0  0
 25 29  1  0  0  0
 22 20  1  0  0  0
  3  5  1  0  0  0
  3  2  1  0  0  0
 20 19  1  0  0  0
 24 23  1  0  0  0
 19 18  1  0  0  0
 18 17  1  0  0  0
 27 28  1  0  0  0
 17 16  1  0  0  0
 29 30  1  0  0  0
 16 15  1  0  0  0
 34 35  1  0  0  0
 34 36  1  0  0  0
 15 14  1  0  0  0
 31 32  1  0  0  0
 31 33  1  0  0  0
 14 13  1  0  0  0
 37  1  1  0  0  0
 37 39  1  0  0  0
 13 12  1  0  0  0
 38 39  2  0  0  0
 12 11  1  0  0  0
 11 10  1  0  0  0
 10  9  1  0  0  0
  9  8  1  0  0  0
  8  7  1  0  0  0
  7  6  1  0  0  0
  6  5  1  0  0  0
  2  1  1  0  0  0
  1 23  1  0  0  0
 30 32  1  0  0  0
 32 35  1  0  0  0
 39 40  1  0  0  0
 40 41  1  0  0  0
 41 42  1  0  0  0
 42 43  1  0  0  0
 43 44  1  0  0  0
 44 45  1  0  0  0
 45 46  1  0  0  0
 46 47  1  0  0  0
 47 48  2  0  0  0
 48 49  1  0  0  0
 49 50  1  0  0  0
 50 51  1  0  0  0
 51 52  1  0  0  0
 52 53  1  0  0  0
 53 54  1  0  0  0
 54 55  1  0  0  0
 55 56  1  0  0  0
M  CHG 1  26  -1
M  END
> <minimizedAffinity>
-7.54202

> <CNNscore>
0.2882165313

> <CNNaffinity>
7.2530312538

> <CNN_VS>
2.0904436111

> <CNNaffinity_variance>
1.7440383434

$$$$
/media/chris/experiments/cd1a-new-docking/inputs/ligands/7sh4_ligand.pdb


 56 55  0  0  0  0  0  0  0  0999 V2000
  -41.1578   60.3142   62.0563 C   0  0  0  0  0  0  0  0  0  0  0  0
  -42.2014   61.3796   62.2392 C   0  0  0  0  0  0  0  0  0  0  0  0
  -43.2397   60.7247   62.9982 O   0  0  0  0  0  0  0  0  0  0  0  0
  -43.0983   62.1171   64.7418 O   0  0  0  0  0  0  0  0  0  0  0  0
  -43.7468   61.3959   64.0326 C   0  0  0  0  0  0  0  0  0  0  0  0
  -45.2371   61.2291   64.1097 C   0  0  0  0  0  0  0  0  0  0  0  0
  -45.7037   60.3395   65.2496 C   0  0  0  0  0  0  0  0  0  0  0  0
  -46.1930   58.9873   64.7754 C   0  0  0  0  0  0  0  0  0  0  0  0
  -47.4388   58.4981   65.4785 C   0  0  0  0  0  0  0  0  0  0  0  0
  -48.3446   59.6245   65.9333 C   0  0  0  0  0  0  0  0  0  0  0  0
  -49.8050   59.2443   65.9454 C   0  0  0  0  0  0  0  0  0  0  0  0
  -50.6784   60.2405   65.2297 C   0  0  0  0  0  0  0  0  0  0  0  0
  -50.2435   60.5060   63.8055 C   0  0  0  0  0  0  0  0  0  0  0  0
  -51.2126   59.9467   62.7836 C   0  0  0  0  0  0  0  0  0  0  0  0
  -50.9844   58.4874   62.4496 C   0  0  0  0  0  0  0  0  0  0  0  0
  -49.5150   58.0815   62.4336 C   0  0  0  0  0  0  0  0  0  0  0  0
  -48.7993   58.4093   61.1373 C   0  0  0  0  0  0  0  0  0  0  0  0
  -49.4235   57.7533   59.9226 C   0  0  0  0  0  0  0  0  0  0  0  0
  -48.8492   56.3789   59.6086 C   0  0  0  0  0  0  0  0  0  0  0  0
  -47.4473   56.4244   59.0270 C   0  0  0  0  0  0  0  0  0  0  0  0
  -47.1323   58.2465   57.3193 C   0  0  0  0  0  0  0  0  0  0  0  0
  -47.3829   56.7739   57.5524 C   0  0  0  0  0  0  0  0  0  0  0  0
  -39.8473   60.6889   62.6998 C   0  0  0  0  0  0  0  0  0  0  0  0
  -40.1089   61.1922   64.0290 O   0  0  0  0  0  0  0  0  0  0  0  0
  -40.0759   60.2618   65.3308 P   0  0  0  0  0  0  0  0  0  0  0  0
  -38.6621   59.9574   65.6403 O   0  0  0  0  0  0  0  0  0  0  0  0
  -40.9122   60.9000   66.3757 O   0  0  0  0  0  0  0  0  0  0  0  0
  -40.4993   61.7315   66.6572 H   0  0  0  0  0  0  0  0  0  0  0  0
  -40.7872   58.9023   64.8966 O   0  0  0  0  0  0  0  0  0  0  0  0
  -41.9590   58.4441   65.6014 C   0  0  0  0  0  0  0  0  0  0  0  0
  -43.1318   58.0215   63.5548 O   0  0  0  0  0  0  0  0  0  0  0  0
  -42.6489   57.4050   64.7521 C   0  0  0  0  0  0  0  0  0  0  0  0
  -43.7123   58.7638   63.7847 H   0  0  0  0  0  0  0  0  0  0  0  0
  -41.4599   56.2208   63.0193 O   0  0  0  0  0  0  0  0  0  0  0  0
  -41.7426   56.2460   64.4125 C   0  0  0  0  0  0  0  0  0  0  0  0
  -40.8775   55.4710   62.8210 H   0  0  0  0  0  0  0  0  0  0  0  0
  -41.0032   60.0612   60.6203 O   0  0  0  0  0  0  0  0  0  0  0  0
  -39.0107   60.0461   59.5766 O   0  0  0  0  0  0  0  0  0  0  0  0
  -39.8530   59.4846   60.2223 C   0  0  0  0  0  0  0  0  0  0  0  0
  -39.7425   58.0685   60.6962 C   0  0  0  0  0  0  0  0  0  0  0  0
  -38.3162   57.7299   61.1179 C   0  0  0  0  0  0  0  0  0  0  0  0
  -38.0734   57.8399   62.6142 C   0  0  0  0  0  0  0  0  0  0  0  0
  -36.8060   58.6079   62.9716 C   0  0  0  0  0  0  0  0  0  0  0  0
  -35.7497   57.7670   63.6639 C   0  0  0  0  0  0  0  0  0  0  0  0
  -34.5481   57.4049   62.7864 C   0  0  0  0  0  0  0  0  0  0  0  0
  -33.7166   58.5928   62.2976 C   0  0  0  0  0  0  0  0  0  0  0  0
  -32.7346   59.0581   63.3307 C   0  0  0  0  0  0  0  0  0  0  0  0
  -31.7017   59.8540   63.1331 C   0  0  0  0  0  0  0  0  0  0  0  0
  -31.2934   60.4631   61.8290 C   0  0  0  0  0  0  0  0  0  0  0  0
  -29.7811   60.6299   61.7122 C   0  0  0  0  0  0  0  0  0  0  0  0
  -29.2425   61.8410   62.4531 C   0  0  0  0  0  0  0  0  0  0  0  0
  -29.6090   63.1651   61.8052 C   0  0  0  0  0  0  0  0  0  0  0  0
  -30.2208   64.1824   62.7541 C   0  0  0  0  0  0  0  0  0  0  0  0
  -31.6759   63.8965   63.0923 C   0  0  0  0  0  0  0  0  0  0  0  0
  -32.0221   64.0810   64.5565 C   0  0  0  0  0  0  0  0  0  0  0  0
  -30.8897   64.6676   65.3524 C   0  0  0  0  0  0  0  0  0  0  0  0
 21 22  1  0  0  0
  4  5  2  0  0  0
 25 24  1  0  0  0
 25 26  2  0  0  0
 25 27  1  0  0  0
 25 29  1  0  0  0
 22 20  1  0  0  0
  3  5  1  0  0  0
  3  2  1  0  0  0
 20 19  1  0  0  0
 24 23  1  0  0  0
 19 18  1  0  0  0
 18 17  1  0  0  0
 27 28  1  0  0  0
 17 16  1  0  0  0
 29 30  1  0  0  0
 16 15  1  0  0  0
 34 35  1  0  0  0
 34 36  1  0  0  0
 15 14  1  0  0  0
 31 32  1  0  0  0
 31 33  1  0  0  0
 14 13  1  0  0  0
 37  1  1  0  0  0
 37 39  1  0  0  0
 13 12  1  0  0  0
 38 39  2  0  0  0
 12 11  1  0  0  0
 11 10  1  0  0  0
 10  9  1  0  0  0
  9  8  1  0  0  0
  8  7  1  0  0  0
  7  6  1  0  0  0
  6  5  1  0  0  0
  2  1  1  0  0  0
  1 23  1  0  0  0
 30 32  1  0  0  0
 32 35  1  0  0  0
 39 40  1  0  0  0
 40 41  1  0  0  0
 41 42  1  0  0  0
 42 43  1  0  0  0
 43 44  1  0  0  0
 44 45  1  0  0  0
 45 46  1  0  0  0
 46 47  1  0  0  0
 47 48  2  0  0  0
 48 49  1  0  0  0
 49 50  1  0  0  0
 50 51  1  0  0  0
 51 52  1  0  0  0
 52 53  1  0  0  0
 53 54  1  0  0  0
 54 55  1  0  0  0
 55 56  1  0  0  0
M  CHG 1  26  -1
M  END
> <minimizedAffinity>
-7.97488

> <CNNscore>
0.2615573108

> <CNNaffinity>
6.5777091980

> <CNN_VS>
1.7204478979

> <CNNaffinity_variance>
0.8815947771

$$$$
