/media/chris/experiments/cd1a-new-docking/inputs/ligands/7sh4_ligand.pdb


 56 55  0  0  0  0  0  0  0  0999 V2000
  -40.6948   60.1014   64.1119 C   0  0  0  0  0  0  0  0  0  0  0  0
  -40.3348   59.0953   65.1683 C   0  0  0  0  0  0  0  0  0  0  0  0
  -40.2796   57.8428   64.4532 O   0  0  0  0  0  0  0  0  0  0  0  0
  -42.1245   56.8970   65.2901 O   0  0  0  0  0  0  0  0  0  0  0  0
  -41.4164   57.1532   64.3540 C   0  0  0  0  0  0  0  0  0  0  0  0
  -41.7476   56.8565   62.9197 C   0  0  0  0  0  0  0  0  0  0  0  0
  -40.5526   56.4355   62.0812 C   0  0  0  0  0  0  0  0  0  0  0  0
  -40.3291   57.3365   60.8850 C   0  0  0  0  0  0  0  0  0  0  0  0
  -38.9144   57.8539   60.7553 C   0  0  0  0  0  0  0  0  0  0  0  0
  -38.0179   57.4227   61.8983 C   0  0  0  0  0  0  0  0  0  0  0  0
  -36.7847   58.2807   62.0421 C   0  0  0  0  0  0  0  0  0  0  0  0
  -35.9697   57.9398   63.2616 C   0  0  0  0  0  0  0  0  0  0  0  0
  -34.6163   57.3493   62.9334 C   0  0  0  0  0  0  0  0  0  0  0  0
  -33.5175   58.3919   62.8908 C   0  0  0  0  0  0  0  0  0  0  0  0
  -33.6134   59.4357   63.9838 C   0  0  0  0  0  0  0  0  0  0  0  0
  -33.2128   60.8364   63.5348 C   0  0  0  0  0  0  0  0  0  0  0  0
  -32.2685   60.8565   62.3482 C   0  0  0  0  0  0  0  0  0  0  0  0
  -32.0074   62.2485   61.8102 C   0  0  0  0  0  0  0  0  0  0  0  0
  -32.8798   63.3220   62.4458 C   0  0  0  0  0  0  0  0  0  0  0  0
  -33.5874   64.2069   61.4353 C   0  0  0  0  0  0  0  0  0  0  0  0
  -35.9778   64.9804   61.2801 C   0  0  0  0  0  0  0  0  0  0  0  0
  -34.6644   65.1015   62.0192 C   0  0  0  0  0  0  0  0  0  0  0  0
  -39.4840   60.5883   63.3577 C   0  0  0  0  0  0  0  0  0  0  0  0
  -38.8919   61.6861   64.0874 O   0  0  0  0  0  0  0  0  0  0  0  0
  -37.3499   61.7116   64.5157 P   0  0  0  0  0  0  0  0  0  0  0  0
  -37.0776   60.5000   65.3186 O   0  0  0  0  0  0  0  0  0  0  0  0
  -36.5372   61.9581   63.3002 O   0  0  0  0  0  0  0  0  0  0  0  0
  -36.6134   61.1992   62.7009 H   0  0  0  0  0  0  0  0  0  0  0  0
  -37.1979   62.9786   65.4718 O   0  0  0  0  0  0  0  0  0  0  0  0
  -36.1322   63.9251   65.2515 C   0  0  0  0  0  0  0  0  0  0  0  0
  -36.1395   63.5551   67.6191 O   0  0  0  0  0  0  0  0  0  0  0  0
  -35.3629   64.0836   66.5399 C   0  0  0  0  0  0  0  0  0  0  0  0
  -37.0037   63.9953   67.6414 H   0  0  0  0  0  0  0  0  0  0  0  0
  -33.4229   63.3705   67.7832 O   0  0  0  0  0  0  0  0  0  0  0  0
  -34.0130   63.4091   66.4902 C   0  0  0  0  0  0  0  0  0  0  0  0
  -32.5580   62.9342   67.7309 H   0  0  0  0  0  0  0  0  0  0  0  0
  -41.4139   61.2066   64.7532 O   0  0  0  0  0  0  0  0  0  0  0  0
  -42.3697   61.1143   66.7874 O   0  0  0  0  0  0  0  0  0  0  0  0
  -42.3994   60.8780   65.6106 C   0  0  0  0  0  0  0  0  0  0  0  0
  -43.5416   60.2009   64.9187 C   0  0  0  0  0  0  0  0  0  0  0  0
  -44.4789   59.5272   65.9159 C   0  0  0  0  0  0  0  0  0  0  0  0
  -45.9064   60.0467   65.8681 C   0  0  0  0  0  0  0  0  0  0  0  0
  -46.6801   59.5913   64.6362 C   0  0  0  0  0  0  0  0  0  0  0  0
  -48.0570   59.0328   64.9440 C   0  0  0  0  0  0  0  0  0  0  0  0
  -48.8877   59.8828   65.9095 C   0  0  0  0  0  0  0  0  0  0  0  0
  -50.4008   59.8301   65.6874 C   0  0  0  0  0  0  0  0  0  0  0  0
  -50.8037   60.4648   64.3902 C   0  0  0  0  0  0  0  0  0  0  0  0
  -51.0716   59.8423   63.2587 C   0  0  0  0  0  0  0  0  0  0  0  0
  -51.0306   58.3638   63.0337 C   0  0  0  0  0  0  0  0  0  0  0  0
  -51.0660   57.9989   61.5524 C   0  0  0  0  0  0  0  0  0  0  0  0
  -49.7711   57.3901   61.0437 C   0  0  0  0  0  0  0  0  0  0  0  0
  -48.8656   58.3844   60.3378 C   0  0  0  0  0  0  0  0  0  0  0  0
  -48.9812   58.3759   58.8225 C   0  0  0  0  0  0  0  0  0  0  0  0
  -47.6377   58.3046   58.1130 C   0  0  0  0  0  0  0  0  0  0  0  0
  -46.9207   56.9784   58.2703 C   0  0  0  0  0  0  0  0  0  0  0  0
  -47.1924   56.0321   57.1343 C   0  0  0  0  0  0  0  0  0  0  0  0
 21 22  1  0  0  0
  4  5  2  0  0  0
 25 24  1  0  0  0
 25 26  2  0  0  0
 25 27  1  0  0  0
 25 29  1  0  0  0
 22 20  1  0  0  0
  3  5  1  0  0  0
  3  2  1  0  0  0
 20 19  1  0  0  0
 24 23  1  0  0  0
 19 18  1  0  0  0
 18 17  1  0  0  0
 27 28  1  0  0  0
 17 16  1  0  0  0
 29 30  1  0  0  0
 16 15  1  0  0  0
 34 35  1  0  0  0
 34 36  1  0  0  0
 15 14  1  0  0  0
 31 32  1  0  0  0
 31 33  1  0  0  0
 14 13  1  0  0  0
 37  1  1  0  0  0
 37 39  1  0  0  0
 13 12  1  0  0  0
 38 39  2  0  0  0
 12 11  1  0  0  0
 11 10  1  0  0  0
 10  9  1  0  0  0
  9  8  1  0  0  0
  8  7  1  0  0  0
  7  6  1  0  0  0
  6  5  1  0  0  0
  2  1  1  0  0  0
  1 23  1  0  0  0
 30 32  1  0  0  0
 32 35  1  0  0  0
 39 40  1  0  0  0
 40 41  1  0  0  0
 41 42  1  0  0  0
 42 43  1  0  0  0
 43 44  1  0  0  0
 44 45  1  0  0  0
 45 46  1  0  0  0
 46 47  1  0  0  0
 47 48  2  0  0  0
 48 49  1  0  0  0
 49 50  1  0  0  0
 50 51  1  0  0  0
 51 52  1  0  0  0
 52 53  1  0  0  0
 53 54  1  0  0  0
 54 55  1  0  0  0
 55 56  1  0  0  0
M  CHG 1  26  -1
M  END
> <minimizedAffinity>
-8.48552

> <CNNscore>
0.3323744237

> <CNNaffinity>
7.1158752441

> <CNN_VS>
2.3651349545

> <CNNaffinity_variance>
0.9310973883

$$$$
/media/chris/experiments/cd1a-new-docking/inputs/ligands/7sh4_ligand.pdb


 56 55  0  0  0  0  0  0  0  0999 V2000
  -40.6686   60.5214   63.6480 C   0  0  0  0  0  0  0  0  0  0  0  0
  -40.5159   60.0566   65.0687 C   0  0  0  0  0  0  0  0  0  0  0  0
  -40.4848   58.6174   64.9638 O   0  0  0  0  0  0  0  0  0  0  0  0
  -42.3481   58.1894   66.1230 O   0  0  0  0  0  0  0  0  0  0  0  0
  -41.6296   57.9707   65.1853 C   0  0  0  0  0  0  0  0  0  0  0  0
  -41.9535   57.0380   64.0539 C   0  0  0  0  0  0  0  0  0  0  0  0
  -40.7794   56.7460   63.1350 C   0  0  0  0  0  0  0  0  0  0  0  0
  -41.2051   56.4784   61.7067 C   0  0  0  0  0  0  0  0  0  0  0  0
  -42.0653   57.5653   61.1031 C   0  0  0  0  0  0  0  0  0  0  0  0
  -41.3283   58.4057   60.0799 C   0  0  0  0  0  0  0  0  0  0  0  0
  -39.9547   57.8731   59.7524 C   0  0  0  0  0  0  0  0  0  0  0  0
  -38.9254   58.9603   59.5903 C   0  0  0  0  0  0  0  0  0  0  0  0
  -37.6401   58.6868   60.3396 C   0  0  0  0  0  0  0  0  0  0  0  0
  -37.8526   57.8352   61.5748 C   0  0  0  0  0  0  0  0  0  0  0  0
  -36.6088   57.6491   62.4186 C   0  0  0  0  0  0  0  0  0  0  0  0
  -36.8027   58.0039   63.8885 C   0  0  0  0  0  0  0  0  0  0  0  0
  -35.5707   57.7796   64.7441 C   0  0  0  0  0  0  0  0  0  0  0  0
  -34.6239   58.9621   64.7577 C   0  0  0  0  0  0  0  0  0  0  0  0
  -33.1566   58.5680   64.8547 C   0  0  0  0  0  0  0  0  0  0  0  0
  -32.4891   58.3739   63.5050 C   0  0  0  0  0  0  0  0  0  0  0  0
  -32.0935   60.3625   62.0133 C   0  0  0  0  0  0  0  0  0  0  0  0
  -33.0400   59.2463   62.3930 C   0  0  0  0  0  0  0  0  0  0  0  0
  -39.3516   60.9352   63.0430 C   0  0  0  0  0  0  0  0  0  0  0  0
  -38.6283   61.7344   64.0055 O   0  0  0  0  0  0  0  0  0  0  0  0
  -37.0740   62.0837   63.8499 P   0  0  0  0  0  0  0  0  0  0  0  0
  -36.4669   62.0813   65.1983 O   0  0  0  0  0  0  0  0  0  0  0  0
  -36.5029   61.1942   62.8100 O   0  0  0  0  0  0  0  0  0  0  0  0
  -36.5184   60.2769   63.1251 H   0  0  0  0  0  0  0  0  0  0  0  0
  -37.0304   63.5777   63.2944 O   0  0  0  0  0  0  0  0  0  0  0  0
  -35.8414   64.3761   63.4638 C   0  0  0  0  0  0  0  0  0  0  0  0
  -35.3227   63.7577   61.2075 O   0  0  0  0  0  0  0  0  0  0  0  0
  -34.7797   63.8529   62.5277 C   0  0  0  0  0  0  0  0  0  0  0  0
  -36.1164   63.2002   61.2239 H   0  0  0  0  0  0  0  0  0  0  0  0
  -32.4038   63.9694   62.9277 O   0  0  0  0  0  0  0  0  0  0  0  0
  -33.5422   64.7180   62.5210 C   0  0  0  0  0  0  0  0  0  0  0  0
  -31.6203   64.5412   62.9169 H   0  0  0  0  0  0  0  0  0  0  0  0
  -41.6439   61.6159   63.6228 O   0  0  0  0  0  0  0  0  0  0  0  0
  -42.6206   61.9631   65.6192 O   0  0  0  0  0  0  0  0  0  0  0  0
  -42.6671   61.5423   64.4956 C   0  0  0  0  0  0  0  0  0  0  0  0
  -43.8727   60.8909   63.8923 C   0  0  0  0  0  0  0  0  0  0  0  0
  -44.8447   60.4112   64.9655 C   0  0  0  0  0  0  0  0  0  0  0  0
  -45.6509   59.1868   64.5642 C   0  0  0  0  0  0  0  0  0  0  0  0
  -47.1290   59.4790   64.3328 C   0  0  0  0  0  0  0  0  0  0  0  0
  -48.0507   58.8496   65.3608 C   0  0  0  0  0  0  0  0  0  0  0  0
  -49.0254   59.8264   66.0248 C   0  0  0  0  0  0  0  0  0  0  0  0
  -50.5069   59.5486   65.7612 C   0  0  0  0  0  0  0  0  0  0  0  0
  -51.0066   60.2612   64.5403 C   0  0  0  0  0  0  0  0  0  0  0  0
  -51.1380   59.7529   63.3304 C   0  0  0  0  0  0  0  0  0  0  0  0
  -50.8153   58.3501   62.9225 C   0  0  0  0  0  0  0  0  0  0  0  0
  -50.2813   58.2667   61.4956 C   0  0  0  0  0  0  0  0  0  0  0  0
  -49.6591   59.5607   61.0011 C   0  0  0  0  0  0  0  0  0  0  0  0
  -49.1254   59.4774   59.5815 C   0  0  0  0  0  0  0  0  0  0  0  0
  -48.3484   58.2081   59.2743 C   0  0  0  0  0  0  0  0  0  0  0  0
  -48.9073   57.4261   58.0955 C   0  0  0  0  0  0  0  0  0  0  0  0
  -47.9838   57.3656   56.8950 C   0  0  0  0  0  0  0  0  0  0  0  0
  -46.7459   58.2000   57.0708 C   0  0  0  0  0  0  0  0  0  0  0  0
 21 22  1  0  0  0
  4  5  2  0  0  0
 25 24  1  0  0  0
 25 26  2  0  0  0
 25 27  1  0  0  0
 25 29  1  0  0  0
 22 20  1  0  0  0
  3  5  1  0  0  0
  3  2  1  0  0  0
 20 19  1  0  0  0
 24 23  1  0  0  0
 19 18  1  0  0  0
 18 17  1  0  0  0
 27 28  1  0  0  0
 17 16  1  0  0  0
 29 30  1  0  0  0
 16 15  1  0  0  0
 34 35  1  0  0  0
 34 36  1  0  0  0
 15 14  1  0  0  0
 31 32  1  0  0  0
 31 33  1  0  0  0
 14 13  1  0  0  0
 37  1  1  0  0  0
 37 39  1  0  0  0
 13 12  1  0  0  0
 38 39  2  0  0  0
 12 11  1  0  0  0
 11 10  1  0  0  0
 10  9  1  0  0  0
  9  8  1  0  0  0
  8  7  1  0  0  0
  7  6  1  0  0  0
  6  5  1  0  0  0
  2  1  1  0  0  0
  1 23  1  0  0  0
 30 32  1  0  0  0
 32 35  1  0  0  0
 39 40  1  0  0  0
 40 41  1  0  0  0
 41 42  1  0  0  0
 42 43  1  0  0  0
 43 44  1  0  0  0
 44 45  1  0  0  0
 45 46  1  0  0  0
 46 47  1  0  0  0
 47 48  2  0  0  0
 48 49  1  0  0  0
 49 50  1  0  0  0
 50 51  1  0  0  0
 51 52  1  0  0  0
 52 53  1  0  0  0
 53 54  1  0  0  0
 54 55  1  0  0  0
 55 56  1  0  0  0
M  CHG 1  26  -1
M  END
> <minimizedAffinity>
-8.51726

> <CNNscore>
0.3315712214

> <CNNaffinity>
7.3647866249

> <CNN_VS>
2.4419512749

> <CNNaffinity_variance>
0.9948050380

$$$$
/media/chris/experiments/cd1a-new-docking/inputs/ligands/7sh4_ligand.pdb


 56 55  0  0  0  0  0  0  0  0999 V2000
  -40.8214   59.9060   65.2261 C   0  0  0  0  0  0  0  0  0  0  0  0
  -41.7983   59.6494   66.3386 C   0  0  0  0  0  0  0  0  0  0  0  0
  -41.9301   58.2124   66.3630 O   0  0  0  0  0  0  0  0  0  0  0  0
  -44.1145   57.8672   66.6919 O   0  0  0  0  0  0  0  0  0  0  0  0
  -43.1207   57.7093   66.0355 C   0  0  0  0  0  0  0  0  0  0  0  0
  -43.0756   57.0385   64.6928 C   0  0  0  0  0  0  0  0  0  0  0  0
  -41.7901   56.2746   64.4237 C   0  0  0  0  0  0  0  0  0  0  0  0
  -41.1103   56.7043   63.1408 C   0  0  0  0  0  0  0  0  0  0  0  0
  -41.0601   55.6311   62.0771 C   0  0  0  0  0  0  0  0  0  0  0  0
  -41.3344   56.1625   60.6847 C   0  0  0  0  0  0  0  0  0  0  0  0
  -41.4674   57.6650   60.6380 C   0  0  0  0  0  0  0  0  0  0  0  0
  -41.0103   58.2558   59.3305 C   0  0  0  0  0  0  0  0  0  0  0  0
  -39.8669   59.2347   59.4811 C   0  0  0  0  0  0  0  0  0  0  0  0
  -38.5268   58.5479   59.6498 C   0  0  0  0  0  0  0  0  0  0  0  0
  -37.8661   58.8025   60.9885 C   0  0  0  0  0  0  0  0  0  0  0  0
  -37.7160   57.5530   61.8490 C   0  0  0  0  0  0  0  0  0  0  0  0
  -37.4881   57.8420   63.3203 C   0  0  0  0  0  0  0  0  0  0  0  0
  -36.0823   58.3138   63.6303 C   0  0  0  0  0  0  0  0  0  0  0  0
  -35.0043   57.5734   62.8511 C   0  0  0  0  0  0  0  0  0  0  0  0
  -33.5946   58.0331   63.1774 C   0  0  0  0  0  0  0  0  0  0  0  0
  -31.8908   59.8096   62.6511 C   0  0  0  0  0  0  0  0  0  0  0  0
  -33.3417   59.5121   62.9548 C   0  0  0  0  0  0  0  0  0  0  0  0
  -39.3971   59.9339   65.7186 C   0  0  0  0  0  0  0  0  0  0  0  0
  -38.9282   61.3008   65.7085 O   0  0  0  0  0  0  0  0  0  0  0  0
  -37.5153   61.7287   65.0899 P   0  0  0  0  0  0  0  0  0  0  0  0
  -36.4637   60.9288   65.7542 O   0  0  0  0  0  0  0  0  0  0  0  0
  -37.6235   61.6761   63.6121 O   0  0  0  0  0  0  0  0  0  0  0  0
  -37.7473   60.7565   63.3294 H   0  0  0  0  0  0  0  0  0  0  0  0
  -37.3134   63.2529   65.5124 O   0  0  0  0  0  0  0  0  0  0  0  0
  -36.0806   63.9318   65.1972 C   0  0  0  0  0  0  0  0  0  0  0  0
  -36.1445   63.7581   67.5864 O   0  0  0  0  0  0  0  0  0  0  0  0
  -35.3624   64.2377   66.4886 C   0  0  0  0  0  0  0  0  0  0  0  0
  -37.0307   64.1506   67.5478 H   0  0  0  0  0  0  0  0  0  0  0  0
  -33.5818   63.3865   67.8753 O   0  0  0  0  0  0  0  0  0  0  0  0
  -33.9782   63.6362   66.5329 C   0  0  0  0  0  0  0  0  0  0  0  0
  -32.6917   63.0009   67.8832 H   0  0  0  0  0  0  0  0  0  0  0  0
  -41.1915   61.1626   64.5675 O   0  0  0  0  0  0  0  0  0  0  0  0
  -40.9695   60.4632   62.4410 O   0  0  0  0  0  0  0  0  0  0  0  0
  -41.5653   61.0879   63.2757 C   0  0  0  0  0  0  0  0  0  0  0  0
  -42.8202   61.8601   63.0098 C   0  0  0  0  0  0  0  0  0  0  0  0
  -43.8295   61.6933   64.1413 C   0  0  0  0  0  0  0  0  0  0  0  0
  -44.6231   60.3988   64.0735 C   0  0  0  0  0  0  0  0  0  0  0  0
  -45.9497   60.4570   64.8221 C   0  0  0  0  0  0  0  0  0  0  0  0
  -46.9058   59.3321   64.4715 C   0  0  0  0  0  0  0  0  0  0  0  0
  -47.7310   58.8073   65.6499 C   0  0  0  0  0  0  0  0  0  0  0  0
  -48.7003   59.8175   66.2677 C   0  0  0  0  0  0  0  0  0  0  0  0
  -50.1309   59.4840   65.9676 C   0  0  0  0  0  0  0  0  0  0  0  0
  -50.8104   59.8276   64.8907 C   0  0  0  0  0  0  0  0  0  0  0  0
  -50.2908   60.6252   63.7365 C   0  0  0  0  0  0  0  0  0  0  0  0
  -50.4808   59.9102   62.4019 C   0  0  0  0  0  0  0  0  0  0  0  0
  -50.3518   58.4000   62.4960 C   0  0  0  0  0  0  0  0  0  0  0  0
  -50.2055   57.7153   61.1481 C   0  0  0  0  0  0  0  0  0  0  0  0
  -48.9061   58.0236   60.4228 C   0  0  0  0  0  0  0  0  0  0  0  0
  -49.0542   58.0742   58.9099 C   0  0  0  0  0  0  0  0  0  0  0  0
  -47.7519   58.2876   58.1641 C   0  0  0  0  0  0  0  0  0  0  0  0
  -47.1467   57.0029   57.6712 C   0  0  0  0  0  0  0  0  0  0  0  0
 21 22  1  0  0  0
  4  5  2  0  0  0
 25 24  1  0  0  0
 25 26  2  0  0  0
 25 27  1  0  0  0
 25 29  1  0  0  0
 22 20  1  0  0  0
  3  5  1  0  0  0
  3  2  1  0  0  0
 20 19  1  0  0  0
 24 23  1  0  0  0
 19 18  1  0  0  0
 18 17  1  0  0  0
 27 28  1  0  0  0
 17 16  1  0  0  0
 29 30  1  0  0  0
 16 15  1  0  0  0
 34 35  1  0  0  0
 34 36  1  0  0  0
 15 14  1  0  0  0
 31 32  1  0  0  0
 31 33  1  0  0  0
 14 13  1  0  0  0
 37  1  1  0  0  0
 37 39  1  0  0  0
 13 12  1  0  0  0
 38 39  2  0  0  0
 12 11  1  0  0  0
 11 10  1  0  0  0
 10  9  1  0  0  0
  9  8  1  0  0  0
  8  7  1  0  0  0
  7  6  1  0  0  0
  6  5  1  0  0  0
  2  1  1  0  0  0
  1 23  1  0  0  0
 30 32  1  0  0  0
 32 35  1  0  0  0
 39 40  1  0  0  0
 40 41  1  0  0  0
 41 42  1  0  0  0
 42 43  1  0  0  0
 43 44  1  0  0  0
 44 45  1  0  0  0
 45 46  1  0  0  0
 46 47  1  0  0  0
 47 48  2  0  0  0
 48 49  1  0  0  0
 49 50  1  0  0  0
 50 51  1  0  0  0
 51 52  1  0  0  0
 52 53  1  0  0  0
 53 54  1  0  0  0
 54 55  1  0  0  0
 55 56  1  0  0  0
M  CHG 1  26  -1
M  END
> <minimizedAffinity>
-8.92880

> <CNNscore>
0.3235461116

> <CNNaffinity>
7.3678970337

> <CNN_VS>
2.3838543892

> <CNNaffinity_variance>
1.9405472279

$$$$
/media/chris/experiments/cd1a-new-docking/inputs/ligands/7sh4_ligand.pdb


 56 55  0  0  0  0  0  0  0  0999 V2000
  -40.7450   59.6478   63.2768 C   0  0  0  0  0  0  0  0  0  0  0  0
  -41.4417   59.8093   64.5982 C   0  0  0  0  0  0  0  0  0  0  0  0
  -41.3526   58.5014   65.2020 O   0  0  0  0  0  0  0  0  0  0  0  0
  -42.4657   56.5955   64.8451 O   0  0  0  0  0  0  0  0  0  0  0  0
  -42.4534   57.7493   65.1795 C   0  0  0  0  0  0  0  0  0  0  0  0
  -43.6306   58.4936   65.7409 C   0  0  0  0  0  0  0  0  0  0  0  0
  -44.7558   58.7172   64.7447 C   0  0  0  0  0  0  0  0  0  0  0  0
  -45.7127   59.8084   65.1762 C   0  0  0  0  0  0  0  0  0  0  0  0
  -47.0371   59.7946   64.4471 C   0  0  0  0  0  0  0  0  0  0  0  0
  -48.1942   60.2561   65.3100 C   0  0  0  0  0  0  0  0  0  0  0  0
  -49.1410   59.1407   65.6799 C   0  0  0  0  0  0  0  0  0  0  0  0
  -50.5492   59.3823   65.2043 C   0  0  0  0  0  0  0  0  0  0  0  0
  -50.6820   60.5979   64.3139 C   0  0  0  0  0  0  0  0  0  0  0  0
  -50.7394   60.2419   62.8421 C   0  0  0  0  0  0  0  0  0  0  0  0
  -51.1336   58.8055   62.5687 C   0  0  0  0  0  0  0  0  0  0  0  0
  -49.9641   57.9098   62.1762 C   0  0  0  0  0  0  0  0  0  0  0  0
  -50.1495   57.2012   60.8481 C   0  0  0  0  0  0  0  0  0  0  0  0
  -50.0352   58.1242   59.6523 C   0  0  0  0  0  0  0  0  0  0  0  0
  -48.6045   58.5347   59.3327 C   0  0  0  0  0  0  0  0  0  0  0  0
  -47.6903   57.3623   59.0249 C   0  0  0  0  0  0  0  0  0  0  0  0
  -46.9207   58.5253   56.9293 C   0  0  0  0  0  0  0  0  0  0  0  0
  -47.3223   57.2117   57.5610 C   0  0  0  0  0  0  0  0  0  0  0  0
  -39.8994   60.8470   62.9324 C   0  0  0  0  0  0  0  0  0  0  0  0
  -39.2468   61.3164   64.1333 O   0  0  0  0  0  0  0  0  0  0  0  0
  -37.6605   61.2575   64.3381 P   0  0  0  0  0  0  0  0  0  0  0  0
  -37.3649   60.1919   65.3200 O   0  0  0  0  0  0  0  0  0  0  0  0
  -37.0245   61.1897   63.0003 O   0  0  0  0  0  0  0  0  0  0  0  0
  -37.2494   60.3460   62.5778 H   0  0  0  0  0  0  0  0  0  0  0  0
  -37.2675   62.6553   64.9971 O   0  0  0  0  0  0  0  0  0  0  0  0
  -35.8990   63.1094   64.9635 C   0  0  0  0  0  0  0  0  0  0  0  0
  -36.1718   62.4023   67.2369 O   0  0  0  0  0  0  0  0  0  0  0  0
  -35.4150   63.2666   66.3841 C   0  0  0  0  0  0  0  0  0  0  0  0
  -37.1169   62.5977   67.1386 H   0  0  0  0  0  0  0  0  0  0  0  0
  -33.4443   63.4779   67.7589 O   0  0  0  0  0  0  0  0  0  0  0  0
  -33.9400   62.9759   66.5244 C   0  0  0  0  0  0  0  0  0  0  0  0
  -32.4970   63.2818   67.8306 H   0  0  0  0  0  0  0  0  0  0  0  0
  -41.7582   59.3865   62.2497 O   0  0  0  0  0  0  0  0  0  0  0  0
  -41.6701   57.1984   61.7356 O   0  0  0  0  0  0  0  0  0  0  0  0
  -41.5338   58.3490   61.4206 C   0  0  0  0  0  0  0  0  0  0  0  0
  -41.1130   58.8020   60.0570 C   0  0  0  0  0  0  0  0  0  0  0  0
  -39.9869   57.9351   59.5028 C   0  0  0  0  0  0  0  0  0  0  0  0
  -38.6713   58.6746   59.3229 C   0  0  0  0  0  0  0  0  0  0  0  0
  -37.7882   58.6589   60.5653 C   0  0  0  0  0  0  0  0  0  0  0  0
  -38.1145   57.5427   61.5401 C   0  0  0  0  0  0  0  0  0  0  0  0
  -37.3557   57.6152   62.8683 C   0  0  0  0  0  0  0  0  0  0  0  0
  -35.8609   57.9199   62.7488 C   0  0  0  0  0  0  0  0  0  0  0  0
  -35.1670   57.8732   64.0770 C   0  0  0  0  0  0  0  0  0  0  0  0
  -34.1196   58.5859   64.4438 C   0  0  0  0  0  0  0  0  0  0  0  0
  -33.4026   59.5968   63.6057 C   0  0  0  0  0  0  0  0  0  0  0  0
  -32.1767   59.0124   62.9099 C   0  0  0  0  0  0  0  0  0  0  0  0
  -31.0350   60.0016   62.7542 C   0  0  0  0  0  0  0  0  0  0  0  0
  -31.0723   60.7754   61.4477 C   0  0  0  0  0  0  0  0  0  0  0  0
  -30.9287   62.2803   61.6028 C   0  0  0  0  0  0  0  0  0  0  0  0
  -32.2458   63.0306   61.4763 C   0  0  0  0  0  0  0  0  0  0  0  0
  -32.8116   63.5208   62.7943 C   0  0  0  0  0  0  0  0  0  0  0  0
  -33.3878   64.9060   62.7007 C   0  0  0  0  0  0  0  0  0  0  0  0
 21 22  1  0  0  0
  4  5  2  0  0  0
 25 24  1  0  0  0
 25 26  2  0  0  0
 25 27  1  0  0  0
 25 29  1  0  0  0
 22 20  1  0  0  0
  3  5  1  0  0  0
  3  2  1  0  0  0
 20 19  1  0  0  0
 24 23  1  0  0  0
 19 18  1  0  0  0
 18 17  1  0  0  0
 27 28  1  0  0  0
 17 16  1  0  0  0
 29 30  1  0  0  0
 16 15  1  0  0  0
 34 35  1  0  0  0
 34 36  1  0  0  0
 15 14  1  0  0  0
 31 32  1  0  0  0
 31 33  1  0  0  0
 14 13  1  0  0  0
 37  1  1  0  0  0
 37 39  1  0  0  0
 13 12  1  0  0  0
 38 39  2  0  0  0
 12 11  1  0  0  0
 11 10  1  0  0  0
 10  9  1  0  0  0
  9  8  1  0  0  0
  8  7  1  0  0  0
  7  6  1  0  0  0
  6  5  1  0  0  0
  2  1  1  0  0  0
  1 23  1  0  0  0
 30 32  1  0  0  0
 32 35  1  0  0  0
 39 40  1  0  0  0
 40 41  1  0  0  0
 41 42  1  0  0  0
 42 43  1  0  0  0
 43 44  1  0  0  0
 44 45  1  0  0  0
 45 46  1  0  0  0
 46 47  1  0  0  0
 47 48  2  0  0  0
 48 49  1  0  0  0
 49 50  1  0  0  0
 50 51  1  0  0  0
 51 52  1  0  0  0
 52 53  1  0  0  0
 53 54  1  0  0  0
 54 55  1  0  0  0
 55 56  1  0  0  0
M  CHG 1  26  -1
M  END
> <minimizedAffinity>
-8.58888

> <CNNscore>
0.3125786781

> <CNNaffinity>
7.0121903419

> <CNN_VS>
2.1918611526

> <CNNaffinity_variance>
0.9590846896

$$$$
/media/chris/experiments/cd1a-new-docking/inputs/ligands/7sh4_ligand.pdb


 56 55  0  0  0  0  0  0  0  0999 V2000
  -35.6362   62.1739   65.2765 C   0  0  0  0  0  0  0  0  0  0  0  0
  -36.9555   62.8550   65.0460 C   0  0  0  0  0  0  0  0  0  0  0  0
  -37.9274   61.8025   65.2219 O   0  0  0  0  0  0  0  0  0  0  0  0
  -38.1770   61.6064   63.0088 O   0  0  0  0  0  0  0  0  0  0  0  0
  -38.5452   61.3613   64.1258 C   0  0  0  0  0  0  0  0  0  0  0  0
  -39.6689   60.4284   64.4747 C   0  0  0  0  0  0  0  0  0  0  0  0
  -40.8351   60.4705   63.5017 C   0  0  0  0  0  0  0  0  0  0  0  0
  -42.0461   61.1810   64.0684 C   0  0  0  0  0  0  0  0  0  0  0  0
  -43.3574   60.7666   63.4403 C   0  0  0  0  0  0  0  0  0  0  0  0
  -44.5627   61.1533   64.2733 C   0  0  0  0  0  0  0  0  0  0  0  0
  -45.4959   59.9977   64.5401 C   0  0  0  0  0  0  0  0  0  0  0  0
  -46.8666   60.4380   64.9812 C   0  0  0  0  0  0  0  0  0  0  0  0
  -47.8916   60.4149   63.8690 C   0  0  0  0  0  0  0  0  0  0  0  0
  -49.2557   60.8965   64.3201 C   0  0  0  0  0  0  0  0  0  0  0  0
  -50.3885   59.9507   63.9799 C   0  0  0  0  0  0  0  0  0  0  0  0
  -50.5293   59.6693   62.4882 C   0  0  0  0  0  0  0  0  0  0  0  0
  -50.8418   58.2217   62.1611 C   0  0  0  0  0  0  0  0  0  0  0  0
  -50.6862   57.8896   60.6912 C   0  0  0  0  0  0  0  0  0  0  0  0
  -49.2569   57.5533   60.2895 C   0  0  0  0  0  0  0  0  0  0  0  0
  -49.0145   57.6211   58.7923 C   0  0  0  0  0  0  0  0  0  0  0  0
  -47.1872   57.9623   57.0951 C   0  0  0  0  0  0  0  0  0  0  0  0
  -47.8144   58.4525   58.3805 C   0  0  0  0  0  0  0  0  0  0  0  0
  -34.7445   62.9644   66.1992 C   0  0  0  0  0  0  0  0  0  0  0  0
  -34.6843   64.3302   65.7307 O   0  0  0  0  0  0  0  0  0  0  0  0
  -33.3963   64.9417   65.0034 P   0  0  0  0  0  0  0  0  0  0  0  0
  -32.8597   66.0242   65.8561 O   0  0  0  0  0  0  0  0  0  0  0  0
  -32.5016   63.8202   64.6289 O   0  0  0  0  0  0  0  0  0  0  0  0
  -32.1546   63.4013   65.4321 H   0  0  0  0  0  0  0  0  0  0  0  0
  -33.9439   65.6014   63.6589 O   0  0  0  0  0  0  0  0  0  0  0  0
  -33.2656   65.3611   62.4090 C   0  0  0  0  0  0  0  0  0  0  0  0
  -33.7366   63.1939   61.5012 O   0  0  0  0  0  0  0  0  0  0  0  0
  -34.1793   64.5543   61.5194 C   0  0  0  0  0  0  0  0  0  0  0  0
  -32.8097   63.1594   61.2171 H   0  0  0  0  0  0  0  0  0  0  0  0
  -36.2885   63.3983   61.7008 O   0  0  0  0  0  0  0  0  0  0  0  0
  -35.6217   64.6270   61.9598 C   0  0  0  0  0  0  0  0  0  0  0  0
  -37.2121   63.4644   61.9900 H   0  0  0  0  0  0  0  0  0  0  0  0
  -35.0015   61.9447   63.9747 O   0  0  0  0  0  0  0  0  0  0  0  0
  -33.5683   60.5023   63.0127 O   0  0  0  0  0  0  0  0  0  0  0  0
  -34.4885   60.7192   63.7528 C   0  0  0  0  0  0  0  0  0  0  0  0
  -35.1898   59.6650   64.5519 C   0  0  0  0  0  0  0  0  0  0  0  0
  -34.7078   58.2670   64.1776 C   0  0  0  0  0  0  0  0  0  0  0  0
  -35.6620   57.5086   63.2696 C   0  0  0  0  0  0  0  0  0  0  0  0
  -37.1320   57.7890   63.5596 C   0  0  0  0  0  0  0  0  0  0  0  0
  -37.9900   57.9316   62.3162 C   0  0  0  0  0  0  0  0  0  0  0  0
  -37.2929   58.6155   61.1366 C   0  0  0  0  0  0  0  0  0  0  0  0
  -38.2204   59.3628   60.1760 C   0  0  0  0  0  0  0  0  0  0  0  0
  -38.9212   58.4339   59.2304 C   0  0  0  0  0  0  0  0  0  0  0  0
  -40.2172   58.1953   59.1767 C   0  0  0  0  0  0  0  0  0  0  0  0
  -41.2644   58.8074   60.0526 C   0  0  0  0  0  0  0  0  0  0  0  0
  -41.7729   57.8386   61.1163 C   0  0  0  0  0  0  0  0  0  0  0  0
  -41.2049   56.4363   60.9849 C   0  0  0  0  0  0  0  0  0  0  0  0
  -41.0553   55.7121   62.3116 C   0  0  0  0  0  0  0  0  0  0  0  0
  -41.9565   56.2333   63.4187 C   0  0  0  0  0  0  0  0  0  0  0  0
  -41.2081   56.9999   64.4984 C   0  0  0  0  0  0  0  0  0  0  0  0
  -42.1020   57.6224   65.5525 C   0  0  0  0  0  0  0  0  0  0  0  0
  -43.5443   57.2279   65.3986 C   0  0  0  0  0  0  0  0  0  0  0  0
 21 22  1  0  0  0
  4  5  2  0  0  0
 25 24  1  0  0  0
 25 26  2  0  0  0
 25 27  1  0  0  0
 25 29  1  0  0  0
 22 20  1  0  0  0
  3  5  1  0  0  0
  3  2  1  0  0  0
 20 19  1  0  0  0
 24 23  1  0  0  0
 19 18  1  0  0  0
 18 17  1  0  0  0
 27 28  1  0  0  0
 17 16  1  0  0  0
 29 30  1  0  0  0
 16 15  1  0  0  0
 34 35  1  0  0  0
 34 36  1  0  0  0
 15 14  1  0  0  0
 31 32  1  0  0  0
 31 33  1  0  0  0
 14 13  1  0  0  0
 37  1  1  0  0  0
 37 39  1  0  0  0
 13 12  1  0  0  0
 38 39  2  0  0  0
 12 11  1  0  0  0
 11 10  1  0  0  0
 10  9  1  0  0  0
  9  8  1  0  0  0
  8  7  1  0  0  0
  7  6  1  0  0  0
  6  5  1  0  0  0
  2  1  1  0  0  0
  1 23  1  0  0  0
 30 32  1  0  0  0
 32 35  1  0  0  0
 39 40  1  0  0  0
 40 41  1  0  0  0
 41 42  1  0  0  0
 42 43  1  0  0  0
 43 44  1  0  0  0
 44 45  1  0  0  0
 45 46  1  0  0  0
 46 47  1  0  0  0
 47 48  2  0  0  0
 48 49  1  0  0  0
 49 50  1  0  0  0
 50 51  1  0  0  0
 51 52  1  0  0  0
 52 53  1  0  0  0
 53 54  1  0  0  0
 54 55  1  0  0  0
 55 56  1  0  0  0
M  CHG 1  26  -1
M  END
> <minimizedAffinity>
-8.05454

> <CNNscore>
0.2646817565

> <CNNaffinity>
7.3183684349

> <CNN_VS>
1.9370386600

> <CNNaffinity_variance>
0.9297361374

$$$$
/media/chris/experiments/cd1a-new-docking/inputs/ligands/7sh4_ligand.pdb


 56 55  0  0  0  0  0  0  0  0999 V2000
  -40.2774   60.0807   65.3028 C   0  0  0  0  0  0  0  0  0  0  0  0
  -41.3446   60.2032   66.3534 C   0  0  0  0  0  0  0  0  0  0  0  0
  -41.8717   58.8650   66.4735 O   0  0  0  0  0  0  0  0  0  0  0  0
  -43.6135   57.5710   65.9344 O   0  0  0  0  0  0  0  0  0  0  0  0
  -43.1020   58.6559   66.0039 C   0  0  0  0  0  0  0  0  0  0  0  0
  -43.7941   59.9531   65.6989 C   0  0  0  0  0  0  0  0  0  0  0  0
  -44.5852   59.9442   64.4018 C   0  0  0  0  0  0  0  0  0  0  0  0
  -45.5856   61.0777   64.3174 C   0  0  0  0  0  0  0  0  0  0  0  0
  -47.0298   60.6305   64.3207 C   0  0  0  0  0  0  0  0  0  0  0  0
  -47.1848   59.1258   64.4101 C   0  0  0  0  0  0  0  0  0  0  0  0
  -48.0082   58.6829   65.5947 C   0  0  0  0  0  0  0  0  0  0  0  0
  -49.1299   59.6334   65.9200 C   0  0  0  0  0  0  0  0  0  0  0  0
  -50.4400   59.2643   65.2600 C   0  0  0  0  0  0  0  0  0  0  0  0
  -50.9209   60.3185   64.2834 C   0  0  0  0  0  0  0  0  0  0  0  0
  -50.8746   59.8846   62.8333 C   0  0  0  0  0  0  0  0  0  0  0  0
  -50.8436   58.3722   62.6435 C   0  0  0  0  0  0  0  0  0  0  0  0
  -50.7186   57.9354   61.1965 C   0  0  0  0  0  0  0  0  0  0  0  0
  -49.7218   56.8133   60.9904 C   0  0  0  0  0  0  0  0  0  0  0  0
  -48.9457   56.9186   59.6850 C   0  0  0  0  0  0  0  0  0  0  0  0
  -48.3084   58.2789   59.4650 C   0  0  0  0  0  0  0  0  0  0  0  0
  -46.8529   57.6327   57.5157 C   0  0  0  0  0  0  0  0  0  0  0  0
  -47.9200   58.5731   58.0285 C   0  0  0  0  0  0  0  0  0  0  0  0
  -38.9024   60.3497   65.8584 C   0  0  0  0  0  0  0  0  0  0  0  0
  -38.5211   61.7023   65.5218 O   0  0  0  0  0  0  0  0  0  0  0  0
  -37.3188   62.0411   64.5211 P   0  0  0  0  0  0  0  0  0  0  0  0
  -36.1594   61.2042   64.8984 O   0  0  0  0  0  0  0  0  0  0  0  0
  -37.8356   61.9584   63.1338 O   0  0  0  0  0  0  0  0  0  0  0  0
  -38.0726   61.0398   62.9312 H   0  0  0  0  0  0  0  0  0  0  0  0
  -36.9418   63.5626   64.8135 O   0  0  0  0  0  0  0  0  0  0  0  0
  -35.5579   63.9619   64.8867 C   0  0  0  0  0  0  0  0  0  0  0  0
  -36.4517   64.3579   67.0746 O   0  0  0  0  0  0  0  0  0  0  0  0
  -35.2368   64.3044   66.3208 C   0  0  0  0  0  0  0  0  0  0  0  0
  -37.0591   64.9931   66.6640 H   0  0  0  0  0  0  0  0  0  0  0  0
  -32.9512   63.8288   66.9274 O   0  0  0  0  0  0  0  0  0  0  0  0
  -34.2785   63.3195   66.9463 C   0  0  0  0  0  0  0  0  0  0  0  0
  -32.3513   63.1832   67.3328 H   0  0  0  0  0  0  0  0  0  0  0  0
  -40.6053   60.9934   64.2031 O   0  0  0  0  0  0  0  0  0  0  0  0
  -41.5861   61.0738   62.1803 O   0  0  0  0  0  0  0  0  0  0  0  0
  -41.1021   60.4419   63.0793 C   0  0  0  0  0  0  0  0  0  0  0  0
  -40.9619   58.9512   63.0772 C   0  0  0  0  0  0  0  0  0  0  0  0
  -42.0200   58.2915   62.1985 C   0  0  0  0  0  0  0  0  0  0  0  0
  -41.4500   57.3589   61.1423 C   0  0  0  0  0  0  0  0  0  0  0  0
  -41.4114   57.9699   59.7462 C   0  0  0  0  0  0  0  0  0  0  0  0
  -40.0113   58.2578   59.2372 C   0  0  0  0  0  0  0  0  0  0  0  0
  -39.4578   59.6285   59.6370 C   0  0  0  0  0  0  0  0  0  0  0  0
  -38.3285   59.5993   60.6692 C   0  0  0  0  0  0  0  0  0  0  0  0
  -37.7346   58.2307   60.8180 C   0  0  0  0  0  0  0  0  0  0  0  0
  -37.4751   57.6035   61.9489 C   0  0  0  0  0  0  0  0  0  0  0  0
  -37.7230   58.1302   63.3271 C   0  0  0  0  0  0  0  0  0  0  0  0
  -36.6233   57.7346   64.3082 C   0  0  0  0  0  0  0  0  0  0  0  0
  -35.2268   58.1040   63.8396 C   0  0  0  0  0  0  0  0  0  0  0  0
  -34.2089   58.1894   64.9638 C   0  0  0  0  0  0  0  0  0  0  0  0
  -32.8891   58.8322   64.5708 C   0  0  0  0  0  0  0  0  0  0  0  0
  -32.4881   58.5596   63.1292 C   0  0  0  0  0  0  0  0  0  0  0  0
  -32.4076   59.7993   62.2608 C   0  0  0  0  0  0  0  0  0  0  0  0
  -32.7975   61.0509   62.9963 C   0  0  0  0  0  0  0  0  0  0  0  0
 21 22  1  0  0  0
  4  5  2  0  0  0
 25 24  1  0  0  0
 25 26  2  0  0  0
 25 27  1  0  0  0
 25 29  1  0  0  0
 22 20  1  0  0  0
  3  5  1  0  0  0
  3  2  1  0  0  0
 20 19  1  0  0  0
 24 23  1  0  0  0
 19 18  1  0  0  0
 18 17  1  0  0  0
 27 28  1  0  0  0
 17 16  1  0  0  0
 29 30  1  0  0  0
 16 15  1  0  0  0
 34 35  1  0  0  0
 34 36  1  0  0  0
 15 14  1  0  0  0
 31 32  1  0  0  0
 31 33  1  0  0  0
 14 13  1  0  0  0
 37  1  1  0  0  0
 37 39  1  0  0  0
 13 12  1  0  0  0
 38 39  2  0  0  0
 12 11  1  0  0  0
 11 10  1  0  0  0
 10  9  1  0  0  0
  9  8  1  0  0  0
  8  7  1  0  0  0
  7  6  1  0  0  0
  6  5  1  0  0  0
  2  1  1  0  0  0
  1 23  1  0  0  0
 30 32  1  0  0  0
 32 35  1  0  0  0
 39 40  1  0  0  0
 40 41  1  0  0  0
 41 42  1  0  0  0
 42 43  1  0  0  0
 43 44  1  0  0  0
 44 45  1  0  0  0
 45 46  1  0  0  0
 46 47  1  0  0  0
 47 48  2  0  0  0
 48 49  1  0  0  0
 49 50  1  0  0  0
 50 51  1  0  0  0
 51 52  1  0  0  0
 52 53  1  0  0  0
 53 54  1  0  0  0
 54 55  1  0  0  0
 55 56  1  0  0  0
M  CHG 1  26  -1
M  END
> <minimizedAffinity>
-8.54375

> <CNNscore>
0.2641855180

> <CNNaffinity>
7.2510423660

> <CNN_VS>
1.9156203270

> <CNNaffinity_variance>
1.4511444569

$$$$
/media/chris/experiments/cd1a-new-docking/inputs/ligands/7sh4_ligand.pdb


 56 55  0  0  0  0  0  0  0  0999 V2000
  -36.7673   62.4002   64.2737 C   0  0  0  0  0  0  0  0  0  0  0  0
  -35.9060   61.2050   64.5690 C   0  0  0  0  0  0  0  0  0  0  0  0
  -35.1014   61.0522   63.3806 O   0  0  0  0  0  0  0  0  0  0  0  0
  -32.9705   60.7268   62.7871 O   0  0  0  0  0  0  0  0  0  0  0  0
  -33.8871   60.5242   63.5369 C   0  0  0  0  0  0  0  0  0  0  0  0
  -33.7902   59.7581   64.8247 C   0  0  0  0  0  0  0  0  0  0  0  0
  -33.5830   58.2639   64.6438 C   0  0  0  0  0  0  0  0  0  0  0  0
  -34.7257   57.5986   63.9059 C   0  0  0  0  0  0  0  0  0  0  0  0
  -36.0416   57.6244   64.6498 C   0  0  0  0  0  0  0  0  0  0  0  0
  -37.2302   57.8769   63.7444 C   0  0  0  0  0  0  0  0  0  0  0  0
  -36.8354   58.2646   62.3404 C   0  0  0  0  0  0  0  0  0  0  0  0
  -37.8612   57.8708   61.3107 C   0  0  0  0  0  0  0  0  0  0  0  0
  -37.7629   58.6688   60.0294 C   0  0  0  0  0  0  0  0  0  0  0  0
  -39.1029   58.8417   59.3434 C   0  0  0  0  0  0  0  0  0  0  0  0
  -40.1422   57.8181   59.7503 C   0  0  0  0  0  0  0  0  0  0  0  0
  -41.4346   58.4293   60.2798 C   0  0  0  0  0  0  0  0  0  0  0  0
  -42.0063   57.7111   61.4871 C   0  0  0  0  0  0  0  0  0  0  0  0
  -40.9800   56.8906   62.2412 C   0  0  0  0  0  0  0  0  0  0  0  0
  -41.1653   56.9205   63.7519 C   0  0  0  0  0  0  0  0  0  0  0  0
  -42.5464   57.3780   64.1858 C   0  0  0  0  0  0  0  0  0  0  0  0
  -42.0202   58.6669   66.2829 C   0  0  0  0  0  0  0  0  0  0  0  0
  -42.7394   57.4779   65.6871 C   0  0  0  0  0  0  0  0  0  0  0  0
  -36.4682   63.5552   65.1947 C   0  0  0  0  0  0  0  0  0  0  0  0
  -35.5295   63.1159   66.2018 O   0  0  0  0  0  0  0  0  0  0  0  0
  -34.0532   63.7198   66.3339 P   0  0  0  0  0  0  0  0  0  0  0  0
  -34.1736   65.1687   66.6042 O   0  0  0  0  0  0  0  0  0  0  0  0
  -33.2937   62.8778   67.2892 O   0  0  0  0  0  0  0  0  0  0  0  0
  -33.6766   62.9687   68.1757 H   0  0  0  0  0  0  0  0  0  0  0  0
  -33.3938   63.5424   64.8929 O   0  0  0  0  0  0  0  0  0  0  0  0
  -33.2934   64.6716   64.0013 C   0  0  0  0  0  0  0  0  0  0  0  0
  -31.4494   63.2709   63.3845 O   0  0  0  0  0  0  0  0  0  0  0  0
  -32.2794   64.3452   62.9326 C   0  0  0  0  0  0  0  0  0  0  0  0
  -31.0393   63.5128   64.2297 H   0  0  0  0  0  0  0  0  0  0  0  0
  -34.2234   63.4418   61.8268 O   0  0  0  0  0  0  0  0  0  0  0  0
  -32.9266   63.9855   61.6167 C   0  0  0  0  0  0  0  0  0  0  0  0
  -34.6224   63.2174   60.9715 H   0  0  0  0  0  0  0  0  0  0  0  0
  -38.1722   61.9891   64.3592 O   0  0  0  0  0  0  0  0  0  0  0  0
  -38.2344   61.4344   62.1800 O   0  0  0  0  0  0  0  0  0  0  0  0
  -38.6896   61.3567   63.2884 C   0  0  0  0  0  0  0  0  0  0  0  0
  -39.8866   60.5325   63.6485 C   0  0  0  0  0  0  0  0  0  0  0  0
  -41.1470   61.0471   62.9604 C   0  0  0  0  0  0  0  0  0  0  0  0
  -42.3017   61.3170   63.9112 C   0  0  0  0  0  0  0  0  0  0  0  0
  -43.6306   60.7415   63.4353 C   0  0  0  0  0  0  0  0  0  0  0  0
  -44.7521   60.8572   64.4509 C   0  0  0  0  0  0  0  0  0  0  0  0
  -45.7035   59.6578   64.4882 C   0  0  0  0  0  0  0  0  0  0  0  0
  -47.1761   60.0014   64.7225 C   0  0  0  0  0  0  0  0  0  0  0  0
  -48.0408   58.7776   64.7719 C   0  0  0  0  0  0  0  0  0  0  0  0
  -49.3315   58.7141   64.5082 C   0  0  0  0  0  0  0  0  0  0  0  0
  -50.2062   59.8573   64.1006 C   0  0  0  0  0  0  0  0  0  0  0  0
  -51.0378   59.5411   62.8609 C   0  0  0  0  0  0  0  0  0  0  0  0
  -50.3840   58.5366   61.9284 C   0  0  0  0  0  0  0  0  0  0  0  0
  -49.6177   59.1761   60.7835 C   0  0  0  0  0  0  0  0  0  0  0  0
  -49.6063   58.3615   59.5006 C   0  0  0  0  0  0  0  0  0  0  0  0
  -48.2122   58.1479   58.9311 C   0  0  0  0  0  0  0  0  0  0  0  0
  -48.1946   57.6486   57.5000 C   0  0  0  0  0  0  0  0  0  0  0  0
  -47.2259   56.5184   57.2903 C   0  0  0  0  0  0  0  0  0  0  0  0
 21 22  1  0  0  0
  4  5  2  0  0  0
 25 24  1  0  0  0
 25 26  2  0  0  0
 25 27  1  0  0  0
 25 29  1  0  0  0
 22 20  1  0  0  0
  3  5  1  0  0  0
  3  2  1  0  0  0
 20 19  1  0  0  0
 24 23  1  0  0  0
 19 18  1  0  0  0
 18 17  1  0  0  0
 27 28  1  0  0  0
 17 16  1  0  0  0
 29 30  1  0  0  0
 16 15  1  0  0  0
 34 35  1  0  0  0
 34 36  1  0  0  0
 15 14  1  0  0  0
 31 32  1  0  0  0
 31 33  1  0  0  0
 14 13  1  0  0  0
 37  1  1  0  0  0
 37 39  1  0  0  0
 13 12  1  0  0  0
 38 39  2  0  0  0
 12 11  1  0  0  0
 11 10  1  0  0  0
 10  9  1  0  0  0
  9  8  1  0  0  0
  8  7  1  0  0  0
  7  6  1  0  0  0
  6  5  1  0  0  0
  2  1  1  0  0  0
  1 23  1  0  0  0
 30 32  1  0  0  0
 32 35  1  0  0  0
 39 40  1  0  0  0
 40 41  1  0  0  0
 41 42  1  0  0  0
 42 43  1  0  0  0
 43 44  1  0  0  0
 44 45  1  0  0  0
 45 46  1  0  0  0
 46 47  1  0  0  0
 47 48  2  0  0  0
 48 49  1  0  0  0
 49 50  1  0  0  0
 50 51  1  0  0  0
 51 52  1  0  0  0
 52 53  1  0  0  0
 53 54  1  0  0  0
 54 55  1  0  0  0
 55 56  1  0  0  0
M  CHG 1  26  -1
M  END
> <minimizedAffinity>
-8.00803

> <CNNscore>
0.2485510111

> <CNNaffinity>
7.1946077347

> <CNN_VS>
1.7882270813

> <CNNaffinity_variance>
0.8804818988

$$$$
/media/chris/experiments/cd1a-new-docking/inputs/ligands/7sh4_ligand.pdb


 56 55  0  0  0  0  0  0  0  0999 V2000
  -41.2870   59.3800   61.8415 C   0  0  0  0  0  0  0  0  0  0  0  0
  -41.7209   60.7375   62.3178 C   0  0  0  0  0  0  0  0  0  0  0  0
  -42.9538   60.4823   63.0234 O   0  0  0  0  0  0  0  0  0  0  0  0
  -42.7473   62.4205   64.1188 O   0  0  0  0  0  0  0  0  0  0  0  0
  -43.3679   61.4210   63.8750 C   0  0  0  0  0  0  0  0  0  0  0  0
  -44.7500   61.1232   64.3809 C   0  0  0  0  0  0  0  0  0  0  0  0
  -44.9926   59.6569   64.6965 C   0  0  0  0  0  0  0  0  0  0  0  0
  -45.0355   59.3767   66.1840 C   0  0  0  0  0  0  0  0  0  0  0  0
  -46.3924   58.9473   66.6943 C   0  0  0  0  0  0  0  0  0  0  0  0
  -47.3243   58.4909   65.5900 C   0  0  0  0  0  0  0  0  0  0  0  0
  -48.6703   59.1723   65.6293 C   0  0  0  0  0  0  0  0  0  0  0  0
  -48.6481   60.5538   65.0305 C   0  0  0  0  0  0  0  0  0  0  0  0
  -49.8397   60.8435   64.1448 C   0  0  0  0  0  0  0  0  0  0  0  0
  -50.7979   59.6734   64.0515 C   0  0  0  0  0  0  0  0  0  0  0  0
  -51.0145   59.1628   62.6423 C   0  0  0  0  0  0  0  0  0  0  0  0
  -50.1133   57.9922   62.2658 C   0  0  0  0  0  0  0  0  0  0  0  0
  -50.3680   57.4408   60.8761 C   0  0  0  0  0  0  0  0  0  0  0  0
  -50.2005   58.4723   59.7793 C   0  0  0  0  0  0  0  0  0  0  0  0
  -48.9676   58.2491   58.9147 C   0  0  0  0  0  0  0  0  0  0  0  0
  -48.3739   56.8584   59.0504 C   0  0  0  0  0  0  0  0  0  0  0  0
  -46.7745   57.7828   57.3406 C   0  0  0  0  0  0  0  0  0  0  0  0
  -47.2439   56.5536   58.0853 C   0  0  0  0  0  0  0  0  0  0  0  0
  -41.0091   59.3618   60.3603 C   0  0  0  0  0  0  0  0  0  0  0  0
  -39.8649   58.5148   60.1121 O   0  0  0  0  0  0  0  0  0  0  0  0
  -38.3737   59.0842   59.9928 P   0  0  0  0  0  0  0  0  0  0  0  0
  -37.9084   58.8622   58.6068 O   0  0  0  0  0  0  0  0  0  0  0  0
  -38.3617   60.4639   60.5358 O   0  0  0  0  0  0  0  0  0  0  0  0
  -38.8917   61.0411   59.9641 H   0  0  0  0  0  0  0  0  0  0  0  0
  -37.4940   58.1699   60.9585 O   0  0  0  0  0  0  0  0  0  0  0  0
  -37.9978   57.7995   62.2582 C   0  0  0  0  0  0  0  0  0  0  0  0
  -37.2683   57.5027   64.5214 O   0  0  0  0  0  0  0  0  0  0  0  0
  -36.9630   58.1687   63.2925 C   0  0  0  0  0  0  0  0  0  0  0  0
  -38.1707   57.7289   64.7961 H   0  0  0  0  0  0  0  0  0  0  0  0
  -34.8355   59.0070   62.5247 O   0  0  0  0  0  0  0  0  0  0  0  0
  -35.5604   57.8277   62.8495 C   0  0  0  0  0  0  0  0  0  0  0  0
  -33.9386   58.7679   62.2430 H   0  0  0  0  0  0  0  0  0  0  0  0
  -42.3218   58.4090   62.2104 O   0  0  0  0  0  0  0  0  0  0  0  0
  -41.3957   56.3614   62.1113 O   0  0  0  0  0  0  0  0  0  0  0  0
  -41.9044   57.2453   62.7450 C   0  0  0  0  0  0  0  0  0  0  0  0
  -42.1335   57.1937   64.2238 C   0  0  0  0  0  0  0  0  0  0  0  0
  -41.0204   57.9047   64.9869 C   0  0  0  0  0  0  0  0  0  0  0  0
  -41.5195   58.9311   65.9906 C   0  0  0  0  0  0  0  0  0  0  0  0
  -40.7268   60.2331   65.9767 C   0  0  0  0  0  0  0  0  0  0  0  0
  -39.4247   60.1544   65.2016 C   0  0  0  0  0  0  0  0  0  0  0  0
  -38.2795   60.9798   65.7950 C   0  0  0  0  0  0  0  0  0  0  0  0
  -37.0651   61.1603   64.8816 C   0  0  0  0  0  0  0  0  0  0  0  0
  -37.4133   61.8836   63.6154 C   0  0  0  0  0  0  0  0  0  0  0  0
  -36.9443   63.0516   63.2212 C   0  0  0  0  0  0  0  0  0  0  0  0
  -35.9595   63.9020   63.9597 C   0  0  0  0  0  0  0  0  0  0  0  0
  -34.5158   63.5796   63.5856 C   0  0  0  0  0  0  0  0  0  0  0  0
  -33.7893   62.7433   64.6243 C   0  0  0  0  0  0  0  0  0  0  0  0
  -34.2227   63.0316   66.0512 C   0  0  0  0  0  0  0  0  0  0  0  0
  -33.1862   63.7622   66.8887 C   0  0  0  0  0  0  0  0  0  0  0  0
  -33.2200   65.2725   66.7120 C   0  0  0  0  0  0  0  0  0  0  0  0
  -32.1612   65.8126   65.7713 C   0  0  0  0  0  0  0  0  0  0  0  0
  -32.7461   66.5510   64.5999 C   0  0  0  0  0  0  0  0  0  0  0  0
 21 22  1  0  0  0
  4  5  2  0  0  0
 25 24  1  0  0  0
 25 26  2  0  0  0
 25 27  1  0  0  0
 25 29  1  0  0  0
 22 20  1  0  0  0
  3  5  1  0  0  0
  3  2  1  0  0  0
 20 19  1  0  0  0
 24 23  1  0  0  0
 19 18  1  0  0  0
 18 17  1  0  0  0
 27 28  1  0  0  0
 17 16  1  0  0  0
 29 30  1  0  0  0
 16 15  1  0  0  0
 34 35  1  0  0  0
 34 36  1  0  0  0
 15 14  1  0  0  0
 31 32  1  0  0  0
 31 33  1  0  0  0
 14 13  1  0  0  0
 37  1  1  0  0  0
 37 39  1  0  0  0
 13 12  1  0  0  0
 38 39  2  0  0  0
 12 11  1  0  0  0
 11 10  1  0  0  0
 10  9  1  0  0  0
  9  8  1  0  0  0
  8  7  1  0  0  0
  7  6  1  0  0  0
  6  5  1  0  0  0
  2  1  1  0  0  0
  1 23  1  0  0  0
 30 32  1  0  0  0
 32 35  1  0  0  0
 39 40  1  0  0  0
 40 41  1  0  0  0
 41 42  1  0  0  0
 42 43  1  0  0  0
 43 44  1  0  0  0
 44 45  1  0  0  0
 45 46  1  0  0  0
 46 47  1  0  0  0
 47 48  2  0  0  0
 48 49  1  0  0  0
 49 50  1  0  0  0
 50 51  1  0  0  0
 51 52  1  0  0  0
 52 53  1  0  0  0
 53 54  1  0  0  0
 54 55  1  0  0  0
 55 56  1  0  0  0
M  CHG 1  26  -1
M  END
> <minimizedAffinity>
-7.91200

> <CNNscore>
0.2165256590

> <CNNaffinity>
6.9464464188

> <CNN_VS>
1.5040838718

> <CNNaffinity_variance>
1.3524993658

$$$$
/media/chris/experiments/cd1a-new-docking/inputs/ligands/7sh4_ligand.pdb


 56 55  0  0  0  0  0  0  0  0999 V2000
  -42.5408   60.0699   63.0568 C   0  0  0  0  0  0  0  0  0  0  0  0
  -42.8950   58.6195   63.2251 C   0  0  0  0  0  0  0  0  0  0  0  0
  -41.6210   57.9422   63.1874 O   0  0  0  0  0  0  0  0  0  0  0  0
  -42.2006   55.9135   63.9271 O   0  0  0  0  0  0  0  0  0  0  0  0
  -41.6463   56.6108   63.1208 C   0  0  0  0  0  0  0  0  0  0  0  0
  -41.0072   56.1185   61.8543 C   0  0  0  0  0  0  0  0  0  0  0  0
  -41.0750   57.1053   60.7010 C   0  0  0  0  0  0  0  0  0  0  0  0
  -39.7142   57.6377   60.3041 C   0  0  0  0  0  0  0  0  0  0  0  0
  -38.6582   57.4997   61.3772 C   0  0  0  0  0  0  0  0  0  0  0  0
  -37.5908   58.5726   61.3007 C   0  0  0  0  0  0  0  0  0  0  0  0
  -36.3948   58.2839   62.1745 C   0  0  0  0  0  0  0  0  0  0  0  0
  -36.7498   57.5253   63.4259 C   0  0  0  0  0  0  0  0  0  0  0  0
  -35.7440   57.7035   64.5417 C   0  0  0  0  0  0  0  0  0  0  0  0
  -34.8738   58.9298   64.3550 C   0  0  0  0  0  0  0  0  0  0  0  0
  -33.3949   58.6750   64.5585 C   0  0  0  0  0  0  0  0  0  0  0  0
  -32.6190   58.4803   63.2608 C   0  0  0  0  0  0  0  0  0  0  0  0
  -31.5828   59.5556   62.9954 C   0  0  0  0  0  0  0  0  0  0  0  0
  -32.0086   60.5539   61.9384 C   0  0  0  0  0  0  0  0  0  0  0  0
  -31.5536   61.9780   62.2255 C   0  0  0  0  0  0  0  0  0  0  0  0
  -32.3108   63.0291   61.4338 C   0  0  0  0  0  0  0  0  0  0  0  0
  -33.4398   65.2623   61.7065 C   0  0  0  0  0  0  0  0  0  0  0  0
  -32.2028   64.4385   61.9844 C   0  0  0  0  0  0  0  0  0  0  0  0
  -41.0866   60.2610   62.7093 C   0  0  0  0  0  0  0  0  0  0  0  0
  -40.4623   61.0562   63.7419 O   0  0  0  0  0  0  0  0  0  0  0  0
  -39.4400   60.4430   64.8100 P   0  0  0  0  0  0  0  0  0  0  0  0
  -39.5273   61.2526   66.0444 O   0  0  0  0  0  0  0  0  0  0  0  0
  -39.6839   58.9831   64.8969 O   0  0  0  0  0  0  0  0  0  0  0  0
  -40.5618   58.8239   65.2775 H   0  0  0  0  0  0  0  0  0  0  0  0
  -37.9910   60.6611   64.1812 O   0  0  0  0  0  0  0  0  0  0  0  0
  -37.6782   61.8929   63.4995 C   0  0  0  0  0  0  0  0  0  0  0  0
  -35.3662   62.2239   62.9629 O   0  0  0  0  0  0  0  0  0  0  0  0
  -36.3416   62.3858   63.9971 C   0  0  0  0  0  0  0  0  0  0  0  0
  -35.3432   61.2955   62.6828 H   0  0  0  0  0  0  0  0  0  0  0  0
  -36.5849   64.6924   63.3347 O   0  0  0  0  0  0  0  0  0  0  0  0
  -36.3909   63.8267   64.4457 C   0  0  0  0  0  0  0  0  0  0  0  0
  -36.6140   65.6119   63.6425 H   0  0  0  0  0  0  0  0  0  0  0  0
  -42.9010   60.7789   64.2886 O   0  0  0  0  0  0  0  0  0  0  0  0
  -42.7949   59.3742   66.0424 O   0  0  0  0  0  0  0  0  0  0  0  0
  -43.4382   60.0440   65.2813 C   0  0  0  0  0  0  0  0  0  0  0  0
  -44.9287   60.1768   65.3335 C   0  0  0  0  0  0  0  0  0  0  0  0
  -45.4885   59.6731   66.6600 C   0  0  0  0  0  0  0  0  0  0  0  0
  -46.9794   59.3788   66.6278 C   0  0  0  0  0  0  0  0  0  0  0  0
  -47.5157   59.1001   65.2284 C   0  0  0  0  0  0  0  0  0  0  0  0
  -48.5042   57.9506   65.1640 C   0  0  0  0  0  0  0  0  0  0  0  0
  -49.9734   58.3772   65.0987 C   0  0  0  0  0  0  0  0  0  0  0  0
  -50.2125   59.8884   65.0723 C   0  0  0  0  0  0  0  0  0  0  0  0
  -51.1263   60.2962   63.9557 C   0  0  0  0  0  0  0  0  0  0  0  0
  -50.8509   60.2772   62.6660 C   0  0  0  0  0  0  0  0  0  0  0  0
  -49.5617   59.8402   62.0451 C   0  0  0  0  0  0  0  0  0  0  0  0
  -49.7491   59.3072   60.6277 C   0  0  0  0  0  0  0  0  0  0  0  0
  -50.3197   57.9008   60.5760 C   0  0  0  0  0  0  0  0  0  0  0  0
  -49.2629   56.8185   60.4388 C   0  0  0  0  0  0  0  0  0  0  0  0
  -48.0811   57.1997   59.5627 C   0  0  0  0  0  0  0  0  0  0  0  0
  -47.8735   56.2613   58.3838 C   0  0  0  0  0  0  0  0  0  0  0  0
  -46.8970   56.7748   57.3444 C   0  0  0  0  0  0  0  0  0  0  0  0
  -47.0134   58.2564   57.1187 C   0  0  0  0  0  0  0  0  0  0  0  0
 21 22  1  0  0  0
  4  5  2  0  0  0
 25 24  1  0  0  0
 25 26  2  0  0  0
 25 27  1  0  0  0
 25 29  1  0  0  0
 22 20  1  0  0  0
  3  5  1  0  0  0
  3  2  1  0  0  0
 20 19  1  0  0  0
 24 23  1  0  0  0
 19 18  1  0  0  0
 18 17  1  0  0  0
 27 28  1  0  0  0
 17 16  1  0  0  0
 29 30  1  0  0  0
 16 15  1  0  0  0
 34 35  1  0  0  0
 34 36  1  0  0  0
 15 14  1  0  0  0
 31 32  1  0  0  0
 31 33  1  0  0  0
 14 13  1  0  0  0
 37  1  1  0  0  0
 37 39  1  0  0  0
 13 12  1  0  0  0
 38 39  2  0  0  0
 12 11  1  0  0  0
 11 10  1  0  0  0
 10  9  1  0  0  0
  9  8  1  0  0  0
  8  7  1  0  0  0
  7  6  1  0  0  0
  6  5  1  0  0  0
  2  1  1  0  0  0
  1 23  1  0  0  0
 30 32  1  0  0  0
 32 35  1  0  0  0
 39 40  1  0  0  0
 40 41  1  0  0  0
 41 42  1  0  0  0
 42 43  1  0  0  0
 43 44  1  0  0  0
 44 45  1  0  0  0
 45 46  1  0  0  0
 46 47  1  0  0  0
 47 48  2  0  0  0
 48 49  1  0  0  0
 49 50  1  0  0  0
 50 51  1  0  0  0
 51 52  1  0  0  0
 52 53  1  0  0  0
 53 54  1  0  0  0
 54 55  1  0  0  0
 55 56  1  0  0  0
M  CHG 1  26  -1
M  END
> <minimizedAffinity>
-8.23910

> <CNNscore>
0.2124187350

> <CNNaffinity>
7.0315833092

> <CNN_VS>
1.4936400652

> <CNNaffinity_variance>
0.8067731857

$$$$
