/media/chris/experiments/cd1a-new-docking/inputs/ligands/7sh4_ligand.pdb


 56 55  0  0  0  0  0  0  0  0999 V2000
  -40.4263   59.6215   64.8052 C   0  0  0  0  0  0  0  0  0  0  0  0
  -40.4940   58.1424   64.5496 C   0  0  0  0  0  0  0  0  0  0  0  0
  -41.8671   57.9167   64.1665 O   0  0  0  0  0  0  0  0  0  0  0  0
  -42.0865   55.7420   64.6372 O   0  0  0  0  0  0  0  0  0  0  0  0
  -42.4848   56.8725   64.7195 C   0  0  0  0  0  0  0  0  0  0  0  0
  -43.6555   57.3125   65.5506 C   0  0  0  0  0  0  0  0  0  0  0  0
  -44.7306   58.0476   64.7682 C   0  0  0  0  0  0  0  0  0  0  0  0
  -45.4575   59.0824   65.6008 C   0  0  0  0  0  0  0  0  0  0  0  0
  -45.9723   60.2635   64.8097 C   0  0  0  0  0  0  0  0  0  0  0  0
  -47.3992   60.0818   64.3331 C   0  0  0  0  0  0  0  0  0  0  0  0
  -48.4195   60.6768   65.2725 C   0  0  0  0  0  0  0  0  0  0  0  0
  -49.2149   59.6349   66.0137 C   0  0  0  0  0  0  0  0  0  0  0  0
  -50.3297   59.0311   65.1885 C   0  0  0  0  0  0  0  0  0  0  0  0
  -51.0152   60.0476   64.2980 C   0  0  0  0  0  0  0  0  0  0  0  0
  -51.1749   59.6013   62.8598 C   0  0  0  0  0  0  0  0  0  0  0  0
  -50.5058   58.2668   62.5510 C   0  0  0  0  0  0  0  0  0  0  0  0
  -49.9968   58.1476   61.1272 C   0  0  0  0  0  0  0  0  0  0  0  0
  -49.4242   56.7825   60.8051 C   0  0  0  0  0  0  0  0  0  0  0  0
  -48.5500   56.7660   59.5588 C   0  0  0  0  0  0  0  0  0  0  0  0
  -48.1763   58.1505   59.0603 C   0  0  0  0  0  0  0  0  0  0  0  0
  -48.0306   57.4885   56.6362 C   0  0  0  0  0  0  0  0  0  0  0  0
  -47.3371   58.1651   57.7968 C   0  0  0  0  0  0  0  0  0  0  0  0
  -39.2549   59.9922   65.6782 C   0  0  0  0  0  0  0  0  0  0  0  0
  -38.9165   61.3766   65.4393 O   0  0  0  0  0  0  0  0  0  0  0  0
  -37.5115   61.8322   64.8226 P   0  0  0  0  0  0  0  0  0  0  0  0
  -36.4784   60.8803   65.2843 O   0  0  0  0  0  0  0  0  0  0  0  0
  -37.6917   62.0361   63.3649 O   0  0  0  0  0  0  0  0  0  0  0  0
  -37.8821   61.1849   62.9405 H   0  0  0  0  0  0  0  0  0  0  0  0
  -37.2014   63.2511   65.4811 O   0  0  0  0  0  0  0  0  0  0  0  0
  -35.9710   63.9367   65.1712 C   0  0  0  0  0  0  0  0  0  0  0  0
  -36.1167   64.0411   67.5609 O   0  0  0  0  0  0  0  0  0  0  0  0
  -35.2141   64.1606   66.4574 C   0  0  0  0  0  0  0  0  0  0  0  0
  -36.8526   64.6625   67.4456 H   0  0  0  0  0  0  0  0  0  0  0  0
  -33.3892   63.4257   67.8530 O   0  0  0  0  0  0  0  0  0  0  0  0
  -34.0613   63.1994   66.6206 C   0  0  0  0  0  0  0  0  0  0  0  0
  -32.6531   62.7998   67.9396 H   0  0  0  0  0  0  0  0  0  0  0  0
  -41.6987   60.0463   65.3972 O   0  0  0  0  0  0  0  0  0  0  0  0
  -42.5836   62.1114   65.2856 O   0  0  0  0  0  0  0  0  0  0  0  0
  -42.3557   61.0467   64.7795 C   0  0  0  0  0  0  0  0  0  0  0  0
  -42.7506   60.6794   63.3827 C   0  0  0  0  0  0  0  0  0  0  0  0
  -43.0103   61.9181   62.5313 C   0  0  0  0  0  0  0  0  0  0  0  0
  -42.3049   61.8999   61.1852 C   0  0  0  0  0  0  0  0  0  0  0  0
  -41.1603   60.8959   61.1100 C   0  0  0  0  0  0  0  0  0  0  0  0
  -40.9757   60.2723   59.7391 C   0  0  0  0  0  0  0  0  0  0  0  0
  -41.0441   58.7426   59.7211 C   0  0  0  0  0  0  0  0  0  0  0  0
  -39.8300   58.0434   59.1059 C   0  0  0  0  0  0  0  0  0  0  0  0
  -38.5628   58.8139   59.3258 C   0  0  0  0  0  0  0  0  0  0  0  0
  -37.7535   58.7190   60.3629 C   0  0  0  0  0  0  0  0  0  0  0  0
  -37.9321   57.8158   61.5421 C   0  0  0  0  0  0  0  0  0  0  0  0
  -37.1896   58.3172   62.7774 C   0  0  0  0  0  0  0  0  0  0  0  0
  -35.7088   57.9806   62.7769 C   0  0  0  0  0  0  0  0  0  0  0  0
  -35.1216   57.8107   64.1675 C   0  0  0  0  0  0  0  0  0  0  0  0
  -33.7676   58.4720   64.3643 C   0  0  0  0  0  0  0  0  0  0  0  0
  -32.8403   58.3212   63.1680 C   0  0  0  0  0  0  0  0  0  0  0  0
  -32.5445   59.6190   62.4427 C   0  0  0  0  0  0  0  0  0  0  0  0
  -31.1355   60.0967   62.6568 C   0  0  0  0  0  0  0  0  0  0  0  0
 21 22  1  0  0  0
  4  5  2  0  0  0
 25 24  1  0  0  0
 25 26  2  0  0  0
 25 27  1  0  0  0
 25 29  1  0  0  0
 22 20  1  0  0  0
  3  5  1  0  0  0
  3  2  1  0  0  0
 20 19  1  0  0  0
 24 23  1  0  0  0
 19 18  1  0  0  0
 18 17  1  0  0  0
 27 28  1  0  0  0
 17 16  1  0  0  0
 29 30  1  0  0  0
 16 15  1  0  0  0
 34 35  1  0  0  0
 34 36  1  0  0  0
 15 14  1  0  0  0
 31 32  1  0  0  0
 31 33  1  0  0  0
 14 13  1  0  0  0
 37  1  1  0  0  0
 37 39  1  0  0  0
 13 12  1  0  0  0
 38 39  2  0  0  0
 12 11  1  0  0  0
 11 10  1  0  0  0
 10  9  1  0  0  0
  9  8  1  0  0  0
  8  7  1  0  0  0
  7  6  1  0  0  0
  6  5  1  0  0  0
  2  1  1  0  0  0
  1 23  1  0  0  0
 30 32  1  0  0  0
 32 35  1  0  0  0
 39 40  1  0  0  0
 40 41  1  0  0  0
 41 42  1  0  0  0
 42 43  1  0  0  0
 43 44  1  0  0  0
 44 45  1  0  0  0
 45 46  1  0  0  0
 46 47  1  0  0  0
 47 48  2  0  0  0
 48 49  1  0  0  0
 49 50  1  0  0  0
 50 51  1  0  0  0
 51 52  1  0  0  0
 52 53  1  0  0  0
 53 54  1  0  0  0
 54 55  1  0  0  0
 55 56  1  0  0  0
M  CHG 1  26  -1
M  END
> <minimizedAffinity>
-9.26314

> <CNNscore>
0.4868507385

> <CNNaffinity>
7.5741715431

> <CNN_VS>
3.6874909401

> <CNNaffinity_variance>
1.5684955120

$$$$
/media/chris/experiments/cd1a-new-docking/inputs/ligands/7sh4_ligand.pdb


 56 55  0  0  0  0  0  0  0  0999 V2000
  -40.7464   59.8743   65.1100 C   0  0  0  0  0  0  0  0  0  0  0  0
  -40.5105   58.4801   64.6018 C   0  0  0  0  0  0  0  0  0  0  0  0
  -40.7815   58.5735   63.1873 O   0  0  0  0  0  0  0  0  0  0  0  0
  -42.8975   57.9900   62.7612 O   0  0  0  0  0  0  0  0  0  0  0  0
  -41.7195   57.7625   62.6970 C   0  0  0  0  0  0  0  0  0  0  0  0
  -41.1064   56.6097   61.9554 C   0  0  0  0  0  0  0  0  0  0  0  0
  -41.3743   56.6210   60.4599 C   0  0  0  0  0  0  0  0  0  0  0  0
  -41.3063   58.0107   59.8627 C   0  0  0  0  0  0  0  0  0  0  0  0
  -39.9177   58.4374   59.4437 C   0  0  0  0  0  0  0  0  0  0  0  0
  -39.5186   59.7886   60.0013 C   0  0  0  0  0  0  0  0  0  0  0  0
  -38.3073   59.7264   60.8995 C   0  0  0  0  0  0  0  0  0  0  0  0
  -37.6007   58.3978   60.8430 C   0  0  0  0  0  0  0  0  0  0  0  0
  -37.6770   57.6216   62.1390 C   0  0  0  0  0  0  0  0  0  0  0  0
  -36.5509   57.9639   63.0934 C   0  0  0  0  0  0  0  0  0  0  0  0
  -35.2193   58.2096   62.4155 C   0  0  0  0  0  0  0  0  0  0  0  0
  -34.2564   59.0580   63.2383 C   0  0  0  0  0  0  0  0  0  0  0  0
  -32.8013   58.8988   62.8414 C   0  0  0  0  0  0  0  0  0  0  0  0
  -32.0056   60.1839   62.9429 C   0  0  0  0  0  0  0  0  0  0  0  0
  -31.1017   60.4384   61.7446 C   0  0  0  0  0  0  0  0  0  0  0  0
  -31.1469   61.8707   61.2428 C   0  0  0  0  0  0  0  0  0  0  0  0
  -32.8935   63.6784   61.3735 C   0  0  0  0  0  0  0  0  0  0  0  0
  -31.9007   62.8341   62.1398 C   0  0  0  0  0  0  0  0  0  0  0  0
  -39.4846   60.5041   65.6418 C   0  0  0  0  0  0  0  0  0  0  0  0
  -38.8748   61.2844   64.5893 O   0  0  0  0  0  0  0  0  0  0  0  0
  -37.3284   61.6973   64.6003 P   0  0  0  0  0  0  0  0  0  0  0  0
  -36.5848   60.6674   65.3571 O   0  0  0  0  0  0  0  0  0  0  0  0
  -36.9192   61.9907   63.2056 O   0  0  0  0  0  0  0  0  0  0  0  0
  -36.9522   61.1757   62.6807 H   0  0  0  0  0  0  0  0  0  0  0  0
  -37.2608   63.0590   65.4275 O   0  0  0  0  0  0  0  0  0  0  0  0
  -36.1549   63.9647   65.2368 C   0  0  0  0  0  0  0  0  0  0  0  0
  -36.3129   63.9151   67.6274 O   0  0  0  0  0  0  0  0  0  0  0  0
  -35.3989   64.0733   66.5382 C   0  0  0  0  0  0  0  0  0  0  0  0
  -37.0238   64.5704   67.5508 H   0  0  0  0  0  0  0  0  0  0  0  0
  -33.3643   63.4276   67.6618 O   0  0  0  0  0  0  0  0  0  0  0  0
  -34.2843   63.0600   66.6418 C   0  0  0  0  0  0  0  0  0  0  0  0
  -32.6570   62.7658   67.7130 H   0  0  0  0  0  0  0  0  0  0  0  0
  -41.7974   59.8218   66.1310 O   0  0  0  0  0  0  0  0  0  0  0  0
  -42.5738   61.9310   66.2236 O   0  0  0  0  0  0  0  0  0  0  0  0
  -42.7644   60.7568   66.0605 C   0  0  0  0  0  0  0  0  0  0  0  0
  -44.0988   60.1597   65.7370 C   0  0  0  0  0  0  0  0  0  0  0  0
  -44.7799   60.9014   64.5912 C   0  0  0  0  0  0  0  0  0  0  0  0
  -46.2795   60.6679   64.5109 C   0  0  0  0  0  0  0  0  0  0  0  0
  -46.6719   59.1962   64.5752 C   0  0  0  0  0  0  0  0  0  0  0  0
  -47.7303   58.8850   65.6170 C   0  0  0  0  0  0  0  0  0  0  0  0
  -48.8187   59.9530   65.7576 C   0  0  0  0  0  0  0  0  0  0  0  0
  -50.2513   59.4533   65.5593 C   0  0  0  0  0  0  0  0  0  0  0  0
  -50.9993   60.2690   64.5479 C   0  0  0  0  0  0  0  0  0  0  0  0
  -51.1776   59.9743   63.2747 C   0  0  0  0  0  0  0  0  0  0  0  0
  -50.6685   58.7561   62.5712 C   0  0  0  0  0  0  0  0  0  0  0  0
  -49.3030   58.9826   61.9287 C   0  0  0  0  0  0  0  0  0  0  0  0
  -49.3611   59.1669   60.4224 C   0  0  0  0  0  0  0  0  0  0  0  0
  -49.8672   57.9437   59.6775 C   0  0  0  0  0  0  0  0  0  0  0  0
  -48.9542   56.7318   59.7632 C   0  0  0  0  0  0  0  0  0  0  0  0
  -47.5764   56.9679   59.1634 C   0  0  0  0  0  0  0  0  0  0  0  0
  -47.5606   57.0360   57.6491 C   0  0  0  0  0  0  0  0  0  0  0  0
  -47.0152   58.3374   57.1312 C   0  0  0  0  0  0  0  0  0  0  0  0
 21 22  1  0  0  0
  4  5  2  0  0  0
 25 24  1  0  0  0
 25 26  2  0  0  0
 25 27  1  0  0  0
 25 29  1  0  0  0
 22 20  1  0  0  0
  3  5  1  0  0  0
  3  2  1  0  0  0
 20 19  1  0  0  0
 24 23  1  0  0  0
 19 18  1  0  0  0
 18 17  1  0  0  0
 27 28  1  0  0  0
 17 16  1  0  0  0
 29 30  1  0  0  0
 16 15  1  0  0  0
 34 35  1  0  0  0
 34 36  1  0  0  0
 15 14  1  0  0  0
 31 32  1  0  0  0
 31 33  1  0  0  0
 14 13  1  0  0  0
 37  1  1  0  0  0
 37 39  1  0  0  0
 13 12  1  0  0  0
 38 39  2  0  0  0
 12 11  1  0  0  0
 11 10  1  0  0  0
 10  9  1  0  0  0
  9  8  1  0  0  0
  8  7  1  0  0  0
  7  6  1  0  0  0
  6  5  1  0  0  0
  2  1  1  0  0  0
  1 23  1  0  0  0
 30 32  1  0  0  0
 32 35  1  0  0  0
 39 40  1  0  0  0
 40 41  1  0  0  0
 41 42  1  0  0  0
 42 43  1  0  0  0
 43 44  1  0  0  0
 44 45  1  0  0  0
 45 46  1  0  0  0
 46 47  1  0  0  0
 47 48  2  0  0  0
 48 49  1  0  0  0
 49 50  1  0  0  0
 50 51  1  0  0  0
 51 52  1  0  0  0
 52 53  1  0  0  0
 53 54  1  0  0  0
 54 55  1  0  0  0
 55 56  1  0  0  0
M  CHG 1  26  -1
M  END
> <minimizedAffinity>
-8.98974

> <CNNscore>
0.4694537818

> <CNNaffinity>
7.3541555405

> <CNN_VS>
3.4524362087

> <CNNaffinity_variance>
1.1682401896

$$$$
/media/chris/experiments/cd1a-new-docking/inputs/ligands/7sh4_ligand.pdb


 56 55  0  0  0  0  0  0  0  0999 V2000
  -39.6093   60.4371   65.1280 C   0  0  0  0  0  0  0  0  0  0  0  0
  -39.7374   58.9444   65.0139 C   0  0  0  0  0  0  0  0  0  0  0  0
  -40.2319   58.7378   63.6738 O   0  0  0  0  0  0  0  0  0  0  0  0
  -41.9803   57.3690   63.9358 O   0  0  0  0  0  0  0  0  0  0  0  0
  -40.9101   57.6125   63.4469 C   0  0  0  0  0  0  0  0  0  0  0  0
  -40.2235   56.7637   62.4160 C   0  0  0  0  0  0  0  0  0  0  0  0
  -41.1456   56.2441   61.3259 C   0  0  0  0  0  0  0  0  0  0  0  0
  -41.9210   57.3480   60.6385 C   0  0  0  0  0  0  0  0  0  0  0  0
  -41.1458   58.0704   59.5600 C   0  0  0  0  0  0  0  0  0  0  0  0
  -41.0165   59.5580   59.8174 C   0  0  0  0  0  0  0  0  0  0  0  0
  -39.5887   60.0454   59.7801 C   0  0  0  0  0  0  0  0  0  0  0  0
  -38.6112   58.9730   59.3775 C   0  0  0  0  0  0  0  0  0  0  0  0
  -37.6655   58.5747   60.4888 C   0  0  0  0  0  0  0  0  0  0  0  0
  -37.7443   59.5018   61.6848 C   0  0  0  0  0  0  0  0  0  0  0  0
  -36.7630   59.1703   62.7895 C   0  0  0  0  0  0  0  0  0  0  0  0
  -36.2825   57.7237   62.7730 C   0  0  0  0  0  0  0  0  0  0  0  0
  -34.8477   57.5456   63.2313 C   0  0  0  0  0  0  0  0  0  0  0  0
  -34.5916   58.0756   64.6272 C   0  0  0  0  0  0  0  0  0  0  0  0
  -33.3248   58.9125   64.7394 C   0  0  0  0  0  0  0  0  0  0  0  0
  -33.0692   59.7931   63.5293 C   0  0  0  0  0  0  0  0  0  0  0  0
  -31.4839   60.5491   61.7262 C   0  0  0  0  0  0  0  0  0  0  0  0
  -31.7210   59.5845   62.8660 C   0  0  0  0  0  0  0  0  0  0  0  0
  -38.3157   60.8458   65.7848 C   0  0  0  0  0  0  0  0  0  0  0  0
  -37.8910   62.1103   65.2289 O   0  0  0  0  0  0  0  0  0  0  0  0
  -36.5026   62.8059   65.6169 P   0  0  0  0  0  0  0  0  0  0  0  0
  -36.7988   63.9691   66.4804 O   0  0  0  0  0  0  0  0  0  0  0  0
  -35.5868   61.7563   66.1252 O   0  0  0  0  0  0  0  0  0  0  0  0
  -35.9290   61.4065   66.9627 H   0  0  0  0  0  0  0  0  0  0  0  0
  -35.9061   63.3534   64.2431 O   0  0  0  0  0  0  0  0  0  0  0  0
  -36.5406   63.0114   62.9940 C   0  0  0  0  0  0  0  0  0  0  0  0
  -36.6180   65.4004   62.8225 O   0  0  0  0  0  0  0  0  0  0  0  0
  -36.4384   64.1983   62.0678 C   0  0  0  0  0  0  0  0  0  0  0  0
  -37.4655   65.3634   63.2928 H   0  0  0  0  0  0  0  0  0  0  0  0
  -34.1569   63.4207   61.9762 O   0  0  0  0  0  0  0  0  0  0  0  0
  -35.1225   64.2389   61.3284 C   0  0  0  0  0  0  0  0  0  0  0  0
  -33.3199   63.4596   61.4874 H   0  0  0  0  0  0  0  0  0  0  0  0
  -40.7730   60.9456   65.8608 O   0  0  0  0  0  0  0  0  0  0  0  0
  -42.0159   61.5926   64.1010 O   0  0  0  0  0  0  0  0  0  0  0  0
  -41.9255   61.0597   65.1731 C   0  0  0  0  0  0  0  0  0  0  0  0
  -43.0743   60.4273   65.8959 C   0  0  0  0  0  0  0  0  0  0  0  0
  -44.4078   60.7868   65.2484 C   0  0  0  0  0  0  0  0  0  0  0  0
  -45.2231   59.5825   64.8069 C   0  0  0  0  0  0  0  0  0  0  0  0
  -46.6981   59.8942   64.5808 C   0  0  0  0  0  0  0  0  0  0  0  0
  -47.6433   59.0253   65.3896 C   0  0  0  0  0  0  0  0  0  0  0  0
  -48.7445   59.7953   66.1241 C   0  0  0  0  0  0  0  0  0  0  0  0
  -50.1715   59.3219   65.8390 C   0  0  0  0  0  0  0  0  0  0  0  0
  -50.9220   60.2833   64.9671 C   0  0  0  0  0  0  0  0  0  0  0  0
  -51.1778   60.1448   63.6806 C   0  0  0  0  0  0  0  0  0  0  0  0
  -50.7711   58.9913   62.8190 C   0  0  0  0  0  0  0  0  0  0  0  0
  -49.4436   59.2357   62.1075 C   0  0  0  0  0  0  0  0  0  0  0  0
  -49.5984   59.6675   60.6598 C   0  0  0  0  0  0  0  0  0  0  0  0
  -49.7946   58.5101   59.6958 C   0  0  0  0  0  0  0  0  0  0  0  0
  -48.9055   57.3077   59.9663 C   0  0  0  0  0  0  0  0  0  0  0  0
  -47.8408   57.0901   58.9020 C   0  0  0  0  0  0  0  0  0  0  0  0
  -47.8138   58.1540   57.8225 C   0  0  0  0  0  0  0  0  0  0  0  0
  -46.5569   58.1150   56.9990 C   0  0  0  0  0  0  0  0  0  0  0  0
 21 22  1  0  0  0
  4  5  2  0  0  0
 25 24  1  0  0  0
 25 26  2  0  0  0
 25 27  1  0  0  0
 25 29  1  0  0  0
 22 20  1  0  0  0
  3  5  1  0  0  0
  3  2  1  0  0  0
 20 19  1  0  0  0
 24 23  1  0  0  0
 19 18  1  0  0  0
 18 17  1  0  0  0
 27 28  1  0  0  0
 17 16  1  0  0  0
 29 30  1  0  0  0
 16 15  1  0  0  0
 34 35  1  0  0  0
 34 36  1  0  0  0
 15 14  1  0  0  0
 31 32  1  0  0  0
 31 33  1  0  0  0
 14 13  1  0  0  0
 37  1  1  0  0  0
 37 39  1  0  0  0
 13 12  1  0  0  0
 38 39  2  0  0  0
 12 11  1  0  0  0
 11 10  1  0  0  0
 10  9  1  0  0  0
  9  8  1  0  0  0
  8  7  1  0  0  0
  7  6  1  0  0  0
  6  5  1  0  0  0
  2  1  1  0  0  0
  1 23  1  0  0  0
 30 32  1  0  0  0
 32 35  1  0  0  0
 39 40  1  0  0  0
 40 41  1  0  0  0
 41 42  1  0  0  0
 42 43  1  0  0  0
 43 44  1  0  0  0
 44 45  1  0  0  0
 45 46  1  0  0  0
 46 47  1  0  0  0
 47 48  2  0  0  0
 48 49  1  0  0  0
 49 50  1  0  0  0
 50 51  1  0  0  0
 51 52  1  0  0  0
 52 53  1  0  0  0
 53 54  1  0  0  0
 54 55  1  0  0  0
 55 56  1  0  0  0
M  CHG 1  26  -1
M  END
> <minimizedAffinity>
-8.51111

> <CNNscore>
0.4029699266

> <CNNaffinity>
7.4681420326

> <CNN_VS>
3.0094366074

> <CNNaffinity_variance>
1.2060493231

$$$$
/media/chris/experiments/cd1a-new-docking/inputs/ligands/7sh4_ligand.pdb


 56 55  0  0  0  0  0  0  0  0999 V2000
  -39.9476   60.4788   64.7292 C   0  0  0  0  0  0  0  0  0  0  0  0
  -40.4120   60.4324   63.3010 C   0  0  0  0  0  0  0  0  0  0  0  0
  -41.1863   61.6406   63.1461 O   0  0  0  0  0  0  0  0  0  0  0  0
  -42.5435   62.0265   61.4117 O   0  0  0  0  0  0  0  0  0  0  0  0
  -42.3427   61.5371   62.4904 C   0  0  0  0  0  0  0  0  0  0  0  0
  -43.2987   60.6343   63.2156 C   0  0  0  0  0  0  0  0  0  0  0  0
  -44.0681   61.3159   64.3346 C   0  0  0  0  0  0  0  0  0  0  0  0
  -45.4041   60.6597   64.6116 C   0  0  0  0  0  0  0  0  0  0  0  0
  -45.4250   59.7972   65.8531 C   0  0  0  0  0  0  0  0  0  0  0  0
  -46.8020   59.6863   66.4756 C   0  0  0  0  0  0  0  0  0  0  0  0
  -47.7941   58.9628   65.5981 C   0  0  0  0  0  0  0  0  0  0  0  0
  -49.2036   59.4657   65.7653 C   0  0  0  0  0  0  0  0  0  0  0  0
  -49.5757   60.5491   64.7773 C   0  0  0  0  0  0  0  0  0  0  0  0
  -48.7495   60.4929   63.5084 C   0  0  0  0  0  0  0  0  0  0  0  0
  -49.5667   60.3137   62.2462 C   0  0  0  0  0  0  0  0  0  0  0  0
  -50.9063   59.6224   62.4726 C   0  0  0  0  0  0  0  0  0  0  0  0
  -50.8560   58.1147   62.3157 C   0  0  0  0  0  0  0  0  0  0  0  0
  -50.7023   57.6639   60.8776 C   0  0  0  0  0  0  0  0  0  0  0  0
  -49.2770   57.2769   60.5083 C   0  0  0  0  0  0  0  0  0  0  0  0
  -48.9895   57.3656   59.0201 C   0  0  0  0  0  0  0  0  0  0  0  0
  -47.2637   58.1520   57.3651 C   0  0  0  0  0  0  0  0  0  0  0  0
  -48.0371   58.4774   58.6228 C   0  0  0  0  0  0  0  0  0  0  0  0
  -38.4577   60.6813   64.8338 C   0  0  0  0  0  0  0  0  0  0  0  0
  -38.1516   62.0569   64.5138 O   0  0  0  0  0  0  0  0  0  0  0  0
  -37.0162   62.4714   63.4647 P   0  0  0  0  0  0  0  0  0  0  0  0
  -37.3043   61.7893   62.1847 O   0  0  0  0  0  0  0  0  0  0  0  0
  -36.8973   63.9494   63.4732 O   0  0  0  0  0  0  0  0  0  0  0  0
  -37.7119   64.3413   63.1214 H   0  0  0  0  0  0  0  0  0  0  0  0
  -35.6607   61.8675   64.0487 O   0  0  0  0  0  0  0  0  0  0  0  0
  -34.7539   62.7118   64.7867 C   0  0  0  0  0  0  0  0  0  0  0  0
  -33.6722   62.4032   66.9027 O   0  0  0  0  0  0  0  0  0  0  0  0
  -34.9493   62.4473   66.2594 C   0  0  0  0  0  0  0  0  0  0  0  0
  -33.1161   61.7353   66.4721 H   0  0  0  0  0  0  0  0  0  0  0  0
  -36.1309   63.1084   68.2557 O   0  0  0  0  0  0  0  0  0  0  0  0
  -35.8290   63.4829   66.9177 C   0  0  0  0  0  0  0  0  0  0  0  0
  -36.6958   63.7848   68.6612 H   0  0  0  0  0  0  0  0  0  0  0  0
  -40.3743   59.2434   65.3936 O   0  0  0  0  0  0  0  0  0  0  0  0
  -41.8107   60.3194   66.7499 O   0  0  0  0  0  0  0  0  0  0  0  0
  -41.4626   59.3195   66.1836 C   0  0  0  0  0  0  0  0  0  0  0  0
  -42.1949   58.0154   66.2559 C   0  0  0  0  0  0  0  0  0  0  0  0
  -42.6369   57.5454   64.8737 C   0  0  0  0  0  0  0  0  0  0  0  0
  -41.8298   56.3767   64.3328 C   0  0  0  0  0  0  0  0  0  0  0  0
  -41.0578   56.7057   63.0602 C   0  0  0  0  0  0  0  0  0  0  0  0
  -41.2496   55.6961   61.9438 C   0  0  0  0  0  0  0  0  0  0  0  0
  -41.4218   56.3111   60.5520 C   0  0  0  0  0  0  0  0  0  0  0  0
  -41.0495   57.7914   60.4432 C   0  0  0  0  0  0  0  0  0  0  0  0
  -40.0267   58.0396   59.3755 C   0  0  0  0  0  0  0  0  0  0  0  0
  -38.7810   58.4340   59.5547 C   0  0  0  0  0  0  0  0  0  0  0  0
  -38.1249   58.7157   60.8694 C   0  0  0  0  0  0  0  0  0  0  0  0
  -37.8282   57.4427   61.6567 C   0  0  0  0  0  0  0  0  0  0  0  0
  -37.3829   57.6996   63.0857 C   0  0  0  0  0  0  0  0  0  0  0  0
  -36.0383   58.3985   63.1892 C   0  0  0  0  0  0  0  0  0  0  0  0
  -35.2032   57.9828   64.3888 C   0  0  0  0  0  0  0  0  0  0  0  0
  -33.8664   58.7035   64.4752 C   0  0  0  0  0  0  0  0  0  0  0  0
  -32.8639   58.2836   63.4186 C   0  0  0  0  0  0  0  0  0  0  0  0
  -31.9766   59.4138   62.9771 C   0  0  0  0  0  0  0  0  0  0  0  0
 21 22  1  0  0  0
  4  5  2  0  0  0
 25 24  1  0  0  0
 25 26  2  0  0  0
 25 27  1  0  0  0
 25 29  1  0  0  0
 22 20  1  0  0  0
  3  5  1  0  0  0
  3  2  1  0  0  0
 20 19  1  0  0  0
 24 23  1  0  0  0
 19 18  1  0  0  0
 18 17  1  0  0  0
 27 28  1  0  0  0
 17 16  1  0  0  0
 29 30  1  0  0  0
 16 15  1  0  0  0
 34 35  1  0  0  0
 34 36  1  0  0  0
 15 14  1  0  0  0
 31 32  1  0  0  0
 31 33  1  0  0  0
 14 13  1  0  0  0
 37  1  1  0  0  0
 37 39  1  0  0  0
 13 12  1  0  0  0
 38 39  2  0  0  0
 12 11  1  0  0  0
 11 10  1  0  0  0
 10  9  1  0  0  0
  9  8  1  0  0  0
  8  7  1  0  0  0
  7  6  1  0  0  0
  6  5  1  0  0  0
  2  1  1  0  0  0
  1 23  1  0  0  0
 30 32  1  0  0  0
 32 35  1  0  0  0
 39 40  1  0  0  0
 40 41  1  0  0  0
 41 42  1  0  0  0
 42 43  1  0  0  0
 43 44  1  0  0  0
 44 45  1  0  0  0
 45 46  1  0  0  0
 46 47  1  0  0  0
 47 48  2  0  0  0
 48 49  1  0  0  0
 49 50  1  0  0  0
 50 51  1  0  0  0
 51 52  1  0  0  0
 52 53  1  0  0  0
 53 54  1  0  0  0
 54 55  1  0  0  0
 55 56  1  0  0  0
M  CHG 1  26  -1
M  END
> <minimizedAffinity>
-8.82289

> <CNNscore>
0.3920701742

> <CNNaffinity>
7.5450782776

> <CNN_VS>
2.9582002163

> <CNNaffinity_variance>
1.7025032043

$$$$
/media/chris/experiments/cd1a-new-docking/inputs/ligands/7sh4_ligand.pdb


 56 55  0  0  0  0  0  0  0  0999 V2000
  -40.8841   61.3205   62.7693 C   0  0  0  0  0  0  0  0  0  0  0  0
  -41.3385   60.8734   61.4087 C   0  0  0  0  0  0  0  0  0  0  0  0
  -40.6448   59.6248   61.2017 O   0  0  0  0  0  0  0  0  0  0  0  0
  -39.3290   60.0046   59.4342 O   0  0  0  0  0  0  0  0  0  0  0  0
  -40.2030   59.3765   59.9684 C   0  0  0  0  0  0  0  0  0  0  0  0
  -40.8484   58.1464   59.3983 C   0  0  0  0  0  0  0  0  0  0  0  0
  -41.7168   57.3865   60.3867 C   0  0  0  0  0  0  0  0  0  0  0  0
  -41.1046   56.0690   60.8129 C   0  0  0  0  0  0  0  0  0  0  0  0
  -41.4035   55.6811   62.2433 C   0  0  0  0  0  0  0  0  0  0  0  0
  -41.8610   56.8501   63.0919 C   0  0  0  0  0  0  0  0  0  0  0  0
  -41.6024   56.6517   64.5654 C   0  0  0  0  0  0  0  0  0  0  0  0
  -40.4594   57.4864   65.0797 C   0  0  0  0  0  0  0  0  0  0  0  0
  -39.6705   58.1656   63.9822 C   0  0  0  0  0  0  0  0  0  0  0  0
  -38.2216   57.7236   63.9436 C   0  0  0  0  0  0  0  0  0  0  0  0
  -37.6061   57.7434   62.5602 C   0  0  0  0  0  0  0  0  0  0  0  0
  -36.1684   58.2496   62.5328 C   0  0  0  0  0  0  0  0  0  0  0  0
  -35.2743   57.6231   63.5856 C   0  0  0  0  0  0  0  0  0  0  0  0
  -34.7805   58.6119   64.6218 C   0  0  0  0  0  0  0  0  0  0  0  0
  -33.2631   58.6945   64.7121 C   0  0  0  0  0  0  0  0  0  0  0  0
  -32.5587   58.3848   63.4033 C   0  0  0  0  0  0  0  0  0  0  0  0
  -32.5304   60.8212   62.7719 C   0  0  0  0  0  0  0  0  0  0  0  0
  -31.7446   59.5311   62.8338 C   0  0  0  0  0  0  0  0  0  0  0  0
  -39.3871   61.2355   62.9225 C   0  0  0  0  0  0  0  0  0  0  0  0
  -39.0359   61.6070   64.2741 O   0  0  0  0  0  0  0  0  0  0  0  0
  -37.5304   61.5831   64.8170 P   0  0  0  0  0  0  0  0  0  0  0  0
  -37.4294   60.5205   65.8403 O   0  0  0  0  0  0  0  0  0  0  0  0
  -36.6191   61.5355   63.6482 O   0  0  0  0  0  0  0  0  0  0  0  0
  -36.7278   60.6887   63.1877 H   0  0  0  0  0  0  0  0  0  0  0  0
  -37.3214   62.9867   65.5444 O   0  0  0  0  0  0  0  0  0  0  0  0
  -36.1759   63.8020   65.2234 C   0  0  0  0  0  0  0  0  0  0  0  0
  -36.2853   64.0788   67.6012 O   0  0  0  0  0  0  0  0  0  0  0  0
  -35.3869   64.0333   66.4888 C   0  0  0  0  0  0  0  0  0  0  0  0
  -36.9564   64.7620   67.4473 H   0  0  0  0  0  0  0  0  0  0  0  0
  -33.4181   63.3805   67.7200 O   0  0  0  0  0  0  0  0  0  0  0  0
  -34.3345   62.9739   66.7118 C   0  0  0  0  0  0  0  0  0  0  0  0
  -32.7509   62.6883   67.8487 H   0  0  0  0  0  0  0  0  0  0  0  0
  -41.5783   60.5121   63.7765 O   0  0  0  0  0  0  0  0  0  0  0  0
  -42.6763   62.1185   64.9053 O   0  0  0  0  0  0  0  0  0  0  0  0
  -42.6704   61.0549   64.3482 C   0  0  0  0  0  0  0  0  0  0  0  0
  -43.8776   60.1833   64.1899 C   0  0  0  0  0  0  0  0  0  0  0  0
  -44.1752   59.4036   65.4667 C   0  0  0  0  0  0  0  0  0  0  0  0
  -45.4641   58.6000   65.4119 C   0  0  0  0  0  0  0  0  0  0  0  0
  -46.5751   59.1687   66.2871 C   0  0  0  0  0  0  0  0  0  0  0  0
  -47.7074   59.8105   65.5071 C   0  0  0  0  0  0  0  0  0  0  0  0
  -49.0118   59.9696   66.2934 C   0  0  0  0  0  0  0  0  0  0  0  0
  -50.2855   59.6229   65.5193 C   0  0  0  0  0  0  0  0  0  0  0  0
  -50.4964   60.5289   64.3436 C   0  0  0  0  0  0  0  0  0  0  0  0
  -50.8731   60.1711   63.1313 C   0  0  0  0  0  0  0  0  0  0  0  0
  -51.1718   58.7780   62.6751 C   0  0  0  0  0  0  0  0  0  0  0  0
  -49.9062   57.9773   62.3822 C   0  0  0  0  0  0  0  0  0  0  0  0
  -49.9249   57.2794   61.0336 C   0  0  0  0  0  0  0  0  0  0  0  0
  -50.1408   58.2219   59.8621 C   0  0  0  0  0  0  0  0  0  0  0  0
  -48.9239   58.4077   58.9710 C   0  0  0  0  0  0  0  0  0  0  0  0
  -48.0061   57.1951   58.9386 C   0  0  0  0  0  0  0  0  0  0  0  0
  -47.0144   57.1961   57.7922 C   0  0  0  0  0  0  0  0  0  0  0  0
  -46.9289   58.5268   57.0984 C   0  0  0  0  0  0  0  0  0  0  0  0
 21 22  1  0  0  0
  4  5  2  0  0  0
 25 24  1  0  0  0
 25 26  2  0  0  0
 25 27  1  0  0  0
 25 29  1  0  0  0
 22 20  1  0  0  0
  3  5  1  0  0  0
  3  2  1  0  0  0
 20 19  1  0  0  0
 24 23  1  0  0  0
 19 18  1  0  0  0
 18 17  1  0  0  0
 27 28  1  0  0  0
 17 16  1  0  0  0
 29 30  1  0  0  0
 16 15  1  0  0  0
 34 35  1  0  0  0
 34 36  1  0  0  0
 15 14  1  0  0  0
 31 32  1  0  0  0
 31 33  1  0  0  0
 14 13  1  0  0  0
 37  1  1  0  0  0
 37 39  1  0  0  0
 13 12  1  0  0  0
 38 39  2  0  0  0
 12 11  1  0  0  0
 11 10  1  0  0  0
 10  9  1  0  0  0
  9  8  1  0  0  0
  8  7  1  0  0  0
  7  6  1  0  0  0
  6  5  1  0  0  0
  2  1  1  0  0  0
  1 23  1  0  0  0
 30 32  1  0  0  0
 32 35  1  0  0  0
 39 40  1  0  0  0
 40 41  1  0  0  0
 41 42  1  0  0  0
 42 43  1  0  0  0
 43 44  1  0  0  0
 44 45  1  0  0  0
 45 46  1  0  0  0
 46 47  1  0  0  0
 47 48  2  0  0  0
 48 49  1  0  0  0
 49 50  1  0  0  0
 50 51  1  0  0  0
 51 52  1  0  0  0
 52 53  1  0  0  0
 53 54  1  0  0  0
 54 55  1  0  0  0
 55 56  1  0  0  0
M  CHG 1  26  -1
M  END
> <minimizedAffinity>
-8.73765

> <CNNscore>
0.2919889390

> <CNNaffinity>
7.3888726234

> <CNN_VS>
2.1574690342

> <CNNaffinity_variance>
1.0256047249

$$$$
/media/chris/experiments/cd1a-new-docking/inputs/ligands/7sh4_ligand.pdb


 56 55  0  0  0  0  0  0  0  0999 V2000
  -40.9213   59.8177   65.0842 C   0  0  0  0  0  0  0  0  0  0  0  0
  -41.5568   58.6338   65.7566 C   0  0  0  0  0  0  0  0  0  0  0  0
  -42.8841   59.0925   66.0900 O   0  0  0  0  0  0  0  0  0  0  0  0
  -44.1965   57.3986   66.7282 O   0  0  0  0  0  0  0  0  0  0  0  0
  -43.8836   58.2272   65.9164 C   0  0  0  0  0  0  0  0  0  0  0  0
  -44.6310   58.5096   64.6450 C   0  0  0  0  0  0  0  0  0  0  0  0
  -45.6241   59.6546   64.7503 C   0  0  0  0  0  0  0  0  0  0  0  0
  -46.7908   59.3368   65.6614 C   0  0  0  0  0  0  0  0  0  0  0  0
  -47.9838   60.2479   65.4808 C   0  0  0  0  0  0  0  0  0  0  0  0
  -49.2494   59.6998   66.1083 C   0  0  0  0  0  0  0  0  0  0  0  0
  -50.2221   59.1451   65.0964 C   0  0  0  0  0  0  0  0  0  0  0  0
  -51.0430   60.2129   64.4228 C   0  0  0  0  0  0  0  0  0  0  0  0
  -51.0932   60.0715   62.9176 C   0  0  0  0  0  0  0  0  0  0  0  0
  -49.7732   59.6174   62.3280 C   0  0  0  0  0  0  0  0  0  0  0  0
  -49.6263   59.9031   60.8483 C   0  0  0  0  0  0  0  0  0  0  0  0
  -49.9468   58.7096   59.9556 C   0  0  0  0  0  0  0  0  0  0  0  0
  -50.0200   57.3881   60.6963 C   0  0  0  0  0  0  0  0  0  0  0  0
  -49.0620   56.3439   60.1606 C   0  0  0  0  0  0  0  0  0  0  0  0
  -47.8442   56.9337   59.4629 C   0  0  0  0  0  0  0  0  0  0  0  0
  -47.4701   56.2123   58.1805 C   0  0  0  0  0  0  0  0  0  0  0  0
  -46.9516   58.4861   57.2335 C   0  0  0  0  0  0  0  0  0  0  0  0
  -47.4490   57.0884   56.9423 C   0  0  0  0  0  0  0  0  0  0  0  0
  -39.4431   59.9029   65.3660 C   0  0  0  0  0  0  0  0  0  0  0  0
  -39.0256   61.2813   65.2474 O   0  0  0  0  0  0  0  0  0  0  0  0
  -37.4925   61.7127   65.0886 P   0  0  0  0  0  0  0  0  0  0  0  0
  -37.3165   63.0271   65.7427 O   0  0  0  0  0  0  0  0  0  0  0  0
  -36.6457   60.5782   65.5301 O   0  0  0  0  0  0  0  0  0  0  0  0
  -36.7642   60.4378   66.4826 H   0  0  0  0  0  0  0  0  0  0  0  0
  -37.2693   61.9100   63.5220 O   0  0  0  0  0  0  0  0  0  0  0  0
  -36.1021   62.6078   63.0419 C   0  0  0  0  0  0  0  0  0  0  0  0
  -36.5711   64.9265   63.4244 O   0  0  0  0  0  0  0  0  0  0  0  0
  -36.5478   63.9083   62.4196 C   0  0  0  0  0  0  0  0  0  0  0  0
  -37.1423   64.6456   64.1562 H   0  0  0  0  0  0  0  0  0  0  0  0
  -34.4076   63.6633   61.3342 O   0  0  0  0  0  0  0  0  0  0  0  0
  -35.6622   64.3294   61.2715 C   0  0  0  0  0  0  0  0  0  0  0  0
  -33.8537   63.9463   60.5899 H   0  0  0  0  0  0  0  0  0  0  0  0
  -41.6260   61.0281   65.5180 O   0  0  0  0  0  0  0  0  0  0  0  0
  -43.3099   62.4063   64.9477 O   0  0  0  0  0  0  0  0  0  0  0  0
  -42.5036   61.5678   64.6504 C   0  0  0  0  0  0  0  0  0  0  0  0
  -42.3410   61.0114   63.2699 C   0  0  0  0  0  0  0  0  0  0  0  0
  -42.9294   61.9461   62.2178 C   0  0  0  0  0  0  0  0  0  0  0  0
  -42.1837   61.9308   60.8935 C   0  0  0  0  0  0  0  0  0  0  0  0
  -41.0383   60.9258   60.8501 C   0  0  0  0  0  0  0  0  0  0  0  0
  -40.9180   60.1841   59.5318 C   0  0  0  0  0  0  0  0  0  0  0  0
  -41.2734   58.6963   59.6036 C   0  0  0  0  0  0  0  0  0  0  0  0
  -40.0783   57.7407   59.6111 C   0  0  0  0  0  0  0  0  0  0  0  0
  -38.7830   58.4540   59.3640 C   0  0  0  0  0  0  0  0  0  0  0  0
  -37.8191   58.6623   60.2399 C   0  0  0  0  0  0  0  0  0  0  0  0
  -37.8174   58.2256   61.6708 C   0  0  0  0  0  0  0  0  0  0  0  0
  -36.5263   58.6008   62.3925 C   0  0  0  0  0  0  0  0  0  0  0  0
  -36.2234   57.7242   63.5951 C   0  0  0  0  0  0  0  0  0  0  0  0
  -34.7839   57.8177   64.0708 C   0  0  0  0  0  0  0  0  0  0  0  0
  -33.8070   58.3288   63.0248 C   0  0  0  0  0  0  0  0  0  0  0  0
  -32.4231   58.6252   63.5822 C   0  0  0  0  0  0  0  0  0  0  0  0
  -31.6505   59.6722   62.8046 C   0  0  0  0  0  0  0  0  0  0  0  0
  -32.4105   60.9597   62.6495 C   0  0  0  0  0  0  0  0  0  0  0  0
 21 22  1  0  0  0
  4  5  2  0  0  0
 25 24  1  0  0  0
 25 26  2  0  0  0
 25 27  1  0  0  0
 25 29  1  0  0  0
 22 20  1  0  0  0
  3  5  1  0  0  0
  3  2  1  0  0  0
 20 19  1  0  0  0
 24 23  1  0  0  0
 19 18  1  0  0  0
 18 17  1  0  0  0
 27 28  1  0  0  0
 17 16  1  0  0  0
 29 30  1  0  0  0
 16 15  1  0  0  0
 34 35  1  0  0  0
 34 36  1  0  0  0
 15 14  1  0  0  0
 31 32  1  0  0  0
 31 33  1  0  0  0
 14 13  1  0  0  0
 37  1  1  0  0  0
 37 39  1  0  0  0
 13 12  1  0  0  0
 38 39  2  0  0  0
 12 11  1  0  0  0
 11 10  1  0  0  0
 10  9  1  0  0  0
  9  8  1  0  0  0
  8  7  1  0  0  0
  7  6  1  0  0  0
  6  5  1  0  0  0
  2  1  1  0  0  0
  1 23  1  0  0  0
 30 32  1  0  0  0
 32 35  1  0  0  0
 39 40  1  0  0  0
 40 41  1  0  0  0
 41 42  1  0  0  0
 42 43  1  0  0  0
 43 44  1  0  0  0
 44 45  1  0  0  0
 45 46  1  0  0  0
 46 47  1  0  0  0
 47 48  2  0  0  0
 48 49  1  0  0  0
 49 50  1  0  0  0
 50 51  1  0  0  0
 51 52  1  0  0  0
 52 53  1  0  0  0
 53 54  1  0  0  0
 54 55  1  0  0  0
 55 56  1  0  0  0
M  CHG 1  26  -1
M  END
> <minimizedAffinity>
-8.56655

> <CNNscore>
0.2719283402

> <CNNaffinity>
7.2915787697

> <CNN_VS>
1.9827868938

> <CNNaffinity_variance>
1.4862525463

$$$$
/media/chris/experiments/cd1a-new-docking/inputs/ligands/7sh4_ligand.pdb


 56 55  0  0  0  0  0  0  0  0999 V2000
  -38.7290   61.1717   64.2145 C   0  0  0  0  0  0  0  0  0  0  0  0
  -39.4722   60.9159   62.9339 C   0  0  0  0  0  0  0  0  0  0  0  0
  -40.7627   61.5245   63.1516 O   0  0  0  0  0  0  0  0  0  0  0  0
  -41.6099   61.3117   61.0935 O   0  0  0  0  0  0  0  0  0  0  0  0
  -41.7289   61.2183   62.2854 C   0  0  0  0  0  0  0  0  0  0  0  0
  -42.9198   60.6308   62.9864 C   0  0  0  0  0  0  0  0  0  0  0  0
  -43.9139   61.6628   63.4916 C   0  0  0  0  0  0  0  0  0  0  0  0
  -44.5236   61.2857   64.8252 C   0  0  0  0  0  0  0  0  0  0  0  0
  -45.6337   60.2636   64.7317 C   0  0  0  0  0  0  0  0  0  0  0  0
  -45.9297   59.5864   66.0545 C   0  0  0  0  0  0  0  0  0  0  0  0
  -47.4005   59.5582   66.3915 C   0  0  0  0  0  0  0  0  0  0  0  0
  -48.2827   59.8050   65.1964 C   0  0  0  0  0  0  0  0  0  0  0  0
  -49.6631   59.2020   65.3343 C   0  0  0  0  0  0  0  0  0  0  0  0
  -50.7644   60.1642   64.9376 C   0  0  0  0  0  0  0  0  0  0  0  0
  -51.1772   60.0659   63.4840 C   0  0  0  0  0  0  0  0  0  0  0  0
  -50.8684   58.7162   62.8459 C   0  0  0  0  0  0  0  0  0  0  0  0
  -49.9847   58.8036   61.6164 C   0  0  0  0  0  0  0  0  0  0  0  0
  -50.4212   57.8836   60.4948 C   0  0  0  0  0  0  0  0  0  0  0  0
  -49.2718   57.3933   59.6253 C   0  0  0  0  0  0  0  0  0  0  0  0
  -48.5608   58.5049   58.8743 C   0  0  0  0  0  0  0  0  0  0  0  0
  -47.7927   57.4786   56.7081 C   0  0  0  0  0  0  0  0  0  0  0  0
  -47.3753   58.0522   58.0432 C   0  0  0  0  0  0  0  0  0  0  0  0
  -37.5457   62.0827   64.0101 C   0  0  0  0  0  0  0  0  0  0  0  0
  -36.6111   61.8814   65.0938 O   0  0  0  0  0  0  0  0  0  0  0  0
  -35.8360   63.0871   65.8060 P   0  0  0  0  0  0  0  0  0  0  0  0
  -36.8317   64.1146   66.1793 O   0  0  0  0  0  0  0  0  0  0  0  0
  -34.9694   62.5168   66.8656 O   0  0  0  0  0  0  0  0  0  0  0  0
  -35.5226   62.1335   67.5641 H   0  0  0  0  0  0  0  0  0  0  0  0
  -34.8909   63.7053   64.6801 O   0  0  0  0  0  0  0  0  0  0  0  0
  -33.5359   63.2329   64.5365 C   0  0  0  0  0  0  0  0  0  0  0  0
  -33.7688   61.5423   62.8541 O   0  0  0  0  0  0  0  0  0  0  0  0
  -33.3074   62.8761   63.0882 C   0  0  0  0  0  0  0  0  0  0  0  0
  -33.3238   60.9343   63.4649 H   0  0  0  0  0  0  0  0  0  0  0  0
  -33.4253   63.7501   60.8430 O   0  0  0  0  0  0  0  0  0  0  0  0
  -33.9905   63.8370   62.1448 C   0  0  0  0  0  0  0  0  0  0  0  0
  -33.8763   64.3736   60.2524 H   0  0  0  0  0  0  0  0  0  0  0  0
  -38.3269   59.8803   64.7806 O   0  0  0  0  0  0  0  0  0  0  0  0
  -39.3942   57.9005   64.8199 O   0  0  0  0  0  0  0  0  0  0  0  0
  -39.3138   59.0480   65.1643 C   0  0  0  0  0  0  0  0  0  0  0  0
  -40.2863   59.7184   66.0845 C   0  0  0  0  0  0  0  0  0  0  0  0
  -41.7272   59.3707   65.7244 C   0  0  0  0  0  0  0  0  0  0  0  0
  -42.1969   58.0367   66.2812 C   0  0  0  0  0  0  0  0  0  0  0  0
  -43.1761   57.3061   65.3695 C   0  0  0  0  0  0  0  0  0  0  0  0
  -42.5106   56.4129   64.3391 C   0  0  0  0  0  0  0  0  0  0  0  0
  -42.1207   57.1217   63.0389 C   0  0  0  0  0  0  0  0  0  0  0  0
  -41.0249   56.4315   62.2239 C   0  0  0  0  0  0  0  0  0  0  0  0
  -41.3286   56.4304   60.7557 C   0  0  0  0  0  0  0  0  0  0  0  0
  -40.9326   57.3229   59.8690 C   0  0  0  0  0  0  0  0  0  0  0  0
  -40.0912   58.5286   60.1456 C   0  0  0  0  0  0  0  0  0  0  0  0
  -38.6481   58.3501   59.6829 C   0  0  0  0  0  0  0  0  0  0  0  0
  -37.6235   58.5774   60.7806 C   0  0  0  0  0  0  0  0  0  0  0  0
  -37.7829   57.6420   61.9667 C   0  0  0  0  0  0  0  0  0  0  0  0
  -36.5392   57.5003   62.8284 C   0  0  0  0  0  0  0  0  0  0  0  0
  -35.3976   58.4089   62.3982 C   0  0  0  0  0  0  0  0  0  0  0  0
  -34.0315   57.9616   62.8793 C   0  0  0  0  0  0  0  0  0  0  0  0
  -33.7334   58.4110   64.2825 C   0  0  0  0  0  0  0  0  0  0  0  0
 21 22  1  0  0  0
  4  5  2  0  0  0
 25 24  1  0  0  0
 25 26  2  0  0  0
 25 27  1  0  0  0
 25 29  1  0  0  0
 22 20  1  0  0  0
  3  5  1  0  0  0
  3  2  1  0  0  0
 20 19  1  0  0  0
 24 23  1  0  0  0
 19 18  1  0  0  0
 18 17  1  0  0  0
 27 28  1  0  0  0
 17 16  1  0  0  0
 29 30  1  0  0  0
 16 15  1  0  0  0
 34 35  1  0  0  0
 34 36  1  0  0  0
 15 14  1  0  0  0
 31 32  1  0  0  0
 31 33  1  0  0  0
 14 13  1  0  0  0
 37  1  1  0  0  0
 37 39  1  0  0  0
 13 12  1  0  0  0
 38 39  2  0  0  0
 12 11  1  0  0  0
 11 10  1  0  0  0
 10  9  1  0  0  0
  9  8  1  0  0  0
  8  7  1  0  0  0
  7  6  1  0  0  0
  6  5  1  0  0  0
  2  1  1  0  0  0
  1 23  1  0  0  0
 30 32  1  0  0  0
 32 35  1  0  0  0
 39 40  1  0  0  0
 40 41  1  0  0  0
 41 42  1  0  0  0
 42 43  1  0  0  0
 43 44  1  0  0  0
 44 45  1  0  0  0
 45 46  1  0  0  0
 46 47  1  0  0  0
 47 48  2  0  0  0
 48 49  1  0  0  0
 49 50  1  0  0  0
 50 51  1  0  0  0
 51 52  1  0  0  0
 52 53  1  0  0  0
 53 54  1  0  0  0
 54 55  1  0  0  0
 55 56  1  0  0  0
M  CHG 1  26  -1
M  END
> <minimizedAffinity>
-8.44293

> <CNNscore>
0.2575543225

> <CNNaffinity>
7.3833413124

> <CNN_VS>
1.9016114473

> <CNNaffinity_variance>
1.1877044439

$$$$
/media/chris/experiments/cd1a-new-docking/inputs/ligands/7sh4_ligand.pdb


 56 55  0  0  0  0  0  0  0  0999 V2000
  -38.6424   61.2784   63.5839 C   0  0  0  0  0  0  0  0  0  0  0  0
  -39.6108   61.1154   62.4467 C   0  0  0  0  0  0  0  0  0  0  0  0
  -40.8815   61.5007   63.0122 O   0  0  0  0  0  0  0  0  0  0  0  0
  -42.1963   61.3762   61.2080 O   0  0  0  0  0  0  0  0  0  0  0  0
  -41.9766   61.1108   62.3590 C   0  0  0  0  0  0  0  0  0  0  0  0
  -42.8207   60.2042   63.2078 C   0  0  0  0  0  0  0  0  0  0  0  0
  -42.7726   58.7433   62.7930 C   0  0  0  0  0  0  0  0  0  0  0  0
  -41.4312   58.0987   63.0714 C   0  0  0  0  0  0  0  0  0  0  0  0
  -41.5004   56.6099   63.3256 C   0  0  0  0  0  0  0  0  0  0  0  0
  -41.0173   55.7843   62.1504 C   0  0  0  0  0  0  0  0  0  0  0  0
  -41.7527   56.0887   60.8682 C   0  0  0  0  0  0  0  0  0  0  0  0
  -40.8746   56.7244   59.8231 C   0  0  0  0  0  0  0  0  0  0  0  0
  -41.2304   58.1664   59.5361 C   0  0  0  0  0  0  0  0  0  0  0  0
  -40.0581   59.1075   59.7260 C   0  0  0  0  0  0  0  0  0  0  0  0
  -38.7151   58.4995   59.3799 C   0  0  0  0  0  0  0  0  0  0  0  0
  -37.6700   58.6475   60.4798 C   0  0  0  0  0  0  0  0  0  0  0  0
  -37.9769   57.8501   61.7329 C   0  0  0  0  0  0  0  0  0  0  0  0
  -36.8002   57.7418   62.6808 C   0  0  0  0  0  0  0  0  0  0  0  0
  -35.4654   58.0954   62.0397 C   0  0  0  0  0  0  0  0  0  0  0  0
  -34.2915   58.0209   62.9996 C   0  0  0  0  0  0  0  0  0  0  0  0
  -33.4323   58.4732   65.3219 C   0  0  0  0  0  0  0  0  0  0  0  0
  -34.4593   58.8304   64.2715 C   0  0  0  0  0  0  0  0  0  0  0  0
  -37.2141   61.3410   63.1067 C   0  0  0  0  0  0  0  0  0  0  0  0
  -36.9912   62.6202   62.4724 O   0  0  0  0  0  0  0  0  0  0  0  0
  -35.9503   63.6979   63.0353 P   0  0  0  0  0  0  0  0  0  0  0  0
  -34.7042   63.5862   62.2471 O   0  0  0  0  0  0  0  0  0  0  0  0
  -36.6360   65.0110   63.1015 O   0  0  0  0  0  0  0  0  0  0  0  0
  -36.8419   65.3139   62.2033 H   0  0  0  0  0  0  0  0  0  0  0  0
  -35.6303   63.2365   64.5278 O   0  0  0  0  0  0  0  0  0  0  0  0
  -36.4182   63.7435   65.6242 C   0  0  0  0  0  0  0  0  0  0  0  0
  -36.1156   62.9834   67.8766 O   0  0  0  0  0  0  0  0  0  0  0  0
  -35.5430   63.8016   66.8521 C   0  0  0  0  0  0  0  0  0  0  0  0
  -37.0252   63.2719   68.0502 H   0  0  0  0  0  0  0  0  0  0  0  0
  -33.3839   63.2518   67.7766 O   0  0  0  0  0  0  0  0  0  0  0  0
  -34.1254   63.3660   66.5688 C   0  0  0  0  0  0  0  0  0  0  0  0
  -32.4776   62.9716   67.5744 H   0  0  0  0  0  0  0  0  0  0  0  0
  -38.8500   60.1763   64.5285 O   0  0  0  0  0  0  0  0  0  0  0  0
  -38.1870   60.7805   66.5913 O   0  0  0  0  0  0  0  0  0  0  0  0
  -39.0627   60.5079   65.8164 C   0  0  0  0  0  0  0  0  0  0  0  0
  -40.5200   60.5139   66.1603 C   0  0  0  0  0  0  0  0  0  0  0  0
  -41.0763   59.0971   66.2606 C   0  0  0  0  0  0  0  0  0  0  0  0
  -42.5508   59.0382   66.6245 C   0  0  0  0  0  0  0  0  0  0  0  0
  -43.1756   57.6633   66.4173 C   0  0  0  0  0  0  0  0  0  0  0  0
  -44.4978   57.6923   65.6733 C   0  0  0  0  0  0  0  0  0  0  0  0
  -45.1921   59.0571   65.6622 C   0  0  0  0  0  0  0  0  0  0  0  0
  -46.2581   59.2369   64.5792 C   0  0  0  0  0  0  0  0  0  0  0  0
  -47.4791   59.9349   65.0987 C   0  0  0  0  0  0  0  0  0  0  0  0
  -48.7344   59.6051   64.8641 C   0  0  0  0  0  0  0  0  0  0  0  0
  -49.2037   58.4575   64.0268 C   0  0  0  0  0  0  0  0  0  0  0  0
  -49.6358   58.8942   62.6300 C   0  0  0  0  0  0  0  0  0  0  0  0
  -50.7046   58.0063   62.0172 C   0  0  0  0  0  0  0  0  0  0  0  0
  -50.6084   57.8907   60.5056 C   0  0  0  0  0  0  0  0  0  0  0  0
  -49.2827   57.3473   59.9988 C   0  0  0  0  0  0  0  0  0  0  0  0
  -48.7429   58.0975   58.7906 C   0  0  0  0  0  0  0  0  0  0  0  0
  -47.4144   57.5775   58.2782 C   0  0  0  0  0  0  0  0  0  0  0  0
  -46.9490   58.2917   57.0401 C   0  0  0  0  0  0  0  0  0  0  0  0
 21 22  1  0  0  0
  4  5  2  0  0  0
 25 24  1  0  0  0
 25 26  2  0  0  0
 25 27  1  0  0  0
 25 29  1  0  0  0
 22 20  1  0  0  0
  3  5  1  0  0  0
  3  2  1  0  0  0
 20 19  1  0  0  0
 24 23  1  0  0  0
 19 18  1  0  0  0
 18 17  1  0  0  0
 27 28  1  0  0  0
 17 16  1  0  0  0
 29 30  1  0  0  0
 16 15  1  0  0  0
 34 35  1  0  0  0
 34 36  1  0  0  0
 15 14  1  0  0  0
 31 32  1  0  0  0
 31 33  1  0  0  0
 14 13  1  0  0  0
 37  1  1  0  0  0
 37 39  1  0  0  0
 13 12  1  0  0  0
 38 39  2  0  0  0
 12 11  1  0  0  0
 11 10  1  0  0  0
 10  9  1  0  0  0
  9  8  1  0  0  0
  8  7  1  0  0  0
  7  6  1  0  0  0
  6  5  1  0  0  0
  2  1  1  0  0  0
  1 23  1  0  0  0
 30 32  1  0  0  0
 32 35  1  0  0  0
 39 40  1  0  0  0
 40 41  1  0  0  0
 41 42  1  0  0  0
 42 43  1  0  0  0
 43 44  1  0  0  0
 44 45  1  0  0  0
 45 46  1  0  0  0
 46 47  1  0  0  0
 47 48  2  0  0  0
 48 49  1  0  0  0
 49 50  1  0  0  0
 50 51  1  0  0  0
 51 52  1  0  0  0
 52 53  1  0  0  0
 53 54  1  0  0  0
 54 55  1  0  0  0
 55 56  1  0  0  0
M  CHG 1  26  -1
M  END
> <minimizedAffinity>
-8.16301

> <CNNscore>
0.2508646846

> <CNNaffinity>
7.2939934731

> <CNN_VS>
1.8298053741

> <CNNaffinity_variance>
1.3440165520

$$$$
/media/chris/experiments/cd1a-new-docking/inputs/ligands/7sh4_ligand.pdb


 56 55  0  0  0  0  0  0  0  0999 V2000
  -39.2974   61.0480   61.7120 C   0  0  0  0  0  0  0  0  0  0  0  0
  -38.6657   60.0689   60.7634 C   0  0  0  0  0  0  0  0  0  0  0  0
  -39.5383   60.0838   59.6138 O   0  0  0  0  0  0  0  0  0  0  0  0
  -39.0290   58.3411   58.3090 O   0  0  0  0  0  0  0  0  0  0  0  0
  -39.7973   58.9100   59.0367 C   0  0  0  0  0  0  0  0  0  0  0  0
  -41.1053   58.3477   59.5138 C   0  0  0  0  0  0  0  0  0  0  0  0
  -40.9893   56.9883   60.1823 C   0  0  0  0  0  0  0  0  0  0  0  0
  -40.5312   57.0804   61.6225 C   0  0  0  0  0  0  0  0  0  0  0  0
  -41.5038   56.4939   62.6204 C   0  0  0  0  0  0  0  0  0  0  0  0
  -42.4517   57.5238   63.2008 C   0  0  0  0  0  0  0  0  0  0  0  0
  -42.8586   57.2221   64.6225 C   0  0  0  0  0  0  0  0  0  0  0  0
  -41.7718   57.5203   65.6213 C   0  0  0  0  0  0  0  0  0  0  0  0
  -41.6620   58.9884   65.9687 C   0  0  0  0  0  0  0  0  0  0  0  0
  -40.3196   59.5807   65.5898 C   0  0  0  0  0  0  0  0  0  0  0  0
  -39.3701   58.5952   64.9416 C   0  0  0  0  0  0  0  0  0  0  0  0
  -37.9048   58.8317   65.2894 C   0  0  0  0  0  0  0  0  0  0  0  0
  -36.9745   57.7292   64.8211 C   0  0  0  0  0  0  0  0  0  0  0  0
  -36.6522   57.8011   63.3426 C   0  0  0  0  0  0  0  0  0  0  0  0
  -35.1679   57.6627   63.0340 C   0  0  0  0  0  0  0  0  0  0  0  0
  -34.4183   58.9829   63.0498 C   0  0  0  0  0  0  0  0  0  0  0  0
  -33.1994   58.4274   65.1809 C   0  0  0  0  0  0  0  0  0  0  0  0
  -33.0813   58.9452   63.7654 C   0  0  0  0  0  0  0  0  0  0  0  0
  -38.3722   61.4183   62.8428 C   0  0  0  0  0  0  0  0  0  0  0  0
  -37.4109   62.3834   62.3602 O   0  0  0  0  0  0  0  0  0  0  0  0
  -36.4613   63.2244   63.3363 P   0  0  0  0  0  0  0  0  0  0  0  0
  -35.1022   62.6466   63.2629 O   0  0  0  0  0  0  0  0  0  0  0  0
  -36.6411   64.6637   63.0280 O   0  0  0  0  0  0  0  0  0  0  0  0
  -36.3036   64.8482   62.1375 H   0  0  0  0  0  0  0  0  0  0  0  0
  -37.0272   62.9635   64.8042 O   0  0  0  0  0  0  0  0  0  0  0  0
  -36.2547   62.1952   65.7491 C   0  0  0  0  0  0  0  0  0  0  0  0
  -36.0501   62.9045   68.0289 O   0  0  0  0  0  0  0  0  0  0  0  0
  -35.5791   63.1516   66.7008 C   0  0  0  0  0  0  0  0  0  0  0  0
  -37.0172   62.9769   68.0478 H   0  0  0  0  0  0  0  0  0  0  0  0
  -33.4923   63.6029   67.8234 O   0  0  0  0  0  0  0  0  0  0  0  0
  -34.0739   63.0429   66.6530 C   0  0  0  0  0  0  0  0  0  0  0  0
  -32.5268   63.5238   67.7743 H   0  0  0  0  0  0  0  0  0  0  0  0
  -40.5511   60.4694   62.2054 O   0  0  0  0  0  0  0  0  0  0  0  0
  -42.1184   61.5860   61.0405 O   0  0  0  0  0  0  0  0  0  0  0  0
  -41.6596   61.2257   62.0899 C   0  0  0  0  0  0  0  0  0  0  0  0
  -42.2603   61.5468   63.4234 C   0  0  0  0  0  0  0  0  0  0  0  0
  -43.7844   61.5545   63.3624 C   0  0  0  0  0  0  0  0  0  0  0  0
  -44.4558   61.2211   64.6846 C   0  0  0  0  0  0  0  0  0  0  0  0
  -45.1675   59.8730   64.6843 C   0  0  0  0  0  0  0  0  0  0  0  0
  -46.6065   59.9350   65.1615 C   0  0  0  0  0  0  0  0  0  0  0  0
  -47.6515   59.7307   64.0609 C   0  0  0  0  0  0  0  0  0  0  0  0
  -48.5348   60.9453   63.7676 C   0  0  0  0  0  0  0  0  0  0  0  0
  -49.8539   60.8688   64.4762 C   0  0  0  0  0  0  0  0  0  0  0  0
  -50.9667   60.3336   64.0129 C   0  0  0  0  0  0  0  0  0  0  0  0
  -51.1447   59.6859   62.6760 C   0  0  0  0  0  0  0  0  0  0  0  0
  -50.7712   58.2065   62.6914 C   0  0  0  0  0  0  0  0  0  0  0  0
  -49.8109   57.8087   61.5843 C   0  0  0  0  0  0  0  0  0  0  0  0
  -49.3221   58.9807   60.7506 C   0  0  0  0  0  0  0  0  0  0  0  0
  -48.9618   58.6269   59.3173 C   0  0  0  0  0  0  0  0  0  0  0  0
  -48.3212   57.2546   59.1750 C   0  0  0  0  0  0  0  0  0  0  0  0
  -47.0726   57.2370   58.3157 C   0  0  0  0  0  0  0  0  0  0  0  0
  -47.0798   58.3049   57.2577 C   0  0  0  0  0  0  0  0  0  0  0  0
 21 22  1  0  0  0
  4  5  2  0  0  0
 25 24  1  0  0  0
 25 26  2  0  0  0
 25 27  1  0  0  0
 25 29  1  0  0  0
 22 20  1  0  0  0
  3  5  1  0  0  0
  3  2  1  0  0  0
 20 19  1  0  0  0
 24 23  1  0  0  0
 19 18  1  0  0  0
 18 17  1  0  0  0
 27 28  1  0  0  0
 17 16  1  0  0  0
 29 30  1  0  0  0
 16 15  1  0  0  0
 34 35  1  0  0  0
 34 36  1  0  0  0
 15 14  1  0  0  0
 31 32  1  0  0  0
 31 33  1  0  0  0
 14 13  1  0  0  0
 37  1  1  0  0  0
 37 39  1  0  0  0
 13 12  1  0  0  0
 38 39  2  0  0  0
 12 11  1  0  0  0
 11 10  1  0  0  0
 10  9  1  0  0  0
  9  8  1  0  0  0
  8  7  1  0  0  0
  7  6  1  0  0  0
  6  5  1  0  0  0
  2  1  1  0  0  0
  1 23  1  0  0  0
 30 32  1  0  0  0
 32 35  1  0  0  0
 39 40  1  0  0  0
 40 41  1  0  0  0
 41 42  1  0  0  0
 42 43  1  0  0  0
 43 44  1  0  0  0
 44 45  1  0  0  0
 45 46  1  0  0  0
 46 47  1  0  0  0
 47 48  2  0  0  0
 48 49  1  0  0  0
 49 50  1  0  0  0
 50 51  1  0  0  0
 51 52  1  0  0  0
 52 53  1  0  0  0
 53 54  1  0  0  0
 54 55  1  0  0  0
 55 56  1  0  0  0
M  CHG 1  26  -1
M  END
> <minimizedAffinity>
-8.91700

> <CNNscore>
0.2309143096

> <CNNaffinity>
7.3418798447

> <CNN_VS>
1.6953451633

> <CNNaffinity_variance>
1.5836524963

$$$$
