/media/chris/experiments/cd1a-new-docking/inputs/ligands/7sh4_ligand.pdb


 56 55  0  0  0  0  0  0  0  0999 V2000
  -39.8252   59.7866   64.6436 C   0  0  0  0  0  0  0  0  0  0  0  0
  -40.5999   58.6124   65.1715 C   0  0  0  0  0  0  0  0  0  0  0  0
  -40.5161   57.6345   64.1133 O   0  0  0  0  0  0  0  0  0  0  0  0
  -42.7368   57.3767   64.1467 O   0  0  0  0  0  0  0  0  0  0  0  0
  -41.6546   57.0504   63.7389 C   0  0  0  0  0  0  0  0  0  0  0  0
  -41.4137   56.0327   62.6613 C   0  0  0  0  0  0  0  0  0  0  0  0
  -40.8331   56.6097   61.3814 C   0  0  0  0  0  0  0  0  0  0  0  0
  -41.7080   57.6858   60.7738 C   0  0  0  0  0  0  0  0  0  0  0  0
  -40.9936   58.5803   59.7863 C   0  0  0  0  0  0  0  0  0  0  0  0
  -39.6906   57.9902   59.2860 C   0  0  0  0  0  0  0  0  0  0  0  0
  -38.5132   58.9183   59.4587 C   0  0  0  0  0  0  0  0  0  0  0  0
  -38.0693   59.0452   60.8920 C   0  0  0  0  0  0  0  0  0  0  0  0
  -37.5254   57.7569   61.4685 C   0  0  0  0  0  0  0  0  0  0  0  0
  -36.9750   57.9289   62.8698 C   0  0  0  0  0  0  0  0  0  0  0  0
  -35.4713   57.7771   62.9660 C   0  0  0  0  0  0  0  0  0  0  0  0
  -34.9369   57.8300   64.3928 C   0  0  0  0  0  0  0  0  0  0  0  0
  -33.7148   58.7123   64.5607 C   0  0  0  0  0  0  0  0  0  0  0  0
  -32.8564   58.7952   63.3152 C   0  0  0  0  0  0  0  0  0  0  0  0
  -32.4819   60.2184   62.9258 C   0  0  0  0  0  0  0  0  0  0  0  0
  -31.3829   60.2933   61.8809 C   0  0  0  0  0  0  0  0  0  0  0  0
  -28.8956   60.6706   61.9623 C   0  0  0  0  0  0  0  0  0  0  0  0
  -30.2643   61.2653   62.2048 C   0  0  0  0  0  0  0  0  0  0  0  0
  -38.7927   60.2726   65.6283 C   0  0  0  0  0  0  0  0  0  0  0  0
  -37.5243   60.3995   64.9476 O   0  0  0  0  0  0  0  0  0  0  0  0
  -36.9699   61.7976   64.3997 P   0  0  0  0  0  0  0  0  0  0  0  0
  -35.5230   61.6445   64.1356 O   0  0  0  0  0  0  0  0  0  0  0  0
  -37.8526   62.2428   63.2946 O   0  0  0  0  0  0  0  0  0  0  0  0
  -37.7651   61.6331   62.5453 H   0  0  0  0  0  0  0  0  0  0  0  0
  -37.1428   62.8234   65.6083 O   0  0  0  0  0  0  0  0  0  0  0  0
  -36.3661   64.0382   65.6402 C   0  0  0  0  0  0  0  0  0  0  0  0
  -35.9919   62.9966   67.7657 O   0  0  0  0  0  0  0  0  0  0  0  0
  -35.5314   64.0363   66.8973 C   0  0  0  0  0  0  0  0  0  0  0  0
  -36.9376   63.1189   67.9434 H   0  0  0  0  0  0  0  0  0  0  0  0
  -33.4030   63.2431   67.7091 O   0  0  0  0  0  0  0  0  0  0  0  0
  -34.0596   63.8614   66.6099 C   0  0  0  0  0  0  0  0  0  0  0  0
  -32.4602   63.1395   67.5059 H   0  0  0  0  0  0  0  0  0  0  0  0
  -40.7759   60.8450   64.2890 O   0  0  0  0  0  0  0  0  0  0  0  0
  -40.3992   61.1662   62.0947 O   0  0  0  0  0  0  0  0  0  0  0  0
  -41.1515   60.9209   62.9978 C   0  0  0  0  0  0  0  0  0  0  0  0
  -42.6126   60.6449   62.8219 C   0  0  0  0  0  0  0  0  0  0  0  0
  -43.4580   61.8651   63.1728 C   0  0  0  0  0  0  0  0  0  0  0  0
  -44.6097   61.5658   64.1184 C   0  0  0  0  0  0  0  0  0  0  0  0
  -44.3362   60.4007   65.0627 C   0  0  0  0  0  0  0  0  0  0  0  0
  -45.5888   59.7614   65.6325 C   0  0  0  0  0  0  0  0  0  0  0  0
  -46.6684   59.4410   64.5949 C   0  0  0  0  0  0  0  0  0  0  0  0
  -48.0166   60.1276   64.8241 C   0  0  0  0  0  0  0  0  0  0  0  0
  -48.5417   60.7718   63.5762 C   0  0  0  0  0  0  0  0  0  0  0  0
  -49.6396   60.4439   62.9230 C   0  0  0  0  0  0  0  0  0  0  0  0
  -50.5960   59.3551   63.2947 C   0  0  0  0  0  0  0  0  0  0  0  0
  -50.2489   58.0244   62.6337 C   0  0  0  0  0  0  0  0  0  0  0  0
  -50.8281   57.8672   61.2387 C   0  0  0  0  0  0  0  0  0  0  0  0
  -49.8048   57.4478   60.1973 C   0  0  0  0  0  0  0  0  0  0  0  0
  -49.3704   58.5603   59.2576 C   0  0  0  0  0  0  0  0  0  0  0  0
  -48.0729   58.2601   58.5227 C   0  0  0  0  0  0  0  0  0  0  0  0
  -48.2411   57.3873   57.2948 C   0  0  0  0  0  0  0  0  0  0  0  0
  -47.2378   56.2696   57.2339 C   0  0  0  0  0  0  0  0  0  0  0  0
 21 22  1  0  0  0
  4  5  2  0  0  0
 25 24  1  0  0  0
 25 26  2  0  0  0
 25 27  1  0  0  0
 25 29  1  0  0  0
 22 20  1  0  0  0
  3  5  1  0  0  0
  3  2  1  0  0  0
 20 19  1  0  0  0
 24 23  1  0  0  0
 19 18  1  0  0  0
 18 17  1  0  0  0
 27 28  1  0  0  0
 17 16  1  0  0  0
 29 30  1  0  0  0
 16 15  1  0  0  0
 34 35  1  0  0  0
 34 36  1  0  0  0
 15 14  1  0  0  0
 31 32  1  0  0  0
 31 33  1  0  0  0
 14 13  1  0  0  0
 37  1  1  0  0  0
 37 39  1  0  0  0
 13 12  1  0  0  0
 38 39  2  0  0  0
 12 11  1  0  0  0
 11 10  1  0  0  0
 10  9  1  0  0  0
  9  8  1  0  0  0
  8  7  1  0  0  0
  7  6  1  0  0  0
  6  5  1  0  0  0
  2  1  1  0  0  0
  1 23  1  0  0  0
 30 32  1  0  0  0
 32 35  1  0  0  0
 39 40  1  0  0  0
 40 41  1  0  0  0
 41 42  1  0  0  0
 42 43  1  0  0  0
 43 44  1  0  0  0
 44 45  1  0  0  0
 45 46  1  0  0  0
 46 47  1  0  0  0
 47 48  2  0  0  0
 48 49  1  0  0  0
 49 50  1  0  0  0
 50 51  1  0  0  0
 51 52  1  0  0  0
 52 53  1  0  0  0
 53 54  1  0  0  0
 54 55  1  0  0  0
 55 56  1  0  0  0
M  CHG 1  26  -1
M  END
> <minimizedAffinity>
-8.86451

> <CNNscore>
0.5545789003

> <CNNaffinity>
7.5007781982

> <CNN_VS>
4.1597733498

> <CNNaffinity_variance>
0.9823486209

$$$$
/media/chris/experiments/cd1a-new-docking/inputs/ligands/7sh4_ligand.pdb


 56 55  0  0  0  0  0  0  0  0999 V2000
  -40.8516   60.5856   63.6014 C   0  0  0  0  0  0  0  0  0  0  0  0
  -42.1014   61.2357   63.0789 C   0  0  0  0  0  0  0  0  0  0  0  0
  -42.7650   61.7206   64.2653 O   0  0  0  0  0  0  0  0  0  0  0  0
  -44.9476   61.9235   63.8246 O   0  0  0  0  0  0  0  0  0  0  0  0
  -44.0480   61.3913   64.4172 C   0  0  0  0  0  0  0  0  0  0  0  0
  -44.1995   60.2001   65.3189 C   0  0  0  0  0  0  0  0  0  0  0  0
  -44.6352   58.9321   64.6042 C   0  0  0  0  0  0  0  0  0  0  0  0
  -44.8412   57.7676   65.5496 C   0  0  0  0  0  0  0  0  0  0  0  0
  -46.0939   57.8666   66.3904 C   0  0  0  0  0  0  0  0  0  0  0  0
  -47.3444   58.0990   65.5666 C   0  0  0  0  0  0  0  0  0  0  0  0
  -48.1265   59.3133   66.0038 C   0  0  0  0  0  0  0  0  0  0  0  0
  -47.9960   60.4717   65.0505 C   0  0  0  0  0  0  0  0  0  0  0  0
  -48.7326   60.2619   63.7462 C   0  0  0  0  0  0  0  0  0  0  0  0
  -50.2139   60.5618   63.8555 C   0  0  0  0  0  0  0  0  0  0  0  0
  -51.1041   59.5261   63.2011 C   0  0  0  0  0  0  0  0  0  0  0  0
  -50.3561   58.2902   62.7143 C   0  0  0  0  0  0  0  0  0  0  0  0
  -50.8655   57.7413   61.3954 C   0  0  0  0  0  0  0  0  0  0  0  0
  -49.7954   57.0460   60.5790 C   0  0  0  0  0  0  0  0  0  0  0  0
  -48.5775   57.9163   60.3019 C   0  0  0  0  0  0  0  0  0  0  0  0
  -48.5202   58.4464   58.8804 C   0  0  0  0  0  0  0  0  0  0  0  0
  -47.7193   56.4184   57.6225 C   0  0  0  0  0  0  0  0  0  0  0  0
  -47.4225   57.8459   58.0227 C   0  0  0  0  0  0  0  0  0  0  0  0
  -39.6140   61.1058   62.9162 C   0  0  0  0  0  0  0  0  0  0  0  0
  -38.7777   61.7574   63.8982 O   0  0  0  0  0  0  0  0  0  0  0  0
  -37.2167   62.0259   63.6672 P   0  0  0  0  0  0  0  0  0  0  0  0
  -36.4837   60.7879   64.0091 O   0  0  0  0  0  0  0  0  0  0  0  0
  -37.0435   62.6055   62.3135 O   0  0  0  0  0  0  0  0  0  0  0  0
  -37.2806   61.9433   61.6455 H   0  0  0  0  0  0  0  0  0  0  0  0
  -36.8180   63.1429   64.7331 O   0  0  0  0  0  0  0  0  0  0  0  0
  -35.9035   62.8261   65.8024 C   0  0  0  0  0  0  0  0  0  0  0  0
  -36.1766   64.0521   67.8432 O   0  0  0  0  0  0  0  0  0  0  0  0
  -35.5792   64.0996   66.5440 C   0  0  0  0  0  0  0  0  0  0  0  0
  -37.1308   63.9018   67.7551 H   0  0  0  0  0  0  0  0  0  0  0  0
  -33.5330   63.5071   67.6755 O   0  0  0  0  0  0  0  0  0  0  0  0
  -34.0923   64.3332   66.6624 C   0  0  0  0  0  0  0  0  0  0  0  0
  -32.5789   63.6713   67.7364 H   0  0  0  0  0  0  0  0  0  0  0  0
  -40.9869   59.1339   63.4464 O   0  0  0  0  0  0  0  0  0  0  0  0
  -40.7438   58.8456   65.6640 O   0  0  0  0  0  0  0  0  0  0  0  0
  -40.9519   58.3938   64.5711 C   0  0  0  0  0  0  0  0  0  0  0  0
  -41.2213   56.9464   64.2983 C   0  0  0  0  0  0  0  0  0  0  0  0
  -41.9450   56.7534   62.9695 C   0  0  0  0  0  0  0  0  0  0  0  0
  -41.2288   55.8198   62.0075 C   0  0  0  0  0  0  0  0  0  0  0  0
  -41.2149   56.3212   60.5680 C   0  0  0  0  0  0  0  0  0  0  0  0
  -41.8292   57.6969   60.3879 C   0  0  0  0  0  0  0  0  0  0  0  0
  -40.8484   58.7759   59.9205 C   0  0  0  0  0  0  0  0  0  0  0  0
  -39.6676   58.2677   59.0904 C   0  0  0  0  0  0  0  0  0  0  0  0
  -38.3729   58.9014   59.5029 C   0  0  0  0  0  0  0  0  0  0  0  0
  -37.6839   58.6437   60.5977 C   0  0  0  0  0  0  0  0  0  0  0  0
  -38.0527   57.6583   61.6613 C   0  0  0  0  0  0  0  0  0  0  0  0
  -36.9899   57.5528   62.7511 C   0  0  0  0  0  0  0  0  0  0  0  0
  -35.6635   58.1879   62.3725 C   0  0  0  0  0  0  0  0  0  0  0  0
  -34.4662   57.5566   63.0622 C   0  0  0  0  0  0  0  0  0  0  0  0
  -33.7863   58.4500   64.0864 C   0  0  0  0  0  0  0  0  0  0  0  0
  -33.2065   59.7233   63.4894 C   0  0  0  0  0  0  0  0  0  0  0  0
  -32.1094   59.4888   62.4699 C   0  0  0  0  0  0  0  0  0  0  0  0
  -30.9767   60.4685   62.5989 C   0  0  0  0  0  0  0  0  0  0  0  0
 21 22  1  0  0  0
  4  5  2  0  0  0
 25 24  1  0  0  0
 25 26  2  0  0  0
 25 27  1  0  0  0
 25 29  1  0  0  0
 22 20  1  0  0  0
  3  5  1  0  0  0
  3  2  1  0  0  0
 20 19  1  0  0  0
 24 23  1  0  0  0
 19 18  1  0  0  0
 18 17  1  0  0  0
 27 28  1  0  0  0
 17 16  1  0  0  0
 29 30  1  0  0  0
 16 15  1  0  0  0
 34 35  1  0  0  0
 34 36  1  0  0  0
 15 14  1  0  0  0
 31 32  1  0  0  0
 31 33  1  0  0  0
 14 13  1  0  0  0
 37  1  1  0  0  0
 37 39  1  0  0  0
 13 12  1  0  0  0
 38 39  2  0  0  0
 12 11  1  0  0  0
 11 10  1  0  0  0
 10  9  1  0  0  0
  9  8  1  0  0  0
  8  7  1  0  0  0
  7  6  1  0  0  0
  6  5  1  0  0  0
  2  1  1  0  0  0
  1 23  1  0  0  0
 30 32  1  0  0  0
 32 35  1  0  0  0
 39 40  1  0  0  0
 40 41  1  0  0  0
 41 42  1  0  0  0
 42 43  1  0  0  0
 43 44  1  0  0  0
 44 45  1  0  0  0
 45 46  1  0  0  0
 46 47  1  0  0  0
 47 48  2  0  0  0
 48 49  1  0  0  0
 49 50  1  0  0  0
 50 51  1  0  0  0
 51 52  1  0  0  0
 52 53  1  0  0  0
 53 54  1  0  0  0
 54 55  1  0  0  0
 55 56  1  0  0  0
M  CHG 1  26  -1
M  END
> <minimizedAffinity>
-8.91293

> <CNNscore>
0.3902820349

> <CNNaffinity>
7.4018526077

> <CNN_VS>
2.8888101578

> <CNNaffinity_variance>
1.5453648567

$$$$
/media/chris/experiments/cd1a-new-docking/inputs/ligands/7sh4_ligand.pdb


 56 55  0  0  0  0  0  0  0  0999 V2000
  -40.2049   60.1978   64.5495 C   0  0  0  0  0  0  0  0  0  0  0  0
  -40.7825   61.0543   63.4584 C   0  0  0  0  0  0  0  0  0  0  0  0
  -41.9090   61.7043   64.0840 O   0  0  0  0  0  0  0  0  0  0  0  0
  -43.2386   61.8997   62.2971 O   0  0  0  0  0  0  0  0  0  0  0  0
  -43.0814   61.6194   63.4549 C   0  0  0  0  0  0  0  0  0  0  0  0
  -44.1311   61.0153   64.3426 C   0  0  0  0  0  0  0  0  0  0  0  0
  -44.3922   59.5416   64.0808 C   0  0  0  0  0  0  0  0  0  0  0  0
  -45.0095   58.8355   65.2694 C   0  0  0  0  0  0  0  0  0  0  0  0
  -45.8702   59.7237   66.1389 C   0  0  0  0  0  0  0  0  0  0  0  0
  -47.2805   59.1972   66.3123 C   0  0  0  0  0  0  0  0  0  0  0  0
  -48.0509   59.1245   65.0167 C   0  0  0  0  0  0  0  0  0  0  0  0
  -48.0323   60.4191   64.2476 C   0  0  0  0  0  0  0  0  0  0  0  0
  -49.3890   61.0810   64.1532 C   0  0  0  0  0  0  0  0  0  0  0  0
  -50.5313   60.1067   64.3590 C   0  0  0  0  0  0  0  0  0  0  0  0
  -51.3605   59.8555   63.1170 C   0  0  0  0  0  0  0  0  0  0  0  0
  -51.1174   58.4922   62.4794 C   0  0  0  0  0  0  0  0  0  0  0  0
  -49.9791   58.4749   61.4773 C   0  0  0  0  0  0  0  0  0  0  0  0
  -50.3989   58.0123   60.0971 C   0  0  0  0  0  0  0  0  0  0  0  0
  -49.2963   58.1261   59.0538 C   0  0  0  0  0  0  0  0  0  0  0  0
  -48.0261   57.3837   59.4286 C   0  0  0  0  0  0  0  0  0  0  0  0
  -47.0519   58.3317   57.3101 C   0  0  0  0  0  0  0  0  0  0  0  0
  -47.0511   57.1762   58.2851 C   0  0  0  0  0  0  0  0  0  0  0  0
  -38.8193   60.6411   64.9437 C   0  0  0  0  0  0  0  0  0  0  0  0
  -38.1284   61.1111   63.7647 O   0  0  0  0  0  0  0  0  0  0  0  0
  -36.8922   62.1257   63.8304 P   0  0  0  0  0  0  0  0  0  0  0  0
  -35.7185   61.4571   63.2287 O   0  0  0  0  0  0  0  0  0  0  0  0
  -37.3334   63.4274   63.2739 O   0  0  0  0  0  0  0  0  0  0  0  0
  -37.5196   63.3278   62.3272 H   0  0  0  0  0  0  0  0  0  0  0  0
  -36.5971   62.3319   65.3839 O   0  0  0  0  0  0  0  0  0  0  0  0
  -35.2895   62.0358   65.9154 C   0  0  0  0  0  0  0  0  0  0  0  0
  -33.9105   63.2199   67.4771 O   0  0  0  0  0  0  0  0  0  0  0  0
  -34.5962   63.3393   66.2270 C   0  0  0  0  0  0  0  0  0  0  0  0
  -34.5391   62.9550   68.1667 H   0  0  0  0  0  0  0  0  0  0  0  0
  -34.1863   64.7904   64.3443 O   0  0  0  0  0  0  0  0  0  0  0  0
  -33.6317   63.7515   65.1410 C   0  0  0  0  0  0  0  0  0  0  0  0
  -33.5532   65.0411   63.6535 H   0  0  0  0  0  0  0  0  0  0  0  0
  -40.2193   58.8029   64.0978 O   0  0  0  0  0  0  0  0  0  0  0  0
  -41.5934   58.0957   65.7323 O   0  0  0  0  0  0  0  0  0  0  0  0
  -41.1757   58.0050   64.6103 C   0  0  0  0  0  0  0  0  0  0  0  0
  -41.6675   57.0057   63.6096 C   0  0  0  0  0  0  0  0  0  0  0  0
  -41.8292   57.6314   62.2279 C   0  0  0  0  0  0  0  0  0  0  0  0
  -41.2345   56.8016   61.1020 C   0  0  0  0  0  0  0  0  0  0  0  0
  -40.2944   57.5883   60.1958 C   0  0  0  0  0  0  0  0  0  0  0  0
  -39.0648   58.1282   60.9022 C   0  0  0  0  0  0  0  0  0  0  0  0
  -38.3689   57.1243   61.8256 C   0  0  0  0  0  0  0  0  0  0  0  0
  -37.4006   57.7354   62.8408 C   0  0  0  0  0  0  0  0  0  0  0  0
  -35.9694   57.4432   62.5029 C   0  0  0  0  0  0  0  0  0  0  0  0
  -34.9049   57.8495   63.1672 C   0  0  0  0  0  0  0  0  0  0  0  0
  -34.9043   58.6904   64.4047 C   0  0  0  0  0  0  0  0  0  0  0  0
  -33.4942   59.0475   64.8654 C   0  0  0  0  0  0  0  0  0  0  0  0
  -32.3995   58.4062   64.0307 C   0  0  0  0  0  0  0  0  0  0  0  0
  -31.7599   59.3546   63.0313 C   0  0  0  0  0  0  0  0  0  0  0  0
  -32.3524   60.7540   63.0232 C   0  0  0  0  0  0  0  0  0  0  0  0
  -31.8675   61.6102   61.8632 C   0  0  0  0  0  0  0  0  0  0  0  0
  -30.5975   61.1064   61.2065 C   0  0  0  0  0  0  0  0  0  0  0  0
  -29.3567   61.7188   61.7941 C   0  0  0  0  0  0  0  0  0  0  0  0
 21 22  1  0  0  0
  4  5  2  0  0  0
 25 24  1  0  0  0
 25 26  2  0  0  0
 25 27  1  0  0  0
 25 29  1  0  0  0
 22 20  1  0  0  0
  3  5  1  0  0  0
  3  2  1  0  0  0
 20 19  1  0  0  0
 24 23  1  0  0  0
 19 18  1  0  0  0
 18 17  1  0  0  0
 27 28  1  0  0  0
 17 16  1  0  0  0
 29 30  1  0  0  0
 16 15  1  0  0  0
 34 35  1  0  0  0
 34 36  1  0  0  0
 15 14  1  0  0  0
 31 32  1  0  0  0
 31 33  1  0  0  0
 14 13  1  0  0  0
 37  1  1  0  0  0
 37 39  1  0  0  0
 13 12  1  0  0  0
 38 39  2  0  0  0
 12 11  1  0  0  0
 11 10  1  0  0  0
 10  9  1  0  0  0
  9  8  1  0  0  0
  8  7  1  0  0  0
  7  6  1  0  0  0
  6  5  1  0  0  0
  2  1  1  0  0  0
  1 23  1  0  0  0
 30 32  1  0  0  0
 32 35  1  0  0  0
 39 40  1  0  0  0
 40 41  1  0  0  0
 41 42  1  0  0  0
 42 43  1  0  0  0
 43 44  1  0  0  0
 44 45  1  0  0  0
 45 46  1  0  0  0
 46 47  1  0  0  0
 47 48  2  0  0  0
 48 49  1  0  0  0
 49 50  1  0  0  0
 50 51  1  0  0  0
 51 52  1  0  0  0
 52 53  1  0  0  0
 53 54  1  0  0  0
 54 55  1  0  0  0
 55 56  1  0  0  0
M  CHG 1  26  -1
M  END
> <minimizedAffinity>
-8.22030

> <CNNscore>
0.3617503047

> <CNNaffinity>
7.1481385231

> <CNN_VS>
2.5858411789

> <CNNaffinity_variance>
0.9983717203

$$$$
/media/chris/experiments/cd1a-new-docking/inputs/ligands/7sh4_ligand.pdb


 56 55  0  0  0  0  0  0  0  0999 V2000
  -40.5960   60.7264   63.4807 C   0  0  0  0  0  0  0  0  0  0  0  0
  -40.4251   60.3820   64.9333 C   0  0  0  0  0  0  0  0  0  0  0  0
  -41.1541   59.1458   65.0872 O   0  0  0  0  0  0  0  0  0  0  0  0
  -39.2952   57.9208   64.8806 O   0  0  0  0  0  0  0  0  0  0  0  0
  -40.4917   58.0178   64.8297 C   0  0  0  0  0  0  0  0  0  0  0  0
  -41.4370   56.8746   64.5961 C   0  0  0  0  0  0  0  0  0  0  0  0
  -42.0382   56.8416   63.2012 C   0  0  0  0  0  0  0  0  0  0  0  0
  -41.3282   55.8726   62.2796 C   0  0  0  0  0  0  0  0  0  0  0  0
  -41.3370   56.2825   60.8244 C   0  0  0  0  0  0  0  0  0  0  0  0
  -41.6303   57.7557   60.6247 C   0  0  0  0  0  0  0  0  0  0  0  0
  -41.1187   58.2903   59.3095 C   0  0  0  0  0  0  0  0  0  0  0  0
  -40.0069   59.2925   59.4743 C   0  0  0  0  0  0  0  0  0  0  0  0
  -38.6305   58.7030   59.2603 C   0  0  0  0  0  0  0  0  0  0  0  0
  -37.7723   58.7519   60.5083 C   0  0  0  0  0  0  0  0  0  0  0  0
  -38.0945   57.6745   61.5225 C   0  0  0  0  0  0  0  0  0  0  0  0
  -37.0865   57.5802   62.6623 C   0  0  0  0  0  0  0  0  0  0  0  0
  -35.7404   58.2040   62.3475 C   0  0  0  0  0  0  0  0  0  0  0  0
  -34.5880   57.5530   63.0848 C   0  0  0  0  0  0  0  0  0  0  0  0
  -34.3541   58.1234   64.4767 C   0  0  0  0  0  0  0  0  0  0  0  0
  -33.0426   58.8761   64.6124 C   0  0  0  0  0  0  0  0  0  0  0  0
  -32.2456   60.3715   62.7510 C   0  0  0  0  0  0  0  0  0  0  0  0
  -32.2330   58.9763   63.3335 C   0  0  0  0  0  0  0  0  0  0  0  0
  -39.3186   61.2386   62.8662 C   0  0  0  0  0  0  0  0  0  0  0  0
  -38.2068   60.8240   63.6911 O   0  0  0  0  0  0  0  0  0  0  0  0
  -37.1131   61.8493   64.2520 P   0  0  0  0  0  0  0  0  0  0  0  0
  -37.5856   62.3526   65.5598 O   0  0  0  0  0  0  0  0  0  0  0  0
  -35.7853   61.1935   64.1786 O   0  0  0  0  0  0  0  0  0  0  0  0
  -35.7598   60.4452   64.7953 H   0  0  0  0  0  0  0  0  0  0  0  0
  -37.1137   63.0704   63.2264 O   0  0  0  0  0  0  0  0  0  0  0  0
  -36.2866   64.2247   63.4786 C   0  0  0  0  0  0  0  0  0  0  0  0
  -36.1715   63.8444   61.1154 O   0  0  0  0  0  0  0  0  0  0  0  0
  -35.7799   64.7450   62.1559 C   0  0  0  0  0  0  0  0  0  0  0  0
  -35.8446   62.9540   61.3185 H   0  0  0  0  0  0  0  0  0  0  0  0
  -36.4852   66.3075   60.4591 O   0  0  0  0  0  0  0  0  0  0  0  0
  -36.2809   66.1373   61.8558 C   0  0  0  0  0  0  0  0  0  0  0  0
  -36.8064   67.2064   60.2865 H   0  0  0  0  0  0  0  0  0  0  0  0
  -41.6834   61.7029   63.3628 O   0  0  0  0  0  0  0  0  0  0  0  0
  -42.7090   62.1818   65.3067 O   0  0  0  0  0  0  0  0  0  0  0  0
  -42.6896   61.6067   64.2529 C   0  0  0  0  0  0  0  0  0  0  0  0
  -43.7871   60.7133   63.7638 C   0  0  0  0  0  0  0  0  0  0  0  0
  -44.5986   60.1397   64.9211 C   0  0  0  0  0  0  0  0  0  0  0  0
  -45.0978   58.7243   64.6820 C   0  0  0  0  0  0  0  0  0  0  0  0
  -46.1743   58.2829   65.6670 C   0  0  0  0  0  0  0  0  0  0  0  0
  -47.5778   58.7099   65.2793 C   0  0  0  0  0  0  0  0  0  0  0  0
  -47.7043   59.2664   63.8584 C   0  0  0  0  0  0  0  0  0  0  0  0
  -48.4033   60.6232   63.7497 C   0  0  0  0  0  0  0  0  0  0  0  0
  -49.6295   60.6973   64.6094 C   0  0  0  0  0  0  0  0  0  0  0  0
  -50.8546   60.3509   64.2650 C   0  0  0  0  0  0  0  0  0  0  0  0
  -51.2778   59.8073   62.9369 C   0  0  0  0  0  0  0  0  0  0  0  0
  -50.9116   58.3359   62.7665 C   0  0  0  0  0  0  0  0  0  0  0  0
  -51.0199   57.8427   61.3342 C   0  0  0  0  0  0  0  0  0  0  0  0
  -49.7386   57.2222   60.8044 C   0  0  0  0  0  0  0  0  0  0  0  0
  -48.6435   58.2231   60.4752 C   0  0  0  0  0  0  0  0  0  0  0  0
  -48.4902   58.4845   58.9846 C   0  0  0  0  0  0  0  0  0  0  0  0
  -47.6247   57.4718   58.2612 C   0  0  0  0  0  0  0  0  0  0  0  0
  -47.6958   57.6088   56.7659 C   0  0  0  0  0  0  0  0  0  0  0  0
 21 22  1  0  0  0
  4  5  2  0  0  0
 25 24  1  0  0  0
 25 26  2  0  0  0
 25 27  1  0  0  0
 25 29  1  0  0  0
 22 20  1  0  0  0
  3  5  1  0  0  0
  3  2  1  0  0  0
 20 19  1  0  0  0
 24 23  1  0  0  0
 19 18  1  0  0  0
 18 17  1  0  0  0
 27 28  1  0  0  0
 17 16  1  0  0  0
 29 30  1  0  0  0
 16 15  1  0  0  0
 34 35  1  0  0  0
 34 36  1  0  0  0
 15 14  1  0  0  0
 31 32  1  0  0  0
 31 33  1  0  0  0
 14 13  1  0  0  0
 37  1  1  0  0  0
 37 39  1  0  0  0
 13 12  1  0  0  0
 38 39  2  0  0  0
 12 11  1  0  0  0
 11 10  1  0  0  0
 10  9  1  0  0  0
  9  8  1  0  0  0
  8  7  1  0  0  0
  7  6  1  0  0  0
  6  5  1  0  0  0
  2  1  1  0  0  0
  1 23  1  0  0  0
 30 32  1  0  0  0
 32 35  1  0  0  0
 39 40  1  0  0  0
 40 41  1  0  0  0
 41 42  1  0  0  0
 42 43  1  0  0  0
 43 44  1  0  0  0
 44 45  1  0  0  0
 45 46  1  0  0  0
 46 47  1  0  0  0
 47 48  2  0  0  0
 48 49  1  0  0  0
 49 50  1  0  0  0
 50 51  1  0  0  0
 51 52  1  0  0  0
 52 53  1  0  0  0
 53 54  1  0  0  0
 54 55  1  0  0  0
 55 56  1  0  0  0
M  CHG 1  26  -1
M  END
> <minimizedAffinity>
-8.63382

> <CNNscore>
0.3538759947

> <CNNaffinity>
7.5566186905

> <CNN_VS>
2.6741058826

> <CNNaffinity_variance>
0.8324006200

$$$$
/media/chris/experiments/cd1a-new-docking/inputs/ligands/7sh4_ligand.pdb


 56 55  0  0  0  0  0  0  0  0999 V2000
  -40.5995   60.1425   65.4084 C   0  0  0  0  0  0  0  0  0  0  0  0
  -41.6647   59.7529   66.3939 C   0  0  0  0  0  0  0  0  0  0  0  0
  -41.6968   58.3117   66.3219 O   0  0  0  0  0  0  0  0  0  0  0  0
  -43.8444   57.8491   66.7377 O   0  0  0  0  0  0  0  0  0  0  0  0
  -42.8713   57.7469   66.0404 C   0  0  0  0  0  0  0  0  0  0  0  0
  -42.8456   57.0841   64.6932 C   0  0  0  0  0  0  0  0  0  0  0  0
  -41.4715   56.5942   64.2686 C   0  0  0  0  0  0  0  0  0  0  0  0
  -41.0610   57.1094   62.9053 C   0  0  0  0  0  0  0  0  0  0  0  0
  -40.9279   56.0338   61.8512 C   0  0  0  0  0  0  0  0  0  0  0  0
  -41.2493   56.5281   60.4553 C   0  0  0  0  0  0  0  0  0  0  0  0
  -41.7788   57.9410   60.4328 C   0  0  0  0  0  0  0  0  0  0  0  0
  -40.9055   58.8843   59.6483 C   0  0  0  0  0  0  0  0  0  0  0  0
  -39.8462   58.1809   58.8292 C   0  0  0  0  0  0  0  0  0  0  0  0
  -38.4778   58.8156   58.9729 C   0  0  0  0  0  0  0  0  0  0  0  0
  -38.1277   59.2152   60.3910 C   0  0  0  0  0  0  0  0  0  0  0  0
  -37.7613   58.0395   61.2896 C   0  0  0  0  0  0  0  0  0  0  0  0
  -37.6413   58.4002   62.7578 C   0  0  0  0  0  0  0  0  0  0  0  0
  -36.7957   57.4244   63.5504 C   0  0  0  0  0  0  0  0  0  0  0  0
  -35.4199   57.9647   63.9143 C   0  0  0  0  0  0  0  0  0  0  0  0
  -34.3754   57.7440   62.8348 C   0  0  0  0  0  0  0  0  0  0  0  0
  -32.7521   58.6220   64.5465 C   0  0  0  0  0  0  0  0  0  0  0  0
  -33.0549   58.4509   63.0751 C   0  0  0  0  0  0  0  0  0  0  0  0
  -39.3228   60.5619   66.0910 C   0  0  0  0  0  0  0  0  0  0  0  0
  -38.2294   60.4265   65.1559 O   0  0  0  0  0  0  0  0  0  0  0  0
  -37.4435   61.6836   64.5523 P   0  0  0  0  0  0  0  0  0  0  0  0
  -36.0987   61.2277   64.1394 O   0  0  0  0  0  0  0  0  0  0  0  0
  -38.3162   62.3328   63.5445 O   0  0  0  0  0  0  0  0  0  0  0  0
  -38.4397   61.7351   62.7907 H   0  0  0  0  0  0  0  0  0  0  0  0
  -37.2661   62.6960   65.7715 O   0  0  0  0  0  0  0  0  0  0  0  0
  -36.3810   63.8278   65.6466 C   0  0  0  0  0  0  0  0  0  0  0  0
  -36.0136   62.9669   67.8525 O   0  0  0  0  0  0  0  0  0  0  0  0
  -35.5210   63.8981   66.8844 C   0  0  0  0  0  0  0  0  0  0  0  0
  -36.9481   63.1529   68.0338 H   0  0  0  0  0  0  0  0  0  0  0  0
  -33.3594   63.3218   67.7866 O   0  0  0  0  0  0  0  0  0  0  0  0
  -34.0659   63.6229   66.5900 C   0  0  0  0  0  0  0  0  0  0  0  0
  -32.4283   63.1483   67.5773 H   0  0  0  0  0  0  0  0  0  0  0  0
  -41.1306   61.2072   64.5516 O   0  0  0  0  0  0  0  0  0  0  0  0
  -40.6145   60.8977   62.3842 O   0  0  0  0  0  0  0  0  0  0  0  0
  -41.4171   60.8795   63.2770 C   0  0  0  0  0  0  0  0  0  0  0  0
  -42.8485   60.4729   63.1110 C   0  0  0  0  0  0  0  0  0  0  0  0
  -43.7979   61.5315   63.6631 C   0  0  0  0  0  0  0  0  0  0  0  0
  -44.7088   61.0257   64.7697 C   0  0  0  0  0  0  0  0  0  0  0  0
  -45.5404   59.8129   64.3681 C   0  0  0  0  0  0  0  0  0  0  0  0
  -46.9690   59.8481   64.8784 C   0  0  0  0  0  0  0  0  0  0  0  0
  -47.9227   58.8833   64.1682 C   0  0  0  0  0  0  0  0  0  0  0  0
  -49.1140   58.4110   65.0046 C   0  0  0  0  0  0  0  0  0  0  0  0
  -50.1252   59.4985   65.2116 C   0  0  0  0  0  0  0  0  0  0  0  0
  -50.9812   59.9578   64.3195 C   0  0  0  0  0  0  0  0  0  0  0  0
  -51.1230   59.4851   62.9071 C   0  0  0  0  0  0  0  0  0  0  0  0
  -50.2323   60.2610   61.9412 C   0  0  0  0  0  0  0  0  0  0  0  0
  -49.6899   59.4174   60.8009 C   0  0  0  0  0  0  0  0  0  0  0  0
  -50.1579   57.9726   60.8350 C   0  0  0  0  0  0  0  0  0  0  0  0
  -49.2179   56.9900   60.1565 C   0  0  0  0  0  0  0  0  0  0  0  0
  -48.0344   57.6577   59.4729 C   0  0  0  0  0  0  0  0  0  0  0  0
  -48.1950   57.8258   57.9749 C   0  0  0  0  0  0  0  0  0  0  0  0
  -46.8911   57.7183   57.2346 C   0  0  0  0  0  0  0  0  0  0  0  0
 21 22  1  0  0  0
  4  5  2  0  0  0
 25 24  1  0  0  0
 25 26  2  0  0  0
 25 27  1  0  0  0
 25 29  1  0  0  0
 22 20  1  0  0  0
  3  5  1  0  0  0
  3  2  1  0  0  0
 20 19  1  0  0  0
 24 23  1  0  0  0
 19 18  1  0  0  0
 18 17  1  0  0  0
 27 28  1  0  0  0
 17 16  1  0  0  0
 29 30  1  0  0  0
 16 15  1  0  0  0
 34 35  1  0  0  0
 34 36  1  0  0  0
 15 14  1  0  0  0
 31 32  1  0  0  0
 31 33  1  0  0  0
 14 13  1  0  0  0
 37  1  1  0  0  0
 37 39  1  0  0  0
 13 12  1  0  0  0
 38 39  2  0  0  0
 12 11  1  0  0  0
 11 10  1  0  0  0
 10  9  1  0  0  0
  9  8  1  0  0  0
  8  7  1  0  0  0
  7  6  1  0  0  0
  6  5  1  0  0  0
  2  1  1  0  0  0
  1 23  1  0  0  0
 30 32  1  0  0  0
 32 35  1  0  0  0
 39 40  1  0  0  0
 40 41  1  0  0  0
 41 42  1  0  0  0
 42 43  1  0  0  0
 43 44  1  0  0  0
 44 45  1  0  0  0
 45 46  1  0  0  0
 46 47  1  0  0  0
 47 48  2  0  0  0
 48 49  1  0  0  0
 49 50  1  0  0  0
 50 51  1  0  0  0
 51 52  1  0  0  0
 52 53  1  0  0  0
 53 54  1  0  0  0
 54 55  1  0  0  0
 55 56  1  0  0  0
M  CHG 1  26  -1
M  END
> <minimizedAffinity>
-8.79490

> <CNNscore>
0.3384330571

> <CNNaffinity>
7.5050554276

> <CNN_VS>
2.5399589539

> <CNNaffinity_variance>
1.7113020420

$$$$
/media/chris/experiments/cd1a-new-docking/inputs/ligands/7sh4_ligand.pdb


 56 55  0  0  0  0  0  0  0  0999 V2000
  -40.9956   60.2938   61.8510 C   0  0  0  0  0  0  0  0  0  0  0  0
  -42.1129   61.2736   62.0730 C   0  0  0  0  0  0  0  0  0  0  0  0
  -42.9762   60.6100   63.0204 O   0  0  0  0  0  0  0  0  0  0  0  0
  -42.6701   62.1755   64.5870 O   0  0  0  0  0  0  0  0  0  0  0  0
  -43.3403   61.3070   64.0971 C   0  0  0  0  0  0  0  0  0  0  0  0
  -44.7337   60.9505   64.5286 C   0  0  0  0  0  0  0  0  0  0  0  0
  -45.0371   59.4626   64.4794 C   0  0  0  0  0  0  0  0  0  0  0  0
  -45.3684   58.8866   65.8399 C   0  0  0  0  0  0  0  0  0  0  0  0
  -46.6319   59.4425   66.4567 C   0  0  0  0  0  0  0  0  0  0  0  0
  -47.8856   59.0368   65.7084 C   0  0  0  0  0  0  0  0  0  0  0  0
  -48.8681   60.1694   65.5377 C   0  0  0  0  0  0  0  0  0  0  0  0
  -48.6458   60.9557   64.2728 C   0  0  0  0  0  0  0  0  0  0  0  0
  -49.0866   60.2231   63.0251 C   0  0  0  0  0  0  0  0  0  0  0  0
  -50.5741   59.9343   63.0105 C   0  0  0  0  0  0  0  0  0  0  0  0
  -50.9224   58.5032   62.6582 C   0  0  0  0  0  0  0  0  0  0  0  0
  -50.0129   57.8908   61.5991 C   0  0  0  0  0  0  0  0  0  0  0  0
  -50.5543   57.9965   60.1863 C   0  0  0  0  0  0  0  0  0  0  0  0
  -49.5403   57.6255   59.1236 C   0  0  0  0  0  0  0  0  0  0  0  0
  -48.4367   56.7061   59.6277 C   0  0  0  0  0  0  0  0  0  0  0  0
  -47.2826   56.5512   58.6535 C   0  0  0  0  0  0  0  0  0  0  0  0
  -46.8204   58.4454   57.0616 C   0  0  0  0  0  0  0  0  0  0  0  0
  -47.5344   57.1298   57.2740 C   0  0  0  0  0  0  0  0  0  0  0  0
  -39.6540   60.8713   62.2230 C   0  0  0  0  0  0  0  0  0  0  0  0
  -39.7445   61.4422   63.5476 O   0  0  0  0  0  0  0  0  0  0  0  0
  -39.3397   60.6353   64.8693 P   0  0  0  0  0  0  0  0  0  0  0  0
  -37.8637   60.6076   64.9549 O   0  0  0  0  0  0  0  0  0  0  0  0
  -40.1088   61.1964   66.0061 O   0  0  0  0  0  0  0  0  0  0  0  0
  -39.8185   62.1063   66.1751 H   0  0  0  0  0  0  0  0  0  0  0  0
  -39.8456   59.1429   64.6248 O   0  0  0  0  0  0  0  0  0  0  0  0
  -41.0382   58.6685   65.2826 C   0  0  0  0  0  0  0  0  0  0  0  0
  -40.7128   57.1446   63.4620 O   0  0  0  0  0  0  0  0  0  0  0  0
  -41.6754   57.6148   64.4105 C   0  0  0  0  0  0  0  0  0  0  0  0
  -40.3675   57.8946   62.9529 H   0  0  0  0  0  0  0  0  0  0  0  0
  -43.3490   55.8842   64.5605 O   0  0  0  0  0  0  0  0  0  0  0  0
  -42.2239   56.4592   65.2126 C   0  0  0  0  0  0  0  0  0  0  0  0
  -43.6866   55.1449   65.0901 H   0  0  0  0  0  0  0  0  0  0  0  0
  -41.0304   59.8638   60.4497 O   0  0  0  0  0  0  0  0  0  0  0  0
  -41.6661   57.7264   60.7454 O   0  0  0  0  0  0  0  0  0  0  0  0
  -40.9590   58.5393   60.2155 C   0  0  0  0  0  0  0  0  0  0  0  0
  -39.9071   58.2049   59.2038 C   0  0  0  0  0  0  0  0  0  0  0  0
  -38.5067   58.4841   59.7404 C   0  0  0  0  0  0  0  0  0  0  0  0
  -38.2122   57.8142   61.0725 C   0  0  0  0  0  0  0  0  0  0  0  0
  -36.9683   58.3577   61.7663 C   0  0  0  0  0  0  0  0  0  0  0  0
  -36.7853   57.8561   63.1867 C   0  0  0  0  0  0  0  0  0  0  0  0
  -35.3318   57.5818   63.5828 C   0  0  0  0  0  0  0  0  0  0  0  0
  -34.2777   58.2231   62.6777 C   0  0  0  0  0  0  0  0  0  0  0  0
  -32.9777   58.4420   63.3919 C   0  0  0  0  0  0  0  0  0  0  0  0
  -32.0254   59.2888   63.0519 C   0  0  0  0  0  0  0  0  0  0  0  0
  -32.0452   60.2138   61.8762 C   0  0  0  0  0  0  0  0  0  0  0  0
  -31.4892   61.5945   62.2122 C   0  0  0  0  0  0  0  0  0  0  0  0
  -32.5618   62.6481   62.4261 C   0  0  0  0  0  0  0  0  0  0  0  0
  -33.1945   62.6027   63.8064 C   0  0  0  0  0  0  0  0  0  0  0  0
  -33.8919   63.8873   64.2219 C   0  0  0  0  0  0  0  0  0  0  0  0
  -33.5544   64.3290   65.6377 C   0  0  0  0  0  0  0  0  0  0  0  0
  -34.3477   63.6188   66.7167 C   0  0  0  0  0  0  0  0  0  0  0  0
  -35.7723   64.0918   66.7976 C   0  0  0  0  0  0  0  0  0  0  0  0
 21 22  1  0  0  0
  4  5  2  0  0  0
 25 24  1  0  0  0
 25 26  2  0  0  0
 25 27  1  0  0  0
 25 29  1  0  0  0
 22 20  1  0  0  0
  3  5  1  0  0  0
  3  2  1  0  0  0
 20 19  1  0  0  0
 24 23  1  0  0  0
 19 18  1  0  0  0
 18 17  1  0  0  0
 27 28  1  0  0  0
 17 16  1  0  0  0
 29 30  1  0  0  0
 16 15  1  0  0  0
 34 35  1  0  0  0
 34 36  1  0  0  0
 15 14  1  0  0  0
 31 32  1  0  0  0
 31 33  1  0  0  0
 14 13  1  0  0  0
 37  1  1  0  0  0
 37 39  1  0  0  0
 13 12  1  0  0  0
 38 39  2  0  0  0
 12 11  1  0  0  0
 11 10  1  0  0  0
 10  9  1  0  0  0
  9  8  1  0  0  0
  8  7  1  0  0  0
  7  6  1  0  0  0
  6  5  1  0  0  0
  2  1  1  0  0  0
  1 23  1  0  0  0
 30 32  1  0  0  0
 32 35  1  0  0  0
 39 40  1  0  0  0
 40 41  1  0  0  0
 41 42  1  0  0  0
 42 43  1  0  0  0
 43 44  1  0  0  0
 44 45  1  0  0  0
 45 46  1  0  0  0
 46 47  1  0  0  0
 47 48  2  0  0  0
 48 49  1  0  0  0
 49 50  1  0  0  0
 50 51  1  0  0  0
 51 52  1  0  0  0
 52 53  1  0  0  0
 53 54  1  0  0  0
 54 55  1  0  0  0
 55 56  1  0  0  0
M  CHG 1  26  -1
M  END
> <minimizedAffinity>
-8.24170

> <CNNscore>
0.3286689520

> <CNNaffinity>
7.0419096947

> <CNN_VS>
2.3144571781

> <CNNaffinity_variance>
1.2586327791

$$$$
/media/chris/experiments/cd1a-new-docking/inputs/ligands/7sh4_ligand.pdb


 56 55  0  0  0  0  0  0  0  0999 V2000
  -39.5716   61.0746   63.8051 C   0  0  0  0  0  0  0  0  0  0  0  0
  -40.3498   60.9766   62.5235 C   0  0  0  0  0  0  0  0  0  0  0  0
  -41.5543   61.7263   62.7882 O   0  0  0  0  0  0  0  0  0  0  0  0
  -42.7724   59.8536   62.6970 O   0  0  0  0  0  0  0  0  0  0  0  0
  -42.6809   61.0281   62.9333 C   0  0  0  0  0  0  0  0  0  0  0  0
  -43.7657   61.8688   63.5425 C   0  0  0  0  0  0  0  0  0  0  0  0
  -44.4610   61.2210   64.7280 C   0  0  0  0  0  0  0  0  0  0  0  0
  -45.8986   60.8489   64.4327 C   0  0  0  0  0  0  0  0  0  0  0  0
  -46.2943   59.4728   64.9181 C   0  0  0  0  0  0  0  0  0  0  0  0
  -47.4452   58.8753   64.1341 C   0  0  0  0  0  0  0  0  0  0  0  0
  -48.5596   58.3625   65.0128 C   0  0  0  0  0  0  0  0  0  0  0  0
  -49.0934   59.4077   65.9564 C   0  0  0  0  0  0  0  0  0  0  0  0
  -50.5239   59.8042   65.6663 C   0  0  0  0  0  0  0  0  0  0  0  0
  -50.6678   60.5661   64.3643 C   0  0  0  0  0  0  0  0  0  0  0  0
  -51.5103   59.8583   63.3239 C   0  0  0  0  0  0  0  0  0  0  0  0
  -50.7090   59.3225   62.1428 C   0  0  0  0  0  0  0  0  0  0  0  0
  -50.9893   57.8680   61.8172 C   0  0  0  0  0  0  0  0  0  0  0  0
  -49.9903   57.2638   60.8517 C   0  0  0  0  0  0  0  0  0  0  0  0
  -49.0183   58.2781   60.2652 C   0  0  0  0  0  0  0  0  0  0  0  0
  -48.0606   57.6840   59.2479 C   0  0  0  0  0  0  0  0  0  0  0  0
  -46.8715   57.9205   57.0420 C   0  0  0  0  0  0  0  0  0  0  0  0
  -47.6852   58.6148   58.1105 C   0  0  0  0  0  0  0  0  0  0  0  0
  -38.0956   61.2551   63.5588 C   0  0  0  0  0  0  0  0  0  0  0  0
  -37.6794   62.5156   64.1302 O   0  0  0  0  0  0  0  0  0  0  0  0
  -36.3512   63.2806   63.6691 P   0  0  0  0  0  0  0  0  0  0  0  0
  -35.3529   62.2650   63.2706 O   0  0  0  0  0  0  0  0  0  0  0  0
  -36.7365   64.3239   62.6884 O   0  0  0  0  0  0  0  0  0  0  0  0
  -37.0697   63.9017   61.8812 H   0  0  0  0  0  0  0  0  0  0  0  0
  -35.8103   64.0141   64.9776 O   0  0  0  0  0  0  0  0  0  0  0  0
  -34.4258   63.8813   65.3589 C   0  0  0  0  0  0  0  0  0  0  0  0
  -33.5293   63.7462   67.5772 O   0  0  0  0  0  0  0  0  0  0  0  0
  -34.3577   63.0679   66.6280 C   0  0  0  0  0  0  0  0  0  0  0  0
  -32.6558   63.9071   67.1873 H   0  0  0  0  0  0  0  0  0  0  0  0
  -36.2357   63.9847   67.8326 O   0  0  0  0  0  0  0  0  0  0  0  0
  -35.7228   62.8091   67.2189 C   0  0  0  0  0  0  0  0  0  0  0  0
  -37.1116   63.7988   68.2057 H   0  0  0  0  0  0  0  0  0  0  0  0
  -39.8447   59.8758   64.6039 O   0  0  0  0  0  0  0  0  0  0  0  0
  -40.9736   61.0877   66.1260 O   0  0  0  0  0  0  0  0  0  0  0  0
  -40.6543   60.0239   65.6700 C   0  0  0  0  0  0  0  0  0  0  0  0
  -41.1222   58.7063   66.2058 C   0  0  0  0  0  0  0  0  0  0  0  0
  -42.6070   58.4876   65.9335 C   0  0  0  0  0  0  0  0  0  0  0  0
  -42.9266   57.1414   65.3045 C   0  0  0  0  0  0  0  0  0  0  0  0
  -41.7982   56.5884   64.4415 C   0  0  0  0  0  0  0  0  0  0  0  0
  -42.0488   56.7046   62.9495 C   0  0  0  0  0  0  0  0  0  0  0  0
  -41.1346   55.8362   62.0808 C   0  0  0  0  0  0  0  0  0  0  0  0
  -41.1622   56.1550   60.5844 C   0  0  0  0  0  0  0  0  0  0  0  0
  -41.5943   57.5653   60.3153 C   0  0  0  0  0  0  0  0  0  0  0  0
  -40.8971   58.4976   59.6953 C   0  0  0  0  0  0  0  0  0  0  0  0
  -39.5221   58.3402   59.1270 C   0  0  0  0  0  0  0  0  0  0  0  0
  -38.5016   59.2438   59.8129 C   0  0  0  0  0  0  0  0  0  0  0  0
  -37.5433   58.4983   60.7250 C   0  0  0  0  0  0  0  0  0  0  0  0
  -38.2033   57.9310   61.9701 C   0  0  0  0  0  0  0  0  0  0  0  0
  -37.2499   57.6684   63.1240 C   0  0  0  0  0  0  0  0  0  0  0  0
  -35.7837   57.7906   62.7380 C   0  0  0  0  0  0  0  0  0  0  0  0
  -35.0031   58.7904   63.5681 C   0  0  0  0  0  0  0  0  0  0  0  0
  -33.5235   58.5256   63.5576 C   0  0  0  0  0  0  0  0  0  0  0  0
 21 22  1  0  0  0
  4  5  2  0  0  0
 25 24  1  0  0  0
 25 26  2  0  0  0
 25 27  1  0  0  0
 25 29  1  0  0  0
 22 20  1  0  0  0
  3  5  1  0  0  0
  3  2  1  0  0  0
 20 19  1  0  0  0
 24 23  1  0  0  0
 19 18  1  0  0  0
 18 17  1  0  0  0
 27 28  1  0  0  0
 17 16  1  0  0  0
 29 30  1  0  0  0
 16 15  1  0  0  0
 34 35  1  0  0  0
 34 36  1  0  0  0
 15 14  1  0  0  0
 31 32  1  0  0  0
 31 33  1  0  0  0
 14 13  1  0  0  0
 37  1  1  0  0  0
 37 39  1  0  0  0
 13 12  1  0  0  0
 38 39  2  0  0  0
 12 11  1  0  0  0
 11 10  1  0  0  0
 10  9  1  0  0  0
  9  8  1  0  0  0
  8  7  1  0  0  0
  7  6  1  0  0  0
  6  5  1  0  0  0
  2  1  1  0  0  0
  1 23  1  0  0  0
 30 32  1  0  0  0
 32 35  1  0  0  0
 39 40  1  0  0  0
 40 41  1  0  0  0
 41 42  1  0  0  0
 42 43  1  0  0  0
 43 44  1  0  0  0
 44 45  1  0  0  0
 45 46  1  0  0  0
 46 47  1  0  0  0
 47 48  2  0  0  0
 48 49  1  0  0  0
 49 50  1  0  0  0
 50 51  1  0  0  0
 51 52  1  0  0  0
 52 53  1  0  0  0
 53 54  1  0  0  0
 54 55  1  0  0  0
 55 56  1  0  0  0
M  CHG 1  26  -1
M  END
> <minimizedAffinity>
-8.75868

> <CNNscore>
0.3026644886

> <CNNaffinity>
7.5106835365

> <CNN_VS>
2.2732172012

> <CNNaffinity_variance>
1.3414249420

$$$$
/media/chris/experiments/cd1a-new-docking/inputs/ligands/7sh4_ligand.pdb


 56 55  0  0  0  0  0  0  0  0999 V2000
  -36.4475   62.1828   64.0728 C   0  0  0  0  0  0  0  0  0  0  0  0
  -37.7334   61.8310   63.3799 C   0  0  0  0  0  0  0  0  0  0  0  0
  -38.5947   61.3836   64.4481 O   0  0  0  0  0  0  0  0  0  0  0  0
  -39.8575   59.5693   64.7839 O   0  0  0  0  0  0  0  0  0  0  0  0
  -39.5660   60.5299   64.1235 C   0  0  0  0  0  0  0  0  0  0  0  0
  -40.3153   60.9966   62.9088 C   0  0  0  0  0  0  0  0  0  0  0  0
  -41.7832   60.6049   62.8966 C   0  0  0  0  0  0  0  0  0  0  0  0
  -42.6985   61.7497   63.2760 C   0  0  0  0  0  0  0  0  0  0  0  0
  -43.5611   61.4775   64.4875 C   0  0  0  0  0  0  0  0  0  0  0  0
  -45.0234   61.2803   64.1424 C   0  0  0  0  0  0  0  0  0  0  0  0
  -45.7461   60.3778   65.1123 C   0  0  0  0  0  0  0  0  0  0  0  0
  -46.9036   59.6467   64.4851 C   0  0  0  0  0  0  0  0  0  0  0  0
  -48.2322   59.9511   65.1408 C   0  0  0  0  0  0  0  0  0  0  0  0
  -49.0858   60.8982   64.3219 C   0  0  0  0  0  0  0  0  0  0  0  0
  -50.4782   60.3794   64.0296 C   0  0  0  0  0  0  0  0  0  0  0  0
  -50.5281   58.8862   63.7265 C   0  0  0  0  0  0  0  0  0  0  0  0
  -50.9288   58.5599   62.3006 C   0  0  0  0  0  0  0  0  0  0  0  0
  -49.7853   58.0294   61.4603 C   0  0  0  0  0  0  0  0  0  0  0  0
  -49.3493   58.9795   60.3536 C   0  0  0  0  0  0  0  0  0  0  0  0
  -49.1749   58.3029   59.0057 C   0  0  0  0  0  0  0  0  0  0  0  0
  -47.3440   57.3818   57.5444 C   0  0  0  0  0  0  0  0  0  0  0  0
  -47.8460   58.5744   58.3264 C   0  0  0  0  0  0  0  0  0  0  0  0
  -36.3055   63.6686   64.2827 C   0  0  0  0  0  0  0  0  0  0  0  0
  -36.7397   64.3510   63.0851 O   0  0  0  0  0  0  0  0  0  0  0  0
  -35.7173   64.9608   62.0151 P   0  0  0  0  0  0  0  0  0  0  0  0
  -35.6611   64.0403   60.8592 O   0  0  0  0  0  0  0  0  0  0  0  0
  -36.0858   66.3777   61.7802 O   0  0  0  0  0  0  0  0  0  0  0  0
  -36.9513   66.4187   61.3441 H   0  0  0  0  0  0  0  0  0  0  0  0
  -34.2926   64.9375   62.7313 O   0  0  0  0  0  0  0  0  0  0  0  0
  -33.6675   66.1731   63.1345 C   0  0  0  0  0  0  0  0  0  0  0  0
  -33.1880   64.7806   65.0249 O   0  0  0  0  0  0  0  0  0  0  0  0
  -32.6909   65.8720   64.2446 C   0  0  0  0  0  0  0  0  0  0  0  0
  -34.0750   64.9957   65.3535 H   0  0  0  0  0  0  0  0  0  0  0  0
  -31.0626   64.1548   63.7773 O   0  0  0  0  0  0  0  0  0  0  0  0
  -31.3095   65.5540   63.7246 C   0  0  0  0  0  0  0  0  0  0  0  0
  -30.1721   63.9707   63.4398 H   0  0  0  0  0  0  0  0  0  0  0  0
  -35.3358   61.6381   63.2871 O   0  0  0  0  0  0  0  0  0  0  0  0
  -33.1558   62.0961   63.5999 O   0  0  0  0  0  0  0  0  0  0  0  0
  -34.1519   61.5046   63.9154 C   0  0  0  0  0  0  0  0  0  0  0  0
  -34.2314   60.5464   65.0632 C   0  0  0  0  0  0  0  0  0  0  0  0
  -33.6386   59.1887   64.6999 C   0  0  0  0  0  0  0  0  0  0  0  0
  -34.6456   58.0505   64.7221 C   0  0  0  0  0  0  0  0  0  0  0  0
  -35.3494   57.8331   63.3874 C   0  0  0  0  0  0  0  0  0  0  0  0
  -36.8592   57.7275   63.4962 C   0  0  0  0  0  0  0  0  0  0  0  0
  -37.5851   57.5778   62.1562 C   0  0  0  0  0  0  0  0  0  0  0  0
  -37.7484   58.8715   61.3555 C   0  0  0  0  0  0  0  0  0  0  0  0
  -37.8894   58.6119   59.8855 C   0  0  0  0  0  0  0  0  0  0  0  0
  -38.9834   58.7535   59.1625 C   0  0  0  0  0  0  0  0  0  0  0  0
  -40.3189   59.2068   59.6616 C   0  0  0  0  0  0  0  0  0  0  0  0
  -41.4074   58.1596   59.4455 C   0  0  0  0  0  0  0  0  0  0  0  0
  -41.2809   56.9518   60.3574 C   0  0  0  0  0  0  0  0  0  0  0  0
  -41.2308   57.3051   61.8339 C   0  0  0  0  0  0  0  0  0  0  0  0
  -41.3141   56.1110   62.7702 C   0  0  0  0  0  0  0  0  0  0  0  0
  -41.5967   56.4929   64.2152 C   0  0  0  0  0  0  0  0  0  0  0  0
  -42.9103   57.2211   64.4206 C   0  0  0  0  0  0  0  0  0  0  0  0
  -42.9300   58.0408   65.6805 C   0  0  0  0  0  0  0  0  0  0  0  0
 21 22  1  0  0  0
  4  5  2  0  0  0
 25 24  1  0  0  0
 25 26  2  0  0  0
 25 27  1  0  0  0
 25 29  1  0  0  0
 22 20  1  0  0  0
  3  5  1  0  0  0
  3  2  1  0  0  0
 20 19  1  0  0  0
 24 23  1  0  0  0
 19 18  1  0  0  0
 18 17  1  0  0  0
 27 28  1  0  0  0
 17 16  1  0  0  0
 29 30  1  0  0  0
 16 15  1  0  0  0
 34 35  1  0  0  0
 34 36  1  0  0  0
 15 14  1  0  0  0
 31 32  1  0  0  0
 31 33  1  0  0  0
 14 13  1  0  0  0
 37  1  1  0  0  0
 37 39  1  0  0  0
 13 12  1  0  0  0
 38 39  2  0  0  0
 12 11  1  0  0  0
 11 10  1  0  0  0
 10  9  1  0  0  0
  9  8  1  0  0  0
  8  7  1  0  0  0
  7  6  1  0  0  0
  6  5  1  0  0  0
  2  1  1  0  0  0
  1 23  1  0  0  0
 30 32  1  0  0  0
 32 35  1  0  0  0
 39 40  1  0  0  0
 40 41  1  0  0  0
 41 42  1  0  0  0
 42 43  1  0  0  0
 43 44  1  0  0  0
 44 45  1  0  0  0
 45 46  1  0  0  0
 46 47  1  0  0  0
 47 48  2  0  0  0
 48 49  1  0  0  0
 49 50  1  0  0  0
 50 51  1  0  0  0
 51 52  1  0  0  0
 52 53  1  0  0  0
 53 54  1  0  0  0
 54 55  1  0  0  0
 55 56  1  0  0  0
M  CHG 1  26  -1
M  END
> <minimizedAffinity>
-8.12491

> <CNNscore>
0.2988555133

> <CNNaffinity>
7.3189573288

> <CNN_VS>
2.1873106956

> <CNNaffinity_variance>
0.8461688757

$$$$
/media/chris/experiments/cd1a-new-docking/inputs/ligands/7sh4_ligand.pdb


 56 55  0  0  0  0  0  0  0  0999 V2000
  -42.2257   59.2549   65.2556 C   0  0  0  0  0  0  0  0  0  0  0  0
  -40.9309   59.5091   65.9743 C   0  0  0  0  0  0  0  0  0  0  0  0
  -39.9725   59.6963   64.9115 O   0  0  0  0  0  0  0  0  0  0  0  0
  -39.5330   57.7611   63.8816 O   0  0  0  0  0  0  0  0  0  0  0  0
  -39.1954   58.6561   64.6086 C   0  0  0  0  0  0  0  0  0  0  0  0
  -37.8200   58.8190   65.1890 C   0  0  0  0  0  0  0  0  0  0  0  0
  -36.8335   57.7471   64.7576 C   0  0  0  0  0  0  0  0  0  0  0  0
  -35.5265   58.3220   64.2538 C   0  0  0  0  0  0  0  0  0  0  0  0
  -34.9555   57.6025   63.0530 C   0  0  0  0  0  0  0  0  0  0  0  0
  -33.8146   58.3545   62.3978 C   0  0  0  0  0  0  0  0  0  0  0  0
  -32.8047   58.8814   63.3876 C   0  0  0  0  0  0  0  0  0  0  0  0
  -32.0126   60.0466   62.8561 C   0  0  0  0  0  0  0  0  0  0  0  0
  -32.7421   61.3673   62.9632 C   0  0  0  0  0  0  0  0  0  0  0  0
  -31.8092   62.5592   62.8881 C   0  0  0  0  0  0  0  0  0  0  0  0
  -31.9564   63.3806   61.6244 C   0  0  0  0  0  0  0  0  0  0  0  0
  -33.3421   63.9899   61.4437 C   0  0  0  0  0  0  0  0  0  0  0  0
  -33.3644   65.5043   61.5240 C   0  0  0  0  0  0  0  0  0  0  0  0
  -32.5433   66.0586   62.6702 C   0  0  0  0  0  0  0  0  0  0  0  0
  -33.2678   66.0320   64.0088 C   0  0  0  0  0  0  0  0  0  0  0  0
  -32.3469   66.2144   65.2019 C   0  0  0  0  0  0  0  0  0  0  0  0
  -33.0105   64.0459   66.2942 C   0  0  0  0  0  0  0  0  0  0  0  0
  -31.8671   64.9229   65.8367 C   0  0  0  0  0  0  0  0  0  0  0  0
  -42.7377   60.4890   64.5581 C   0  0  0  0  0  0  0  0  0  0  0  0
  -42.7092   60.2623   63.1311 O   0  0  0  0  0  0  0  0  0  0  0  0
  -41.6674   60.9899   62.1579 P   0  0  0  0  0  0  0  0  0  0  0  0
  -42.4256   61.9033   61.2761 O   0  0  0  0  0  0  0  0  0  0  0  0
  -40.5722   61.5470   62.9878 O   0  0  0  0  0  0  0  0  0  0  0  0
  -40.9211   62.2569   63.5494 H   0  0  0  0  0  0  0  0  0  0  0  0
  -41.0539   59.8296   61.2522 O   0  0  0  0  0  0  0  0  0  0  0  0
  -40.5605   60.1303   59.9308 C   0  0  0  0  0  0  0  0  0  0  0  0
  -38.2208   60.3680   60.3914 O   0  0  0  0  0  0  0  0  0  0  0  0
  -39.1920   59.5122   59.7819 C   0  0  0  0  0  0  0  0  0  0  0  0
  -38.2777   61.2530   59.9984 H   0  0  0  0  0  0  0  0  0  0  0  0
  -38.0119   58.0255   61.2703 O   0  0  0  0  0  0  0  0  0  0  0  0
  -39.1176   58.1289   60.3823 C   0  0  0  0  0  0  0  0  0  0  0  0
  -37.9809   57.1314   61.6452 H   0  0  0  0  0  0  0  0  0  0  0  0
  -43.1974   58.7378   66.2243 O   0  0  0  0  0  0  0  0  0  0  0  0
  -43.6038   56.8799   65.0230 O   0  0  0  0  0  0  0  0  0  0  0  0
  -43.9538   57.6945   65.8327 C   0  0  0  0  0  0  0  0  0  0  0  0
  -45.2730   57.6618   66.5403 C   0  0  0  0  0  0  0  0  0  0  0  0
  -46.1132   58.8922   66.2133 C   0  0  0  0  0  0  0  0  0  0  0  0
  -46.2557   59.1634   64.7246 C   0  0  0  0  0  0  0  0  0  0  0  0
  -47.6703   58.9487   64.1985 C   0  0  0  0  0  0  0  0  0  0  0  0
  -48.5202   58.0399   65.0669 C   0  0  0  0  0  0  0  0  0  0  0  0
  -49.8192   58.6743   65.5719 C   0  0  0  0  0  0  0  0  0  0  0  0
  -49.9780   60.1653   65.2664 C   0  0  0  0  0  0  0  0  0  0  0  0
  -51.2834   60.4681   64.5939 C   0  0  0  0  0  0  0  0  0  0  0  0
  -51.5947   60.2284   63.3349 C   0  0  0  0  0  0  0  0  0  0  0  0
  -50.7049   59.5992   62.3099 C   0  0  0  0  0  0  0  0  0  0  0  0
  -50.9093   58.0906   62.2085 C   0  0  0  0  0  0  0  0  0  0  0  0
  -50.2941   57.4743   60.9644 C   0  0  0  0  0  0  0  0  0  0  0  0
  -49.4798   58.4543   60.1373 C   0  0  0  0  0  0  0  0  0  0  0  0
  -49.1433   57.9690   58.7370 C   0  0  0  0  0  0  0  0  0  0  0  0
  -47.7945   57.2720   58.6455 C   0  0  0  0  0  0  0  0  0  0  0  0
  -47.2076   57.2336   57.2484 C   0  0  0  0  0  0  0  0  0  0  0  0
  -46.5959   58.5442   56.8384 C   0  0  0  0  0  0  0  0  0  0  0  0
 21 22  1  0  0  0
  4  5  2  0  0  0
 25 24  1  0  0  0
 25 26  2  0  0  0
 25 27  1  0  0  0
 25 29  1  0  0  0
 22 20  1  0  0  0
  3  5  1  0  0  0
  3  2  1  0  0  0
 20 19  1  0  0  0
 24 23  1  0  0  0
 19 18  1  0  0  0
 18 17  1  0  0  0
 27 28  1  0  0  0
 17 16  1  0  0  0
 29 30  1  0  0  0
 16 15  1  0  0  0
 34 35  1  0  0  0
 34 36  1  0  0  0
 15 14  1  0  0  0
 31 32  1  0  0  0
 31 33  1  0  0  0
 14 13  1  0  0  0
 37  1  1  0  0  0
 37 39  1  0  0  0
 13 12  1  0  0  0
 38 39  2  0  0  0
 12 11  1  0  0  0
 11 10  1  0  0  0
 10  9  1  0  0  0
  9  8  1  0  0  0
  8  7  1  0  0  0
  7  6  1  0  0  0
  6  5  1  0  0  0
  2  1  1  0  0  0
  1 23  1  0  0  0
 30 32  1  0  0  0
 32 35  1  0  0  0
 39 40  1  0  0  0
 40 41  1  0  0  0
 41 42  1  0  0  0
 42 43  1  0  0  0
 43 44  1  0  0  0
 44 45  1  0  0  0
 45 46  1  0  0  0
 46 47  1  0  0  0
 47 48  2  0  0  0
 48 49  1  0  0  0
 49 50  1  0  0  0
 50 51  1  0  0  0
 51 52  1  0  0  0
 52 53  1  0  0  0
 53 54  1  0  0  0
 54 55  1  0  0  0
 55 56  1  0  0  0
M  CHG 1  26  -1
M  END
> <minimizedAffinity>
-8.15656

> <CNNscore>
0.2815494537

> <CNNaffinity>
6.5533800125

> <CNN_VS>
1.8451005220

> <CNNaffinity_variance>
0.6126477122

$$$$
