/media/chris/experiments/cd1a-new-docking/inputs/ligands/7sh4_ligand.pdb


 56 55  0  0  0  0  0  0  0  0999 V2000
  -39.7735   60.3696   62.0452 C   0  0  0  0  0  0  0  0  0  0  0  0
  -40.7341   61.3637   62.6340 C   0  0  0  0  0  0  0  0  0  0  0  0
  -41.8845   60.5686   62.9909 O   0  0  0  0  0  0  0  0  0  0  0  0
  -42.5089   62.1015   64.4940 O   0  0  0  0  0  0  0  0  0  0  0  0
  -42.6446   61.0197   63.9892 C   0  0  0  0  0  0  0  0  0  0  0  0
  -43.7540   60.0579   64.3039 C   0  0  0  0  0  0  0  0  0  0  0  0
  -45.1003   60.7202   64.5432 C   0  0  0  0  0  0  0  0  0  0  0  0
  -45.9049   60.0372   65.6289 C   0  0  0  0  0  0  0  0  0  0  0  0
  -46.6072   58.7763   65.1789 C   0  0  0  0  0  0  0  0  0  0  0  0
  -48.0297   58.6743   65.6910 C   0  0  0  0  0  0  0  0  0  0  0  0
  -48.6980   60.0170   65.8595 C   0  0  0  0  0  0  0  0  0  0  0  0
  -49.8360   60.2327   64.8972 C   0  0  0  0  0  0  0  0  0  0  0  0
  -49.3850   60.6826   63.5252 C   0  0  0  0  0  0  0  0  0  0  0  0
  -50.3229   60.2316   62.4238 C   0  0  0  0  0  0  0  0  0  0  0  0
  -51.0973   58.9715   62.7489 C   0  0  0  0  0  0  0  0  0  0  0  0
  -50.8809   57.8404   61.7499 C   0  0  0  0  0  0  0  0  0  0  0  0
  -49.4371   57.6662   61.3196 C   0  0  0  0  0  0  0  0  0  0  0  0
  -49.2708   56.7437   60.1294 C   0  0  0  0  0  0  0  0  0  0  0  0
  -49.2675   57.4691   58.7909 C   0  0  0  0  0  0  0  0  0  0  0  0
  -48.1248   58.4571   58.6379 C   0  0  0  0  0  0  0  0  0  0  0  0
  -47.1808   56.6972   57.1058 C   0  0  0  0  0  0  0  0  0  0  0  0
  -47.1773   58.1590   57.4915 C   0  0  0  0  0  0  0  0  0  0  0  0
  -38.3489   60.8587   62.0987 C   0  0  0  0  0  0  0  0  0  0  0  0
  -38.1735   61.6505   63.2949 O   0  0  0  0  0  0  0  0  0  0  0  0
  -36.8134   62.4244   63.6312 P   0  0  0  0  0  0  0  0  0  0  0  0
  -35.6832   61.5380   63.2797 O   0  0  0  0  0  0  0  0  0  0  0  0
  -36.8828   63.7699   63.0119 O   0  0  0  0  0  0  0  0  0  0  0  0
  -36.8830   63.6815   62.0458 H   0  0  0  0  0  0  0  0  0  0  0  0
  -36.8153   62.6132   65.2146 O   0  0  0  0  0  0  0  0  0  0  0  0
  -36.4149   63.8730   65.7914 C   0  0  0  0  0  0  0  0  0  0  0  0
  -36.2793   62.7305   67.8935 O   0  0  0  0  0  0  0  0  0  0  0  0
  -35.5620   63.5914   67.0039 C   0  0  0  0  0  0  0  0  0  0  0  0
  -37.1308   63.1365   68.1197 H   0  0  0  0  0  0  0  0  0  0  0  0
  -33.2209   63.3908   67.5492 O   0  0  0  0  0  0  0  0  0  0  0  0
  -34.2325   62.9744   66.6410 C   0  0  0  0  0  0  0  0  0  0  0  0
  -32.3758   62.9848   67.3001 H   0  0  0  0  0  0  0  0  0  0  0  0
  -40.1950   60.0785   60.6714 O   0  0  0  0  0  0  0  0  0  0  0  0
  -39.2442   58.3107   59.6559 O   0  0  0  0  0  0  0  0  0  0  0  0
  -40.1513   58.7908   60.2792 C   0  0  0  0  0  0  0  0  0  0  0  0
  -41.3581   58.0268   60.7286 C   0  0  0  0  0  0  0  0  0  0  0  0
  -40.9942   56.9628   61.7592 C   0  0  0  0  0  0  0  0  0  0  0  0
  -41.8263   57.0251   63.0296 C   0  0  0  0  0  0  0  0  0  0  0  0
  -41.0275   57.4324   64.2624 C   0  0  0  0  0  0  0  0  0  0  0  0
  -39.5484   57.6428   63.9975 C   0  0  0  0  0  0  0  0  0  0  0  0
  -38.8281   58.4931   65.0478 C   0  0  0  0  0  0  0  0  0  0  0  0
  -37.3121   58.6012   64.8705 C   0  0  0  0  0  0  0  0  0  0  0  0
  -36.8353   57.8906   63.6393 C   0  0  0  0  0  0  0  0  0  0  0  0
  -35.5852   57.7596   63.2401 C   0  0  0  0  0  0  0  0  0  0  0  0
  -34.3750   58.2949   63.9383 C   0  0  0  0  0  0  0  0  0  0  0  0
  -33.1024   58.1197   63.1147 C   0  0  0  0  0  0  0  0  0  0  0  0
  -32.6995   59.3642   62.3432 C   0  0  0  0  0  0  0  0  0  0  0  0
  -31.3405   59.9144   62.7402 C   0  0  0  0  0  0  0  0  0  0  0  0
  -31.1060   61.3616   62.3401 C   0  0  0  0  0  0  0  0  0  0  0  0
  -32.3799   62.1917   62.2952 C   0  0  0  0  0  0  0  0  0  0  0  0
  -32.5108   63.1916   63.4269 C   0  0  0  0  0  0  0  0  0  0  0  0
  -33.0126   64.5310   62.9641 C   0  0  0  0  0  0  0  0  0  0  0  0
 21 22  1  0  0  0
  4  5  2  0  0  0
 25 24  1  0  0  0
 25 26  2  0  0  0
 25 27  1  0  0  0
 25 29  1  0  0  0
 22 20  1  0  0  0
  3  5  1  0  0  0
  3  2  1  0  0  0
 20 19  1  0  0  0
 24 23  1  0  0  0
 19 18  1  0  0  0
 18 17  1  0  0  0
 27 28  1  0  0  0
 17 16  1  0  0  0
 29 30  1  0  0  0
 16 15  1  0  0  0
 34 35  1  0  0  0
 34 36  1  0  0  0
 15 14  1  0  0  0
 31 32  1  0  0  0
 31 33  1  0  0  0
 14 13  1  0  0  0
 37  1  1  0  0  0
 37 39  1  0  0  0
 13 12  1  0  0  0
 38 39  2  0  0  0
 12 11  1  0  0  0
 11 10  1  0  0  0
 10  9  1  0  0  0
  9  8  1  0  0  0
  8  7  1  0  0  0
  7  6  1  0  0  0
  6  5  1  0  0  0
  2  1  1  0  0  0
  1 23  1  0  0  0
 30 32  1  0  0  0
 32 35  1  0  0  0
 39 40  1  0  0  0
 40 41  1  0  0  0
 41 42  1  0  0  0
 42 43  1  0  0  0
 43 44  1  0  0  0
 44 45  1  0  0  0
 45 46  1  0  0  0
 46 47  1  0  0  0
 47 48  2  0  0  0
 48 49  1  0  0  0
 49 50  1  0  0  0
 50 51  1  0  0  0
 51 52  1  0  0  0
 52 53  1  0  0  0
 53 54  1  0  0  0
 54 55  1  0  0  0
 55 56  1  0  0  0
M  CHG 1  26  -1
M  END
> <minimizedAffinity>
-8.32642

> <CNNscore>
0.5371668935

> <CNNaffinity>
7.3789963722

> <CNN_VS>
3.9637525082

> <CNNaffinity_variance>
1.0558824539

$$$$
/media/chris/experiments/cd1a-new-docking/inputs/ligands/7sh4_ligand.pdb


 56 55  0  0  0  0  0  0  0  0999 V2000
  -40.0565   60.5176   64.9709 C   0  0  0  0  0  0  0  0  0  0  0  0
  -40.2111   59.0932   64.5184 C   0  0  0  0  0  0  0  0  0  0  0  0
  -41.1929   59.1667   63.4630 O   0  0  0  0  0  0  0  0  0  0  0  0
  -43.1949   58.3058   62.9630 O   0  0  0  0  0  0  0  0  0  0  0  0
  -42.0811   58.1746   63.3940 C   0  0  0  0  0  0  0  0  0  0  0  0
  -41.4668   56.8669   63.8033 C   0  0  0  0  0  0  0  0  0  0  0  0
  -41.3644   55.8504   62.6787 C   0  0  0  0  0  0  0  0  0  0  0  0
  -40.5470   56.3526   61.5072 C   0  0  0  0  0  0  0  0  0  0  0  0
  -41.3559   56.6262   60.2596 C   0  0  0  0  0  0  0  0  0  0  0  0
  -40.7719   57.7324   59.4045 C   0  0  0  0  0  0  0  0  0  0  0  0
  -40.9747   59.1075   59.9922 C   0  0  0  0  0  0  0  0  0  0  0  0
  -39.6905   59.8800   60.1392 C   0  0  0  0  0  0  0  0  0  0  0  0
  -38.5240   59.2493   59.4114 C   0  0  0  0  0  0  0  0  0  0  0  0
  -37.5989   58.4868   60.3383 C   0  0  0  0  0  0  0  0  0  0  0  0
  -37.8545   58.7372   61.8098 C   0  0  0  0  0  0  0  0  0  0  0  0
  -37.3337   57.6325   62.7222 C   0  0  0  0  0  0  0  0  0  0  0  0
  -36.6195   58.1411   63.9597 C   0  0  0  0  0  0  0  0  0  0  0  0
  -35.1760   57.6901   64.0497 C   0  0  0  0  0  0  0  0  0  0  0  0
  -34.3909   57.8962   62.7618 C   0  0  0  0  0  0  0  0  0  0  0  0
  -32.8975   58.0611   62.9802 C   0  0  0  0  0  0  0  0  0  0  0  0
  -32.2827   60.4489   62.4743 C   0  0  0  0  0  0  0  0  0  0  0  0
  -32.4837   59.4049   63.5492 C   0  0  0  0  0  0  0  0  0  0  0  0
  -38.6088   60.9170   65.0990 C   0  0  0  0  0  0  0  0  0  0  0  0
  -38.2275   61.6668   63.9239 O   0  0  0  0  0  0  0  0  0  0  0  0
  -36.7970   62.3679   63.7687 P   0  0  0  0  0  0  0  0  0  0  0  0
  -35.8637   61.3801   63.1857 O   0  0  0  0  0  0  0  0  0  0  0  0
  -36.9907   63.6625   63.0720 O   0  0  0  0  0  0  0  0  0  0  0  0
  -37.2845   63.4991   62.1620 H   0  0  0  0  0  0  0  0  0  0  0  0
  -36.3157   62.6796   65.2566 O   0  0  0  0  0  0  0  0  0  0  0  0
  -36.3006   64.0383   65.7403 C   0  0  0  0  0  0  0  0  0  0  0  0
  -35.9058   63.0665   67.8949 O   0  0  0  0  0  0  0  0  0  0  0  0
  -35.4639   64.0873   66.9951 C   0  0  0  0  0  0  0  0  0  0  0  0
  -36.8531   63.1786   68.0710 H   0  0  0  0  0  0  0  0  0  0  0  0
  -33.3590   63.1697   67.7341 O   0  0  0  0  0  0  0  0  0  0  0  0
  -33.9897   63.9277   66.7098 C   0  0  0  0  0  0  0  0  0  0  0  0
  -32.4144   63.0782   67.5335 H   0  0  0  0  0  0  0  0  0  0  0  0
  -40.7773   60.6803   66.2374 O   0  0  0  0  0  0  0  0  0  0  0  0
  -42.4259   59.2048   66.6437 O   0  0  0  0  0  0  0  0  0  0  0  0
  -42.0644   60.2845   66.2625 C   0  0  0  0  0  0  0  0  0  0  0  0
  -42.9900   61.3565   65.7767 C   0  0  0  0  0  0  0  0  0  0  0  0
  -44.1981   60.7672   65.0557 C   0  0  0  0  0  0  0  0  0  0  0  0
  -45.2024   60.0992   65.9805 C   0  0  0  0  0  0  0  0  0  0  0  0
  -46.5242   59.7591   65.3016 C   0  0  0  0  0  0  0  0  0  0  0  0
  -47.6231   59.3457   66.2628 C   0  0  0  0  0  0  0  0  0  0  0  0
  -48.9269   60.1355   66.1169 C   0  0  0  0  0  0  0  0  0  0  0  0
  -50.1406   59.3139   65.6771 C   0  0  0  0  0  0  0  0  0  0  0  0
  -51.0917   60.1151   64.8395 C   0  0  0  0  0  0  0  0  0  0  0  0
  -51.1778   60.1107   63.5235 C   0  0  0  0  0  0  0  0  0  0  0  0
  -50.3400   59.2986   62.5869 C   0  0  0  0  0  0  0  0  0  0  0  0
  -49.5238   60.1670   61.6338 C   0  0  0  0  0  0  0  0  0  0  0  0
  -49.6166   59.7317   60.1819 C   0  0  0  0  0  0  0  0  0  0  0  0
  -49.9843   58.2684   60.0063 C   0  0  0  0  0  0  0  0  0  0  0  0
  -49.3039   57.5848   58.8319 C   0  0  0  0  0  0  0  0  0  0  0  0
  -47.8907   57.1144   59.1407 C   0  0  0  0  0  0  0  0  0  0  0  0
  -46.9694   57.0813   57.9374 C   0  0  0  0  0  0  0  0  0  0  0  0
  -46.9808   58.3685   57.1610 C   0  0  0  0  0  0  0  0  0  0  0  0
 21 22  1  0  0  0
  4  5  2  0  0  0
 25 24  1  0  0  0
 25 26  2  0  0  0
 25 27  1  0  0  0
 25 29  1  0  0  0
 22 20  1  0  0  0
  3  5  1  0  0  0
  3  2  1  0  0  0
 20 19  1  0  0  0
 24 23  1  0  0  0
 19 18  1  0  0  0
 18 17  1  0  0  0
 27 28  1  0  0  0
 17 16  1  0  0  0
 29 30  1  0  0  0
 16 15  1  0  0  0
 34 35  1  0  0  0
 34 36  1  0  0  0
 15 14  1  0  0  0
 31 32  1  0  0  0
 31 33  1  0  0  0
 14 13  1  0  0  0
 37  1  1  0  0  0
 37 39  1  0  0  0
 13 12  1  0  0  0
 38 39  2  0  0  0
 12 11  1  0  0  0
 11 10  1  0  0  0
 10  9  1  0  0  0
  9  8  1  0  0  0
  8  7  1  0  0  0
  7  6  1  0  0  0
  6  5  1  0  0  0
  2  1  1  0  0  0
  1 23  1  0  0  0
 30 32  1  0  0  0
 32 35  1  0  0  0
 39 40  1  0  0  0
 40 41  1  0  0  0
 41 42  1  0  0  0
 42 43  1  0  0  0
 43 44  1  0  0  0
 44 45  1  0  0  0
 45 46  1  0  0  0
 46 47  1  0  0  0
 47 48  2  0  0  0
 48 49  1  0  0  0
 49 50  1  0  0  0
 50 51  1  0  0  0
 51 52  1  0  0  0
 52 53  1  0  0  0
 53 54  1  0  0  0
 54 55  1  0  0  0
 55 56  1  0  0  0
M  CHG 1  26  -1
M  END
> <minimizedAffinity>
-8.81136

> <CNNscore>
0.4693107307

> <CNNaffinity>
7.4673261642

> <CNN_VS>
3.5044963360

> <CNNaffinity_variance>
1.3174276352

$$$$
/media/chris/experiments/cd1a-new-docking/inputs/ligands/7sh4_ligand.pdb


 56 55  0  0  0  0  0  0  0  0999 V2000
  -39.5005   60.0691   64.6205 C   0  0  0  0  0  0  0  0  0  0  0  0
  -40.3462   60.6093   65.7388 C   0  0  0  0  0  0  0  0  0  0  0  0
  -41.5850   60.9748   65.0946 O   0  0  0  0  0  0  0  0  0  0  0  0
  -42.5716   61.2859   67.0768 O   0  0  0  0  0  0  0  0  0  0  0  0
  -42.6430   61.1653   65.8835 C   0  0  0  0  0  0  0  0  0  0  0  0
  -43.8983   61.3323   65.0768 C   0  0  0  0  0  0  0  0  0  0  0  0
  -44.0158   60.3717   63.9055 C   0  0  0  0  0  0  0  0  0  0  0  0
  -44.4903   58.9953   64.3215 C   0  0  0  0  0  0  0  0  0  0  0  0
  -45.6182   59.0071   65.3281 C   0  0  0  0  0  0  0  0  0  0  0  0
  -46.9814   59.1818   64.6899 C   0  0  0  0  0  0  0  0  0  0  0  0
  -48.1190   58.7979   65.6043 C   0  0  0  0  0  0  0  0  0  0  0  0
  -49.0486   59.9449   65.9006 C   0  0  0  0  0  0  0  0  0  0  0  0
  -50.5079   59.6030   65.6961 C   0  0  0  0  0  0  0  0  0  0  0  0
  -51.1298   60.3594   64.5396 C   0  0  0  0  0  0  0  0  0  0  0  0
  -51.0176   59.6507   63.2060 C   0  0  0  0  0  0  0  0  0  0  0  0
  -49.8509   60.1302   62.3499 C   0  0  0  0  0  0  0  0  0  0  0  0
  -49.7309   59.4170   61.0168 C   0  0  0  0  0  0  0  0  0  0  0  0
  -49.7803   57.9075   61.1351 C   0  0  0  0  0  0  0  0  0  0  0  0
  -49.0773   57.1828   59.9956 C   0  0  0  0  0  0  0  0  0  0  0  0
  -48.1693   58.0799   59.1734 C   0  0  0  0  0  0  0  0  0  0  0  0
  -46.9833   58.1964   56.9563 C   0  0  0  0  0  0  0  0  0  0  0  0
  -47.2964   57.3507   58.1697 C   0  0  0  0  0  0  0  0  0  0  0  0
  -38.7501   61.1600   63.9004 C   0  0  0  0  0  0  0  0  0  0  0  0
  -37.3833   61.1722   64.3698 O   0  0  0  0  0  0  0  0  0  0  0  0
  -36.5610   62.5241   64.6109 P   0  0  0  0  0  0  0  0  0  0  0  0
  -36.4157   63.2101   63.3090 O   0  0  0  0  0  0  0  0  0  0  0  0
  -37.1945   63.2554   65.7346 O   0  0  0  0  0  0  0  0  0  0  0  0
  -38.0801   63.5501   65.4702 H   0  0  0  0  0  0  0  0  0  0  0  0
  -35.1116   62.0580   65.0849 O   0  0  0  0  0  0  0  0  0  0  0  0
  -33.9355   62.6730   64.5203 C   0  0  0  0  0  0  0  0  0  0  0  0
  -34.5234   64.8646   65.2907 O   0  0  0  0  0  0  0  0  0  0  0  0
  -33.5374   63.8336   65.3987 C   0  0  0  0  0  0  0  0  0  0  0  0
  -34.6270   65.1168   64.3598 H   0  0  0  0  0  0  0  0  0  0  0  0
  -34.6236   63.3362   67.4942 O   0  0  0  0  0  0  0  0  0  0  0  0
  -33.3631   63.4285   66.8428 C   0  0  0  0  0  0  0  0  0  0  0  0
  -34.4912   63.0754   68.4191 H   0  0  0  0  0  0  0  0  0  0  0  0
  -40.3672   59.3154   63.7091 O   0  0  0  0  0  0  0  0  0  0  0  0
  -39.4685   57.3498   64.3328 O   0  0  0  0  0  0  0  0  0  0  0  0
  -40.3640   57.9742   63.8330 C   0  0  0  0  0  0  0  0  0  0  0  0
  -41.6164   57.3583   63.2907 C   0  0  0  0  0  0  0  0  0  0  0  0
  -41.3103   56.1437   62.4202 C   0  0  0  0  0  0  0  0  0  0  0  0
  -40.9273   56.4906   60.9908 C   0  0  0  0  0  0  0  0  0  0  0  0
  -41.7624   57.6165   60.3918 C   0  0  0  0  0  0  0  0  0  0  0  0
  -40.9998   58.5032   59.4251 C   0  0  0  0  0  0  0  0  0  0  0  0
  -40.7038   59.9108   59.9505 C   0  0  0  0  0  0  0  0  0  0  0  0
  -39.2419   60.1754   60.3170 C   0  0  0  0  0  0  0  0  0  0  0  0
  -38.3241   59.1201   59.7763 C   0  0  0  0  0  0  0  0  0  0  0  0
  -37.4911   58.3699   60.4710 C   0  0  0  0  0  0  0  0  0  0  0  0
  -37.2887   58.4149   61.9527 C   0  0  0  0  0  0  0  0  0  0  0  0
  -35.8177   58.3049   62.3431 C   0  0  0  0  0  0  0  0  0  0  0  0
  -35.5989   57.9948   63.8135 C   0  0  0  0  0  0  0  0  0  0  0  0
  -34.6078   58.9246   64.4920 C   0  0  0  0  0  0  0  0  0  0  0  0
  -33.2336   58.3188   64.7244 C   0  0  0  0  0  0  0  0  0  0  0  0
  -32.3577   58.3090   63.4808 C   0  0  0  0  0  0  0  0  0  0  0  0
  -31.6584   59.6247   63.2023 C   0  0  0  0  0  0  0  0  0  0  0  0
  -32.1957   60.3221   61.9838 C   0  0  0  0  0  0  0  0  0  0  0  0
 21 22  1  0  0  0
  4  5  2  0  0  0
 25 24  1  0  0  0
 25 26  2  0  0  0
 25 27  1  0  0  0
 25 29  1  0  0  0
 22 20  1  0  0  0
  3  5  1  0  0  0
  3  2  1  0  0  0
 20 19  1  0  0  0
 24 23  1  0  0  0
 19 18  1  0  0  0
 18 17  1  0  0  0
 27 28  1  0  0  0
 17 16  1  0  0  0
 29 30  1  0  0  0
 16 15  1  0  0  0
 34 35  1  0  0  0
 34 36  1  0  0  0
 15 14  1  0  0  0
 31 32  1  0  0  0
 31 33  1  0  0  0
 14 13  1  0  0  0
 37  1  1  0  0  0
 37 39  1  0  0  0
 13 12  1  0  0  0
 38 39  2  0  0  0
 12 11  1  0  0  0
 11 10  1  0  0  0
 10  9  1  0  0  0
  9  8  1  0  0  0
  8  7  1  0  0  0
  7  6  1  0  0  0
  6  5  1  0  0  0
  2  1  1  0  0  0
  1 23  1  0  0  0
 30 32  1  0  0  0
 32 35  1  0  0  0
 39 40  1  0  0  0
 40 41  1  0  0  0
 41 42  1  0  0  0
 42 43  1  0  0  0
 43 44  1  0  0  0
 44 45  1  0  0  0
 45 46  1  0  0  0
 46 47  1  0  0  0
 47 48  2  0  0  0
 48 49  1  0  0  0
 49 50  1  0  0  0
 50 51  1  0  0  0
 51 52  1  0  0  0
 52 53  1  0  0  0
 53 54  1  0  0  0
 54 55  1  0  0  0
 55 56  1  0  0  0
M  CHG 1  26  -1
M  END
> <minimizedAffinity>
-8.24602

> <CNNscore>
0.4087097645

> <CNNaffinity>
7.4094505310

> <CNN_VS>
3.0283148289

> <CNNaffinity_variance>
1.2657543421

$$$$
/media/chris/experiments/cd1a-new-docking/inputs/ligands/7sh4_ligand.pdb


 56 55  0  0  0  0  0  0  0  0999 V2000
  -39.7981   60.4723   65.0460 C   0  0  0  0  0  0  0  0  0  0  0  0
  -40.2494   60.5992   63.6184 C   0  0  0  0  0  0  0  0  0  0  0  0
  -41.3281   61.5563   63.6770 O   0  0  0  0  0  0  0  0  0  0  0  0
  -42.3414   61.8491   61.7055 O   0  0  0  0  0  0  0  0  0  0  0  0
  -42.3318   61.3889   62.8153 C   0  0  0  0  0  0  0  0  0  0  0  0
  -43.3715   60.4571   63.3680 C   0  0  0  0  0  0  0  0  0  0  0  0
  -44.4713   61.1505   64.1541 C   0  0  0  0  0  0  0  0  0  0  0  0
  -45.3789   60.1771   64.8762 C   0  0  0  0  0  0  0  0  0  0  0  0
  -46.8454   60.3349   64.5443 C   0  0  0  0  0  0  0  0  0  0  0  0
  -47.7179   59.2809   65.1955 C   0  0  0  0  0  0  0  0  0  0  0  0
  -48.8522   59.8643   66.0021 C   0  0  0  0  0  0  0  0  0  0  0  0
  -50.1952   59.2972   65.6248 C   0  0  0  0  0  0  0  0  0  0  0  0
  -51.0198   60.2288   64.7643 C   0  0  0  0  0  0  0  0  0  0  0  0
  -51.1770   59.7274   63.3430 C   0  0  0  0  0  0  0  0  0  0  0  0
  -50.1415   60.2675   62.3791 C   0  0  0  0  0  0  0  0  0  0  0  0
  -49.6386   59.2371   61.3743 C   0  0  0  0  0  0  0  0  0  0  0  0
  -50.2627   57.8642   61.5349 C   0  0  0  0  0  0  0  0  0  0  0  0
  -49.4887   56.7656   60.8355 C   0  0  0  0  0  0  0  0  0  0  0  0
  -49.1661   57.0776   59.3807 C   0  0  0  0  0  0  0  0  0  0  0  0
  -47.7383   56.7412   58.9892 C   0  0  0  0  0  0  0  0  0  0  0  0
  -47.7355   57.6839   56.6553 C   0  0  0  0  0  0  0  0  0  0  0  0
  -47.0968   57.7210   58.0251 C   0  0  0  0  0  0  0  0  0  0  0  0
  -38.3151   60.6980   65.1931 C   0  0  0  0  0  0  0  0  0  0  0  0
  -38.0086   62.0521   64.7918 O   0  0  0  0  0  0  0  0  0  0  0  0
  -36.8732   62.4030   63.7197 P   0  0  0  0  0  0  0  0  0  0  0  0
  -36.9819   61.4376   62.6048 O   0  0  0  0  0  0  0  0  0  0  0  0
  -36.9559   63.8524   63.4175 O   0  0  0  0  0  0  0  0  0  0  0  0
  -37.7912   64.0404   62.9615 H   0  0  0  0  0  0  0  0  0  0  0  0
  -35.4899   62.1366   64.4668 O   0  0  0  0  0  0  0  0  0  0  0  0
  -35.3528   62.4555   65.8667 C   0  0  0  0  0  0  0  0  0  0  0  0
  -36.5991   64.3510   66.6389 O   0  0  0  0  0  0  0  0  0  0  0  0
  -35.3725   63.9568   66.0167 C   0  0  0  0  0  0  0  0  0  0  0  0
  -37.3471   64.0159   66.1200 H   0  0  0  0  0  0  0  0  0  0  0  0
  -33.6231   63.4285   67.5911 O   0  0  0  0  0  0  0  0  0  0  0  0
  -34.1963   64.4706   66.8120 C   0  0  0  0  0  0  0  0  0  0  0  0
  -32.8705   63.7774   68.0940 H   0  0  0  0  0  0  0  0  0  0  0  0
  -40.1964   59.1506   65.5402 O   0  0  0  0  0  0  0  0  0  0  0  0
  -42.0618   59.8158   66.6071 O   0  0  0  0  0  0  0  0  0  0  0  0
  -41.4746   59.0081   65.9403 C   0  0  0  0  0  0  0  0  0  0  0  0
  -42.0799   57.7335   65.4393 C   0  0  0  0  0  0  0  0  0  0  0  0
  -41.2082   57.0837   64.3694 C   0  0  0  0  0  0  0  0  0  0  0  0
  -41.9961   56.3931   63.2683 C   0  0  0  0  0  0  0  0  0  0  0  0
  -41.1195   55.6630   62.2572 C   0  0  0  0  0  0  0  0  0  0  0  0
  -41.0658   56.3272   60.8940 C   0  0  0  0  0  0  0  0  0  0  0  0
  -41.9083   57.6001   60.7722 C   0  0  0  0  0  0  0  0  0  0  0  0
  -41.1751   58.8142   60.1979 C   0  0  0  0  0  0  0  0  0  0  0  0
  -40.1726   58.4262   59.1526 C   0  0  0  0  0  0  0  0  0  0  0  0
  -38.8601   58.5086   59.2513 C   0  0  0  0  0  0  0  0  0  0  0  0
  -38.0936   59.0079   60.4353 C   0  0  0  0  0  0  0  0  0  0  0  0
  -37.4215   57.8794   61.2120 C   0  0  0  0  0  0  0  0  0  0  0  0
  -37.9030   57.7561   62.6470 C   0  0  0  0  0  0  0  0  0  0  0  0
  -36.8423   58.1016   63.6779 C   0  0  0  0  0  0  0  0  0  0  0  0
  -35.4381   57.6501   63.3121 C   0  0  0  0  0  0  0  0  0  0  0  0
  -34.4788   58.8024   63.0556 C   0  0  0  0  0  0  0  0  0  0  0  0
  -33.1032   58.6136   63.6637 C   0  0  0  0  0  0  0  0  0  0  0  0
  -33.1433   58.4733   65.1598 C   0  0  0  0  0  0  0  0  0  0  0  0
 21 22  1  0  0  0
  4  5  2  0  0  0
 25 24  1  0  0  0
 25 26  2  0  0  0
 25 27  1  0  0  0
 25 29  1  0  0  0
 22 20  1  0  0  0
  3  5  1  0  0  0
  3  2  1  0  0  0
 20 19  1  0  0  0
 24 23  1  0  0  0
 19 18  1  0  0  0
 18 17  1  0  0  0
 27 28  1  0  0  0
 17 16  1  0  0  0
 29 30  1  0  0  0
 16 15  1  0  0  0
 34 35  1  0  0  0
 34 36  1  0  0  0
 15 14  1  0  0  0
 31 32  1  0  0  0
 31 33  1  0  0  0
 14 13  1  0  0  0
 37  1  1  0  0  0
 37 39  1  0  0  0
 13 12  1  0  0  0
 38 39  2  0  0  0
 12 11  1  0  0  0
 11 10  1  0  0  0
 10  9  1  0  0  0
  9  8  1  0  0  0
  8  7  1  0  0  0
  7  6  1  0  0  0
  6  5  1  0  0  0
  2  1  1  0  0  0
  1 23  1  0  0  0
 30 32  1  0  0  0
 32 35  1  0  0  0
 39 40  1  0  0  0
 40 41  1  0  0  0
 41 42  1  0  0  0
 42 43  1  0  0  0
 43 44  1  0  0  0
 44 45  1  0  0  0
 45 46  1  0  0  0
 46 47  1  0  0  0
 47 48  2  0  0  0
 48 49  1  0  0  0
 49 50  1  0  0  0
 50 51  1  0  0  0
 51 52  1  0  0  0
 52 53  1  0  0  0
 53 54  1  0  0  0
 54 55  1  0  0  0
 55 56  1  0  0  0
M  CHG 1  26  -1
M  END
> <minimizedAffinity>
-8.88503

> <CNNscore>
0.4086503983

> <CNNaffinity>
7.5052843094

> <CNN_VS>
3.0670373440

> <CNNaffinity_variance>
1.6457147598

$$$$
/media/chris/experiments/cd1a-new-docking/inputs/ligands/7sh4_ligand.pdb


 56 55  0  0  0  0  0  0  0  0999 V2000
  -38.8867   60.1569   64.9361 C   0  0  0  0  0  0  0  0  0  0  0  0
  -39.6478   60.7452   66.0904 C   0  0  0  0  0  0  0  0  0  0  0  0
  -40.9624   60.9966   65.5500 O   0  0  0  0  0  0  0  0  0  0  0  0
  -41.8699   59.2215   66.5624 O   0  0  0  0  0  0  0  0  0  0  0  0
  -41.9771   60.3214   66.0907 C   0  0  0  0  0  0  0  0  0  0  0  0
  -43.2210   61.1608   66.1426 C   0  0  0  0  0  0  0  0  0  0  0  0
  -43.8757   61.3843   64.7899 C   0  0  0  0  0  0  0  0  0  0  0  0
  -44.5264   60.1327   64.2396 C   0  0  0  0  0  0  0  0  0  0  0  0
  -45.5184   59.4860   65.1794 C   0  0  0  0  0  0  0  0  0  0  0  0
  -46.9498   59.9048   64.9113 C   0  0  0  0  0  0  0  0  0  0  0  0
  -47.9576   59.1302   65.7250 C   0  0  0  0  0  0  0  0  0  0  0  0
  -49.2729   59.8487   65.8713 C   0  0  0  0  0  0  0  0  0  0  0  0
  -50.4062   59.1851   65.1207 C   0  0  0  0  0  0  0  0  0  0  0  0
  -51.0570   60.1067   64.1091 C   0  0  0  0  0  0  0  0  0  0  0  0
  -50.8888   59.6631   62.6710 C   0  0  0  0  0  0  0  0  0  0  0  0
  -50.0779   58.3819   62.5124 C   0  0  0  0  0  0  0  0  0  0  0  0
  -50.4807   57.5419   61.3155 C   0  0  0  0  0  0  0  0  0  0  0  0
  -50.3757   58.2821   59.9979 C   0  0  0  0  0  0  0  0  0  0  0  0
  -48.9461   58.4391   59.4985 C   0  0  0  0  0  0  0  0  0  0  0  0
  -48.1490   57.1470   59.5216 C   0  0  0  0  0  0  0  0  0  0  0  0
  -47.2024   58.1427   57.4125 C   0  0  0  0  0  0  0  0  0  0  0  0
  -47.1101   57.0224   58.4234 C   0  0  0  0  0  0  0  0  0  0  0  0
  -37.5862   60.8776   64.6893 C   0  0  0  0  0  0  0  0  0  0  0  0
  -37.6598   62.1893   65.2914 O   0  0  0  0  0  0  0  0  0  0  0  0
  -36.3808   63.1349   65.4697 P   0  0  0  0  0  0  0  0  0  0  0  0
  -36.6966   64.1420   66.5054 O   0  0  0  0  0  0  0  0  0  0  0  0
  -35.1903   62.2707   65.6560 O   0  0  0  0  0  0  0  0  0  0  0  0
  -35.2643   61.7957   66.4986 H   0  0  0  0  0  0  0  0  0  0  0  0
  -36.2206   63.8958   64.0775 O   0  0  0  0  0  0  0  0  0  0  0  0
  -34.9771   63.8169   63.3510 C   0  0  0  0  0  0  0  0  0  0  0  0
  -36.2301   63.8140   61.3084 O   0  0  0  0  0  0  0  0  0  0  0  0
  -35.1695   64.4736   62.0061 C   0  0  0  0  0  0  0  0  0  0  0  0
  -36.0315   62.8671   61.2386 H   0  0  0  0  0  0  0  0  0  0  0  0
  -36.8590   66.1754   62.2657 O   0  0  0  0  0  0  0  0  0  0  0  0
  -35.4623   65.9502   62.1239 C   0  0  0  0  0  0  0  0  0  0  0  0
  -37.0270   67.1280   62.3397 H   0  0  0  0  0  0  0  0  0  0  0  0
  -39.7521   60.1805   63.7527 O   0  0  0  0  0  0  0  0  0  0  0  0
  -39.9838   57.9440   63.8199 O   0  0  0  0  0  0  0  0  0  0  0  0
  -40.3122   59.0128   63.3826 C   0  0  0  0  0  0  0  0  0  0  0  0
  -41.4035   59.2089   62.3764 C   0  0  0  0  0  0  0  0  0  0  0  0
  -42.1075   57.8951   62.0524 C   0  0  0  0  0  0  0  0  0  0  0  0
  -41.6608   57.2625   60.7445 C   0  0  0  0  0  0  0  0  0  0  0  0
  -41.2461   58.2783   59.6862 C   0  0  0  0  0  0  0  0  0  0  0  0
  -39.8392   58.0765   59.1550 C   0  0  0  0  0  0  0  0  0  0  0  0
  -38.9318   59.3043   59.2733 C   0  0  0  0  0  0  0  0  0  0  0  0
  -38.0881   59.3705   60.5482 C   0  0  0  0  0  0  0  0  0  0  0  0
  -37.8519   58.0133   61.1403 C   0  0  0  0  0  0  0  0  0  0  0  0
  -36.9624   57.7005   62.0624 C   0  0  0  0  0  0  0  0  0  0  0  0
  -35.9991   58.6413   62.7147 C   0  0  0  0  0  0  0  0  0  0  0  0
  -34.8213   57.9151   63.3583 C   0  0  0  0  0  0  0  0  0  0  0  0
  -33.4957   58.1671   62.6617 C   0  0  0  0  0  0  0  0  0  0  0  0
  -32.5196   58.9878   63.4869 C   0  0  0  0  0  0  0  0  0  0  0  0
  -31.2787   59.4358   62.7326 C   0  0  0  0  0  0  0  0  0  0  0  0
  -31.0944   60.9456   62.7122 C   0  0  0  0  0  0  0  0  0  0  0  0
  -31.9403   61.6615   61.6779 C   0  0  0  0  0  0  0  0  0  0  0  0
  -31.6910   63.1436   61.6479 C   0  0  0  0  0  0  0  0  0  0  0  0
 21 22  1  0  0  0
  4  5  2  0  0  0
 25 24  1  0  0  0
 25 26  2  0  0  0
 25 27  1  0  0  0
 25 29  1  0  0  0
 22 20  1  0  0  0
  3  5  1  0  0  0
  3  2  1  0  0  0
 20 19  1  0  0  0
 24 23  1  0  0  0
 19 18  1  0  0  0
 18 17  1  0  0  0
 27 28  1  0  0  0
 17 16  1  0  0  0
 29 30  1  0  0  0
 16 15  1  0  0  0
 34 35  1  0  0  0
 34 36  1  0  0  0
 15 14  1  0  0  0
 31 32  1  0  0  0
 31 33  1  0  0  0
 14 13  1  0  0  0
 37  1  1  0  0  0
 37 39  1  0  0  0
 13 12  1  0  0  0
 38 39  2  0  0  0
 12 11  1  0  0  0
 11 10  1  0  0  0
 10  9  1  0  0  0
  9  8  1  0  0  0
  8  7  1  0  0  0
  7  6  1  0  0  0
  6  5  1  0  0  0
  2  1  1  0  0  0
  1 23  1  0  0  0
 30 32  1  0  0  0
 32 35  1  0  0  0
 39 40  1  0  0  0
 40 41  1  0  0  0
 41 42  1  0  0  0
 42 43  1  0  0  0
 43 44  1  0  0  0
 44 45  1  0  0  0
 45 46  1  0  0  0
 46 47  1  0  0  0
 47 48  2  0  0  0
 48 49  1  0  0  0
 49 50  1  0  0  0
 50 51  1  0  0  0
 51 52  1  0  0  0
 52 53  1  0  0  0
 53 54  1  0  0  0
 54 55  1  0  0  0
 55 56  1  0  0  0
M  CHG 1  26  -1
M  END
> <minimizedAffinity>
-8.33195

> <CNNscore>
0.3839436173

> <CNNaffinity>
7.2792234421

> <CNN_VS>
2.7948114872

> <CNNaffinity_variance>
0.9705402255

$$$$
/media/chris/experiments/cd1a-new-docking/inputs/ligands/7sh4_ligand.pdb


 56 55  0  0  0  0  0  0  0  0999 V2000
  -39.9804   60.4702   65.1520 C   0  0  0  0  0  0  0  0  0  0  0  0
  -40.3818   60.7806   63.7377 C   0  0  0  0  0  0  0  0  0  0  0  0
  -41.4833   61.7020   63.8816 O   0  0  0  0  0  0  0  0  0  0  0  0
  -43.6754   61.8340   63.4614 O   0  0  0  0  0  0  0  0  0  0  0  0
  -42.5762   61.4546   63.1590 C   0  0  0  0  0  0  0  0  0  0  0  0
  -42.2310   60.7587   61.8739 C   0  0  0  0  0  0  0  0  0  0  0  0
  -41.9201   61.7000   60.7225 C   0  0  0  0  0  0  0  0  0  0  0  0
  -41.2323   61.0049   59.5664 C   0  0  0  0  0  0  0  0  0  0  0  0
  -39.9555   60.2895   59.9450 C   0  0  0  0  0  0  0  0  0  0  0  0
  -39.8682   58.8888   59.3736 C   0  0  0  0  0  0  0  0  0  0  0  0
  -41.1618   58.1197   59.4862 C   0  0  0  0  0  0  0  0  0  0  0  0
  -40.9923   56.7764   60.1453 C   0  0  0  0  0  0  0  0  0  0  0  0
  -41.6159   56.6999   61.5213 C   0  0  0  0  0  0  0  0  0  0  0  0
  -40.6811   57.1758   62.6148 C   0  0  0  0  0  0  0  0  0  0  0  0
  -39.2168   56.9100   62.3351 C   0  0  0  0  0  0  0  0  0  0  0  0
  -38.3123   58.1092   62.5955 C   0  0  0  0  0  0  0  0  0  0  0  0
  -36.9112   57.9575   62.0351 C   0  0  0  0  0  0  0  0  0  0  0  0
  -35.8338   58.4967   62.9536 C   0  0  0  0  0  0  0  0  0  0  0  0
  -34.6788   57.5294   63.1729 C   0  0  0  0  0  0  0  0  0  0  0  0
  -33.3697   57.9977   62.5627 C   0  0  0  0  0  0  0  0  0  0  0  0
  -31.5582   59.7219   62.8477 C   0  0  0  0  0  0  0  0  0  0  0  0
  -32.4313   58.6936   63.5302 C   0  0  0  0  0  0  0  0  0  0  0  0
  -38.4879   60.5488   65.3472 C   0  0  0  0  0  0  0  0  0  0  0  0
  -38.0557   61.9034   65.0888 O   0  0  0  0  0  0  0  0  0  0  0  0
  -36.9799   62.2706   63.9621 P   0  0  0  0  0  0  0  0  0  0  0  0
  -37.2799   61.4614   62.7613 O   0  0  0  0  0  0  0  0  0  0  0  0
  -36.9328   63.7470   63.8327 O   0  0  0  0  0  0  0  0  0  0  0  0
  -37.7775   64.0677   63.4798 H   0  0  0  0  0  0  0  0  0  0  0  0
  -35.5767   61.7848   64.5436 O   0  0  0  0  0  0  0  0  0  0  0  0
  -34.6193   62.7524   65.0203 C   0  0  0  0  0  0  0  0  0  0  0  0
  -33.5549   62.6711   67.1657 O   0  0  0  0  0  0  0  0  0  0  0  0
  -34.8036   62.9101   66.5097 C   0  0  0  0  0  0  0  0  0  0  0  0
  -33.2230   61.7935   66.9195 H   0  0  0  0  0  0  0  0  0  0  0  0
  -36.7496   64.3164   66.7415 O   0  0  0  0  0  0  0  0  0  0  0  0
  -35.3354   64.2733   66.8821 C   0  0  0  0  0  0  0  0  0  0  0  0
  -37.0719   65.1984   66.9848 H   0  0  0  0  0  0  0  0  0  0  0  0
  -40.5031   59.1452   65.4999 O   0  0  0  0  0  0  0  0  0  0  0  0
  -42.2867   60.0720   66.5097 O   0  0  0  0  0  0  0  0  0  0  0  0
  -41.7067   59.1026   66.1028 C   0  0  0  0  0  0  0  0  0  0  0  0
  -42.2419   57.7068   66.1878 C   0  0  0  0  0  0  0  0  0  0  0  0
  -43.2996   57.4478   65.1197 C   0  0  0  0  0  0  0  0  0  0  0  0
  -44.6986   57.8887   65.5180 C   0  0  0  0  0  0  0  0  0  0  0  0
  -45.2607   59.0006   64.6398 C   0  0  0  0  0  0  0  0  0  0  0  0
  -45.9880   60.0870   65.4099 C   0  0  0  0  0  0  0  0  0  0  0  0
  -47.1185   59.5810   66.3104 C   0  0  0  0  0  0  0  0  0  0  0  0
  -48.5115   60.1144   65.9693 C   0  0  0  0  0  0  0  0  0  0  0  0
  -48.5458   60.7894   64.6308 C   0  0  0  0  0  0  0  0  0  0  0  0
  -49.5116   60.7148   63.7359 C   0  0  0  0  0  0  0  0  0  0  0  0
  -50.7829   59.9377   63.8719 C   0  0  0  0  0  0  0  0  0  0  0  0
  -50.6887   58.5519   63.2401 C   0  0  0  0  0  0  0  0  0  0  0  0
  -49.7724   58.4945   62.0305 C   0  0  0  0  0  0  0  0  0  0  0  0
  -50.4359   57.9229   60.7894 C   0  0  0  0  0  0  0  0  0  0  0  0
  -49.4854   57.2202   59.8343 C   0  0  0  0  0  0  0  0  0  0  0  0
  -48.5898   58.1749   59.0595 C   0  0  0  0  0  0  0  0  0  0  0  0
  -48.1877   57.6742   57.6864 C   0  0  0  0  0  0  0  0  0  0  0  0
  -46.9438   58.3392   57.1664 C   0  0  0  0  0  0  0  0  0  0  0  0
 21 22  1  0  0  0
  4  5  2  0  0  0
 25 24  1  0  0  0
 25 26  2  0  0  0
 25 27  1  0  0  0
 25 29  1  0  0  0
 22 20  1  0  0  0
  3  5  1  0  0  0
  3  2  1  0  0  0
 20 19  1  0  0  0
 24 23  1  0  0  0
 19 18  1  0  0  0
 18 17  1  0  0  0
 27 28  1  0  0  0
 17 16  1  0  0  0
 29 30  1  0  0  0
 16 15  1  0  0  0
 34 35  1  0  0  0
 34 36  1  0  0  0
 15 14  1  0  0  0
 31 32  1  0  0  0
 31 33  1  0  0  0
 14 13  1  0  0  0
 37  1  1  0  0  0
 37 39  1  0  0  0
 13 12  1  0  0  0
 38 39  2  0  0  0
 12 11  1  0  0  0
 11 10  1  0  0  0
 10  9  1  0  0  0
  9  8  1  0  0  0
  8  7  1  0  0  0
  7  6  1  0  0  0
  6  5  1  0  0  0
  2  1  1  0  0  0
  1 23  1  0  0  0
 30 32  1  0  0  0
 32 35  1  0  0  0
 39 40  1  0  0  0
 40 41  1  0  0  0
 41 42  1  0  0  0
 42 43  1  0  0  0
 43 44  1  0  0  0
 44 45  1  0  0  0
 45 46  1  0  0  0
 46 47  1  0  0  0
 47 48  2  0  0  0
 48 49  1  0  0  0
 49 50  1  0  0  0
 50 51  1  0  0  0
 51 52  1  0  0  0
 52 53  1  0  0  0
 53 54  1  0  0  0
 54 55  1  0  0  0
 55 56  1  0  0  0
M  CHG 1  26  -1
M  END
> <minimizedAffinity>
-8.50766

> <CNNscore>
0.3415605426

> <CNNaffinity>
7.4986829758

> <CNN_VS>
2.5612542629

> <CNNaffinity_variance>
1.4919769764

$$$$
/media/chris/experiments/cd1a-new-docking/inputs/ligands/7sh4_ligand.pdb


 56 55  0  0  0  0  0  0  0  0999 V2000
  -39.7626   59.9594   64.5932 C   0  0  0  0  0  0  0  0  0  0  0  0
  -40.3435   58.7192   65.2114 C   0  0  0  0  0  0  0  0  0  0  0  0
  -40.6848   57.8916   64.0792 O   0  0  0  0  0  0  0  0  0  0  0  0
  -41.9153   56.1041   64.6173 O   0  0  0  0  0  0  0  0  0  0  0  0
  -41.8276   57.2087   64.1528 C   0  0  0  0  0  0  0  0  0  0  0  0
  -42.9896   58.0450   63.7001 C   0  0  0  0  0  0  0  0  0  0  0  0
  -44.1170   58.1416   64.7140 C   0  0  0  0  0  0  0  0  0  0  0  0
  -44.1776   59.4919   65.3965 C   0  0  0  0  0  0  0  0  0  0  0  0
  -45.2460   60.4132   64.8530 C   0  0  0  0  0  0  0  0  0  0  0  0
  -46.6192   59.7735   64.8176 C   0  0  0  0  0  0  0  0  0  0  0  0
  -47.6041   60.5283   63.9587 C   0  0  0  0  0  0  0  0  0  0  0  0
  -48.8795   60.8666   64.6844 C   0  0  0  0  0  0  0  0  0  0  0  0
  -49.4369   59.7127   65.4883 C   0  0  0  0  0  0  0  0  0  0  0  0
  -50.1668   58.6998   64.6296 C   0  0  0  0  0  0  0  0  0  0  0  0
  -50.9777   59.3116   63.5066 C   0  0  0  0  0  0  0  0  0  0  0  0
  -50.7877   58.6195   62.1615 C   0  0  0  0  0  0  0  0  0  0  0  0
  -49.8447   59.3467   61.2223 C   0  0  0  0  0  0  0  0  0  0  0  0
  -49.6920   58.6666   59.8772 C   0  0  0  0  0  0  0  0  0  0  0  0
  -48.3615   57.9469   59.7048 C   0  0  0  0  0  0  0  0  0  0  0  0
  -48.3601   56.9352   58.5728 C   0  0  0  0  0  0  0  0  0  0  0  0
  -46.8228   58.2551   57.0793 C   0  0  0  0  0  0  0  0  0  0  0  0
  -48.1427   57.5267   57.1930 C   0  0  0  0  0  0  0  0  0  0  0  0
  -38.4576   60.3544   65.2358 C   0  0  0  0  0  0  0  0  0  0  0  0
  -38.1423   61.7115   64.8521 O   0  0  0  0  0  0  0  0  0  0  0  0
  -36.9537   62.0737   63.8432 P   0  0  0  0  0  0  0  0  0  0  0  0
  -35.7955   61.2155   64.1730 O   0  0  0  0  0  0  0  0  0  0  0  0
  -37.4942   62.0413   62.4628 O   0  0  0  0  0  0  0  0  0  0  0  0
  -37.7423   61.1319   62.2340 H   0  0  0  0  0  0  0  0  0  0  0  0
  -36.5591   63.5817   64.1795 O   0  0  0  0  0  0  0  0  0  0  0  0
  -35.2893   63.8744   64.7978 C   0  0  0  0  0  0  0  0  0  0  0  0
  -36.9145   64.3619   66.4901 O   0  0  0  0  0  0  0  0  0  0  0  0
  -35.5218   64.1205   66.2683 C   0  0  0  0  0  0  0  0  0  0  0  0
  -37.2068   65.1017   65.9350 H   0  0  0  0  0  0  0  0  0  0  0  0
  -34.1104   62.1703   66.4189 O   0  0  0  0  0  0  0  0  0  0  0  0
  -35.0494   62.9707   67.1254 C   0  0  0  0  0  0  0  0  0  0  0  0
  -33.8191   61.4382   66.9847 H   0  0  0  0  0  0  0  0  0  0  0  0
  -40.7585   61.0314   64.6863 O   0  0  0  0  0  0  0  0  0  0  0  0
  -42.4210   61.9972   63.5186 O   0  0  0  0  0  0  0  0  0  0  0  0
  -41.3956   61.3732   63.5500 C   0  0  0  0  0  0  0  0  0  0  0  0
  -40.6640   60.8990   62.3327 C   0  0  0  0  0  0  0  0  0  0  0  0
  -41.6155   60.6688   61.1630 C   0  0  0  0  0  0  0  0  0  0  0  0
  -40.9235   60.2321   59.8822 C   0  0  0  0  0  0  0  0  0  0  0  0
  -41.2134   58.7866   59.4947 C   0  0  0  0  0  0  0  0  0  0  0  0
  -39.9698   57.9494   59.2602 C   0  0  0  0  0  0  0  0  0  0  0  0
  -38.6787   58.7574   59.1025 C   0  0  0  0  0  0  0  0  0  0  0  0
  -37.6997   58.6566   60.2742 C   0  0  0  0  0  0  0  0  0  0  0  0
  -38.2441   57.8224   61.3949 C   0  0  0  0  0  0  0  0  0  0  0  0
  -37.6118   57.4795   62.5003 C   0  0  0  0  0  0  0  0  0  0  0  0
  -36.2114   57.8557   62.8690 C   0  0  0  0  0  0  0  0  0  0  0  0
  -35.9905   57.8696   64.3788 C   0  0  0  0  0  0  0  0  0  0  0  0
  -34.5829   57.4777   64.7925 C   0  0  0  0  0  0  0  0  0  0  0  0
  -33.6338   58.6569   64.9189 C   0  0  0  0  0  0  0  0  0  0  0  0
  -32.5522   58.7117   63.8528 C   0  0  0  0  0  0  0  0  0  0  0  0
  -32.9299   59.5629   62.6500 C   0  0  0  0  0  0  0  0  0  0  0  0
  -31.7515   60.2176   61.9569 C   0  0  0  0  0  0  0  0  0  0  0  0
  -31.8436   61.7180   61.9461 C   0  0  0  0  0  0  0  0  0  0  0  0
 21 22  1  0  0  0
  4  5  2  0  0  0
 25 24  1  0  0  0
 25 26  2  0  0  0
 25 27  1  0  0  0
 25 29  1  0  0  0
 22 20  1  0  0  0
  3  5  1  0  0  0
  3  2  1  0  0  0
 20 19  1  0  0  0
 24 23  1  0  0  0
 19 18  1  0  0  0
 18 17  1  0  0  0
 27 28  1  0  0  0
 17 16  1  0  0  0
 29 30  1  0  0  0
 16 15  1  0  0  0
 34 35  1  0  0  0
 34 36  1  0  0  0
 15 14  1  0  0  0
 31 32  1  0  0  0
 31 33  1  0  0  0
 14 13  1  0  0  0
 37  1  1  0  0  0
 37 39  1  0  0  0
 13 12  1  0  0  0
 38 39  2  0  0  0
 12 11  1  0  0  0
 11 10  1  0  0  0
 10  9  1  0  0  0
  9  8  1  0  0  0
  8  7  1  0  0  0
  7  6  1  0  0  0
  6  5  1  0  0  0
  2  1  1  0  0  0
  1 23  1  0  0  0
 30 32  1  0  0  0
 32 35  1  0  0  0
 39 40  1  0  0  0
 40 41  1  0  0  0
 41 42  1  0  0  0
 42 43  1  0  0  0
 43 44  1  0  0  0
 44 45  1  0  0  0
 45 46  1  0  0  0
 46 47  1  0  0  0
 47 48  2  0  0  0
 48 49  1  0  0  0
 49 50  1  0  0  0
 50 51  1  0  0  0
 51 52  1  0  0  0
 52 53  1  0  0  0
 53 54  1  0  0  0
 54 55  1  0  0  0
 55 56  1  0  0  0
M  CHG 1  26  -1
M  END
> <minimizedAffinity>
-8.51090

> <CNNscore>
0.3304907382

> <CNNaffinity>
7.3182325363

> <CNN_VS>
2.4186081886

> <CNNaffinity_variance>
1.5421732664

$$$$
/media/chris/experiments/cd1a-new-docking/inputs/ligands/7sh4_ligand.pdb


 56 55  0  0  0  0  0  0  0  0999 V2000
  -35.4262   61.5068   64.3915 C   0  0  0  0  0  0  0  0  0  0  0  0
  -36.7723   62.1675   64.4871 C   0  0  0  0  0  0  0  0  0  0  0  0
  -37.7072   61.0830   64.3060 O   0  0  0  0  0  0  0  0  0  0  0  0
  -38.0717   60.9668   66.5089 O   0  0  0  0  0  0  0  0  0  0  0  0
  -38.3803   60.6792   65.3838 C   0  0  0  0  0  0  0  0  0  0  0  0
  -39.6264   59.9354   64.9983 C   0  0  0  0  0  0  0  0  0  0  0  0
  -40.8979   60.4927   65.6158 C   0  0  0  0  0  0  0  0  0  0  0  0
  -41.9867   60.7402   64.5932 C   0  0  0  0  0  0  0  0  0  0  0  0
  -43.3086   61.1700   65.1877 C   0  0  0  0  0  0  0  0  0  0  0  0
  -44.4907   60.8623   64.2908 C   0  0  0  0  0  0  0  0  0  0  0  0
  -45.7674   60.6127   65.0558 C   0  0  0  0  0  0  0  0  0  0  0  0
  -46.9854   60.5733   64.1710 C   0  0  0  0  0  0  0  0  0  0  0  0
  -48.1230   59.7628   64.7516 C   0  0  0  0  0  0  0  0  0  0  0  0
  -48.6718   58.7416   63.7757 C   0  0  0  0  0  0  0  0  0  0  0  0
  -50.1726   58.8119   63.5866 C   0  0  0  0  0  0  0  0  0  0  0  0
  -50.6011   59.0523   62.1434 C   0  0  0  0  0  0  0  0  0  0  0  0
  -49.4963   59.5895   61.2540 C   0  0  0  0  0  0  0  0  0  0  0  0
  -49.3265   58.8088   59.9668 C   0  0  0  0  0  0  0  0  0  0  0  0
  -48.6981   57.4363   60.1640 C   0  0  0  0  0  0  0  0  0  0  0  0
  -47.5949   57.1243   59.1685 C   0  0  0  0  0  0  0  0  0  0  0  0
  -47.0037   58.4838   57.1343 C   0  0  0  0  0  0  0  0  0  0  0  0
  -47.9322   57.4474   57.7253 C   0  0  0  0  0  0  0  0  0  0  0  0
  -34.3401   62.4851   64.0238 C   0  0  0  0  0  0  0  0  0  0  0  0
  -34.5979   63.7396   64.6934 O   0  0  0  0  0  0  0  0  0  0  0  0
  -33.4330   64.7530   65.1151 P   0  0  0  0  0  0  0  0  0  0  0  0
  -33.6976   65.2048   66.4981 O   0  0  0  0  0  0  0  0  0  0  0  0
  -32.1310   64.1114   64.8122 O   0  0  0  0  0  0  0  0  0  0  0  0
  -32.0079   63.3415   65.3893 H   0  0  0  0  0  0  0  0  0  0  0  0
  -33.5963   66.0103   64.1480 O   0  0  0  0  0  0  0  0  0  0  0  0
  -34.2424   65.8566   62.8677 C   0  0  0  0  0  0  0  0  0  0  0  0
  -31.9198   66.1573   62.3600 O   0  0  0  0  0  0  0  0  0  0  0  0
  -33.1753   65.7530   61.8058 C   0  0  0  0  0  0  0  0  0  0  0  0
  -32.0006   67.0525   62.7246 H   0  0  0  0  0  0  0  0  0  0  0  0
  -34.3559   63.8415   60.9279 O   0  0  0  0  0  0  0  0  0  0  0  0
  -33.0676   64.3601   61.2330 C   0  0  0  0  0  0  0  0  0  0  0  0
  -34.2662   62.9477   60.5618 H   0  0  0  0  0  0  0  0  0  0  0  0
  -35.5181   60.4102   63.4226 O   0  0  0  0  0  0  0  0  0  0  0  0
  -34.0636   59.1505   64.5878 O   0  0  0  0  0  0  0  0  0  0  0  0
  -34.9259   59.2479   63.7580 C   0  0  0  0  0  0  0  0  0  0  0  0
  -35.4836   58.0918   62.9869 C   0  0  0  0  0  0  0  0  0  0  0  0
  -36.8640   57.6928   63.4985 C   0  0  0  0  0  0  0  0  0  0  0  0
  -37.9474   57.7181   62.4328 C   0  0  0  0  0  0  0  0  0  0  0  0
  -37.5698   58.5290   61.1985 C   0  0  0  0  0  0  0  0  0  0  0  0
  -38.2637   59.8753   61.1086 C   0  0  0  0  0  0  0  0  0  0  0  0
  -39.6740   59.8262   60.5139 C   0  0  0  0  0  0  0  0  0  0  0  0
  -39.8984   58.7420   59.4578 C   0  0  0  0  0  0  0  0  0  0  0  0
  -41.2814   58.1665   59.5240 C   0  0  0  0  0  0  0  0  0  0  0  0
  -41.6749   57.1453   60.2599 C   0  0  0  0  0  0  0  0  0  0  0  0
  -40.8180   56.3447   61.1891 C   0  0  0  0  0  0  0  0  0  0  0  0
  -41.5126   56.0531   62.5161 C   0  0  0  0  0  0  0  0  0  0  0  0
  -41.3110   57.1368   63.5606 C   0  0  0  0  0  0  0  0  0  0  0  0
  -42.0320   56.8639   64.8694 C   0  0  0  0  0  0  0  0  0  0  0  0
  -43.5149   57.1960   64.8525 C   0  0  0  0  0  0  0  0  0  0  0  0
  -44.0559   57.6210   66.2092 C   0  0  0  0  0  0  0  0  0  0  0  0
  -45.5571   57.4701   66.3551 C   0  0  0  0  0  0  0  0  0  0  0  0
  -46.0715   58.0102   67.6602 C   0  0  0  0  0  0  0  0  0  0  0  0
 21 22  1  0  0  0
  4  5  2  0  0  0
 25 24  1  0  0  0
 25 26  2  0  0  0
 25 27  1  0  0  0
 25 29  1  0  0  0
 22 20  1  0  0  0
  3  5  1  0  0  0
  3  2  1  0  0  0
 20 19  1  0  0  0
 24 23  1  0  0  0
 19 18  1  0  0  0
 18 17  1  0  0  0
 27 28  1  0  0  0
 17 16  1  0  0  0
 29 30  1  0  0  0
 16 15  1  0  0  0
 34 35  1  0  0  0
 34 36  1  0  0  0
 15 14  1  0  0  0
 31 32  1  0  0  0
 31 33  1  0  0  0
 14 13  1  0  0  0
 37  1  1  0  0  0
 37 39  1  0  0  0
 13 12  1  0  0  0
 38 39  2  0  0  0
 12 11  1  0  0  0
 11 10  1  0  0  0
 10  9  1  0  0  0
  9  8  1  0  0  0
  8  7  1  0  0  0
  7  6  1  0  0  0
  6  5  1  0  0  0
  2  1  1  0  0  0
  1 23  1  0  0  0
 30 32  1  0  0  0
 32 35  1  0  0  0
 39 40  1  0  0  0
 40 41  1  0  0  0
 41 42  1  0  0  0
 42 43  1  0  0  0
 43 44  1  0  0  0
 44 45  1  0  0  0
 45 46  1  0  0  0
 46 47  1  0  0  0
 47 48  2  0  0  0
 48 49  1  0  0  0
 49 50  1  0  0  0
 50 51  1  0  0  0
 51 52  1  0  0  0
 52 53  1  0  0  0
 53 54  1  0  0  0
 54 55  1  0  0  0
 55 56  1  0  0  0
M  CHG 1  26  -1
M  END
> <minimizedAffinity>
-7.74206

> <CNNscore>
0.3180359900

> <CNNaffinity>
7.4737830162

> <CNN_VS>
2.3769319057

> <CNNaffinity_variance>
0.7458513379

$$$$
/media/chris/experiments/cd1a-new-docking/inputs/ligands/7sh4_ligand.pdb


 56 55  0  0  0  0  0  0  0  0999 V2000
  -40.7035   60.0649   62.7284 C   0  0  0  0  0  0  0  0  0  0  0  0
  -41.8525   59.9804   63.6929 C   0  0  0  0  0  0  0  0  0  0  0  0
  -41.4847   58.9035   64.5807 O   0  0  0  0  0  0  0  0  0  0  0  0
  -42.0278   59.8647   66.5250 O   0  0  0  0  0  0  0  0  0  0  0  0
  -42.0320   58.9092   65.7966 C   0  0  0  0  0  0  0  0  0  0  0  0
  -42.7521   57.6210   66.0736 C   0  0  0  0  0  0  0  0  0  0  0  0
  -44.0666   57.4717   65.3265 C   0  0  0  0  0  0  0  0  0  0  0  0
  -45.1436   58.4021   65.8433 C   0  0  0  0  0  0  0  0  0  0  0  0
  -45.7904   59.2545   64.7752 C   0  0  0  0  0  0  0  0  0  0  0  0
  -47.2851   59.0322   64.6630 C   0  0  0  0  0  0  0  0  0  0  0  0
  -48.0988   60.1869   65.1941 C   0  0  0  0  0  0  0  0  0  0  0  0
  -49.3072   59.7447   65.9763 C   0  0  0  0  0  0  0  0  0  0  0  0
  -50.5049   59.4342   65.1061 C   0  0  0  0  0  0  0  0  0  0  0  0
  -50.6906   60.4378   63.9860 C   0  0  0  0  0  0  0  0  0  0  0  0
  -50.5360   59.8510   62.5986 C   0  0  0  0  0  0  0  0  0  0  0  0
  -50.8983   58.3727   62.5111 C   0  0  0  0  0  0  0  0  0  0  0  0
  -50.3157   57.6660   61.3022 C   0  0  0  0  0  0  0  0  0  0  0  0
  -48.9639   58.2060   60.8828 C   0  0  0  0  0  0  0  0  0  0  0  0
  -48.3886   57.5211   59.6508 C   0  0  0  0  0  0  0  0  0  0  0  0
  -48.0723   58.4781   58.5154 C   0  0  0  0  0  0  0  0  0  0  0  0
  -47.2244   56.4614   57.2706 C   0  0  0  0  0  0  0  0  0  0  0  0
  -47.0802   57.9492   57.4972 C   0  0  0  0  0  0  0  0  0  0  0  0
  -39.7152   61.1343   63.1175 C   0  0  0  0  0  0  0  0  0  0  0  0
  -38.5474   60.5029   63.6885 O   0  0  0  0  0  0  0  0  0  0  0  0
  -38.0399   60.8021   65.1767 P   0  0  0  0  0  0  0  0  0  0  0  0
  -39.1530   61.4270   65.9231 O   0  0  0  0  0  0  0  0  0  0  0  0
  -37.4292   59.5624   65.7141 O   0  0  0  0  0  0  0  0  0  0  0  0
  -38.1144   58.8839   65.8197 H   0  0  0  0  0  0  0  0  0  0  0  0
  -36.8837   61.8889   65.0182 O   0  0  0  0  0  0  0  0  0  0  0  0
  -35.7613   61.8855   65.9239 C   0  0  0  0  0  0  0  0  0  0  0  0
  -36.1440   62.8446   68.0864 O   0  0  0  0  0  0  0  0  0  0  0  0
  -35.7997   63.1583   66.7336 C   0  0  0  0  0  0  0  0  0  0  0  0
  -36.9864   62.3640   68.1025 H   0  0  0  0  0  0  0  0  0  0  0  0
  -33.5687   63.3642   67.6272 O   0  0  0  0  0  0  0  0  0  0  0  0
  -34.4894   63.9074   66.6898 C   0  0  0  0  0  0  0  0  0  0  0  0
  -32.7347   63.8577   67.5843 H   0  0  0  0  0  0  0  0  0  0  0  0
  -41.2446   60.2906   61.3845 O   0  0  0  0  0  0  0  0  0  0  0  0
  -40.2496   60.5200   59.3802 O   0  0  0  0  0  0  0  0  0  0  0  0
  -40.5042   59.8552   60.3471 C   0  0  0  0  0  0  0  0  0  0  0  0
  -40.0223   58.4524   60.5521 C   0  0  0  0  0  0  0  0  0  0  0  0
  -38.6089   58.2624   60.0108 C   0  0  0  0  0  0  0  0  0  0  0  0
  -37.5174   58.4921   61.0432 C   0  0  0  0  0  0  0  0  0  0  0  0
  -37.5816   57.5291   62.2231 C   0  0  0  0  0  0  0  0  0  0  0  0
  -36.3463   57.5494   63.1040 C   0  0  0  0  0  0  0  0  0  0  0  0
  -35.3510   58.6670   62.7793 C   0  0  0  0  0  0  0  0  0  0  0  0
  -33.9332   58.1995   62.4437 C   0  0  0  0  0  0  0  0  0  0  0  0
  -32.9084   58.8030   63.3569 C   0  0  0  0  0  0  0  0  0  0  0  0
  -31.9586   59.6541   63.0214 C   0  0  0  0  0  0  0  0  0  0  0  0
  -31.7056   60.1994   61.6513 C   0  0  0  0  0  0  0  0  0  0  0  0
  -31.0087   61.5565   61.6842 C   0  0  0  0  0  0  0  0  0  0  0  0
  -31.5951   62.5183   62.7026 C   0  0  0  0  0  0  0  0  0  0  0  0
  -32.8199   63.2643   62.2022 C   0  0  0  0  0  0  0  0  0  0  0  0
  -33.4442   64.2040   63.2203 C   0  0  0  0  0  0  0  0  0  0  0  0
  -34.8372   64.6771   62.8334 C   0  0  0  0  0  0  0  0  0  0  0  0
  -34.8565   65.9596   62.0255 C   0  0  0  0  0  0  0  0  0  0  0  0
  -36.1842   66.2123   61.3676 C   0  0  0  0  0  0  0  0  0  0  0  0
 21 22  1  0  0  0
  4  5  2  0  0  0
 25 24  1  0  0  0
 25 26  2  0  0  0
 25 27  1  0  0  0
 25 29  1  0  0  0
 22 20  1  0  0  0
  3  5  1  0  0  0
  3  2  1  0  0  0
 20 19  1  0  0  0
 24 23  1  0  0  0
 19 18  1  0  0  0
 18 17  1  0  0  0
 27 28  1  0  0  0
 17 16  1  0  0  0
 29 30  1  0  0  0
 16 15  1  0  0  0
 34 35  1  0  0  0
 34 36  1  0  0  0
 15 14  1  0  0  0
 31 32  1  0  0  0
 31 33  1  0  0  0
 14 13  1  0  0  0
 37  1  1  0  0  0
 37 39  1  0  0  0
 13 12  1  0  0  0
 38 39  2  0  0  0
 12 11  1  0  0  0
 11 10  1  0  0  0
 10  9  1  0  0  0
  9  8  1  0  0  0
  8  7  1  0  0  0
  7  6  1  0  0  0
  6  5  1  0  0  0
  2  1  1  0  0  0
  1 23  1  0  0  0
 30 32  1  0  0  0
 32 35  1  0  0  0
 39 40  1  0  0  0
 40 41  1  0  0  0
 41 42  1  0  0  0
 42 43  1  0  0  0
 43 44  1  0  0  0
 44 45  1  0  0  0
 45 46  1  0  0  0
 46 47  1  0  0  0
 47 48  2  0  0  0
 48 49  1  0  0  0
 49 50  1  0  0  0
 50 51  1  0  0  0
 51 52  1  0  0  0
 52 53  1  0  0  0
 53 54  1  0  0  0
 54 55  1  0  0  0
 55 56  1  0  0  0
M  CHG 1  26  -1
M  END
> <minimizedAffinity>
-8.32081

> <CNNscore>
0.3129674494

> <CNNaffinity>
7.0275011063

> <CNN_VS>
2.1993792057

> <CNNaffinity_variance>
0.8334524035

$$$$
