/media/chris/experiments/cd1a-new-docking/inputs/ligands/7sh4_ligand.pdb


 56 55  0  0  0  0  0  0  0  0999 V2000
  -39.7175   59.5563   65.2063 C   0  0  0  0  0  0  0  0  0  0  0  0
  -40.9816   59.7539   65.9941 C   0  0  0  0  0  0  0  0  0  0  0  0
  -41.5817   60.9261   65.4033 O   0  0  0  0  0  0  0  0  0  0  0  0
  -42.9715   61.6705   66.9887 O   0  0  0  0  0  0  0  0  0  0  0  0
  -42.7781   61.2904   65.8654 C   0  0  0  0  0  0  0  0  0  0  0  0
  -43.8076   61.2815   64.7723 C   0  0  0  0  0  0  0  0  0  0  0  0
  -44.6392   60.0113   64.7133 C   0  0  0  0  0  0  0  0  0  0  0  0
  -46.1229   60.2745   64.8614 C   0  0  0  0  0  0  0  0  0  0  0  0
  -46.6803   59.9290   66.2236 C   0  0  0  0  0  0  0  0  0  0  0  0
  -48.1880   60.0600   66.2984 C   0  0  0  0  0  0  0  0  0  0  0  0
  -48.9170   58.9401   65.5970 C   0  0  0  0  0  0  0  0  0  0  0  0
  -50.3565   59.2690   65.3018 C   0  0  0  0  0  0  0  0  0  0  0  0
  -50.5232   60.4150   64.3287 C   0  0  0  0  0  0  0  0  0  0  0  0
  -51.1776   59.9897   63.0299 C   0  0  0  0  0  0  0  0  0  0  0  0
  -50.9256   58.5443   62.6552 C   0  0  0  0  0  0  0  0  0  0  0  0
  -49.6103   58.3193   61.9181 C   0  0  0  0  0  0  0  0  0  0  0  0
  -49.5610   58.9491   60.5394 C   0  0  0  0  0  0  0  0  0  0  0  0
  -49.5711   57.9354   59.4136 C   0  0  0  0  0  0  0  0  0  0  0  0
  -48.6352   56.7572   59.6448 C   0  0  0  0  0  0  0  0  0  0  0  0
  -47.7183   56.4697   58.4694 C   0  0  0  0  0  0  0  0  0  0  0  0
  -46.8753   58.3997   57.0908 C   0  0  0  0  0  0  0  0  0  0  0  0
  -47.9491   57.3481   57.2544 C   0  0  0  0  0  0  0  0  0  0  0  0
  -38.6699   60.5841   65.5497 C   0  0  0  0  0  0  0  0  0  0  0  0
  -37.6452   60.5621   64.5309 O   0  0  0  0  0  0  0  0  0  0  0  0
  -37.0506   61.8930   63.8699 P   0  0  0  0  0  0  0  0  0  0  0  0
  -35.7162   61.5737   63.3184 O   0  0  0  0  0  0  0  0  0  0  0  0
  -38.0794   62.4577   62.9636 O   0  0  0  0  0  0  0  0  0  0  0  0
  -38.2193   61.8539   62.2174 H   0  0  0  0  0  0  0  0  0  0  0  0
  -36.8507   62.9125   65.0796 O   0  0  0  0  0  0  0  0  0  0  0  0
  -35.9419   64.0241   64.9436 C   0  0  0  0  0  0  0  0  0  0  0  0
  -34.1100   65.0510   66.0978 O   0  0  0  0  0  0  0  0  0  0  0  0
  -34.7792   63.8053   65.8802 C   0  0  0  0  0  0  0  0  0  0  0  0
  -33.8396   65.4260   65.2450 H   0  0  0  0  0  0  0  0  0  0  0  0
  -36.2268   63.9944   67.8003 O   0  0  0  0  0  0  0  0  0  0  0  0
  -35.2075   63.2066   67.1984 C   0  0  0  0  0  0  0  0  0  0  0  0
  -36.4883   63.5945   68.6444 H   0  0  0  0  0  0  0  0  0  0  0  0
  -40.0542   59.5820   63.7794 O   0  0  0  0  0  0  0  0  0  0  0  0
  -40.5740   57.3997   63.6125 O   0  0  0  0  0  0  0  0  0  0  0  0
  -40.7661   58.5434   63.3013 C   0  0  0  0  0  0  0  0  0  0  0  0
  -41.8355   58.9868   62.3515 C   0  0  0  0  0  0  0  0  0  0  0  0
  -41.4555   60.2866   61.6495 C   0  0  0  0  0  0  0  0  0  0  0  0
  -41.0276   60.1033   60.2026 C   0  0  0  0  0  0  0  0  0  0  0  0
  -41.3825   58.7357   59.6305 C   0  0  0  0  0  0  0  0  0  0  0  0
  -40.1805   57.8516   59.3544 C   0  0  0  0  0  0  0  0  0  0  0  0
  -38.9177   58.6077   58.9314 C   0  0  0  0  0  0  0  0  0  0  0  0
  -37.8504   58.7527   60.0183 C   0  0  0  0  0  0  0  0  0  0  0  0
  -38.0378   57.7638   61.1295 C   0  0  0  0  0  0  0  0  0  0  0  0
  -37.2999   57.6521   62.2168 C   0  0  0  0  0  0  0  0  0  0  0  0
  -36.1157   58.4953   62.5704 C   0  0  0  0  0  0  0  0  0  0  0  0
  -34.9123   57.6595   62.9970 C   0  0  0  0  0  0  0  0  0  0  0  0
  -33.9109   58.4221   63.8466 C   0  0  0  0  0  0  0  0  0  0  0  0
  -32.4629   58.1204   63.5006 C   0  0  0  0  0  0  0  0  0  0  0  0
  -31.6277   59.3446   63.1640 C   0  0  0  0  0  0  0  0  0  0  0  0
  -32.2667   60.2445   62.1172 C   0  0  0  0  0  0  0  0  0  0  0  0
  -31.2764   61.0602   61.3101 C   0  0  0  0  0  0  0  0  0  0  0  0
  -30.9396   62.3737   61.9589 C   0  0  0  0  0  0  0  0  0  0  0  0
 21 22  1  0  0  0
  4  5  2  0  0  0
 25 24  1  0  0  0
 25 26  2  0  0  0
 25 27  1  0  0  0
 25 29  1  0  0  0
 22 20  1  0  0  0
  3  5  1  0  0  0
  3  2  1  0  0  0
 20 19  1  0  0  0
 24 23  1  0  0  0
 19 18  1  0  0  0
 18 17  1  0  0  0
 27 28  1  0  0  0
 17 16  1  0  0  0
 29 30  1  0  0  0
 16 15  1  0  0  0
 34 35  1  0  0  0
 34 36  1  0  0  0
 15 14  1  0  0  0
 31 32  1  0  0  0
 31 33  1  0  0  0
 14 13  1  0  0  0
 37  1  1  0  0  0
 37 39  1  0  0  0
 13 12  1  0  0  0
 38 39  2  0  0  0
 12 11  1  0  0  0
 11 10  1  0  0  0
 10  9  1  0  0  0
  9  8  1  0  0  0
  8  7  1  0  0  0
  7  6  1  0  0  0
  6  5  1  0  0  0
  2  1  1  0  0  0
  1 23  1  0  0  0
 30 32  1  0  0  0
 32 35  1  0  0  0
 39 40  1  0  0  0
 40 41  1  0  0  0
 41 42  1  0  0  0
 42 43  1  0  0  0
 43 44  1  0  0  0
 44 45  1  0  0  0
 45 46  1  0  0  0
 46 47  1  0  0  0
 47 48  2  0  0  0
 48 49  1  0  0  0
 49 50  1  0  0  0
 50 51  1  0  0  0
 51 52  1  0  0  0
 52 53  1  0  0  0
 53 54  1  0  0  0
 54 55  1  0  0  0
 55 56  1  0  0  0
M  CHG 1  26  -1
M  END
> <minimizedAffinity>
-8.51074

> <CNNscore>
0.4253248274

> <CNNaffinity>
7.3004465103

> <CNN_VS>
3.1050610542

> <CNNaffinity_variance>
0.9852901697

$$$$
/media/chris/experiments/cd1a-new-docking/inputs/ligands/7sh4_ligand.pdb


 56 55  0  0  0  0  0  0  0  0999 V2000
  -41.2489   57.8602   64.2111 C   0  0  0  0  0  0  0  0  0  0  0  0
  -42.6294   58.3456   64.5521 C   0  0  0  0  0  0  0  0  0  0  0  0
  -42.4042   59.3718   65.5417 O   0  0  0  0  0  0  0  0  0  0  0  0
  -42.3762   61.5923   65.8023 O   0  0  0  0  0  0  0  0  0  0  0  0
  -42.7529   60.6158   65.2122 C   0  0  0  0  0  0  0  0  0  0  0  0
  -43.5635   60.6353   63.9483 C   0  0  0  0  0  0  0  0  0  0  0  0
  -44.8843   61.3764   64.0695 C   0  0  0  0  0  0  0  0  0  0  0  0
  -45.8743   60.6667   64.9688 C   0  0  0  0  0  0  0  0  0  0  0  0
  -46.2786   59.2934   64.4828 C   0  0  0  0  0  0  0  0  0  0  0  0
  -47.1202   58.5324   65.4871 C   0  0  0  0  0  0  0  0  0  0  0  0
  -48.3313   59.3034   65.9524 C   0  0  0  0  0  0  0  0  0  0  0  0
  -49.6217   58.7673   65.3909 C   0  0  0  0  0  0  0  0  0  0  0  0
  -50.7546   59.7688   65.4279 C   0  0  0  0  0  0  0  0  0  0  0  0
  -50.8021   60.6450   64.1926 C   0  0  0  0  0  0  0  0  0  0  0  0
  -50.8101   59.8749   62.8887 C   0  0  0  0  0  0  0  0  0  0  0  0
  -49.6319   60.1963   61.9762 C   0  0  0  0  0  0  0  0  0  0  0  0
  -49.6255   59.4115   60.6785 C   0  0  0  0  0  0  0  0  0  0  0  0
  -49.0717   58.0091   60.8257 C   0  0  0  0  0  0  0  0  0  0  0  0
  -49.1736   57.1763   59.5555 C   0  0  0  0  0  0  0  0  0  0  0  0
  -47.9663   56.2883   59.3126 C   0  0  0  0  0  0  0  0  0  0  0  0
  -47.4021   58.1608   57.7278 C   0  0  0  0  0  0  0  0  0  0  0  0
  -46.9798   56.8231   58.2919 C   0  0  0  0  0  0  0  0  0  0  0  0
  -40.1933   58.5047   65.0726 C   0  0  0  0  0  0  0  0  0  0  0  0
  -39.3043   59.2676   64.2263 O   0  0  0  0  0  0  0  0  0  0  0  0
  -38.9884   60.8170   64.4739 P   0  0  0  0  0  0  0  0  0  0  0  0
  -39.5530   61.5857   63.3437 O   0  0  0  0  0  0  0  0  0  0  0  0
  -39.4140   61.1605   65.8521 O   0  0  0  0  0  0  0  0  0  0  0  0
  -40.3793   61.0927   65.9187 H   0  0  0  0  0  0  0  0  0  0  0  0
  -37.4001   60.9403   64.4066 O   0  0  0  0  0  0  0  0  0  0  0  0
  -36.7757   61.6248   63.3013 C   0  0  0  0  0  0  0  0  0  0  0  0
  -36.8575   64.0171   63.4137 O   0  0  0  0  0  0  0  0  0  0  0  0
  -36.1086   62.8711   63.8291 C   0  0  0  0  0  0  0  0  0  0  0  0
  -36.9403   64.0163   62.4472 H   0  0  0  0  0  0  0  0  0  0  0  0
  -37.0911   63.4783   65.9467 O   0  0  0  0  0  0  0  0  0  0  0  0
  -35.9698   62.8562   65.3325 C   0  0  0  0  0  0  0  0  0  0  0  0
  -36.9838   63.4590   66.9105 H   0  0  0  0  0  0  0  0  0  0  0  0
  -41.0111   58.1092   62.7859 O   0  0  0  0  0  0  0  0  0  0  0  0
  -41.4072   55.9459   62.3129 O   0  0  0  0  0  0  0  0  0  0  0  0
  -41.1619   57.0639   61.9500 C   0  0  0  0  0  0  0  0  0  0  0  0
  -41.0057   57.4658   60.5160 C   0  0  0  0  0  0  0  0  0  0  0  0
  -40.8948   58.9800   60.3690 C   0  0  0  0  0  0  0  0  0  0  0  0
  -39.6644   59.4363   59.6022 C   0  0  0  0  0  0  0  0  0  0  0  0
  -38.4590   58.5210   59.7833 C   0  0  0  0  0  0  0  0  0  0  0  0
  -37.6443   58.8131   61.0298 C   0  0  0  0  0  0  0  0  0  0  0  0
  -37.4232   57.6044   61.9437 C   0  0  0  0  0  0  0  0  0  0  0  0
  -36.5313   57.8618   63.1602 C   0  0  0  0  0  0  0  0  0  0  0  0
  -35.1149   57.4311   62.9234 C   0  0  0  0  0  0  0  0  0  0  0  0
  -34.0245   58.0608   63.3154 C   0  0  0  0  0  0  0  0  0  0  0  0
  -33.9739   59.3433   64.0843 C   0  0  0  0  0  0  0  0  0  0  0  0
  -33.2203   60.4403   63.3378 C   0  0  0  0  0  0  0  0  0  0  0  0
  -32.2059   59.9117   62.3390 C   0  0  0  0  0  0  0  0  0  0  0  0
  -30.9908   60.8077   62.1717 C   0  0  0  0  0  0  0  0  0  0  0  0
  -31.2814   62.1462   61.5132 C   0  0  0  0  0  0  0  0  0  0  0  0
  -31.0265   63.3373   62.4243 C   0  0  0  0  0  0  0  0  0  0  0  0
  -32.2850   64.0154   62.9282 C   0  0  0  0  0  0  0  0  0  0  0  0
  -32.4246   63.9449   64.4233 C   0  0  0  0  0  0  0  0  0  0  0  0
 21 22  1  0  0  0
  4  5  2  0  0  0
 25 24  1  0  0  0
 25 26  2  0  0  0
 25 27  1  0  0  0
 25 29  1  0  0  0
 22 20  1  0  0  0
  3  5  1  0  0  0
  3  2  1  0  0  0
 20 19  1  0  0  0
 24 23  1  0  0  0
 19 18  1  0  0  0
 18 17  1  0  0  0
 27 28  1  0  0  0
 17 16  1  0  0  0
 29 30  1  0  0  0
 16 15  1  0  0  0
 34 35  1  0  0  0
 34 36  1  0  0  0
 15 14  1  0  0  0
 31 32  1  0  0  0
 31 33  1  0  0  0
 14 13  1  0  0  0
 37  1  1  0  0  0
 37 39  1  0  0  0
 13 12  1  0  0  0
 38 39  2  0  0  0
 12 11  1  0  0  0
 11 10  1  0  0  0
 10  9  1  0  0  0
  9  8  1  0  0  0
  8  7  1  0  0  0
  7  6  1  0  0  0
  6  5  1  0  0  0
  2  1  1  0  0  0
  1 23  1  0  0  0
 30 32  1  0  0  0
 32 35  1  0  0  0
 39 40  1  0  0  0
 40 41  1  0  0  0
 41 42  1  0  0  0
 42 43  1  0  0  0
 43 44  1  0  0  0
 44 45  1  0  0  0
 45 46  1  0  0  0
 46 47  1  0  0  0
 47 48  2  0  0  0
 48 49  1  0  0  0
 49 50  1  0  0  0
 50 51  1  0  0  0
 51 52  1  0  0  0
 52 53  1  0  0  0
 53 54  1  0  0  0
 54 55  1  0  0  0
 55 56  1  0  0  0
M  CHG 1  26  -1
M  END
> <minimizedAffinity>
-7.97204

> <CNNscore>
0.3842982948

> <CNNaffinity>
7.2936220169

> <CNN_VS>
2.8029265404

> <CNNaffinity_variance>
1.1261761189

$$$$
/media/chris/experiments/cd1a-new-docking/inputs/ligands/7sh4_ligand.pdb


 56 55  0  0  0  0  0  0  0  0999 V2000
  -40.6351   59.8249   62.4754 C   0  0  0  0  0  0  0  0  0  0  0  0
  -42.1330   59.9026   62.3878 C   0  0  0  0  0  0  0  0  0  0  0  0
  -42.5848   58.7147   63.0719 O   0  0  0  0  0  0  0  0  0  0  0  0
  -43.3045   59.9541   64.7880 O   0  0  0  0  0  0  0  0  0  0  0  0
  -43.1119   58.8799   64.2854 C   0  0  0  0  0  0  0  0  0  0  0  0
  -43.5410   57.5668   64.8739 C   0  0  0  0  0  0  0  0  0  0  0  0
  -44.0779   57.6681   66.2917 C   0  0  0  0  0  0  0  0  0  0  0  0
  -45.5884   57.5846   66.3539 C   0  0  0  0  0  0  0  0  0  0  0  0
  -46.2406   58.7165   67.1149 C   0  0  0  0  0  0  0  0  0  0  0  0
  -46.5516   59.9161   66.2430 C   0  0  0  0  0  0  0  0  0  0  0  0
  -47.6461   59.6522   65.2381 C   0  0  0  0  0  0  0  0  0  0  0  0
  -49.0081   60.0666   65.7288 C   0  0  0  0  0  0  0  0  0  0  0  0
  -50.1263   59.1926   65.2057 C   0  0  0  0  0  0  0  0  0  0  0  0
  -51.0702   59.9385   64.2845 C   0  0  0  0  0  0  0  0  0  0  0  0
  -51.0120   59.4848   62.8409 C   0  0  0  0  0  0  0  0  0  0  0  0
  -49.8979   60.1412   62.0334 C   0  0  0  0  0  0  0  0  0  0  0  0
  -49.4511   59.3336   60.8300 C   0  0  0  0  0  0  0  0  0  0  0  0
  -50.1245   57.9803   60.7294 C   0  0  0  0  0  0  0  0  0  0  0  0
  -49.2202   56.8885   60.1745 C   0  0  0  0  0  0  0  0  0  0  0  0
  -48.0257   57.4220   59.4041 C   0  0  0  0  0  0  0  0  0  0  0  0
  -47.0648   58.1089   57.1813 C   0  0  0  0  0  0  0  0  0  0  0  0
  -48.3217   57.8222   57.9711 C   0  0  0  0  0  0  0  0  0  0  0  0
  -40.0444   61.0324   63.1571 C   0  0  0  0  0  0  0  0  0  0  0  0
  -38.7750   60.6626   63.7407 O   0  0  0  0  0  0  0  0  0  0  0  0
  -38.4836   60.7529   65.3119 P   0  0  0  0  0  0  0  0  0  0  0  0
  -39.7556   61.0707   65.9960 O   0  0  0  0  0  0  0  0  0  0  0  0
  -37.7435   59.5329   65.7149 O   0  0  0  0  0  0  0  0  0  0  0  0
  -38.3188   58.7582   65.6157 H   0  0  0  0  0  0  0  0  0  0  0  0
  -37.5059   61.9999   65.4893 O   0  0  0  0  0  0  0  0  0  0  0  0
  -36.5634   62.0283   66.5806 C   0  0  0  0  0  0  0  0  0  0  0  0
  -36.1622   64.1322   67.6555 O   0  0  0  0  0  0  0  0  0  0  0  0
  -35.8078   63.3332   66.5228 C   0  0  0  0  0  0  0  0  0  0  0  0
  -37.1241   64.2560   67.6755 H   0  0  0  0  0  0  0  0  0  0  0  0
  -33.7116   63.5364   67.6987 O   0  0  0  0  0  0  0  0  0  0  0  0
  -34.3124   63.1300   66.4758 C   0  0  0  0  0  0  0  0  0  0  0  0
  -32.7527   63.3985   67.6493 H   0  0  0  0  0  0  0  0  0  0  0  0
  -40.1019   59.6531   61.1203 O   0  0  0  0  0  0  0  0  0  0  0  0
  -40.6149   57.4891   60.7828 O   0  0  0  0  0  0  0  0  0  0  0  0
  -39.8281   58.3944   60.7269 C   0  0  0  0  0  0  0  0  0  0  0  0
  -38.4343   58.2638   60.1956 C   0  0  0  0  0  0  0  0  0  0  0  0
  -37.3979   58.6623   61.2415 C   0  0  0  0  0  0  0  0  0  0  0  0
  -37.3166   57.7094   62.4228 C   0  0  0  0  0  0  0  0  0  0  0  0
  -35.9107   57.5648   62.9939 C   0  0  0  0  0  0  0  0  0  0  0  0
  -35.2143   58.8863   63.2609 C   0  0  0  0  0  0  0  0  0  0  0  0
  -34.1648   58.8393   64.3751 C   0  0  0  0  0  0  0  0  0  0  0  0
  -32.7279   59.1185   63.9290 C   0  0  0  0  0  0  0  0  0  0  0  0
  -32.6304   59.3501   62.4509 C   0  0  0  0  0  0  0  0  0  0  0  0
  -31.8705   60.2393   61.8417 C   0  0  0  0  0  0  0  0  0  0  0  0
  -30.9406   61.2069   62.5031 C   0  0  0  0  0  0  0  0  0  0  0  0
  -31.3535   62.6585   62.2771 C   0  0  0  0  0  0  0  0  0  0  0  0
  -32.8477   62.8432   62.0783 C   0  0  0  0  0  0  0  0  0  0  0  0
  -33.2061   64.0642   61.2487 C   0  0  0  0  0  0  0  0  0  0  0  0
  -32.8676   65.3926   61.9045 C   0  0  0  0  0  0  0  0  0  0  0  0
  -34.0787   66.2871   62.1211 C   0  0  0  0  0  0  0  0  0  0  0  0
  -35.3913   65.6764   61.6717 C   0  0  0  0  0  0  0  0  0  0  0  0
  -36.1747   65.0810   62.8081 C   0  0  0  0  0  0  0  0  0  0  0  0
 21 22  1  0  0  0
  4  5  2  0  0  0
 25 24  1  0  0  0
 25 26  2  0  0  0
 25 27  1  0  0  0
 25 29  1  0  0  0
 22 20  1  0  0  0
  3  5  1  0  0  0
  3  2  1  0  0  0
 20 19  1  0  0  0
 24 23  1  0  0  0
 19 18  1  0  0  0
 18 17  1  0  0  0
 27 28  1  0  0  0
 17 16  1  0  0  0
 29 30  1  0  0  0
 16 15  1  0  0  0
 34 35  1  0  0  0
 34 36  1  0  0  0
 15 14  1  0  0  0
 31 32  1  0  0  0
 31 33  1  0  0  0
 14 13  1  0  0  0
 37  1  1  0  0  0
 37 39  1  0  0  0
 13 12  1  0  0  0
 38 39  2  0  0  0
 12 11  1  0  0  0
 11 10  1  0  0  0
 10  9  1  0  0  0
  9  8  1  0  0  0
  8  7  1  0  0  0
  7  6  1  0  0  0
  6  5  1  0  0  0
  2  1  1  0  0  0
  1 23  1  0  0  0
 30 32  1  0  0  0
 32 35  1  0  0  0
 39 40  1  0  0  0
 40 41  1  0  0  0
 41 42  1  0  0  0
 42 43  1  0  0  0
 43 44  1  0  0  0
 44 45  1  0  0  0
 45 46  1  0  0  0
 46 47  1  0  0  0
 47 48  2  0  0  0
 48 49  1  0  0  0
 49 50  1  0  0  0
 50 51  1  0  0  0
 51 52  1  0  0  0
 52 53  1  0  0  0
 53 54  1  0  0  0
 54 55  1  0  0  0
 55 56  1  0  0  0
M  CHG 1  26  -1
M  END
> <minimizedAffinity>
-8.21113

> <CNNscore>
0.3401243687

> <CNNaffinity>
6.8758344650

> <CNN_VS>
2.3386387825

> <CNNaffinity_variance>
0.9629459381

$$$$
/media/chris/experiments/cd1a-new-docking/inputs/ligands/7sh4_ligand.pdb


 56 55  0  0  0  0  0  0  0  0999 V2000
  -40.9043   60.1777   64.8034 C   0  0  0  0  0  0  0  0  0  0  0  0
  -41.0088   59.0049   63.8701 C   0  0  0  0  0  0  0  0  0  0  0  0
  -41.4072   57.9125   64.7252 O   0  0  0  0  0  0  0  0  0  0  0  0
  -41.6913   55.6948   64.7226 O   0  0  0  0  0  0  0  0  0  0  0  0
  -41.6532   56.7423   64.1355 C   0  0  0  0  0  0  0  0  0  0  0  0
  -41.9955   56.9271   62.6851 C   0  0  0  0  0  0  0  0  0  0  0  0
  -41.2342   56.0070   61.7457 C   0  0  0  0  0  0  0  0  0  0  0  0
  -40.9808   56.6325   60.3903 C   0  0  0  0  0  0  0  0  0  0  0  0
  -41.6213   57.9893   60.2048 C   0  0  0  0  0  0  0  0  0  0  0  0
  -40.7653   58.9443   59.3978 C   0  0  0  0  0  0  0  0  0  0  0  0
  -39.5163   58.3012   58.8464 C   0  0  0  0  0  0  0  0  0  0  0  0
  -38.2513   58.9073   59.3941 C   0  0  0  0  0  0  0  0  0  0  0  0
  -38.4982   59.9481   60.4635 C   0  0  0  0  0  0  0  0  0  0  0  0
  -38.3021   59.4057   61.8647 C   0  0  0  0  0  0  0  0  0  0  0  0
  -37.9002   57.9465   61.9119 C   0  0  0  0  0  0  0  0  0  0  0  0
  -36.4594   57.7185   62.3551 C   0  0  0  0  0  0  0  0  0  0  0  0
  -36.2027   58.0522   63.8120 C   0  0  0  0  0  0  0  0  0  0  0  0
  -34.7438   57.9452   64.2062 C   0  0  0  0  0  0  0  0  0  0  0  0
  -33.7920   57.9074   63.0187 C   0  0  0  0  0  0  0  0  0  0  0  0
  -32.5278   58.7218   63.2271 C   0  0  0  0  0  0  0  0  0  0  0  0
  -31.6451   60.5718   61.7661 C   0  0  0  0  0  0  0  0  0  0  0  0
  -32.6416   60.1826   62.8344 C   0  0  0  0  0  0  0  0  0  0  0  0
  -39.5590   60.2448   65.4799 C   0  0  0  0  0  0  0  0  0  0  0  0
  -38.7743   61.2837   64.8526 O   0  0  0  0  0  0  0  0  0  0  0  0
  -37.2726   61.6211   65.2919 P   0  0  0  0  0  0  0  0  0  0  0  0
  -36.9994   60.9198   66.5649 O   0  0  0  0  0  0  0  0  0  0  0  0
  -36.3840   61.3653   64.1328 O   0  0  0  0  0  0  0  0  0  0  0  0
  -36.3750   60.4155   63.9357 H   0  0  0  0  0  0  0  0  0  0  0  0
  -37.2596   63.1889   65.5825 O   0  0  0  0  0  0  0  0  0  0  0  0
  -36.0995   63.9759   65.2437 C   0  0  0  0  0  0  0  0  0  0  0  0
  -36.1101   63.8279   67.6355 O   0  0  0  0  0  0  0  0  0  0  0  0
  -35.3499   64.2901   66.5151 C   0  0  0  0  0  0  0  0  0  0  0  0
  -36.9942   64.2264   67.6128 H   0  0  0  0  0  0  0  0  0  0  0  0
  -33.5653   63.3929   67.8672 O   0  0  0  0  0  0  0  0  0  0  0  0
  -33.9693   63.6792   66.5344 C   0  0  0  0  0  0  0  0  0  0  0  0
  -32.6777   63.0018   67.8590 H   0  0  0  0  0  0  0  0  0  0  0  0
  -41.9967   60.0911   65.7776 O   0  0  0  0  0  0  0  0  0  0  0  0
  -42.5288   62.0899   66.6620 O   0  0  0  0  0  0  0  0  0  0  0  0
  -42.7767   61.1800   65.9187 C   0  0  0  0  0  0  0  0  0  0  0  0
  -43.9778   61.1285   65.0261 C   0  0  0  0  0  0  0  0  0  0  0  0
  -44.7785   59.8479   65.2400 C   0  0  0  0  0  0  0  0  0  0  0  0
  -45.3562   59.7087   66.6389 C   0  0  0  0  0  0  0  0  0  0  0  0
  -46.7529   59.0986   66.6639 C   0  0  0  0  0  0  0  0  0  0  0  0
  -47.5805   59.4010   65.4284 C   0  0  0  0  0  0  0  0  0  0  0  0
  -48.4573   58.2404   64.9496 C   0  0  0  0  0  0  0  0  0  0  0  0
  -49.9363   58.3416   65.3289 C   0  0  0  0  0  0  0  0  0  0  0  0
  -50.4177   59.7614   65.3516 C   0  0  0  0  0  0  0  0  0  0  0  0
  -50.9459   60.4297   64.3448 C   0  0  0  0  0  0  0  0  0  0  0  0
  -51.1774   59.9064   62.9625 C   0  0  0  0  0  0  0  0  0  0  0  0
  -49.8795   59.7433   62.1767 C   0  0  0  0  0  0  0  0  0  0  0  0
  -50.0376   58.9378   60.8990 C   0  0  0  0  0  0  0  0  0  0  0  0
  -49.7292   57.4600   61.0677 C   0  0  0  0  0  0  0  0  0  0  0  0
  -48.7342   56.9056   60.0617 C   0  0  0  0  0  0  0  0  0  0  0  0
  -48.1178   57.9719   59.1689 C   0  0  0  0  0  0  0  0  0  0  0  0
  -47.9619   57.5557   57.7197 C   0  0  0  0  0  0  0  0  0  0  0  0
  -46.8579   58.2960   57.0178 C   0  0  0  0  0  0  0  0  0  0  0  0
 21 22  1  0  0  0
  4  5  2  0  0  0
 25 24  1  0  0  0
 25 26  2  0  0  0
 25 27  1  0  0  0
 25 29  1  0  0  0
 22 20  1  0  0  0
  3  5  1  0  0  0
  3  2  1  0  0  0
 20 19  1  0  0  0
 24 23  1  0  0  0
 19 18  1  0  0  0
 18 17  1  0  0  0
 27 28  1  0  0  0
 17 16  1  0  0  0
 29 30  1  0  0  0
 16 15  1  0  0  0
 34 35  1  0  0  0
 34 36  1  0  0  0
 15 14  1  0  0  0
 31 32  1  0  0  0
 31 33  1  0  0  0
 14 13  1  0  0  0
 37  1  1  0  0  0
 37 39  1  0  0  0
 13 12  1  0  0  0
 38 39  2  0  0  0
 12 11  1  0  0  0
 11 10  1  0  0  0
 10  9  1  0  0  0
  9  8  1  0  0  0
  8  7  1  0  0  0
  7  6  1  0  0  0
  6  5  1  0  0  0
  2  1  1  0  0  0
  1 23  1  0  0  0
 30 32  1  0  0  0
 32 35  1  0  0  0
 39 40  1  0  0  0
 40 41  1  0  0  0
 41 42  1  0  0  0
 42 43  1  0  0  0
 43 44  1  0  0  0
 44 45  1  0  0  0
 45 46  1  0  0  0
 46 47  1  0  0  0
 47 48  2  0  0  0
 48 49  1  0  0  0
 49 50  1  0  0  0
 50 51  1  0  0  0
 51 52  1  0  0  0
 52 53  1  0  0  0
 53 54  1  0  0  0
 54 55  1  0  0  0
 55 56  1  0  0  0
M  CHG 1  26  -1
M  END
> <minimizedAffinity>
-8.86510

> <CNNscore>
0.3366103768

> <CNNaffinity>
7.3923978806

> <CNN_VS>
2.4883577824

> <CNNaffinity_variance>
1.2767901421

$$$$
/media/chris/experiments/cd1a-new-docking/inputs/ligands/7sh4_ligand.pdb


 56 55  0  0  0  0  0  0  0  0999 V2000
  -39.1382   60.8381   65.6041 C   0  0  0  0  0  0  0  0  0  0  0  0
  -38.9145   60.8862   64.1191 C   0  0  0  0  0  0  0  0  0  0  0  0
  -40.2455   60.9770   63.5682 O   0  0  0  0  0  0  0  0  0  0  0  0
  -39.4327   61.2670   61.5056 O   0  0  0  0  0  0  0  0  0  0  0  0
  -40.3484   61.0087   62.2393 C   0  0  0  0  0  0  0  0  0  0  0  0
  -41.7092   60.5604   61.7897 C   0  0  0  0  0  0  0  0  0  0  0  0
  -42.5213   59.8646   62.8690 C   0  0  0  0  0  0  0  0  0  0  0  0
  -42.8392   58.4244   62.5266 C   0  0  0  0  0  0  0  0  0  0  0  0
  -41.6405   57.5034   62.5486 C   0  0  0  0  0  0  0  0  0  0  0  0
  -41.4242   56.7794   61.2352 C   0  0  0  0  0  0  0  0  0  0  0  0
  -41.4900   57.6929   60.0357 C   0  0  0  0  0  0  0  0  0  0  0  0
  -40.2536   57.6286   59.1785 C   0  0  0  0  0  0  0  0  0  0  0  0
  -39.4366   58.9012   59.2067 C   0  0  0  0  0  0  0  0  0  0  0  0
  -37.9752   58.6519   59.5203 C   0  0  0  0  0  0  0  0  0  0  0  0
  -37.6145   58.8438   60.9784 C   0  0  0  0  0  0  0  0  0  0  0  0
  -37.9991   57.6672   61.8682 C   0  0  0  0  0  0  0  0  0  0  0  0
  -37.3502   57.6931   63.2387 C   0  0  0  0  0  0  0  0  0  0  0  0
  -36.0612   58.4879   63.2797 C   0  0  0  0  0  0  0  0  0  0  0  0
  -34.8151   57.6417   63.0590 C   0  0  0  0  0  0  0  0  0  0  0  0
  -33.5948   58.4503   62.6565 C   0  0  0  0  0  0  0  0  0  0  0  0
  -33.1268   58.4916   65.1294 C   0  0  0  0  0  0  0  0  0  0  0  0
  -32.5415   58.5917   63.7390 C   0  0  0  0  0  0  0  0  0  0  0  0
  -37.8770   60.4975   66.3559 C   0  0  0  0  0  0  0  0  0  0  0  0
  -36.7683   61.1936   65.7439 O   0  0  0  0  0  0  0  0  0  0  0  0
  -36.1877   62.5715   66.3151 P   0  0  0  0  0  0  0  0  0  0  0  0
  -36.8807   63.6812   65.6258 O   0  0  0  0  0  0  0  0  0  0  0  0
  -36.2339   62.5133   67.7960 O   0  0  0  0  0  0  0  0  0  0  0  0
  -37.1580   62.4952   68.0901 H   0  0  0  0  0  0  0  0  0  0  0  0
  -34.6557   62.5997   65.8736 O   0  0  0  0  0  0  0  0  0  0  0  0
  -34.0874   63.8026   65.3166 C   0  0  0  0  0  0  0  0  0  0  0  0
  -33.1790   63.6102   67.5258 O   0  0  0  0  0  0  0  0  0  0  0  0
  -33.2170   64.4481   66.3667 C   0  0  0  0  0  0  0  0  0  0  0  0
  -34.0834   63.4470   67.8364 H   0  0  0  0  0  0  0  0  0  0  0  0
  -31.1459   65.6328   66.7211 O   0  0  0  0  0  0  0  0  0  0  0  0
  -31.8163   64.7128   65.8690 C   0  0  0  0  0  0  0  0  0  0  0  0
  -30.2495   65.7898   66.3856 H   0  0  0  0  0  0  0  0  0  0  0  0
  -40.2092   59.8751   65.8786 O   0  0  0  0  0  0  0  0  0  0  0  0
  -41.6687   61.5122   66.3785 O   0  0  0  0  0  0  0  0  0  0  0  0
  -41.3387   60.3589   66.4302 C   0  0  0  0  0  0  0  0  0  0  0  0
  -42.1408   59.2852   67.0981 C   0  0  0  0  0  0  0  0  0  0  0  0
  -42.5192   58.1791   66.1182 C   0  0  0  0  0  0  0  0  0  0  0  0
  -44.0180   57.9803   65.9622 C   0  0  0  0  0  0  0  0  0  0  0  0
  -44.8373   59.2154   66.3186 C   0  0  0  0  0  0  0  0  0  0  0  0
  -45.1608   60.1045   65.1323 C   0  0  0  0  0  0  0  0  0  0  0  0
  -46.6471   60.1647   64.7683 C   0  0  0  0  0  0  0  0  0  0  0  0
  -47.4992   59.0184   65.3174 C   0  0  0  0  0  0  0  0  0  0  0  0
  -48.7623   59.5104   65.9582 C   0  0  0  0  0  0  0  0  0  0  0  0
  -49.9880   59.3703   65.4920 C   0  0  0  0  0  0  0  0  0  0  0  0
  -50.3755   58.6856   64.2194 C   0  0  0  0  0  0  0  0  0  0  0  0
  -50.9321   59.6564   63.1820 C   0  0  0  0  0  0  0  0  0  0  0  0
  -49.9670   59.9567   62.0486 C   0  0  0  0  0  0  0  0  0  0  0  0
  -49.3312   58.7165   61.4444 C   0  0  0  0  0  0  0  0  0  0  0  0
  -49.6459   58.5007   59.9734 C   0  0  0  0  0  0  0  0  0  0  0  0
  -48.4765   58.8127   59.0518 C   0  0  0  0  0  0  0  0  0  0  0  0
  -47.7276   57.5894   58.5613 C   0  0  0  0  0  0  0  0  0  0  0  0
  -47.4164   57.6488   57.0919 C   0  0  0  0  0  0  0  0  0  0  0  0
 21 22  1  0  0  0
  4  5  2  0  0  0
 25 24  1  0  0  0
 25 26  2  0  0  0
 25 27  1  0  0  0
 25 29  1  0  0  0
 22 20  1  0  0  0
  3  5  1  0  0  0
  3  2  1  0  0  0
 20 19  1  0  0  0
 24 23  1  0  0  0
 19 18  1  0  0  0
 18 17  1  0  0  0
 27 28  1  0  0  0
 17 16  1  0  0  0
 29 30  1  0  0  0
 16 15  1  0  0  0
 34 35  1  0  0  0
 34 36  1  0  0  0
 15 14  1  0  0  0
 31 32  1  0  0  0
 31 33  1  0  0  0
 14 13  1  0  0  0
 37  1  1  0  0  0
 37 39  1  0  0  0
 13 12  1  0  0  0
 38 39  2  0  0  0
 12 11  1  0  0  0
 11 10  1  0  0  0
 10  9  1  0  0  0
  9  8  1  0  0  0
  8  7  1  0  0  0
  7  6  1  0  0  0
  6  5  1  0  0  0
  2  1  1  0  0  0
  1 23  1  0  0  0
 30 32  1  0  0  0
 32 35  1  0  0  0
 39 40  1  0  0  0
 40 41  1  0  0  0
 41 42  1  0  0  0
 42 43  1  0  0  0
 43 44  1  0  0  0
 44 45  1  0  0  0
 45 46  1  0  0  0
 46 47  1  0  0  0
 47 48  2  0  0  0
 48 49  1  0  0  0
 49 50  1  0  0  0
 50 51  1  0  0  0
 51 52  1  0  0  0
 52 53  1  0  0  0
 53 54  1  0  0  0
 54 55  1  0  0  0
 55 56  1  0  0  0
M  CHG 1  26  -1
M  END
> <minimizedAffinity>
-8.17385

> <CNNscore>
0.2783397138

> <CNNaffinity>
7.3715643883

> <CNN_VS>
2.0517990589

> <CNNaffinity_variance>
0.9468542337

$$$$
/media/chris/experiments/cd1a-new-docking/inputs/ligands/7sh4_ligand.pdb


 56 55  0  0  0  0  0  0  0  0999 V2000
  -45.6932   59.5227   65.8917 C   0  0  0  0  0  0  0  0  0  0  0  0
  -45.4257   58.0710   65.6114 C   0  0  0  0  0  0  0  0  0  0  0  0
  -44.3519   57.7330   66.5147 O   0  0  0  0  0  0  0  0  0  0  0  0
  -42.1284   57.9653   66.5483 O   0  0  0  0  0  0  0  0  0  0  0  0
  -43.1327   57.6179   65.9876 C   0  0  0  0  0  0  0  0  0  0  0  0
  -43.1758   56.8911   64.6743 C   0  0  0  0  0  0  0  0  0  0  0  0
  -41.9018   56.1323   64.3430 C   0  0  0  0  0  0  0  0  0  0  0  0
  -41.2173   56.6521   63.0964 C   0  0  0  0  0  0  0  0  0  0  0  0
  -41.2164   55.6795   61.9390 C   0  0  0  0  0  0  0  0  0  0  0  0
  -41.2716   56.3643   60.5884 C   0  0  0  0  0  0  0  0  0  0  0  0
  -41.7925   57.7788   60.6606 C   0  0  0  0  0  0  0  0  0  0  0  0
  -41.0317   58.7320   59.7772 C   0  0  0  0  0  0  0  0  0  0  0  0
  -39.8412   58.0969   59.0937 C   0  0  0  0  0  0  0  0  0  0  0  0
  -38.5744   58.9143   59.2452 C   0  0  0  0  0  0  0  0  0  0  0  0
  -38.0473   58.9803   60.6633 C   0  0  0  0  0  0  0  0  0  0  0  0
  -37.9383   57.6205   61.3439 C   0  0  0  0  0  0  0  0  0  0  0  0
  -37.7225   57.6972   62.8431 C   0  0  0  0  0  0  0  0  0  0  0  0
  -36.4499   58.4215   63.2319 C   0  0  0  0  0  0  0  0  0  0  0  0
  -35.1847   57.6181   62.9650 C   0  0  0  0  0  0  0  0  0  0  0  0
  -33.9201   58.4582   62.9653 C   0  0  0  0  0  0  0  0  0  0  0  0
  -33.5937   59.7377   65.1082 C   0  0  0  0  0  0  0  0  0  0  0  0
  -33.2007   58.5224   64.2993 C   0  0  0  0  0  0  0  0  0  0  0  0
  -47.1546   59.7904   66.1454 C   0  0  0  0  0  0  0  0  0  0  0  0
  -47.9024   59.4552   64.9551 O   0  0  0  0  0  0  0  0  0  0  0  0
  -49.4814   59.6848   64.8294 P   0  0  0  0  0  0  0  0  0  0  0  0
  -50.0803   59.4902   66.1674 O   0  0  0  0  0  0  0  0  0  0  0  0
  -49.7064   60.9720   64.1287 O   0  0  0  0  0  0  0  0  0  0  0  0
  -49.3954   61.7023   64.6862 H   0  0  0  0  0  0  0  0  0  0  0  0
  -50.0046   58.5135   63.8823 O   0  0  0  0  0  0  0  0  0  0  0  0
  -49.3739   58.2814   62.6063 C   0  0  0  0  0  0  0  0  0  0  0  0
  -49.7686   60.1368   61.1419 O   0  0  0  0  0  0  0  0  0  0  0  0
  -50.2615   58.8499   61.5264 C   0  0  0  0  0  0  0  0  0  0  0  0
  -49.7146   60.7091   61.9233 H   0  0  0  0  0  0  0  0  0  0  0  0
  -49.0566   57.6564   59.8112 O   0  0  0  0  0  0  0  0  0  0  0  0
  -50.3521   57.9451   60.3211 C   0  0  0  0  0  0  0  0  0  0  0  0
  -49.1354   57.0750   59.0388 H   0  0  0  0  0  0  0  0  0  0  0  0
  -45.1858   60.3116   64.7647 O   0  0  0  0  0  0  0  0  0  0  0  0
  -43.4920   61.0937   66.0216 O   0  0  0  0  0  0  0  0  0  0  0  0
  -44.0259   60.9698   64.9533 C   0  0  0  0  0  0  0  0  0  0  0  0
  -43.4739   61.5113   63.6710 C   0  0  0  0  0  0  0  0  0  0  0  0
  -42.6975   60.4464   62.9030 C   0  0  0  0  0  0  0  0  0  0  0  0
  -41.3211   60.1531   63.4771 C   0  0  0  0  0  0  0  0  0  0  0  0
  -40.2011   60.9430   62.8097 C   0  0  0  0  0  0  0  0  0  0  0  0
  -38.9515   61.0801   63.6596 C   0  0  0  0  0  0  0  0  0  0  0  0
  -37.8113   61.8567   62.9948 C   0  0  0  0  0  0  0  0  0  0  0  0
  -36.5765   62.0786   63.8710 C   0  0  0  0  0  0  0  0  0  0  0  0
  -36.6402   63.3769   64.6184 C   0  0  0  0  0  0  0  0  0  0  0  0
  -36.0179   63.6688   65.7439 C   0  0  0  0  0  0  0  0  0  0  0  0
  -35.1120   62.7599   66.5130 C   0  0  0  0  0  0  0  0  0  0  0  0
  -33.7486   63.3895   66.7838 C   0  0  0  0  0  0  0  0  0  0  0  0
  -33.7500   64.9058   66.6996 C   0  0  0  0  0  0  0  0  0  0  0  0
  -32.7508   65.4619   65.6997 C   0  0  0  0  0  0  0  0  0  0  0  0
  -33.0925   65.1813   64.2457 C   0  0  0  0  0  0  0  0  0  0  0  0
  -32.2964   64.0314   63.6476 C   0  0  0  0  0  0  0  0  0  0  0  0
  -33.1486   62.9329   63.0435 C   0  0  0  0  0  0  0  0  0  0  0  0
  -32.3302   61.8607   62.3799 C   0  0  0  0  0  0  0  0  0  0  0  0
 21 22  1  0  0  0
  4  5  2  0  0  0
 25 24  1  0  0  0
 25 26  2  0  0  0
 25 27  1  0  0  0
 25 29  1  0  0  0
 22 20  1  0  0  0
  3  5  1  0  0  0
  3  2  1  0  0  0
 20 19  1  0  0  0
 24 23  1  0  0  0
 19 18  1  0  0  0
 18 17  1  0  0  0
 27 28  1  0  0  0
 17 16  1  0  0  0
 29 30  1  0  0  0
 16 15  1  0  0  0
 34 35  1  0  0  0
 34 36  1  0  0  0
 15 14  1  0  0  0
 31 32  1  0  0  0
 31 33  1  0  0  0
 14 13  1  0  0  0
 37  1  1  0  0  0
 37 39  1  0  0  0
 13 12  1  0  0  0
 38 39  2  0  0  0
 12 11  1  0  0  0
 11 10  1  0  0  0
 10  9  1  0  0  0
  9  8  1  0  0  0
  8  7  1  0  0  0
  7  6  1  0  0  0
  6  5  1  0  0  0
  2  1  1  0  0  0
  1 23  1  0  0  0
 30 32  1  0  0  0
 32 35  1  0  0  0
 39 40  1  0  0  0
 40 41  1  0  0  0
 41 42  1  0  0  0
 42 43  1  0  0  0
 43 44  1  0  0  0
 44 45  1  0  0  0
 45 46  1  0  0  0
 46 47  1  0  0  0
 47 48  2  0  0  0
 48 49  1  0  0  0
 49 50  1  0  0  0
 50 51  1  0  0  0
 51 52  1  0  0  0
 52 53  1  0  0  0
 53 54  1  0  0  0
 54 55  1  0  0  0
 55 56  1  0  0  0
M  CHG 1  26  -1
M  END
> <minimizedAffinity>
-7.46205

> <CNNscore>
0.2136671394

> <CNNaffinity>
7.1178679466

> <CNN_VS>
1.5208544731

> <CNNaffinity_variance>
1.6600917578

$$$$
/media/chris/experiments/cd1a-new-docking/inputs/ligands/7sh4_ligand.pdb


 56 55  0  0  0  0  0  0  0  0999 V2000
  -42.0152   58.8701   65.2452 C   0  0  0  0  0  0  0  0  0  0  0  0
  -42.5990   57.7723   66.0888 C   0  0  0  0  0  0  0  0  0  0  0  0
  -43.9339   57.6031   65.5667 O   0  0  0  0  0  0  0  0  0  0  0  0
  -45.4850   57.3452   67.1563 O   0  0  0  0  0  0  0  0  0  0  0  0
  -44.9400   58.0280   66.3315 C   0  0  0  0  0  0  0  0  0  0  0  0
  -45.2082   59.4892   66.1125 C   0  0  0  0  0  0  0  0  0  0  0  0
  -45.7565   59.8198   64.7346 C   0  0  0  0  0  0  0  0  0  0  0  0
  -47.1010   60.5140   64.7898 C   0  0  0  0  0  0  0  0  0  0  0  0
  -48.1067   59.8451   65.6991 C   0  0  0  0  0  0  0  0  0  0  0  0
  -48.5763   58.5019   65.1782 C   0  0  0  0  0  0  0  0  0  0  0  0
  -50.0605   58.4552   64.9090 C   0  0  0  0  0  0  0  0  0  0  0  0
  -50.7235   59.8017   65.0314 C   0  0  0  0  0  0  0  0  0  0  0  0
  -51.1764   60.3708   63.7051 C   0  0  0  0  0  0  0  0  0  0  0  0
  -50.8124   59.4831   62.5323 C   0  0  0  0  0  0  0  0  0  0  0  0
  -49.6897   60.0245   61.6724 C   0  0  0  0  0  0  0  0  0  0  0  0
  -49.4140   59.1935   60.4244 C   0  0  0  0  0  0  0  0  0  0  0  0
  -50.1432   57.8641   60.3957 C   0  0  0  0  0  0  0  0  0  0  0  0
  -49.2864   56.7180   59.8983 C   0  0  0  0  0  0  0  0  0  0  0  0
  -47.8363   57.1056   59.6442 C   0  0  0  0  0  0  0  0  0  0  0  0
  -47.1745   56.2953   58.5440 C   0  0  0  0  0  0  0  0  0  0  0  0
  -47.2225   58.4866   57.3063 C   0  0  0  0  0  0  0  0  0  0  0  0
  -47.1236   56.9823   57.1925 C   0  0  0  0  0  0  0  0  0  0  0  0
  -42.2300   58.6280   63.7732 C   0  0  0  0  0  0  0  0  0  0  0  0
  -42.5253   59.8894   63.1326 O   0  0  0  0  0  0  0  0  0  0  0  0
  -41.4595   60.6767   62.2348 P   0  0  0  0  0  0  0  0  0  0  0  0
  -42.1933   61.3658   61.1516 O   0  0  0  0  0  0  0  0  0  0  0  0
  -40.6004   61.4809   63.1369 O   0  0  0  0  0  0  0  0  0  0  0  0
  -41.1321   62.1767   63.5542 H   0  0  0  0  0  0  0  0  0  0  0  0
  -40.5503   59.5475   61.5707 O   0  0  0  0  0  0  0  0  0  0  0  0
  -40.9352   58.9595   60.3113 C   0  0  0  0  0  0  0  0  0  0  0  0
  -39.0933   58.5820   58.8255 O   0  0  0  0  0  0  0  0  0  0  0  0
  -39.8543   57.9962   59.8859 C   0  0  0  0  0  0  0  0  0  0  0  0
  -39.6868   58.8254   58.0978 H   0  0  0  0  0  0  0  0  0  0  0  0
  -39.6676   56.9030   62.0279 O   0  0  0  0  0  0  0  0  0  0  0  0
  -38.9455   57.6109   61.0283 C   0  0  0  0  0  0  0  0  0  0  0  0
  -39.0680   56.6645   62.7520 H   0  0  0  0  0  0  0  0  0  0  0  0
  -40.5912   58.9952   65.5714 O   0  0  0  0  0  0  0  0  0  0  0  0
  -40.8664   61.1346   66.2096 O   0  0  0  0  0  0  0  0  0  0  0  0
  -40.1474   60.2214   65.9084 C   0  0  0  0  0  0  0  0  0  0  0  0
  -38.6525   60.3037   65.8806 C   0  0  0  0  0  0  0  0  0  0  0  0
  -38.0306   59.0048   65.3777 C   0  0  0  0  0  0  0  0  0  0  0  0
  -37.1309   59.1812   64.1655 C   0  0  0  0  0  0  0  0  0  0  0  0
  -36.3910   57.9099   63.7652 C   0  0  0  0  0  0  0  0  0  0  0  0
  -35.6097   58.0326   62.4701 C   0  0  0  0  0  0  0  0  0  0  0  0
  -34.1146   57.7264   62.5970 C   0  0  0  0  0  0  0  0  0  0  0  0
  -33.2403   58.9106   63.0152 C   0  0  0  0  0  0  0  0  0  0  0  0
  -33.1873   59.0754   64.5045 C   0  0  0  0  0  0  0  0  0  0  0  0
  -33.6496   60.0955   65.2007 C   0  0  0  0  0  0  0  0  0  0  0  0
  -34.3289   61.3076   64.6457 C   0  0  0  0  0  0  0  0  0  0  0  0
  -35.2979   61.9390   65.6411 C   0  0  0  0  0  0  0  0  0  0  0  0
  -34.9633   63.3792   65.9876 C   0  0  0  0  0  0  0  0  0  0  0  0
  -33.7046   63.5284   66.8248 C   0  0  0  0  0  0  0  0  0  0  0  0
  -32.5858   64.3021   66.1473 C   0  0  0  0  0  0  0  0  0  0  0  0
  -33.0505   65.5991   65.5026 C   0  0  0  0  0  0  0  0  0  0  0  0
  -32.8431   65.6571   64.0021 C   0  0  0  0  0  0  0  0  0  0  0  0
  -32.3526   64.3553   63.4324 C   0  0  0  0  0  0  0  0  0  0  0  0
 21 22  1  0  0  0
  4  5  2  0  0  0
 25 24  1  0  0  0
 25 26  2  0  0  0
 25 27  1  0  0  0
 25 29  1  0  0  0
 22 20  1  0  0  0
  3  5  1  0  0  0
  3  2  1  0  0  0
 20 19  1  0  0  0
 24 23  1  0  0  0
 19 18  1  0  0  0
 18 17  1  0  0  0
 27 28  1  0  0  0
 17 16  1  0  0  0
 29 30  1  0  0  0
 16 15  1  0  0  0
 34 35  1  0  0  0
 34 36  1  0  0  0
 15 14  1  0  0  0
 31 32  1  0  0  0
 31 33  1  0  0  0
 14 13  1  0  0  0
 37  1  1  0  0  0
 37 39  1  0  0  0
 13 12  1  0  0  0
 38 39  2  0  0  0
 12 11  1  0  0  0
 11 10  1  0  0  0
 10  9  1  0  0  0
  9  8  1  0  0  0
  8  7  1  0  0  0
  7  6  1  0  0  0
  6  5  1  0  0  0
  2  1  1  0  0  0
  1 23  1  0  0  0
 30 32  1  0  0  0
 32 35  1  0  0  0
 39 40  1  0  0  0
 40 41  1  0  0  0
 41 42  1  0  0  0
 42 43  1  0  0  0
 43 44  1  0  0  0
 44 45  1  0  0  0
 45 46  1  0  0  0
 46 47  1  0  0  0
 47 48  2  0  0  0
 48 49  1  0  0  0
 49 50  1  0  0  0
 50 51  1  0  0  0
 51 52  1  0  0  0
 52 53  1  0  0  0
 53 54  1  0  0  0
 54 55  1  0  0  0
 55 56  1  0  0  0
M  CHG 1  26  -1
M  END
> <minimizedAffinity>
-8.13978

> <CNNscore>
0.2105664462

> <CNNaffinity>
6.7365851402

> <CNN_VS>
1.4184987545

> <CNNaffinity_variance>
1.2519595623

$$$$
/media/chris/experiments/cd1a-new-docking/inputs/ligands/7sh4_ligand.pdb


 56 55  0  0  0  0  0  0  0  0999 V2000
  -40.5101   58.6995   64.4501 C   0  0  0  0  0  0  0  0  0  0  0  0
  -41.3776   58.4490   65.6511 C   0  0  0  0  0  0  0  0  0  0  0  0
  -42.3906   57.5420   65.1672 O   0  0  0  0  0  0  0  0  0  0  0  0
  -44.5284   56.9757   65.4961 O   0  0  0  0  0  0  0  0  0  0  0  0
  -43.6492   57.7940   65.5277 C   0  0  0  0  0  0  0  0  0  0  0  0
  -43.7857   59.1801   66.0888 C   0  0  0  0  0  0  0  0  0  0  0  0
  -45.1280   59.8341   65.8075 C   0  0  0  0  0  0  0  0  0  0  0  0
  -46.1993   59.4218   66.7950 C   0  0  0  0  0  0  0  0  0  0  0  0
  -47.6121   59.6459   66.3055 C   0  0  0  0  0  0  0  0  0  0  0  0
  -47.9979   58.7260   65.1650 C   0  0  0  0  0  0  0  0  0  0  0  0
  -47.8325   59.3625   63.8067 C   0  0  0  0  0  0  0  0  0  0  0  0
  -48.6423   60.6217   63.6442 C   0  0  0  0  0  0  0  0  0  0  0  0
  -49.6851   60.5283   62.5526 C   0  0  0  0  0  0  0  0  0  0  0  0
  -50.9282   59.7820   62.9928 C   0  0  0  0  0  0  0  0  0  0  0  0
  -50.8592   58.2848   62.7770 C   0  0  0  0  0  0  0  0  0  0  0  0
  -50.9702   57.8673   61.3150 C   0  0  0  0  0  0  0  0  0  0  0  0
  -49.8345   56.9822   60.8389 C   0  0  0  0  0  0  0  0  0  0  0  0
  -48.5705   57.7495   60.5095 C   0  0  0  0  0  0  0  0  0  0  0  0
  -48.6448   58.5122   59.1941 C   0  0  0  0  0  0  0  0  0  0  0  0
  -48.8801   57.6212   57.9875 C   0  0  0  0  0  0  0  0  0  0  0  0
  -46.7144   58.2973   56.8973 C   0  0  0  0  0  0  0  0  0  0  0  0
  -47.6179   57.1505   57.2900 C   0  0  0  0  0  0  0  0  0  0  0  0
  -41.1961   58.3114   63.1654 C   0  0  0  0  0  0  0  0  0  0  0  0
  -42.0011   59.4234   62.7136 O   0  0  0  0  0  0  0  0  0  0  0  0
  -41.3700   60.8210   62.2548 P   0  0  0  0  0  0  0  0  0  0  0  0
  -42.1597   61.3265   61.1113 O   0  0  0  0  0  0  0  0  0  0  0  0
  -41.2258   61.6788   63.4556 O   0  0  0  0  0  0  0  0  0  0  0  0
  -42.1045   61.9063   63.7977 H   0  0  0  0  0  0  0  0  0  0  0  0
  -39.9076   60.4704   61.7247 O   0  0  0  0  0  0  0  0  0  0  0  0
  -39.6948   60.1912   60.3259 C   0  0  0  0  0  0  0  0  0  0  0  0
  -39.4449   58.3463   58.8171 O   0  0  0  0  0  0  0  0  0  0  0  0
  -39.3009   58.7414   60.1846 C   0  0  0  0  0  0  0  0  0  0  0  0
  -40.3537   58.5185   58.5247 H   0  0  0  0  0  0  0  0  0  0  0  0
  -37.3763   59.6092   61.3511 O   0  0  0  0  0  0  0  0  0  0  0  0
  -37.8908   58.4802   60.6568 C   0  0  0  0  0  0  0  0  0  0  0  0
  -36.4713   59.4225   61.6461 H   0  0  0  0  0  0  0  0  0  0  0  0
  -39.2495   57.9731   64.6318 O   0  0  0  0  0  0  0  0  0  0  0  0
  -38.0796   59.8824   64.4165 O   0  0  0  0  0  0  0  0  0  0  0  0
  -38.1124   58.6869   64.5236 C   0  0  0  0  0  0  0  0  0  0  0  0
  -36.8963   57.8146   64.5713 C   0  0  0  0  0  0  0  0  0  0  0  0
  -35.6620   58.5481   64.0563 C   0  0  0  0  0  0  0  0  0  0  0  0
  -34.4130   58.3132   64.8899 C   0  0  0  0  0  0  0  0  0  0  0  0
  -33.1638   58.9712   64.3153 C   0  0  0  0  0  0  0  0  0  0  0  0
  -33.4473   60.1936   63.4620 C   0  0  0  0  0  0  0  0  0  0  0  0
  -32.3298   60.5580   62.4805 C   0  0  0  0  0  0  0  0  0  0  0  0
  -31.7054   61.9396   62.6878 C   0  0  0  0  0  0  0  0  0  0  0  0
  -32.7187   63.0394   62.5801 C   0  0  0  0  0  0  0  0  0  0  0  0
  -32.6679   64.2174   63.1707 C   0  0  0  0  0  0  0  0  0  0  0  0
  -31.5807   64.7050   64.0756 C   0  0  0  0  0  0  0  0  0  0  0  0
  -31.8607   64.3931   65.5429 C   0  0  0  0  0  0  0  0  0  0  0  0
  -33.3396   64.3465   65.8846 C   0  0  0  0  0  0  0  0  0  0  0  0
  -33.7596   63.0762   66.6039 C   0  0  0  0  0  0  0  0  0  0  0  0
  -35.0052   62.4146   66.0381 C   0  0  0  0  0  0  0  0  0  0  0  0
  -35.7705   63.2974   65.0641 C   0  0  0  0  0  0  0  0  0  0  0  0
  -36.1019   62.6272   63.7455 C   0  0  0  0  0  0  0  0  0  0  0  0
  -36.5693   63.6007   62.6998 C   0  0  0  0  0  0  0  0  0  0  0  0
 21 22  1  0  0  0
  4  5  2  0  0  0
 25 24  1  0  0  0
 25 26  2  0  0  0
 25 27  1  0  0  0
 25 29  1  0  0  0
 22 20  1  0  0  0
  3  5  1  0  0  0
  3  2  1  0  0  0
 20 19  1  0  0  0
 24 23  1  0  0  0
 19 18  1  0  0  0
 18 17  1  0  0  0
 27 28  1  0  0  0
 17 16  1  0  0  0
 29 30  1  0  0  0
 16 15  1  0  0  0
 34 35  1  0  0  0
 34 36  1  0  0  0
 15 14  1  0  0  0
 31 32  1  0  0  0
 31 33  1  0  0  0
 14 13  1  0  0  0
 37  1  1  0  0  0
 37 39  1  0  0  0
 13 12  1  0  0  0
 38 39  2  0  0  0
 12 11  1  0  0  0
 11 10  1  0  0  0
 10  9  1  0  0  0
  9  8  1  0  0  0
  8  7  1  0  0  0
  7  6  1  0  0  0
  6  5  1  0  0  0
  2  1  1  0  0  0
  1 23  1  0  0  0
 30 32  1  0  0  0
 32 35  1  0  0  0
 39 40  1  0  0  0
 40 41  1  0  0  0
 41 42  1  0  0  0
 42 43  1  0  0  0
 43 44  1  0  0  0
 44 45  1  0  0  0
 45 46  1  0  0  0
 46 47  1  0  0  0
 47 48  2  0  0  0
 48 49  1  0  0  0
 49 50  1  0  0  0
 50 51  1  0  0  0
 51 52  1  0  0  0
 52 53  1  0  0  0
 53 54  1  0  0  0
 54 55  1  0  0  0
 55 56  1  0  0  0
M  CHG 1  26  -1
M  END
> <minimizedAffinity>
-7.62124

> <CNNscore>
0.2080629468

> <CNNaffinity>
6.7048292160

> <CNN_VS>
1.3950265646

> <CNNaffinity_variance>
0.8851865530

$$$$
/media/chris/experiments/cd1a-new-docking/inputs/ligands/7sh4_ligand.pdb


 56 55  0  0  0  0  0  0  0  0999 V2000
  -39.1531   60.2074   64.7706 C   0  0  0  0  0  0  0  0  0  0  0  0
  -40.4210   59.7576   65.4398 C   0  0  0  0  0  0  0  0  0  0  0  0
  -40.8137   60.8913   66.2420 O   0  0  0  0  0  0  0  0  0  0  0  0
  -42.5447   62.2645   66.5842 O   0  0  0  0  0  0  0  0  0  0  0  0
  -42.1135   61.1863   66.2757 C   0  0  0  0  0  0  0  0  0  0  0  0
  -42.9425   60.0446   65.7617 C   0  0  0  0  0  0  0  0  0  0  0  0
  -44.1843   60.4737   64.9986 C   0  0  0  0  0  0  0  0  0  0  0  0
  -44.9723   59.3009   64.4544 C   0  0  0  0  0  0  0  0  0  0  0  0
  -46.4594   59.5510   64.3454 C   0  0  0  0  0  0  0  0  0  0  0  0
  -47.0810   60.0100   65.6488 C   0  0  0  0  0  0  0  0  0  0  0  0
  -48.2579   59.1668   66.0749 C   0  0  0  0  0  0  0  0  0  0  0  0
  -49.5775   59.8744   65.9149 C   0  0  0  0  0  0  0  0  0  0  0  0
  -49.7756   60.4719   64.5395 C   0  0  0  0  0  0  0  0  0  0  0  0
  -51.1458   60.1759   63.9645 C   0  0  0  0  0  0  0  0  0  0  0  0
  -51.1377   59.1652   62.8369 C   0  0  0  0  0  0  0  0  0  0  0  0
  -49.7600   58.9348   62.2261 C   0  0  0  0  0  0  0  0  0  0  0  0
  -49.7052   59.1585   60.7271 C   0  0  0  0  0  0  0  0  0  0  0  0
  -49.9943   57.9090   59.9208 C   0  0  0  0  0  0  0  0  0  0  0  0
  -48.8963   56.8582   60.0088 C   0  0  0  0  0  0  0  0  0  0  0  0
  -47.6835   57.1734   59.1516 C   0  0  0  0  0  0  0  0  0  0  0  0
  -46.9160   58.4254   57.1072 C   0  0  0  0  0  0  0  0  0  0  0  0
  -48.0021   57.5730   57.7233 C   0  0  0  0  0  0  0  0  0  0  0  0
  -38.1108   60.6442   65.7679 C   0  0  0  0  0  0  0  0  0  0  0  0
  -37.7590   62.0202   65.5006 O   0  0  0  0  0  0  0  0  0  0  0  0
  -36.3249   62.6340   65.8587 P   0  0  0  0  0  0  0  0  0  0  0  0
  -36.2262   62.7388   67.3305 O   0  0  0  0  0  0  0  0  0  0  0  0
  -35.2946   61.8562   65.1293 O   0  0  0  0  0  0  0  0  0  0  0  0
  -35.2679   60.9505   65.4758 H   0  0  0  0  0  0  0  0  0  0  0  0
  -36.3368   64.1123   65.2610 O   0  0  0  0  0  0  0  0  0  0  0  0
  -35.3911   64.4845   64.2378 C   0  0  0  0  0  0  0  0  0  0  0  0
  -35.5262   66.0128   62.3970 O   0  0  0  0  0  0  0  0  0  0  0  0
  -36.1595   64.8811   63.0012 C   0  0  0  0  0  0  0  0  0  0  0  0
  -35.4616   66.7315   63.0454 H   0  0  0  0  0  0  0  0  0  0  0  0
  -36.9617   62.6472   62.5721 O   0  0  0  0  0  0  0  0  0  0  0  0
  -36.2685   63.7517   62.0052 C   0  0  0  0  0  0  0  0  0  0  0  0
  -37.0215   61.9331   61.9184 H   0  0  0  0  0  0  0  0  0  0  0  0
  -39.4844   61.2807   63.8282 O   0  0  0  0  0  0  0  0  0  0  0  0
  -41.3788   61.0177   62.6440 O   0  0  0  0  0  0  0  0  0  0  0  0
  -40.1840   60.9350   62.7304 C   0  0  0  0  0  0  0  0  0  0  0  0
  -39.2937   60.4537   61.6269 C   0  0  0  0  0  0  0  0  0  0  0  0
  -40.0112   60.4742   60.2809 C   0  0  0  0  0  0  0  0  0  0  0  0
  -39.9254   59.1631   59.5168 C   0  0  0  0  0  0  0  0  0  0  0  0
  -41.2306   58.3756   59.5088 C   0  0  0  0  0  0  0  0  0  0  0  0
  -41.1970   57.1170   60.3559 C   0  0  0  0  0  0  0  0  0  0  0  0
  -41.3592   57.3571   61.8596 C   0  0  0  0  0  0  0  0  0  0  0  0
  -40.0884   57.1671   62.6905 C   0  0  0  0  0  0  0  0  0  0  0  0
  -38.8921   56.8766   61.8347 C   0  0  0  0  0  0  0  0  0  0  0  0
  -37.6393   57.1921   62.0995 C   0  0  0  0  0  0  0  0  0  0  0  0
  -37.1480   57.9085   63.3176 C   0  0  0  0  0  0  0  0  0  0  0  0
  -35.6610   58.2417   63.2370 C   0  0  0  0  0  0  0  0  0  0  0  0
  -34.9490   58.1795   64.5769 C   0  0  0  0  0  0  0  0  0  0  0  0
  -33.4927   58.6070   64.5141 C   0  0  0  0  0  0  0  0  0  0  0  0
  -32.8911   58.5899   63.1186 C   0  0  0  0  0  0  0  0  0  0  0  0
  -31.6364   59.4400   62.9896 C   0  0  0  0  0  0  0  0  0  0  0  0
  -31.6668   60.4227   61.8359 C   0  0  0  0  0  0  0  0  0  0  0  0
  -32.2544   61.7520   62.2198 C   0  0  0  0  0  0  0  0  0  0  0  0
 21 22  1  0  0  0
  4  5  2  0  0  0
 25 24  1  0  0  0
 25 26  2  0  0  0
 25 27  1  0  0  0
 25 29  1  0  0  0
 22 20  1  0  0  0
  3  5  1  0  0  0
  3  2  1  0  0  0
 20 19  1  0  0  0
 24 23  1  0  0  0
 19 18  1  0  0  0
 18 17  1  0  0  0
 27 28  1  0  0  0
 17 16  1  0  0  0
 29 30  1  0  0  0
 16 15  1  0  0  0
 34 35  1  0  0  0
 34 36  1  0  0  0
 15 14  1  0  0  0
 31 32  1  0  0  0
 31 33  1  0  0  0
 14 13  1  0  0  0
 37  1  1  0  0  0
 37 39  1  0  0  0
 13 12  1  0  0  0
 38 39  2  0  0  0
 12 11  1  0  0  0
 11 10  1  0  0  0
 10  9  1  0  0  0
  9  8  1  0  0  0
  8  7  1  0  0  0
  7  6  1  0  0  0
  6  5  1  0  0  0
  2  1  1  0  0  0
  1 23  1  0  0  0
 30 32  1  0  0  0
 32 35  1  0  0  0
 39 40  1  0  0  0
 40 41  1  0  0  0
 41 42  1  0  0  0
 42 43  1  0  0  0
 43 44  1  0  0  0
 44 45  1  0  0  0
 45 46  1  0  0  0
 46 47  1  0  0  0
 47 48  2  0  0  0
 48 49  1  0  0  0
 49 50  1  0  0  0
 50 51  1  0  0  0
 51 52  1  0  0  0
 52 53  1  0  0  0
 53 54  1  0  0  0
 54 55  1  0  0  0
 55 56  1  0  0  0
M  CHG 1  26  -1
M  END
> <minimizedAffinity>
-8.37504

> <CNNscore>
0.1748946905

> <CNNaffinity>
7.2002272606

> <CNN_VS>
1.2592815161

> <CNNaffinity_variance>
1.0365449190

$$$$
