/media/chris/experiments/cd1a-new-docking/inputs/ligands/7sh4_ligand.pdb


 56 55  0  0  0  0  0  0  0  0999 V2000
  -40.5462   59.9080   65.2794 C   0  0  0  0  0  0  0  0  0  0  0  0
  -40.6728   58.5641   64.6194 C   0  0  0  0  0  0  0  0  0  0  0  0
  -41.6127   57.8530   65.4525 O   0  0  0  0  0  0  0  0  0  0  0  0
  -42.0979   55.8816   64.5160 O   0  0  0  0  0  0  0  0  0  0  0  0
  -42.4265   56.9897   64.8442 C   0  0  0  0  0  0  0  0  0  0  0  0
  -43.8209   57.5378   64.7425 C   0  0  0  0  0  0  0  0  0  0  0  0
  -44.6398   57.3900   66.0137 C   0  0  0  0  0  0  0  0  0  0  0  0
  -45.5942   58.5449   66.2337 C   0  0  0  0  0  0  0  0  0  0  0  0
  -46.8417   58.4882   65.3815 C   0  0  0  0  0  0  0  0  0  0  0  0
  -47.0474   59.7361   64.5470 C   0  0  0  0  0  0  0  0  0  0  0  0
  -48.2128   60.5754   65.0108 C   0  0  0  0  0  0  0  0  0  0  0  0
  -49.0201   59.9129   66.0958 C   0  0  0  0  0  0  0  0  0  0  0  0
  -50.3032   59.2890   65.5933 C   0  0  0  0  0  0  0  0  0  0  0  0
  -51.0173   60.1569   64.5769 C   0  0  0  0  0  0  0  0  0  0  0  0
  -51.2340   59.4873   63.2361 C   0  0  0  0  0  0  0  0  0  0  0  0
  -50.3457   60.0334   62.1240 C   0  0  0  0  0  0  0  0  0  0  0  0
  -49.5056   58.9773   61.4318 C   0  0  0  0  0  0  0  0  0  0  0  0
  -50.2707   58.1871   60.3900 C   0  0  0  0  0  0  0  0  0  0  0  0
  -49.6121   58.1891   59.0175 C   0  0  0  0  0  0  0  0  0  0  0  0
  -48.1325   57.8507   59.0528 C   0  0  0  0  0  0  0  0  0  0  0  0
  -47.0981   56.4656   57.2233 C   0  0  0  0  0  0  0  0  0  0  0  0
  -47.4473   57.8574   57.6996 C   0  0  0  0  0  0  0  0  0  0  0  0
  -39.1952   60.0995   65.9194 C   0  0  0  0  0  0  0  0  0  0  0  0
  -38.7840   61.4727   65.7360 O   0  0  0  0  0  0  0  0  0  0  0  0
  -37.4247   61.8795   64.9953 P   0  0  0  0  0  0  0  0  0  0  0  0
  -36.3554   60.9760   65.4719 O   0  0  0  0  0  0  0  0  0  0  0  0
  -37.6970   61.9553   63.5397 O   0  0  0  0  0  0  0  0  0  0  0  0
  -37.9048   61.0696   63.2031 H   0  0  0  0  0  0  0  0  0  0  0  0
  -37.0885   63.3516   65.5080 O   0  0  0  0  0  0  0  0  0  0  0  0
  -35.7812   63.9152   65.2766 C   0  0  0  0  0  0  0  0  0  0  0  0
  -36.1807   64.1476   67.6280 O   0  0  0  0  0  0  0  0  0  0  0  0
  -35.1899   64.3073   66.6083 C   0  0  0  0  0  0  0  0  0  0  0  0
  -36.9671   64.6672   67.3989 H   0  0  0  0  0  0  0  0  0  0  0  0
  -34.0865   62.1658   66.4869 O   0  0  0  0  0  0  0  0  0  0  0  0
  -33.9575   63.5042   66.9490 C   0  0  0  0  0  0  0  0  0  0  0  0
  -33.2866   61.6666   66.7146 H   0  0  0  0  0  0  0  0  0  0  0  0
  -41.6322   60.0473   66.2546 O   0  0  0  0  0  0  0  0  0  0  0  0
  -41.9483   62.2218   66.7365 O   0  0  0  0  0  0  0  0  0  0  0  0
  -42.3283   61.2001   66.2328 C   0  0  0  0  0  0  0  0  0  0  0  0
  -43.6213   61.0602   65.4908 C   0  0  0  0  0  0  0  0  0  0  0  0
  -43.5609   61.7441   64.1287 C   0  0  0  0  0  0  0  0  0  0  0  0
  -43.1468   60.8218   62.9938 C   0  0  0  0  0  0  0  0  0  0  0  0
  -42.2948   61.5066   61.9315 C   0  0  0  0  0  0  0  0  0  0  0  0
  -41.0916   60.6952   61.4883 C   0  0  0  0  0  0  0  0  0  0  0  0
  -41.0441   60.3946   59.9876 C   0  0  0  0  0  0  0  0  0  0  0  0
  -40.5299   59.0015   59.6180 C   0  0  0  0  0  0  0  0  0  0  0  0
  -39.0400   58.9748   59.4528 C   0  0  0  0  0  0  0  0  0  0  0  0
  -38.1638   58.4597   60.2932 C   0  0  0  0  0  0  0  0  0  0  0  0
  -38.4765   57.7893   61.5936 C   0  0  0  0  0  0  0  0  0  0  0  0
  -37.2221   57.3097   62.3181 C   0  0  0  0  0  0  0  0  0  0  0  0
  -36.8764   58.1319   63.5473 C   0  0  0  0  0  0  0  0  0  0  0  0
  -35.7760   57.5228   64.3988 C   0  0  0  0  0  0  0  0  0  0  0  0
  -34.5269   58.3797   64.5209 C   0  0  0  0  0  0  0  0  0  0  0  0
  -33.8365   58.6369   63.1901 C   0  0  0  0  0  0  0  0  0  0  0  0
  -32.4029   59.1129   63.3148 C   0  0  0  0  0  0  0  0  0  0  0  0
  -31.9745   59.9766   62.1615 C   0  0  0  0  0  0  0  0  0  0  0  0
 21 22  1  0  0  0
  4  5  2  0  0  0
 25 24  1  0  0  0
 25 26  2  0  0  0
 25 27  1  0  0  0
 25 29  1  0  0  0
 22 20  1  0  0  0
  3  5  1  0  0  0
  3  2  1  0  0  0
 20 19  1  0  0  0
 24 23  1  0  0  0
 19 18  1  0  0  0
 18 17  1  0  0  0
 27 28  1  0  0  0
 17 16  1  0  0  0
 29 30  1  0  0  0
 16 15  1  0  0  0
 34 35  1  0  0  0
 34 36  1  0  0  0
 15 14  1  0  0  0
 31 32  1  0  0  0
 31 33  1  0  0  0
 14 13  1  0  0  0
 37  1  1  0  0  0
 37 39  1  0  0  0
 13 12  1  0  0  0
 38 39  2  0  0  0
 12 11  1  0  0  0
 11 10  1  0  0  0
 10  9  1  0  0  0
  9  8  1  0  0  0
  8  7  1  0  0  0
  7  6  1  0  0  0
  6  5  1  0  0  0
  2  1  1  0  0  0
  1 23  1  0  0  0
 30 32  1  0  0  0
 32 35  1  0  0  0
 39 40  1  0  0  0
 40 41  1  0  0  0
 41 42  1  0  0  0
 42 43  1  0  0  0
 43 44  1  0  0  0
 44 45  1  0  0  0
 45 46  1  0  0  0
 46 47  1  0  0  0
 47 48  2  0  0  0
 48 49  1  0  0  0
 49 50  1  0  0  0
 50 51  1  0  0  0
 51 52  1  0  0  0
 52 53  1  0  0  0
 53 54  1  0  0  0
 54 55  1  0  0  0
 55 56  1  0  0  0
M  CHG 1  26  -1
M  END
> <minimizedAffinity>
-8.91015

> <CNNscore>
0.3967389464

> <CNNaffinity>
7.4630255699

> <CNN_VS>
2.9608728886

> <CNNaffinity_variance>
1.8075844049

$$$$
/media/chris/experiments/cd1a-new-docking/inputs/ligands/7sh4_ligand.pdb


 56 55  0  0  0  0  0  0  0  0999 V2000
  -38.8541   61.1081   62.2379 C   0  0  0  0  0  0  0  0  0  0  0  0
  -38.2569   59.8316   61.7167 C   0  0  0  0  0  0  0  0  0  0  0  0
  -38.1707   60.0428   60.2915 O   0  0  0  0  0  0  0  0  0  0  0  0
  -38.1233   58.8981   58.3715 O   0  0  0  0  0  0  0  0  0  0  0  0
  -38.4962   59.0145   59.5077 C   0  0  0  0  0  0  0  0  0  0  0  0
  -39.2738   57.9783   60.2670 C   0  0  0  0  0  0  0  0  0  0  0  0
  -40.7266   57.8560   59.8394 C   0  0  0  0  0  0  0  0  0  0  0  0
  -41.6533   57.5421   60.9950 C   0  0  0  0  0  0  0  0  0  0  0  0
  -40.9694   56.8993   62.1803 C   0  0  0  0  0  0  0  0  0  0  0  0
  -41.6205   57.2497   63.5029 C   0  0  0  0  0  0  0  0  0  0  0  0
  -40.6363   57.7334   64.5397 C   0  0  0  0  0  0  0  0  0  0  0  0
  -39.2102   57.7026   64.0569 C   0  0  0  0  0  0  0  0  0  0  0  0
  -38.2425   58.3833   64.9993 C   0  0  0  0  0  0  0  0  0  0  0  0
  -36.8613   57.7606   64.9703 C   0  0  0  0  0  0  0  0  0  0  0  0
  -35.8480   58.5421   64.1606 C   0  0  0  0  0  0  0  0  0  0  0  0
  -35.2830   57.7722   62.9723 C   0  0  0  0  0  0  0  0  0  0  0  0
  -33.9182   58.2536   62.5187 C   0  0  0  0  0  0  0  0  0  0  0  0
  -33.0588   58.7794   63.6501 C   0  0  0  0  0  0  0  0  0  0  0  0
  -31.7958   59.4869   63.1791 C   0  0  0  0  0  0  0  0  0  0  0  0
  -31.9108   60.0697   61.7818 C   0  0  0  0  0  0  0  0  0  0  0  0
  -31.8229   62.3489   62.8461 C   0  0  0  0  0  0  0  0  0  0  0  0
  -31.4383   61.5052   61.6520 C   0  0  0  0  0  0  0  0  0  0  0  0
  -37.8748   61.8914   63.0740 C   0  0  0  0  0  0  0  0  0  0  0  0
  -36.9382   62.5536   62.1950 O   0  0  0  0  0  0  0  0  0  0  0  0
  -35.8585   63.6132   62.7179 P   0  0  0  0  0  0  0  0  0  0  0  0
  -34.9029   63.8734   61.6197 O   0  0  0  0  0  0  0  0  0  0  0  0
  -36.5871   64.7585   63.3145 O   0  0  0  0  0  0  0  0  0  0  0  0
  -37.0758   65.2278   62.6203 H   0  0  0  0  0  0  0  0  0  0  0  0
  -35.0706   62.8705   63.8887 O   0  0  0  0  0  0  0  0  0  0  0  0
  -34.6294   63.6116   65.0446 C   0  0  0  0  0  0  0  0  0  0  0  0
  -33.9494   63.2448   67.3129 O   0  0  0  0  0  0  0  0  0  0  0  0
  -34.7642   62.7249   66.2580 C   0  0  0  0  0  0  0  0  0  0  0  0
  -33.0328   63.3228   67.0051 H   0  0  0  0  0  0  0  0  0  0  0  0
  -37.0194   63.5617   66.0779 O   0  0  0  0  0  0  0  0  0  0  0  0
  -36.1959   62.5970   66.7204 C   0  0  0  0  0  0  0  0  0  0  0  0
  -37.9335   63.4638   66.3872 H   0  0  0  0  0  0  0  0  0  0  0  0
  -40.0665   60.7759   62.9927 O   0  0  0  0  0  0  0  0  0  0  0  0
  -41.4659   61.0700   61.2562 O   0  0  0  0  0  0  0  0  0  0  0  0
  -41.2448   61.1153   62.4356 C   0  0  0  0  0  0  0  0  0  0  0  0
  -42.2495   61.5370   63.4625 C   0  0  0  0  0  0  0  0  0  0  0  0
  -43.3392   60.4850   63.6432 C   0  0  0  0  0  0  0  0  0  0  0  0
  -44.6708   61.0506   64.1089 C   0  0  0  0  0  0  0  0  0  0  0  0
  -45.4699   60.0895   64.9815 C   0  0  0  0  0  0  0  0  0  0  0  0
  -46.8951   59.8681   64.5101 C   0  0  0  0  0  0  0  0  0  0  0  0
  -47.8480   59.3436   65.5880 C   0  0  0  0  0  0  0  0  0  0  0  0
  -49.1723   58.7798   65.0686 C   0  0  0  0  0  0  0  0  0  0  0  0
  -50.2556   59.8161   65.0414 C   0  0  0  0  0  0  0  0  0  0  0  0
  -51.0117   60.1377   64.0098 C   0  0  0  0  0  0  0  0  0  0  0  0
  -50.9465   59.5304   62.6441 C   0  0  0  0  0  0  0  0  0  0  0  0
  -49.7852   60.0765   61.8186 C   0  0  0  0  0  0  0  0  0  0  0  0
  -49.5230   59.2943   60.5436 C   0  0  0  0  0  0  0  0  0  0  0  0
  -48.8638   57.9464   60.7796 C   0  0  0  0  0  0  0  0  0  0  0  0
  -48.1474   57.3749   59.5673 C   0  0  0  0  0  0  0  0  0  0  0  0
  -47.9465   58.3869   58.4496 C   0  0  0  0  0  0  0  0  0  0  0  0
  -47.5002   57.7805   57.1341 C   0  0  0  0  0  0  0  0  0  0  0  0
  -47.0995   56.3377   57.2651 C   0  0  0  0  0  0  0  0  0  0  0  0
 21 22  1  0  0  0
  4  5  2  0  0  0
 25 24  1  0  0  0
 25 26  2  0  0  0
 25 27  1  0  0  0
 25 29  1  0  0  0
 22 20  1  0  0  0
  3  5  1  0  0  0
  3  2  1  0  0  0
 20 19  1  0  0  0
 24 23  1  0  0  0
 19 18  1  0  0  0
 18 17  1  0  0  0
 27 28  1  0  0  0
 17 16  1  0  0  0
 29 30  1  0  0  0
 16 15  1  0  0  0
 34 35  1  0  0  0
 34 36  1  0  0  0
 15 14  1  0  0  0
 31 32  1  0  0  0
 31 33  1  0  0  0
 14 13  1  0  0  0
 37  1  1  0  0  0
 37 39  1  0  0  0
 13 12  1  0  0  0
 38 39  2  0  0  0
 12 11  1  0  0  0
 11 10  1  0  0  0
 10  9  1  0  0  0
  9  8  1  0  0  0
  8  7  1  0  0  0
  7  6  1  0  0  0
  6  5  1  0  0  0
  2  1  1  0  0  0
  1 23  1  0  0  0
 30 32  1  0  0  0
 32 35  1  0  0  0
 39 40  1  0  0  0
 40 41  1  0  0  0
 41 42  1  0  0  0
 42 43  1  0  0  0
 43 44  1  0  0  0
 44 45  1  0  0  0
 45 46  1  0  0  0
 46 47  1  0  0  0
 47 48  2  0  0  0
 48 49  1  0  0  0
 49 50  1  0  0  0
 50 51  1  0  0  0
 51 52  1  0  0  0
 52 53  1  0  0  0
 53 54  1  0  0  0
 54 55  1  0  0  0
 55 56  1  0  0  0
M  CHG 1  26  -1
M  END
> <minimizedAffinity>
-8.58624

> <CNNscore>
0.3633229434

> <CNNaffinity>
7.2815332413

> <CNN_VS>
2.6455481052

> <CNNaffinity_variance>
1.0352756977

$$$$
/media/chris/experiments/cd1a-new-docking/inputs/ligands/7sh4_ligand.pdb


 56 55  0  0  0  0  0  0  0  0999 V2000
  -40.9340   59.6236   65.0144 C   0  0  0  0  0  0  0  0  0  0  0  0
  -40.9018   59.6466   63.5124 C   0  0  0  0  0  0  0  0  0  0  0  0
  -41.9881   60.5264   63.1533 O   0  0  0  0  0  0  0  0  0  0  0  0
  -42.7157   61.9246   61.5675 O   0  0  0  0  0  0  0  0  0  0  0  0
  -41.9209   61.1124   61.9575 C   0  0  0  0  0  0  0  0  0  0  0  0
  -40.6674   60.7190   61.2302 C   0  0  0  0  0  0  0  0  0  0  0  0
  -40.8991   60.2489   59.8041 C   0  0  0  0  0  0  0  0  0  0  0  0
  -41.2601   58.7806   59.7223 C   0  0  0  0  0  0  0  0  0  0  0  0
  -40.0792   57.8645   59.4941 C   0  0  0  0  0  0  0  0  0  0  0  0
  -38.8110   58.6103   59.1317 C   0  0  0  0  0  0  0  0  0  0  0  0
  -37.7694   58.5763   60.2233 C   0  0  0  0  0  0  0  0  0  0  0  0
  -38.2551   57.9022   61.4793 C   0  0  0  0  0  0  0  0  0  0  0  0
  -37.4046   58.2081   62.6922 C   0  0  0  0  0  0  0  0  0  0  0  0
  -35.9914   57.6761   62.5653 C   0  0  0  0  0  0  0  0  0  0  0  0
  -34.9210   58.6564   62.9971 C   0  0  0  0  0  0  0  0  0  0  0  0
  -33.5201   58.2875   62.5222 C   0  0  0  0  0  0  0  0  0  0  0  0
  -32.4342   58.5410   63.5502 C   0  0  0  0  0  0  0  0  0  0  0  0
  -31.5579   59.7316   63.2190 C   0  0  0  0  0  0  0  0  0  0  0  0
  -31.9138   60.4031   61.9000 C   0  0  0  0  0  0  0  0  0  0  0  0
  -32.1234   61.9022   62.0183 C   0  0  0  0  0  0  0  0  0  0  0  0
  -33.6999   63.7222   62.7518 C   0  0  0  0  0  0  0  0  0  0  0  0
  -33.2018   62.3166   63.0013 C   0  0  0  0  0  0  0  0  0  0  0  0
  -39.6122   60.0282   65.6152 C   0  0  0  0  0  0  0  0  0  0  0  0
  -39.1152   61.1866   64.9086 O   0  0  0  0  0  0  0  0  0  0  0  0
  -37.5574   61.5416   64.8125 P   0  0  0  0  0  0  0  0  0  0  0  0
  -36.7926   60.3958   65.3501 O   0  0  0  0  0  0  0  0  0  0  0  0
  -37.2734   62.0030   63.4323 O   0  0  0  0  0  0  0  0  0  0  0  0
  -37.3962   61.2662   62.8134 H   0  0  0  0  0  0  0  0  0  0  0  0
  -37.3447   62.7787   65.7960 O   0  0  0  0  0  0  0  0  0  0  0  0
  -36.3201   63.7546   65.5167 C   0  0  0  0  0  0  0  0  0  0  0  0
  -35.9982   63.1347   67.8090 O   0  0  0  0  0  0  0  0  0  0  0  0
  -35.6062   64.0771   66.8063 C   0  0  0  0  0  0  0  0  0  0  0  0
  -36.9637   63.1443   67.9020 H   0  0  0  0  0  0  0  0  0  0  0  0
  -33.4853   63.4092   67.7411 O   0  0  0  0  0  0  0  0  0  0  0  0
  -34.1047   64.0752   66.6482 C   0  0  0  0  0  0  0  0  0  0  0  0
  -32.5227   63.4183   67.6217 H   0  0  0  0  0  0  0  0  0  0  0  0
  -41.3375   58.2819   65.4469 O   0  0  0  0  0  0  0  0  0  0  0  0
  -42.9742   56.9674   64.6385 O   0  0  0  0  0  0  0  0  0  0  0  0
  -42.6252   57.9390   65.2518 C   0  0  0  0  0  0  0  0  0  0  0  0
  -43.5670   58.9022   65.9055 C   0  0  0  0  0  0  0  0  0  0  0  0
  -44.9309   58.9008   65.2225 C   0  0  0  0  0  0  0  0  0  0  0  0
  -45.5757   60.2741   65.1310 C   0  0  0  0  0  0  0  0  0  0  0  0
  -46.8633   60.2901   64.3152 C   0  0  0  0  0  0  0  0  0  0  0  0
  -47.7284   59.0579   64.5037 C   0  0  0  0  0  0  0  0  0  0  0  0
  -48.6056   59.0817   65.7586 C   0  0  0  0  0  0  0  0  0  0  0  0
  -50.1088   58.9479   65.5056 C   0  0  0  0  0  0  0  0  0  0  0  0
  -50.6782   60.1599   64.8313 C   0  0  0  0  0  0  0  0  0  0  0  0
  -51.2129   60.2126   63.6269 C   0  0  0  0  0  0  0  0  0  0  0  0
  -51.3650   59.0663   62.6777 C   0  0  0  0  0  0  0  0  0  0  0  0
  -50.1810   58.9390   61.7236 C   0  0  0  0  0  0  0  0  0  0  0  0
  -49.9942   57.5381   61.1676 C   0  0  0  0  0  0  0  0  0  0  0  0
  -49.5296   57.5127   59.7217 C   0  0  0  0  0  0  0  0  0  0  0  0
  -48.5741   58.6336   59.3475 C   0  0  0  0  0  0  0  0  0  0  0  0
  -47.8234   58.3812   58.0489 C   0  0  0  0  0  0  0  0  0  0  0  0
  -48.1992   57.0873   57.3545 C   0  0  0  0  0  0  0  0  0  0  0  0
  -47.0117   56.2063   57.0840 C   0  0  0  0  0  0  0  0  0  0  0  0
 21 22  1  0  0  0
  4  5  2  0  0  0
 25 24  1  0  0  0
 25 26  2  0  0  0
 25 27  1  0  0  0
 25 29  1  0  0  0
 22 20  1  0  0  0
  3  5  1  0  0  0
  3  2  1  0  0  0
 20 19  1  0  0  0
 24 23  1  0  0  0
 19 18  1  0  0  0
 18 17  1  0  0  0
 27 28  1  0  0  0
 17 16  1  0  0  0
 29 30  1  0  0  0
 16 15  1  0  0  0
 34 35  1  0  0  0
 34 36  1  0  0  0
 15 14  1  0  0  0
 31 32  1  0  0  0
 31 33  1  0  0  0
 14 13  1  0  0  0
 37  1  1  0  0  0
 37 39  1  0  0  0
 13 12  1  0  0  0
 38 39  2  0  0  0
 12 11  1  0  0  0
 11 10  1  0  0  0
 10  9  1  0  0  0
  9  8  1  0  0  0
  8  7  1  0  0  0
  7  6  1  0  0  0
  6  5  1  0  0  0
  2  1  1  0  0  0
  1 23  1  0  0  0
 30 32  1  0  0  0
 32 35  1  0  0  0
 39 40  1  0  0  0
 40 41  1  0  0  0
 41 42  1  0  0  0
 42 43  1  0  0  0
 43 44  1  0  0  0
 44 45  1  0  0  0
 45 46  1  0  0  0
 46 47  1  0  0  0
 47 48  2  0  0  0
 48 49  1  0  0  0
 49 50  1  0  0  0
 50 51  1  0  0  0
 51 52  1  0  0  0
 52 53  1  0  0  0
 53 54  1  0  0  0
 54 55  1  0  0  0
 55 56  1  0  0  0
M  CHG 1  26  -1
M  END
> <minimizedAffinity>
-8.72670

> <CNNscore>
0.3556772470

> <CNNaffinity>
7.1497430801

> <CNN_VS>
2.5430009365

> <CNNaffinity_variance>
1.0220441818

$$$$
/media/chris/experiments/cd1a-new-docking/inputs/ligands/7sh4_ligand.pdb


 56 55  0  0  0  0  0  0  0  0999 V2000
  -37.4850   61.2889   64.5485 C   0  0  0  0  0  0  0  0  0  0  0  0
  -36.9695   59.9817   65.0807 C   0  0  0  0  0  0  0  0  0  0  0  0
  -36.0657   59.5191   64.0549 O   0  0  0  0  0  0  0  0  0  0  0  0
  -35.4591   57.4521   63.4560 O   0  0  0  0  0  0  0  0  0  0  0  0
  -36.2971   58.3082   63.5469 C   0  0  0  0  0  0  0  0  0  0  0  0
  -37.7527   58.1229   63.2277 C   0  0  0  0  0  0  0  0  0  0  0  0
  -38.0175   57.5714   61.8370 C   0  0  0  0  0  0  0  0  0  0  0  0
  -37.4909   58.4717   60.7393 C   0  0  0  0  0  0  0  0  0  0  0  0
  -38.4543   58.6783   59.5925 C   0  0  0  0  0  0  0  0  0  0  0  0
  -39.2785   59.9423   59.7304 C   0  0  0  0  0  0  0  0  0  0  0  0
  -40.7656   59.6854   59.7237 C   0  0  0  0  0  0  0  0  0  0  0  0
  -41.1131   58.2472   59.4433 C   0  0  0  0  0  0  0  0  0  0  0  0
  -41.7051   57.5292   60.6358 C   0  0  0  0  0  0  0  0  0  0  0  0
  -41.2541   56.0858   60.7329 C   0  0  0  0  0  0  0  0  0  0  0  0
  -41.3059   55.5152   62.1347 C   0  0  0  0  0  0  0  0  0  0  0  0
  -41.2023   56.5679   63.2325 C   0  0  0  0  0  0  0  0  0  0  0  0
  -42.4136   56.6299   64.1430 C   0  0  0  0  0  0  0  0  0  0  0  0
  -42.1782   57.4357   65.4040 C   0  0  0  0  0  0  0  0  0  0  0  0
  -43.4584   57.9506   66.0471 C   0  0  0  0  0  0  0  0  0  0  0  0
  -44.6829   57.1160   65.7166 C   0  0  0  0  0  0  0  0  0  0  0  0
  -45.9571   57.8433   67.7617 C   0  0  0  0  0  0  0  0  0  0  0  0
  -45.9891   57.6620   66.2611 C   0  0  0  0  0  0  0  0  0  0  0  0
  -36.8135   62.4700   65.2010 C   0  0  0  0  0  0  0  0  0  0  0  0
  -36.0319   63.1687   64.2063 O   0  0  0  0  0  0  0  0  0  0  0  0
  -34.4715   62.8939   63.9795 P   0  0  0  0  0  0  0  0  0  0  0  0
  -33.8254   62.7995   65.3063 O   0  0  0  0  0  0  0  0  0  0  0  0
  -34.3351   61.7563   63.0383 O   0  0  0  0  0  0  0  0  0  0  0  0
  -34.6686   60.9477   63.4579 H   0  0  0  0  0  0  0  0  0  0  0  0
  -33.9138   64.1996   63.2535 O   0  0  0  0  0  0  0  0  0  0  0  0
  -33.7279   64.2062   61.8233 C   0  0  0  0  0  0  0  0  0  0  0  0
  -35.9619   63.6883   61.1283 O   0  0  0  0  0  0  0  0  0  0  0  0
  -34.9875   64.7346   61.1823 C   0  0  0  0  0  0  0  0  0  0  0  0
  -35.5919   62.9259   60.6562 H   0  0  0  0  0  0  0  0  0  0  0  0
  -36.6854   65.5615   62.6828 O   0  0  0  0  0  0  0  0  0  0  0  0
  -35.5472   65.9304   61.9146 C   0  0  0  0  0  0  0  0  0  0  0  0
  -37.0301   66.3415   63.1451 H   0  0  0  0  0  0  0  0  0  0  0  0
  -38.9390   61.3216   64.7345 O   0  0  0  0  0  0  0  0  0  0  0  0
  -39.3418   61.2322   62.5231 O   0  0  0  0  0  0  0  0  0  0  0  0
  -39.6988   61.0524   63.6555 C   0  0  0  0  0  0  0  0  0  0  0  0
  -41.0317   60.4860   64.0356 C   0  0  0  0  0  0  0  0  0  0  0  0
  -41.9982   60.4911   62.8555 C   0  0  0  0  0  0  0  0  0  0  0  0
  -43.2898   61.2472   63.1200 C   0  0  0  0  0  0  0  0  0  0  0  0
  -43.5250   61.5558   64.5941 C   0  0  0  0  0  0  0  0  0  0  0  0
  -44.7489   60.8760   65.1791 C   0  0  0  0  0  0  0  0  0  0  0  0
  -45.9623   60.8365   64.2458 C   0  0  0  0  0  0  0  0  0  0  0  0
  -47.2854   60.4545   64.9130 C   0  0  0  0  0  0  0  0  0  0  0  0
  -48.4663   61.0535   64.2099 C   0  0  0  0  0  0  0  0  0  0  0  0
  -49.3470   60.4138   63.4652 C   0  0  0  0  0  0  0  0  0  0  0  0
  -49.3518   58.9478   63.1669 C   0  0  0  0  0  0  0  0  0  0  0  0
  -50.7297   58.4430   62.7489 C   0  0  0  0  0  0  0  0  0  0  0  0
  -50.7575   57.8250   61.3619 C   0  0  0  0  0  0  0  0  0  0  0  0
  -49.4435   57.1811   60.9547 C   0  0  0  0  0  0  0  0  0  0  0  0
  -49.2155   57.1101   59.4539 C   0  0  0  0  0  0  0  0  0  0  0  0
  -47.7598   56.8884   59.0723 C   0  0  0  0  0  0  0  0  0  0  0  0
  -47.2498   57.8242   57.9944 C   0  0  0  0  0  0  0  0  0  0  0  0
  -47.8942   57.5789   56.6587 C   0  0  0  0  0  0  0  0  0  0  0  0
 21 22  1  0  0  0
  4  5  2  0  0  0
 25 24  1  0  0  0
 25 26  2  0  0  0
 25 27  1  0  0  0
 25 29  1  0  0  0
 22 20  1  0  0  0
  3  5  1  0  0  0
  3  2  1  0  0  0
 20 19  1  0  0  0
 24 23  1  0  0  0
 19 18  1  0  0  0
 18 17  1  0  0  0
 27 28  1  0  0  0
 17 16  1  0  0  0
 29 30  1  0  0  0
 16 15  1  0  0  0
 34 35  1  0  0  0
 34 36  1  0  0  0
 15 14  1  0  0  0
 31 32  1  0  0  0
 31 33  1  0  0  0
 14 13  1  0  0  0
 37  1  1  0  0  0
 37 39  1  0  0  0
 13 12  1  0  0  0
 38 39  2  0  0  0
 12 11  1  0  0  0
 11 10  1  0  0  0
 10  9  1  0  0  0
  9  8  1  0  0  0
  8  7  1  0  0  0
  7  6  1  0  0  0
  6  5  1  0  0  0
  2  1  1  0  0  0
  1 23  1  0  0  0
 30 32  1  0  0  0
 32 35  1  0  0  0
 39 40  1  0  0  0
 40 41  1  0  0  0
 41 42  1  0  0  0
 42 43  1  0  0  0
 43 44  1  0  0  0
 44 45  1  0  0  0
 45 46  1  0  0  0
 46 47  1  0  0  0
 47 48  2  0  0  0
 48 49  1  0  0  0
 49 50  1  0  0  0
 50 51  1  0  0  0
 51 52  1  0  0  0
 52 53  1  0  0  0
 53 54  1  0  0  0
 54 55  1  0  0  0
 55 56  1  0  0  0
M  CHG 1  26  -1
M  END
> <minimizedAffinity>
-8.08769

> <CNNscore>
0.3365501761

> <CNNaffinity>
7.6801514626

> <CNN_VS>
2.5847563744

> <CNNaffinity_variance>
0.7208276987

$$$$
/media/chris/experiments/cd1a-new-docking/inputs/ligands/7sh4_ligand.pdb


 56 55  0  0  0  0  0  0  0  0999 V2000
  -37.2030   60.7771   65.2686 C   0  0  0  0  0  0  0  0  0  0  0  0
  -38.3474   60.7456   66.2418 C   0  0  0  0  0  0  0  0  0  0  0  0
  -39.5181   60.6627   65.4017 O   0  0  0  0  0  0  0  0  0  0  0  0
  -41.2717   61.5234   66.4893 O   0  0  0  0  0  0  0  0  0  0  0  0
  -40.6982   60.5794   66.0166 C   0  0  0  0  0  0  0  0  0  0  0  0
  -41.2604   59.1899   65.9261 C   0  0  0  0  0  0  0  0  0  0  0  0
  -42.7630   59.1135   66.1378 C   0  0  0  0  0  0  0  0  0  0  0  0
  -43.3148   57.7195   65.9252 C   0  0  0  0  0  0  0  0  0  0  0  0
  -44.7292   57.6881   65.3919 C   0  0  0  0  0  0  0  0  0  0  0  0
  -45.7761   57.8261   66.4786 C   0  0  0  0  0  0  0  0  0  0  0  0
  -46.8168   58.8749   66.1710 C   0  0  0  0  0  0  0  0  0  0  0  0
  -47.3304   58.7975   64.7575 C   0  0  0  0  0  0  0  0  0  0  0  0
  -48.7976   59.1435   64.6321 C   0  0  0  0  0  0  0  0  0  0  0  0
  -49.0427   60.3360   63.7299 C   0  0  0  0  0  0  0  0  0  0  0  0
  -50.2366   60.1809   62.8113 C   0  0  0  0  0  0  0  0  0  0  0  0
  -50.9133   58.8181   62.9054 C   0  0  0  0  0  0  0  0  0  0  0  0
  -50.8432   58.0057   61.6266 C   0  0  0  0  0  0  0  0  0  0  0  0
  -49.4815   57.3901   61.3784 C   0  0  0  0  0  0  0  0  0  0  0  0
  -49.2820   56.9060   59.9489 C   0  0  0  0  0  0  0  0  0  0  0  0
  -47.9229   57.2592   59.3717 C   0  0  0  0  0  0  0  0  0  0  0  0
  -47.0536   58.1378   57.1791 C   0  0  0  0  0  0  0  0  0  0  0  0
  -47.9335   58.4060   58.3790 C   0  0  0  0  0  0  0  0  0  0  0  0
  -37.6092   61.3507   63.9353 C   0  0  0  0  0  0  0  0  0  0  0  0
  -37.5596   62.7928   64.0149 O   0  0  0  0  0  0  0  0  0  0  0  0
  -36.3628   63.6550   63.3937 P   0  0  0  0  0  0  0  0  0  0  0  0
  -36.0500   63.1073   62.0561 O   0  0  0  0  0  0  0  0  0  0  0  0
  -36.7184   65.0898   63.5105 O   0  0  0  0  0  0  0  0  0  0  0  0
  -37.4804   65.2814   62.9417 H   0  0  0  0  0  0  0  0  0  0  0  0
  -35.1096   63.3823   64.3413 O   0  0  0  0  0  0  0  0  0  0  0  0
  -34.6486   64.4103   65.2417 C   0  0  0  0  0  0  0  0  0  0  0  0
  -36.7238   64.4543   66.4393 O   0  0  0  0  0  0  0  0  0  0  0  0
  -35.3209   64.2091   66.5775 C   0  0  0  0  0  0  0  0  0  0  0  0
  -36.8625   65.3444   66.0796 H   0  0  0  0  0  0  0  0  0  0  0  0
  -33.9770   62.2077   66.4978 O   0  0  0  0  0  0  0  0  0  0  0  0
  -35.0864   62.8264   67.1367 C   0  0  0  0  0  0  0  0  0  0  0  0
  -33.8423   61.3220   66.8699 H   0  0  0  0  0  0  0  0  0  0  0  0
  -36.6740   59.4162   65.1342 O   0  0  0  0  0  0  0  0  0  0  0  0
  -34.6192   60.0571   64.4806 O   0  0  0  0  0  0  0  0  0  0  0  0
  -35.5274   59.2724   64.4425 C   0  0  0  0  0  0  0  0  0  0  0  0
  -35.5133   58.0105   63.6367 C   0  0  0  0  0  0  0  0  0  0  0  0
  -36.2596   58.1815   62.3175 C   0  0  0  0  0  0  0  0  0  0  0  0
  -37.5763   57.4251   62.2517 C   0  0  0  0  0  0  0  0  0  0  0  0
  -38.7636   58.2205   62.7818 C   0  0  0  0  0  0  0  0  0  0  0  0
  -39.7782   57.3837   63.5386 C   0  0  0  0  0  0  0  0  0  0  0  0
  -41.0445   57.0476   62.7458 C   0  0  0  0  0  0  0  0  0  0  0  0
  -40.8062   56.3852   61.3872 C   0  0  0  0  0  0  0  0  0  0  0  0
  -41.6004   57.0356   60.2945 C   0  0  0  0  0  0  0  0  0  0  0  0
  -41.1821   57.9763   59.4702 C   0  0  0  0  0  0  0  0  0  0  0  0
  -39.8190   58.5925   59.4528 C   0  0  0  0  0  0  0  0  0  0  0  0
  -39.8447   60.0739   59.8177 C   0  0  0  0  0  0  0  0  0  0  0  0
  -40.8909   60.4265   60.8606 C   0  0  0  0  0  0  0  0  0  0  0  0
  -41.8381   61.5311   60.4252 C   0  0  0  0  0  0  0  0  0  0  0  0
  -42.5995   62.1923   61.5621 C   0  0  0  0  0  0  0  0  0  0  0  0
  -42.7005   61.3257   62.8080 C   0  0  0  0  0  0  0  0  0  0  0  0
  -43.4781   61.9587   63.9448 C   0  0  0  0  0  0  0  0  0  0  0  0
  -44.8226   61.3205   64.1559 C   0  0  0  0  0  0  0  0  0  0  0  0
 21 22  1  0  0  0
  4  5  2  0  0  0
 25 24  1  0  0  0
 25 26  2  0  0  0
 25 27  1  0  0  0
 25 29  1  0  0  0
 22 20  1  0  0  0
  3  5  1  0  0  0
  3  2  1  0  0  0
 20 19  1  0  0  0
 24 23  1  0  0  0
 19 18  1  0  0  0
 18 17  1  0  0  0
 27 28  1  0  0  0
 17 16  1  0  0  0
 29 30  1  0  0  0
 16 15  1  0  0  0
 34 35  1  0  0  0
 34 36  1  0  0  0
 15 14  1  0  0  0
 31 32  1  0  0  0
 31 33  1  0  0  0
 14 13  1  0  0  0
 37  1  1  0  0  0
 37 39  1  0  0  0
 13 12  1  0  0  0
 38 39  2  0  0  0
 12 11  1  0  0  0
 11 10  1  0  0  0
 10  9  1  0  0  0
  9  8  1  0  0  0
  8  7  1  0  0  0
  7  6  1  0  0  0
  6  5  1  0  0  0
  2  1  1  0  0  0
  1 23  1  0  0  0
 30 32  1  0  0  0
 32 35  1  0  0  0
 39 40  1  0  0  0
 40 41  1  0  0  0
 41 42  1  0  0  0
 42 43  1  0  0  0
 43 44  1  0  0  0
 44 45  1  0  0  0
 45 46  1  0  0  0
 46 47  1  0  0  0
 47 48  2  0  0  0
 48 49  1  0  0  0
 49 50  1  0  0  0
 50 51  1  0  0  0
 51 52  1  0  0  0
 52 53  1  0  0  0
 53 54  1  0  0  0
 54 55  1  0  0  0
 55 56  1  0  0  0
M  CHG 1  26  -1
M  END
> <minimizedAffinity>
-8.33756

> <CNNscore>
0.2677198648

> <CNNaffinity>
7.5048074722

> <CNN_VS>
2.0091860294

> <CNNaffinity_variance>
1.7935733795

$$$$
/media/chris/experiments/cd1a-new-docking/inputs/ligands/7sh4_ligand.pdb


 56 55  0  0  0  0  0  0  0  0999 V2000
  -36.3843   63.0832   64.6612 C   0  0  0  0  0  0  0  0  0  0  0  0
  -35.4366   63.3025   63.5159 C   0  0  0  0  0  0  0  0  0  0  0  0
  -34.4924   62.2171   63.6313 O   0  0  0  0  0  0  0  0  0  0  0  0
  -33.3007   63.0533   61.9343 O   0  0  0  0  0  0  0  0  0  0  0  0
  -33.4715   62.2107   62.7735 C   0  0  0  0  0  0  0  0  0  0  0  0
  -32.5134   61.0954   63.0787 C   0  0  0  0  0  0  0  0  0  0  0  0
  -32.9290   59.7481   62.5127 C   0  0  0  0  0  0  0  0  0  0  0  0
  -32.5031   58.5881   63.3878 C   0  0  0  0  0  0  0  0  0  0  0  0
  -33.1173   58.5966   64.7694 C   0  0  0  0  0  0  0  0  0  0  0  0
  -34.6073   58.8718   64.7546 C   0  0  0  0  0  0  0  0  0  0  0  0
  -35.4432   57.6154   64.7375 C   0  0  0  0  0  0  0  0  0  0  0  0
  -36.6718   57.7378   63.8753 C   0  0  0  0  0  0  0  0  0  0  0  0
  -36.4387   58.5276   62.6065 C   0  0  0  0  0  0  0  0  0  0  0  0
  -37.6801   58.6283   61.7433 C   0  0  0  0  0  0  0  0  0  0  0  0
  -38.3893   57.3084   61.5244 C   0  0  0  0  0  0  0  0  0  0  0  0
  -39.7414   57.2125   62.2219 C   0  0  0  0  0  0  0  0  0  0  0  0
  -40.8921   56.8783   61.2921 C   0  0  0  0  0  0  0  0  0  0  0  0
  -41.4912   58.0938   60.6148 C   0  0  0  0  0  0  0  0  0  0  0  0
  -41.5334   59.3289   61.5037 C   0  0  0  0  0  0  0  0  0  0  0  0
  -41.1499   60.6094   60.7836 C   0  0  0  0  0  0  0  0  0  0  0  0
  -42.7099   61.8055   62.3556 C   0  0  0  0  0  0  0  0  0  0  0  0
  -42.1284   61.7548   60.9609 C   0  0  0  0  0  0  0  0  0  0  0  0
  -35.7822   63.4934   65.9806 C   0  0  0  0  0  0  0  0  0  0  0  0
  -34.6863   64.4015   65.7297 O   0  0  0  0  0  0  0  0  0  0  0  0
  -33.3537   64.4185   66.6161 P   0  0  0  0  0  0  0  0  0  0  0  0
  -33.1890   65.7800   67.1693 O   0  0  0  0  0  0  0  0  0  0  0  0
  -33.4080   63.2706   67.5531 O   0  0  0  0  0  0  0  0  0  0  0  0
  -34.1279   63.4060   68.1890 H   0  0  0  0  0  0  0  0  0  0  0  0
  -32.1609   64.1575   65.5904 O   0  0  0  0  0  0  0  0  0  0  0  0
  -31.0460   65.0707   65.5329 C   0  0  0  0  0  0  0  0  0  0  0  0
  -30.8303   64.2553   63.2900 O   0  0  0  0  0  0  0  0  0  0  0  0
  -30.8089   65.4415   64.0897 C   0  0  0  0  0  0  0  0  0  0  0  0
  -30.1747   63.6255   63.6282 H   0  0  0  0  0  0  0  0  0  0  0  0
  -33.0740   65.7977   63.3411 O   0  0  0  0  0  0  0  0  0  0  0  0
  -31.8246   66.4340   63.5768 C   0  0  0  0  0  0  0  0  0  0  0  0
  -33.7123   66.4502   63.0127 H   0  0  0  0  0  0  0  0  0  0  0  0
  -36.7862   61.6732   64.6642 O   0  0  0  0  0  0  0  0  0  0  0  0
  -38.6014   61.8296   63.3447 O   0  0  0  0  0  0  0  0  0  0  0  0
  -38.0617   61.4011   64.3282 C   0  0  0  0  0  0  0  0  0  0  0  0
  -38.7189   60.4875   65.3158 C   0  0  0  0  0  0  0  0  0  0  0  0
  -40.0180   59.9093   64.7637 C   0  0  0  0  0  0  0  0  0  0  0  0
  -41.0843   59.6705   65.8200 C   0  0  0  0  0  0  0  0  0  0  0  0
  -42.2274   60.6778   65.7712 C   0  0  0  0  0  0  0  0  0  0  0  0
  -43.6008   60.0620   65.9628 C   0  0  0  0  0  0  0  0  0  0  0  0
  -44.6903   60.6409   65.0557 C   0  0  0  0  0  0  0  0  0  0  0  0
  -45.9778   59.8178   64.9767 C   0  0  0  0  0  0  0  0  0  0  0  0
  -47.0910   60.5725   64.3140 C   0  0  0  0  0  0  0  0  0  0  0  0
  -48.2684   60.0924   63.9638 C   0  0  0  0  0  0  0  0  0  0  0  0
  -48.7416   58.6865   64.1577 C   0  0  0  0  0  0  0  0  0  0  0  0
  -50.2278   58.5248   63.8521 C   0  0  0  0  0  0  0  0  0  0  0  0
  -50.6668   59.2208   62.5757 C   0  0  0  0  0  0  0  0  0  0  0  0
  -50.3774   58.4234   61.3158 C   0  0  0  0  0  0  0  0  0  0  0  0
  -49.1973   58.9330   60.5052 C   0  0  0  0  0  0  0  0  0  0  0  0
  -49.1380   58.3616   59.0967 C   0  0  0  0  0  0  0  0  0  0  0  0
  -47.8247   57.6870   58.7538 C   0  0  0  0  0  0  0  0  0  0  0  0
  -47.2619   58.1452   57.4375 C   0  0  0  0  0  0  0  0  0  0  0  0
 21 22  1  0  0  0
  4  5  2  0  0  0
 25 24  1  0  0  0
 25 26  2  0  0  0
 25 27  1  0  0  0
 25 29  1  0  0  0
 22 20  1  0  0  0
  3  5  1  0  0  0
  3  2  1  0  0  0
 20 19  1  0  0  0
 24 23  1  0  0  0
 19 18  1  0  0  0
 18 17  1  0  0  0
 27 28  1  0  0  0
 17 16  1  0  0  0
 29 30  1  0  0  0
 16 15  1  0  0  0
 34 35  1  0  0  0
 34 36  1  0  0  0
 15 14  1  0  0  0
 31 32  1  0  0  0
 31 33  1  0  0  0
 14 13  1  0  0  0
 37  1  1  0  0  0
 37 39  1  0  0  0
 13 12  1  0  0  0
 38 39  2  0  0  0
 12 11  1  0  0  0
 11 10  1  0  0  0
 10  9  1  0  0  0
  9  8  1  0  0  0
  8  7  1  0  0  0
  7  6  1  0  0  0
  6  5  1  0  0  0
  2  1  1  0  0  0
  1 23  1  0  0  0
 30 32  1  0  0  0
 32 35  1  0  0  0
 39 40  1  0  0  0
 40 41  1  0  0  0
 41 42  1  0  0  0
 42 43  1  0  0  0
 43 44  1  0  0  0
 44 45  1  0  0  0
 45 46  1  0  0  0
 46 47  1  0  0  0
 47 48  2  0  0  0
 48 49  1  0  0  0
 49 50  1  0  0  0
 50 51  1  0  0  0
 51 52  1  0  0  0
 52 53  1  0  0  0
 53 54  1  0  0  0
 54 55  1  0  0  0
 55 56  1  0  0  0
M  CHG 1  26  -1
M  END
> <minimizedAffinity>
-7.95172

> <CNNscore>
0.2667718530

> <CNNaffinity>
7.0221204758

> <CNN_VS>
1.8733041286

> <CNNaffinity_variance>
1.0623949766

$$$$
/media/chris/experiments/cd1a-new-docking/inputs/ligands/7sh4_ligand.pdb


 56 55  0  0  0  0  0  0  0  0999 V2000
  -40.6135   59.9492   64.8665 C   0  0  0  0  0  0  0  0  0  0  0  0
  -41.5137   59.0246   65.6362 C   0  0  0  0  0  0  0  0  0  0  0  0
  -42.2604   58.3325   64.6132 O   0  0  0  0  0  0  0  0  0  0  0  0
  -42.0225   56.1713   65.1344 O   0  0  0  0  0  0  0  0  0  0  0  0
  -42.7260   57.1213   64.9200 C   0  0  0  0  0  0  0  0  0  0  0  0
  -44.2187   57.1390   65.0826 C   0  0  0  0  0  0  0  0  0  0  0  0
  -44.6985   57.8614   66.3301 C   0  0  0  0  0  0  0  0  0  0  0  0
  -46.1786   57.6698   66.5857 C   0  0  0  0  0  0  0  0  0  0  0  0
  -47.0700   58.1859   65.4788 C   0  0  0  0  0  0  0  0  0  0  0  0
  -46.9583   59.6834   65.2766 C   0  0  0  0  0  0  0  0  0  0  0  0
  -48.2892   60.3921   65.3387 C   0  0  0  0  0  0  0  0  0  0  0  0
  -49.3969   59.5188   65.8662 C   0  0  0  0  0  0  0  0  0  0  0  0
  -50.7731   59.9586   65.4182 C   0  0  0  0  0  0  0  0  0  0  0  0
  -50.8895   60.0728   63.9117 C   0  0  0  0  0  0  0  0  0  0  0  0
  -50.7461   58.7553   63.1791 C   0  0  0  0  0  0  0  0  0  0  0  0
  -49.6257   58.7439   62.1454 C   0  0  0  0  0  0  0  0  0  0  0  0
  -49.7070   57.5929   61.1611 C   0  0  0  0  0  0  0  0  0  0  0  0
  -50.2492   57.9972   59.8056 C   0  0  0  0  0  0  0  0  0  0  0  0
  -49.2500   57.8196   58.6709 C   0  0  0  0  0  0  0  0  0  0  0  0
  -48.1266   56.8516   58.9964 C   0  0  0  0  0  0  0  0  0  0  0  0
  -46.9761   58.1975   57.2074 C   0  0  0  0  0  0  0  0  0  0  0  0
  -46.8787   57.0198   58.1506 C   0  0  0  0  0  0  0  0  0  0  0  0
  -39.2415   60.0465   65.4827 C   0  0  0  0  0  0  0  0  0  0  0  0
  -38.7663   61.4046   65.3481 O   0  0  0  0  0  0  0  0  0  0  0  0
  -37.2432   61.8206   65.6106 P   0  0  0  0  0  0  0  0  0  0  0  0
  -36.9905   61.7393   67.0654 O   0  0  0  0  0  0  0  0  0  0  0  0
  -36.3849   61.0328   64.6935 O   0  0  0  0  0  0  0  0  0  0  0  0
  -36.4286   60.0945   64.9357 H   0  0  0  0  0  0  0  0  0  0  0  0
  -37.1435   63.3527   65.1798 O   0  0  0  0  0  0  0  0  0  0  0  0
  -35.8852   64.0502   65.2808 C   0  0  0  0  0  0  0  0  0  0  0  0
  -34.4490   63.0890   63.6207 O   0  0  0  0  0  0  0  0  0  0  0  0
  -35.3106   64.1981   63.8934 C   0  0  0  0  0  0  0  0  0  0  0  0
  -33.7649   63.0347   64.3064 H   0  0  0  0  0  0  0  0  0  0  0  0
  -36.6382   63.0237   62.2574 O   0  0  0  0  0  0  0  0  0  0  0  0
  -36.3826   64.2976   62.8348 C   0  0  0  0  0  0  0  0  0  0  0  0
  -37.3284   63.1078   61.5810 H   0  0  0  0  0  0  0  0  0  0  0  0
  -41.2633   61.2609   64.7814 O   0  0  0  0  0  0  0  0  0  0  0  0
  -43.0177   62.1507   63.6903 O   0  0  0  0  0  0  0  0  0  0  0  0
  -42.0056   61.5045   63.6843 C   0  0  0  0  0  0  0  0  0  0  0  0
  -41.4091   60.8901   62.4561 C   0  0  0  0  0  0  0  0  0  0  0  0
  -42.0186   61.4753   61.1861 C   0  0  0  0  0  0  0  0  0  0  0  0
  -41.2745   61.0991   59.9154 C   0  0  0  0  0  0  0  0  0  0  0  0
  -40.1553   60.0889   60.1404 C   0  0  0  0  0  0  0  0  0  0  0  0
  -40.0891   58.9972   59.0886 C   0  0  0  0  0  0  0  0  0  0  0  0
  -40.8540   57.7201   59.4476 C   0  0  0  0  0  0  0  0  0  0  0  0
  -41.4535   57.6934   60.8551 C   0  0  0  0  0  0  0  0  0  0  0  0
  -40.8606   56.6069   61.7012 C   0  0  0  0  0  0  0  0  0  0  0  0
  -39.7500   56.6777   62.4090 C   0  0  0  0  0  0  0  0  0  0  0  0
  -38.8462   57.8650   62.5168 C   0  0  0  0  0  0  0  0  0  0  0  0
  -37.3822   57.5062   62.2791 C   0  0  0  0  0  0  0  0  0  0  0  0
  -36.4769   57.8297   63.4547 C   0  0  0  0  0  0  0  0  0  0  0  0
  -34.9994   57.8374   63.1027 C   0  0  0  0  0  0  0  0  0  0  0  0
  -34.0905   58.3422   64.2111 C   0  0  0  0  0  0  0  0  0  0  0  0
  -33.3364   59.6115   63.8451 C   0  0  0  0  0  0  0  0  0  0  0  0
  -32.6036   59.5396   62.5202 C   0  0  0  0  0  0  0  0  0  0  0  0
  -31.1333   59.8228   62.6528 C   0  0  0  0  0  0  0  0  0  0  0  0
 21 22  1  0  0  0
  4  5  2  0  0  0
 25 24  1  0  0  0
 25 26  2  0  0  0
 25 27  1  0  0  0
 25 29  1  0  0  0
 22 20  1  0  0  0
  3  5  1  0  0  0
  3  2  1  0  0  0
 20 19  1  0  0  0
 24 23  1  0  0  0
 19 18  1  0  0  0
 18 17  1  0  0  0
 27 28  1  0  0  0
 17 16  1  0  0  0
 29 30  1  0  0  0
 16 15  1  0  0  0
 34 35  1  0  0  0
 34 36  1  0  0  0
 15 14  1  0  0  0
 31 32  1  0  0  0
 31 33  1  0  0  0
 14 13  1  0  0  0
 37  1  1  0  0  0
 37 39  1  0  0  0
 13 12  1  0  0  0
 38 39  2  0  0  0
 12 11  1  0  0  0
 11 10  1  0  0  0
 10  9  1  0  0  0
  9  8  1  0  0  0
  8  7  1  0  0  0
  7  6  1  0  0  0
  6  5  1  0  0  0
  2  1  1  0  0  0
  1 23  1  0  0  0
 30 32  1  0  0  0
 32 35  1  0  0  0
 39 40  1  0  0  0
 40 41  1  0  0  0
 41 42  1  0  0  0
 42 43  1  0  0  0
 43 44  1  0  0  0
 44 45  1  0  0  0
 45 46  1  0  0  0
 46 47  1  0  0  0
 47 48  2  0  0  0
 48 49  1  0  0  0
 49 50  1  0  0  0
 50 51  1  0  0  0
 51 52  1  0  0  0
 52 53  1  0  0  0
 53 54  1  0  0  0
 54 55  1  0  0  0
 55 56  1  0  0  0
M  CHG 1  26  -1
M  END
> <minimizedAffinity>
-8.21277

> <CNNscore>
0.2341033369

> <CNNaffinity>
7.3845338821

> <CNN_VS>
1.7287440300

> <CNNaffinity_variance>
1.6337391138

$$$$
/media/chris/experiments/cd1a-new-docking/inputs/ligands/7sh4_ligand.pdb


 56 55  0  0  0  0  0  0  0  0999 V2000
  -36.8064   61.7176   63.4114 C   0  0  0  0  0  0  0  0  0  0  0  0
  -36.0331   60.6785   64.1729 C   0  0  0  0  0  0  0  0  0  0  0  0
  -35.7040   59.6879   63.1762 O   0  0  0  0  0  0  0  0  0  0  0  0
  -35.1686   57.6522   63.9298 O   0  0  0  0  0  0  0  0  0  0  0  0
  -35.9755   58.4171   63.4746 C   0  0  0  0  0  0  0  0  0  0  0  0
  -37.4344   58.1152   63.2861 C   0  0  0  0  0  0  0  0  0  0  0  0
  -37.7815   57.5633   61.9138 C   0  0  0  0  0  0  0  0  0  0  0  0
  -37.4983   58.5466   60.7977 C   0  0  0  0  0  0  0  0  0  0  0  0
  -38.4145   58.4079   59.6030 C   0  0  0  0  0  0  0  0  0  0  0  0
  -39.4809   59.4827   59.5452 C   0  0  0  0  0  0  0  0  0  0  0  0
  -40.8731   58.9291   59.3633 C   0  0  0  0  0  0  0  0  0  0  0  0
  -40.9782   57.4709   59.7243 C   0  0  0  0  0  0  0  0  0  0  0  0
  -41.5890   57.2324   61.0874 C   0  0  0  0  0  0  0  0  0  0  0  0
  -41.3755   55.8171   61.5849 C   0  0  0  0  0  0  0  0  0  0  0  0
  -41.1248   55.7171   63.0749 C   0  0  0  0  0  0  0  0  0  0  0  0
  -40.8634   57.0602   63.7472 C   0  0  0  0  0  0  0  0  0  0  0  0
  -41.7861   57.3551   64.9141 C   0  0  0  0  0  0  0  0  0  0  0  0
  -43.1050   56.6133   64.8410 C   0  0  0  0  0  0  0  0  0  0  0  0
  -44.3140   57.4864   65.1469 C   0  0  0  0  0  0  0  0  0  0  0  0
  -44.5158   57.7475   66.6288 C   0  0  0  0  0  0  0  0  0  0  0  0
  -46.8794   57.0617   66.1010 C   0  0  0  0  0  0  0  0  0  0  0  0
  -45.9642   57.7627   67.0792 C   0  0  0  0  0  0  0  0  0  0  0  0
  -36.2274   63.0977   63.5893 C   0  0  0  0  0  0  0  0  0  0  0  0
  -35.1984   63.3021   62.5954 O   0  0  0  0  0  0  0  0  0  0  0  0
  -33.7681   63.9299   62.9442 P   0  0  0  0  0  0  0  0  0  0  0  0
  -32.7820   63.3827   61.9876 O   0  0  0  0  0  0  0  0  0  0  0  0
  -33.9220   65.4013   63.0451 O   0  0  0  0  0  0  0  0  0  0  0  0
  -34.1434   65.7637   62.1730 H   0  0  0  0  0  0  0  0  0  0  0  0
  -33.4055   63.3749   64.3945 O   0  0  0  0  0  0  0  0  0  0  0  0
  -33.5539   64.2248   65.5502 C   0  0  0  0  0  0  0  0  0  0  0  0
  -33.2833   63.3868   67.7789 O   0  0  0  0  0  0  0  0  0  0  0  0
  -34.1753   63.4137   66.6605 C   0  0  0  0  0  0  0  0  0  0  0  0
  -32.4222   63.0399   67.4973 H   0  0  0  0  0  0  0  0  0  0  0  0
  -36.1373   63.0838   68.0243 O   0  0  0  0  0  0  0  0  0  0  0  0
  -35.5219   63.9517   67.0812 C   0  0  0  0  0  0  0  0  0  0  0  0
  -36.9996   63.4456   68.2821 H   0  0  0  0  0  0  0  0  0  0  0  0
  -38.2068   61.6582   63.8419 O   0  0  0  0  0  0  0  0  0  0  0  0
  -38.9473   61.3565   61.7393 O   0  0  0  0  0  0  0  0  0  0  0  0
  -39.1112   61.2634   62.9252 C   0  0  0  0  0  0  0  0  0  0  0  0
  -40.3347   60.6789   63.5603 C   0  0  0  0  0  0  0  0  0  0  0  0
  -41.4761   60.5467   62.5572 C   0  0  0  0  0  0  0  0  0  0  0  0
  -42.8553   60.5066   63.1946 C   0  0  0  0  0  0  0  0  0  0  0  0
  -42.8545   60.8760   64.6735 C   0  0  0  0  0  0  0  0  0  0  0  0
  -44.2396   61.0746   65.2604 C   0  0  0  0  0  0  0  0  0  0  0  0
  -45.3624   61.1723   64.2237 C   0  0  0  0  0  0  0  0  0  0  0  0
  -46.6357   60.3962   64.5670 C   0  0  0  0  0  0  0  0  0  0  0  0
  -47.8421   60.9551   63.8739 C   0  0  0  0  0  0  0  0  0  0  0  0
  -48.8355   60.2674   63.3455 C   0  0  0  0  0  0  0  0  0  0  0  0
  -48.9671   58.7772   63.3291 C   0  0  0  0  0  0  0  0  0  0  0  0
  -50.2965   58.3162   62.7387 C   0  0  0  0  0  0  0  0  0  0  0  0
  -50.2804   58.1907   61.2253 C   0  0  0  0  0  0  0  0  0  0  0  0
  -49.6630   56.8954   60.7272 C   0  0  0  0  0  0  0  0  0  0  0  0
  -48.6628   57.0685   59.5963 C   0  0  0  0  0  0  0  0  0  0  0  0
  -48.5869   58.4927   59.0676 C   0  0  0  0  0  0  0  0  0  0  0  0
  -47.6148   58.6792   57.9196 C   0  0  0  0  0  0  0  0  0  0  0  0
  -46.9874   57.3881   57.4734 C   0  0  0  0  0  0  0  0  0  0  0  0
 21 22  1  0  0  0
  4  5  2  0  0  0
 25 24  1  0  0  0
 25 26  2  0  0  0
 25 27  1  0  0  0
 25 29  1  0  0  0
 22 20  1  0  0  0
  3  5  1  0  0  0
  3  2  1  0  0  0
 20 19  1  0  0  0
 24 23  1  0  0  0
 19 18  1  0  0  0
 18 17  1  0  0  0
 27 28  1  0  0  0
 17 16  1  0  0  0
 29 30  1  0  0  0
 16 15  1  0  0  0
 34 35  1  0  0  0
 34 36  1  0  0  0
 15 14  1  0  0  0
 31 32  1  0  0  0
 31 33  1  0  0  0
 14 13  1  0  0  0
 37  1  1  0  0  0
 37 39  1  0  0  0
 13 12  1  0  0  0
 38 39  2  0  0  0
 12 11  1  0  0  0
 11 10  1  0  0  0
 10  9  1  0  0  0
  9  8  1  0  0  0
  8  7  1  0  0  0
  7  6  1  0  0  0
  6  5  1  0  0  0
  2  1  1  0  0  0
  1 23  1  0  0  0
 30 32  1  0  0  0
 32 35  1  0  0  0
 39 40  1  0  0  0
 40 41  1  0  0  0
 41 42  1  0  0  0
 42 43  1  0  0  0
 43 44  1  0  0  0
 44 45  1  0  0  0
 45 46  1  0  0  0
 46 47  1  0  0  0
 47 48  2  0  0  0
 48 49  1  0  0  0
 49 50  1  0  0  0
 50 51  1  0  0  0
 51 52  1  0  0  0
 52 53  1  0  0  0
 53 54  1  0  0  0
 54 55  1  0  0  0
 55 56  1  0  0  0
M  CHG 1  26  -1
M  END
> <minimizedAffinity>
-8.16131

> <CNNscore>
0.2148797214

> <CNNaffinity>
7.4822130203

> <CNN_VS>
1.6077758074

> <CNNaffinity_variance>
0.7541574240

$$$$
/media/chris/experiments/cd1a-new-docking/inputs/ligands/7sh4_ligand.pdb


 56 55  0  0  0  0  0  0  0  0999 V2000
  -38.9563   58.2648   60.5357 C   0  0  0  0  0  0  0  0  0  0  0  0
  -39.6630   57.7751   61.7680 C   0  0  0  0  0  0  0  0  0  0  0  0
  -40.6607   56.8644   61.2598 O   0  0  0  0  0  0  0  0  0  0  0  0
  -41.2341   54.9369   62.2371 O   0  0  0  0  0  0  0  0  0  0  0  0
  -41.3230   56.1324   62.1560 C   0  0  0  0  0  0  0  0  0  0  0  0
  -42.0826   57.0042   63.1141 C   0  0  0  0  0  0  0  0  0  0  0  0
  -42.3798   56.3454   64.4505 C   0  0  0  0  0  0  0  0  0  0  0  0
  -43.3903   57.1173   65.2727 C   0  0  0  0  0  0  0  0  0  0  0  0
  -44.2463   58.0688   64.4678 C   0  0  0  0  0  0  0  0  0  0  0  0
  -45.5148   58.4793   65.1877 C   0  0  0  0  0  0  0  0  0  0  0  0
  -46.4133   59.3590   64.3531 C   0  0  0  0  0  0  0  0  0  0  0  0
  -47.7790   59.5482   64.9587 C   0  0  0  0  0  0  0  0  0  0  0  0
  -48.6053   58.2814   64.9840 C   0  0  0  0  0  0  0  0  0  0  0  0
  -50.0814   58.5497   65.1965 C   0  0  0  0  0  0  0  0  0  0  0  0
  -50.6266   59.6953   64.3698 C   0  0  0  0  0  0  0  0  0  0  0  0
  -51.2372   59.2611   63.0422 C   0  0  0  0  0  0  0  0  0  0  0  0
  -50.2549   59.2495   61.8867 C   0  0  0  0  0  0  0  0  0  0  0  0
  -50.2102   57.9277   61.1478 C   0  0  0  0  0  0  0  0  0  0  0  0
  -50.2366   58.0743   59.6328 C   0  0  0  0  0  0  0  0  0  0  0  0
  -49.0158   57.4905   58.9443 C   0  0  0  0  0  0  0  0  0  0  0  0
  -47.2007   58.0346   57.2875 C   0  0  0  0  0  0  0  0  0  0  0  0
  -47.9994   58.5154   58.4778 C   0  0  0  0  0  0  0  0  0  0  0  0
  -37.4831   58.4760   60.7741 C   0  0  0  0  0  0  0  0  0  0  0  0
  -37.0744   57.6708   61.9024 O   0  0  0  0  0  0  0  0  0  0  0  0
  -36.2319   58.2605   63.1289 P   0  0  0  0  0  0  0  0  0  0  0  0
  -36.1293   59.7251   62.9519 O   0  0  0  0  0  0  0  0  0  0  0  0
  -36.8164   57.7342   64.3859 O   0  0  0  0  0  0  0  0  0  0  0  0
  -37.7086   58.0961   64.5040 H   0  0  0  0  0  0  0  0  0  0  0  0
  -34.7699   57.6434   62.9726 O   0  0  0  0  0  0  0  0  0  0  0  0
  -33.7018   58.4466   62.4303 C   0  0  0  0  0  0  0  0  0  0  0  0
  -31.6802   59.5425   63.1045 O   0  0  0  0  0  0  0  0  0  0  0  0
  -32.5705   58.4704   63.4285 C   0  0  0  0  0  0  0  0  0  0  0  0
  -31.3720   59.4418   62.1903 H   0  0  0  0  0  0  0  0  0  0  0  0
  -33.7948   59.8185   65.0102 O   0  0  0  0  0  0  0  0  0  0  0  0
  -33.0606   58.6116   64.8496 C   0  0  0  0  0  0  0  0  0  0  0  0
  -34.1008   59.8911   65.9278 H   0  0  0  0  0  0  0  0  0  0  0  0
  -39.6139   59.4953   60.0849 O   0  0  0  0  0  0  0  0  0  0  0  0
  -39.1980   60.8559   61.8274 O   0  0  0  0  0  0  0  0  0  0  0  0
  -39.9661   60.3827   61.0349 C   0  0  0  0  0  0  0  0  0  0  0  0
  -41.4232   60.7217   60.9727 C   0  0  0  0  0  0  0  0  0  0  0  0
  -42.0840   60.6007   62.3421 C   0  0  0  0  0  0  0  0  0  0  0  0
  -43.0736   61.7127   62.6494 C   0  0  0  0  0  0  0  0  0  0  0  0
  -43.6935   61.6108   64.0382 C   0  0  0  0  0  0  0  0  0  0  0  0
  -42.7203   61.8846   65.1698 C   0  0  0  0  0  0  0  0  0  0  0  0
  -42.7715   60.8678   66.3136 C   0  0  0  0  0  0  0  0  0  0  0  0
  -41.4400   60.1890   66.6422 C   0  0  0  0  0  0  0  0  0  0  0  0
  -40.7843   59.6119   65.4237 C   0  0  0  0  0  0  0  0  0  0  0  0
  -39.5235   59.7568   65.0648 C   0  0  0  0  0  0  0  0  0  0  0  0
  -38.4785   60.5307   65.8045 C   0  0  0  0  0  0  0  0  0  0  0  0
  -37.9018   61.6728   64.9731 C   0  0  0  0  0  0  0  0  0  0  0  0
  -36.7290   62.3758   65.6338 C   0  0  0  0  0  0  0  0  0  0  0  0
  -36.3379   63.6778   64.9564 C   0  0  0  0  0  0  0  0  0  0  0  0
  -36.1732   63.5786   63.4489 C   0  0  0  0  0  0  0  0  0  0  0  0
  -35.7332   64.8824   62.8007 C   0  0  0  0  0  0  0  0  0  0  0  0
  -34.2304   65.0706   62.7395 C   0  0  0  0  0  0  0  0  0  0  0  0
  -33.4895   63.7763   62.5516 C   0  0  0  0  0  0  0  0  0  0  0  0
 21 22  1  0  0  0
  4  5  2  0  0  0
 25 24  1  0  0  0
 25 26  2  0  0  0
 25 27  1  0  0  0
 25 29  1  0  0  0
 22 20  1  0  0  0
  3  5  1  0  0  0
  3  2  1  0  0  0
 20 19  1  0  0  0
 24 23  1  0  0  0
 19 18  1  0  0  0
 18 17  1  0  0  0
 27 28  1  0  0  0
 17 16  1  0  0  0
 29 30  1  0  0  0
 16 15  1  0  0  0
 34 35  1  0  0  0
 34 36  1  0  0  0
 15 14  1  0  0  0
 31 32  1  0  0  0
 31 33  1  0  0  0
 14 13  1  0  0  0
 37  1  1  0  0  0
 37 39  1  0  0  0
 13 12  1  0  0  0
 38 39  2  0  0  0
 12 11  1  0  0  0
 11 10  1  0  0  0
 10  9  1  0  0  0
  9  8  1  0  0  0
  8  7  1  0  0  0
  7  6  1  0  0  0
  6  5  1  0  0  0
  2  1  1  0  0  0
  1 23  1  0  0  0
 30 32  1  0  0  0
 32 35  1  0  0  0
 39 40  1  0  0  0
 40 41  1  0  0  0
 41 42  1  0  0  0
 42 43  1  0  0  0
 43 44  1  0  0  0
 44 45  1  0  0  0
 45 46  1  0  0  0
 46 47  1  0  0  0
 47 48  2  0  0  0
 48 49  1  0  0  0
 49 50  1  0  0  0
 50 51  1  0  0  0
 51 52  1  0  0  0
 52 53  1  0  0  0
 53 54  1  0  0  0
 54 55  1  0  0  0
 55 56  1  0  0  0
M  CHG 1  26  -1
M  END
> <minimizedAffinity>
-7.84749

> <CNNscore>
0.2039007545

> <CNNaffinity>
7.1924438477

> <CNN_VS>
1.4665447474

> <CNNaffinity_variance>
1.4103103876

$$$$
