/media/chris/experiments/cd1a-new-docking/inputs/ligands/7sh4_ligand.pdb


 56 55  0  0  0  0  0  0  0  0999 V2000
  -39.6458   60.4916   65.3232 C   0  0  0  0  0  0  0  0  0  0  0  0
  -39.6172   60.5357   63.8216 C   0  0  0  0  0  0  0  0  0  0  0  0
  -40.4170   61.6907   63.4908 O   0  0  0  0  0  0  0  0  0  0  0  0
  -42.6006   62.1515   63.6282 O   0  0  0  0  0  0  0  0  0  0  0  0
  -41.7017   61.4747   63.2069 C   0  0  0  0  0  0  0  0  0  0  0  0
  -41.8572   60.3674   62.2045 C   0  0  0  0  0  0  0  0  0  0  0  0
  -41.5534   60.7784   60.7737 C   0  0  0  0  0  0  0  0  0  0  0  0
  -40.2719   60.1670   60.2477 C   0  0  0  0  0  0  0  0  0  0  0  0
  -40.4820   58.9986   59.3116 C   0  0  0  0  0  0  0  0  0  0  0  0
  -41.3883   57.9306   59.8896 C   0  0  0  0  0  0  0  0  0  0  0  0
  -40.6384   56.8591   60.6427 C   0  0  0  0  0  0  0  0  0  0  0  0
  -40.5782   57.1144   62.1254 C   0  0  0  0  0  0  0  0  0  0  0  0
  -39.1669   57.1973   62.6635 C   0  0  0  0  0  0  0  0  0  0  0  0
  -38.1392   57.4386   61.5764 C   0  0  0  0  0  0  0  0  0  0  0  0
  -37.0205   58.3758   61.9805 C   0  0  0  0  0  0  0  0  0  0  0  0
  -36.6078   58.2480   63.4424 C   0  0  0  0  0  0  0  0  0  0  0  0
  -35.2020   57.7149   63.6414 C   0  0  0  0  0  0  0  0  0  0  0  0
  -34.4488   58.4059   64.7596 C   0  0  0  0  0  0  0  0  0  0  0  0
  -32.9502   58.5097   64.5130 C   0  0  0  0  0  0  0  0  0  0  0  0
  -32.5850   58.6697   63.0480 C   0  0  0  0  0  0  0  0  0  0  0  0
  -31.7991   60.7408   61.8528 C   0  0  0  0  0  0  0  0  0  0  0  0
  -31.4239   59.6091   62.7822 C   0  0  0  0  0  0  0  0  0  0  0  0
  -38.2791   60.7047   65.9220 C   0  0  0  0  0  0  0  0  0  0  0  0
  -37.8095   62.0205   65.5526 O   0  0  0  0  0  0  0  0  0  0  0  0
  -36.3091   62.5117   65.8162 P   0  0  0  0  0  0  0  0  0  0  0  0
  -36.1484   62.7328   67.2695 O   0  0  0  0  0  0  0  0  0  0  0  0
  -35.3888   61.5711   65.1328 O   0  0  0  0  0  0  0  0  0  0  0  0
  -35.4410   60.7010   65.5584 H   0  0  0  0  0  0  0  0  0  0  0  0
  -36.1935   63.9258   65.0885 O   0  0  0  0  0  0  0  0  0  0  0  0
  -35.0783   64.1990   64.2158 C   0  0  0  0  0  0  0  0  0  0  0  0
  -34.4817   65.7886   62.5246 O   0  0  0  0  0  0  0  0  0  0  0  0
  -35.5725   65.0324   63.0590 C   0  0  0  0  0  0  0  0  0  0  0  0
  -34.0831   66.3231   63.2290 H   0  0  0  0  0  0  0  0  0  0  0  0
  -36.3221   62.8390   62.3917 O   0  0  0  0  0  0  0  0  0  0  0  0
  -36.2053   64.1933   61.9749 C   0  0  0  0  0  0  0  0  0  0  0  0
  -36.7299   62.3166   61.6835 H   0  0  0  0  0  0  0  0  0  0  0  0
  -40.2241   59.2091   65.7363 O   0  0  0  0  0  0  0  0  0  0  0  0
  -42.1650   60.0544   66.4971 O   0  0  0  0  0  0  0  0  0  0  0  0
  -41.5540   59.1789   65.9476 C   0  0  0  0  0  0  0  0  0  0  0  0
  -42.1803   57.9340   65.4000 C   0  0  0  0  0  0  0  0  0  0  0  0
  -43.4429   57.5586   66.1694 C   0  0  0  0  0  0  0  0  0  0  0  0
  -44.7170   57.6514   65.3460 C   0  0  0  0  0  0  0  0  0  0  0  0
  -45.7513   58.6075   65.9288 C   0  0  0  0  0  0  0  0  0  0  0  0
  -46.1615   59.7227   64.9852 C   0  0  0  0  0  0  0  0  0  0  0  0
  -47.4338   59.4406   64.1809 C   0  0  0  0  0  0  0  0  0  0  0  0
  -48.2679   60.6737   63.8274 C   0  0  0  0  0  0  0  0  0  0  0  0
  -49.5601   60.7181   64.5864 C   0  0  0  0  0  0  0  0  0  0  0  0
  -50.7481   60.3587   64.1405 C   0  0  0  0  0  0  0  0  0  0  0  0
  -51.0549   59.8269   62.7761 C   0  0  0  0  0  0  0  0  0  0  0  0
  -50.8681   58.3152   62.6847 C   0  0  0  0  0  0  0  0  0  0  0  0
  -50.5425   57.8249   61.2847 C   0  0  0  0  0  0  0  0  0  0  0  0
  -49.3702   58.5467   60.6429 C   0  0  0  0  0  0  0  0  0  0  0  0
  -49.2745   58.3763   59.1359 C   0  0  0  0  0  0  0  0  0  0  0  0
  -48.5581   57.1024   58.7146 C   0  0  0  0  0  0  0  0  0  0  0  0
  -47.1194   57.3108   58.2849 C   0  0  0  0  0  0  0  0  0  0  0  0
  -46.9867   58.2926   57.1544 C   0  0  0  0  0  0  0  0  0  0  0  0
 21 22  1  0  0  0
  4  5  2  0  0  0
 25 24  1  0  0  0
 25 26  2  0  0  0
 25 27  1  0  0  0
 25 29  1  0  0  0
 22 20  1  0  0  0
  3  5  1  0  0  0
  3  2  1  0  0  0
 20 19  1  0  0  0
 24 23  1  0  0  0
 19 18  1  0  0  0
 18 17  1  0  0  0
 27 28  1  0  0  0
 17 16  1  0  0  0
 29 30  1  0  0  0
 16 15  1  0  0  0
 34 35  1  0  0  0
 34 36  1  0  0  0
 15 14  1  0  0  0
 31 32  1  0  0  0
 31 33  1  0  0  0
 14 13  1  0  0  0
 37  1  1  0  0  0
 37 39  1  0  0  0
 13 12  1  0  0  0
 38 39  2  0  0  0
 12 11  1  0  0  0
 11 10  1  0  0  0
 10  9  1  0  0  0
  9  8  1  0  0  0
  8  7  1  0  0  0
  7  6  1  0  0  0
  6  5  1  0  0  0
  2  1  1  0  0  0
  1 23  1  0  0  0
 30 32  1  0  0  0
 32 35  1  0  0  0
 39 40  1  0  0  0
 40 41  1  0  0  0
 41 42  1  0  0  0
 42 43  1  0  0  0
 43 44  1  0  0  0
 44 45  1  0  0  0
 45 46  1  0  0  0
 46 47  1  0  0  0
 47 48  2  0  0  0
 48 49  1  0  0  0
 49 50  1  0  0  0
 50 51  1  0  0  0
 51 52  1  0  0  0
 52 53  1  0  0  0
 53 54  1  0  0  0
 54 55  1  0  0  0
 55 56  1  0  0  0
M  CHG 1  26  -1
M  END
> <minimizedAffinity>
-8.26971

> <CNNscore>
0.3261269629

> <CNNaffinity>
7.4800782204

> <CNN_VS>
2.4394552708

> <CNNaffinity_variance>
1.2154302597

$$$$
/media/chris/experiments/cd1a-new-docking/inputs/ligands/7sh4_ligand.pdb


 56 55  0  0  0  0  0  0  0  0999 V2000
  -39.9619   60.6763   63.3278 C   0  0  0  0  0  0  0  0  0  0  0  0
  -39.6578   60.3546   64.7636 C   0  0  0  0  0  0  0  0  0  0  0  0
  -40.3006   59.0806   64.9799 O   0  0  0  0  0  0  0  0  0  0  0  0
  -41.7098   60.0105   66.4456 O   0  0  0  0  0  0  0  0  0  0  0  0
  -41.3647   59.0695   65.7832 C   0  0  0  0  0  0  0  0  0  0  0  0
  -42.1309   57.7848   65.6511 C   0  0  0  0  0  0  0  0  0  0  0  0
  -42.5174   57.4367   64.2235 C   0  0  0  0  0  0  0  0  0  0  0  0
  -41.7993   56.2089   63.7046 C   0  0  0  0  0  0  0  0  0  0  0  0
  -41.3231   56.3281   62.2747 C   0  0  0  0  0  0  0  0  0  0  0  0
  -41.7832   57.6049   61.6006 C   0  0  0  0  0  0  0  0  0  0  0  0
  -41.4231   57.6665   60.1363 C   0  0  0  0  0  0  0  0  0  0  0  0
  -40.5668   58.8559   59.7905 C   0  0  0  0  0  0  0  0  0  0  0  0
  -39.2831   58.4856   59.0811 C   0  0  0  0  0  0  0  0  0  0  0  0
  -38.0595   58.6550   59.9587 C   0  0  0  0  0  0  0  0  0  0  0  0
  -38.1051   57.8549   61.2437 C   0  0  0  0  0  0  0  0  0  0  0  0
  -36.9405   58.1362   62.1862 C   0  0  0  0  0  0  0  0  0  0  0  0
  -37.2268   57.7997   63.6370 C   0  0  0  0  0  0  0  0  0  0  0  0
  -36.2398   58.4195   64.6048 C   0  0  0  0  0  0  0  0  0  0  0  0
  -34.8590   57.7799   64.5617 C   0  0  0  0  0  0  0  0  0  0  0  0
  -33.7377   58.7282   64.9469 C   0  0  0  0  0  0  0  0  0  0  0  0
  -33.3158   58.6088   62.4683 C   0  0  0  0  0  0  0  0  0  0  0  0
  -32.8517   59.1646   63.7955 C   0  0  0  0  0  0  0  0  0  0  0  0
  -38.7602   61.2276   62.6043 C   0  0  0  0  0  0  0  0  0  0  0  0
  -38.0158   62.0692   63.5132 O   0  0  0  0  0  0  0  0  0  0  0  0
  -36.5416   62.6028   63.1908 P   0  0  0  0  0  0  0  0  0  0  0  0
  -35.6181   61.4485   63.2295 O   0  0  0  0  0  0  0  0  0  0  0  0
  -36.6068   63.4217   61.9564 O   0  0  0  0  0  0  0  0  0  0  0  0
  -36.8329   62.8538   61.2032 H   0  0  0  0  0  0  0  0  0  0  0  0
  -36.1686   63.5709   64.4017 O   0  0  0  0  0  0  0  0  0  0  0  0
  -36.5359   63.2143   65.7500 C   0  0  0  0  0  0  0  0  0  0  0  0
  -36.2269   63.8477   68.0404 O   0  0  0  0  0  0  0  0  0  0  0  0
  -35.8467   64.1647   66.6981 C   0  0  0  0  0  0  0  0  0  0  0  0
  -37.1934   63.8754   68.1178 H   0  0  0  0  0  0  0  0  0  0  0  0
  -33.7494   63.5188   67.6994 O   0  0  0  0  0  0  0  0  0  0  0  0
  -34.3437   64.1260   66.5593 C   0  0  0  0  0  0  0  0  0  0  0  0
  -32.7855   63.5032   67.5920 H   0  0  0  0  0  0  0  0  0  0  0  0
  -41.0908   61.6113   63.2935 O   0  0  0  0  0  0  0  0  0  0  0  0
  -41.9933   61.6312   61.2330 O   0  0  0  0  0  0  0  0  0  0  0  0
  -42.0664   61.3581   62.4001 C   0  0  0  0  0  0  0  0  0  0  0  0
  -43.2426   60.6801   63.0315 C   0  0  0  0  0  0  0  0  0  0  0  0
  -43.9002   61.5669   64.0841 C   0  0  0  0  0  0  0  0  0  0  0  0
  -45.2914   61.1110   64.4924 C   0  0  0  0  0  0  0  0  0  0  0  0
  -45.3119   59.7433   65.1651 C   0  0  0  0  0  0  0  0  0  0  0  0
  -46.6562   59.0427   65.0978 C   0  0  0  0  0  0  0  0  0  0  0  0
  -47.5149   59.1903   66.3571 C   0  0  0  0  0  0  0  0  0  0  0  0
  -48.8553   59.8992   66.1523 C   0  0  0  0  0  0  0  0  0  0  0  0
  -48.8602   60.7530   64.9198 C   0  0  0  0  0  0  0  0  0  0  0  0
  -49.7903   60.7812   63.9852 C   0  0  0  0  0  0  0  0  0  0  0  0
  -51.0427   59.9631   63.9612 C   0  0  0  0  0  0  0  0  0  0  0  0
  -51.1763   59.1401   62.6832 C   0  0  0  0  0  0  0  0  0  0  0  0
  -50.2374   57.9479   62.6250 C   0  0  0  0  0  0  0  0  0  0  0  0
  -49.4816   57.8303   61.3126 C   0  0  0  0  0  0  0  0  0  0  0  0
  -49.5478   59.0690   60.4347 C   0  0  0  0  0  0  0  0  0  0  0  0
  -48.6747   58.9783   59.1925 C   0  0  0  0  0  0  0  0  0  0  0  0
  -47.9892   57.6386   59.0102 C   0  0  0  0  0  0  0  0  0  0  0  0
  -47.1644   57.5736   57.7552 C   0  0  0  0  0  0  0  0  0  0  0  0
 21 22  1  0  0  0
  4  5  2  0  0  0
 25 24  1  0  0  0
 25 26  2  0  0  0
 25 27  1  0  0  0
 25 29  1  0  0  0
 22 20  1  0  0  0
  3  5  1  0  0  0
  3  2  1  0  0  0
 20 19  1  0  0  0
 24 23  1  0  0  0
 19 18  1  0  0  0
 18 17  1  0  0  0
 27 28  1  0  0  0
 17 16  1  0  0  0
 29 30  1  0  0  0
 16 15  1  0  0  0
 34 35  1  0  0  0
 34 36  1  0  0  0
 15 14  1  0  0  0
 31 32  1  0  0  0
 31 33  1  0  0  0
 14 13  1  0  0  0
 37  1  1  0  0  0
 37 39  1  0  0  0
 13 12  1  0  0  0
 38 39  2  0  0  0
 12 11  1  0  0  0
 11 10  1  0  0  0
 10  9  1  0  0  0
  9  8  1  0  0  0
  8  7  1  0  0  0
  7  6  1  0  0  0
  6  5  1  0  0  0
  2  1  1  0  0  0
  1 23  1  0  0  0
 30 32  1  0  0  0
 32 35  1  0  0  0
 39 40  1  0  0  0
 40 41  1  0  0  0
 41 42  1  0  0  0
 42 43  1  0  0  0
 43 44  1  0  0  0
 44 45  1  0  0  0
 45 46  1  0  0  0
 46 47  1  0  0  0
 47 48  2  0  0  0
 48 49  1  0  0  0
 49 50  1  0  0  0
 50 51  1  0  0  0
 51 52  1  0  0  0
 52 53  1  0  0  0
 53 54  1  0  0  0
 54 55  1  0  0  0
 55 56  1  0  0  0
M  CHG 1  26  -1
M  END
> <minimizedAffinity>
-8.81256

> <CNNscore>
0.3121825159

> <CNNaffinity>
7.4567136765

> <CNN_VS>
2.3278555870

> <CNNaffinity_variance>
1.6358928680

$$$$
/media/chris/experiments/cd1a-new-docking/inputs/ligands/7sh4_ligand.pdb


 56 55  0  0  0  0  0  0  0  0999 V2000
  -40.2314   59.7269   64.7747 C   0  0  0  0  0  0  0  0  0  0  0  0
  -39.1684   60.2614   63.8572 C   0  0  0  0  0  0  0  0  0  0  0  0
  -37.9318   59.8648   64.4870 O   0  0  0  0  0  0  0  0  0  0  0  0
  -36.9359   59.6099   62.5015 O   0  0  0  0  0  0  0  0  0  0  0  0
  -36.9623   59.4192   63.6875 C   0  0  0  0  0  0  0  0  0  0  0  0
  -35.8638   58.7681   64.4775 C   0  0  0  0  0  0  0  0  0  0  0  0
  -34.6370   59.6430   64.6724 C   0  0  0  0  0  0  0  0  0  0  0  0
  -33.3414   58.8992   64.4262 C   0  0  0  0  0  0  0  0  0  0  0  0
  -33.1596   58.4268   63.0016 C   0  0  0  0  0  0  0  0  0  0  0  0
  -32.4900   59.4575   62.1155 C   0  0  0  0  0  0  0  0  0  0  0  0
  -31.1537   59.9177   62.6449 C   0  0  0  0  0  0  0  0  0  0  0  0
  -30.9853   61.4133   62.5975 C   0  0  0  0  0  0  0  0  0  0  0  0
  -31.4983   62.0349   61.3175 C   0  0  0  0  0  0  0  0  0  0  0  0
  -31.7140   63.5299   61.4382 C   0  0  0  0  0  0  0  0  0  0  0  0
  -32.3031   63.9642   62.7640 C   0  0  0  0  0  0  0  0  0  0  0  0
  -33.5457   64.8369   62.6297 C   0  0  0  0  0  0  0  0  0  0  0  0
  -34.4038   64.5058   61.4238 C   0  0  0  0  0  0  0  0  0  0  0  0
  -35.8905   64.5613   61.7095 C   0  0  0  0  0  0  0  0  0  0  0  0
  -36.2286   64.5281   63.1934 C   0  0  0  0  0  0  0  0  0  0  0  0
  -36.6953   63.1678   63.6802 C   0  0  0  0  0  0  0  0  0  0  0  0
  -35.5633   63.9429   65.7906 C   0  0  0  0  0  0  0  0  0  0  0  0
  -36.4680   62.9101   65.1577 C   0  0  0  0  0  0  0  0  0  0  0  0
  -40.2636   58.2200   64.7867 C   0  0  0  0  0  0  0  0  0  0  0  0
  -40.2273   57.7432   63.4230 O   0  0  0  0  0  0  0  0  0  0  0  0
  -41.4760   57.0301   62.7199 P   0  0  0  0  0  0  0  0  0  0  0  0
  -41.1223   55.6134   62.4863 O   0  0  0  0  0  0  0  0  0  0  0  0
  -42.6905   57.3397   63.5121 O   0  0  0  0  0  0  0  0  0  0  0  0
  -42.6248   56.9177   64.3831 H   0  0  0  0  0  0  0  0  0  0  0  0
  -41.6233   57.7402   61.2997 O   0  0  0  0  0  0  0  0  0  0  0  0
  -41.0960   59.0674   61.0985 C   0  0  0  0  0  0  0  0  0  0  0  0
  -40.2784   60.5134   59.3714 O   0  0  0  0  0  0  0  0  0  0  0  0
  -40.5165   59.1432   59.7073 C   0  0  0  0  0  0  0  0  0  0  0  0
  -41.1027   61.0166   59.4626 H   0  0  0  0  0  0  0  0  0  0  0  0
  -38.6801   58.0737   60.8485 O   0  0  0  0  0  0  0  0  0  0  0  0
  -39.2425   58.3444   59.5710 C   0  0  0  0  0  0  0  0  0  0  0  0
  -37.8640   57.5607   60.7405 H   0  0  0  0  0  0  0  0  0  0  0  0
  -41.5209   60.2929   64.3663 O   0  0  0  0  0  0  0  0  0  0  0  0
  -42.1126   61.8085   65.9197 O   0  0  0  0  0  0  0  0  0  0  0  0
  -42.3132   60.7744   65.3432 C   0  0  0  0  0  0  0  0  0  0  0  0
  -43.4816   59.8771   65.6107 C   0  0  0  0  0  0  0  0  0  0  0  0
  -44.6688   60.2242   64.7180 C   0  0  0  0  0  0  0  0  0  0  0  0
  -46.0131   60.1484   65.4231 C   0  0  0  0  0  0  0  0  0  0  0  0
  -47.0934   59.4526   64.6031 C   0  0  0  0  0  0  0  0  0  0  0  0
  -48.2389   58.9024   65.4322 C   0  0  0  0  0  0  0  0  0  0  0  0
  -49.2148   59.9619   65.9521 C   0  0  0  0  0  0  0  0  0  0  0  0
  -50.6821   59.7331   65.5833 C   0  0  0  0  0  0  0  0  0  0  0  0
  -51.0599   60.4300   64.3107 C   0  0  0  0  0  0  0  0  0  0  0  0
  -51.0971   59.8998   63.1037 C   0  0  0  0  0  0  0  0  0  0  0  0
  -50.7695   58.4831   62.7515 C   0  0  0  0  0  0  0  0  0  0  0  0
  -49.4932   58.3692   61.9229 C   0  0  0  0  0  0  0  0  0  0  0  0
  -49.5047   59.2209   60.6656 C   0  0  0  0  0  0  0  0  0  0  0  0
  -49.5375   58.4112   59.3808 C   0  0  0  0  0  0  0  0  0  0  0  0
  -48.9794   57.0036   59.5092 C   0  0  0  0  0  0  0  0  0  0  0  0
  -47.8464   56.7103   58.5377 C   0  0  0  0  0  0  0  0  0  0  0  0
  -47.9400   57.4651   57.2265 C   0  0  0  0  0  0  0  0  0  0  0  0
  -46.8032   58.4284   57.0278 C   0  0  0  0  0  0  0  0  0  0  0  0
 21 22  1  0  0  0
  4  5  2  0  0  0
 25 24  1  0  0  0
 25 26  2  0  0  0
 25 27  1  0  0  0
 25 29  1  0  0  0
 22 20  1  0  0  0
  3  5  1  0  0  0
  3  2  1  0  0  0
 20 19  1  0  0  0
 24 23  1  0  0  0
 19 18  1  0  0  0
 18 17  1  0  0  0
 27 28  1  0  0  0
 17 16  1  0  0  0
 29 30  1  0  0  0
 16 15  1  0  0  0
 34 35  1  0  0  0
 34 36  1  0  0  0
 15 14  1  0  0  0
 31 32  1  0  0  0
 31 33  1  0  0  0
 14 13  1  0  0  0
 37  1  1  0  0  0
 37 39  1  0  0  0
 13 12  1  0  0  0
 38 39  2  0  0  0
 12 11  1  0  0  0
 11 10  1  0  0  0
 10  9  1  0  0  0
  9  8  1  0  0  0
  8  7  1  0  0  0
  7  6  1  0  0  0
  6  5  1  0  0  0
  2  1  1  0  0  0
  1 23  1  0  0  0
 30 32  1  0  0  0
 32 35  1  0  0  0
 39 40  1  0  0  0
 40 41  1  0  0  0
 41 42  1  0  0  0
 42 43  1  0  0  0
 43 44  1  0  0  0
 44 45  1  0  0  0
 45 46  1  0  0  0
 46 47  1  0  0  0
 47 48  2  0  0  0
 48 49  1  0  0  0
 49 50  1  0  0  0
 50 51  1  0  0  0
 51 52  1  0  0  0
 52 53  1  0  0  0
 53 54  1  0  0  0
 54 55  1  0  0  0
 55 56  1  0  0  0
M  CHG 1  26  -1
M  END
> <minimizedAffinity>
-7.82178

> <CNNscore>
0.2543404996

> <CNNaffinity>
6.8840360641

> <CNN_VS>
1.7508891821

> <CNNaffinity_variance>
0.6783021688

$$$$
/media/chris/experiments/cd1a-new-docking/inputs/ligands/7sh4_ligand.pdb


 56 55  0  0  0  0  0  0  0  0999 V2000
  -39.0470   61.1352   62.3685 C   0  0  0  0  0  0  0  0  0  0  0  0
  -38.9567   59.7875   61.7103 C   0  0  0  0  0  0  0  0  0  0  0  0
  -38.7270   60.0932   60.3186 O   0  0  0  0  0  0  0  0  0  0  0  0
  -38.2738   58.6170   58.7018 O   0  0  0  0  0  0  0  0  0  0  0  0
  -39.0617   59.1563   59.4310 C   0  0  0  0  0  0  0  0  0  0  0  0
  -40.5113   58.7844   59.5551 C   0  0  0  0  0  0  0  0  0  0  0  0
  -40.7623   57.2890   59.6512 C   0  0  0  0  0  0  0  0  0  0  0  0
  -41.5980   56.9111   60.8559 C   0  0  0  0  0  0  0  0  0  0  0  0
  -40.8042   56.7401   62.1312 C   0  0  0  0  0  0  0  0  0  0  0  0
  -41.6456   56.2518   63.2930 C   0  0  0  0  0  0  0  0  0  0  0  0
  -42.6204   57.2878   63.7971 C   0  0  0  0  0  0  0  0  0  0  0  0
  -42.9982   57.0870   65.2408 C   0  0  0  0  0  0  0  0  0  0  0  0
  -42.0350   57.7366   66.2094 C   0  0  0  0  0  0  0  0  0  0  0  0
  -41.7475   59.1844   65.8666 C   0  0  0  0  0  0  0  0  0  0  0  0
  -40.2743   59.5345   65.8493 C   0  0  0  0  0  0  0  0  0  0  0  0
  -39.4144   58.5424   65.0746 C   0  0  0  0  0  0  0  0  0  0  0  0
  -37.9337   58.6326   65.3903 C   0  0  0  0  0  0  0  0  0  0  0  0
  -37.1304   57.4687   64.8470 C   0  0  0  0  0  0  0  0  0  0  0  0
  -35.6880   57.8248   64.5149 C   0  0  0  0  0  0  0  0  0  0  0  0
  -35.4027   59.3151   64.5663 C   0  0  0  0  0  0  0  0  0  0  0  0
  -33.0907   58.4544   65.0660 C   0  0  0  0  0  0  0  0  0  0  0  0
  -33.9606   59.6752   64.8697 C   0  0  0  0  0  0  0  0  0  0  0  0
  -37.9096   61.3740   63.3282 C   0  0  0  0  0  0  0  0  0  0  0  0
  -37.7670   62.7971   63.5356 O   0  0  0  0  0  0  0  0  0  0  0  0
  -36.3862   63.5731   63.3055 P   0  0  0  0  0  0  0  0  0  0  0  0
  -35.9478   63.3252   61.9150 O   0  0  0  0  0  0  0  0  0  0  0  0
  -36.5633   64.9742   63.7574 O   0  0  0  0  0  0  0  0  0  0  0  0
  -37.1975   65.4235   63.1769 H   0  0  0  0  0  0  0  0  0  0  0  0
  -35.3395   62.8718   64.2828 O   0  0  0  0  0  0  0  0  0  0  0  0
  -34.4388   63.6755   65.0721 C   0  0  0  0  0  0  0  0  0  0  0  0
  -33.6317   63.9915   67.3062 O   0  0  0  0  0  0  0  0  0  0  0  0
  -34.4415   63.1451   66.4847 C   0  0  0  0  0  0  0  0  0  0  0  0
  -32.7399   64.0506   66.9292 H   0  0  0  0  0  0  0  0  0  0  0  0
  -36.5682   64.2351   66.8130 O   0  0  0  0  0  0  0  0  0  0  0  0
  -35.8348   63.0417   67.0573 C   0  0  0  0  0  0  0  0  0  0  0  0
  -37.4588   64.1497   67.1875 H   0  0  0  0  0  0  0  0  0  0  0  0
  -40.3488   61.2367   63.0356 O   0  0  0  0  0  0  0  0  0  0  0  0
  -41.4530   61.5553   61.1018 O   0  0  0  0  0  0  0  0  0  0  0  0
  -41.4420   61.2026   62.2496 C   0  0  0  0  0  0  0  0  0  0  0  0
  -42.6346   60.6562   62.9714 C   0  0  0  0  0  0  0  0  0  0  0  0
  -43.5152   61.7735   63.5216 C   0  0  0  0  0  0  0  0  0  0  0  0
  -44.4615   61.3265   64.6237 C   0  0  0  0  0  0  0  0  0  0  0  0
  -45.1788   60.0168   64.3175 C   0  0  0  0  0  0  0  0  0  0  0  0
  -46.0170   59.4890   65.4669 C   0  0  0  0  0  0  0  0  0  0  0  0
  -47.4432   60.0441   65.5223 C   0  0  0  0  0  0  0  0  0  0  0  0
  -48.5140   59.1537   64.8884 C   0  0  0  0  0  0  0  0  0  0  0  0
  -49.8974   59.5417   65.3167 C   0  0  0  0  0  0  0  0  0  0  0  0
  -50.9050   59.8621   64.5284 C   0  0  0  0  0  0  0  0  0  0  0  0
  -50.8772   59.9036   63.0331 C   0  0  0  0  0  0  0  0  0  0  0  0
  -50.9347   58.5116   62.4107 C   0  0  0  0  0  0  0  0  0  0  0  0
  -49.7975   58.2283   61.4449 C   0  0  0  0  0  0  0  0  0  0  0  0
  -50.1948   58.3457   59.9836 C   0  0  0  0  0  0  0  0  0  0  0  0
  -49.0276   58.3320   59.0106 C   0  0  0  0  0  0  0  0  0  0  0  0
  -47.9879   57.2677   59.3267 C   0  0  0  0  0  0  0  0  0  0  0  0
  -46.9631   57.0539   58.2304 C   0  0  0  0  0  0  0  0  0  0  0  0
  -46.9870   58.1408   57.1922 C   0  0  0  0  0  0  0  0  0  0  0  0
 21 22  1  0  0  0
  4  5  2  0  0  0
 25 24  1  0  0  0
 25 26  2  0  0  0
 25 27  1  0  0  0
 25 29  1  0  0  0
 22 20  1  0  0  0
  3  5  1  0  0  0
  3  2  1  0  0  0
 20 19  1  0  0  0
 24 23  1  0  0  0
 19 18  1  0  0  0
 18 17  1  0  0  0
 27 28  1  0  0  0
 17 16  1  0  0  0
 29 30  1  0  0  0
 16 15  1  0  0  0
 34 35  1  0  0  0
 34 36  1  0  0  0
 15 14  1  0  0  0
 31 32  1  0  0  0
 31 33  1  0  0  0
 14 13  1  0  0  0
 37  1  1  0  0  0
 37 39  1  0  0  0
 13 12  1  0  0  0
 38 39  2  0  0  0
 12 11  1  0  0  0
 11 10  1  0  0  0
 10  9  1  0  0  0
  9  8  1  0  0  0
  8  7  1  0  0  0
  7  6  1  0  0  0
  6  5  1  0  0  0
  2  1  1  0  0  0
  1 23  1  0  0  0
 30 32  1  0  0  0
 32 35  1  0  0  0
 39 40  1  0  0  0
 40 41  1  0  0  0
 41 42  1  0  0  0
 42 43  1  0  0  0
 43 44  1  0  0  0
 44 45  1  0  0  0
 45 46  1  0  0  0
 46 47  1  0  0  0
 47 48  2  0  0  0
 48 49  1  0  0  0
 49 50  1  0  0  0
 50 51  1  0  0  0
 51 52  1  0  0  0
 52 53  1  0  0  0
 53 54  1  0  0  0
 54 55  1  0  0  0
 55 56  1  0  0  0
M  CHG 1  26  -1
M  END
> <minimizedAffinity>
-8.47491

> <CNNscore>
0.2458243072

> <CNNaffinity>
7.3885169029

> <CNN_VS>
1.8162770271

> <CNNaffinity_variance>
1.3787095547

$$$$
/media/chris/experiments/cd1a-new-docking/inputs/ligands/7sh4_ligand.pdb


 56 55  0  0  0  0  0  0  0  0999 V2000
  -40.1959   60.2236   64.7349 C   0  0  0  0  0  0  0  0  0  0  0  0
  -41.1193   59.5618   65.7182 C   0  0  0  0  0  0  0  0  0  0  0  0
  -41.0039   58.1557   65.4139 O   0  0  0  0  0  0  0  0  0  0  0  0
  -42.8895   57.4051   66.3520 O   0  0  0  0  0  0  0  0  0  0  0  0
  -42.1298   57.4415   65.4219 C   0  0  0  0  0  0  0  0  0  0  0  0
  -42.3764   56.8020   64.0858 C   0  0  0  0  0  0  0  0  0  0  0  0
  -41.1713   56.8134   63.1606 C   0  0  0  0  0  0  0  0  0  0  0  0
  -41.2251   55.7201   62.1144 C   0  0  0  0  0  0  0  0  0  0  0  0
  -41.1776   56.2235   60.6897 C   0  0  0  0  0  0  0  0  0  0  0  0
  -41.6740   57.6480   60.5468 C   0  0  0  0  0  0  0  0  0  0  0  0
  -41.0620   58.3756   59.3747 C   0  0  0  0  0  0  0  0  0  0  0  0
  -40.2468   59.5730   59.7860 C   0  0  0  0  0  0  0  0  0  0  0  0
  -38.7860   59.4628   59.4094 C   0  0  0  0  0  0  0  0  0  0  0  0
  -38.0475   58.4227   60.2273 C   0  0  0  0  0  0  0  0  0  0  0  0
  -38.1906   58.5983   61.7246 C   0  0  0  0  0  0  0  0  0  0  0  0
  -37.3548   57.6201   62.5422 C   0  0  0  0  0  0  0  0  0  0  0  0
  -37.5961   57.7034   64.0372 C   0  0  0  0  0  0  0  0  0  0  0  0
  -36.3197   57.7800   64.8496 C   0  0  0  0  0  0  0  0  0  0  0  0
  -35.0619   57.8992   64.0004 C   0  0  0  0  0  0  0  0  0  0  0  0
  -33.8649   58.4422   64.7602 C   0  0  0  0  0  0  0  0  0  0  0  0
  -33.0909   59.1187   62.4626 C   0  0  0  0  0  0  0  0  0  0  0  0
  -32.6849   58.8327   63.8905 C   0  0  0  0  0  0  0  0  0  0  0  0
  -38.9377   60.7302   65.3922 C   0  0  0  0  0  0  0  0  0  0  0  0
  -38.3564   61.7554   64.5559 O   0  0  0  0  0  0  0  0  0  0  0  0
  -36.9307   62.4169   64.8588 P   0  0  0  0  0  0  0  0  0  0  0  0
  -37.0881   63.3396   66.0037 O   0  0  0  0  0  0  0  0  0  0  0  0
  -35.9279   61.3289   64.9536 O   0  0  0  0  0  0  0  0  0  0  0  0
  -36.1160   60.7826   65.7328 H   0  0  0  0  0  0  0  0  0  0  0  0
  -36.5870   63.2890   63.5689 O   0  0  0  0  0  0  0  0  0  0  0  0
  -35.6478   64.3793   63.6645 C   0  0  0  0  0  0  0  0  0  0  0  0
  -34.2703   62.6911   62.6670 O   0  0  0  0  0  0  0  0  0  0  0  0
  -34.4998   64.1021   62.7252 C   0  0  0  0  0  0  0  0  0  0  0  0
  -34.1132   62.3519   63.5621 H   0  0  0  0  0  0  0  0  0  0  0  0
  -35.6150   63.7903   60.6092 O   0  0  0  0  0  0  0  0  0  0  0  0
  -34.7466   64.6475   61.3391 C   0  0  0  0  0  0  0  0  0  0  0  0
  -35.7614   64.1566   59.7231 H   0  0  0  0  0  0  0  0  0  0  0  0
  -40.9300   61.3027   64.0665 O   0  0  0  0  0  0  0  0  0  0  0  0
  -42.4645   60.2077   62.8390 O   0  0  0  0  0  0  0  0  0  0  0  0
  -42.1876   61.0304   63.6688 C   0  0  0  0  0  0  0  0  0  0  0  0
  -43.1981   61.8614   64.3969 C   0  0  0  0  0  0  0  0  0  0  0  0
  -44.5851   61.2287   64.3435 C   0  0  0  0  0  0  0  0  0  0  0  0
  -44.7748   60.0766   65.3165 C   0  0  0  0  0  0  0  0  0  0  0  0
  -46.1250   60.0920   66.0239 C   0  0  0  0  0  0  0  0  0  0  0  0
  -47.1760   59.2170   65.3665 C   0  0  0  0  0  0  0  0  0  0  0  0
  -47.5259   59.6130   63.9291 C   0  0  0  0  0  0  0  0  0  0  0  0
  -48.4091   60.8550   63.7922 C   0  0  0  0  0  0  0  0  0  0  0  0
  -49.6695   60.7433   64.5965 C   0  0  0  0  0  0  0  0  0  0  0  0
  -50.8484   60.3429   64.1615 C   0  0  0  0  0  0  0  0  0  0  0  0
  -51.1747   59.9126   62.7662 C   0  0  0  0  0  0  0  0  0  0  0  0
  -51.0607   58.4023   62.5808 C   0  0  0  0  0  0  0  0  0  0  0  0
  -49.8396   57.9765   61.7846 C   0  0  0  0  0  0  0  0  0  0  0  0
  -49.5814   58.8347   60.5582 C   0  0  0  0  0  0  0  0  0  0  0  0
  -50.1117   58.2518   59.2588 C   0  0  0  0  0  0  0  0  0  0  0  0
  -49.0313   57.6249   58.3908 C   0  0  0  0  0  0  0  0  0  0  0  0
  -47.8161   58.5055   58.1771 C   0  0  0  0  0  0  0  0  0  0  0  0
  -46.8325   57.9134   57.2067 C   0  0  0  0  0  0  0  0  0  0  0  0
 21 22  1  0  0  0
  4  5  2  0  0  0
 25 24  1  0  0  0
 25 26  2  0  0  0
 25 27  1  0  0  0
 25 29  1  0  0  0
 22 20  1  0  0  0
  3  5  1  0  0  0
  3  2  1  0  0  0
 20 19  1  0  0  0
 24 23  1  0  0  0
 19 18  1  0  0  0
 18 17  1  0  0  0
 27 28  1  0  0  0
 17 16  1  0  0  0
 29 30  1  0  0  0
 16 15  1  0  0  0
 34 35  1  0  0  0
 34 36  1  0  0  0
 15 14  1  0  0  0
 31 32  1  0  0  0
 31 33  1  0  0  0
 14 13  1  0  0  0
 37  1  1  0  0  0
 37 39  1  0  0  0
 13 12  1  0  0  0
 38 39  2  0  0  0
 12 11  1  0  0  0
 11 10  1  0  0  0
 10  9  1  0  0  0
  9  8  1  0  0  0
  8  7  1  0  0  0
  7  6  1  0  0  0
  6  5  1  0  0  0
  2  1  1  0  0  0
  1 23  1  0  0  0
 30 32  1  0  0  0
 32 35  1  0  0  0
 39 40  1  0  0  0
 40 41  1  0  0  0
 41 42  1  0  0  0
 42 43  1  0  0  0
 43 44  1  0  0  0
 44 45  1  0  0  0
 45 46  1  0  0  0
 46 47  1  0  0  0
 47 48  2  0  0  0
 48 49  1  0  0  0
 49 50  1  0  0  0
 50 51  1  0  0  0
 51 52  1  0  0  0
 52 53  1  0  0  0
 53 54  1  0  0  0
 54 55  1  0  0  0
 55 56  1  0  0  0
M  CHG 1  26  -1
M  END
> <minimizedAffinity>
-8.76956

> <CNNscore>
0.2425967902

> <CNNaffinity>
7.3715934753

> <CNN_VS>
1.7883249521

> <CNNaffinity_variance>
1.6533067226

$$$$
/media/chris/experiments/cd1a-new-docking/inputs/ligands/7sh4_ligand.pdb


 56 55  0  0  0  0  0  0  0  0999 V2000
  -40.2074   59.0443   62.2088 C   0  0  0  0  0  0  0  0  0  0  0  0
  -41.3679   58.3713   61.5321 C   0  0  0  0  0  0  0  0  0  0  0  0
  -42.1795   57.8922   62.6251 O   0  0  0  0  0  0  0  0  0  0  0  0
  -41.2820   55.8457   62.5537 O   0  0  0  0  0  0  0  0  0  0  0  0
  -41.8401   56.7193   63.1608 C   0  0  0  0  0  0  0  0  0  0  0  0
  -42.1321   56.6907   64.6336 C   0  0  0  0  0  0  0  0  0  0  0  0
  -43.5965   56.9001   64.9801 C   0  0  0  0  0  0  0  0  0  0  0  0
  -43.7913   57.5554   66.3311 C   0  0  0  0  0  0  0  0  0  0  0  0
  -45.2342   57.8465   66.6758 C   0  0  0  0  0  0  0  0  0  0  0  0
  -46.1735   57.6637   65.5009 C   0  0  0  0  0  0  0  0  0  0  0  0
  -47.5918   58.0814   65.8037 C   0  0  0  0  0  0  0  0  0  0  0  0
  -47.7271   59.5582   66.0652 C   0  0  0  0  0  0  0  0  0  0  0  0
  -49.1630   60.0156   66.1957 C   0  0  0  0  0  0  0  0  0  0  0  0
  -50.1397   59.0803   65.5120 C   0  0  0  0  0  0  0  0  0  0  0  0
  -50.7273   59.6304   64.2293 C   0  0  0  0  0  0  0  0  0  0  0  0
  -50.5038   58.7352   63.0158 C   0  0  0  0  0  0  0  0  0  0  0  0
  -49.2362   59.0483   62.2443 C   0  0  0  0  0  0  0  0  0  0  0  0
  -49.4285   59.0398   60.7416 C   0  0  0  0  0  0  0  0  0  0  0  0
  -48.6238   57.9616   60.0293 C   0  0  0  0  0  0  0  0  0  0  0  0
  -48.6214   58.1039   58.5177 C   0  0  0  0  0  0  0  0  0  0  0  0
  -47.2337   56.4253   57.2558 C   0  0  0  0  0  0  0  0  0  0  0  0
  -47.2884   57.8123   57.8549 C   0  0  0  0  0  0  0  0  0  0  0  0
  -40.4784   60.5018   62.4811 C   0  0  0  0  0  0  0  0  0  0  0  0
  -39.7198   60.9067   63.6425 O   0  0  0  0  0  0  0  0  0  0  0  0
  -39.9019   60.2242   65.0788 P   0  0  0  0  0  0  0  0  0  0  0  0
  -39.2933   58.8774   65.0263 O   0  0  0  0  0  0  0  0  0  0  0  0
  -39.4275   61.1806   66.1078 O   0  0  0  0  0  0  0  0  0  0  0  0
  -38.4702   61.3067   66.0152 H   0  0  0  0  0  0  0  0  0  0  0  0
  -41.4755   60.0451   65.2649 O   0  0  0  0  0  0  0  0  0  0  0  0
  -42.2033   60.9282   66.1427 C   0  0  0  0  0  0  0  0  0  0  0  0
  -42.4895   62.3944   64.2690 O   0  0  0  0  0  0  0  0  0  0  0  0
  -43.1900   61.7146   65.3150 C   0  0  0  0  0  0  0  0  0  0  0  0
  -41.7947   62.9511   64.6539 H   0  0  0  0  0  0  0  0  0  0  0  0
  -43.7770   60.0774   63.6437 O   0  0  0  0  0  0  0  0  0  0  0  0
  -44.2764   60.8423   64.7333 C   0  0  0  0  0  0  0  0  0  0  0  0
  -44.4881   59.5245   63.2838 H   0  0  0  0  0  0  0  0  0  0  0  0
  -39.0166   58.8619   61.3729 O   0  0  0  0  0  0  0  0  0  0  0  0
  -38.2735   56.7868   61.8226 O   0  0  0  0  0  0  0  0  0  0  0  0
  -38.0989   57.9747   61.8028 C   0  0  0  0  0  0  0  0  0  0  0  0
  -36.8312   58.6443   62.2345 C   0  0  0  0  0  0  0  0  0  0  0  0
  -36.2016   57.9327   63.4279 C   0  0  0  0  0  0  0  0  0  0  0  0
  -34.7293   57.6042   63.2432 C   0  0  0  0  0  0  0  0  0  0  0  0
  -33.8816   58.8067   62.8443 C   0  0  0  0  0  0  0  0  0  0  0  0
  -32.4140   58.6744   63.2063 C   0  0  0  0  0  0  0  0  0  0  0  0
  -31.5345   59.8357   62.7342 C   0  0  0  0  0  0  0  0  0  0  0  0
  -32.2937   61.0613   62.2213 C   0  0  0  0  0  0  0  0  0  0  0  0
  -31.8059   62.3319   62.8501 C   0  0  0  0  0  0  0  0  0  0  0  0
  -32.0975   63.5608   62.4705 C   0  0  0  0  0  0  0  0  0  0  0  0
  -32.9829   63.9448   61.3273 C   0  0  0  0  0  0  0  0  0  0  0  0
  -34.0631   64.9419   61.7365 C   0  0  0  0  0  0  0  0  0  0  0  0
  -35.4751   64.4636   61.4474 C   0  0  0  0  0  0  0  0  0  0  0  0
  -36.3486   64.3573   62.6856 C   0  0  0  0  0  0  0  0  0  0  0  0
  -36.8379   62.9516   62.9921 C   0  0  0  0  0  0  0  0  0  0  0  0
  -36.6078   62.5315   64.4358 C   0  0  0  0  0  0  0  0  0  0  0  0
  -35.6047   61.4075   64.6043 C   0  0  0  0  0  0  0  0  0  0  0  0
  -34.3926   61.8230   65.3903 C   0  0  0  0  0  0  0  0  0  0  0  0
 21 22  1  0  0  0
  4  5  2  0  0  0
 25 24  1  0  0  0
 25 26  2  0  0  0
 25 27  1  0  0  0
 25 29  1  0  0  0
 22 20  1  0  0  0
  3  5  1  0  0  0
  3  2  1  0  0  0
 20 19  1  0  0  0
 24 23  1  0  0  0
 19 18  1  0  0  0
 18 17  1  0  0  0
 27 28  1  0  0  0
 17 16  1  0  0  0
 29 30  1  0  0  0
 16 15  1  0  0  0
 34 35  1  0  0  0
 34 36  1  0  0  0
 15 14  1  0  0  0
 31 32  1  0  0  0
 31 33  1  0  0  0
 14 13  1  0  0  0
 37  1  1  0  0  0
 37 39  1  0  0  0
 13 12  1  0  0  0
 38 39  2  0  0  0
 12 11  1  0  0  0
 11 10  1  0  0  0
 10  9  1  0  0  0
  9  8  1  0  0  0
  8  7  1  0  0  0
  7  6  1  0  0  0
  6  5  1  0  0  0
  2  1  1  0  0  0
  1 23  1  0  0  0
 30 32  1  0  0  0
 32 35  1  0  0  0
 39 40  1  0  0  0
 40 41  1  0  0  0
 41 42  1  0  0  0
 42 43  1  0  0  0
 43 44  1  0  0  0
 44 45  1  0  0  0
 45 46  1  0  0  0
 46 47  1  0  0  0
 47 48  2  0  0  0
 48 49  1  0  0  0
 49 50  1  0  0  0
 50 51  1  0  0  0
 51 52  1  0  0  0
 52 53  1  0  0  0
 53 54  1  0  0  0
 54 55  1  0  0  0
 55 56  1  0  0  0
M  CHG 1  26  -1
M  END
> <minimizedAffinity>
-7.64109

> <CNNscore>
0.2290848345

> <CNNaffinity>
6.8398542404

> <CNN_VS>
1.5669069290

> <CNNaffinity_variance>
1.1208679676

$$$$
/media/chris/experiments/cd1a-new-docking/inputs/ligands/7sh4_ligand.pdb


 56 55  0  0  0  0  0  0  0  0999 V2000
  -36.8086   57.7726   63.4055 C   0  0  0  0  0  0  0  0  0  0  0  0
  -37.7416   57.5427   62.2503 C   0  0  0  0  0  0  0  0  0  0  0  0
  -39.0097   57.2564   62.8773 O   0  0  0  0  0  0  0  0  0  0  0  0
  -40.0700   57.4370   60.9171 O   0  0  0  0  0  0  0  0  0  0  0  0
  -40.0614   57.1052   62.0718 C   0  0  0  0  0  0  0  0  0  0  0  0
  -41.1692   56.3607   62.7598 C   0  0  0  0  0  0  0  0  0  0  0  0
  -42.3076   57.2456   63.2388 C   0  0  0  0  0  0  0  0  0  0  0  0
  -42.6641   57.0075   64.6910 C   0  0  0  0  0  0  0  0  0  0  0  0
  -44.0360   57.5082   65.0820 C   0  0  0  0  0  0  0  0  0  0  0  0
  -44.0513   58.9815   65.4361 C   0  0  0  0  0  0  0  0  0  0  0  0
  -45.0900   59.7653   64.6717 C   0  0  0  0  0  0  0  0  0  0  0  0
  -46.4808   59.5924   65.2225 C   0  0  0  0  0  0  0  0  0  0  0  0
  -47.5009   59.2177   64.1704 C   0  0  0  0  0  0  0  0  0  0  0  0
  -48.4148   60.3696   63.8047 C   0  0  0  0  0  0  0  0  0  0  0  0
  -49.6065   59.9690   62.9604 C   0  0  0  0  0  0  0  0  0  0  0  0
  -49.5784   58.5141   62.5062 C   0  0  0  0  0  0  0  0  0  0  0  0
  -50.7296   58.1304   61.5965 C   0  0  0  0  0  0  0  0  0  0  0  0
  -50.2850   57.6810   60.2197 C   0  0  0  0  0  0  0  0  0  0  0  0
  -49.0661   56.7693   60.2393 C   0  0  0  0  0  0  0  0  0  0  0  0
  -47.8717   57.3352   59.4922 C   0  0  0  0  0  0  0  0  0  0  0  0
  -48.0388   57.3488   56.9806 C   0  0  0  0  0  0  0  0  0  0  0  0
  -47.5312   56.6151   58.2011 C   0  0  0  0  0  0  0  0  0  0  0  0
  -37.5341   58.2728   64.6283 C   0  0  0  0  0  0  0  0  0  0  0  0
  -37.7875   59.6870   64.4728 O   0  0  0  0  0  0  0  0  0  0  0  0
  -39.0931   60.4038   65.0589 P   0  0  0  0  0  0  0  0  0  0  0  0
  -40.0811   59.3549   65.3913 O   0  0  0  0  0  0  0  0  0  0  0  0
  -38.6653   61.3425   66.1240 O   0  0  0  0  0  0  0  0  0  0  0  0
  -38.3039   60.8407   66.8714 H   0  0  0  0  0  0  0  0  0  0  0  0
  -39.6793   61.2660   63.8524 O   0  0  0  0  0  0  0  0  0  0  0  0
  -39.6970   60.7204   62.5176 C   0  0  0  0  0  0  0  0  0  0  0  0
  -41.2469   60.1654   60.7762 O   0  0  0  0  0  0  0  0  0  0  0  0
  -41.0345   61.0339   61.8931 C   0  0  0  0  0  0  0  0  0  0  0  0
  -40.5105   60.2561   60.1514 H   0  0  0  0  0  0  0  0  0  0  0  0
  -42.2998   62.0884   63.6553 O   0  0  0  0  0  0  0  0  0  0  0  0
  -42.1726   60.9053   62.8770 C   0  0  0  0  0  0  0  0  0  0  0  0
  -43.0347   61.9869   64.2803 H   0  0  0  0  0  0  0  0  0  0  0  0
  -35.7636   58.7070   62.9757 O   0  0  0  0  0  0  0  0  0  0  0  0
  -34.2735   58.1582   64.5690 O   0  0  0  0  0  0  0  0  0  0  0  0
  -34.5188   58.4867   63.4404 C   0  0  0  0  0  0  0  0  0  0  0  0
  -33.4813   58.6818   62.3785 C   0  0  0  0  0  0  0  0  0  0  0  0
  -32.2746   59.4485   62.9104 C   0  0  0  0  0  0  0  0  0  0  0  0
  -31.6943   60.4469   61.9223 C   0  0  0  0  0  0  0  0  0  0  0  0
  -32.2606   61.8541   62.0736 C   0  0  0  0  0  0  0  0  0  0  0  0
  -31.4851   62.7306   63.0394 C   0  0  0  0  0  0  0  0  0  0  0  0
  -32.1972   64.0276   63.4344 C   0  0  0  0  0  0  0  0  0  0  0  0
  -31.7615   64.6286   64.7725 C   0  0  0  0  0  0  0  0  0  0  0  0
  -32.8757   65.3702   65.4481 C   0  0  0  0  0  0  0  0  0  0  0  0
  -33.7163   64.8855   66.3413 C   0  0  0  0  0  0  0  0  0  0  0  0
  -33.7318   63.4862   66.8706 C   0  0  0  0  0  0  0  0  0  0  0  0
  -34.9732   62.7128   66.4357 C   0  0  0  0  0  0  0  0  0  0  0  0
  -34.7209   61.7505   65.2882 C   0  0  0  0  0  0  0  0  0  0  0  0
  -35.3576   62.1828   63.9786 C   0  0  0  0  0  0  0  0  0  0  0  0
  -36.4907   63.1841   64.1296 C   0  0  0  0  0  0  0  0  0  0  0  0
  -36.1529   64.5666   63.5929 C   0  0  0  0  0  0  0  0  0  0  0  0
  -36.1040   64.6520   62.0803 C   0  0  0  0  0  0  0  0  0  0  0  0
  -35.0750   65.6301   61.5861 C   0  0  0  0  0  0  0  0  0  0  0  0
 21 22  1  0  0  0
  4  5  2  0  0  0
 25 24  1  0  0  0
 25 26  2  0  0  0
 25 27  1  0  0  0
 25 29  1  0  0  0
 22 20  1  0  0  0
  3  5  1  0  0  0
  3  2  1  0  0  0
 20 19  1  0  0  0
 24 23  1  0  0  0
 19 18  1  0  0  0
 18 17  1  0  0  0
 27 28  1  0  0  0
 17 16  1  0  0  0
 29 30  1  0  0  0
 16 15  1  0  0  0
 34 35  1  0  0  0
 34 36  1  0  0  0
 15 14  1  0  0  0
 31 32  1  0  0  0
 31 33  1  0  0  0
 14 13  1  0  0  0
 37  1  1  0  0  0
 37 39  1  0  0  0
 13 12  1  0  0  0
 38 39  2  0  0  0
 12 11  1  0  0  0
 11 10  1  0  0  0
 10  9  1  0  0  0
  9  8  1  0  0  0
  8  7  1  0  0  0
  7  6  1  0  0  0
  6  5  1  0  0  0
  2  1  1  0  0  0
  1 23  1  0  0  0
 30 32  1  0  0  0
 32 35  1  0  0  0
 39 40  1  0  0  0
 40 41  1  0  0  0
 41 42  1  0  0  0
 42 43  1  0  0  0
 43 44  1  0  0  0
 44 45  1  0  0  0
 45 46  1  0  0  0
 46 47  1  0  0  0
 47 48  2  0  0  0
 48 49  1  0  0  0
 49 50  1  0  0  0
 50 51  1  0  0  0
 51 52  1  0  0  0
 52 53  1  0  0  0
 53 54  1  0  0  0
 54 55  1  0  0  0
 55 56  1  0  0  0
M  CHG 1  26  -1
M  END
> <minimizedAffinity>
-7.38923

> <CNNscore>
0.2203409076

> <CNNaffinity>
6.8152952194

> <CNN_VS>
1.5016883612

> <CNNaffinity_variance>
1.1015504599

$$$$
/media/chris/experiments/cd1a-new-docking/inputs/ligands/7sh4_ligand.pdb


 56 55  0  0  0  0  0  0  0  0999 V2000
  -41.1249   60.0883   65.2647 C   0  0  0  0  0  0  0  0  0  0  0  0
  -42.1326   60.9535   65.9674 C   0  0  0  0  0  0  0  0  0  0  0  0
  -42.5087   61.9296   64.9730 O   0  0  0  0  0  0  0  0  0  0  0  0
  -42.9014   61.2139   62.8915 O   0  0  0  0  0  0  0  0  0  0  0  0
  -43.3004   61.5113   63.9851 C   0  0  0  0  0  0  0  0  0  0  0  0
  -44.7160   61.3447   64.4577 C   0  0  0  0  0  0  0  0  0  0  0  0
  -45.1585   59.8977   64.5942 C   0  0  0  0  0  0  0  0  0  0  0  0
  -45.3702   59.4829   66.0350 C   0  0  0  0  0  0  0  0  0  0  0  0
  -46.8199   59.4468   66.4623 C   0  0  0  0  0  0  0  0  0  0  0  0
  -47.7844   59.5242   65.2961 C   0  0  0  0  0  0  0  0  0  0  0  0
  -48.5327   58.2355   65.0575 C   0  0  0  0  0  0  0  0  0  0  0  0
  -50.0251   58.3890   65.1864 C   0  0  0  0  0  0  0  0  0  0  0  0
  -50.4802   59.8313   65.2130 C   0  0  0  0  0  0  0  0  0  0  0  0
  -51.1769   60.2489   63.9339 C   0  0  0  0  0  0  0  0  0  0  0  0
  -50.9644   59.2972   62.7753 C   0  0  0  0  0  0  0  0  0  0  0  0
  -49.9510   59.7920   61.7495 C   0  0  0  0  0  0  0  0  0  0  0  0
  -49.0739   58.6976   61.1724 C   0  0  0  0  0  0  0  0  0  0  0  0
  -49.8216   57.7433   60.2638 C   0  0  0  0  0  0  0  0  0  0  0  0
  -49.1226   56.4038   60.0779 C   0  0  0  0  0  0  0  0  0  0  0  0
  -48.0641   56.4165   58.9895 C   0  0  0  0  0  0  0  0  0  0  0  0
  -47.1267   58.1883   57.4670 C   0  0  0  0  0  0  0  0  0  0  0  0
  -48.3421   57.3724   57.8448 C   0  0  0  0  0  0  0  0  0  0  0  0
  -41.5069   58.6307   65.3010 C   0  0  0  0  0  0  0  0  0  0  0  0
  -40.7453   57.9252   64.2958 O   0  0  0  0  0  0  0  0  0  0  0  0
  -41.2295   57.7911   62.7761 P   0  0  0  0  0  0  0  0  0  0  0  0
  -40.9163   56.4213   62.3149 O   0  0  0  0  0  0  0  0  0  0  0  0
  -42.6315   58.2669   62.6947 O   0  0  0  0  0  0  0  0  0  0  0  0
  -43.2071   57.6636   63.1903 H   0  0  0  0  0  0  0  0  0  0  0  0
  -40.3186   58.8072   61.9512 O   0  0  0  0  0  0  0  0  0  0  0  0
  -40.2498   58.7109   60.5139 C   0  0  0  0  0  0  0  0  0  0  0  0
  -38.6234   58.5344   58.7628 O   0  0  0  0  0  0  0  0  0  0  0  0
  -38.8746   58.2183   60.1353 C   0  0  0  0  0  0  0  0  0  0  0  0
  -39.3237   58.1539   58.2099 H   0  0  0  0  0  0  0  0  0  0  0  0
  -38.0032   60.1962   61.2062 O   0  0  0  0  0  0  0  0  0  0  0  0
  -37.7930   58.8035   61.0113 C   0  0  0  0  0  0  0  0  0  0  0  0
  -37.2997   60.5536   61.7702 H   0  0  0  0  0  0  0  0  0  0  0  0
  -39.8122   60.3195   65.8756 O   0  0  0  0  0  0  0  0  0  0  0  0
  -38.7962   61.2459   64.0951 O   0  0  0  0  0  0  0  0  0  0  0  0
  -38.7731   60.5034   65.0386 C   0  0  0  0  0  0  0  0  0  0  0  0
  -37.5824   59.6868   65.4354 C   0  0  0  0  0  0  0  0  0  0  0  0
  -37.4566   58.4299   64.5804 C   0  0  0  0  0  0  0  0  0  0  0  0
  -36.2426   57.5778   64.9120 C   0  0  0  0  0  0  0  0  0  0  0  0
  -35.0119   57.9197   64.0801 C   0  0  0  0  0  0  0  0  0  0  0  0
  -33.8034   58.3245   64.9037 C   0  0  0  0  0  0  0  0  0  0  0  0
  -32.6688   58.9634   64.0979 C   0  0  0  0  0  0  0  0  0  0  0  0
  -33.0773   59.5374   62.7396 C   0  0  0  0  0  0  0  0  0  0  0  0
  -31.9109   60.1181   61.9978 C   0  0  0  0  0  0  0  0  0  0  0  0
  -31.5947   61.3949   61.9029 C   0  0  0  0  0  0  0  0  0  0  0  0
  -32.3382   62.5366   62.5210 C   0  0  0  0  0  0  0  0  0  0  0  0
  -31.4090   63.5318   63.2100 C   0  0  0  0  0  0  0  0  0  0  0  0
  -32.0610   64.8716   63.5038 C   0  0  0  0  0  0  0  0  0  0  0  0
  -31.8163   65.3721   64.9170 C   0  0  0  0  0  0  0  0  0  0  0  0
  -32.2433   64.4062   66.0097 C   0  0  0  0  0  0  0  0  0  0  0  0
  -33.7413   64.1436   66.0346 C   0  0  0  0  0  0  0  0  0  0  0  0
  -34.1189   62.7313   66.4356 C   0  0  0  0  0  0  0  0  0  0  0  0
  -34.6279   61.9153   65.2804 C   0  0  0  0  0  0  0  0  0  0  0  0
 21 22  1  0  0  0
  4  5  2  0  0  0
 25 24  1  0  0  0
 25 26  2  0  0  0
 25 27  1  0  0  0
 25 29  1  0  0  0
 22 20  1  0  0  0
  3  5  1  0  0  0
  3  2  1  0  0  0
 20 19  1  0  0  0
 24 23  1  0  0  0
 19 18  1  0  0  0
 18 17  1  0  0  0
 27 28  1  0  0  0
 17 16  1  0  0  0
 29 30  1  0  0  0
 16 15  1  0  0  0
 34 35  1  0  0  0
 34 36  1  0  0  0
 15 14  1  0  0  0
 31 32  1  0  0  0
 31 33  1  0  0  0
 14 13  1  0  0  0
 37  1  1  0  0  0
 37 39  1  0  0  0
 13 12  1  0  0  0
 38 39  2  0  0  0
 12 11  1  0  0  0
 11 10  1  0  0  0
 10  9  1  0  0  0
  9  8  1  0  0  0
  8  7  1  0  0  0
  7  6  1  0  0  0
  6  5  1  0  0  0
  2  1  1  0  0  0
  1 23  1  0  0  0
 30 32  1  0  0  0
 32 35  1  0  0  0
 39 40  1  0  0  0
 40 41  1  0  0  0
 41 42  1  0  0  0
 42 43  1  0  0  0
 43 44  1  0  0  0
 44 45  1  0  0  0
 45 46  1  0  0  0
 46 47  1  0  0  0
 47 48  2  0  0  0
 48 49  1  0  0  0
 49 50  1  0  0  0
 50 51  1  0  0  0
 51 52  1  0  0  0
 52 53  1  0  0  0
 53 54  1  0  0  0
 54 55  1  0  0  0
 55 56  1  0  0  0
M  CHG 1  26  -1
M  END
> <minimizedAffinity>
-8.04686

> <CNNscore>
0.2127390951

> <CNNaffinity>
6.6813459396

> <CNN_VS>
1.4213835001

> <CNNaffinity_variance>
0.8761631250

$$$$
/media/chris/experiments/cd1a-new-docking/inputs/ligands/7sh4_ligand.pdb


 56 55  0  0  0  0  0  0  0  0999 V2000
  -40.1793   57.3158   61.6620 C   0  0  0  0  0  0  0  0  0  0  0  0
  -41.0111   56.1520   62.1216 C   0  0  0  0  0  0  0  0  0  0  0  0
  -42.0266   56.7545   62.9515 O   0  0  0  0  0  0  0  0  0  0  0  0
  -41.5088   55.4199   64.6690 O   0  0  0  0  0  0  0  0  0  0  0  0
  -42.0372   56.4098   64.2394 C   0  0  0  0  0  0  0  0  0  0  0  0
  -42.6794   57.4748   65.0810 C   0  0  0  0  0  0  0  0  0  0  0  0
  -44.0134   57.9678   64.5464 C   0  0  0  0  0  0  0  0  0  0  0  0
  -45.0674   58.0934   65.6263 C   0  0  0  0  0  0  0  0  0  0  0  0
  -45.3132   59.5114   66.0896 C   0  0  0  0  0  0  0  0  0  0  0  0
  -46.0383   60.3546   65.0604 C   0  0  0  0  0  0  0  0  0  0  0  0
  -47.3349   59.7386   64.5946 C   0  0  0  0  0  0  0  0  0  0  0  0
  -48.5447   60.5408   64.9946 C   0  0  0  0  0  0  0  0  0  0  0  0
  -49.5812   59.7317   65.7424 C   0  0  0  0  0  0  0  0  0  0  0  0
  -50.4467   58.8953   64.8219 C   0  0  0  0  0  0  0  0  0  0  0  0
  -51.0317   59.6644   63.6559 C   0  0  0  0  0  0  0  0  0  0  0  0
  -50.8706   58.9628   62.3122 C   0  0  0  0  0  0  0  0  0  0  0  0
  -49.4730   59.0580   61.7311 C   0  0  0  0  0  0  0  0  0  0  0  0
  -49.4580   59.3128   60.2378 C   0  0  0  0  0  0  0  0  0  0  0  0
  -49.2271   58.0583   59.4068 C   0  0  0  0  0  0  0  0  0  0  0  0
  -48.1228   58.2071   58.3757 C   0  0  0  0  0  0  0  0  0  0  0  0
  -47.1908   56.1918   57.1899 C   0  0  0  0  0  0  0  0  0  0  0  0
  -47.0848   57.1009   58.3932 C   0  0  0  0  0  0  0  0  0  0  0  0
  -40.2729   57.5254   60.1724 C   0  0  0  0  0  0  0  0  0  0  0  0
  -41.0053   58.7452   59.9194 O   0  0  0  0  0  0  0  0  0  0  0  0
  -40.3367   60.1958   60.0235 P   0  0  0  0  0  0  0  0  0  0  0  0
  -38.8734   60.0369   59.8805 O   0  0  0  0  0  0  0  0  0  0  0  0
  -41.0495   61.1006   59.0897 O   0  0  0  0  0  0  0  0  0  0  0  0
  -40.8839   60.8185   58.1765 H   0  0  0  0  0  0  0  0  0  0  0  0
  -40.6340   60.6924   61.5093 O   0  0  0  0  0  0  0  0  0  0  0  0
  -41.9026   60.3971   62.1285 C   0  0  0  0  0  0  0  0  0  0  0  0
  -40.4980   61.2385   63.8782 O   0  0  0  0  0  0  0  0  0  0  0  0
  -41.8211   60.7791   63.5860 C   0  0  0  0  0  0  0  0  0  0  0  0
  -39.8564   60.5535   63.6332 H   0  0  0  0  0  0  0  0  0  0  0  0
  -42.8630   62.0238   65.3702 O   0  0  0  0  0  0  0  0  0  0  0  0
  -42.8338   61.8342   63.9613 C   0  0  0  0  0  0  0  0  0  0  0  0
  -43.5182   62.7040   65.5914 H   0  0  0  0  0  0  0  0  0  0  0  0
  -38.7953   57.0923   62.0917 O   0  0  0  0  0  0  0  0  0  0  0  0
  -38.9433   58.7995   63.5490 O   0  0  0  0  0  0  0  0  0  0  0  0
  -38.3030   57.9292   63.0251 C   0  0  0  0  0  0  0  0  0  0  0  0
  -36.8703   57.6330   63.3438 C   0  0  0  0  0  0  0  0  0  0  0  0
  -35.9289   58.2610   62.3211 C   0  0  0  0  0  0  0  0  0  0  0  0
  -34.4624   57.9349   62.5514 C   0  0  0  0  0  0  0  0  0  0  0  0
  -33.6351   59.1327   63.0035 C   0  0  0  0  0  0  0  0  0  0  0  0
  -33.6677   59.3751   64.5011 C   0  0  0  0  0  0  0  0  0  0  0  0
  -34.2354   60.7362   64.9135 C   0  0  0  0  0  0  0  0  0  0  0  0
  -35.7623   60.8352   64.9045 C   0  0  0  0  0  0  0  0  0  0  0  0
  -36.2391   62.1683   64.4113 C   0  0  0  0  0  0  0  0  0  0  0  0
  -36.3179   63.2841   65.1099 C   0  0  0  0  0  0  0  0  0  0  0  0
  -35.9441   63.4529   66.5487 C   0  0  0  0  0  0  0  0  0  0  0  0
  -34.7945   64.4380   66.7400 C   0  0  0  0  0  0  0  0  0  0  0  0
  -33.4242   63.7833   66.7378 C   0  0  0  0  0  0  0  0  0  0  0  0
  -32.5922   64.1142   65.5108 C   0  0  0  0  0  0  0  0  0  0  0  0
  -32.8422   65.4981   64.9350 C   0  0  0  0  0  0  0  0  0  0  0  0
  -33.2000   65.4835   63.4567 C   0  0  0  0  0  0  0  0  0  0  0  0
  -33.5957   64.1199   62.9258 C   0  0  0  0  0  0  0  0  0  0  0  0
  -34.0310   64.1598   61.4875 C   0  0  0  0  0  0  0  0  0  0  0  0
 21 22  1  0  0  0
  4  5  2  0  0  0
 25 24  1  0  0  0
 25 26  2  0  0  0
 25 27  1  0  0  0
 25 29  1  0  0  0
 22 20  1  0  0  0
  3  5  1  0  0  0
  3  2  1  0  0  0
 20 19  1  0  0  0
 24 23  1  0  0  0
 19 18  1  0  0  0
 18 17  1  0  0  0
 27 28  1  0  0  0
 17 16  1  0  0  0
 29 30  1  0  0  0
 16 15  1  0  0  0
 34 35  1  0  0  0
 34 36  1  0  0  0
 15 14  1  0  0  0
 31 32  1  0  0  0
 31 33  1  0  0  0
 14 13  1  0  0  0
 37  1  1  0  0  0
 37 39  1  0  0  0
 13 12  1  0  0  0
 38 39  2  0  0  0
 12 11  1  0  0  0
 11 10  1  0  0  0
 10  9  1  0  0  0
  9  8  1  0  0  0
  8  7  1  0  0  0
  7  6  1  0  0  0
  6  5  1  0  0  0
  2  1  1  0  0  0
  1 23  1  0  0  0
 30 32  1  0  0  0
 32 35  1  0  0  0
 39 40  1  0  0  0
 40 41  1  0  0  0
 41 42  1  0  0  0
 42 43  1  0  0  0
 43 44  1  0  0  0
 44 45  1  0  0  0
 45 46  1  0  0  0
 46 47  1  0  0  0
 47 48  2  0  0  0
 48 49  1  0  0  0
 49 50  1  0  0  0
 50 51  1  0  0  0
 51 52  1  0  0  0
 52 53  1  0  0  0
 53 54  1  0  0  0
 54 55  1  0  0  0
 55 56  1  0  0  0
M  CHG 1  26  -1
M  END
> <minimizedAffinity>
-7.79233

> <CNNscore>
0.2075675875

> <CNNaffinity>
6.9360094070

> <CNN_VS>
1.4396907091

> <CNNaffinity_variance>
1.1189731359

$$$$
