/media/chris/experiments/cd1a-new-docking/inputs/ligands/7sh4_ligand.pdb


 56 55  0  0  0  0  0  0  0  0999 V2000
  -40.5045   60.4809   63.5728 C   0  0  0  0  0  0  0  0  0  0  0  0
  -40.9687   59.0560   63.6821 C   0  0  0  0  0  0  0  0  0  0  0  0
  -41.4590   58.7461   62.3605 O   0  0  0  0  0  0  0  0  0  0  0  0
  -41.1766   56.5485   62.6607 O   0  0  0  0  0  0  0  0  0  0  0  0
  -41.2868   57.4960   61.9300 C   0  0  0  0  0  0  0  0  0  0  0  0
  -41.3754   57.4206   60.4330 C   0  0  0  0  0  0  0  0  0  0  0  0
  -40.7585   58.6086   59.7142 C   0  0  0  0  0  0  0  0  0  0  0  0
  -39.4856   58.2510   58.9763 C   0  0  0  0  0  0  0  0  0  0  0  0
  -38.2937   59.1033   59.3485 C   0  0  0  0  0  0  0  0  0  0  0  0
  -38.0699   59.1896   60.8447 C   0  0  0  0  0  0  0  0  0  0  0  0
  -37.2050   58.0753   61.3812 C   0  0  0  0  0  0  0  0  0  0  0  0
  -37.6392   57.5962   62.7413 C   0  0  0  0  0  0  0  0  0  0  0  0
  -36.5533   57.6998   63.7891 C   0  0  0  0  0  0  0  0  0  0  0  0
  -35.1743   57.8794   63.1873 C   0  0  0  0  0  0  0  0  0  0  0  0
  -34.1204   58.3250   64.1793 C   0  0  0  0  0  0  0  0  0  0  0  0
  -32.7696   58.6363   63.5447 C   0  0  0  0  0  0  0  0  0  0  0  0
  -32.8477   59.5823   62.3619 C   0  0  0  0  0  0  0  0  0  0  0  0
  -31.5438   60.2992   62.0773 C   0  0  0  0  0  0  0  0  0  0  0  0
  -31.4929   61.7163   62.6313 C   0  0  0  0  0  0  0  0  0  0  0  0
  -32.8473   62.2487   63.0638 C   0  0  0  0  0  0  0  0  0  0  0  0
  -33.4815   63.9455   61.3160 C   0  0  0  0  0  0  0  0  0  0  0  0
  -33.0807   63.7156   62.7555 C   0  0  0  0  0  0  0  0  0  0  0  0
  -39.0697   60.6437   64.0045 C   0  0  0  0  0  0  0  0  0  0  0  0
  -38.6245   61.9717   63.6485 O   0  0  0  0  0  0  0  0  0  0  0  0
  -37.0816   62.3975   63.6452 P   0  0  0  0  0  0  0  0  0  0  0  0
  -36.2839   61.2248   63.2265 O   0  0  0  0  0  0  0  0  0  0  0  0
  -36.9524   63.6584   62.8759 O   0  0  0  0  0  0  0  0  0  0  0  0
  -37.1633   63.4916   61.9439 H   0  0  0  0  0  0  0  0  0  0  0  0
  -36.7275   62.7139   65.1674 O   0  0  0  0  0  0  0  0  0  0  0  0
  -36.0889   63.9592   65.5158 C   0  0  0  0  0  0  0  0  0  0  0  0
  -36.0765   62.8313   67.6301 O   0  0  0  0  0  0  0  0  0  0  0  0
  -35.3597   63.7704   66.8234 C   0  0  0  0  0  0  0  0  0  0  0  0
  -36.9889   63.1383   67.7502 H   0  0  0  0  0  0  0  0  0  0  0  0
  -33.2078   63.3896   67.8446 O   0  0  0  0  0  0  0  0  0  0  0  0
  -33.9360   63.3080   66.6260 C   0  0  0  0  0  0  0  0  0  0  0  0
  -32.2974   63.0889   67.6979 H   0  0  0  0  0  0  0  0  0  0  0  0
  -41.4072   61.3224   64.3646 O   0  0  0  0  0  0  0  0  0  0  0  0
  -42.7579   61.8566   62.6469 O   0  0  0  0  0  0  0  0  0  0  0  0
  -42.5985   61.6260   63.8145 C   0  0  0  0  0  0  0  0  0  0  0  0
  -43.7008   61.6233   64.8279 C   0  0  0  0  0  0  0  0  0  0  0  0
  -44.9690   60.9832   64.2724 C   0  0  0  0  0  0  0  0  0  0  0  0
  -45.1652   59.5365   64.6951 C   0  0  0  0  0  0  0  0  0  0  0  0
  -45.1019   59.3282   66.2038 C   0  0  0  0  0  0  0  0  0  0  0  0
  -46.3941   58.8131   66.8103 C   0  0  0  0  0  0  0  0  0  0  0  0
  -47.6234   58.9605   65.9091 C   0  0  0  0  0  0  0  0  0  0  0  0
  -48.6117   60.0508   66.3287 C   0  0  0  0  0  0  0  0  0  0  0  0
  -50.0364   59.6311   66.1235 C   0  0  0  0  0  0  0  0  0  0  0  0
  -50.7793   59.8609   65.0583 C   0  0  0  0  0  0  0  0  0  0  0  0
  -50.3517   60.5916   63.8248 C   0  0  0  0  0  0  0  0  0  0  0  0
  -50.8256   59.9045   62.5473 C   0  0  0  0  0  0  0  0  0  0  0  0
  -50.7113   58.3909   62.5910 C   0  0  0  0  0  0  0  0  0  0  0  0
  -49.8037   57.8167   61.5169 C   0  0  0  0  0  0  0  0  0  0  0  0
  -49.4493   58.7903   60.4052 C   0  0  0  0  0  0  0  0  0  0  0  0
  -49.4282   58.1519   59.0248 C   0  0  0  0  0  0  0  0  0  0  0  0
  -48.0937   57.5437   58.6411 C   0  0  0  0  0  0  0  0  0  0  0  0
  -47.3246   58.3947   57.6695 C   0  0  0  0  0  0  0  0  0  0  0  0
 21 22  1  0  0  0
  4  5  2  0  0  0
 25 24  1  0  0  0
 25 26  2  0  0  0
 25 27  1  0  0  0
 25 29  1  0  0  0
 22 20  1  0  0  0
  3  5  1  0  0  0
  3  2  1  0  0  0
 20 19  1  0  0  0
 24 23  1  0  0  0
 19 18  1  0  0  0
 18 17  1  0  0  0
 27 28  1  0  0  0
 17 16  1  0  0  0
 29 30  1  0  0  0
 16 15  1  0  0  0
 34 35  1  0  0  0
 34 36  1  0  0  0
 15 14  1  0  0  0
 31 32  1  0  0  0
 31 33  1  0  0  0
 14 13  1  0  0  0
 37  1  1  0  0  0
 37 39  1  0  0  0
 13 12  1  0  0  0
 38 39  2  0  0  0
 12 11  1  0  0  0
 11 10  1  0  0  0
 10  9  1  0  0  0
  9  8  1  0  0  0
  8  7  1  0  0  0
  7  6  1  0  0  0
  6  5  1  0  0  0
  2  1  1  0  0  0
  1 23  1  0  0  0
 30 32  1  0  0  0
 32 35  1  0  0  0
 39 40  1  0  0  0
 40 41  1  0  0  0
 41 42  1  0  0  0
 42 43  1  0  0  0
 43 44  1  0  0  0
 44 45  1  0  0  0
 45 46  1  0  0  0
 46 47  1  0  0  0
 47 48  2  0  0  0
 48 49  1  0  0  0
 49 50  1  0  0  0
 50 51  1  0  0  0
 51 52  1  0  0  0
 52 53  1  0  0  0
 53 54  1  0  0  0
 54 55  1  0  0  0
 55 56  1  0  0  0
M  CHG 1  26  -1
M  END
> <minimizedAffinity>
-8.74819

> <CNNscore>
0.4568548203

> <CNNaffinity>
7.2686553001

> <CNN_VS>
3.3207201958

> <CNNaffinity_variance>
0.9420949221

$$$$
/media/chris/experiments/cd1a-new-docking/inputs/ligands/7sh4_ligand.pdb


 56 55  0  0  0  0  0  0  0  0999 V2000
  -40.3098   60.4928   63.7030 C   0  0  0  0  0  0  0  0  0  0  0  0
  -40.1482   59.9278   65.0859 C   0  0  0  0  0  0  0  0  0  0  0  0
  -40.4801   58.5315   64.9336 O   0  0  0  0  0  0  0  0  0  0  0  0
  -42.1587   58.4453   66.4080 O   0  0  0  0  0  0  0  0  0  0  0  0
  -41.6910   58.1504   65.3413 C   0  0  0  0  0  0  0  0  0  0  0  0
  -42.4258   57.4225   64.2528 C   0  0  0  0  0  0  0  0  0  0  0  0
  -41.8677   56.0439   63.9420 C   0  0  0  0  0  0  0  0  0  0  0  0
  -41.3429   55.9294   62.5263 C   0  0  0  0  0  0  0  0  0  0  0  0
  -41.4972   57.1891   61.7048 C   0  0  0  0  0  0  0  0  0  0  0  0
  -41.2289   56.9719   60.2293 C   0  0  0  0  0  0  0  0  0  0  0  0
  -41.1158   58.2595   59.4503 C   0  0  0  0  0  0  0  0  0  0  0  0
  -39.9856   59.1356   59.9225 C   0  0  0  0  0  0  0  0  0  0  0  0
  -38.6177   58.5783   59.5969 C   0  0  0  0  0  0  0  0  0  0  0  0
  -37.6817   58.5907   60.7884 C   0  0  0  0  0  0  0  0  0  0  0  0
  -37.9413   57.4848   61.7898 C   0  0  0  0  0  0  0  0  0  0  0  0
  -37.2852   57.7157   63.1464 C   0  0  0  0  0  0  0  0  0  0  0  0
  -35.7989   58.0075   63.0704 C   0  0  0  0  0  0  0  0  0  0  0  0
  -35.0735   57.7830   64.3814 C   0  0  0  0  0  0  0  0  0  0  0  0
  -33.7568   58.5396   64.4877 C   0  0  0  0  0  0  0  0  0  0  0  0
  -32.8048   58.2673   63.3368 C   0  0  0  0  0  0  0  0  0  0  0  0
  -32.1822   60.3292   62.0342 C   0  0  0  0  0  0  0  0  0  0  0  0
  -31.7645   59.3466   63.1046 C   0  0  0  0  0  0  0  0  0  0  0  0
  -39.0331   61.1081   63.1900 C   0  0  0  0  0  0  0  0  0  0  0  0
  -38.3874   61.8120   64.2745 O   0  0  0  0  0  0  0  0  0  0  0  0
  -36.8094   62.0759   64.3195 P   0  0  0  0  0  0  0  0  0  0  0  0
  -36.1794   60.9601   65.0578 O   0  0  0  0  0  0  0  0  0  0  0  0
  -36.3504   62.3661   62.9398 O   0  0  0  0  0  0  0  0  0  0  0  0
  -36.4514   61.5722   62.3917 H   0  0  0  0  0  0  0  0  0  0  0  0
  -36.6274   63.4023   65.1855 O   0  0  0  0  0  0  0  0  0  0  0  0
  -35.3669   64.1031   65.1757 C   0  0  0  0  0  0  0  0  0  0  0  0
  -36.0910   64.1950   67.4583 O   0  0  0  0  0  0  0  0  0  0  0  0
  -34.9554   64.3620   66.6042 C   0  0  0  0  0  0  0  0  0  0  0  0
  -36.8068   64.7789   67.1622 H   0  0  0  0  0  0  0  0  0  0  0  0
  -33.9748   62.1612   66.4897 O   0  0  0  0  0  0  0  0  0  0  0  0
  -33.8303   63.4596   67.0509 C   0  0  0  0  0  0  0  0  0  0  0  0
  -33.2441   61.5971   66.7876 H   0  0  0  0  0  0  0  0  0  0  0  0
  -41.4079   61.4641   63.7267 O   0  0  0  0  0  0  0  0  0  0  0  0
  -42.5663   60.4179   62.1069 O   0  0  0  0  0  0  0  0  0  0  0  0
  -42.5380   61.1241   63.0776 C   0  0  0  0  0  0  0  0  0  0  0  0
  -43.7537   61.7158   63.7212 C   0  0  0  0  0  0  0  0  0  0  0  0
  -44.3505   60.7728   64.7610 C   0  0  0  0  0  0  0  0  0  0  0  0
  -45.8535   60.5865   64.6335 C   0  0  0  0  0  0  0  0  0  0  0  0
  -46.4361   59.6140   65.6526 C   0  0  0  0  0  0  0  0  0  0  0  0
  -47.8461   59.1545   65.3310 C   0  0  0  0  0  0  0  0  0  0  0  0
  -48.9479   59.9091   66.0803 C   0  0  0  0  0  0  0  0  0  0  0  0
  -50.3768   59.4715   65.7511 C   0  0  0  0  0  0  0  0  0  0  0  0
  -50.9778   60.2888   64.6471 C   0  0  0  0  0  0  0  0  0  0  0  0
  -51.1592   59.9108   63.3967 C   0  0  0  0  0  0  0  0  0  0  0  0
  -50.8023   58.5789   62.8165 C   0  0  0  0  0  0  0  0  0  0  0  0
  -49.4991   58.6194   62.0238 C   0  0  0  0  0  0  0  0  0  0  0  0
  -49.5667   59.4941   60.7843 C   0  0  0  0  0  0  0  0  0  0  0  0
  -49.7381   58.7112   59.4940 C   0  0  0  0  0  0  0  0  0  0  0  0
  -49.1293   57.3190   59.5164 C   0  0  0  0  0  0  0  0  0  0  0  0
  -48.5146   56.9053   58.1881 C   0  0  0  0  0  0  0  0  0  0  0  0
  -47.0597   57.2991   58.0265 C   0  0  0  0  0  0  0  0  0  0  0  0
  -46.8684   58.4345   57.0600 C   0  0  0  0  0  0  0  0  0  0  0  0
 21 22  1  0  0  0
  4  5  2  0  0  0
 25 24  1  0  0  0
 25 26  2  0  0  0
 25 27  1  0  0  0
 25 29  1  0  0  0
 22 20  1  0  0  0
  3  5  1  0  0  0
  3  2  1  0  0  0
 20 19  1  0  0  0
 24 23  1  0  0  0
 19 18  1  0  0  0
 18 17  1  0  0  0
 27 28  1  0  0  0
 17 16  1  0  0  0
 29 30  1  0  0  0
 16 15  1  0  0  0
 34 35  1  0  0  0
 34 36  1  0  0  0
 15 14  1  0  0  0
 31 32  1  0  0  0
 31 33  1  0  0  0
 14 13  1  0  0  0
 37  1  1  0  0  0
 37 39  1  0  0  0
 13 12  1  0  0  0
 38 39  2  0  0  0
 12 11  1  0  0  0
 11 10  1  0  0  0
 10  9  1  0  0  0
  9  8  1  0  0  0
  8  7  1  0  0  0
  7  6  1  0  0  0
  6  5  1  0  0  0
  2  1  1  0  0  0
  1 23  1  0  0  0
 30 32  1  0  0  0
 32 35  1  0  0  0
 39 40  1  0  0  0
 40 41  1  0  0  0
 41 42  1  0  0  0
 42 43  1  0  0  0
 43 44  1  0  0  0
 44 45  1  0  0  0
 45 46  1  0  0  0
 46 47  1  0  0  0
 47 48  2  0  0  0
 48 49  1  0  0  0
 49 50  1  0  0  0
 50 51  1  0  0  0
 51 52  1  0  0  0
 52 53  1  0  0  0
 53 54  1  0  0  0
 54 55  1  0  0  0
 55 56  1  0  0  0
M  CHG 1  26  -1
M  END
> <minimizedAffinity>
-8.99224

> <CNNscore>
0.4152201712

> <CNNaffinity>
7.3793287277

> <CNN_VS>
3.0640461445

> <CNNaffinity_variance>
1.6161295176

$$$$
/media/chris/experiments/cd1a-new-docking/inputs/ligands/7sh4_ligand.pdb


 56 55  0  0  0  0  0  0  0  0999 V2000
  -41.1226   59.5725   64.9380 C   0  0  0  0  0  0  0  0  0  0  0  0
  -41.3948   60.6890   63.9700 C   0  0  0  0  0  0  0  0  0  0  0  0
  -40.8180   60.2252   62.7309 O   0  0  0  0  0  0  0  0  0  0  0  0
  -42.2851   61.4510   61.5715 O   0  0  0  0  0  0  0  0  0  0  0  0
  -41.3536   60.6926   61.6030 C   0  0  0  0  0  0  0  0  0  0  0  0
  -40.5662   60.2490   60.4039 C   0  0  0  0  0  0  0  0  0  0  0  0
  -41.0775   58.9689   59.7647 C   0  0  0  0  0  0  0  0  0  0  0  0
  -40.0403   57.8659   59.7505 C   0  0  0  0  0  0  0  0  0  0  0  0
  -39.5799   57.4310   61.1232 C   0  0  0  0  0  0  0  0  0  0  0  0
  -38.1020   57.6703   61.3569 C   0  0  0  0  0  0  0  0  0  0  0  0
  -37.7942   58.1742   62.7458 C   0  0  0  0  0  0  0  0  0  0  0  0
  -36.4951   57.6417   63.2904 C   0  0  0  0  0  0  0  0  0  0  0  0
  -35.2759   58.2143   62.6021 C   0  0  0  0  0  0  0  0  0  0  0  0
  -34.2244   58.6976   63.5802 C   0  0  0  0  0  0  0  0  0  0  0  0
  -32.8001   58.4722   63.1177 C   0  0  0  0  0  0  0  0  0  0  0  0
  -32.3023   59.5165   62.1248 C   0  0  0  0  0  0  0  0  0  0  0  0
  -31.0153   60.2008   62.5436 C   0  0  0  0  0  0  0  0  0  0  0  0
  -31.0695   61.7101   62.4238 C   0  0  0  0  0  0  0  0  0  0  0  0
  -32.4841   62.2727   62.4337 C   0  0  0  0  0  0  0  0  0  0  0  0
  -32.6801   63.4412   61.4843 C   0  0  0  0  0  0  0  0  0  0  0  0
  -31.9126   65.7288   60.7675 C   0  0  0  0  0  0  0  0  0  0  0  0
  -31.5377   64.4390   61.4615 C   0  0  0  0  0  0  0  0  0  0  0  0
  -39.7185   59.6256   65.4834 C   0  0  0  0  0  0  0  0  0  0  0  0
  -39.2717   61.0000   65.4847 O   0  0  0  0  0  0  0  0  0  0  0  0
  -37.8614   61.4541   64.8792 P   0  0  0  0  0  0  0  0  0  0  0  0
  -36.8464   60.4587   65.2864 O   0  0  0  0  0  0  0  0  0  0  0  0
  -38.0471   61.7321   63.4347 O   0  0  0  0  0  0  0  0  0  0  0  0
  -38.2593   60.9067   62.9713 H   0  0  0  0  0  0  0  0  0  0  0  0
  -37.5151   62.8323   65.6027 O   0  0  0  0  0  0  0  0  0  0  0  0
  -36.1978   63.4047   65.4720 C   0  0  0  0  0  0  0  0  0  0  0  0
  -36.0563   63.0803   67.8421 O   0  0  0  0  0  0  0  0  0  0  0  0
  -35.8148   64.0236   66.7939 C   0  0  0  0  0  0  0  0  0  0  0  0
  -36.9837   62.7973   67.8150 H   0  0  0  0  0  0  0  0  0  0  0  0
  -33.5817   63.5809   67.5913 O   0  0  0  0  0  0  0  0  0  0  0  0
  -34.3744   64.4754   66.8212 C   0  0  0  0  0  0  0  0  0  0  0  0
  -32.6615   63.8874   67.5970 H   0  0  0  0  0  0  0  0  0  0  0  0
  -41.3934   58.2996   64.2625 O   0  0  0  0  0  0  0  0  0  0  0  0
  -42.0221   56.1916   64.7331 O   0  0  0  0  0  0  0  0  0  0  0  0
  -42.0714   57.3694   64.9617 C   0  0  0  0  0  0  0  0  0  0  0  0
  -42.8777   57.9769   66.0676 C   0  0  0  0  0  0  0  0  0  0  0  0
  -44.3693   57.7201   65.8778 C   0  0  0  0  0  0  0  0  0  0  0  0
  -45.0407   58.6771   64.9065 C   0  0  0  0  0  0  0  0  0  0  0  0
  -45.7838   59.8186   65.5908 C   0  0  0  0  0  0  0  0  0  0  0  0
  -47.2320   59.9583   65.1594 C   0  0  0  0  0  0  0  0  0  0  0  0
  -47.9186   58.6382   64.7977 C   0  0  0  0  0  0  0  0  0  0  0  0
  -49.3669   58.5054   65.2738 C   0  0  0  0  0  0  0  0  0  0  0  0
  -50.0982   59.8135   65.2300 C   0  0  0  0  0  0  0  0  0  0  0  0
  -50.8691   60.2522   64.2540 C   0  0  0  0  0  0  0  0  0  0  0  0
  -51.1774   59.5306   62.9803 C   0  0  0  0  0  0  0  0  0  0  0  0
  -50.2004   59.8806   61.8616 C   0  0  0  0  0  0  0  0  0  0  0  0
  -49.3345   58.7134   61.4213 C   0  0  0  0  0  0  0  0  0  0  0  0
  -50.0159   57.7897   60.4265 C   0  0  0  0  0  0  0  0  0  0  0  0
  -49.5607   57.9682   58.9875 C   0  0  0  0  0  0  0  0  0  0  0  0
  -48.1567   58.5398   58.8629 C   0  0  0  0  0  0  0  0  0  0  0  0
  -47.4761   58.2354   57.5431 C   0  0  0  0  0  0  0  0  0  0  0  0
  -47.7671   56.8472   57.0452 C   0  0  0  0  0  0  0  0  0  0  0  0
 21 22  1  0  0  0
  4  5  2  0  0  0
 25 24  1  0  0  0
 25 26  2  0  0  0
 25 27  1  0  0  0
 25 29  1  0  0  0
 22 20  1  0  0  0
  3  5  1  0  0  0
  3  2  1  0  0  0
 20 19  1  0  0  0
 24 23  1  0  0  0
 19 18  1  0  0  0
 18 17  1  0  0  0
 27 28  1  0  0  0
 17 16  1  0  0  0
 29 30  1  0  0  0
 16 15  1  0  0  0
 34 35  1  0  0  0
 34 36  1  0  0  0
 15 14  1  0  0  0
 31 32  1  0  0  0
 31 33  1  0  0  0
 14 13  1  0  0  0
 37  1  1  0  0  0
 37 39  1  0  0  0
 13 12  1  0  0  0
 38 39  2  0  0  0
 12 11  1  0  0  0
 11 10  1  0  0  0
 10  9  1  0  0  0
  9  8  1  0  0  0
  8  7  1  0  0  0
  7  6  1  0  0  0
  6  5  1  0  0  0
  2  1  1  0  0  0
  1 23  1  0  0  0
 30 32  1  0  0  0
 32 35  1  0  0  0
 39 40  1  0  0  0
 40 41  1  0  0  0
 41 42  1  0  0  0
 42 43  1  0  0  0
 43 44  1  0  0  0
 44 45  1  0  0  0
 45 46  1  0  0  0
 46 47  1  0  0  0
 47 48  2  0  0  0
 48 49  1  0  0  0
 49 50  1  0  0  0
 50 51  1  0  0  0
 51 52  1  0  0  0
 52 53  1  0  0  0
 53 54  1  0  0  0
 54 55  1  0  0  0
 55 56  1  0  0  0
M  CHG 1  26  -1
M  END
> <minimizedAffinity>
-8.49522

> <CNNscore>
0.4088043571

> <CNNaffinity>
7.1824936867

> <CNN_VS>
2.9362347126

> <CNNaffinity_variance>
0.8727513552

$$$$
/media/chris/experiments/cd1a-new-docking/inputs/ligands/7sh4_ligand.pdb


 56 55  0  0  0  0  0  0  0  0999 V2000
  -42.9028   57.4829   64.8479 C   0  0  0  0  0  0  0  0  0  0  0  0
  -42.0402   56.3833   64.2962 C   0  0  0  0  0  0  0  0  0  0  0  0
  -41.5542   56.9149   63.0455 O   0  0  0  0  0  0  0  0  0  0  0  0
  -40.9517   54.8865   62.3230 O   0  0  0  0  0  0  0  0  0  0  0  0
  -41.2322   56.0331   62.0986 C   0  0  0  0  0  0  0  0  0  0  0  0
  -41.3894   56.6267   60.7284 C   0  0  0  0  0  0  0  0  0  0  0  0
  -40.7206   57.9803   60.5580 C   0  0  0  0  0  0  0  0  0  0  0  0
  -40.0314   58.1292   59.2181 C   0  0  0  0  0  0  0  0  0  0  0  0
  -38.5928   58.5852   59.3089 C   0  0  0  0  0  0  0  0  0  0  0  0
  -38.2194   59.1005   60.6841 C   0  0  0  0  0  0  0  0  0  0  0  0
  -37.1669   58.2618   61.3671 C   0  0  0  0  0  0  0  0  0  0  0  0
  -37.6824   57.5541   62.5924 C   0  0  0  0  0  0  0  0  0  0  0  0
  -36.8516   57.8135   63.8295 C   0  0  0  0  0  0  0  0  0  0  0  0
  -35.4102   58.1513   63.5064 C   0  0  0  0  0  0  0  0  0  0  0  0
  -34.7135   58.9703   64.5727 C   0  0  0  0  0  0  0  0  0  0  0  0
  -33.2283   58.6580   64.7169 C   0  0  0  0  0  0  0  0  0  0  0  0
  -32.5231   58.3954   63.4002 C   0  0  0  0  0  0  0  0  0  0  0  0
  -31.6423   59.5427   62.9497 C   0  0  0  0  0  0  0  0  0  0  0  0
  -32.4124   60.6860   62.3036 C   0  0  0  0  0  0  0  0  0  0  0  0
  -31.9019   62.0609   62.6960 C   0  0  0  0  0  0  0  0  0  0  0  0
  -32.9550   63.8754   61.3051 C   0  0  0  0  0  0  0  0  0  0  0  0
  -31.7260   63.0267   61.5395 C   0  0  0  0  0  0  0  0  0  0  0  0
  -42.2662   58.1606   66.0342 C   0  0  0  0  0  0  0  0  0  0  0  0
  -41.1470   58.9502   65.5735 O   0  0  0  0  0  0  0  0  0  0  0  0
  -41.2761   60.5001   65.1956 P   0  0  0  0  0  0  0  0  0  0  0  0
  -41.9303   60.5960   63.8729 O   0  0  0  0  0  0  0  0  0  0  0  0
  -41.8890   61.2063   66.3463 O   0  0  0  0  0  0  0  0  0  0  0  0
  -42.8036   60.9043   66.4611 H   0  0  0  0  0  0  0  0  0  0  0  0
  -39.7778   61.0236   65.0413 O   0  0  0  0  0  0  0  0  0  0  0  0
  -39.0888   60.8781   63.7827 C   0  0  0  0  0  0  0  0  0  0  0  0
  -37.6751   62.7442   63.2709 O   0  0  0  0  0  0  0  0  0  0  0  0
  -37.7088   61.4719   63.9244 C   0  0  0  0  0  0  0  0  0  0  0  0
  -37.9454   62.6395   62.3452 H   0  0  0  0  0  0  0  0  0  0  0  0
  -37.3911   62.9712   65.7870 O   0  0  0  0  0  0  0  0  0  0  0  0
  -37.2905   61.6163   65.3679 C   0  0  0  0  0  0  0  0  0  0  0  0
  -37.1187   63.0436   66.7151 H   0  0  0  0  0  0  0  0  0  0  0  0
  -44.2124   56.9167   65.1860 O   0  0  0  0  0  0  0  0  0  0  0  0
  -45.0790   57.4075   67.2030 O   0  0  0  0  0  0  0  0  0  0  0  0
  -44.9870   57.6291   66.0265 C   0  0  0  0  0  0  0  0  0  0  0  0
  -45.7039   58.7396   65.3228 C   0  0  0  0  0  0  0  0  0  0  0  0
  -47.1729   58.8021   65.7288 C   0  0  0  0  0  0  0  0  0  0  0  0
  -47.9808   57.5852   65.3086 C   0  0  0  0  0  0  0  0  0  0  0  0
  -49.4729   57.8630   65.1670 C   0  0  0  0  0  0  0  0  0  0  0  0
  -49.9338   59.1287   65.8659 C   0  0  0  0  0  0  0  0  0  0  0  0
  -50.7506   60.0799   64.9867 C   0  0  0  0  0  0  0  0  0  0  0  0
  -49.9576   61.2262   64.3554 C   0  0  0  0  0  0  0  0  0  0  0  0
  -48.9535   60.7353   63.3560 C   0  0  0  0  0  0  0  0  0  0  0  0
  -49.2078   60.0701   62.2459 C   0  0  0  0  0  0  0  0  0  0  0  0
  -50.5599   59.6660   61.7491 C   0  0  0  0  0  0  0  0  0  0  0  0
  -50.6970   58.1536   61.5993 C   0  0  0  0  0  0  0  0  0  0  0  0
  -49.3671   57.4290   61.4891 C   0  0  0  0  0  0  0  0  0  0  0  0
  -49.3436   56.3576   60.4127 C   0  0  0  0  0  0  0  0  0  0  0  0
  -48.5389   56.7241   59.1768 C   0  0  0  0  0  0  0  0  0  0  0  0
  -48.6615   58.1891   58.7867 C   0  0  0  0  0  0  0  0  0  0  0  0
  -47.5698   58.6785   57.8558 C   0  0  0  0  0  0  0  0  0  0  0  0
  -46.8199   57.5543   57.1973 C   0  0  0  0  0  0  0  0  0  0  0  0
 21 22  1  0  0  0
  4  5  2  0  0  0
 25 24  1  0  0  0
 25 26  2  0  0  0
 25 27  1  0  0  0
 25 29  1  0  0  0
 22 20  1  0  0  0
  3  5  1  0  0  0
  3  2  1  0  0  0
 20 19  1  0  0  0
 24 23  1  0  0  0
 19 18  1  0  0  0
 18 17  1  0  0  0
 27 28  1  0  0  0
 17 16  1  0  0  0
 29 30  1  0  0  0
 16 15  1  0  0  0
 34 35  1  0  0  0
 34 36  1  0  0  0
 15 14  1  0  0  0
 31 32  1  0  0  0
 31 33  1  0  0  0
 14 13  1  0  0  0
 37  1  1  0  0  0
 37 39  1  0  0  0
 13 12  1  0  0  0
 38 39  2  0  0  0
 12 11  1  0  0  0
 11 10  1  0  0  0
 10  9  1  0  0  0
  9  8  1  0  0  0
  8  7  1  0  0  0
  7  6  1  0  0  0
  6  5  1  0  0  0
  2  1  1  0  0  0
  1 23  1  0  0  0
 30 32  1  0  0  0
 32 35  1  0  0  0
 39 40  1  0  0  0
 40 41  1  0  0  0
 41 42  1  0  0  0
 42 43  1  0  0  0
 43 44  1  0  0  0
 44 45  1  0  0  0
 45 46  1  0  0  0
 46 47  1  0  0  0
 47 48  2  0  0  0
 48 49  1  0  0  0
 49 50  1  0  0  0
 50 51  1  0  0  0
 51 52  1  0  0  0
 52 53  1  0  0  0
 53 54  1  0  0  0
 54 55  1  0  0  0
 55 56  1  0  0  0
M  CHG 1  26  -1
M  END
> <minimizedAffinity>
-8.31224

> <CNNscore>
0.3652125001

> <CNNaffinity>
7.2297668457

> <CNN_VS>
2.6404011250

> <CNNaffinity_variance>
1.3153837919

$$$$
/media/chris/experiments/cd1a-new-docking/inputs/ligands/7sh4_ligand.pdb


 56 55  0  0  0  0  0  0  0  0999 V2000
  -37.3525   61.5023   64.6498 C   0  0  0  0  0  0  0  0  0  0  0  0
  -36.2032   60.7752   65.2885 C   0  0  0  0  0  0  0  0  0  0  0  0
  -35.0393   61.5057   64.8474 O   0  0  0  0  0  0  0  0  0  0  0  0
  -33.7193   61.3004   63.0544 O   0  0  0  0  0  0  0  0  0  0  0  0
  -34.1735   60.8519   64.0723 C   0  0  0  0  0  0  0  0  0  0  0  0
  -33.7550   59.5542   64.7012 C   0  0  0  0  0  0  0  0  0  0  0  0
  -33.3840   58.4715   63.7019 C   0  0  0  0  0  0  0  0  0  0  0  0
  -34.5831   57.9286   62.9535 C   0  0  0  0  0  0  0  0  0  0  0  0
  -35.6897   57.4148   63.8463 C   0  0  0  0  0  0  0  0  0  0  0  0
  -37.0668   57.8668   63.4045 C   0  0  0  0  0  0  0  0  0  0  0  0
  -37.0526   58.6272   62.1010 C   0  0  0  0  0  0  0  0  0  0  0  0
  -37.7605   57.9006   60.9881 C   0  0  0  0  0  0  0  0  0  0  0  0
  -38.2003   58.8097   59.8620 C   0  0  0  0  0  0  0  0  0  0  0  0
  -38.9173   60.0496   60.3566 C   0  0  0  0  0  0  0  0  0  0  0  0
  -40.4171   60.0202   60.1495 C   0  0  0  0  0  0  0  0  0  0  0  0
  -40.9281   58.7244   59.5298 C   0  0  0  0  0  0  0  0  0  0  0  0
  -41.7587   57.8757   60.4732 C   0  0  0  0  0  0  0  0  0  0  0  0
  -41.2744   56.4442   60.5794 C   0  0  0  0  0  0  0  0  0  0  0  0
  -41.1492   55.9471   62.0129 C   0  0  0  0  0  0  0  0  0  0  0  0
  -40.5146   56.9565   62.9529 C   0  0  0  0  0  0  0  0  0  0  0  0
  -42.5167   56.3736   64.3629 C   0  0  0  0  0  0  0  0  0  0  0  0
  -41.1614   57.0426   64.3223 C   0  0  0  0  0  0  0  0  0  0  0  0
  -37.0170   62.9413   64.3524 C   0  0  0  0  0  0  0  0  0  0  0  0
  -36.7203   63.0682   62.9437 O   0  0  0  0  0  0  0  0  0  0  0  0
  -36.0106   64.3601   62.3199 P   0  0  0  0  0  0  0  0  0  0  0  0
  -35.7089   64.0761   60.9003 O   0  0  0  0  0  0  0  0  0  0  0  0
  -36.8382   65.5456   62.6489 O   0  0  0  0  0  0  0  0  0  0  0  0
  -37.6886   65.4847   62.1862 H   0  0  0  0  0  0  0  0  0  0  0  0
  -34.6256   64.4984   63.0979 O   0  0  0  0  0  0  0  0  0  0  0  0
  -33.4100   64.7578   62.3666 C   0  0  0  0  0  0  0  0  0  0  0  0
  -32.8718   66.3293   64.0938 O   0  0  0  0  0  0  0  0  0  0  0  0
  -32.3582   65.2255   63.3424 C   0  0  0  0  0  0  0  0  0  0  0  0
  -33.1575   67.0292   63.4859 H   0  0  0  0  0  0  0  0  0  0  0  0
  -32.9793   63.7053   65.1092 O   0  0  0  0  0  0  0  0  0  0  0  0
  -31.9083   64.1255   64.2736 C   0  0  0  0  0  0  0  0  0  0  0  0
  -32.6713   62.9996   65.6991 H   0  0  0  0  0  0  0  0  0  0  0  0
  -38.5180   61.3891   65.5322 O   0  0  0  0  0  0  0  0  0  0  0  0
  -39.6647   60.3041   63.9297 O   0  0  0  0  0  0  0  0  0  0  0  0
  -39.5827   60.7167   65.0544 C   0  0  0  0  0  0  0  0  0  0  0  0
  -40.6414   60.5296   66.0966 C   0  0  0  0  0  0  0  0  0  0  0  0
  -41.9811   60.1541   65.4711 C   0  0  0  0  0  0  0  0  0  0  0  0
  -42.9342   61.3264   65.3059 C   0  0  0  0  0  0  0  0  0  0  0  0
  -43.8936   61.1713   64.1315 C   0  0  0  0  0  0  0  0  0  0  0  0
  -45.3353   60.9316   64.5400 C   0  0  0  0  0  0  0  0  0  0  0  0
  -45.7544   59.4589   64.5611 C   0  0  0  0  0  0  0  0  0  0  0  0
  -47.2323   59.1978   64.2622 C   0  0  0  0  0  0  0  0  0  0  0  0
  -48.0866   60.3965   64.5471 C   0  0  0  0  0  0  0  0  0  0  0  0
  -49.1123   60.8198   63.8342 C   0  0  0  0  0  0  0  0  0  0  0  0
  -49.6409   60.1870   62.5859 C   0  0  0  0  0  0  0  0  0  0  0  0
  -50.9025   59.3665   62.8383 C   0  0  0  0  0  0  0  0  0  0  0  0
  -51.0264   58.1477   61.9410 C   0  0  0  0  0  0  0  0  0  0  0  0
  -49.6897   57.5631   61.5182 C   0  0  0  0  0  0  0  0  0  0  0  0
  -49.5154   57.4117   60.0161 C   0  0  0  0  0  0  0  0  0  0  0  0
  -48.4379   56.4103   59.6293 C   0  0  0  0  0  0  0  0  0  0  0  0
  -47.7923   56.6795   58.2845 C   0  0  0  0  0  0  0  0  0  0  0  0
  -47.5429   58.1419   58.0414 C   0  0  0  0  0  0  0  0  0  0  0  0
 21 22  1  0  0  0
  4  5  2  0  0  0
 25 24  1  0  0  0
 25 26  2  0  0  0
 25 27  1  0  0  0
 25 29  1  0  0  0
 22 20  1  0  0  0
  3  5  1  0  0  0
  3  2  1  0  0  0
 20 19  1  0  0  0
 24 23  1  0  0  0
 19 18  1  0  0  0
 18 17  1  0  0  0
 27 28  1  0  0  0
 17 16  1  0  0  0
 29 30  1  0  0  0
 16 15  1  0  0  0
 34 35  1  0  0  0
 34 36  1  0  0  0
 15 14  1  0  0  0
 31 32  1  0  0  0
 31 33  1  0  0  0
 14 13  1  0  0  0
 37  1  1  0  0  0
 37 39  1  0  0  0
 13 12  1  0  0  0
 38 39  2  0  0  0
 12 11  1  0  0  0
 11 10  1  0  0  0
 10  9  1  0  0  0
  9  8  1  0  0  0
  8  7  1  0  0  0
  7  6  1  0  0  0
  6  5  1  0  0  0
  2  1  1  0  0  0
  1 23  1  0  0  0
 30 32  1  0  0  0
 32 35  1  0  0  0
 39 40  1  0  0  0
 40 41  1  0  0  0
 41 42  1  0  0  0
 42 43  1  0  0  0
 43 44  1  0  0  0
 44 45  1  0  0  0
 45 46  1  0  0  0
 46 47  1  0  0  0
 47 48  2  0  0  0
 48 49  1  0  0  0
 49 50  1  0  0  0
 50 51  1  0  0  0
 51 52  1  0  0  0
 52 53  1  0  0  0
 53 54  1  0  0  0
 54 55  1  0  0  0
 55 56  1  0  0  0
M  CHG 1  26  -1
M  END
> <minimizedAffinity>
-8.04170

> <CNNscore>
0.3228284717

> <CNNaffinity>
7.3354859352

> <CNN_VS>
2.3681037426

> <CNNaffinity_variance>
1.1206524372

$$$$
/media/chris/experiments/cd1a-new-docking/inputs/ligands/7sh4_ligand.pdb


 56 55  0  0  0  0  0  0  0  0999 V2000
  -39.9670   60.9861   64.8508 C   0  0  0  0  0  0  0  0  0  0  0  0
  -41.1030   60.8800   63.8731 C   0  0  0  0  0  0  0  0  0  0  0  0
  -42.0253   61.9062   64.2968 O   0  0  0  0  0  0  0  0  0  0  0  0
  -42.9622   61.4077   66.2648 O   0  0  0  0  0  0  0  0  0  0  0  0
  -43.0408   61.5235   65.0714 C   0  0  0  0  0  0  0  0  0  0  0  0
  -44.3067   61.3828   64.2762 C   0  0  0  0  0  0  0  0  0  0  0  0
  -44.9573   60.0139   64.3823 C   0  0  0  0  0  0  0  0  0  0  0  0
  -46.4354   60.0905   64.7018 C   0  0  0  0  0  0  0  0  0  0  0  0
  -46.7557   60.0006   66.1765 C   0  0  0  0  0  0  0  0  0  0  0  0
  -48.2358   60.1365   66.4716 C   0  0  0  0  0  0  0  0  0  0  0  0
  -49.0947   59.2186   65.6365 C   0  0  0  0  0  0  0  0  0  0  0  0
  -50.5382   59.6452   65.5889 C   0  0  0  0  0  0  0  0  0  0  0  0
  -51.0129   60.0025   64.1979 C   0  0  0  0  0  0  0  0  0  0  0  0
  -49.8841   60.4481   63.2905 C   0  0  0  0  0  0  0  0  0  0  0  0
  -49.8380   59.7250   61.9608 C   0  0  0  0  0  0  0  0  0  0  0  0
  -49.6640   58.2156   62.0861 C   0  0  0  0  0  0  0  0  0  0  0  0
  -50.2486   57.4296   60.9283 C   0  0  0  0  0  0  0  0  0  0  0  0
  -50.3029   58.2151   59.6340 C   0  0  0  0  0  0  0  0  0  0  0  0
  -49.3479   57.6993   58.5665 C   0  0  0  0  0  0  0  0  0  0  0  0
  -48.1310   56.9889   59.1318 C   0  0  0  0  0  0  0  0  0  0  0  0
  -47.0287   58.1497   57.1892 C   0  0  0  0  0  0  0  0  0  0  0  0
  -46.8628   57.1557   58.3163 C   0  0  0  0  0  0  0  0  0  0  0  0
  -38.6279   61.0279   64.1604 C   0  0  0  0  0  0  0  0  0  0  0  0
  -37.8486   62.1077   64.7218 O   0  0  0  0  0  0  0  0  0  0  0  0
  -36.6470   62.8115   63.9327 P   0  0  0  0  0  0  0  0  0  0  0  0
  -36.4979   62.1341   62.6267 O   0  0  0  0  0  0  0  0  0  0  0  0
  -36.8765   64.2762   63.9533 O   0  0  0  0  0  0  0  0  0  0  0  0
  -37.6683   64.4867   63.4340 H   0  0  0  0  0  0  0  0  0  0  0  0
  -35.3404   62.5082   64.7949 O   0  0  0  0  0  0  0  0  0  0  0  0
  -35.3544   62.7130   66.2225 C   0  0  0  0  0  0  0  0  0  0  0  0
  -33.5782   63.3275   67.7091 O   0  0  0  0  0  0  0  0  0  0  0  0
  -34.3198   63.7572   66.5636 C   0  0  0  0  0  0  0  0  0  0  0  0
  -34.1887   63.1507   68.4419 H   0  0  0  0  0  0  0  0  0  0  0  0
  -33.9202   65.0437   64.5627 O   0  0  0  0  0  0  0  0  0  0  0  0
  -33.3843   64.0372   65.4120 C   0  0  0  0  0  0  0  0  0  0  0  0
  -33.3061   65.2093   63.8304 H   0  0  0  0  0  0  0  0  0  0  0  0
  -40.0583   59.8621   65.7880 O   0  0  0  0  0  0  0  0  0  0  0  0
  -39.4447   58.0134   64.6629 O   0  0  0  0  0  0  0  0  0  0  0  0
  -40.2754   58.6425   65.2595 C   0  0  0  0  0  0  0  0  0  0  0  0
  -41.6681   58.1583   65.5205 C   0  0  0  0  0  0  0  0  0  0  0  0
  -41.8292   56.6895   65.1419 C   0  0  0  0  0  0  0  0  0  0  0  0
  -42.2718   56.4684   63.7048 C   0  0  0  0  0  0  0  0  0  0  0  0
  -42.8100   57.7260   63.0322 C   0  0  0  0  0  0  0  0  0  0  0  0
  -42.0522   58.1288   61.7807 C   0  0  0  0  0  0  0  0  0  0  0  0
  -41.0090   57.1102   61.3126 C   0  0  0  0  0  0  0  0  0  0  0  0
  -40.6784   57.1556   59.8193 C   0  0  0  0  0  0  0  0  0  0  0  0
  -40.4101   58.5514   59.3423 C   0  0  0  0  0  0  0  0  0  0  0  0
  -39.2536   59.1847   59.3713 C   0  0  0  0  0  0  0  0  0  0  0  0
  -37.9605   58.6380   59.8882 C   0  0  0  0  0  0  0  0  0  0  0  0
  -37.7341   58.9714   61.3600 C   0  0  0  0  0  0  0  0  0  0  0  0
  -37.0717   57.8519   62.1435 C   0  0  0  0  0  0  0  0  0  0  0  0
  -35.9380   58.3219   63.0385 C   0  0  0  0  0  0  0  0  0  0  0  0
  -34.5505   58.1365   62.4471 C   0  0  0  0  0  0  0  0  0  0  0  0
  -33.4431   58.1332   63.4898 C   0  0  0  0  0  0  0  0  0  0  0  0
  -32.3636   59.1710   63.2541 C   0  0  0  0  0  0  0  0  0  0  0  0
  -32.9197   60.5528   63.0514 C   0  0  0  0  0  0  0  0  0  0  0  0
 21 22  1  0  0  0
  4  5  2  0  0  0
 25 24  1  0  0  0
 25 26  2  0  0  0
 25 27  1  0  0  0
 25 29  1  0  0  0
 22 20  1  0  0  0
  3  5  1  0  0  0
  3  2  1  0  0  0
 20 19  1  0  0  0
 24 23  1  0  0  0
 19 18  1  0  0  0
 18 17  1  0  0  0
 27 28  1  0  0  0
 17 16  1  0  0  0
 29 30  1  0  0  0
 16 15  1  0  0  0
 34 35  1  0  0  0
 34 36  1  0  0  0
 15 14  1  0  0  0
 31 32  1  0  0  0
 31 33  1  0  0  0
 14 13  1  0  0  0
 37  1  1  0  0  0
 37 39  1  0  0  0
 13 12  1  0  0  0
 38 39  2  0  0  0
 12 11  1  0  0  0
 11 10  1  0  0  0
 10  9  1  0  0  0
  9  8  1  0  0  0
  8  7  1  0  0  0
  7  6  1  0  0  0
  6  5  1  0  0  0
  2  1  1  0  0  0
  1 23  1  0  0  0
 30 32  1  0  0  0
 32 35  1  0  0  0
 39 40  1  0  0  0
 40 41  1  0  0  0
 41 42  1  0  0  0
 42 43  1  0  0  0
 43 44  1  0  0  0
 44 45  1  0  0  0
 45 46  1  0  0  0
 46 47  1  0  0  0
 47 48  2  0  0  0
 48 49  1  0  0  0
 49 50  1  0  0  0
 50 51  1  0  0  0
 51 52  1  0  0  0
 52 53  1  0  0  0
 53 54  1  0  0  0
 54 55  1  0  0  0
 55 56  1  0  0  0
M  CHG 1  26  -1
M  END
> <minimizedAffinity>
-8.37785

> <CNNscore>
0.3193973601

> <CNNaffinity>
7.3923134804

> <CNN_VS>
2.3610854149

> <CNNaffinity_variance>
1.1711841822

$$$$
/media/chris/experiments/cd1a-new-docking/inputs/ligands/7sh4_ligand.pdb


 56 55  0  0  0  0  0  0  0  0999 V2000
  -39.8733   60.2504   64.9864 C   0  0  0  0  0  0  0  0  0  0  0  0
  -39.8560   58.7969   65.3668 C   0  0  0  0  0  0  0  0  0  0  0  0
  -40.4323   58.1300   64.2239 O   0  0  0  0  0  0  0  0  0  0  0  0
  -41.9929   57.2004   65.5276 O   0  0  0  0  0  0  0  0  0  0  0  0
  -41.4634   57.3169   64.4554 C   0  0  0  0  0  0  0  0  0  0  0  0
  -41.9434   56.6745   63.1859 C   0  0  0  0  0  0  0  0  0  0  0  0
  -41.9963   57.6166   61.9951 C   0  0  0  0  0  0  0  0  0  0  0  0
  -41.2532   57.0803   60.7898 C   0  0  0  0  0  0  0  0  0  0  0  0
  -41.4724   57.8755   59.5228 C   0  0  0  0  0  0  0  0  0  0  0  0
  -40.4655   58.9934   59.3421 C   0  0  0  0  0  0  0  0  0  0  0  0
  -39.0761   58.4961   59.0264 C   0  0  0  0  0  0  0  0  0  0  0  0
  -38.0168   59.1163   59.8988 C   0  0  0  0  0  0  0  0  0  0  0  0
  -38.3261   59.0235   61.3765 C   0  0  0  0  0  0  0  0  0  0  0  0
  -37.9377   57.6858   61.9731 C   0  0  0  0  0  0  0  0  0  0  0  0
  -36.5329   57.6452   62.5370 C   0  0  0  0  0  0  0  0  0  0  0  0
  -36.4728   57.7980   64.0526 C   0  0  0  0  0  0  0  0  0  0  0  0
  -35.0639   57.8657   64.6098 C   0  0  0  0  0  0  0  0  0  0  0  0
  -34.0214   58.2202   63.5692 C   0  0  0  0  0  0  0  0  0  0  0  0
  -32.6741   58.6077   64.1626 C   0  0  0  0  0  0  0  0  0  0  0  0
  -31.7382   59.2676   63.1657 C   0  0  0  0  0  0  0  0  0  0  0  0
  -32.5338   61.6472   62.9652 C   0  0  0  0  0  0  0  0  0  0  0  0
  -32.3902   60.3091   62.2762 C   0  0  0  0  0  0  0  0  0  0  0  0
  -38.6947   60.9984   65.5546 C   0  0  0  0  0  0  0  0  0  0  0  0
  -38.0147   61.6821   64.4782 O   0  0  0  0  0  0  0  0  0  0  0  0
  -36.4204   61.7130   64.3405 P   0  0  0  0  0  0  0  0  0  0  0  0
  -35.8445   61.0706   65.5416 O   0  0  0  0  0  0  0  0  0  0  0  0
  -36.0618   61.1774   63.0052 O   0  0  0  0  0  0  0  0  0  0  0  0
  -36.2942   60.2367   62.9611 H   0  0  0  0  0  0  0  0  0  0  0  0
  -36.0235   63.2571   64.3717 O   0  0  0  0  0  0  0  0  0  0  0  0
  -36.6672   64.1857   63.4755 C   0  0  0  0  0  0  0  0  0  0  0  0
  -34.4286   65.0078   63.7114 O   0  0  0  0  0  0  0  0  0  0  0  0
  -35.6181   65.1199   62.9244 C   0  0  0  0  0  0  0  0  0  0  0  0
  -34.6384   65.1859   64.6416 H   0  0  0  0  0  0  0  0  0  0  0  0
  -34.6477   63.5956   61.3265 O   0  0  0  0  0  0  0  0  0  0  0  0
  -35.3098   64.8455   61.4720 C   0  0  0  0  0  0  0  0  0  0  0  0
  -34.4584   63.4374   60.3884 H   0  0  0  0  0  0  0  0  0  0  0  0
  -41.1461   60.8283   65.4291 O   0  0  0  0  0  0  0  0  0  0  0  0
  -41.6942   61.6301   63.4001 O   0  0  0  0  0  0  0  0  0  0  0  0
  -42.0188   61.1907   64.4693 C   0  0  0  0  0  0  0  0  0  0  0  0
  -43.4384   60.9633   64.8877 C   0  0  0  0  0  0  0  0  0  0  0  0
  -44.0411   59.7515   64.1839 C   0  0  0  0  0  0  0  0  0  0  0  0
  -45.4945   59.4898   64.5434 C   0  0  0  0  0  0  0  0  0  0  0  0
  -45.6691   58.6439   65.7994 C   0  0  0  0  0  0  0  0  0  0  0  0
  -46.7523   59.1462   66.7359 C   0  0  0  0  0  0  0  0  0  0  0  0
  -47.7270   60.1444   66.1047 C   0  0  0  0  0  0  0  0  0  0  0  0
  -49.2062   59.7676   66.2127 C   0  0  0  0  0  0  0  0  0  0  0  0
  -49.5324   58.5299   65.4320 C   0  0  0  0  0  0  0  0  0  0  0  0
  -50.1075   58.4756   64.2463 C   0  0  0  0  0  0  0  0  0  0  0  0
  -50.5553   59.6452   63.4280 C   0  0  0  0  0  0  0  0  0  0  0  0
  -50.3092   59.4404   61.9360 C   0  0  0  0  0  0  0  0  0  0  0  0
  -50.7478   58.0785   61.4273 C   0  0  0  0  0  0  0  0  0  0  0  0
  -50.1862   57.7282   60.0602 C   0  0  0  0  0  0  0  0  0  0  0  0
  -49.0928   56.6729   60.0800 C   0  0  0  0  0  0  0  0  0  0  0  0
  -47.8038   57.1236   59.4100 C   0  0  0  0  0  0  0  0  0  0  0  0
  -47.9699   58.3018   58.4709 C   0  0  0  0  0  0  0  0  0  0  0  0
  -47.0398   58.2411   57.2915 C   0  0  0  0  0  0  0  0  0  0  0  0
 21 22  1  0  0  0
  4  5  2  0  0  0
 25 24  1  0  0  0
 25 26  2  0  0  0
 25 27  1  0  0  0
 25 29  1  0  0  0
 22 20  1  0  0  0
  3  5  1  0  0  0
  3  2  1  0  0  0
 20 19  1  0  0  0
 24 23  1  0  0  0
 19 18  1  0  0  0
 18 17  1  0  0  0
 27 28  1  0  0  0
 17 16  1  0  0  0
 29 30  1  0  0  0
 16 15  1  0  0  0
 34 35  1  0  0  0
 34 36  1  0  0  0
 15 14  1  0  0  0
 31 32  1  0  0  0
 31 33  1  0  0  0
 14 13  1  0  0  0
 37  1  1  0  0  0
 37 39  1  0  0  0
 13 12  1  0  0  0
 38 39  2  0  0  0
 12 11  1  0  0  0
 11 10  1  0  0  0
 10  9  1  0  0  0
  9  8  1  0  0  0
  8  7  1  0  0  0
  7  6  1  0  0  0
  6  5  1  0  0  0
  2  1  1  0  0  0
  1 23  1  0  0  0
 30 32  1  0  0  0
 32 35  1  0  0  0
 39 40  1  0  0  0
 40 41  1  0  0  0
 41 42  1  0  0  0
 42 43  1  0  0  0
 43 44  1  0  0  0
 44 45  1  0  0  0
 45 46  1  0  0  0
 46 47  1  0  0  0
 47 48  2  0  0  0
 48 49  1  0  0  0
 49 50  1  0  0  0
 50 51  1  0  0  0
 51 52  1  0  0  0
 52 53  1  0  0  0
 53 54  1  0  0  0
 54 55  1  0  0  0
 55 56  1  0  0  0
M  CHG 1  26  -1
M  END
> <minimizedAffinity>
-8.01362

> <CNNscore>
0.3118811250

> <CNNaffinity>
7.4273080826

> <CNN_VS>
2.3164372444

> <CNNaffinity_variance>
1.2328875065

$$$$
/media/chris/experiments/cd1a-new-docking/inputs/ligands/7sh4_ligand.pdb


 56 55  0  0  0  0  0  0  0  0999 V2000
  -40.4744   57.4396   61.2616 C   0  0  0  0  0  0  0  0  0  0  0  0
  -39.0776   57.8116   60.8515 C   0  0  0  0  0  0  0  0  0  0  0  0
  -38.2935   57.5914   62.0431 O   0  0  0  0  0  0  0  0  0  0  0  0
  -36.7943   59.1138   61.3846 O   0  0  0  0  0  0  0  0  0  0  0  0
  -37.1207   58.2210   62.1194 C   0  0  0  0  0  0  0  0  0  0  0  0
  -36.3310   57.7548   63.3084 C   0  0  0  0  0  0  0  0  0  0  0  0
  -34.8434   58.0513   63.2203 C   0  0  0  0  0  0  0  0  0  0  0  0
  -34.4578   59.3317   63.9306 C   0  0  0  0  0  0  0  0  0  0  0  0
  -33.0052   59.7173   63.7671 C   0  0  0  0  0  0  0  0  0  0  0  0
  -32.5692   59.7864   62.3175 C   0  0  0  0  0  0  0  0  0  0  0  0
  -31.2809   60.5473   62.1203 C   0  0  0  0  0  0  0  0  0  0  0  0
  -31.3782   61.9891   62.5441 C   0  0  0  0  0  0  0  0  0  0  0  0
  -32.0408   62.8746   61.5122 C   0  0  0  0  0  0  0  0  0  0  0  0
  -32.0159   64.3403   61.8959 C   0  0  0  0  0  0  0  0  0  0  0  0
  -33.2722   65.0985   61.5218 C   0  0  0  0  0  0  0  0  0  0  0  0
  -34.5068   64.2150   61.3839 C   0  0  0  0  0  0  0  0  0  0  0  0
  -35.3917   64.1959   62.6154 C   0  0  0  0  0  0  0  0  0  0  0  0
  -35.1944   62.9672   63.4795 C   0  0  0  0  0  0  0  0  0  0  0  0
  -34.8850   63.2882   64.9352 C   0  0  0  0  0  0  0  0  0  0  0  0
  -33.4007   63.4197   65.2263 C   0  0  0  0  0  0  0  0  0  0  0  0
  -31.4888   64.8988   65.9281 C   0  0  0  0  0  0  0  0  0  0  0  0
  -32.9205   64.8418   65.4459 C   0  0  0  0  0  0  0  0  0  0  0  0
  -41.4331   58.5937   61.1178 C   0  0  0  0  0  0  0  0  0  0  0  0
  -41.5863   59.2342   62.4041 O   0  0  0  0  0  0  0  0  0  0  0  0
  -41.7700   60.8156   62.5692 P   0  0  0  0  0  0  0  0  0  0  0  0
  -41.5277   61.4446   61.2529 O   0  0  0  0  0  0  0  0  0  0  0  0
  -43.0648   61.0615   63.2486 O   0  0  0  0  0  0  0  0  0  0  0  0
  -43.7919   60.7889   62.6672 H   0  0  0  0  0  0  0  0  0  0  0  0
  -40.6043   61.2758   63.5551 O   0  0  0  0  0  0  0  0  0  0  0  0
  -39.2248   61.1027   63.1717 C   0  0  0  0  0  0  0  0  0  0  0  0
  -38.1917   62.0007   65.1386 O   0  0  0  0  0  0  0  0  0  0  0  0
  -38.4221   60.7907   64.4108 C   0  0  0  0  0  0  0  0  0  0  0  0
  -37.7553   62.6470   64.5616 H   0  0  0  0  0  0  0  0  0  0  0  0
  -39.5736   58.6743   64.5246 O   0  0  0  0  0  0  0  0  0  0  0  0
  -39.1015   59.7724   65.2946 C   0  0  0  0  0  0  0  0  0  0  0  0
  -40.0061   58.0320   65.1088 H   0  0  0  0  0  0  0  0  0  0  0  0
  -40.4330   56.9384   62.6389 O   0  0  0  0  0  0  0  0  0  0  0  0
  -41.3318   54.9234   62.2000 O   0  0  0  0  0  0  0  0  0  0  0  0
  -41.2057   55.8727   62.9244 C   0  0  0  0  0  0  0  0  0  0  0  0
  -41.8725   56.0052   64.2585 C   0  0  0  0  0  0  0  0  0  0  0  0
  -42.9793   57.0545   64.2283 C   0  0  0  0  0  0  0  0  0  0  0  0
  -43.5280   57.4111   65.6001 C   0  0  0  0  0  0  0  0  0  0  0  0
  -44.9943   57.8273   65.5810 C   0  0  0  0  0  0  0  0  0  0  0  0
  -45.2205   59.3029   65.8534 C   0  0  0  0  0  0  0  0  0  0  0  0
  -45.9887   60.0426   64.7545 C   0  0  0  0  0  0  0  0  0  0  0  0
  -47.2423   59.3296   64.2429 C   0  0  0  0  0  0  0  0  0  0  0  0
  -48.3421   60.2917   63.9073 C   0  0  0  0  0  0  0  0  0  0  0  0
  -49.6034   59.9921   63.6645 C   0  0  0  0  0  0  0  0  0  0  0  0
  -50.2029   58.6215   63.6750 C   0  0  0  0  0  0  0  0  0  0  0  0
  -50.8187   58.2450   62.3305 C   0  0  0  0  0  0  0  0  0  0  0  0
  -49.7925   57.9048   61.2641 C   0  0  0  0  0  0  0  0  0  0  0  0
  -49.7676   58.8874   60.1061 C   0  0  0  0  0  0  0  0  0  0  0  0
  -48.6399   58.6616   59.1127 C   0  0  0  0  0  0  0  0  0  0  0  0
  -47.8820   57.3628   59.3418 C   0  0  0  0  0  0  0  0  0  0  0  0
  -47.1859   56.8229   58.1082 C   0  0  0  0  0  0  0  0  0  0  0  0
  -46.7375   57.9094   57.1711 C   0  0  0  0  0  0  0  0  0  0  0  0
 21 22  1  0  0  0
  4  5  2  0  0  0
 25 24  1  0  0  0
 25 26  2  0  0  0
 25 27  1  0  0  0
 25 29  1  0  0  0
 22 20  1  0  0  0
  3  5  1  0  0  0
  3  2  1  0  0  0
 20 19  1  0  0  0
 24 23  1  0  0  0
 19 18  1  0  0  0
 18 17  1  0  0  0
 27 28  1  0  0  0
 17 16  1  0  0  0
 29 30  1  0  0  0
 16 15  1  0  0  0
 34 35  1  0  0  0
 34 36  1  0  0  0
 15 14  1  0  0  0
 31 32  1  0  0  0
 31 33  1  0  0  0
 14 13  1  0  0  0
 37  1  1  0  0  0
 37 39  1  0  0  0
 13 12  1  0  0  0
 38 39  2  0  0  0
 12 11  1  0  0  0
 11 10  1  0  0  0
 10  9  1  0  0  0
  9  8  1  0  0  0
  8  7  1  0  0  0
  7  6  1  0  0  0
  6  5  1  0  0  0
  2  1  1  0  0  0
  1 23  1  0  0  0
 30 32  1  0  0  0
 32 35  1  0  0  0
 39 40  1  0  0  0
 40 41  1  0  0  0
 41 42  1  0  0  0
 42 43  1  0  0  0
 43 44  1  0  0  0
 44 45  1  0  0  0
 45 46  1  0  0  0
 46 47  1  0  0  0
 47 48  2  0  0  0
 48 49  1  0  0  0
 49 50  1  0  0  0
 50 51  1  0  0  0
 51 52  1  0  0  0
 52 53  1  0  0  0
 53 54  1  0  0  0
 54 55  1  0  0  0
 55 56  1  0  0  0
M  CHG 1  26  -1
M  END
> <minimizedAffinity>
-7.45040

> <CNNscore>
0.3094308674

> <CNNaffinity>
6.8134446144

> <CNN_VS>
2.1082901955

> <CNNaffinity_variance>
1.2009098530

$$$$
/media/chris/experiments/cd1a-new-docking/inputs/ligands/7sh4_ligand.pdb


 56 55  0  0  0  0  0  0  0  0999 V2000
  -36.7063   62.5348   65.1092 C   0  0  0  0  0  0  0  0  0  0  0  0
  -35.6640   61.4530   65.0800 C   0  0  0  0  0  0  0  0  0  0  0  0
  -35.3474   61.3109   63.6790 O   0  0  0  0  0  0  0  0  0  0  0  0
  -33.3057   61.6739   62.8430 O   0  0  0  0  0  0  0  0  0  0  0  0
  -34.1011   60.9474   63.3752 C   0  0  0  0  0  0  0  0  0  0  0  0
  -33.7949   59.5723   63.8950 C   0  0  0  0  0  0  0  0  0  0  0  0
  -33.7498   58.4986   62.8210 C   0  0  0  0  0  0  0  0  0  0  0  0
  -34.9175   57.5382   62.9027 C   0  0  0  0  0  0  0  0  0  0  0  0
  -35.9139   57.8659   63.9914 C   0  0  0  0  0  0  0  0  0  0  0  0
  -37.3253   58.0449   63.4699 C   0  0  0  0  0  0  0  0  0  0  0  0
  -37.3800   58.7353   62.1290 C   0  0  0  0  0  0  0  0  0  0  0  0
  -38.1716   57.9673   61.1036 C   0  0  0  0  0  0  0  0  0  0  0  0
  -38.4003   58.7373   59.8219 C   0  0  0  0  0  0  0  0  0  0  0  0
  -39.6142   58.2517   59.0559 C   0  0  0  0  0  0  0  0  0  0  0  0
  -40.9339   58.7407   59.6149 C   0  0  0  0  0  0  0  0  0  0  0  0
  -40.9737   60.2421   59.8762 C   0  0  0  0  0  0  0  0  0  0  0  0
  -41.2951   60.6095   61.3121 C   0  0  0  0  0  0  0  0  0  0  0  0
  -41.2066   59.4371   62.2677 C   0  0  0  0  0  0  0  0  0  0  0  0
  -42.5632   58.9042   62.7070 C   0  0  0  0  0  0  0  0  0  0  0  0
  -42.5148   57.4827   63.2380 C   0  0  0  0  0  0  0  0  0  0  0  0
  -41.1341   55.7078   62.1067 C   0  0  0  0  0  0  0  0  0  0  0  0
  -41.1571   56.8135   63.1376 C   0  0  0  0  0  0  0  0  0  0  0  0
  -36.1931   63.7983   65.7510 C   0  0  0  0  0  0  0  0  0  0  0  0
  -34.7876   63.6335   66.0440 O   0  0  0  0  0  0  0  0  0  0  0  0
  -33.6496   64.5348   65.3698 P   0  0  0  0  0  0  0  0  0  0  0  0
  -33.3455   65.6520   66.2897 O   0  0  0  0  0  0  0  0  0  0  0  0
  -32.5451   63.6418   64.9442 O   0  0  0  0  0  0  0  0  0  0  0  0
  -32.1215   63.2559   65.7269 H   0  0  0  0  0  0  0  0  0  0  0  0
  -34.3177   65.1472   64.0578 O   0  0  0  0  0  0  0  0  0  0  0  0
  -33.6333   65.0592   62.7914 C   0  0  0  0  0  0  0  0  0  0  0  0
  -34.2318   63.8104   60.8356 O   0  0  0  0  0  0  0  0  0  0  0  0
  -34.6633   64.8601   61.7068 C   0  0  0  0  0  0  0  0  0  0  0  0
  -33.3530   64.0227   60.4842 H   0  0  0  0  0  0  0  0  0  0  0  0
  -36.7693   65.7405   62.4864 O   0  0  0  0  0  0  0  0  0  0  0  0
  -36.0311   64.5459   62.2636 C   0  0  0  0  0  0  0  0  0  0  0  0
  -37.6434   65.5185   62.8434 H   0  0  0  0  0  0  0  0  0  0  0  0
  -37.8896   62.0170   65.8030 O   0  0  0  0  0  0  0  0  0  0  0  0
  -38.9674   61.4027   63.9265 O   0  0  0  0  0  0  0  0  0  0  0  0
  -38.7219   61.2343   65.0897 C   0  0  0  0  0  0  0  0  0  0  0  0
  -39.2886   60.1205   65.9146 C   0  0  0  0  0  0  0  0  0  0  0  0
  -40.7754   59.9209   65.6381 C   0  0  0  0  0  0  0  0  0  0  0  0
  -41.6861   60.6989   66.5737 C   0  0  0  0  0  0  0  0  0  0  0  0
  -42.9474   61.2254   65.8986 C   0  0  0  0  0  0  0  0  0  0  0  0
  -44.0772   60.2148   65.8282 C   0  0  0  0  0  0  0  0  0  0  0  0
  -45.1500   60.5312   64.7822 C   0  0  0  0  0  0  0  0  0  0  0  0
  -46.4428   59.7226   64.9099 C   0  0  0  0  0  0  0  0  0  0  0  0
  -47.2304   60.1049   66.1270 C   0  0  0  0  0  0  0  0  0  0  0  0
  -48.5176   59.9002   66.3283 C   0  0  0  0  0  0  0  0  0  0  0  0
  -49.4653   59.2384   65.3785 C   0  0  0  0  0  0  0  0  0  0  0  0
  -50.2760   60.2459   64.5683 C   0  0  0  0  0  0  0  0  0  0  0  0
  -51.1393   59.6096   63.4932 C   0  0  0  0  0  0  0  0  0  0  0  0
  -50.5369   58.3510   62.8929 C   0  0  0  0  0  0  0  0  0  0  0  0
  -50.7553   58.2003   61.3965 C   0  0  0  0  0  0  0  0  0  0  0  0
  -49.7322   58.9496   60.5566 C   0  0  0  0  0  0  0  0  0  0  0  0
  -49.3127   58.2240   59.2936 C   0  0  0  0  0  0  0  0  0  0  0  0
  -48.0097   57.4908   59.4497 C   0  0  0  0  0  0  0  0  0  0  0  0
 21 22  1  0  0  0
  4  5  2  0  0  0
 25 24  1  0  0  0
 25 26  2  0  0  0
 25 27  1  0  0  0
 25 29  1  0  0  0
 22 20  1  0  0  0
  3  5  1  0  0  0
  3  2  1  0  0  0
 20 19  1  0  0  0
 24 23  1  0  0  0
 19 18  1  0  0  0
 18 17  1  0  0  0
 27 28  1  0  0  0
 17 16  1  0  0  0
 29 30  1  0  0  0
 16 15  1  0  0  0
 34 35  1  0  0  0
 34 36  1  0  0  0
 15 14  1  0  0  0
 31 32  1  0  0  0
 31 33  1  0  0  0
 14 13  1  0  0  0
 37  1  1  0  0  0
 37 39  1  0  0  0
 13 12  1  0  0  0
 38 39  2  0  0  0
 12 11  1  0  0  0
 11 10  1  0  0  0
 10  9  1  0  0  0
  9  8  1  0  0  0
  8  7  1  0  0  0
  7  6  1  0  0  0
  6  5  1  0  0  0
  2  1  1  0  0  0
  1 23  1  0  0  0
 30 32  1  0  0  0
 32 35  1  0  0  0
 39 40  1  0  0  0
 40 41  1  0  0  0
 41 42  1  0  0  0
 42 43  1  0  0  0
 43 44  1  0  0  0
 44 45  1  0  0  0
 45 46  1  0  0  0
 46 47  1  0  0  0
 47 48  2  0  0  0
 48 49  1  0  0  0
 49 50  1  0  0  0
 50 51  1  0  0  0
 51 52  1  0  0  0
 52 53  1  0  0  0
 53 54  1  0  0  0
 54 55  1  0  0  0
 55 56  1  0  0  0
M  CHG 1  26  -1
M  END
> <minimizedAffinity>
-8.18140

> <CNNscore>
0.2467936575

> <CNNaffinity>
7.2824430466

> <CNN_VS>
1.7972607613

> <CNNaffinity_variance>
1.2936534882

$$$$
